=
 OpenBabel11062421483D

 48 52  0  0  1  0  0  0  0  0999 V2000
  191.6190  177.5090  145.3000 O   0  0  0  0  0  1  0  0  0  0  0  0
  190.8130  174.0470  141.7000 C   0  0  0  0  0  2  0  0  0  0  0  0
  192.6370  176.4770  142.7570 C   0  0  0  0  0  1  0  0  0  0  0  0
  189.4010  174.8220  145.5740 C   0  0  0  0  0  1  0  0  0  0  0  0
  189.8010  173.5850  140.6170 C   0  0  2  0  0  3  0  0  0  0  0  0
  189.1850  177.4900  146.9260 O   0  0  0  0  0  1  0  0  0  0  0  0
  188.3650  175.8420  141.2520 C   0  0  0  0  0  2  0  0  0  0  0  0
  190.8910  176.5750  144.5060 C   0  0  1  0  0  3  0  0  0  0  0  0
  185.9330  175.8620  143.3300 C   0  0  0  0  0  1  0  0  0  0  0  0
  190.3920  175.4410  142.2240 C   0  0  2  0  0  3  0  0  0  0  0  0
  189.4450  176.2660  144.8730 C   0  0  1  0  0  0  0  0  0  0  0  0
  191.2070  176.5820  142.9790 C   0  0  2  0  0  3  0  0  0  0  0  0
  188.6430  174.7060  140.2620 C   0  0  0  0  0  2  0  0  0  0  0  0
  188.9530  175.4950  142.5330 N   0  0  1  0  0  0  0  0  0  0  0  0
  187.3300  177.1980  145.4300 C   0  0  1  0  0  3  0  0  0  0  0  0
  188.6520  176.5080  143.4800 C   0  0  1  0  0  3  0  0  0  0  0  0
  187.2250  176.4590  144.0450 C   0  0  2  0  0  3  0  0  0  0  0  0
  188.8430  177.4680  145.5930 C   0  0  1  0  0  3  0  0  0  0  0  0
  186.6310  178.4570  145.3820 N   0  0  0  0  0  0  0  0  0  0  0  0
  185.5070  178.5120  146.3210 C   0  0  0  0  0  3  0  0  0  0  0  0
  184.8980  177.1150  146.6270 C   0  0  0  0  0  1  0  0  0  0  0  0
  185.9330  179.2320  147.6010 C   0  0  0  0  0  1  0  0  0  0  0  0
  184.9090  179.3810  143.8830 O   0  0  0  0  0  1  0  0  0  0  0  0
  186.2600  179.0620  144.0260 C   0  0  0  0  0  2  0  0  0  0  0  0
  189.5160  172.2070  140.4790 O   0  0  0  0  0  0  0  0  0  0  0  0
  189.6290  170.4120  138.5560 C   0  0  0  0  0  1  0  0  0  0  0  0
  191.0630  172.5720  138.7440 C   0  0  0  0  0  1  0  0  0  0  0  0
  190.3980  171.4830  139.5400 C   0  0  0  0  0  0  0  0  0  0  0  0
  191.4390  170.5670  140.3650 C   0  0  1  0  0  3  0  0  0  0  0  0
  190.7780  168.4310  141.6130 C   0  0  0  0  0  2  0  0  0  0  0  0
  191.0920  169.1540  140.5610 N   0  0  0  0  0  0  0  0  0  0  0  0
  192.9060  170.9040  140.0900 C   0  0  0  0  0  2  0  0  0  0  0  0
  193.5020  170.3070  141.1580 C   0  0  0  0  0  2  0  0  0  0  0  0
  195.3610  174.3400  145.6790 C   0  0  2  0  0  3  0  0  0  0  0  0
  195.1780  173.8400  141.4460 C   0  0  1  0  0  3  0  0  0  0  0  0
  195.2340  170.0130  143.2160 C   0  0  0  0  0  2  0  0  0  0  0  0
  194.8810  175.6260  146.3620 C   0  0  0  0  0  1  0  0  0  0  0  0
  195.9230  172.7830  144.2110 C   0  0  2  0  0  3  0  0  0  0  0  0
  195.1200  171.1890  142.6720 C   0  0  0  0  0  0  0  0  0  0  0  0
  193.9160  172.9930  141.1460 C   0  0  0  0  0  2  0  0  0  0  0  0
  196.5340  173.8450  145.9220 C   0  0  0  0  0  2  0  0  0  0  0  0
  196.1700  172.1650  142.9310 N   0  0  0  0  0  0  0  0  0  0  0  0
  196.4450  173.0190  141.8080 C   0  0  0  0  0  2  0  0  0  0  0  0
  193.2950  173.5720  144.3590 C   0  0  0  0  0  1  0  0  0  0  0  0
  194.8480  173.8880  144.3540 C   0  0  1  0  0  3  0  0  0  0  0  0
  196.9250  172.8280  145.0130 N   0  0  0  0  0  2  0  0  0  0  0  0
  193.8470  171.6090  141.8800 C   0  0  1  0  0  3  0  0  0  0  0  0
  195.4350  174.7570  140.4570 O   0  0  0  0  0  1  0  0  0  0  0  0
  5 25  1  1  0  0  0
  5  2  1  0  0  0  0
  8 11  1  0  0  0  0
  8  1  1  6  0  0  0
  9 17  1  0  0  0  0
 10  2  1  1  0  0  0
 10 14  1  0  0  0  0
 10 12  1  0  0  0  0
 11  4  1  1  0  0  0
 11 18  1  0  0  0  0
 12  3  1  1  0  0  0
 12  8  1  0  0  0  0
 13  5  1  0  0  0  0
 13  7  1  0  0  0  0
 14  7  1  6  0  0  0
 14 16  1  0  0  0  0
 15 19  1  6  0  0  0
 15 18  1  0  0  0  0
 16 17  1  0  0  0  0
 16 11  1  0  0  0  0
 17 15  1  0  0  0  0
 18  6  1  0  0  0  0
 19 20  1  0  0  0  0
 20 21  1  0  0  0  0
 20 22  1  0  0  0  0
 23 24  1  0  0  0  0
 24 19  1  0  0  0  0
 26 28  1  0  0  0  0
 27 28  1  0  0  0  0
 28 29  1  0  0  0  0
 28 25  1  0  0  0  0
 29 31  1  0  0  0  0
 31 30  2  0  0  0  0
 32 29  1  0  0  0  0
 32 33  1  0  0  0  0
 33 47  1  0  0  0  0
 34 41  1  0  0  0  0
 34 37  1  0  0  0  0
 35 43  1  0  0  0  0
 38 45  1  0  0  0  0
 38 46  1  0  0  0  0
 39 42  1  0  0  0  0
 39 36  2  0  0  0  0
 40 35  1  0  0  0  0
 40 47  1  0  0  0  0
 42 38  1  0  0  0  0
 43 42  1  0  0  0  0
 45 44  1  0  0  0  0
 45 34  1  0  0  0  0
 46 41  1  0  0  0  0
 47 39  1  0  0  0  0
 48 35  1  0  0  0  0
M  END
>  <MODEL>
1

>  <REMARK>
 VINA RESULT:      -7.0      0.000      0.000
  Name = 
  10 active torsions:
  status: ('A' for Active; 'I' for Inactive)
    1  A    between atoms: N_2  and  C_22
    2  A    between atoms: N_2  and  C_37
    3  A    between atoms: N_2  and  C_39
    4  A    between atoms: C_10  and  O_25
    5  A    between atoms: N_11  and  C_46
    6  A    between atoms: C_13  and  C_15
    7  A    between atoms: C_13  and  C_47
    8  A    between atoms: C_15  and  C_46
    9  A    between atoms: O_25  and  C_28
   10  A    between atoms: C_28  and  C_46
                            x       y       z     vdW  Elec       q    Type
                         _______ _______ _______ _____ _____    ______ ____

>  <TORSDO>
F 10

$$$$
=
 OpenBabel11062421483D

 48 52  0  0  1  0  0  0  0  0999 V2000
  187.7920  175.7090  140.4820 O   0  0  0  0  0  1  0  0  0  0  0  0
  191.8520  174.5970  143.2890 C   0  0  0  0  0  2  0  0  0  0  0  0
  189.7890  173.6350  141.0150 C   0  0  0  0  0  1  0  0  0  0  0  0
  189.5750  178.0100  142.4150 C   0  0  0  0  0  1  0  0  0  0  0  0
  192.3400  174.3800  144.7470 C   0  0  2  0  0  3  0  0  0  0  0  0
  186.6630  178.1160  141.7050 O   0  0  0  0  0  1  0  0  0  0  0  0
  189.7010  174.6340  145.4770 C   0  0  0  0  0  2  0  0  0  0  0  0
  188.6970  175.7810  141.5810 C   0  0  1  0  0  3  0  0  0  0  0  0
  188.3980  177.3850  146.4610 C   0  0  0  0  0  1  0  0  0  0  0  0
  190.3050  174.6470  143.2750 C   0  0  2  0  0  3  0  0  0  0  0  0
  188.4830  176.8540  142.6410 C   0  0  1  0  0  0  0  0  0  0  0  0
  189.2460  174.4210  142.1080 C   0  0  2  0  0  3  0  0  0  0  0  0
  191.1180  174.1760  145.8370 C   0  0  0  0  0  2  0  0  0  0  0  0
  189.7790  175.5250  144.3340 N   0  0  1  0  0  0  0  0  0  0  0  0
  186.9000  177.8870  144.0840 C   0  0  1  0  0  3  0  0  0  0  0  0
  188.4820  176.0110  144.0250 C   0  0  1  0  0  3  0  0  0  0  0  0
  187.9740  177.1280  144.9470 C   0  0  2  0  0  3  0  0  0  0  0  0
  187.0030  177.2200  142.6930 C   0  0  1  0  0  3  0  0  0  0  0  0
  185.5790  177.6620  144.6140 N   0  0  0  0  0  0  0  0  0  0  0  0
  184.7310  178.8550  144.5340 C   0  0  0  0  0  3  0  0  0  0  0  0
  185.5390  180.1640  144.3130 C   0  0  0  0  0  1  0  0  0  0  0  0
  183.6630  178.6640  143.4570 C   0  0  0  0  0  1  0  0  0  0  0  0
  184.6230  177.6230  146.8830 O   0  0  0  0  0  1  0  0  0  0  0  0
  185.4190  176.9460  145.9570 C   0  0  0  0  0  2  0  0  0  0  0  0
  193.5650  174.9510  145.1580 O   0  0  0  0  0  0  0  0  0  0  0  0
  195.9410  174.3270  146.1080 C   0  0  0  0  0  1  0  0  0  0  0  0
  194.1770  172.6800  145.1420 C   0  0  0  0  0  1  0  0  0  0  0  0
  194.7410  174.0680  145.0130 C   0  0  0  0  0  0  0  0  0  0  0  0
  195.4540  174.3380  143.5910 C   0  0  1  0  0  3  0  0  0  0  0  0
  196.2440  176.7730  143.6440 C   0  0  0  0  0  2  0  0  0  0  0  0
  196.3810  175.4740  143.5020 N   0  0  0  0  0  0  0  0  0  0  0  0
  195.8260  173.0600  142.8370 C   0  0  0  0  0  2  0  0  0  0  0  0
  196.0720  173.5650  141.5970 C   0  0  0  0  0  2  0  0  0  0  0  0
  191.0210  171.1910  138.5960 C   0  0  2  0  0  3  0  0  0  0  0  0
  195.2660  170.8720  138.8640 C   0  0  1  0  0  3  0  0  0  0  0  0
  194.1650  174.7530  140.0890 C   0  0  0  0  0  2  0  0  0  0  0  0
  190.1120  169.9560  138.6400 C   0  0  0  0  0  1  0  0  0  0  0  0
  192.7500  172.5710  138.5490 C   0  0  2  0  0  3  0  0  0  0  0  0
  194.4990  173.5290  139.8040 C   0  0  0  0  0  0  0  0  0  0  0  0
  195.6520  171.1990  140.3280 C   0  0  0  0  0  2  0  0  0  0  0  0
  190.9120  172.0740  137.6520 C   0  0  0  0  0  2  0  0  0  0  0  0
  194.1250  173.0060  138.4980 N   0  0  0  0  0  0  0  0  0  0  0  0
  195.0990  172.1080  137.9410 C   0  0  0  0  0  2  0  0  0  0  0  0
  192.3640  171.0090  140.7770 C   0  0  0  0  0  1  0  0  0  0  0  0
  192.3800  171.2190  139.2070 C   0  0  1  0  0  3  0  0  0  0  0  0
  191.9940  172.9910  137.6000 N   0  0  0  0  0  2  0  0  0  0  0  0
  195.1570  172.5900  140.8570 C   0  0  1  0  0  3  0  0  0  0  0  0
  196.0980  169.9330  138.3050 O   0  0  0  0  0  1  0  0  0  0  0  0
  2  5  1  0  0  0  0
  5 25  1  1  0  0  0
  5 13  1  0  0  0  0
  6 18  1  0  0  0  0
  7 13  1  0  0  0  0
  8  1  1  1  0  0  0
  8 12  1  0  0  0  0
  8 11  1  0  0  0  0
 10  2  1  6  0  0  0
 10 14  1  0  0  0  0
 11  4  1  6  0  0  0
 11 18  1  0  0  0  0
 11 16  1  0  0  0  0
 12  3  1  6  0  0  0
 12 10  1  0  0  0  0
 14  7  1  1  0  0  0
 15 19  1  1  0  0  0
 15 17  1  0  0  0  0
 16 14  1  0  0  0  0
 16 17  1  0  0  0  0
 17  9  1  0  0  0  0
 18 15  1  0  0  0  0
 19 24  1  0  0  0  0
 20 19  1  0  0  0  0
 21 20  1  0  0  0  0
 22 20  1  0  0  0  0
 24 23  1  0  0  0  0
 28 27  1  0  0  0  0
 28 25  1  0  0  0  0
 28 26  1  0  0  0  0
 29 28  1  0  0  0  0
 31 29  1  0  0  0  0
 31 30  2  0  0  0  0
 32 29  1  0  0  0  0
 33 32  1  0  0  0  0
 34 37  1  0  0  0  0
 34 45  1  0  0  0  0
 35 40  1  0  0  0  0
 38 45  1  0  0  0  0
 39 36  2  0  0  0  0
 39 47  1  0  0  0  0
 40 47  1  0  0  0  0
 41 34  1  0  0  0  0
 42 38  1  0  0  0  0
 42 39  1  0  0  0  0
 43 42  1  0  0  0  0
 43 35  1  0  0  0  0
 45 44  1  0  0  0  0
 46 41  1  0  0  0  0
 46 38  1  0  0  0  0
 47 33  1  0  0  0  0
 48 35  1  0  0  0  0
M  END
>  <MODEL>
2

>  <REMARK>
 VINA RESULT:      -7.0      2.210      5.556
  Name = 
  10 active torsions:
  status: ('A' for Active; 'I' for Inactive)
    1  A    between atoms: N_2  and  C_22
    2  A    between atoms: N_2  and  C_37
    3  A    between atoms: N_2  and  C_39
    4  A    between atoms: C_10  and  O_25
    5  A    between atoms: N_11  and  C_46
    6  A    between atoms: C_13  and  C_15
    7  A    between atoms: C_13  and  C_47
    8  A    between atoms: C_15  and  C_46
    9  A    between atoms: O_25  and  C_28
   10  A    between atoms: C_28  and  C_46
                            x       y       z     vdW  Elec       q    Type
                         _______ _______ _______ _____ _____    ______ ____

>  <TORSDO>
F 10

$$$$
=
 OpenBabel11062421483D

 48 52  0  0  1  0  0  0  0  0999 V2000
  187.1990  177.0040  147.5240 O   0  0  0  0  0  1  0  0  0  0  0  0
  191.8460  176.5810  145.5690 C   0  0  0  0  0  2  0  0  0  0  0  0
  190.0210  177.6100  148.0110 C   0  0  0  0  0  1  0  0  0  0  0  0
  188.0350  175.0170  144.7740 C   0  0  0  0  0  1  0  0  0  0  0  0
  192.7410  177.0070  144.3740 C   0  0  2  0  0  3  0  0  0  0  0  0
  185.3890  176.3150  145.3290 O   0  0  0  0  0  1  0  0  0  0  0  0
  190.6260  178.5760  143.5820 C   0  0  0  0  0  2  0  0  0  0  0  0
  188.2000  176.8490  146.5210 C   0  0  1  0  0  3  0  0  0  0  0  0
  188.4380  177.6420  141.4430 C   0  0  0  0  0  1  0  0  0  0  0  0
  190.5390  177.4100  145.5430 C   0  0  2  0  0  3  0  0  0  0  0  0
  187.7680  176.5690  145.0870 C   0  0  1  0  0  0  0  0  0  0  0  0
  189.4690  177.7400  146.6760 C   0  0  2  0  0  3  0  0  0  0  0  0
  192.1200  178.2500  143.4840 C   0  0  0  0  0  2  0  0  0  0  0  0
  189.9460  177.4500  144.1960 N   0  0  1  0  0  0  0  0  0  0  0  0
  186.3250  177.2330  143.3170 C   0  0  1  0  0  3  0  0  0  0  0  0
  188.5510  177.7070  144.2380 C   0  0  1  0  0  3  0  0  0  0  0  0
  187.8180  177.5090  142.9040 C   0  0  2  0  0  3  0  0  0  0  0  0
  186.3760  177.1520  144.8600 C   0  0  1  0  0  3  0  0  0  0  0  0
  185.4850  178.3400  142.9340 N   0  0  0  0  0  0  0  0  0  0  0  0
  184.8720  179.0060  144.0860 C   0  0  0  0  0  3  0  0  0  0  0  0
  185.4150  180.4430  144.3200 C   0  0  0  0  0  1  0  0  0  0  0  0
  183.3500  178.9960  143.9450 C   0  0  0  0  0  1  0  0  0  0  0  0
  185.0630  178.1130  140.5180 O   0  0  0  0  0  1  0  0  0  0  0  0
  184.4860  178.1640  141.7880 C   0  0  0  0  0  2  0  0  0  0  0  0
  193.5780  176.0480  143.7600 O   0  0  0  0  0  0  0  0  0  0  0  0
  196.1120  176.4170  143.1490 C   0  0  0  0  0  1  0  0  0  0  0  0
  194.9620  177.0020  145.4060 C   0  0  0  0  0  1  0  0  0  0  0  0
  194.9660  176.0250  144.2630 C   0  0  0  0  0  0  0  0  0  0  0  0
  195.3610  174.5240  144.7080 C   0  0  1  0  0  3  0  0  0  0  0  0
  197.0870  173.4230  146.2440 C   0  0  0  0  0  2  0  0  0  0  0  0
  196.6310  174.3390  145.4200 N   0  0  0  0  0  0  0  0  0  0  0  0
  194.1660  173.6840  145.1630 C   0  0  0  0  0  2  0  0  0  0  0  0
  194.2180  172.6670  144.2590 C   0  0  0  0  0  2  0  0  0  0  0  0
  189.5380  173.4890  140.0660 C   0  0  2  0  0  3  0  0  0  0  0  0
  190.3430  172.1180  144.0250 C   0  0  1  0  0  3  0  0  0  0  0  0
  193.8710  171.7070  141.7530 C   0  0  0  0  0  2  0  0  0  0  0  0
  188.4000  174.4730  139.7670 C   0  0  0  0  0  1  0  0  0  0  0  0
  190.9620  172.1000  141.0360 C   0  0  2  0  0  3  0  0  0  0  0  0
  192.8150  171.9210  142.4810 C   0  0  0  0  0  0  0  0  0  0  0  0
  191.5320  172.9540  144.5590 C   0  0  0  0  0  2  0  0  0  0  0  0
  189.6610  172.3800  139.4050 C   0  0  0  0  0  2  0  0  0  0  0  0
  191.5660  171.2950  142.0700 N   0  0  0  0  0  0  0  0  0  0  0  0
  190.7430  170.8820  143.1740 C   0  0  0  0  0  2  0  0  0  0  0  0
  190.9460  174.7360  141.8150 C   0  0  0  0  0  1  0  0  0  0  0  0
  190.2030  173.4000  141.3970 C   0  0  1  0  0  3  0  0  0  0  0  0
  190.5810  171.4680  139.9850 N   0  0  0  0  0  2  0  0  0  0  0  0
  192.8280  172.9180  143.6760 C   0  0  1  0  0  3  0  0  0  0  0  0
  189.4570  171.7810  145.0190 O   0  0  0  0  0  1  0  0  0  0  0  0
  5 25  1  6  0  0  0
  5  2  1  0  0  0  0
  8 12  1  0  0  0  0
  8  1  1  1  0  0  0
  9 17  1  0  0  0  0
 10  2  1  1  0  0  0
 10 12  1  0  0  0  0
 11  4  1  6  0  0  0
 11  8  1  0  0  0  0
 12  3  1  1  0  0  0
 13  7  1  0  0  0  0
 13  5  1  0  0  0  0
 14  7  1  6  0  0  0
 14 16  1  0  0  0  0
 14 10  1  0  0  0  0
 15 19  1  1  0  0  0
 15 18  1  0  0  0  0
 16 11  1  0  0  0  0
 17 15  1  0  0  0  0
 17 16  1  0  0  0  0
 18 11  1  0  0  0  0
 18  6  1  0  0  0  0
 19 20  1  0  0  0  0
 20 21  1  0  0  0  0
 22 20  1  0  0  0  0
 23 24  1  0  0  0  0
 24 19  1  0  0  0  0
 25 28  1  0  0  0  0
 26 28  1  0  0  0  0
 28 29  1  0  0  0  0
 28 27  1  0  0  0  0
 29 32  1  0  0  0  0
 29 31  1  0  0  0  0
 31 30  2  0  0  0  0
 33 32  1  0  0  0  0
 34 45  1  0  0  0  0
 35 40  1  0  0  0  0
 35 48  1  0  0  0  0
 36 39  2  0  0  0  0
 37 34  1  0  0  0  0
 38 45  1  0  0  0  0
 38 42  1  0  0  0  0
 39 47  1  0  0  0  0
 41 46  1  0  0  0  0
 41 34  1  0  0  0  0
 42 39  1  0  0  0  0
 42 43  1  0  0  0  0
 43 35  1  0  0  0  0
 45 44  1  0  0  0  0
 46 38  1  0  0  0  0
 47 33  1  0  0  0  0
 47 40  1  0  0  0  0
M  END
>  <MODEL>
3

>  <REMARK>
 VINA RESULT:      -6.9      2.089      5.567
  Name = 
  10 active torsions:
  status: ('A' for Active; 'I' for Inactive)
    1  A    between atoms: N_2  and  C_22
    2  A    between atoms: N_2  and  C_37
    3  A    between atoms: N_2  and  C_39
    4  A    between atoms: C_10  and  O_25
    5  A    between atoms: N_11  and  C_46
    6  A    between atoms: C_13  and  C_15
    7  A    between atoms: C_13  and  C_47
    8  A    between atoms: C_15  and  C_46
    9  A    between atoms: O_25  and  C_28
   10  A    between atoms: C_28  and  C_46
                            x       y       z     vdW  Elec       q    Type
                         _______ _______ _______ _____ _____    ______ ____

>  <TORSDO>
F 10

$$$$
=
 OpenBabel11062421483D

 48 52  0  0  1  0  0  0  0  0999 V2000
  190.4040  169.4560  139.3080 O   0  0  0  0  0  1  0  0  0  0  0  0
  193.0960  172.1190  142.6630 C   0  0  0  0  0  2  0  0  0  0  0  0
  190.4680  170.3540  142.0940 C   0  0  0  0  0  1  0  0  0  0  0  0
  193.6800  170.5650  138.8110 C   0  0  0  0  0  1  0  0  0  0  0  0
  193.6380  173.5390  142.9840 C   0  0  2  0  0  3  0  0  0  0  0  0
  191.5930  170.0900  136.7100 O   0  0  0  0  0  1  0  0  0  0  0  0
  192.1940  174.3870  140.8040 C   0  0  0  0  0  2  0  0  0  0  0  0
  191.3410  170.4210  139.7810 C   0  0  1  0  0  3  0  0  0  0  0  0
  193.4420  174.7140  137.8770 C   0  0  0  0  0  1  0  0  0  0  0  0
  192.0730  172.2180  141.5060 C   0  0  2  0  0  3  0  0  0  0  0  0
  192.1950  171.1750  138.7700 C   0  0  1  0  0  0  0  0  0  0  0  0
  190.9070  171.2410  141.0340 C   0  0  2  0  0  3  0  0  0  0  0  0
  192.9330  174.7390  142.0990 C   0  0  0  0  0  2  0  0  0  0  0  0
  192.5790  173.0480  140.4000 N   0  0  1  0  0  0  0  0  0  0  0  0
  192.1820  172.4180  136.7430 C   0  0  1  0  0  3  0  0  0  0  0  0
  191.9540  172.7270  139.1670 C   0  0  1  0  0  3  0  0  0  0  0  0
  192.6040  173.3600  137.9300 C   0  0  2  0  0  3  0  0  0  0  0  0
  191.4510  171.2480  137.4400 C   0  0  1  0  0  3  0  0  0  0  0  0
  191.2570  173.0940  135.8690 N   0  0  0  0  0  0  0  0  0  0  0  0
  191.8930  173.5650  134.6350 C   0  0  0  0  0  3  0  0  0  0  0  0
  191.9130  175.1150  134.5130 C   0  0  0  0  0  1  0  0  0  0  0  0
  193.2970  172.9730  134.5130 C   0  0  0  0  0  1  0  0  0  0  0  0
  189.0670  173.6380  136.8540 O   0  0  0  0  0  1  0  0  0  0  0  0
  190.3030  174.1420  136.4460 C   0  0  0  0  0  2  0  0  0  0  0  0
  194.9680  173.6840  143.4390 O   0  0  0  0  0  0  0  0  0  0  0  0
  194.0420  173.0790  145.8280 C   0  0  0  0  0  1  0  0  0  0  0  0
  196.5240  173.5200  145.1960 C   0  0  0  0  0  1  0  0  0  0  0  0
  195.1050  173.9150  144.8910 C   0  0  0  0  0  0  0  0  0  0  0  0
  194.7850  175.4590  145.2310 C   0  0  1  0  0  3  0  0  0  0  0  0
  196.3190  176.5840  143.5170 C   0  0  0  0  0  2  0  0  0  0  0  0
  195.2540  176.4750  144.2800 N   0  0  0  0  0  0  0  0  0  0  0  0
  193.4150  175.6750  145.8780 C   0  0  0  0  0  2  0  0  0  0  0  0
  192.9390  176.6980  145.1170 C   0  0  0  0  0  2  0  0  0  0  0  0
  186.6300  177.2380  145.3670 C   0  0  2  0  0  3  0  0  0  0  0  0
  189.7670  174.4550  144.5880 C   0  0  1  0  0  3  0  0  0  0  0  0
  191.2290  178.3300  143.8000 C   0  0  0  0  0  2  0  0  0  0  0  0
  185.4680  176.9040  146.3100 C   0  0  0  0  0  1  0  0  0  0  0  0
  188.4560  177.1710  144.1190 C   0  0  2  0  0  3  0  0  0  0  0  0
  190.8120  177.1440  144.1330 C   0  0  0  0  0  0  0  0  0  0  0  0
  190.9660  174.8650  145.4790 C   0  0  0  0  0  2  0  0  0  0  0  0
  186.4170  177.6920  144.1710 C   0  0  0  0  0  2  0  0  0  0  0  0
  189.6240  176.6270  143.4690 N   0  0  0  0  0  0  0  0  0  0  0  0
  189.6710  175.2100  143.2350 C   0  0  0  0  0  2  0  0  0  0  0  0
  188.7020  176.8820  146.8410 C   0  0  0  0  0  1  0  0  0  0  0  0
  187.9670  176.5890  145.4680 C   0  0  1  0  0  3  0  0  0  0  0  0
  187.5700  177.6830  143.3430 N   0  0  0  0  0  2  0  0  0  0  0  0
  191.4640  176.3410  145.2960 C   0  0  1  0  0  3  0  0  0  0  0  0
  189.6910  173.0950  144.4130 O   0  0  0  0  0  1  0  0  0  0  0  0
  2  5  1  0  0  0  0
  5 25  1  6  0  0  0
  6 18  1  0  0  0  0
  7 13  1  0  0  0  0
  8  1  1  6  0  0  0
  8 12  1  0  0  0  0
  9 17  1  0  0  0  0
 10  2  1  6  0  0  0
 11  4  1  6  0  0  0
 11 16  1  0  0  0  0
 11  8  1  0  0  0  0
 12 10  1  0  0  0  0
 12  3  1  1  0  0  0
 13  5  1  0  0  0  0
 14  7  1  1  0  0  0
 14 10  1  0  0  0  0
 15 19  1  6  0  0  0
 15 18  1  0  0  0  0
 15 17  1  0  0  0  0
 16 14  1  0  0  0  0
 17 16  1  0  0  0  0
 18 11  1  0  0  0  0
 19 24  1  0  0  0  0
 20 19  1  0  0  0  0
 21 20  1  0  0  0  0
 22 20  1  0  0  0  0
 24 23  1  0  0  0  0
 25 28  1  0  0  0  0
 28 27  1  0  0  0  0
 28 29  1  0  0  0  0
 28 26  1  0  0  0  0
 29 32  1  0  0  0  0
 30 31  2  0  0  0  0
 31 29  1  0  0  0  0
 33 47  1  0  0  0  0
 33 32  1  0  0  0  0
 34 45  1  0  0  0  0
 34 37  1  0  0  0  0
 35 40  1  0  0  0  0
 36 39  2  0  0  0  0
 38 45  1  0  0  0  0
 39 47  1  0  0  0  0
 41 34  1  0  0  0  0
 42 38  1  0  0  0  0
 42 39  1  0  0  0  0
 43 42  1  0  0  0  0
 43 35  1  0  0  0  0
 45 44  1  0  0  0  0
 46 38  1  0  0  0  0
 46 41  1  0  0  0  0
 47 40  1  0  0  0  0
 48 35  1  0  0  0  0
M  END
>  <MODEL>
4

>  <REMARK>
 VINA RESULT:      -6.9      2.570      8.794
  Name = 
  10 active torsions:
  status: ('A' for Active; 'I' for Inactive)
    1  A    between atoms: N_2  and  C_22
    2  A    between atoms: N_2  and  C_37
    3  A    between atoms: N_2  and  C_39
    4  A    between atoms: C_10  and  O_25
    5  A    between atoms: N_11  and  C_46
    6  A    between atoms: C_13  and  C_15
    7  A    between atoms: C_13  and  C_47
    8  A    between atoms: C_15  and  C_46
    9  A    between atoms: O_25  and  C_28
   10  A    between atoms: C_28  and  C_46
                            x       y       z     vdW  Elec       q    Type
                         _______ _______ _______ _____ _____    ______ ____

>  <TORSDO>
F 10

$$$$
=
 OpenBabel11062421483D

 48 52  0  0  1  0  0  0  0  0999 V2000
  190.8360  177.6290  148.0110 O   0  0  0  0  0  1  0  0  0  0  0  0
  193.0860  173.7630  145.6480 C   0  0  0  0  0  2  0  0  0  0  0  0
  193.4400  176.5310  147.2480 C   0  0  0  0  0  1  0  0  0  0  0  0
  189.2390  174.6730  147.0510 C   0  0  0  0  0  1  0  0  0  0  0  0
  193.2300  173.0520  144.2750 C   0  0  2  0  0  3  0  0  0  0  0  0
  188.0020  177.3920  147.3200 O   0  0  0  0  0  1  0  0  0  0  0  0
  191.7240  175.1130  143.2530 C   0  0  0  0  0  2  0  0  0  0  0  0
  190.9700  176.5250  147.1190 C   0  0  1  0  0  3  0  0  0  0  0  0
  188.5540  174.9560  142.8560 C   0  0  0  0  0  1  0  0  0  0  0  0
  192.3700  175.1190  145.4430 C   0  0  2  0  0  3  0  0  0  0  0  0
  189.7410  176.0350  146.3640 C   0  0  1  0  0  0  0  0  0  0  0  0
  192.3160  176.4370  146.3360 C   0  0  2  0  0  3  0  0  0  0  0  0
  192.6820  173.9450  143.0000 C   0  0  0  0  0  2  0  0  0  0  0  0
  191.1770  174.9820  144.5910 N   0  0  1  0  0  0  0  0  0  0  0  0
  187.8820  176.6810  145.0290 C   0  0  1  0  0  3  0  0  0  0  0  0
  190.2380  176.0210  144.8210 C   0  0  1  0  0  3  0  0  0  0  0  0
  188.8660  175.8080  144.1660 C   0  0  2  0  0  3  0  0  0  0  0  0
  188.7640  177.1930  146.1910 C   0  0  1  0  0  3  0  0  0  0  0  0
  187.4090  177.8080  144.2670 N   0  0  0  0  0  0  0  0  0  0  0  0
  185.9540  177.9660  144.3410 C   0  0  0  0  0  3  0  0  0  0  0  0
  185.3090  177.1460  145.4930 C   0  0  0  0  0  1  0  0  0  0  0  0
  185.5950  179.4490  144.4360 C   0  0  0  0  0  1  0  0  0  0  0  0
  186.9510  177.9330  141.8510 O   0  0  0  0  0  1  0  0  0  0  0  0
  187.9280  178.0250  142.8430 C   0  0  0  0  0  2  0  0  0  0  0  0
  193.1880  171.6410  144.2190 O   0  0  0  0  0  0  0  0  0  0  0  0
  194.7810  170.2360  145.7750 C   0  0  0  0  0  1  0  0  0  0  0  0
  194.5130  169.9850  143.2010 C   0  0  0  0  0  1  0  0  0  0  0  0
  194.5020  170.9760  144.3320 C   0  0  0  0  0  0  0  0  0  0  0  0
  195.6790  172.0750  144.2300 C   0  0  1  0  0  3  0  0  0  0  0  0
  196.8230  173.3120  146.1580 C   0  0  0  0  0  2  0  0  0  0  0  0
  196.5290  172.2710  145.4120 N   0  0  0  0  0  0  0  0  0  0  0  0
  196.3530  172.1280  142.8580 C   0  0  0  0  0  2  0  0  0  0  0  0
  196.4980  173.4720  142.7030 C   0  0  0  0  0  2  0  0  0  0  0  0
  195.7910  175.4630  136.7280 C   0  0  2  0  0  3  0  0  0  0  0  0
  196.3630  171.9570  139.0900 C   0  0  1  0  0  3  0  0  0  0  0  0
  197.9160  175.2430  141.2270 C   0  0  0  0  0  2  0  0  0  0  0  0
  194.7070  175.5410  135.6460 C   0  0  0  0  0  1  0  0  0  0  0  0
  197.1640  174.8030  138.3330 C   0  0  2  0  0  3  0  0  0  0  0  0
  197.3530  174.2430  140.6140 C   0  0  0  0  0  0  0  0  0  0  0  0
  195.6610  172.2080  140.4480 C   0  0  0  0  0  2  0  0  0  0  0  0
  197.0230  175.7750  136.4720 C   0  0  0  0  0  2  0  0  0  0  0  0
  197.8140  173.9200  139.2710 N   0  0  0  0  0  0  0  0  0  0  0  0
  197.8100  172.5100  138.9890 C   0  0  0  0  0  2  0  0  0  0  0  0
  194.4650  174.8620  138.8440 C   0  0  0  0  0  1  0  0  0  0  0  0
  195.7000  174.5480  137.9010 C   0  0  1  0  0  3  0  0  0  0  0  0
  197.9350  175.3850  137.4870 N   0  0  0  0  0  2  0  0  0  0  0  0
  196.1330  173.4890  141.2190 C   0  0  1  0  0  3  0  0  0  0  0  0
  196.2990  170.6390  138.7080 O   0  0  0  0  0  1  0  0  0  0  0  0
  5 25  1  1  0  0  0
  5  2  1  0  0  0  0
  8  1  1  6  0  0  0
  9 17  1  0  0  0  0
 10  2  1  1  0  0  0
 10 12  1  0  0  0  0
 11  4  1  1  0  0  0
 11  8  1  0  0  0  0
 12  8  1  0  0  0  0
 12  3  1  1  0  0  0
 13  7  1  0  0  0  0
 13  5  1  0  0  0  0
 14  7  1  6  0  0  0
 14 16  1  0  0  0  0
 14 10  1  0  0  0  0
 15 19  1  6  0  0  0
 15 18  1  0  0  0  0
 16 11  1  0  0  0  0
 17 16  1  0  0  0  0
 17 15  1  0  0  0  0
 18 11  1  0  0  0  0
 18  6  1  0  0  0  0
 19 20  1  0  0  0  0
 20 22  1  0  0  0  0
 20 21  1  0  0  0  0
 23 24  1  0  0  0  0
 24 19  1  0  0  0  0
 25 28  1  0  0  0  0
 27 28  1  0  0  0  0
 28 26  1  0  0  0  0
 29 28  1  0  0  0  0
 29 31  1  0  0  0  0
 31 30  2  0  0  0  0
 32 29  1  0  0  0  0
 33 32  1  0  0  0  0
 34 45  1  0  0  0  0
 35 40  1  0  0  0  0
 37 34  1  0  0  0  0
 38 42  1  0  0  0  0
 39 47  1  0  0  0  0
 39 36  2  0  0  0  0
 40 47  1  0  0  0  0
 41 34  1  0  0  0  0
 41 46  1  0  0  0  0
 42 39  1  0  0  0  0
 43 35  1  0  0  0  0
 43 42  1  0  0  0  0
 45 38  1  0  0  0  0
 45 44  1  0  0  0  0
 46 38  1  0  0  0  0
 47 33  1  0  0  0  0
 48 35  1  0  0  0  0
M  END
>  <MODEL>
5

>  <REMARK>
 VINA RESULT:      -6.9      2.723      5.048
  Name = 
  10 active torsions:
  status: ('A' for Active; 'I' for Inactive)
    1  A    between atoms: N_2  and  C_22
    2  A    between atoms: N_2  and  C_37
    3  A    between atoms: N_2  and  C_39
    4  A    between atoms: C_10  and  O_25
    5  A    between atoms: N_11  and  C_46
    6  A    between atoms: C_13  and  C_15
    7  A    between atoms: C_13  and  C_47
    8  A    between atoms: C_15  and  C_46
    9  A    between atoms: O_25  and  C_28
   10  A    between atoms: C_28  and  C_46
                            x       y       z     vdW  Elec       q    Type
                         _______ _______ _______ _____ _____    ______ ____

>  <TORSDO>
F 10

$$$$
=
 OpenBabel11062421483D

 48 52  0  0  1  0  0  0  0  0999 V2000
  188.2970  174.4260  141.5440 O   0  0  0  0  0  1  0  0  0  0  0  0
  192.1270  174.5510  144.8470 C   0  0  0  0  0  2  0  0  0  0  0  0
  190.3320  172.7770  142.8520 C   0  0  0  0  0  1  0  0  0  0  0  0
  189.7800  177.3410  142.7720 C   0  0  0  0  0  1  0  0  0  0  0  0
  192.4880  174.8360  146.3300 C   0  0  2  0  0  3  0  0  0  0  0  0
  186.9450  177.0030  141.8560 O   0  0  0  0  0  1  0  0  0  0  0  0
  189.7840  175.1080  146.7480 C   0  0  0  0  0  2  0  0  0  0  0  0
  189.0910  174.9040  142.6270 C   0  0  1  0  0  3  0  0  0  0  0  0
  188.2650  177.9230  146.7110 C   0  0  0  0  0  1  0  0  0  0  0  0
  190.5880  174.4780  144.7060 C   0  0  2  0  0  3  0  0  0  0  0  0
  188.7290  176.2350  143.2730 C   0  0  1  0  0  0  0  0  0  0  0  0
  189.6530  173.8210  143.5960 C   0  0  2  0  0  3  0  0  0  0  0  0
  191.1820  174.8910  147.3370 C   0  0  0  0  0  2  0  0  0  0  0  0
  189.9240  175.6010  145.3900 N   0  0  1  0  0  0  0  0  0  0  0  0
  186.9710  177.5450  144.1950 C   0  0  1  0  0  3  0  0  0  0  0  0
  188.6400  175.8680  144.8490 C   0  0  1  0  0  3  0  0  0  0  0  0
  187.9960  177.1760  145.3300 C   0  0  2  0  0  3  0  0  0  0  0  0
  187.2350  176.4870  143.0990 C   0  0  1  0  0  3  0  0  0  0  0  0
  185.6190  177.3990  144.6720 N   0  0  0  0  0  0  0  0  0  0  0  0
  184.7790  178.5540  144.3420 C   0  0  0  0  0  3  0  0  0  0  0  0
  185.5780  179.8850  144.2610 C   0  0  0  0  0  1  0  0  0  0  0  0
  184.0040  178.2840  143.0530 C   0  0  0  0  0  1  0  0  0  0  0  0
  184.2540  177.4740  146.7200 O   0  0  0  0  0  1  0  0  0  0  0  0
  185.3730  176.9140  146.1020 C   0  0  0  0  0  2  0  0  0  0  0  0
  193.6420  175.5970  146.6270 O   0  0  0  0  0  0  0  0  0  0  0  0
  193.1850  176.5300  144.2080 C   0  0  0  0  0  1  0  0  0  0  0  0
  194.6090  177.6650  146.0620 C   0  0  0  0  0  1  0  0  0  0  0  0
  194.2080  176.3370  145.4810 C   0  0  0  0  0  0  0  0  0  0  0  0
  195.4470  175.5130  144.8570 C   0  0  1  0  0  3  0  0  0  0  0  0
  196.2120  176.5310  142.6360 C   0  0  0  0  0  2  0  0  0  0  0  0
  196.3190  176.2150  143.9070 N   0  0  0  0  0  0  0  0  0  0  0  0
  196.1080  174.5530  145.8490 C   0  0  0  0  0  2  0  0  0  0  0  0
  197.0210  173.9500  145.0390 C   0  0  0  0  0  2  0  0  0  0  0  0
  193.7210  169.0180  142.8160 C   0  0  2  0  0  3  0  0  0  0  0  0
  196.6730  170.1000  145.6980 C   0  0  1  0  0  3  0  0  0  0  0  0
  196.8250  172.9020  142.5520 C   0  0  0  0  0  2  0  0  0  0  0  0
  192.4990  168.1690  143.1890 C   0  0  0  0  0  1  0  0  0  0  0  0
  195.6260  170.1420  142.8320 C   0  0  2  0  0  3  0  0  0  0  0  0
  196.7160  172.0980  143.5680 C   0  0  0  0  0  0  0  0  0  0  0  0
  196.3630  171.5530  146.1390 C   0  0  0  0  0  2  0  0  0  0  0  0
  194.4780  168.7020  141.8130 C   0  0  0  0  0  2  0  0  0  0  0  0
  196.8740  170.6700  143.3270 N   0  0  0  0  0  0  0  0  0  0  0  0
  197.5230  169.9770  144.4060 C   0  0  0  0  0  2  0  0  0  0  0  0
  193.5650  171.0110  144.4290 C   0  0  0  0  0  1  0  0  0  0  0  0
  194.4550  169.8580  143.8040 C   0  0  1  0  0  3  0  0  0  0  0  0
  195.7040  169.4160  141.7750 N   0  0  0  0  0  2  0  0  0  0  0  0
  196.2960  172.6060  144.9780 C   0  0  1  0  0  3  0  0  0  0  0  0
  197.1970  169.3490  146.7220 O   0  0  0  0  0  1  0  0  0  0  0  0
  2  5  1  0  0  0  0
  5 25  1  6  0  0  0
  5 13  1  0  0  0  0
  6 18  1  0  0  0  0
  7 13  1  0  0  0  0
  8  1  1  1  0  0  0
  8 11  1  0  0  0  0
  8 12  1  0  0  0  0
 10  2  1  6  0  0  0
 10 14  1  0  0  0  0
 11  4  1  6  0  0  0
 11 16  1  0  0  0  0
 12  3  1  6  0  0  0
 12 10  1  0  0  0  0
 14  7  1  1  0  0  0
 15 19  1  1  0  0  0
 15 17  1  0  0  0  0
 16 17  1  0  0  0  0
 16 14  1  0  0  0  0
 17  9  1  0  0  0  0
 18 11  1  0  0  0  0
 18 15  1  0  0  0  0
 19 24  1  0  0  0  0
 20 19  1  0  0  0  0
 21 20  1  0  0  0  0
 22 20  1  0  0  0  0
 24 23  1  0  0  0  0
 26 28  1  0  0  0  0
 28 27  1  0  0  0  0
 28 25  1  0  0  0  0
 29 28  1  0  0  0  0
 29 32  1  0  0  0  0
 30 31  2  0  0  0  0
 31 29  1  0  0  0  0
 33 32  1  0  0  0  0
 34 37  1  0  0  0  0
 34 45  1  0  0  0  0
 35 40  1  0  0  0  0
 35 48  1  0  0  0  0
 36 39  2  0  0  0  0
 38 42  1  0  0  0  0
 38 45  1  0  0  0  0
 39 47  1  0  0  0  0
 41 34  1  0  0  0  0
 42 39  1  0  0  0  0
 42 43  1  0  0  0  0
 43 35  1  0  0  0  0
 45 44  1  0  0  0  0
 46 41  1  0  0  0  0
 46 38  1  0  0  0  0
 47 33  1  0  0  0  0
 47 40  1  0  0  0  0
M  END
>  <MODEL>
6

>  <REMARK>
 VINA RESULT:      -6.8      2.537      5.493
  Name = 
  10 active torsions:
  status: ('A' for Active; 'I' for Inactive)
    1  A    between atoms: N_2  and  C_22
    2  A    between atoms: N_2  and  C_37
    3  A    between atoms: N_2  and  C_39
    4  A    between atoms: C_10  and  O_25
    5  A    between atoms: N_11  and  C_46
    6  A    between atoms: C_13  and  C_15
    7  A    between atoms: C_13  and  C_47
    8  A    between atoms: C_15  and  C_46
    9  A    between atoms: O_25  and  C_28
   10  A    between atoms: C_28  and  C_46
                            x       y       z     vdW  Elec       q    Type
                         _______ _______ _______ _____ _____    ______ ____

>  <TORSDO>
F 10

$$$$
=
 OpenBabel11062421483D

 48 52  0  0  1  0  0  0  0  0999 V2000
  190.8170  177.5450  147.8050 O   0  0  0  0  0  1  0  0  0  0  0  0
  192.6420  173.5690  145.2620 C   0  0  0  0  0  2  0  0  0  0  0  0
  193.2880  176.2670  146.8910 C   0  0  0  0  0  1  0  0  0  0  0  0
  188.9510  174.7420  146.8740 C   0  0  0  0  0  1  0  0  0  0  0  0
  192.6620  172.8800  143.8710 C   0  0  2  0  0  3  0  0  0  0  0  0
  187.9430  177.5410  147.2540 O   0  0  0  0  0  1  0  0  0  0  0  0
  191.2720  175.0720  142.9640 C   0  0  0  0  0  2  0  0  0  0  0  0
  190.8220  176.4540  146.8870 C   0  0  1  0  0  3  0  0  0  0  0  0
  188.0830  175.1670  142.7250 C   0  0  0  0  0  1  0  0  0  0  0  0
  192.0230  174.9810  145.1180 C   0  0  2  0  0  3  0  0  0  0  0  0
  189.5230  176.0750  146.1870 C   0  0  1  0  0  0  0  0  0  0  0  0
  192.1160  176.2790  146.0360 C   0  0  2  0  0  3  0  0  0  0  0  0
  192.1230  173.8390  142.6410 C   0  0  0  0  0  2  0  0  0  0  0  0
  190.7830  174.9540  144.3250 N   0  0  1  0  0  0  0  0  0  0  0  0
  187.6560  176.8910  144.9600 C   0  0  1  0  0  3  0  0  0  0  0  0
  189.9400  176.0570  144.6210 C   0  0  1  0  0  3  0  0  0  0  0  0
  188.5250  175.9640  144.0320 C   0  0  2  0  0  3  0  0  0  0  0  0
  188.6310  177.3090  146.0850 C   0  0  1  0  0  3  0  0  0  0  0  0
  187.2350  178.0680  144.2430 N   0  0  0  0  0  0  0  0  0  0  0  0
  185.7980  178.3220  144.3750 C   0  0  0  0  0  3  0  0  0  0  0  0
  185.1040  177.3830  145.4010 C   0  0  0  0  0  1  0  0  0  0  0  0
  185.5580  179.7950  144.7110 C   0  0  0  0  0  1  0  0  0  0  0  0
  186.6960  178.3240  141.8540 O   0  0  0  0  0  1  0  0  0  0  0  0
  187.7160  178.2860  142.8070 C   0  0  0  0  0  2  0  0  0  0  0  0
  192.5070  171.4770  143.7920 O   0  0  0  0  0  0  0  0  0  0  0  0
  194.6340  171.7680  142.2670 C   0  0  0  0  0  1  0  0  0  0  0  0
  194.0510  169.7030  143.7340 C   0  0  0  0  0  1  0  0  0  0  0  0
  193.4600  170.7980  142.8900 C   0  0  0  0  0  0  0  0  0  0  0  0
  192.6820  170.2510  141.5870 C   0  0  1  0  0  3  0  0  0  0  0  0
  194.2040  168.6840  140.2510 C   0  0  0  0  0  2  0  0  0  0  0  0
  193.1610  168.9990  140.9870 N   0  0  0  0  0  0  0  0  0  0  0  0
  191.1700  170.4800  141.6320 C   0  0  0  0  0  2  0  0  0  0  0  0
  190.8160  170.0470  140.3910 C   0  0  0  0  0  2  0  0  0  0  0  0
  192.5230  174.6280  136.3590 C   0  0  2  0  0  3  0  0  0  0  0  0
  189.3570  173.3800  138.9310 C   0  0  1  0  0  3  0  0  0  0  0  0
  191.5390  169.9590  137.7850 C   0  0  0  0  0  2  0  0  0  0  0  0
  193.0700  176.0600  136.3860 C   0  0  0  0  0  1  0  0  0  0  0  0
  191.3610  172.7780  136.7090 C   0  0  2  0  0  3  0  0  0  0  0  0
  190.9230  171.0200  138.2170 C   0  0  0  0  0  0  0  0  0  0  0  0
  190.0090  172.6280  140.1170 C   0  0  0  0  0  2  0  0  0  0  0  0
  192.1570  174.0670  135.2490 C   0  0  0  0  0  2  0  0  0  0  0  0
  190.3300  171.9130  137.2300 N   0  0  0  0  0  0  0  0  0  0  0  0
  189.1000  172.5130  137.6690 C   0  0  0  0  0  2  0  0  0  0  0  0
  192.8010  173.8480  138.7900 C   0  0  0  0  0  1  0  0  0  0  0  0
  191.8520  173.9950  137.5300 C   0  0  1  0  0  3  0  0  0  0  0  0
  191.4240  172.8650  135.4290 N   0  0  0  0  0  2  0  0  0  0  0  0
  190.9240  171.4170  139.7220 C   0  0  1  0  0  3  0  0  0  0  0  0
  188.2300  174.0680  139.3090 O   0  0  0  0  0  1  0  0  0  0  0  0
  5 25  1  1  0  0  0
  5  2  1  0  0  0  0
  8  1  1  6  0  0  0
  9 17  1  0  0  0  0
 10  2  1  1  0  0  0
 10 12  1  0  0  0  0
 11  4  1  1  0  0  0
 11  8  1  0  0  0  0
 12  8  1  0  0  0  0
 12  3  1  1  0  0  0
 13  7  1  0  0  0  0
 13  5  1  0  0  0  0
 14  7  1  6  0  0  0
 14 16  1  0  0  0  0
 14 10  1  0  0  0  0
 15 19  1  6  0  0  0
 15 18  1  0  0  0  0
 16 11  1  0  0  0  0
 17 16  1  0  0  0  0
 17 15  1  0  0  0  0
 18 11  1  0  0  0  0
 18  6  1  0  0  0  0
 19 20  1  0  0  0  0
 20 22  1  0  0  0  0
 20 21  1  0  0  0  0
 23 24  1  0  0  0  0
 24 19  1  0  0  0  0
 26 28  1  0  0  0  0
 28 27  1  0  0  0  0
 28 25  1  0  0  0  0
 29 32  1  0  0  0  0
 29 28  1  0  0  0  0
 30 31  2  0  0  0  0
 31 29  1  0  0  0  0
 33 32  1  0  0  0  0
 34 37  1  0  0  0  0
 34 45  1  0  0  0  0
 35 48  1  0  0  0  0
 35 40  1  0  0  0  0
 36 39  2  0  0  0  0
 38 42  1  0  0  0  0
 38 45  1  0  0  0  0
 39 47  1  0  0  0  0
 41 46  1  0  0  0  0
 41 34  1  0  0  0  0
 42 43  1  0  0  0  0
 42 39  1  0  0  0  0
 43 35  1  0  0  0  0
 45 44  1  0  0  0  0
 46 38  1  0  0  0  0
 47 40  1  0  0  0  0
 47 33  1  0  0  0  0
M  END
>  <MODEL>
7

>  <REMARK>
 VINA RESULT:      -6.7      2.266      5.181
  Name = 
  10 active torsions:
  status: ('A' for Active; 'I' for Inactive)
    1  A    between atoms: N_2  and  C_22
    2  A    between atoms: N_2  and  C_37
    3  A    between atoms: N_2  and  C_39
    4  A    between atoms: C_10  and  O_25
    5  A    between atoms: N_11  and  C_46
    6  A    between atoms: C_13  and  C_15
    7  A    between atoms: C_13  and  C_47
    8  A    between atoms: C_15  and  C_46
    9  A    between atoms: O_25  and  C_28
   10  A    between atoms: C_28  and  C_46
                            x       y       z     vdW  Elec       q    Type
                         _______ _______ _______ _____ _____    ______ ____

>  <TORSDO>
F 10

$$$$
=
 OpenBabel11062421483D

 48 52  0  0  1  0  0  0  0  0999 V2000
  190.6980  177.7610  147.8960 O   0  0  0  0  0  1  0  0  0  0  0  0
  193.0320  173.8120  145.7620 C   0  0  0  0  0  2  0  0  0  0  0  0
  193.3280  176.6430  147.2610 C   0  0  0  0  0  1  0  0  0  0  0  0
  189.1390  174.7640  147.0020 C   0  0  0  0  0  1  0  0  0  0  0  0
  193.2220  173.0480  144.4240 C   0  0  2  0  0  3  0  0  0  0  0  0
  187.8880  177.4870  147.1230 O   0  0  0  0  0  1  0  0  0  0  0  0
  191.7450  175.0620  143.2730 C   0  0  0  0  0  2  0  0  0  0  0  0
  190.8640  176.6230  147.0530 C   0  0  1  0  0  3  0  0  0  0  0  0
  188.5900  174.8780  142.7800 C   0  0  0  0  0  1  0  0  0  0  0  0
  192.3200  175.1560  145.4810 C   0  0  2  0  0  3  0  0  0  0  0  0
  189.6610  176.0990  146.2790 C   0  0  1  0  0  0  0  0  0  0  0  0
  192.2340  176.5080  146.3180 C   0  0  2  0  0  3  0  0  0  0  0  0
  192.7140  173.8880  143.0970 C   0  0  0  0  0  2  0  0  0  0  0  0
  191.1550  174.9810  144.5960 N   0  0  1  0  0  0  0  0  0  0  0  0
  187.8450  176.6850  144.8600 C   0  0  1  0  0  3  0  0  0  0  0  0
  190.2070  176.0250  144.7540 C   0  0  1  0  0  3  0  0  0  0  0  0
  188.8580  175.7820  144.0640 C   0  0  2  0  0  3  0  0  0  0  0  0
  188.6870  177.2460  146.0280 C   0  0  1  0  0  3  0  0  0  0  0  0
  187.3950  177.7800  144.0380 N   0  0  0  0  0  0  0  0  0  0  0  0
  185.9410  177.9630  144.0940 C   0  0  0  0  0  3  0  0  0  0  0  0
  185.2310  176.9300  145.0110 C   0  0  0  0  0  1  0  0  0  0  0  0
  185.6130  179.3990  144.5050 C   0  0  0  0  0  1  0  0  0  0  0  0
  186.9350  178.0440  141.6340 O   0  0  0  0  0  1  0  0  0  0  0  0
  187.9250  177.9170  142.6100 C   0  0  0  0  0  2  0  0  0  0  0  0
  193.1850  171.6350  144.4220 O   0  0  0  0  0  0  0  0  0  0  0  0
  195.7860  172.0030  144.2450 C   0  0  0  0  0  1  0  0  0  0  0  0
  194.5670  170.2540  145.7330 C   0  0  0  0  0  1  0  0  0  0  0  0
  194.5080  170.9800  144.4170 C   0  0  0  0  0  0  0  0  0  0  0  0
  194.6270  170.0000  143.1410 C   0  0  1  0  0  3  0  0  0  0  0  0
  196.6000  168.3680  143.1450 C   0  0  0  0  0  2  0  0  0  0  0  0
  195.3500  168.7350  143.3220 N   0  0  0  0  0  0  0  0  0  0  0  0
  193.3730  169.9780  142.2640 C   0  0  0  0  0  2  0  0  0  0  0  0
  193.9160  170.2560  141.0470 C   0  0  0  0  0  2  0  0  0  0  0  0
  189.6370  173.7800  137.9750 C   0  0  2  0  0  3  0  0  0  0  0  0
  190.7580  169.7440  138.7790 C   0  0  1  0  0  3  0  0  0  0  0  0
  194.1980  172.1560  139.1400 C   0  0  0  0  0  2  0  0  0  0  0  0
  188.1920  174.2670  138.1410 C   0  0  0  0  0  1  0  0  0  0  0  0
  191.4850  172.5670  137.8740 C   0  0  2  0  0  3  0  0  0  0  0  0
  193.1230  171.4240  139.1240 C   0  0  0  0  0  0  0  0  0  0  0  0
  191.3910  169.7240  140.1930 C   0  0  0  0  0  2  0  0  0  0  0  0
  190.2980  173.9930  136.8800 C   0  0  0  0  0  2  0  0  0  0  0  0
  192.3330  171.4000  137.9010 N   0  0  0  0  0  0  0  0  0  0  0  0
  191.7340  170.1210  137.6320 C   0  0  0  0  0  2  0  0  0  0  0  0
  190.2040  172.8270  140.2920 C   0  0  0  0  0  1  0  0  0  0  0  0
  190.1900  172.6150  138.7220 C   0  0  1  0  0  3  0  0  0  0  0  0
  191.5020  173.2470  136.7850 N   0  0  0  0  0  2  0  0  0  0  0  0
  192.6040  170.6970  140.3990 C   0  0  1  0  0  3  0  0  0  0  0  0
  190.0750  168.5860  138.5000 O   0  0  0  0  0  1  0  0  0  0  0  0
  5 25  1  1  0  0  0
  5  2  1  0  0  0  0
  8  1  1  6  0  0  0
  9 17  1  0  0  0  0
 10  2  1  1  0  0  0
 10 12  1  0  0  0  0
 11  4  1  1  0  0  0
 11  8  1  0  0  0  0
 12  8  1  0  0  0  0
 12  3  1  1  0  0  0
 13  7  1  0  0  0  0
 13  5  1  0  0  0  0
 14  7  1  6  0  0  0
 14 16  1  0  0  0  0
 14 10  1  0  0  0  0
 15 19  1  6  0  0  0
 15 18  1  0  0  0  0
 16 11  1  0  0  0  0
 17 16  1  0  0  0  0
 17 15  1  0  0  0  0
 18 11  1  0  0  0  0
 18  6  1  0  0  0  0
 19 20  1  0  0  0  0
 20 22  1  0  0  0  0
 20 21  1  0  0  0  0
 23 24  1  0  0  0  0
 24 19  1  0  0  0  0
 26 28  1  0  0  0  0
 28 25  1  0  0  0  0
 28 27  1  0  0  0  0
 29 31  1  0  0  0  0
 29 28  1  0  0  0  0
 30 31  2  0  0  0  0
 32 29  1  0  0  0  0
 33 32  1  0  0  0  0
 34 37  1  0  0  0  0
 34 45  1  0  0  0  0
 35 40  1  0  0  0  0
 38 42  1  0  0  0  0
 38 45  1  0  0  0  0
 39 36  2  0  0  0  0
 39 47  1  0  0  0  0
 40 47  1  0  0  0  0
 41 34  1  0  0  0  0
 42 39  1  0  0  0  0
 43 42  1  0  0  0  0
 43 35  1  0  0  0  0
 45 44  1  0  0  0  0
 46 41  1  0  0  0  0
 46 38  1  0  0  0  0
 47 33  1  0  0  0  0
 48 35  1  0  0  0  0
M  END
>  <MODEL>
8

>  <REMARK>
 VINA RESULT:      -6.7      2.215      5.297
  Name = 
  10 active torsions:
  status: ('A' for Active; 'I' for Inactive)
    1  A    between atoms: N_2  and  C_22
    2  A    between atoms: N_2  and  C_37
    3  A    between atoms: N_2  and  C_39
    4  A    between atoms: C_10  and  O_25
    5  A    between atoms: N_11  and  C_46
    6  A    between atoms: C_13  and  C_15
    7  A    between atoms: C_13  and  C_47
    8  A    between atoms: C_15  and  C_46
    9  A    between atoms: O_25  and  C_28
   10  A    between atoms: C_28  and  C_46
                            x       y       z     vdW  Elec       q    Type
                         _______ _______ _______ _____ _____    ______ ____

>  <TORSDO>
F 10

$$$$
=
 OpenBabel11062421483D

 48 52  0  0  1  0  0  0  0  0999 V2000
  187.9350  173.7440  141.7580 O   0  0  0  0  0  1  0  0  0  0  0  0
  192.0150  174.1230  144.7250 C   0  0  0  0  0  2  0  0  0  0  0  0
  189.9970  172.1870  143.1340 C   0  0  0  0  0  1  0  0  0  0  0  0
  189.6300  176.7200  142.4520 C   0  0  0  0  0  1  0  0  0  0  0  0
  192.5030  174.5920  146.1230 C   0  0  2  0  0  3  0  0  0  0  0  0
  186.7190  176.4060  141.7990 O   0  0  0  0  0  1  0  0  0  0  0  0
  189.8540  175.0580  146.6920 C   0  0  0  0  0  2  0  0  0  0  0  0
  188.8310  174.3250  142.7020 C   0  0  1  0  0  3  0  0  0  0  0  0
  188.4540  177.9160  146.3680 C   0  0  0  0  0  1  0  0  0  0  0  0
  190.4680  174.1120  144.7060 C   0  0  2  0  0  3  0  0  0  0  0  0
  188.5760  175.7490  143.1780 C   0  0  1  0  0  0  0  0  0  0  0  0
  189.4230  173.3580  143.7710 C   0  0  2  0  0  3  0  0  0  0  0  0
  191.2830  174.8520  147.2030 C   0  0  0  0  0  2  0  0  0  0  0  0
  189.9070  175.3510  145.2720 N   0  0  1  0  0  0  0  0  0  0  0  0
  186.9520  177.2620  144.0300 C   0  0  1  0  0  3  0  0  0  0  0  0
  188.5960  175.6070  144.7930 C   0  0  1  0  0  3  0  0  0  0  0  0
  188.0470  177.0000  145.1290 C   0  0  2  0  0  3  0  0  0  0  0  0
  187.0840  176.0520  143.0780 C   0  0  1  0  0  3  0  0  0  0  0  0
  185.6360  177.2540  144.6190 N   0  0  0  0  0  0  0  0  0  0  0  0
  184.8710  178.4640  144.3040 C   0  0  0  0  0  3  0  0  0  0  0  0
  185.7610  179.7320  144.1780 C   0  0  0  0  0  1  0  0  0  0  0  0
  184.0340  178.2370  143.0450 C   0  0  0  0  0  1  0  0  0  0  0  0
  184.7700  177.7710  146.8650 O   0  0  0  0  0  1  0  0  0  0  0  0
  185.4710  176.8490  146.0860 C   0  0  0  0  0  2  0  0  0  0  0  0
  193.7070  175.3250  146.2250 O   0  0  0  0  0  0  0  0  0  0  0  0
  192.5830  176.7350  144.3070 C   0  0  0  0  0  1  0  0  0  0  0  0
  194.5520  177.4840  145.8300 C   0  0  0  0  0  1  0  0  0  0  0  0
  193.9330  176.3000  145.1400 C   0  0  0  0  0  0  0  0  0  0  0  0
  194.8860  175.6490  144.0120 C   0  0  1  0  0  3  0  0  0  0  0  0
  196.9960  176.9010  143.2790 C   0  0  0  0  0  2  0  0  0  0  0  0
  195.7280  176.5600  143.2260 N   0  0  0  0  0  0  0  0  0  0  0  0
  195.4900  174.3030  144.4190 C   0  0  0  0  0  2  0  0  0  0  0  0
  196.1590  173.9760  143.2800 C   0  0  0  0  0  2  0  0  0  0  0  0
  191.7940  173.3940  138.7230 C   0  0  2  0  0  3  0  0  0  0  0  0
  193.6990  171.2590  141.8860 C   0  0  1  0  0  3  0  0  0  0  0  0
  196.3170  174.3030  140.5980 C   0  0  0  0  0  2  0  0  0  0  0  0
  190.2690  173.4090  138.5600 C   0  0  0  0  0  1  0  0  0  0  0  0
  193.8670  173.0080  139.3900 C   0  0  2  0  0  3  0  0  0  0  0  0
  195.4750  173.4260  141.0620 C   0  0  0  0  0  0  0  0  0  0  0  0
  194.0440  172.2940  142.9860 C   0  0  0  0  0  2  0  0  0  0  0  0
  192.5740  173.0900  137.7330 C   0  0  0  0  0  2  0  0  0  0  0  0
  194.9550  172.4270  140.1400 N   0  0  0  0  0  0  0  0  0  0  0  0
  194.7480  171.1410  140.7480 C   0  0  0  0  0  2  0  0  0  0  0  0
  192.1370  174.2700  141.1120 C   0  0  0  0  0  1  0  0  0  0  0  0
  192.4670  173.1590  140.0320 C   0  0  1  0  0  3  0  0  0  0  0  0
  193.9190  172.8530  138.1160 N   0  0  0  0  0  2  0  0  0  0  0  0
  194.9220  173.5050  142.5150 C   0  0  1  0  0  3  0  0  0  0  0  0
  193.3830  170.0300  142.4110 O   0  0  0  0  0  1  0  0  0  0  0  0
  2  5  1  0  0  0  0
  5 25  1  6  0  0  0
  5 13  1  0  0  0  0
  6 18  1  0  0  0  0
  7 13  1  0  0  0  0
  8  1  1  1  0  0  0
  8 11  1  0  0  0  0
  8 12  1  0  0  0  0
 10  2  1  6  0  0  0
 10 14  1  0  0  0  0
 11  4  1  6  0  0  0
 11 16  1  0  0  0  0
 12  3  1  6  0  0  0
 12 10  1  0  0  0  0
 14  7  1  1  0  0  0
 15 19  1  1  0  0  0
 15 17  1  0  0  0  0
 16 17  1  0  0  0  0
 16 14  1  0  0  0  0
 17  9  1  0  0  0  0
 18 11  1  0  0  0  0
 18 15  1  0  0  0  0
 19 24  1  0  0  0  0
 20 19  1  0  0  0  0
 21 20  1  0  0  0  0
 22 20  1  0  0  0  0
 24 23  1  0  0  0  0
 26 28  1  0  0  0  0
 28 27  1  0  0  0  0
 28 25  1  0  0  0  0
 29 32  1  0  0  0  0
 29 28  1  0  0  0  0
 31 30  2  0  0  0  0
 31 29  1  0  0  0  0
 33 32  1  0  0  0  0
 34 45  1  0  0  0  0
 35 48  1  0  0  0  0
 35 40  1  0  0  0  0
 36 39  2  0  0  0  0
 37 34  1  0  0  0  0
 38 45  1  0  0  0  0
 38 42  1  0  0  0  0
 39 47  1  0  0  0  0
 41 46  1  0  0  0  0
 41 34  1  0  0  0  0
 42 43  1  0  0  0  0
 42 39  1  0  0  0  0
 43 35  1  0  0  0  0
 45 44  1  0  0  0  0
 46 38  1  0  0  0  0
 47 40  1  0  0  0  0
 47 33  1  0  0  0  0
M  END
>  <MODEL>
9

>  <REMARK>
 VINA RESULT:      -6.4      2.331      5.517
  Name = 
  10 active torsions:
  status: ('A' for Active; 'I' for Inactive)
    1  A    between atoms: N_2  and  C_22
    2  A    between atoms: N_2  and  C_37
    3  A    between atoms: N_2  and  C_39
    4  A    between atoms: C_10  and  O_25
    5  A    between atoms: N_11  and  C_46
    6  A    between atoms: C_13  and  C_15
    7  A    between atoms: C_13  and  C_47
    8  A    between atoms: C_15  and  C_46
    9  A    between atoms: O_25  and  C_28
   10  A    between atoms: C_28  and  C_46
                            x       y       z     vdW  Elec       q    Type
                         _______ _______ _______ _____ _____    ______ ____

>  <TORSDO>
F 10

$$$$
