=
 OpenBabel11062418553D

 33 36  0  0  1  0  0  0  0  0999 V2000
  191.2370  176.4820  145.6220 N   0  0  0  0  0  0  0  0  0  0  0  0
  191.1430  175.8740  144.4750 C   0  0  0  0  0  0  0  0  0  0  0  0
  189.8680  176.7010  142.4780 C   0  0  1  0  0  3  0  0  0  0  0  0
  189.9690  173.2570  144.0560 C   0  0  0  0  0  0  0  0  0  0  0  0
  188.5170  176.8420  141.7490 C   0  0  1  0  0  3  0  0  0  0  0  0
  189.9640  173.2650  145.3150 O   0  0  0  0  0  0  0  0  0  0  0  0
  190.4310  177.9520  142.7690 O   0  0  0  0  0  1  0  0  0  0  0  0
  188.5670  174.1200  142.2410 C   0  0  2  0  0  3  0  0  0  0  0  0
  189.5080  174.4020  143.3240 N   0  0  0  0  0  0  0  0  0  0  0  0
  189.5910  172.3780  141.0500 C   0  0  0  0  0  2  0  0  0  0  0  0
  190.4270  172.0920  143.3580 N   0  0  0  0  0  2  0  0  0  0  0  0
  189.2840  173.8030  141.0150 N   0  0  0  0  0  2  0  0  0  0  0  0
  190.7940  172.1000  141.9440 C   0  0  0  0  0  2  0  0  0  0  0  0
  187.3430  175.4510  142.0010 S   0  0  0  0  0  0  0  0  0  0  0  0
  189.8320  175.7900  143.7180 C   0  0  1  0  0  3  0  0  0  0  0  0
  187.8090  178.1530  142.0740 C   0  0  0  0  0  2  0  0  0  0  0  0
  186.5790  178.2050  141.4180 O   0  0  0  0  0  1  0  0  0  0  0  0
  194.3000  174.3090  143.6390 C   0  0  0  0  0  3  0  0  0  0  0  0
  192.3540  175.2880  143.8800 C   0  0  0  0  0  0  0  0  0  0  0  0
  193.3560  174.6630  144.5890 C   0  0  0  0  0  3  0  0  0  0  0  0
  193.8090  174.7280  142.4170 C   0  0  0  0  0  3  0  0  0  0  0  0
  192.6460  175.3130  142.6040 O   0  0  0  0  0  0  0  0  0  0  0  0
  190.1760  177.1460  146.2020 O   0  0  0  0  0  0  0  0  0  0  0  0
  189.5020  176.6070  147.3360 C   0  0  0  0  0  2  0  0  0  0  0  0
  188.2710  175.7970  146.9370 C   0  0  0  0  0  2  0  0  0  0  0  0
  185.5450  179.2860  146.5630 C   0  0  0  0  0  3  0  0  0  0  0  0
  185.5320  178.3130  147.6960 C   0  0  0  0  0  2  0  0  0  0  0  0
  185.6570  177.5030  144.8500 C   0  0  0  0  0  3  0  0  0  0  0  0
  186.7330  177.4870  147.7000 N   0  0  0  0  0  0  0  0  0  0  0  0
  185.4280  180.1470  144.0530 Cl  0  0  0  0  0  0  0  0  0  0  0  0
  187.0690  176.6640  146.7500 C   0  0  0  0  0  0  0  0  0  0  0  0
  186.3080  176.5250  145.4900 C   0  0  0  0  0  3  0  0  0  0  0  0
  185.5700  178.9100  145.2860 C   0  0  0  0  0  0  0  0  0  0  0  0
  1 23  1  0  0  0  0
  2  1  2  0  0  0  0
  3  7  1  1  0  0  0
  3 15  1  0  0  0  0
  4  6  2  0  0  0  0
  5 14  1  0  0  0  0
  5 16  1  1  0  0  0
  5  3  1  0  0  0  0
  8 12  1  6  0  0  0
  8  9  1  0  0  0  0
  9 15  1  0  0  0  0
  9  4  1  0  0  0  0
 10 13  1  0  0  0  0
 11  4  1  0  0  0  0
 12 10  1  0  0  0  0
 13 11  1  0  0  0  0
 14  8  1  0  0  0  0
 15  2  1  6  0  0  0
 17 16  1  0  0  0  0
 18 20  1  0  0  0  0
 19  2  1  0  0  0  0
 19 20  2  0  0  0  0
 21 22  1  0  0  0  0
 21 18  2  0  0  0  0
 22 19  1  0  0  0  0
 23 24  1  0  0  0  0
 25 24  1  0  0  0  0
 26 27  1  0  0  0  0
 27 29  1  0  0  0  0
 28 33  1  0  0  0  0
 28 32  2  0  0  0  0
 30 33  1  0  0  0  0
 31 25  1  0  0  0  0
 31 29  2  0  0  0  0
 32 31  1  0  0  0  0
 33 26  2  0  0  0  0
M  END
>  <MODEL>
1

>  <REMARK>
 VINA RESULT:      -6.9      0.000      0.000
  Name = 
  7 active torsions:
  status: ('A' for Active; 'I' for Inactive)
    1  A    between atoms: C_1  and  C_10
    2  A    between atoms: N_2  and  O_12
    3  A    between atoms: C_5  and  O_12
    4  A    between atoms: C_5  and  C_24
    5  A    between atoms: C_6  and  C_18
    6  A    between atoms: C_6  and  C_33
    7  A    between atoms: C_24  and  C_26
                            x       y       z     vdW  Elec       q    Type
                         _______ _______ _______ _____ _____    ______ ____

>  <TORSDO>
F 7

$$$$
=
 OpenBabel11062418553D

 33 36  0  0  1  0  0  0  0  0999 V2000
  190.4090  176.1300  145.8890 N   0  0  0  0  0  0  0  0  0  0  0  0
  191.2690  175.5290  145.1190 C   0  0  0  0  0  0  0  0  0  0  0  0
  189.7910  173.7200  144.2010 C   0  0  1  0  0  3  0  0  0  0  0  0
  190.7320  177.0840  142.7310 C   0  0  0  0  0  0  0  0  0  0  0  0
  189.4370  172.7800  143.0310 C   0  0  1  0  0  3  0  0  0  0  0  0
  191.9410  177.3980  142.8920 O   0  0  0  0  0  0  0  0  0  0  0  0
  190.1340  173.0010  145.3560 O   0  0  0  0  0  1  0  0  0  0  0  0
  189.4650  175.2310  141.7480 C   0  0  2  0  0  3  0  0  0  0  0  0
  190.3230  175.7110  142.8300 N   0  0  0  0  0  0  0  0  0  0  0  0
  187.8030  176.8780  141.5780 C   0  0  0  0  0  2  0  0  0  0  0  0
  189.7700  178.1040  142.4380 N   0  0  0  0  0  2  0  0  0  0  0  0
  188.0700  175.5200  142.0400 N   0  0  0  0  0  2  0  0  0  0  0  0
  188.3290  177.9060  142.5740 C   0  0  0  0  0  2  0  0  0  0  0  0
  189.7390  173.4710  141.3550 S   0  0  0  0  0  0  0  0  0  0  0  0
  190.8430  174.7920  143.8640 C   0  0  1  0  0  3  0  0  0  0  0  0
  190.1260  171.4240  143.1390 C   0  0  0  0  0  2  0  0  0  0  0  0
  190.1820  170.8180  141.8840 O   0  0  0  0  0  1  0  0  0  0  0  0
  194.5840  176.0710  146.4710 C   0  0  0  0  0  3  0  0  0  0  0  0
  192.6990  175.6050  145.4560 C   0  0  0  0  0  0  0  0  0  0  0  0
  193.2100  176.2000  146.5870 C   0  0  0  0  0  3  0  0  0  0  0  0
  194.8200  175.3980  145.2880 C   0  0  0  0  0  3  0  0  0  0  0  0
  193.6690  175.1410  144.7080 O   0  0  0  0  0  0  0  0  0  0  0  0
  189.0630  176.1960  145.5910 O   0  0  0  0  0  0  0  0  0  0  0  0
  188.0800  176.1440  146.6220 C   0  0  0  0  0  2  0  0  0  0  0  0
  187.4440  177.5090  146.8740 C   0  0  0  0  0  2  0  0  0  0  0  0
  184.1750  179.1170  144.3280 C   0  0  0  0  0  3  0  0  0  0  0  0
  184.0850  178.9200  145.8060 C   0  0  0  0  0  2  0  0  0  0  0  0
  185.1700  176.8820  143.9510 C   0  0  0  0  0  3  0  0  0  0  0  0
  185.4000  178.6910  146.3920 N   0  0  0  0  0  0  0  0  0  0  0  0
  184.5460  178.4800  141.7760 Cl  0  0  0  0  0  0  0  0  0  0  0  0
  186.1680  177.6780  146.1150 C   0  0  0  0  0  0  0  0  0  0  0  0
  185.8340  176.6630  145.0920 C   0  0  0  0  0  3  0  0  0  0  0  0
  184.6350  178.1810  143.5000 C   0  0  0  0  0  0  0  0  0  0  0  0
  2 19  1  0  0  0  0
  2  1  2  0  0  0  0
  3  7  1  1  0  0  0
  4  9  1  0  0  0  0
  4  6  2  0  0  0  0
  5 16  1  1  0  0  0
  5  3  1  0  0  0  0
  8 14  1  1  0  0  0
  8 12  1  0  0  0  0
  8  9  1  0  0  0  0
  9 15  1  0  0  0  0
 10 12  1  0  0  0  0
 10 13  1  0  0  0  0
 11 13  1  0  0  0  0
 11  4  1  0  0  0  0
 14  5  1  0  0  0  0
 15  3  1  0  0  0  0
 15  2  1  1  0  0  0
 17 16  1  0  0  0  0
 18 20  1  0  0  0  0
 19 20  2  0  0  0  0
 21 18  2  0  0  0  0
 22 21  1  0  0  0  0
 22 19  1  0  0  0  0
 23  1  1  0  0  0  0
 23 24  1  0  0  0  0
 24 25  1  0  0  0  0
 26 27  1  0  0  0  0
 27 29  1  0  0  0  0
 28 32  2  0  0  0  0
 30 33  1  0  0  0  0
 31 29  2  0  0  0  0
 31 25  1  0  0  0  0
 32 31  1  0  0  0  0
 33 28  1  0  0  0  0
 33 26  2  0  0  0  0
M  END
>  <MODEL>
2

>  <REMARK>
 VINA RESULT:      -6.8      1.983      3.612
  Name = 
  7 active torsions:
  status: ('A' for Active; 'I' for Inactive)
    1  A    between atoms: C_1  and  C_10
    2  A    between atoms: N_2  and  O_12
    3  A    between atoms: C_5  and  O_12
    4  A    between atoms: C_5  and  C_24
    5  A    between atoms: C_6  and  C_18
    6  A    between atoms: C_6  and  C_33
    7  A    between atoms: C_24  and  C_26
                            x       y       z     vdW  Elec       q    Type
                         _______ _______ _______ _____ _____    ______ ____

>  <TORSDO>
F 7

$$$$
=
 OpenBabel11062418553D

 33 36  0  0  1  0  0  0  0  0999 V2000
  191.1660  176.7750  145.9450 N   0  0  0  0  0  0  0  0  0  0  0  0
  190.1330  176.3310  145.2900 C   0  0  0  0  0  0  0  0  0  0  0  0
  189.4970  174.1000  144.3310 C   0  0  1  0  0  3  0  0  0  0  0  0
  189.8730  177.4680  142.6360 C   0  0  0  0  0  0  0  0  0  0  0  0
  189.7400  173.0110  143.2670 C   0  0  1  0  0  3  0  0  0  0  0  0
  190.8640  178.1390  143.0310 O   0  0  0  0  0  0  0  0  0  0  0  0
  189.6920  173.6070  145.6300 O   0  0  0  0  0  1  0  0  0  0  0  0
  189.4630  175.2540  141.6710 C   0  0  2  0  0  3  0  0  0  0  0  0
  189.8330  176.0480  142.8410 N   0  0  0  0  0  0  0  0  0  0  0  0
  187.5340  176.3150  140.8610 C   0  0  0  0  0  2  0  0  0  0  0  0
  188.7920  178.1320  141.9690 N   0  0  0  0  0  2  0  0  0  0  0  0
  188.0160  175.1370  141.5730 N   0  0  0  0  0  2  0  0  0  0  0  0
  187.4750  177.5270  141.7860 C   0  0  0  0  0  2  0  0  0  0  0  0
  190.2910  173.6290  141.6260 S   0  0  0  0  0  0  0  0  0  0  0  0
  190.2780  175.4070  144.0970 C   0  0  1  0  0  3  0  0  0  0  0  0
  190.7080  171.9330  143.7410 C   0  0  0  0  0  2  0  0  0  0  0  0
  191.9270  172.0630  143.0760 O   0  0  0  0  0  1  0  0  0  0  0  0
  186.8970  176.7630  146.8550 C   0  0  0  0  0  3  0  0  0  0  0  0
  188.7860  176.7070  145.7480 C   0  0  0  0  0  0  0  0  0  0  0  0
  188.1320  176.1380  146.8170 C   0  0  0  0  0  3  0  0  0  0  0  0
  186.8820  177.6760  145.8190 C   0  0  0  0  0  3  0  0  0  0  0  0
  188.0280  177.6090  145.1770 O   0  0  0  0  0  0  0  0  0  0  0  0
  192.4580  176.3910  145.6470 O   0  0  0  0  0  0  0  0  0  0  0  0
  193.2230  175.6160  146.5670 C   0  0  0  0  0  2  0  0  0  0  0  0
  194.7230  175.7370  146.3060 C   0  0  0  0  0  2  0  0  0  0  0  0
  197.1140  172.0880  145.4610 C   0  0  0  0  0  3  0  0  0  0  0  0
  197.2050  173.3630  144.6900 C   0  0  0  0  0  2  0  0  0  0  0  0
  194.6390  172.0850  145.4330 C   0  0  0  0  0  3  0  0  0  0  0  0
  196.5490  174.4580  145.3940 N   0  0  0  0  0  0  0  0  0  0  0  0
  195.9920  169.9350  146.5390 Cl  0  0  0  0  0  0  0  0  0  0  0  0
  195.2810  174.5020  145.6780 C   0  0  0  0  0  0  0  0  0  0  0  0
  194.3470  173.3900  145.3930 C   0  0  0  0  0  3  0  0  0  0  0  0
  195.9550  171.5060  145.7630 C   0  0  0  0  0  0  0  0  0  0  0  0
  2 19  1  0  0  0  0
  2  1  2  0  0  0  0
  3  7  1  1  0  0  0
  4  9  1  0  0  0  0
  4  6  2  0  0  0  0
  5 16  1  1  0  0  0
  5  3  1  0  0  0  0
  8 12  1  1  0  0  0
  8  9  1  0  0  0  0
  9 15  1  0  0  0  0
 10 12  1  0  0  0  0
 10 13  1  0  0  0  0
 11  4  1  0  0  0  0
 13 11  1  0  0  0  0
 14  8  1  0  0  0  0
 14  5  1  0  0  0  0
 15  3  1  0  0  0  0
 15  2  1  1  0  0  0
 17 16  1  0  0  0  0
 19 20  2  0  0  0  0
 20 18  1  0  0  0  0
 21 18  2  0  0  0  0
 22 19  1  0  0  0  0
 22 21  1  0  0  0  0
 23  1  1  0  0  0  0
 23 24  1  0  0  0  0
 25 24  1  0  0  0  0
 26 33  2  0  0  0  0
 27 29  1  0  0  0  0
 27 26  1  0  0  0  0
 28 33  1  0  0  0  0
 29 31  2  0  0  0  0
 31 25  1  0  0  0  0
 32 28  2  0  0  0  0
 32 31  1  0  0  0  0
 33 30  1  0  0  0  0
M  END
>  <MODEL>
3

>  <REMARK>
 VINA RESULT:      -6.7      3.474      7.281
  Name = 
  7 active torsions:
  status: ('A' for Active; 'I' for Inactive)
    1  A    between atoms: C_1  and  C_10
    2  A    between atoms: N_2  and  O_12
    3  A    between atoms: C_5  and  O_12
    4  A    between atoms: C_5  and  C_24
    5  A    between atoms: C_6  and  C_18
    6  A    between atoms: C_6  and  C_33
    7  A    between atoms: C_24  and  C_26
                            x       y       z     vdW  Elec       q    Type
                         _______ _______ _______ _____ _____    ______ ____

>  <TORSDO>
F 7

$$$$
=
 OpenBabel11062418553D

 33 36  0  0  1  0  0  0  0  0999 V2000
  189.9710  175.5720  142.5310 N   0  0  0  0  0  0  0  0  0  0  0  0
  190.8600  174.6310  142.6660 C   0  0  0  0  0  0  0  0  0  0  0  0
  192.8100  175.9750  143.4990 C   0  0  1  0  0  3  0  0  0  0  0  0
  190.1760  174.0450  145.4210 C   0  0  0  0  0  0  0  0  0  0  0  0
  194.0720  176.0490  144.3810 C   0  0  1  0  0  3  0  0  0  0  0  0
  189.8750  172.9320  144.9120 O   0  0  0  0  0  0  0  0  0  0  0  0
  193.1130  176.1760  142.1440 O   0  0  0  0  0  1  0  0  0  0  0  0
  192.1970  175.1770  146.2180 C   0  0  2  0  0  3  0  0  0  0  0  0
  191.4180  174.6820  145.0850 N   0  0  0  0  0  0  0  0  0  0  0  0
  190.6360  176.3830  147.4880 C   0  0  0  0  0  2  0  0  0  0  0  0
  189.2750  174.6640  146.3470 N   0  0  0  0  0  2  0  0  0  0  0  0
  191.7700  176.5200  146.5810 N   0  0  0  0  0  2  0  0  0  0  0  0
  189.3550  176.0750  146.7190 C   0  0  0  0  0  2  0  0  0  0  0  0
  193.9970  175.0760  145.9380 S   0  0  0  0  0  0  0  0  0  0  0  0
  191.9570  174.7100  143.7090 C   0  0  1  0  0  3  0  0  0  0  0  0
  195.3410  175.6730  143.6230 C   0  0  0  0  0  2  0  0  0  0  0  0
  196.1920  176.7750  143.5420 O   0  0  0  0  0  1  0  0  0  0  0  0
  191.2560  171.5730  140.7680 C   0  0  0  0  0  3  0  0  0  0  0  0
  190.7700  173.4400  141.8080 C   0  0  0  0  0  0  0  0  0  0  0  0
  191.7410  172.4690  141.7060 C   0  0  0  0  0  3  0  0  0  0  0  0
  190.0200  172.0480  140.3690 C   0  0  0  0  0  3  0  0  0  0  0  0
  189.7680  173.1680  141.0100 O   0  0  0  0  0  0  0  0  0  0  0  0
  189.9190  176.6730  143.3620 O   0  0  0  0  0  0  0  0  0  0  0  0
  189.4400  177.9280  142.8870 C   0  0  0  0  0  2  0  0  0  0  0  0
  188.0350  177.8190  142.3010 C   0  0  0  0  0  2  0  0  0  0  0  0
  185.8970  177.3180  146.1650 C   0  0  0  0  0  3  0  0  0  0  0  0
  185.7090  176.4450  144.9690 C   0  0  0  0  0  2  0  0  0  0  0  0
  185.7620  179.4030  144.8370 C   0  0  0  0  0  3  0  0  0  0  0  0
  186.7660  176.6550  143.9860 N   0  0  0  0  0  0  0  0  0  0  0  0
  185.9670  179.5550  147.5960 Cl  0  0  0  0  0  0  0  0  0  0  0  0
  186.9880  177.7770  143.3660 C   0  0  0  0  0  0  0  0  0  0  0  0
  186.2390  179.0210  143.6470 C   0  0  0  0  0  3  0  0  0  0  0  0
  185.8880  178.6480  146.0990 C   0  0  0  0  0  0  0  0  0  0  0  0
  1  2  2  0  0  0  0
  1 23  1  0  0  0  0
  3  7  1  6  0  0  0
  3 15  1  0  0  0  0
  3  5  1  0  0  0  0
  4 11  1  0  0  0  0
  5 16  1  6  0  0  0
  5 14  1  0  0  0  0
  6  4  2  0  0  0  0
  8 14  1  6  0  0  0
  8 12  1  0  0  0  0
  9  4  1  0  0  0  0
  9  8  1  0  0  0  0
 11 13  1  0  0  0  0
 12 10  1  0  0  0  0
 13 10  1  0  0  0  0
 15  2  1  6  0  0  0
 15  9  1  0  0  0  0
 17 16  1  0  0  0  0
 18 20  1  0  0  0  0
 19  2  1  0  0  0  0
 20 19  2  0  0  0  0
 21 18  2  0  0  0  0
 21 22  1  0  0  0  0
 22 19  1  0  0  0  0
 24 23  1  0  0  0  0
 25 24  1  0  0  0  0
 25 31  1  0  0  0  0
 27 26  1  0  0  0  0
 28 33  1  0  0  0  0
 29 27  1  0  0  0  0
 31 32  1  0  0  0  0
 31 29  2  0  0  0  0
 32 28  2  0  0  0  0
 33 26  2  0  0  0  0
 33 30  1  0  0  0  0
M  END
>  <MODEL>
4

>  <REMARK>
 VINA RESULT:      -6.5      2.310      4.683
  Name = 
  7 active torsions:
  status: ('A' for Active; 'I' for Inactive)
    1  A    between atoms: C_1  and  C_10
    2  A    between atoms: N_2  and  O_12
    3  A    between atoms: C_5  and  O_12
    4  A    between atoms: C_5  and  C_24
    5  A    between atoms: C_6  and  C_18
    6  A    between atoms: C_6  and  C_33
    7  A    between atoms: C_24  and  C_26
                            x       y       z     vdW  Elec       q    Type
                         _______ _______ _______ _____ _____    ______ ____

>  <TORSDO>
F 7

$$$$
=
 OpenBabel11062418553D

 33 36  0  0  1  0  0  0  0  0999 V2000
  190.5010  177.1650  146.0060 N   0  0  0  0  0  0  0  0  0  0  0  0
  189.6300  176.4920  145.3110 C   0  0  0  0  0  0  0  0  0  0  0  0
  189.4220  174.1480  144.4390 C   0  0  1  0  0  3  0  0  0  0  0  0
  189.5720  177.4420  142.5720 C   0  0  0  0  0  0  0  0  0  0  0  0
  189.9410  173.0480  143.4910 C   0  0  1  0  0  3  0  0  0  0  0  0
  190.4070  178.2630  143.0380 O   0  0  0  0  0  0  0  0  0  0  0  0
  189.5080  173.7540  145.7830 O   0  0  0  0  0  1  0  0  0  0  0  0
  189.5840  175.1440  141.7210 C   0  0  2  0  0  3  0  0  0  0  0  0
  189.6910  176.0420  142.8690 N   0  0  0  0  0  0  0  0  0  0  0  0
  187.6560  175.8850  140.6100 C   0  0  0  0  0  2  0  0  0  0  0  0
  188.5100  177.9130  141.7340 N   0  0  0  0  0  2  0  0  0  0  0  0
  188.1900  174.8240  141.4560 N   0  0  0  0  0  2  0  0  0  0  0  0
  187.3180  177.1230  141.4340 C   0  0  0  0  0  2  0  0  0  0  0  0
  190.6170  173.6500  141.8910 S   0  0  0  0  0  0  0  0  0  0  0  0
  190.0480  175.5350  144.2120 C   0  0  1  0  0  3  0  0  0  0  0  0
  190.9720  172.1410  144.1530 C   0  0  0  0  0  2  0  0  0  0  0  0
  192.2310  172.7400  144.1110 O   0  0  0  0  0  1  0  0  0  0  0  0
  186.3120  176.7910  146.7300 C   0  0  0  0  0  3  0  0  0  0  0  0
  188.2010  176.6370  145.6310 C   0  0  0  0  0  0  0  0  0  0  0  0
  187.6820  176.6950  146.9050 C   0  0  0  0  0  3  0  0  0  0  0  0
  186.0860  176.7970  145.3670 C   0  0  0  0  0  3  0  0  0  0  0  0
  187.2390  176.6980  144.7440 O   0  0  0  0  0  0  0  0  0  0  0  0
  191.8620  177.0110  145.8420 O   0  0  0  0  0  0  0  0  0  0  0  0
  192.6060  176.1240  146.6720 C   0  0  0  0  0  2  0  0  0  0  0  0
  194.0680  176.5460  146.7940 C   0  0  0  0  0  2  0  0  0  0  0  0
  195.8970  173.5460  144.0730 C   0  0  0  0  0  3  0  0  0  0  0  0
  196.5590  174.1100  145.2860 C   0  0  0  0  0  2  0  0  0  0  0  0
  195.1430  175.7660  143.2800 C   0  0  0  0  0  3  0  0  0  0  0  0
  195.6040  174.8100  146.1360 N   0  0  0  0  0  0  0  0  0  0  0  0
  194.6850  173.5310  141.7090 Cl  0  0  0  0  0  0  0  0  0  0  0  0
  194.9320  175.8650  145.7820 C   0  0  0  0  0  0  0  0  0  0  0  0
  194.9900  176.4460  144.4230 C   0  0  0  0  0  3  0  0  0  0  0  0
  195.2900  174.3030  143.1610 C   0  0  0  0  0  0  0  0  0  0  0  0
  2 19  1  0  0  0  0
  2  1  2  0  0  0  0
  3  7  1  1  0  0  0
  4  9  1  0  0  0  0
  4  6  2  0  0  0  0
  5 16  1  1  0  0  0
  5  3  1  0  0  0  0
  8 12  1  1  0  0  0
  8 14  1  0  0  0  0
  8  9  1  0  0  0  0
  9 15  1  0  0  0  0
 10 13  1  0  0  0  0
 10 12  1  0  0  0  0
 11  4  1  0  0  0  0
 13 11  1  0  0  0  0
 14  5  1  0  0  0  0
 15  3  1  0  0  0  0
 15  2  1  1  0  0  0
 17 16  1  0  0  0  0
 18 20  1  0  0  0  0
 19 20  2  0  0  0  0
 21 18  2  0  0  0  0
 22 21  1  0  0  0  0
 22 19  1  0  0  0  0
 23  1  1  0  0  0  0
 23 24  1  0  0  0  0
 24 25  1  0  0  0  0
 26 27  1  0  0  0  0
 27 29  1  0  0  0  0
 28 32  2  0  0  0  0
 30 33  1  0  0  0  0
 31 29  2  0  0  0  0
 31 25  1  0  0  0  0
 32 31  1  0  0  0  0
 33 28  1  0  0  0  0
 33 26  2  0  0  0  0
M  END
>  <MODEL>
5

>  <REMARK>
 VINA RESULT:      -6.5      2.891      6.781
  Name = 
  7 active torsions:
  status: ('A' for Active; 'I' for Inactive)
    1  A    between atoms: C_1  and  C_10
    2  A    between atoms: N_2  and  O_12
    3  A    between atoms: C_5  and  O_12
    4  A    between atoms: C_5  and  C_24
    5  A    between atoms: C_6  and  C_18
    6  A    between atoms: C_6  and  C_33
    7  A    between atoms: C_24  and  C_26
                            x       y       z     vdW  Elec       q    Type
                         _______ _______ _______ _____ _____    ______ ____

>  <TORSDO>
F 7

$$$$
=
 OpenBabel11062418553D

 33 36  0  0  1  0  0  0  0  0999 V2000
  190.1200  176.0070  142.3690 N   0  0  0  0  0  0  0  0  0  0  0  0
  190.6380  175.1710  143.2220 C   0  0  0  0  0  0  0  0  0  0  0  0
  190.9880  175.0820  145.7060 C   0  0  1  0  0  3  0  0  0  0  0  0
  193.5150  175.0640  142.8820 C   0  0  0  0  0  0  0  0  0  0  0  0
  191.6860  175.6550  146.9550 C   0  0  1  0  0  3  0  0  0  0  0  0
  193.2440  175.8560  141.9410 O   0  0  0  0  0  0  0  0  0  0  0  0
  189.5920  175.1880  145.7990 O   0  0  0  0  0  1  0  0  0  0  0  0
  193.8570  175.1920  145.3050 C   0  0  2  0  0  3  0  0  0  0  0  0
  192.9280  175.2540  144.1780 N   0  0  0  0  0  0  0  0  0  0  0  0
  195.0790  173.2270  144.9140 C   0  0  0  0  0  2  0  0  0  0  0  0
  194.4220  173.9780  142.6530 N   0  0  0  0  0  2  0  0  0  0  0  0
  194.0330  173.8150  145.7430 N   0  0  0  0  0  2  0  0  0  0  0  0
  194.5340  172.8280  143.5470 C   0  0  0  0  0  2  0  0  0  0  0  0
  193.3850  176.2980  146.6760 S   0  0  0  0  0  0  0  0  0  0  0  0
  191.5130  175.6370  144.3690 C   0  0  1  0  0  3  0  0  0  0  0  0
  190.8570  176.7310  147.6490 C   0  0  0  0  0  2  0  0  0  0  0  0
  191.5730  177.2660  148.7200 O   0  0  0  0  0  1  0  0  0  0  0  0
  189.2510  171.8470  142.8470 C   0  0  0  0  0  3  0  0  0  0  0  0
  190.3310  173.7390  143.0890 C   0  0  0  0  0  0  0  0  0  0  0  0
  189.0760  173.2210  142.8590 C   0  0  0  0  0  3  0  0  0  0  0  0
  190.5970  171.6180  143.0580 C   0  0  0  0  0  3  0  0  0  0  0  0
  191.2080  172.7730  143.2030 O   0  0  0  0  0  0  0  0  0  0  0  0
  190.2710  177.3740  142.4810 O   0  0  0  0  0  0  0  0  0  0  0  0
  189.2650  178.2650  142.0080 C   0  0  0  0  0  2  0  0  0  0  0  0
  187.8690  177.6560  142.1110 C   0  0  0  0  0  2  0  0  0  0  0  0
  184.6190  178.7460  144.9410 C   0  0  0  0  0  3  0  0  0  0  0  0
  185.2830  179.6960  144.0000 C   0  0  0  0  0  2  0  0  0  0  0  0
  186.7680  177.7790  145.7000 C   0  0  0  0  0  3  0  0  0  0  0  0
  186.0660  178.9890  142.9930 N   0  0  0  0  0  0  0  0  0  0  0  0
  184.4060  176.9550  146.8910 Cl  0  0  0  0  0  0  0  0  0  0  0  0
  187.0920  178.2320  143.2500 C   0  0  0  0  0  0  0  0  0  0  0  0
  187.5480  177.9220  144.6220 C   0  0  0  0  0  3  0  0  0  0  0  0
  185.2980  177.9090  145.7230 C   0  0  0  0  0  0  0  0  0  0  0  0
  1 23  1  0  0  0  0
  1  2  2  0  0  0  0
  3  7  1  1  0  0  0
  3  5  1  0  0  0  0
  4  9  1  0  0  0  0
  5 16  1  6  0  0  0
  6  4  2  0  0  0  0
  8 12  1  1  0  0  0
  8 14  1  0  0  0  0
  9 15  1  0  0  0  0
  9  8  1  0  0  0  0
 10 12  1  0  0  0  0
 11  4  1  0  0  0  0
 11 13  1  0  0  0  0
 13 10  1  0  0  0  0
 14  5  1  0  0  0  0
 15  2  1  6  0  0  0
 15  3  1  0  0  0  0
 16 17  1  0  0  0  0
 18 20  1  0  0  0  0
 18 21  2  0  0  0  0
 19 22  1  0  0  0  0
 19  2  1  0  0  0  0
 20 19  2  0  0  0  0
 21 22  1  0  0  0  0
 24 25  1  0  0  0  0
 24 23  1  0  0  0  0
 25 31  1  0  0  0  0
 26 33  2  0  0  0  0
 27 26  1  0  0  0  0
 28 33  1  0  0  0  0
 29 31  2  0  0  0  0
 29 27  1  0  0  0  0
 31 32  1  0  0  0  0
 32 28  2  0  0  0  0
 33 30  1  0  0  0  0
M  END
>  <MODEL>
6

>  <REMARK>
 VINA RESULT:      -6.5      2.517      4.748
  Name = 
  7 active torsions:
  status: ('A' for Active; 'I' for Inactive)
    1  A    between atoms: C_1  and  C_10
    2  A    between atoms: N_2  and  O_12
    3  A    between atoms: C_5  and  O_12
    4  A    between atoms: C_5  and  C_24
    5  A    between atoms: C_6  and  C_18
    6  A    between atoms: C_6  and  C_33
    7  A    between atoms: C_24  and  C_26
                            x       y       z     vdW  Elec       q    Type
                         _______ _______ _______ _____ _____    ______ ____

>  <TORSDO>
F 7

$$$$
=
 OpenBabel11062418553D

 33 36  0  0  1  0  0  0  0  0999 V2000
  190.4460  174.6220  141.9060 N   0  0  0  0  0  0  0  0  0  0  0  0
  191.1910  174.3260  142.9310 C   0  0  0  0  0  0  0  0  0  0  0  0
  190.7250  174.1610  145.3920 C   0  0  1  0  0  3  0  0  0  0  0  0
  193.2890  176.2360  143.5270 C   0  0  0  0  0  0  0  0  0  0  0  0
  190.4190  174.8790  146.7220 C   0  0  1  0  0  3  0  0  0  0  0  0
  192.8590  176.7560  142.4620 O   0  0  0  0  0  0  0  0  0  0  0  0
  189.6920  173.2840  145.0290 O   0  0  0  0  0  1  0  0  0  0  0  0
  192.6880  176.2320  145.9020 C   0  0  2  0  0  3  0  0  0  0  0  0
  192.3710  175.8030  144.5420 N   0  0  0  0  0  0  0  0  0  0  0  0
  194.9570  175.6850  146.1470 C   0  0  0  0  0  2  0  0  0  0  0  0
  194.7010  176.0920  143.7220 N   0  0  0  0  0  2  0  0  0  0  0  0
  193.6050  175.2930  146.5300 N   0  0  0  0  0  2  0  0  0  0  0  0
  195.2820  175.2130  144.7330 C   0  0  0  0  0  2  0  0  0  0  0  0
  191.2020  176.5300  146.9170 S   0  0  0  0  0  0  0  0  0  0  0  0
  191.1080  175.0990  144.2330 C   0  0  1  0  0  3  0  0  0  0  0  0
  188.9230  175.0060  146.9890 C   0  0  0  0  0  2  0  0  0  0  0  0
  188.5560  176.3510  147.0090 O   0  0  0  0  0  1  0  0  0  0  0  0
  193.2020  171.4370  142.0810 C   0  0  0  0  0  3  0  0  0  0  0  0
  192.1110  173.1820  142.8340 C   0  0  0  0  0  0  0  0  0  0  0  0
  192.2850  172.4060  141.7100 C   0  0  0  0  0  3  0  0  0  0  0  0
  193.5350  171.6910  143.3980 C   0  0  0  0  0  3  0  0  0  0  0  0
  192.8580  172.7390  143.8130 O   0  0  0  0  0  0  0  0  0  0  0  0
  189.4850  175.6120  141.9460 O   0  0  0  0  0  0  0  0  0  0  0  0
  188.2060  175.4180  141.3470 C   0  0  0  0  0  2  0  0  0  0  0  0
  187.1010  175.2810  142.3900 C   0  0  0  0  0  2  0  0  0  0  0  0
  184.3470  178.5830  143.5130 C   0  0  0  0  0  3  0  0  0  0  0  0
  185.0960  178.5010  142.2240 C   0  0  0  0  0  2  0  0  0  0  0  0
  186.3350  177.9980  144.8670 C   0  0  0  0  0  3  0  0  0  0  0  0
  185.6510  177.1680  142.0160 N   0  0  0  0  0  0  0  0  0  0  0  0
  183.9660  178.6620  146.1410 Cl  0  0  0  0  0  0  0  0  0  0  0  0
  186.5380  176.6070  142.7850 C   0  0  0  0  0  0  0  0  0  0  0  0
  187.0390  177.2260  144.0310 C   0  0  0  0  0  3  0  0  0  0  0  0
  184.9210  178.3860  144.6980 C   0  0  0  0  0  0  0  0  0  0  0  0
  1 23  1  0  0  0  0
  1  2  2  0  0  0  0
  3  7  1  6  0  0  0
  3  5  1  0  0  0  0
  4 11  1  0  0  0  0
  4  9  1  0  0  0  0
  5 14  1  0  0  0  0
  5 16  1  6  0  0  0
  6  4  2  0  0  0  0
  8 12  1  1  0  0  0
  8 14  1  0  0  0  0
  9  8  1  0  0  0  0
 10 12  1  0  0  0  0
 11 13  1  0  0  0  0
 13 10  1  0  0  0  0
 15  2  1  6  0  0  0
 15  9  1  0  0  0  0
 15  3  1  0  0  0  0
 16 17  1  0  0  0  0
 18 21  2  0  0  0  0
 19  2  1  0  0  0  0
 19 22  1  0  0  0  0
 20 18  1  0  0  0  0
 20 19  2  0  0  0  0
 21 22  1  0  0  0  0
 24 23  1  0  0  0  0
 24 25  1  0  0  0  0
 25 31  1  0  0  0  0
 26 33  2  0  0  0  0
 27 26  1  0  0  0  0
 29 27  1  0  0  0  0
 29 31  2  0  0  0  0
 31 32  1  0  0  0  0
 32 28  2  0  0  0  0
 33 28  1  0  0  0  0
 33 30  1  0  0  0  0
M  END
>  <MODEL>
7

>  <REMARK>
 VINA RESULT:      -6.5      2.459      4.723
  Name = 
  7 active torsions:
  status: ('A' for Active; 'I' for Inactive)
    1  A    between atoms: C_1  and  C_10
    2  A    between atoms: N_2  and  O_12
    3  A    between atoms: C_5  and  O_12
    4  A    between atoms: C_5  and  C_24
    5  A    between atoms: C_6  and  C_18
    6  A    between atoms: C_6  and  C_33
    7  A    between atoms: C_24  and  C_26
                            x       y       z     vdW  Elec       q    Type
                         _______ _______ _______ _____ _____    ______ ____

>  <TORSDO>
F 7

$$$$
=
 OpenBabel11062418553D

 33 36  0  0  1  0  0  0  0  0999 V2000
  191.3090  175.2670  142.1370 N   0  0  0  0  0  0  0  0  0  0  0  0
  192.2310  174.7480  142.8940 C   0  0  0  0  0  0  0  0  0  0  0  0
  192.4500  174.7910  145.3940 C   0  0  1  0  0  3  0  0  0  0  0  0
  194.9670  175.6880  142.7070 C   0  0  0  0  0  0  0  0  0  0  0  0
  192.8230  175.5780  146.6670 C   0  0  1  0  0  3  0  0  0  0  0  0
  194.4820  176.3290  141.7370 O   0  0  0  0  0  0  0  0  0  0  0  0
  191.1070  174.3860  145.4120 O   0  0  0  0  0  1  0  0  0  0  0  0
  195.1040  175.9310  145.1420 C   0  0  2  0  0  3  0  0  0  0  0  0
  194.2800  175.6530  143.9670 N   0  0  0  0  0  0  0  0  0  0  0  0
  196.9720  174.5410  144.8560 C   0  0  0  0  0  2  0  0  0  0  0  0
  196.2160  175.0040  142.5490 N   0  0  0  0  0  2  0  0  0  0  0  0
  195.7390  174.7110  145.6160 N   0  0  0  0  0  2  0  0  0  0  0  0
  196.6850  173.9720  143.4700 C   0  0  0  0  0  2  0  0  0  0  0  0
  194.1880  176.7920  146.4630 S   0  0  0  0  0  0  0  0  0  0  0  0
  192.8130  175.4980  144.0760 C   0  0  1  0  0  3  0  0  0  0  0  0
  191.6240  176.2820  147.2940 C   0  0  0  0  0  2  0  0  0  0  0  0
  191.1920  175.5760  148.4170 O   0  0  0  0  0  1  0  0  0  0  0  0
  193.0100  171.4370  141.6520 C   0  0  0  0  0  3  0  0  0  0  0  0
  192.6910  173.3790  142.6170 C   0  0  0  0  0  0  0  0  0  0  0  0
  192.4230  172.6770  141.4630 C   0  0  0  0  0  3  0  0  0  0  0  0
  193.6050  171.4670  142.8990 C   0  0  0  0  0  3  0  0  0  0  0  0
  193.3880  172.6420  143.4460 O   0  0  0  0  0  0  0  0  0  0  0  0
  190.7480  176.5030  142.3880 O   0  0  0  0  0  0  0  0  0  0  0  0
  189.4280  176.6170  142.9120 C   0  0  0  0  0  2  0  0  0  0  0  0
  189.4140  177.2910  144.2820 C   0  0  0  0  0  2  0  0  0  0  0  0
  186.0260  177.3800  147.1570 C   0  0  0  0  0  3  0  0  0  0  0  0
  187.1670  176.4180  147.2150 C   0  0  0  0  0  2  0  0  0  0  0  0
  185.6920  177.0530  144.7260 C   0  0  0  0  0  3  0  0  0  0  0  0
  188.2620  176.8390  146.3490 N   0  0  0  0  0  0  0  0  0  0  0  0
  183.9380  178.6670  146.1380 Cl  0  0  0  0  0  0  0  0  0  0  0  0
  188.1810  176.9570  145.0560 C   0  0  0  0  0  0  0  0  0  0  0  0
  186.9250  176.7560  144.3000 C   0  0  0  0  0  3  0  0  0  0  0  0
  185.3500  177.6340  146.0380 C   0  0  0  0  0  0  0  0  0  0  0  0
  1 23  1  0  0  0  0
  1  2  2  0  0  0  0
  3  7  1  6  0  0  0
  3  5  1  0  0  0  0
  4  9  1  0  0  0  0
  5 16  1  6  0  0  0
  6  4  2  0  0  0  0
  8 12  1  1  0  0  0
  8 14  1  0  0  0  0
  9 15  1  0  0  0  0
  9  8  1  0  0  0  0
 10 12  1  0  0  0  0
 11  4  1  0  0  0  0
 11 13  1  0  0  0  0
 13 10  1  0  0  0  0
 14  5  1  0  0  0  0
 15  2  1  6  0  0  0
 15  3  1  0  0  0  0
 16 17  1  0  0  0  0
 18 21  2  0  0  0  0
 19  2  1  0  0  0  0
 19 22  1  0  0  0  0
 20 18  1  0  0  0  0
 20 19  2  0  0  0  0
 21 22  1  0  0  0  0
 23 24  1  0  0  0  0
 24 25  1  0  0  0  0
 25 31  1  0  0  0  0
 26 27  1  0  0  0  0
 28 33  1  0  0  0  0
 29 27  1  0  0  0  0
 31 29  2  0  0  0  0
 32 28  2  0  0  0  0
 32 31  1  0  0  0  0
 33 30  1  0  0  0  0
 33 26  2  0  0  0  0
M  END
>  <MODEL>
8

>  <REMARK>
 VINA RESULT:      -6.3      2.779      4.949
  Name = 
  7 active torsions:
  status: ('A' for Active; 'I' for Inactive)
    1  A    between atoms: C_1  and  C_10
    2  A    between atoms: N_2  and  O_12
    3  A    between atoms: C_5  and  O_12
    4  A    between atoms: C_5  and  C_24
    5  A    between atoms: C_6  and  C_18
    6  A    between atoms: C_6  and  C_33
    7  A    between atoms: C_24  and  C_26
                            x       y       z     vdW  Elec       q    Type
                         _______ _______ _______ _____ _____    ______ ____

>  <TORSDO>
F 7

$$$$
=
 OpenBabel11062418553D

 33 36  0  0  1  0  0  0  0  0999 V2000
  192.6050  176.3210  145.5950 N   0  0  0  0  0  0  0  0  0  0  0  0
  192.8820  175.6470  144.5180 C   0  0  0  0  0  0  0  0  0  0  0  0
  191.2880  175.0730  142.6650 C   0  0  1  0  0  3  0  0  0  0  0  0
  193.7860  172.8920  144.5000 C   0  0  0  0  0  0  0  0  0  0  0  0
  190.1690  174.1560  142.1330 C   0  0  1  0  0  3  0  0  0  0  0  0
  193.8400  173.0990  145.7420 O   0  0  0  0  0  0  0  0  0  0  0  0
  190.8620  176.4060  142.7630 O   0  0  0  0  0  1  0  0  0  0  0  0
  192.0830  172.2900  142.8440 C   0  0  2  0  0  3  0  0  0  0  0  0
  192.6320  173.2990  143.7490 N   0  0  0  0  0  0  0  0  0  0  0  0
  193.9580  171.5120  141.6690 C   0  0  0  0  0  2  0  0  0  0  0  0
  194.8790  172.2370  143.8450 N   0  0  0  0  0  2  0  0  0  0  0  0
  192.7620  172.3380  141.5580 N   0  0  0  0  0  2  0  0  0  0  0  0
  195.0720  172.2580  142.3970 C   0  0  0  0  0  2  0  0  0  0  0  0
  190.2710  172.4020  142.6740 S   0  0  0  0  0  0  0  0  0  0  0  0
  191.9440  174.5880  143.9710 C   0  0  1  0  0  3  0  0  0  0  0  0
  188.7750  174.6900  142.4460 C   0  0  0  0  0  2  0  0  0  0  0  0
  187.8170  173.9630  141.7400 O   0  0  0  0  0  1  0  0  0  0  0  0
  196.1980  176.4820  143.3270 C   0  0  0  0  0  3  0  0  0  0  0  0
  194.1230  175.9510  143.7880 C   0  0  0  0  0  0  0  0  0  0  0  0
  195.3380  176.2170  144.3790 C   0  0  0  0  0  3  0  0  0  0  0  0
  195.4590  176.3490  142.1670 C   0  0  0  0  0  3  0  0  0  0  0  0
  194.2220  176.0360  142.4850 O   0  0  0  0  0  0  0  0  0  0  0  0
  191.4170  176.1720  146.2820 O   0  0  0  0  0  0  0  0  0  0  0  0
  190.3850  177.1510  146.1830 C   0  0  0  0  0  2  0  0  0  0  0  0
  189.2130  176.8400  147.1100 C   0  0  0  0  0  2  0  0  0  0  0  0
  185.1230  178.1240  145.9390 C   0  0  0  0  0  3  0  0  0  0  0  0
  185.4640  176.7910  146.5190 C   0  0  0  0  0  2  0  0  0  0  0  0
  187.0030  178.0590  144.3300 C   0  0  0  0  0  3  0  0  0  0  0  0
  186.8050  176.7870  147.0910 N   0  0  0  0  0  0  0  0  0  0  0  0
  185.2080  180.1690  144.2460 Cl  0  0  0  0  0  0  0  0  0  0  0  0
  187.8980  176.9820  146.4150 C   0  0  0  0  0  0  0  0  0  0  0  0
  187.9130  177.3210  144.9750 C   0  0  0  0  0  3  0  0  0  0  0  0
  185.8030  178.6710  144.9340 C   0  0  0  0  0  0  0  0  0  0  0  0
  1 23  1  0  0  0  0
  2  1  2  0  0  0  0
  3  7  1  1  0  0  0
  3 15  1  0  0  0  0
  4  6  2  0  0  0  0
  5 16  1  1  0  0  0
  5  3  1  0  0  0  0
  5 14  1  0  0  0  0
  8 12  1  6  0  0  0
  8  9  1  0  0  0  0
  9 15  1  0  0  0  0
  9  4  1  0  0  0  0
 10 13  1  0  0  0  0
 11  4  1  0  0  0  0
 12 10  1  0  0  0  0
 13 11  1  0  0  0  0
 14  8  1  0  0  0  0
 15  2  1  6  0  0  0
 17 16  1  0  0  0  0
 18 20  1  0  0  0  0
 19 20  2  0  0  0  0
 19  2  1  0  0  0  0
 21 22  1  0  0  0  0
 21 18  2  0  0  0  0
 22 19  1  0  0  0  0
 24 23  1  0  0  0  0
 24 25  1  0  0  0  0
 26 27  1  0  0  0  0
 27 29  1  0  0  0  0
 28 33  1  0  0  0  0
 28 32  2  0  0  0  0
 30 33  1  0  0  0  0
 31 29  2  0  0  0  0
 31 25  1  0  0  0  0
 32 31  1  0  0  0  0
 33 26  2  0  0  0  0
M  END
>  <MODEL>
9

>  <REMARK>
 VINA RESULT:      -6.2      2.213      2.793
  Name = 
  7 active torsions:
  status: ('A' for Active; 'I' for Inactive)
    1  A    between atoms: C_1  and  C_10
    2  A    between atoms: N_2  and  O_12
    3  A    between atoms: C_5  and  O_12
    4  A    between atoms: C_5  and  C_24
    5  A    between atoms: C_6  and  C_18
    6  A    between atoms: C_6  and  C_33
    7  A    between atoms: C_24  and  C_26
                            x       y       z     vdW  Elec       q    Type
                         _______ _______ _______ _____ _____    ______ ____

>  <TORSDO>
F 7

$$$$
