=
 OpenBabel11062421243D

 31 35  0  0  1  0  0  0  0  0999 V2000
  187.8840  176.0280  146.3290 C   0  0  0  0  0  2  0  0  0  0  0  0
  186.5900  176.8280  143.7160 C   0  0  0  0  0  0  0  0  0  0  0  0
  188.0470  175.1970  142.6070 C   0  0  0  0  0  3  0  0  0  0  0  0
  185.7770  177.0360  142.6660 C   0  0  0  0  0  3  0  0  0  0  0  0
  185.1950  179.3780  146.1420 N   0  0  0  0  0  2  0  0  0  0  0  0
  185.8770  179.0570  147.3590 C   0  0  0  0  0  3  0  0  0  0  0  0
  186.9190  177.1730  146.1950 C   0  0  1  0  0  3  0  0  0  0  0  0
  184.4860  177.7920  142.7880 C   0  0  0  0  0  2  0  0  0  0  0  0
  184.6450  178.9370  143.7800 C   0  0  0  0  0  2  0  0  0  0  0  0
  189.2190  176.2310  145.6010 C   0  0  1  0  0  3  0  0  0  0  0  0
  189.0970  176.7880  144.1830 C   0  0  0  0  0  2  0  0  0  0  0  0
  186.2560  177.4490  145.0410 C   0  0  2  0  0  3  0  0  0  0  0  0
  187.9140  176.2190  143.4630 C   0  0  0  0  0  0  0  0  0  0  0  0
  185.0290  178.3420  145.1290 C   0  0  1  0  0  3  0  0  0  0  0  0
  186.6710  177.9870  147.4060 C   0  0  0  0  0  3  0  0  0  0  0  0
  189.3910  172.1210  142.2540 C   0  0  1  0  0  3  0  0  0  0  0  0
  188.2920  173.3010  140.4330 N   0  0  0  0  0  0  0  0  0  0  0  0
  188.2740  173.3220  138.9820 C   0  0  0  0  0  1  0  0  0  0  0  0
  190.3190  171.1070  142.5060 O   0  0  0  0  0  1  0  0  0  0  0  0
  189.5570  173.3220  143.1840 C   0  0  2  0  0  3  0  0  0  0  0  0
  189.3600  174.5350  142.3040 C   0  0  1  0  0  3  0  0  0  0  0  0
  189.4700  174.0840  140.8460 C   0  0  1  0  0  3  0  0  0  0  0  0
  189.5330  172.6200  140.8260 C   0  0  1  0  0  3  0  0  0  0  0  0
  190.8330  173.0800  145.1910 O   0  0  0  0  0  1  0  0  0  0  0  0
  190.9310  173.4110  143.8390 C   0  0  0  0  0  2  0  0  0  0  0  0
  189.6640  177.5960  147.5260 O   0  0  0  0  0  1  0  0  0  0  0  0
  190.2730  176.9580  146.4450 C   0  0  1  0  0  3  0  0  0  0  0  0
  192.5520  175.9840  146.2910 C   0  0  0  0  0  3  0  0  0  0  0  0
  191.2360  175.3850  148.1010 F   0  0  0  0  0  0  0  0  0  0  0  0
  192.8380  176.7300  145.0260 C   0  0  0  0  0  1  0  0  0  0  0  0
  191.3840  176.0680  146.9360 C   0  0  0  0  0  0  0  0  0  0  0  0
  3 13  2  0  0  0  0
  4  8  1  0  0  0  0
  4  2  2  0  0  0  0
  5  6  1  0  0  0  0
  6 15  2  0  0  0  0
  7  1  1  1  0  0  0
  7 15  1  0  0  0  0
  8  9  1  0  0  0  0
 10  1  1  0  0  0  0
 10 27  1  1  0  0  0
 11 10  1  0  0  0  0
 12  2  1  1  0  0  0
 12 14  1  0  0  0  0
 12  7  1  0  0  0  0
 13  2  1  0  0  0  0
 13 11  1  0  0  0  0
 14  9  1  6  0  0  0
 14  5  1  0  0  0  0
 16 19  1  1  0  0  0
 16 20  1  0  0  0  0
 18 17  1  0  0  0  0
 20 25  1  6  0  0  0
 21  3  1  6  0  0  0
 21 20  1  0  0  0  0
 22 17  1  6  0  0  0
 22 21  1  0  0  0  0
 23 17  1  6  0  0  0
 23 22  1  0  0  0  0
 23 16  1  0  0  0  0
 25 24  1  0  0  0  0
 27 31  1  0  0  0  0
 27 26  1  1  0  0  0
 28 31  2  0  0  0  0
 30 28  1  0  0  0  0
 31 29  1  0  0  0  0
M  END
>  <MODEL>
1

>  <REMARK>
 VINA RESULT:      -8.6      0.000      0.000
  Name = 
  4 active torsions:
  status: ('A' for Active; 'I' for Inactive)
    1  A    between atoms: C_6  and  C_19
    2  A    between atoms: C_15  and  C_30
    3  A    between atoms: C_20  and  C_28
    4  A    between atoms: C_25  and  C_28
                            x       y       z     vdW  Elec       q    Type
                         _______ _______ _______ _____ _____    ______ ____

>  <TORSDO>
F 4

$$$$
=
 OpenBabel11062421243D

 31 35  0  0  1  0  0  0  0  0999 V2000
  187.6300  177.7380  141.4590 C   0  0  0  0  0  2  0  0  0  0  0  0
  187.1440  177.8890  144.4400 C   0  0  0  0  0  0  0  0  0  0  0  0
  189.4580  177.1420  144.7560 C   0  0  0  0  0  3  0  0  0  0  0  0
  186.9320  178.2530  145.7160 C   0  0  0  0  0  3  0  0  0  0  0  0
  183.6850  178.4540  143.0110 N   0  0  0  0  0  2  0  0  0  0  0  0
  183.8970  178.2920  141.6040 C   0  0  0  0  0  3  0  0  0  0  0  0
  186.2820  178.0060  142.0700 C   0  0  1  0  0  3  0  0  0  0  0  0
  185.7240  179.0380  146.1360 C   0  0  0  0  0  2  0  0  0  0  0  0
  184.5100  178.5960  145.3290 C   0  0  0  0  0  2  0  0  0  0  0  0
  188.1860  176.3350  141.7340 C   0  0  1  0  0  3  0  0  0  0  0  0
  188.0470  175.8620  143.1800 C   0  0  0  0  0  2  0  0  0  0  0  0
  186.0990  178.1860  143.4050 C   0  0  2  0  0  3  0  0  0  0  0  0
  188.2740  176.9780  144.1530 C   0  0  0  0  0  0  0  0  0  0  0  0
  184.8060  178.8460  143.8560 C   0  0  1  0  0  3  0  0  0  0  0  0
  185.1350  178.1160  141.1420 C   0  0  0  0  0  3  0  0  0  0  0  0
  192.8050  177.0860  145.1970 C   0  0  1  0  0  3  0  0  0  0  0  0
  191.2330  176.3980  146.9200 N   0  0  0  0  0  0  0  0  0  0  0  0
  191.1900  175.5610  148.1050 C   0  0  0  0  0  1  0  0  0  0  0  0
  194.1340  176.9290  144.7930 O   0  0  0  0  0  1  0  0  0  0  0  0
  191.8230  177.0660  144.0260 C   0  0  2  0  0  3  0  0  0  0  0  0
  190.6440  176.2540  144.5120 C   0  0  1  0  0  3  0  0  0  0  0  0
  191.0790  175.4930  145.7670 C   0  0  1  0  0  3  0  0  0  0  0  0
  192.4100  175.9720  146.1500 C   0  0  1  0  0  3  0  0  0  0  0  0
  191.5980  175.3100  142.4190 O   0  0  0  0  0  1  0  0  0  0  0  0
  192.3790  176.4140  142.7650 C   0  0  0  0  0  2  0  0  0  0  0  0
  187.4450  175.9000  139.4910 O   0  0  0  0  0  1  0  0  0  0  0  0
  187.7350  175.2860  140.7110 C   0  0  1  0  0  3  0  0  0  0  0  0
  188.5710  172.9770  141.0810 C   0  0  0  0  0  3  0  0  0  0  0  0
  189.7640  174.3460  139.6410 F   0  0  0  0  0  0  0  0  0  0  0  0
  187.4390  172.6630  142.0050 C   0  0  0  0  0  1  0  0  0  0  0  0
  188.7250  174.1720  140.4990 C   0  0  0  0  0  0  0  0  0  0  0  0
  1 10  1  0  0  0  0
  1  7  1  0  0  0  0
  2  4  2  0  0  0  0
  4  8  1  0  0  0  0
  5 14  1  0  0  0  0
  6  5  1  0  0  0  0
  7 15  1  6  0  0  0
  7 12  1  0  0  0  0
  9  8  1  0  0  0  0
 10 27  1  6  0  0  0
 10 11  1  0  0  0  0
 11 13  1  0  0  0  0
 12 14  1  0  0  0  0
 12  2  1  6  0  0  0
 13  2  1  0  0  0  0
 13  3  2  0  0  0  0
 14  9  1  1  0  0  0
 15  6  2  0  0  0  0
 16 19  1  6  0  0  0
 16 23  1  0  0  0  0
 17 18  1  0  0  0  0
 20 25  1  6  0  0  0
 20 21  1  0  0  0  0
 20 16  1  0  0  0  0
 21  3  1  1  0  0  0
 21 22  1  0  0  0  0
 22 23  1  0  0  0  0
 22 17  1  1  0  0  0
 23 17  1  1  0  0  0
 24 25  1  0  0  0  0
 27 26  1  6  0  0  0
 28 30  1  0  0  0  0
 29 31  1  0  0  0  0
 31 27  1  0  0  0  0
 31 28  2  0  0  0  0
M  END
>  <MODEL>
2

>  <REMARK>
 VINA RESULT:      -8.3      2.892      5.504
  Name = 
  4 active torsions:
  status: ('A' for Active; 'I' for Inactive)
    1  A    between atoms: C_6  and  C_19
    2  A    between atoms: C_15  and  C_30
    3  A    between atoms: C_20  and  C_28
    4  A    between atoms: C_25  and  C_28
                            x       y       z     vdW  Elec       q    Type
                         _______ _______ _______ _____ _____    ______ ____

>  <TORSDO>
F 4

$$$$
=
 OpenBabel11062421243D

 31 35  0  0  1  0  0  0  0  0999 V2000
  190.5430  177.5600  144.0690 C   0  0  0  0  0  2  0  0  0  0  0  0
  189.2980  175.4530  142.2930 C   0  0  0  0  0  0  0  0  0  0  0  0
  187.1310  176.5220  142.7070 C   0  0  0  0  0  3  0  0  0  0  0  0
  188.8840  174.6680  141.2830 C   0  0  0  0  0  3  0  0  0  0  0  0
  192.8590  174.2220  142.6630 N   0  0  0  0  0  2  0  0  0  0  0  0
  193.4240  175.1680  143.5760 C   0  0  0  0  0  3  0  0  0  0  0  0
  191.2980  176.3790  143.5230 C   0  0  1  0  0  3  0  0  0  0  0  0
  189.8410  173.9070  140.4130 C   0  0  0  0  0  2  0  0  0  0  0  0
  191.0160  173.4070  141.2450 C   0  0  0  0  0  2  0  0  0  0  0  0
  189.4410  177.2030  145.0750 C   0  0  1  0  0  3  0  0  0  0  0  0
  188.5570  176.0250  144.6650 C   0  0  0  0  0  2  0  0  0  0  0  0
  190.7590  175.5040  142.6340 C   0  0  2  0  0  3  0  0  0  0  0  0
  188.2760  176.0270  143.1940 C   0  0  0  0  0  0  0  0  0  0  0  0
  191.7130  174.6170  141.8520 C   0  0  1  0  0  3  0  0  0  0  0  0
  192.7020  176.2200  143.9630 C   0  0  0  0  0  3  0  0  0  0  0  0
  185.7870  179.5170  143.4950 C   0  0  1  0  0  3  0  0  0  0  0  0
  185.0830  178.2200  141.5620 N   0  0  0  0  0  0  0  0  0  0  0  0
  183.9340  178.0750  140.6870 C   0  0  0  0  0  1  0  0  0  0  0  0
  185.3510  180.5210  144.3640 O   0  0  0  0  0  1  0  0  0  0  0  0
  186.5370  178.3960  144.2130 C   0  0  2  0  0  3  0  0  0  0  0  0
  186.0530  177.1180  143.5650 C   0  0  1  0  0  3  0  0  0  0  0  0
  184.7820  177.4400  142.7760 C   0  0  1  0  0  3  0  0  0  0  0  0
  184.6030  178.8950  142.7760 C   0  0  1  0  0  3  0  0  0  0  0  0
  185.5690  177.1430  146.0040 O   0  0  0  0  0  1  0  0  0  0  0  0
  186.2530  178.3220  145.7090 C   0  0  0  0  0  2  0  0  0  0  0  0
  189.0990  177.8330  147.3670 O   0  0  0  0  0  1  0  0  0  0  0  0
  189.9400  177.1070  146.5210 C   0  0  1  0  0  3  0  0  0  0  0  0
  191.2740  175.1850  147.3530 C   0  0  0  0  0  3  0  0  0  0  0  0
  188.9730  174.9410  147.2370 F   0  0  0  0  0  0  0  0  0  0  0  0
  192.5520  175.9470  147.2090 C   0  0  0  0  0  1  0  0  0  0  0  0
  190.0820  175.6980  147.0290 C   0  0  0  0  0  0  0  0  0  0  0  0
  1 10  1  0  0  0  0
  2 13  1  0  0  0  0
  3 13  2  0  0  0  0
  4  2  2  0  0  0  0
  5  6  1  0  0  0  0
  6 15  2  0  0  0  0
  7 15  1  6  0  0  0
  7  1  1  0  0  0  0
  8  9  1  0  0  0  0
  8  4  1  0  0  0  0
 10 27  1  1  0  0  0
 11 10  1  0  0  0  0
 12  2  1  6  0  0  0
 12  7  1  0  0  0  0
 13 11  1  0  0  0  0
 14  9  1  1  0  0  0
 14 12  1  0  0  0  0
 14  5  1  0  0  0  0
 16 20  1  0  0  0  0
 16 19  1  1  0  0  0
 18 17  1  0  0  0  0
 20 25  1  1  0  0  0
 21  3  1  6  0  0  0
 21 20  1  0  0  0  0
 22 17  1  6  0  0  0
 22 21  1  0  0  0  0
 23 17  1  6  0  0  0
 23 22  1  0  0  0  0
 23 16  1  0  0  0  0
 25 24  1  0  0  0  0
 27 31  1  0  0  0  0
 27 26  1  1  0  0  0
 30 28  1  0  0  0  0
 31 29  1  0  0  0  0
 31 28  2  0  0  0  0
M  END
>  <MODEL>
3

>  <REMARK>
 VINA RESULT:      -7.7      2.572      5.885
  Name = 
  4 active torsions:
  status: ('A' for Active; 'I' for Inactive)
    1  A    between atoms: C_6  and  C_19
    2  A    between atoms: C_15  and  C_30
    3  A    between atoms: C_20  and  C_28
    4  A    between atoms: C_25  and  C_28
                            x       y       z     vdW  Elec       q    Type
                         _______ _______ _______ _____ _____    ______ ____

>  <TORSDO>
F 4

$$$$
=
 OpenBabel11062421243D

 31 35  0  0  1  0  0  0  0  0999 V2000
  188.1650  177.5400  142.1220 C   0  0  0  0  0  2  0  0  0  0  0  0
  188.4040  177.1860  145.1150 C   0  0  0  0  0  0  0  0  0  0  0  0
  190.6420  176.2610  144.7290 C   0  0  0  0  0  3  0  0  0  0  0  0
  188.5330  177.3290  146.4450 C   0  0  0  0  0  3  0  0  0  0  0  0
  184.7810  178.1980  144.6910 N   0  0  0  0  0  2  0  0  0  0  0  0
  184.6430  178.2770  143.2690 C   0  0  0  0  0  3  0  0  0  0  0  0
  187.0300  177.7740  143.0810 C   0  0  1  0  0  3  0  0  0  0  0  0
  187.5400  178.0970  147.2700 C   0  0  0  0  0  2  0  0  0  0  0  0
  186.1330  177.8770  146.7270 C   0  0  0  0  0  2  0  0  0  0  0  0
  188.6270  176.0800  142.0250 C   0  0  1  0  0  3  0  0  0  0  0  0
  188.7810  175.3670  143.3670 C   0  0  0  0  0  2  0  0  0  0  0  0
  187.1820  177.7240  144.4300 C   0  0  2  0  0  3  0  0  0  0  0  0
  189.3390  176.2760  144.4190 C   0  0  0  0  0  0  0  0  0  0  0  0
  186.1020  178.3680  145.2850 C   0  0  1  0  0  3  0  0  0  0  0  0
  185.7150  178.1130  142.4940 C   0  0  0  0  0  3  0  0  0  0  0  0
  193.5120  176.4210  142.9590 C   0  0  1  0  0  3  0  0  0  0  0  0
  193.4570  176.4180  145.3900 N   0  0  0  0  0  0  0  0  0  0  0  0
  194.3160  176.0940  146.5140 C   0  0  0  0  0  1  0  0  0  0  0  0
  194.3510  176.1400  141.8770 O   0  0  0  0  0  1  0  0  0  0  0  0
  192.0770  175.9440  142.7360 C   0  0  2  0  0  3  0  0  0  0  0  0
  191.6430  175.3620  144.0620 C   0  0  1  0  0  3  0  0  0  0  0  0
  192.8960  175.1410  144.9140 C   0  0  1  0  0  3  0  0  0  0  0  0
  194.0330  175.7480  144.2160 C   0  0  1  0  0  3  0  0  0  0  0  0
  191.6200  173.6480  142.2550 O   0  0  0  0  0  1  0  0  0  0  0  0
  191.9430  174.8690  141.6640 C   0  0  0  0  0  2  0  0  0  0  0  0
  187.4350  176.0780  139.9400 O   0  0  0  0  0  1  0  0  0  0  0  0
  187.8470  175.2580  140.9920 C   0  0  1  0  0  3  0  0  0  0  0  0
  188.3970  172.8380  140.9130 C   0  0  0  0  0  3  0  0  0  0  0  0
  189.4740  174.2450  139.4190 F   0  0  0  0  0  0  0  0  0  0  0  0
  187.4310  172.5320  142.0120 C   0  0  0  0  0  1  0  0  0  0  0  0
  188.6060  174.0760  140.4510 C   0  0  0  0  0  0  0  0  0  0  0  0
  2  4  2  0  0  0  0
  4  8  1  0  0  0  0
  5 14  1  0  0  0  0
  6  5  1  0  0  0  0
  7  1  1  1  0  0  0
  7 12  1  0  0  0  0
  9  8  1  0  0  0  0
 10 27  1  6  0  0  0
 10  1  1  0  0  0  0
 10 11  1  0  0  0  0
 11 13  1  0  0  0  0
 12  2  1  6  0  0  0
 12 14  1  0  0  0  0
 13  3  2  0  0  0  0
 13  2  1  0  0  0  0
 14  9  1  1  0  0  0
 15  7  1  0  0  0  0
 15  6  2  0  0  0  0
 16 19  1  6  0  0  0
 16 23  1  0  0  0  0
 17 18  1  0  0  0  0
 20 25  1  6  0  0  0
 20 16  1  0  0  0  0
 20 21  1  0  0  0  0
 21  3  1  1  0  0  0
 21 22  1  0  0  0  0
 22 17  1  1  0  0  0
 23 22  1  0  0  0  0
 23 17  1  1  0  0  0
 25 24  1  0  0  0  0
 27 26  1  6  0  0  0
 28 30  1  0  0  0  0
 29 31  1  0  0  0  0
 31 28  2  0  0  0  0
 31 27  1  0  0  0  0
M  END
>  <MODEL>
4

>  <REMARK>
 VINA RESULT:      -7.5      3.034      5.327
  Name = 
  4 active torsions:
  status: ('A' for Active; 'I' for Inactive)
    1  A    between atoms: C_6  and  C_19
    2  A    between atoms: C_15  and  C_30
    3  A    between atoms: C_20  and  C_28
    4  A    between atoms: C_25  and  C_28
                            x       y       z     vdW  Elec       q    Type
                         _______ _______ _______ _____ _____    ______ ____

>  <TORSDO>
F 4

$$$$
=
 OpenBabel11062421243D

 31 35  0  0  1  0  0  0  0  0999 V2000
  189.2490  174.7570  146.1930 C   0  0  0  0  0  2  0  0  0  0  0  0
  188.0620  175.6670  143.5650 C   0  0  0  0  0  0  0  0  0  0  0  0
  189.4120  173.9380  142.4680 C   0  0  0  0  0  3  0  0  0  0  0  0
  187.2840  175.9400  142.5030 C   0  0  0  0  0  3  0  0  0  0  0  0
  186.8200  178.2980  145.9860 N   0  0  0  0  0  2  0  0  0  0  0  0
  187.4560  177.9210  147.2120 C   0  0  0  0  0  3  0  0  0  0  0  0
  188.3740  175.9720  146.0510 C   0  0  1  0  0  3  0  0  0  0  0  0
  186.0510  176.7900  142.6090 C   0  0  0  0  0  2  0  0  0  0  0  0
  186.2790  177.9140  143.6130 C   0  0  0  0  0  2  0  0  0  0  0  0
  190.6070  174.8640  145.4880 C   0  0  1  0  0  3  0  0  0  0  0  0
  190.5510  175.4370  144.0720 C   0  0  0  0  0  2  0  0  0  0  0  0
  187.7530  176.3030  144.8890 C   0  0  2  0  0  3  0  0  0  0  0  0
  189.3410  174.9620  143.3290 C   0  0  0  0  0  0  0  0  0  0  0  0
  186.5940  177.2840  144.9630 C   0  0  1  0  0  3  0  0  0  0  0  0
  188.1670  176.7940  147.2640 C   0  0  0  0  0  3  0  0  0  0  0  0
  190.4810  170.8010  141.8260 C   0  0  1  0  0  3  0  0  0  0  0  0
  189.6630  172.3000  140.0940 N   0  0  0  0  0  0  0  0  0  0  0  0
  189.7740  172.4960  138.6600 C   0  0  0  0  0  1  0  0  0  0  0  0
  191.2820  169.6720  142.0150 O   0  0  0  0  0  1  0  0  0  0  0  0
  190.6790  171.8580  142.9120 C   0  0  2  0  0  3  0  0  0  0  0  0
  190.6770  173.1810  142.1820 C   0  0  1  0  0  3  0  0  0  0  0  0
  190.8700  172.8990  140.6900 C   0  0  1  0  0  3  0  0  0  0  0  0
  190.7940  171.4500  140.4890 C   0  0  1  0  0  3  0  0  0  0  0  0
  192.8970  172.6880  143.2330 O   0  0  0  0  0  1  0  0  0  0  0  0
  191.9930  171.7220  143.6740 C   0  0  0  0  0  2  0  0  0  0  0  0
  191.3270  175.4640  147.6990 O   0  0  0  0  0  1  0  0  0  0  0  0
  191.6980  175.5050  146.3540 C   0  0  1  0  0  3  0  0  0  0  0  0
  194.1680  175.6340  146.1400 C   0  0  0  0  0  3  0  0  0  0  0  0
  193.1860  173.5350  146.1370 F   0  0  0  0  0  0  0  0  0  0  0  0
  194.1470  177.1260  146.2270 C   0  0  0  0  0  1  0  0  0  0  0  0
  193.0590  174.8870  146.1810 C   0  0  0  0  0  0  0  0  0  0  0  0
  3 13  2  0  0  0  0
  4  8  1  0  0  0  0
  4  2  2  0  0  0  0
  5  6  1  0  0  0  0
  6 15  2  0  0  0  0
  7  1  1  1  0  0  0
  7 15  1  0  0  0  0
  8  9  1  0  0  0  0
 10  1  1  0  0  0  0
 10 27  1  1  0  0  0
 11 10  1  0  0  0  0
 12  2  1  1  0  0  0
 12 14  1  0  0  0  0
 12  7  1  0  0  0  0
 13  2  1  0  0  0  0
 13 11  1  0  0  0  0
 14  9  1  6  0  0  0
 14  5  1  0  0  0  0
 16 19  1  1  0  0  0
 16 20  1  0  0  0  0
 18 17  1  0  0  0  0
 20 25  1  6  0  0  0
 21  3  1  6  0  0  0
 21 20  1  0  0  0  0
 22 17  1  6  0  0  0
 22 21  1  0  0  0  0
 23 17  1  6  0  0  0
 23 22  1  0  0  0  0
 23 16  1  0  0  0  0
 24 25  1  0  0  0  0
 27 26  1  1  0  0  0
 28 31  2  0  0  0  0
 28 30  1  0  0  0  0
 29 31  1  0  0  0  0
 31 27  1  0  0  0  0
M  END
>  <MODEL>
5

>  <REMARK>
 VINA RESULT:      -7.4      1.647      2.018
  Name = 
  4 active torsions:
  status: ('A' for Active; 'I' for Inactive)
    1  A    between atoms: C_6  and  C_19
    2  A    between atoms: C_15  and  C_30
    3  A    between atoms: C_20  and  C_28
    4  A    between atoms: C_25  and  C_28
                            x       y       z     vdW  Elec       q    Type
                         _______ _______ _______ _____ _____    ______ ____

>  <TORSDO>
F 4

$$$$
=
 OpenBabel11062421243D

 31 35  0  0  1  0  0  0  0  0999 V2000
  190.0310  174.3820  144.9260 C   0  0  0  0  0  2  0  0  0  0  0  0
  188.1130  175.6390  142.9550 C   0  0  0  0  0  0  0  0  0  0  0  0
  189.0700  174.1720  141.2380 C   0  0  0  0  0  3  0  0  0  0  0  0
  187.0550  176.0390  142.2310 C   0  0  0  0  0  3  0  0  0  0  0  0
  187.6600  177.7930  146.0350 N   0  0  0  0  0  2  0  0  0  0  0  0
  188.6320  177.2560  146.9380 C   0  0  0  0  0  3  0  0  0  0  0  0
  189.1560  175.5610  145.2520 C   0  0  1  0  0  3  0  0  0  0  0  0
  185.9110  176.8020  142.8360 C   0  0  0  0  0  2  0  0  0  0  0  0
  186.4310  177.7630  143.8980 C   0  0  0  0  0  2  0  0  0  0  0  0
  191.1170  174.6640  143.8790 C   0  0  1  0  0  3  0  0  0  0  0  0
  190.6400  175.4500  142.6580 C   0  0  0  0  0  2  0  0  0  0  0  0
  188.2170  176.0420  144.3970 C   0  0  2  0  0  3  0  0  0  0  0  0
  189.2620  175.0420  142.2390 C   0  0  0  0  0  0  0  0  0  0  0  0
  187.1360  176.9430  144.9710 C   0  0  1  0  0  3  0  0  0  0  0  0
  189.3240  176.1710  146.5900 C   0  0  0  0  0  3  0  0  0  0  0  0
  189.7110  171.4380  139.3640 C   0  0  1  0  0  3  0  0  0  0  0  0
  188.7530  173.4760  138.4450 N   0  0  0  0  0  0  0  0  0  0  0  0
  188.6340  174.1660  137.1740 C   0  0  0  0  0  1  0  0  0  0  0  0
  190.4220  170.2930  138.9940 O   0  0  0  0  0  1  0  0  0  0  0  0
  190.1920  172.0340  140.6860 C   0  0  2  0  0  3  0  0  0  0  0  0
  190.1890  173.5300  140.4700 C   0  0  1  0  0  3  0  0  0  0  0  0
  190.0960  173.7900  138.9650 C   0  0  1  0  0  3  0  0  0  0  0  0
  189.8500  172.5100  138.2970 C   0  0  1  0  0  3  0  0  0  0  0  0
  192.4120  172.7220  141.2440 O   0  0  0  0  0  1  0  0  0  0  0  0
  191.5980  171.6010  141.0850 C   0  0  0  0  0  2  0  0  0  0  0  0
  192.3130  176.5890  144.6750 O   0  0  0  0  0  1  0  0  0  0  0  0
  192.4180  175.2110  144.4770 C   0  0  1  0  0  3  0  0  0  0  0  0
  193.5900  173.4390  145.7630 C   0  0  0  0  0  3  0  0  0  0  0  0
  192.4950  175.0990  146.9520 F   0  0  0  0  0  0  0  0  0  0  0  0
  194.0570  172.7700  144.5100 C   0  0  0  0  0  1  0  0  0  0  0  0
  192.8320  174.5410  145.7600 C   0  0  0  0  0  0  0  0  0  0  0  0
  3 13  2  0  0  0  0
  4  8  1  0  0  0  0
  4  2  2  0  0  0  0
  5  6  1  0  0  0  0
  7  1  1  1  0  0  0
  7 15  1  0  0  0  0
  8  9  1  0  0  0  0
 10 27  1  1  0  0  0
 10  1  1  0  0  0  0
 11 10  1  0  0  0  0
 12  2  1  1  0  0  0
 12 14  1  0  0  0  0
 12  7  1  0  0  0  0
 13 11  1  0  0  0  0
 13  2  1  0  0  0  0
 14  9  1  6  0  0  0
 14  5  1  0  0  0  0
 15  6  2  0  0  0  0
 16 19  1  6  0  0  0
 16 20  1  0  0  0  0
 18 17  1  0  0  0  0
 20 25  1  6  0  0  0
 21 20  1  0  0  0  0
 21  3  1  1  0  0  0
 22 17  1  1  0  0  0
 22 21  1  0  0  0  0
 23 17  1  1  0  0  0
 23 22  1  0  0  0  0
 23 16  1  0  0  0  0
 25 24  1  0  0  0  0
 27 26  1  1  0  0  0
 27 31  1  0  0  0  0
 30 28  1  0  0  0  0
 31 28  2  0  0  0  0
 31 29  1  0  0  0  0
M  END
>  <MODEL>
6

>  <REMARK>
 VINA RESULT:      -7.1      1.932      2.813
  Name = 
  4 active torsions:
  status: ('A' for Active; 'I' for Inactive)
    1  A    between atoms: C_6  and  C_19
    2  A    between atoms: C_15  and  C_30
    3  A    between atoms: C_20  and  C_28
    4  A    between atoms: C_25  and  C_28
                            x       y       z     vdW  Elec       q    Type
                         _______ _______ _______ _____ _____    ______ ____

>  <TORSDO>
F 4

$$$$
=
 OpenBabel11062421243D

 31 35  0  0  1  0  0  0  0  0999 V2000
  190.2040  172.6770  144.6560 C   0  0  0  0  0  2  0  0  0  0  0  0
  191.3070  175.3870  145.4190 C   0  0  0  0  0  0  0  0  0  0  0  0
  189.0030  176.2260  145.3850 C   0  0  0  0  0  3  0  0  0  0  0  0
  191.8440  176.4590  146.0250 C   0  0  0  0  0  3  0  0  0  0  0  0
  194.4440  173.3880  144.7160 N   0  0  0  0  0  2  0  0  0  0  0  0
  193.9210  172.1330  144.2670 C   0  0  0  0  0  3  0  0  0  0  0  0
  191.6740  172.9890  144.7190 C   0  0  1  0  0  3  0  0  0  0  0  0
  193.2470  176.4610  146.5590 C   0  0  0  0  0  2  0  0  0  0  0  0
  194.1550  175.6550  145.6370 C   0  0  0  0  0  2  0  0  0  0  0  0
  189.4400  173.4220  143.5530 C   0  0  1  0  0  3  0  0  0  0  0  0
  189.7720  174.9090  143.4380 C   0  0  0  0  0  2  0  0  0  0  0  0
  192.1570  174.1740  145.1750 C   0  0  2  0  0  3  0  0  0  0  0  0
  189.9810  175.5380  144.7810 C   0  0  0  0  0  0  0  0  0  0  0  0
  193.6220  174.2300  145.5780 C   0  0  1  0  0  3  0  0  0  0  0  0
  192.6050  171.9190  144.3000 C   0  0  0  0  0  3  0  0  0  0  0  0
  186.7450  178.6620  144.7790 C   0  0  1  0  0  3  0  0  0  0  0  0
  188.5590  178.1290  143.2480 N   0  0  0  0  0  0  0  0  0  0  0  0
  188.8920  178.2630  141.8420 C   0  0  0  0  0  1  0  0  0  0  0  0
  185.4830  179.2590  144.8240 O   0  0  0  0  0  1  0  0  0  0  0  0
  186.8310  177.3910  145.6230 C   0  0  2  0  0  3  0  0  0  0  0  0
  187.6360  176.4180  144.7930 C   0  0  1  0  0  3  0  0  0  0  0  0
  187.6840  176.9480  143.3580 C   0  0  1  0  0  3  0  0  0  0  0  0
  187.1020  178.2920  143.3500 C   0  0  1  0  0  3  0  0  0  0  0  0
  185.1130  177.0510  147.2500 O   0  0  0  0  0  1  0  0  0  0  0  0
  185.4770  176.7640  145.9340 C   0  0  0  0  0  2  0  0  0  0  0  0
  189.6920  171.3340  142.3940 O   0  0  0  0  0  1  0  0  0  0  0  0
  189.4500  172.6950  142.2030 C   0  0  1  0  0  3  0  0  0  0  0  0
  188.2310  173.1960  140.0980 C   0  0  0  0  0  3  0  0  0  0  0  0
  186.9820  172.6610  141.9750 F   0  0  0  0  0  0  0  0  0  0  0  0
  189.5090  173.4160  139.3540 C   0  0  0  0  0  1  0  0  0  0  0  0
  188.1920  172.8830  141.3980 C   0  0  0  0  0  0  0  0  0  0  0  0
  1  7  1  0  0  0  0
  2  4  2  0  0  0  0
  4  8  1  0  0  0  0
  5 14  1  0  0  0  0
  6 15  2  0  0  0  0
  6  5  1  0  0  0  0
  7 15  1  1  0  0  0
  7 12  1  0  0  0  0
  9  8  1  0  0  0  0
 10 27  1  6  0  0  0
 10  1  1  0  0  0  0
 11 10  1  0  0  0  0
 11 13  1  0  0  0  0
 12  2  1  1  0  0  0
 12 14  1  0  0  0  0
 13  3  2  0  0  0  0
 13  2  1  0  0  0  0
 14  9  1  6  0  0  0
 16 19  1  6  0  0  0
 16 20  1  0  0  0  0
 18 17  1  0  0  0  0
 20 25  1  6  0  0  0
 21  3  1  1  0  0  0
 21 20  1  0  0  0  0
 22 17  1  1  0  0  0
 22 21  1  0  0  0  0
 23 17  1  1  0  0  0
 23 22  1  0  0  0  0
 23 16  1  0  0  0  0
 25 24  1  0  0  0  0
 27 26  1  1  0  0  0
 28 31  2  0  0  0  0
 30 28  1  0  0  0  0
 31 29  1  0  0  0  0
 31 27  1  0  0  0  0
M  END
>  <MODEL>
7

>  <REMARK>
 VINA RESULT:      -7.0      2.843      7.152
  Name = 
  4 active torsions:
  status: ('A' for Active; 'I' for Inactive)
    1  A    between atoms: C_6  and  C_19
    2  A    between atoms: C_15  and  C_30
    3  A    between atoms: C_20  and  C_28
    4  A    between atoms: C_25  and  C_28
                            x       y       z     vdW  Elec       q    Type
                         _______ _______ _______ _____ _____    ______ ____

>  <TORSDO>
F 4

$$$$
=
 OpenBabel11062421243D

 31 35  0  0  1  0  0  0  0  0999 V2000
  188.4020  173.7320  142.0750 C   0  0  0  0  0  2  0  0  0  0  0  0
  191.3040  174.2810  141.4280 C   0  0  0  0  0  0  0  0  0  0  0  0
  191.5530  175.1290  143.7150 C   0  0  0  0  0  3  0  0  0  0  0  0
  192.6180  174.2240  141.1490 C   0  0  0  0  0  3  0  0  0  0  0  0
  189.8740  173.3220  138.0560 N   0  0  0  0  0  2  0  0  0  0  0  0
  188.4830  173.1510  138.3440 C   0  0  0  0  0  3  0  0  0  0  0  0
  188.9890  173.5880  140.6980 C   0  0  1  0  0  3  0  0  0  0  0  0
  193.1500  173.5350  139.9260 C   0  0  0  0  0  2  0  0  0  0  0  0
  192.1990  173.7490  138.7540 C   0  0  0  0  0  2  0  0  0  0  0  0
  188.3640  175.1720  142.6040 C   0  0  1  0  0  3  0  0  0  0  0  0
  189.6480  175.9700  142.3820 C   0  0  0  0  0  2  0  0  0  0  0  0
  190.3170  173.7250  140.4440 C   0  0  2  0  0  3  0  0  0  0  0  0
  190.8680  175.1210  142.5640 C   0  0  0  0  0  0  0  0  0  0  0  0
  190.8450  173.1640  139.1330 C   0  0  1  0  0  3  0  0  0  0  0  0
  188.0560  173.2390  139.6040 C   0  0  0  0  0  3  0  0  0  0  0  0
  191.8110  175.1330  147.0810 C   0  0  1  0  0  3  0  0  0  0  0  0
  193.5430  176.0180  145.6210 N   0  0  0  0  0  0  0  0  0  0  0  0
  194.6470  176.9600  145.6610 C   0  0  0  0  0  1  0  0  0  0  0  0
  191.3260  175.2170  148.3890 O   0  0  0  0  0  1  0  0  0  0  0  0
  190.6960  175.0740  146.0380 C   0  0  2  0  0  3  0  0  0  0  0  0
  191.1660  175.9580  144.9050 C   0  0  1  0  0  3  0  0  0  0  0  0
  192.3210  176.8180  145.4250 C   0  0  1  0  0  3  0  0  0  0  0  0
  192.6770  176.3400  146.7640 C   0  0  1  0  0  3  0  0  0  0  0  0
  188.9370  176.6660  145.7500 O   0  0  0  0  0  1  0  0  0  0  0  0
  189.3530  175.5930  146.5380 C   0  0  0  0  0  2  0  0  0  0  0  0
  186.1350  175.8340  143.2050 O   0  0  0  0  0  1  0  0  0  0  0  0
  187.0990  175.9400  142.2010 C   0  0  1  0  0  3  0  0  0  0  0  0
  187.1150  177.8800  140.6520 C   0  0  0  0  0  3  0  0  0  0  0  0
  187.7280  178.2460  142.8560 F   0  0  0  0  0  0  0  0  0  0  0  0
  186.6420  177.0350  139.5120 C   0  0  0  0  0  1  0  0  0  0  0  0
  187.3410  177.3890  141.8750 C   0  0  0  0  0  0  0  0  0  0  0  0
  1 10  1  0  0  0  0
  2 13  1  0  0  0  0
  4  2  2  0  0  0  0
  5  6  1  0  0  0  0
  5 14  1  0  0  0  0
  6 15  2  0  0  0  0
  7 15  1  1  0  0  0
  7  1  1  0  0  0  0
  8  4  1  0  0  0  0
  9  8  1  0  0  0  0
 10 27  1  6  0  0  0
 11 13  1  0  0  0  0
 11 10  1  0  0  0  0
 12  7  1  0  0  0  0
 12  2  1  1  0  0  0
 13  3  2  0  0  0  0
 14  9  1  6  0  0  0
 14 12  1  0  0  0  0
 16 19  1  1  0  0  0
 17 18  1  0  0  0  0
 20 25  1  1  0  0  0
 20 16  1  0  0  0  0
 21  3  1  6  0  0  0
 21 22  1  0  0  0  0
 21 20  1  0  0  0  0
 22 17  1  6  0  0  0
 22 23  1  0  0  0  0
 23 17  1  6  0  0  0
 23 16  1  0  0  0  0
 24 25  1  0  0  0  0
 27 26  1  1  0  0  0
 28 31  2  0  0  0  0
 30 28  1  0  0  0  0
 31 27  1  0  0  0  0
 31 29  1  0  0  0  0
M  END
>  <MODEL>
8

>  <REMARK>
 VINA RESULT:      -7.0      3.259      7.147
  Name = 
  4 active torsions:
  status: ('A' for Active; 'I' for Inactive)
    1  A    between atoms: C_6  and  C_19
    2  A    between atoms: C_15  and  C_30
    3  A    between atoms: C_20  and  C_28
    4  A    between atoms: C_25  and  C_28
                            x       y       z     vdW  Elec       q    Type
                         _______ _______ _______ _____ _____    ______ ____

>  <TORSDO>
F 4

$$$$
=
 OpenBabel11062421243D

 31 35  0  0  1  0  0  0  0  0999 V2000
  189.6920  173.8320  144.6810 C   0  0  0  0  0  2  0  0  0  0  0  0
  188.3640  175.6360  142.6510 C   0  0  0  0  0  0  0  0  0  0  0  0
  189.2630  174.1700  140.9040 C   0  0  0  0  0  3  0  0  0  0  0  0
  187.5210  176.3140  141.8540 C   0  0  0  0  0  3  0  0  0  0  0  0
  187.8840  177.5410  145.8880 N   0  0  0  0  0  2  0  0  0  0  0  0
  188.5910  176.7330  146.8340 C   0  0  0  0  0  3  0  0  0  0  0  0
  189.0220  175.1300  145.0350 C   0  0  1  0  0  3  0  0  0  0  0  0
  186.4690  177.2370  142.3980 C   0  0  0  0  0  2  0  0  0  0  0  0
  187.0020  177.9660  143.6260 C   0  0  0  0  0  2  0  0  0  0  0  0
  190.9540  173.9790  143.8210 C   0  0  1  0  0  3  0  0  0  0  0  0
  190.8230  174.9560  142.6540 C   0  0  0  0  0  2  0  0  0  0  0  0
  188.3300  175.8740  144.1330 C   0  0  2  0  0  3  0  0  0  0  0  0
  189.4690  174.8840  142.0180 C   0  0  0  0  0  0  0  0  0  0  0  0
  187.3690  176.9210  144.6720 C   0  0  1  0  0  3  0  0  0  0  0  0
  189.1050  175.5650  146.4470 C   0  0  0  0  0  3  0  0  0  0  0  0
  189.6730  171.3570  139.0830 C   0  0  1  0  0  3  0  0  0  0  0  0
  189.0370  173.4880  138.0980 N   0  0  0  0  0  0  0  0  0  0  0  0
  189.0860  174.1720  136.8200 C   0  0  0  0  0  1  0  0  0  0  0  0
  190.2560  170.1280  138.7630 O   0  0  0  0  0  1  0  0  0  0  0  0
  190.1400  171.9030  140.4310 C   0  0  2  0  0  3  0  0  0  0  0  0
  190.3390  173.3850  140.2100 C   0  0  1  0  0  3  0  0  0  0  0  0
  190.3740  173.6380  138.7010 C   0  0  1  0  0  3  0  0  0  0  0  0
  190.0110  172.3900  138.0230 C   0  0  1  0  0  3  0  0  0  0  0  0
  192.4080  172.3080  141.0710 O   0  0  0  0  0  1  0  0  0  0  0  0
  191.4530  171.3010  140.9200 C   0  0  0  0  0  2  0  0  0  0  0  0
  193.0650  173.0710  144.5170 O   0  0  0  0  0  1  0  0  0  0  0  0
  192.2340  174.1850  144.6400 C   0  0  1  0  0  3  0  0  0  0  0  0
  193.1490  176.4350  145.1550 C   0  0  0  0  0  3  0  0  0  0  0  0
  193.6070  175.5270  143.0730 F   0  0  0  0  0  0  0  0  0  0  0  0
  192.5580  176.4150  146.5280 C   0  0  0  0  0  1  0  0  0  0  0  0
  192.9950  175.4330  144.2820 C   0  0  0  0  0  0  0  0  0  0  0  0
  3 13  2  0  0  0  0
  4  8  1  0  0  0  0
  4  2  2  0  0  0  0
  5  6  1  0  0  0  0
  7  1  1  1  0  0  0
  7 15  1  0  0  0  0
  8  9  1  0  0  0  0
 10 27  1  1  0  0  0
 10  1  1  0  0  0  0
 11 10  1  0  0  0  0
 12  2  1  1  0  0  0
 12 14  1  0  0  0  0
 12  7  1  0  0  0  0
 13  2  1  0  0  0  0
 13 11  1  0  0  0  0
 14  9  1  6  0  0  0
 14  5  1  0  0  0  0
 15  6  2  0  0  0  0
 16 19  1  6  0  0  0
 16 20  1  0  0  0  0
 18 17  1  0  0  0  0
 20 25  1  6  0  0  0
 21 20  1  0  0  0  0
 21  3  1  6  0  0  0
 22 17  1  1  0  0  0
 22 21  1  0  0  0  0
 23 17  1  6  0  0  0
 23 22  1  0  0  0  0
 23 16  1  0  0  0  0
 25 24  1  0  0  0  0
 27 26  1  6  0  0  0
 28 30  1  0  0  0  0
 29 31  1  0  0  0  0
 31 27  1  0  0  0  0
 31 28  2  0  0  0  0
M  END
>  <MODEL>
9

>  <REMARK>
 VINA RESULT:      -6.9      2.320      3.250
  Name = 
  4 active torsions:
  status: ('A' for Active; 'I' for Inactive)
    1  A    between atoms: C_6  and  C_19
    2  A    between atoms: C_15  and  C_30
    3  A    between atoms: C_20  and  C_28
    4  A    between atoms: C_25  and  C_28
                            x       y       z     vdW  Elec       q    Type
                         _______ _______ _______ _____ _____    ______ ____

>  <TORSDO>
F 4

$$$$
