=
 OpenBabel11072408523D

 60 65  0  0  1  0  0  0  0  0999 V2000
  187.6870  175.3780  142.1710 O   0  0  0  0  0  0  0  0  0  0  0  0
  186.5640  177.9100  141.3420 C   0  0  1  0  0  3  0  0  0  0  0  0
  186.5760  177.4350  142.8080 C   0  0  1  0  0  3  0  0  0  0  0  0
  187.3840  175.5870  140.8120 C   0  0  1  0  0  3  0  0  0  0  0  0
  187.5010  177.0750  140.4640 C   0  0  0  0  0  2  0  0  0  0  0  0
  186.6110  175.9030  142.9080 C   0  0  0  0  0  2  0  0  0  0  0  0
  184.2250  178.1240  141.7910 O   0  0  0  0  0  1  0  0  0  0  0  0
  185.1510  177.8720  140.7780 C   0  0  0  0  0  2  0  0  0  0  0  0
  187.6400  178.1160  143.6880 C   0  0  2  0  0  3  0  0  0  0  0  0
  189.9730  177.9400  144.5580 C   0  0  0  0  0  2  0  0  0  0  0  0
  190.0120  177.6840  143.0680 C   0  0  2  0  0  3  0  0  0  0  0  0
  188.8370  177.1920  143.8900 C   0  0  2  0  0  3  0  0  0  0  0  0
  190.9010  176.4970  142.7620 C   0  0  0  0  0  2  0  0  0  0  0  0
  192.3550  176.9060  142.8650 C   0  0  0  0  0  2  0  0  0  0  0  0
  193.2230  175.8200  142.2540 C   0  0  0  0  0  2  0  0  0  0  0  0
  194.6350  175.8170  142.8420 C   0  0  2  0  0  3  0  0  0  0  0  0
  196.3970  176.8510  141.5120 N   0  0  0  0  0  1  0  0  0  0  0  0
  196.6080  174.6380  142.1770 O   0  0  0  0  0  1  0  0  0  0  0  0
  195.6920  175.6060  141.7610 C   0  0  1  0  0  3  0  0  0  0  0  0
  194.7460  174.8420  143.8380 O   0  0  0  0  0  0  0  0  0  0  0  0
  194.7960  175.5590  145.0360 C   0  0  0  0  0  2  0  0  0  0  0  0
  194.0130  174.8330  146.1190 C   0  0  0  0  0  2  0  0  0  0  0  0
  192.5420  175.2180  146.0800 C   0  0  2  0  0  3  0  0  0  0  0  0
  192.1050  175.6550  147.4790 C   0  0  0  0  0  2  0  0  0  0  0  0
  190.2090  174.4070  145.6170 C   0  0  0  0  0  2  0  0  0  0  0  0
  189.7800  174.8470  147.0170 C   0  0  2  0  0  3  0  0  0  0  0  0
  191.6910  174.0330  145.6160 C   0  0  0  0  0  2  0  0  0  0  0  0
  188.4330  175.2110  146.9980 O   0  0  0  0  0  1  0  0  0  0  0  0
  190.6250  176.0340  147.4750 C   0  0  0  0  0  2  0  0  0  0  0  0
  187.0860  178.5640  145.0400 C   0  0  0  0  0  2  0  0  0  0  0  0
  184.9950  179.4850  144.8090 O   0  0  0  0  0  0  0  0  0  0  0  0
  185.9330  178.6410  147.5810 C   0  0  0  0  0  1  0  0  0  0  0  0
  185.6430  178.3250  145.1050 N   0  0  0  0  0  0  0  0  0  0  0  0
  185.1800  177.9560  146.4390 C   0  0  0  0  0  0  0  0  0  0  0  0
  183.7150  179.3130  145.2600 N   0  0  0  0  0  2  0  0  0  0  0  0
  185.1930  176.4510  146.6100 C   0  0  0  0  0  1  0  0  0  0  0  0
  183.7860  178.4650  146.4370 C   0  0  0  0  0  2  0  0  0  0  0  0
  188.2930  174.7420  139.9190 C   0  0  0  0  0  2  0  0  0  0  0  0
  189.2670  173.8790  140.7160 C   0  0  0  0  0  2  0  0  0  0  0  0
  189.7390  172.6950  139.8850 C   0  0  0  0  0  2  0  0  0  0  0  0
  191.2310  172.6660  139.7640 C   0  0  0  0  0  0  0  0  0  0  0  0
  191.8210  173.4740  138.8740 C   0  0  0  0  0  3  0  0  0  0  0  0
  194.0070  172.5160  138.2220 O   0  0  0  0  0  0  0  0  0  0  0  0
  193.9840  174.6660  138.6730 N   0  0  0  0  0  0  0  0  0  0  0  0
  196.4060  175.1040  138.2340 C   0  0  0  0  0  1  0  0  0  0  0  0
  195.2310  172.9080  138.0450 N   0  0  0  0  0  0  0  0  0  0  0  0
  193.2640  173.5310  138.5900 C   0  0  0  0  0  0  0  0  0  0  0  0
  195.2100  174.2230  138.3270 C   0  0  0  0  0  0  0  0  0  0  0  0
  191.2920  170.3300  140.6410 C   0  0  0  0  0  2  0  0  0  0  0  0
  192.0070  171.6720  140.5770 C   0  0  2  0  0  3  0  0  0  0  0  0
  192.1920  170.5480  142.8110 C   0  0  1  0  0  3  0  0  0  0  0  0
  192.2560  172.2540  142.2860 S   0  0  0  0  0  0  0  0  0  0  0  0
  191.7380  169.6910  141.9060 C   0  0  0  0  0  2  0  0  0  0  0  0
  192.8150  170.1010  144.0980 C   0  0  0  0  0  2  0  0  0  0  0  0
  194.4950  171.1410  145.4060 C   0  0  0  0  0  3  0  0  0  0  0  0
  194.1280  170.6760  144.2660 N   0  0  0  0  0  0  0  0  0  0  0  0
  195.8650  171.7250  145.5990 C   0  0  0  0  0  2  0  0  0  0  0  0
  196.1980  169.6190  146.8220 N   0  0  0  0  0  1  0  0  0  0  0  0
  196.8730  170.7080  146.1300 C   0  0  1  0  0  3  0  0  0  0  0  0
  197.6520  170.2000  145.0870 O   0  0  0  0  0  1  0  0  0  0  0  0
  1  6  1  0  0  0  0
  2  8  1  6  0  0  0
  2  3  1  0  0  0  0
  3  6  1  0  0  0  0
  3  9  1  6  0  0  0
  4 38  1  6  0  0  0
  4  1  1  0  0  0  0
  5  4  1  0  0  0  0
  5  2  1  0  0  0  0
  8  7  1  0  0  0  0
  9 30  1  1  0  0  0
 11 13  1  1  0  0  0
 11 12  1  0  0  0  0
 11 10  1  0  0  0  0
 12  9  1  6  0  0  0
 12 10  1  0  0  0  0
 13 14  1  0  0  0  0
 15 14  1  0  0  0  0
 16 15  1  6  0  0  0
 16 20  1  0  0  0  0
 19 17  1  1  0  0  0
 19 18  1  0  0  0  0
 19 16  1  0  0  0  0
 20 21  1  0  0  0  0
 21 22  1  0  0  0  0
 23 22  1  1  0  0  0
 23 24  1  0  0  0  0
 25 26  1  0  0  0  0
 26 28  1  6  0  0  0
 26 29  1  0  0  0  0
 27 25  1  0  0  0  0
 27 23  1  0  0  0  0
 29 24  1  0  0  0  0
 30 33  1  0  0  0  0
 31 33  1  0  0  0  0
 31 35  1  0  0  0  0
 33 34  1  0  0  0  0
 34 36  1  0  0  0  0
 34 32  1  0  0  0  0
 35 37  1  0  0  0  0
 37 34  1  0  0  0  0
 38 39  1  0  0  0  0
 40 39  1  0  0  0  0
 41 40  1  0  0  0  0
 42 41  2  0  0  0  0
 43 47  1  0  0  0  0
 45 48  1  0  0  0  0
 46 43  1  0  0  0  0
 46 48  2  0  0  0  0
 47 44  2  0  0  0  0
 47 42  1  0  0  0  0
 48 44  1  0  0  0  0
 49 53  1  0  0  0  0
 50 41  1  6  0  0  0
 50 49  1  0  0  0  0
 50 52  1  0  0  0  0
 51 54  1  6  0  0  0
 52 51  1  0  0  0  0
 53 51  1  0  0  0  0
 54 56  1  0  0  0  0
 55 57  1  0  0  0  0
 56 55  2  0  0  0  0
 57 59  1  0  0  0  0
 59 60  1  6  0  0  0
 59 58  1  0  0  0  0
M  END
>  <MODEL>
1

>  <REMARK>
 VINA RESULT:      -6.3      0.000      0.000
  Name = 
  24 active torsions:
  status: ('A' for Active; 'I' for Inactive)
    1  A    between atoms: C_2  and  C_16
    2  A    between atoms: C_2  and  O_24
    3  A    between atoms: C_2  and  C_48
    4  A    between atoms: C_5  and  C_25
    5  A    between atoms: C_7  and  C_29
    6  A    between atoms: C_7  and  C_35
    7  A    between atoms: C_10  and  C_12
    8  A    between atoms: C_10  and  C_50
    9  A    between atoms: C_14  and  C_27
   10  A    between atoms: C_14  and  C_30
   11  A    between atoms: C_15  and  C_25
   12  A    between atoms: C_16  and  C_27
   13  A    between atoms: C_17  and  C_23
   14  A    between atoms: C_17  and  C_39
   15  A    between atoms: C_17  and  C_59
   16  A    between atoms: C_18  and  C_19
   17  A    between atoms: C_18  and  C_40
   18  A    between atoms: C_19  and  C_35
   19  A    between atoms: C_21  and  C_60
   20  A    between atoms: O_24  and  C_50
   21  A    between atoms: N_34  and  C_55
   22  A    between atoms: N_36  and  C_39
   23  A    between atoms: C_37  and  C_44
   24  A    between atoms: C_41  and  C_55
                            x       y       z     vdW  Elec       q    Type
                         _______ _______ _______ _____ _____    ______ ____

>  <TORSDO>
F 24

$$$$
=
 OpenBabel11072408523D

 60 65  0  0  1  0  0  0  0  0999 V2000
  193.3920  173.1910  141.3430 O   0  0  0  0  0  0  0  0  0  0  0  0
  195.0230  170.8440  140.9080 C   0  0  1  0  0  3  0  0  0  0  0  0
  195.0270  172.0580  139.9590 C   0  0  1  0  0  3  0  0  0  0  0  0
  193.0800  171.9990  142.0240 C   0  0  1  0  0  3  0  0  0  0  0  0
  194.3490  171.1670  142.2450 C   0  0  0  0  0  2  0  0  0  0  0  0
  193.7000  172.8300  140.0200 C   0  0  0  0  0  2  0  0  0  0  0  0
  195.1490  169.1240  139.2510 O   0  0  0  0  0  1  0  0  0  0  0  0
  194.3360  169.6550  140.2530 C   0  0  0  0  0  2  0  0  0  0  0  0
  196.2570  172.9720  140.1020 C   0  0  2  0  0  3  0  0  0  0  0  0
  197.0460  175.3390  140.1890 C   0  0  0  0  0  2  0  0  0  0  0  0
  196.3220  175.0420  141.4830 C   0  0  2  0  0  3  0  0  0  0  0  0
  195.8300  174.4340  140.1840 C   0  0  2  0  0  3  0  0  0  0  0  0
  195.4010  176.1880  141.8450 C   0  0  0  0  0  2  0  0  0  0  0  0
  194.8120  175.9570  143.2200 C   0  0  0  0  0  2  0  0  0  0  0  0
  195.9370  175.7210  144.2110 C   0  0  0  0  0  2  0  0  0  0  0  0
  195.4290  175.1260  145.5250 C   0  0  2  0  0  3  0  0  0  0  0  0
  195.7200  172.7080  145.4010 N   0  0  0  0  0  1  0  0  0  0  0  0
  197.5840  174.0850  145.5170 O   0  0  0  0  0  1  0  0  0  0  0  0
  196.2700  173.9300  145.9620 C   0  0  1  0  0  3  0  0  0  0  0  0
  194.0830  174.7660  145.4080 O   0  0  0  0  0  0  0  0  0  0  0  0
  193.4690  175.3090  146.5400 C   0  0  0  0  0  2  0  0  0  0  0  0
  192.6810  176.5550  146.1660 C   0  0  0  0  0  2  0  0  0  0  0  0
  191.1990  176.2410  146.0210 C   0  0  2  0  0  3  0  0  0  0  0  0
  190.3960  177.5260  146.2240 C   0  0  0  0  0  2  0  0  0  0  0  0
  189.2750  174.9070  146.9330 C   0  0  0  0  0  2  0  0  0  0  0  0
  188.4780  176.1970  147.1330 C   0  0  2  0  0  3  0  0  0  0  0  0
  190.7720  175.1920  147.0520 C   0  0  0  0  0  2  0  0  0  0  0  0
  187.1160  175.9280  146.9960 O   0  0  0  0  0  1  0  0  0  0  0  0
  188.9000  177.2390  146.1000 C   0  0  0  0  0  2  0  0  0  0  0  0
  197.2650  172.7810  138.9690 C   0  0  0  0  0  2  0  0  0  0  0  0
  197.3760  171.0230  137.4960 O   0  0  0  0  0  0  0  0  0  0  0  0
  197.8130  173.8490  136.4490 C   0  0  0  0  0  1  0  0  0  0  0  0
  196.6330  172.1130  137.8290 N   0  0  0  0  0  0  0  0  0  0  0  0
  196.5980  172.9370  136.6260 C   0  0  0  0  0  0  0  0  0  0  0  0
  196.9800  170.6850  136.2310 N   0  0  0  0  0  2  0  0  0  0  0  0
  195.3120  173.7350  136.5640 C   0  0  0  0  0  1  0  0  0  0  0  0
  196.6280  171.9170  135.5480 C   0  0  0  0  0  2  0  0  0  0  0  0
  192.3830  172.3000  143.3510 C   0  0  0  0  0  2  0  0  0  0  0  0
  191.8180  173.7160  143.4140 C   0  0  0  0  0  2  0  0  0  0  0  0
  190.2980  173.6910  143.3420 C   0  0  0  0  0  2  0  0  0  0  0  0
  189.8060  174.0280  141.9690 C   0  0  0  0  0  0  0  0  0  0  0  0
  189.8020  173.0710  141.0330 C   0  0  0  0  0  3  0  0  0  0  0  0
  188.1840  173.1390  139.1630 O   0  0  0  0  0  0  0  0  0  0  0  0
  190.2800  173.5500  138.6490 N   0  0  0  0  0  0  0  0  0  0  0  0
  189.9330  173.9400  136.2040 C   0  0  0  0  0  1  0  0  0  0  0  0
  188.1780  173.3600  137.8850 N   0  0  0  0  0  0  0  0  0  0  0  0
  189.4050  173.2460  139.6260 C   0  0  0  0  0  0  0  0  0  0  0  0
  189.4640  173.6070  137.5770 C   0  0  0  0  0  0  0  0  0  0  0  0
  190.1210  176.4240  142.5940 C   0  0  0  0  0  2  0  0  0  0  0  0
  189.4210  175.4450  141.6620 C   0  0  2  0  0  3  0  0  0  0  0  0
  187.9730  177.3730  142.3570 C   0  0  1  0  0  3  0  0  0  0  0  0
  187.6240  175.7020  141.8330 S   0  0  0  0  0  0  0  0  0  0  0  0
  189.2390  177.6180  142.6670 C   0  0  0  0  0  2  0  0  0  0  0  0
  186.9520  178.4610  142.2360 C   0  0  0  0  0  2  0  0  0  0  0  0
  185.6520  179.4930  143.9270 C   0  0  0  0  0  3  0  0  0  0  0  0
  186.0110  178.4140  143.3290 N   0  0  0  0  0  0  0  0  0  0  0  0
  184.6600  179.4600  145.0540 C   0  0  0  0  0  2  0  0  0  0  0  0
  185.7750  179.3080  147.2390 N   0  0  0  0  0  1  0  0  0  0  0  0
  185.0950  178.5480  146.2000 C   0  0  1  0  0  3  0  0  0  0  0  0
  183.9920  177.8820  146.7410 O   0  0  0  0  0  1  0  0  0  0  0  0
  1  4  1  0  0  0  0
  2  8  1  6  0  0  0
  2  5  1  0  0  0  0
  3  6  1  0  0  0  0
  3  9  1  1  0  0  0
  3  2  1  0  0  0  0
  4  5  1  0  0  0  0
  4 38  1  1  0  0  0
  6  1  1  0  0  0  0
  7  8  1  0  0  0  0
  9 30  1  6  0  0  0
 10 11  1  0  0  0  0
 11 13  1  6  0  0  0
 12  9  1  1  0  0  0
 12 10  1  0  0  0  0
 12 11  1  0  0  0  0
 13 14  1  0  0  0  0
 14 15  1  0  0  0  0
 16 15  1  6  0  0  0
 16 19  1  0  0  0  0
 18 19  1  0  0  0  0
 19 17  1  6  0  0  0
 20 16  1  0  0  0  0
 20 21  1  0  0  0  0
 22 21  1  0  0  0  0
 23 22  1  1  0  0  0
 23 24  1  0  0  0  0
 23 27  1  0  0  0  0
 25 27  1  0  0  0  0
 25 26  1  0  0  0  0
 26 28  1  6  0  0  0
 29 24  1  0  0  0  0
 29 26  1  0  0  0  0
 31 33  1  0  0  0  0
 32 34  1  0  0  0  0
 33 30  1  0  0  0  0
 34 33  1  0  0  0  0
 35 31  1  0  0  0  0
 36 34  1  0  0  0  0
 37 35  1  0  0  0  0
 37 34  1  0  0  0  0
 38 39  1  0  0  0  0
 40 39  1  0  0  0  0
 41 40  1  0  0  0  0
 42 41  2  0  0  0  0
 43 47  1  0  0  0  0
 44 47  2  0  0  0  0
 45 48  1  0  0  0  0
 46 43  1  0  0  0  0
 47 42  1  0  0  0  0
 48 46  2  0  0  0  0
 48 44  1  0  0  0  0
 49 53  1  0  0  0  0
 50 52  1  0  0  0  0
 50 41  1  1  0  0  0
 50 49  1  0  0  0  0
 51 54  1  6  0  0  0
 51 53  1  0  0  0  0
 52 51  1  0  0  0  0
 54 56  1  0  0  0  0
 55 57  1  0  0  0  0
 56 55  2  0  0  0  0
 57 59  1  0  0  0  0
 59 60  1  1  0  0  0
 59 58  1  0  0  0  0
M  END
>  <MODEL>
2

>  <REMARK>
 VINA RESULT:      -5.6      2.448      9.215
  Name = 
  24 active torsions:
  status: ('A' for Active; 'I' for Inactive)
    1  A    between atoms: C_2  and  C_16
    2  A    between atoms: C_2  and  O_24
    3  A    between atoms: C_2  and  C_48
    4  A    between atoms: C_5  and  C_25
    5  A    between atoms: C_7  and  C_29
    6  A    between atoms: C_7  and  C_35
    7  A    between atoms: C_10  and  C_12
    8  A    between atoms: C_10  and  C_50
    9  A    between atoms: C_14  and  C_27
   10  A    between atoms: C_14  and  C_30
   11  A    between atoms: C_15  and  C_25
   12  A    between atoms: C_16  and  C_27
   13  A    between atoms: C_17  and  C_23
   14  A    between atoms: C_17  and  C_39
   15  A    between atoms: C_17  and  C_59
   16  A    between atoms: C_18  and  C_19
   17  A    between atoms: C_18  and  C_40
   18  A    between atoms: C_19  and  C_35
   19  A    between atoms: C_21  and  C_60
   20  A    between atoms: O_24  and  C_50
   21  A    between atoms: N_34  and  C_55
   22  A    between atoms: N_36  and  C_39
   23  A    between atoms: C_37  and  C_44
   24  A    between atoms: C_41  and  C_55
                            x       y       z     vdW  Elec       q    Type
                         _______ _______ _______ _____ _____    ______ ____

>  <TORSDO>
F 24

$$$$
=
 OpenBabel11072408523D

 60 65  0  0  1  0  0  0  0  0999 V2000
  193.0500  173.1150  142.0780 O   0  0  0  0  0  0  0  0  0  0  0  0
  191.1000  171.4120  140.7900 C   0  0  1  0  0  3  0  0  0  0  0  0
  192.1570  172.2200  140.0110 C   0  0  1  0  0  3  0  0  0  0  0  0
  191.9120  172.7040  142.7970 C   0  0  1  0  0  3  0  0  0  0  0  0
  191.4240  171.3430  142.2860 C   0  0  0  0  0  2  0  0  0  0  0  0
  192.6080  173.4650  140.7900 C   0  0  0  0  0  2  0  0  0  0  0  0
  189.7110  172.8380  139.4650 O   0  0  0  0  0  1  0  0  0  0  0  0
  189.7140  172.0050  140.5860 C   0  0  0  0  0  2  0  0  0  0  0  0
  193.3370  171.3820  139.4870 C   0  0  2  0  0  3  0  0  0  0  0  0
  195.8230  171.1750  139.3970 C   0  0  0  0  0  2  0  0  0  0  0  0
  195.3940  171.0030  140.8370 C   0  0  2  0  0  3  0  0  0  0  0  0
  194.6620  171.9840  139.9410 C   0  0  2  0  0  3  0  0  0  0  0  0
  196.3040  171.7910  141.7540 C   0  0  0  0  0  2  0  0  0  0  0  0
  196.7410  170.9220  142.9130 C   0  0  0  0  0  2  0  0  0  0  0  0
  196.0140  171.3650  144.1710 C   0  0  0  0  0  2  0  0  0  0  0  0
  196.9230  171.3350  145.4000 C   0  0  2  0  0  3  0  0  0  0  0  0
  195.3780  169.5400  145.9760 N   0  0  0  0  0  1  0  0  0  0  0  0
  197.6570  169.1100  145.8870 O   0  0  0  0  0  1  0  0  0  0  0  0
  196.7050  170.0730  146.2290 C   0  0  1  0  0  3  0  0  0  0  0  0
  196.7270  172.4780  146.1800 O   0  0  0  0  0  0  0  0  0  0  0  0
  195.6660  173.1510  145.5670 C   0  0  0  0  0  2  0  0  0  0  0  0
  195.7560  174.6430  145.8470 C   0  0  0  0  0  2  0  0  0  0  0  0
  196.0130  175.4240  144.5660 C   0  0  2  0  0  3  0  0  0  0  0  0
  194.7750  175.3330  143.6730 C   0  0  0  0  0  2  0  0  0  0  0  0
  197.4620  175.6140  142.5220 C   0  0  0  0  0  2  0  0  0  0  0  0
  196.2200  175.5240  141.6350 C   0  0  2  0  0  3  0  0  0  0  0  0
  197.2290  174.8560  143.8290 C   0  0  0  0  0  2  0  0  0  0  0  0
  196.4350  176.2400  140.4580 O   0  0  0  0  0  1  0  0  0  0  0  0
  195.0090  176.0960  142.3690 C   0  0  0  0  0  2  0  0  0  0  0  0
  193.3210  171.2320  137.9660 C   0  0  0  0  0  2  0  0  0  0  0  0
  193.6790  169.1650  137.0300 O   0  0  0  0  0  0  0  0  0  0  0  0
  191.9600  171.1830  135.5290 C   0  0  0  0  0  1  0  0  0  0  0  0
  192.7170  169.9530  137.5850 N   0  0  0  0  0  0  0  0  0  0  0  0
  191.6890  170.0850  136.5590 C   0  0  0  0  0  0  0  0  0  0  0  0
  193.0030  168.1850  136.3560 N   0  0  0  0  0  2  0  0  0  0  0  0
  190.3240  170.2650  137.1930 C   0  0  0  0  0  1  0  0  0  0  0  0
  191.7690  168.7740  135.8660 C   0  0  0  0  0  2  0  0  0  0  0  0
  192.2080  172.6530  144.2960 C   0  0  0  0  0  2  0  0  0  0  0  0
  191.5720  173.8080  145.0640 C   0  0  0  0  0  2  0  0  0  0  0  0
  191.0830  174.8850  144.1070 C   0  0  0  0  0  2  0  0  0  0  0  0
  189.8270  175.5320  144.6000 C   0  0  0  0  0  0  0  0  0  0  0  0
  189.7390  175.8660  145.8930 C   0  0  0  0  0  3  0  0  0  0  0  0
  187.4640  175.8100  146.8620 O   0  0  0  0  0  0  0  0  0  0  0  0
  188.4960  177.7490  146.9180 N   0  0  0  0  0  0  0  0  0  0  0  0
  186.6850  179.0360  148.0640 C   0  0  0  0  0  1  0  0  0  0  0  0
  186.6270  176.6190  147.4380 N   0  0  0  0  0  0  0  0  0  0  0  0
  188.5610  176.4550  146.5510 C   0  0  0  0  0  0  0  0  0  0  0  0
  187.2650  177.8030  147.4640 C   0  0  0  0  0  0  0  0  0  0  0  0
  188.8310  174.8090  142.4280 C   0  0  0  0  0  2  0  0  0  0  0  0
  188.6750  175.7000  143.6530 C   0  0  2  0  0  3  0  0  0  0  0  0
  187.9120  176.7870  141.5260 C   0  0  1  0  0  3  0  0  0  0  0  0
  188.5300  177.4230  143.0760 S   0  0  0  0  0  0  0  0  0  0  0  0
  188.0820  175.4850  141.3370 C   0  0  0  0  0  2  0  0  0  0  0  0
  187.0690  177.6260  140.6160 C   0  0  0  0  0  2  0  0  0  0  0  0
  185.5970  178.0920  142.4130 C   0  0  0  0  0  3  0  0  0  0  0  0
  185.7500  177.8250  141.1660 N   0  0  0  0  0  0  0  0  0  0  0  0
  184.2310  178.3190  142.9950 C   0  0  0  0  0  2  0  0  0  0  0  0
  184.0600  178.6710  145.4210 N   0  0  0  0  0  1  0  0  0  0  0  0
  184.2350  179.3340  144.1370 C   0  0  1  0  0  3  0  0  0  0  0  0
  185.4250  180.0670  144.1360 O   0  0  0  0  0  1  0  0  0  0  0  0
  1  4  1  0  0  0  0
  2  8  1  1  0  0  0
  2  5  1  0  0  0  0
  3  9  1  1  0  0  0
  3  2  1  0  0  0  0
  3  6  1  0  0  0  0
  4 38  1  1  0  0  0
  5  4  1  0  0  0  0
  6  1  1  0  0  0  0
  7  8  1  0  0  0  0
  9 30  1  6  0  0  0
 10 12  1  0  0  0  0
 10 11  1  0  0  0  0
 11 13  1  1  0  0  0
 12  9  1  6  0  0  0
 12 11  1  0  0  0  0
 13 14  1  0  0  0  0
 14 15  1  0  0  0  0
 16 15  1  6  0  0  0
 16 20  1  0  0  0  0
 16 19  1  0  0  0  0
 17 19  1  0  0  0  0
 19 18  1  6  0  0  0
 21 22  1  0  0  0  0
 21 20  1  0  0  0  0
 23 22  1  1  0  0  0
 24 23  1  0  0  0  0
 25 27  1  0  0  0  0
 26 28  1  6  0  0  0
 26 29  1  0  0  0  0
 26 25  1  0  0  0  0
 27 23  1  0  0  0  0
 29 24  1  0  0  0  0
 31 33  1  0  0  0  0
 32 34  1  0  0  0  0
 33 30  1  0  0  0  0
 34 36  1  0  0  0  0
 34 33  1  0  0  0  0
 35 31  1  0  0  0  0
 37 35  1  0  0  0  0
 37 34  1  0  0  0  0
 38 39  1  0  0  0  0
 40 41  1  0  0  0  0
 40 39  1  0  0  0  0
 41 42  2  0  0  0  0
 42 47  1  0  0  0  0
 43 46  1  0  0  0  0
 44 48  1  0  0  0  0
 46 48  2  0  0  0  0
 47 43  1  0  0  0  0
 47 44  2  0  0  0  0
 48 45  1  0  0  0  0
 49 50  1  0  0  0  0
 50 41  1  1  0  0  0
 51 54  1  1  0  0  0
 51 52  1  0  0  0  0
 52 50  1  0  0  0  0
 53 51  1  0  0  0  0
 53 49  1  0  0  0  0
 54 56  1  0  0  0  0
 55 57  1  0  0  0  0
 56 55  2  0  0  0  0
 57 59  1  0  0  0  0
 59 60  1  1  0  0  0
 59 58  1  0  0  0  0
M  END
>  <MODEL>
3

>  <REMARK>
 VINA RESULT:      -5.2      2.557      9.786
  Name = 
  24 active torsions:
  status: ('A' for Active; 'I' for Inactive)
    1  A    between atoms: C_2  and  C_16
    2  A    between atoms: C_2  and  O_24
    3  A    between atoms: C_2  and  C_48
    4  A    between atoms: C_5  and  C_25
    5  A    between atoms: C_7  and  C_29
    6  A    between atoms: C_7  and  C_35
    7  A    between atoms: C_10  and  C_12
    8  A    between atoms: C_10  and  C_50
    9  A    between atoms: C_14  and  C_27
   10  A    between atoms: C_14  and  C_30
   11  A    between atoms: C_15  and  C_25
   12  A    between atoms: C_16  and  C_27
   13  A    between atoms: C_17  and  C_23
   14  A    between atoms: C_17  and  C_39
   15  A    between atoms: C_17  and  C_59
   16  A    between atoms: C_18  and  C_19
   17  A    between atoms: C_18  and  C_40
   18  A    between atoms: C_19  and  C_35
   19  A    between atoms: C_21  and  C_60
   20  A    between atoms: O_24  and  C_50
   21  A    between atoms: N_34  and  C_55
   22  A    between atoms: N_36  and  C_39
   23  A    between atoms: C_37  and  C_44
   24  A    between atoms: C_41  and  C_55
                            x       y       z     vdW  Elec       q    Type
                         _______ _______ _______ _____ _____    ______ ____

>  <TORSDO>
F 24

$$$$
=
 OpenBabel11072408523D

 60 65  0  0  1  0  0  0  0  0999 V2000
  192.7080  174.0130  141.2670 O   0  0  0  0  0  0  0  0  0  0  0  0
  193.8180  171.3990  140.7240 C   0  0  1  0  0  3  0  0  0  0  0  0
  194.0770  172.6260  139.8270 C   0  0  1  0  0  3  0  0  0  0  0  0
  192.1540  172.8830  141.8980 C   0  0  1  0  0  3  0  0  0  0  0  0
  193.2210  171.7980  142.0780 C   0  0  0  0  0  2  0  0  0  0  0  0
  192.9390  173.6530  139.9280 C   0  0  0  0  0  2  0  0  0  0  0  0
  193.5950  169.7510  139.0050 O   0  0  0  0  0  1  0  0  0  0  0  0
  192.9010  170.4070  140.0240 C   0  0  0  0  0  2  0  0  0  0  0  0
  195.4700  173.2570  140.0020 C   0  0  2  0  0  3  0  0  0  0  0  0
  196.7180  175.3970  140.3080 C   0  0  0  0  0  2  0  0  0  0  0  0
  196.0120  175.0800  141.6080 C   0  0  2  0  0  3  0  0  0  0  0  0
  195.3480  174.7500  140.2850 C   0  0  2  0  0  3  0  0  0  0  0  0
  195.3570  176.3250  142.1670 C   0  0  0  0  0  2  0  0  0  0  0  0
  194.6030  175.9820  143.4340 C   0  0  0  0  0  2  0  0  0  0  0  0
  195.5990  175.7190  144.5500 C   0  0  0  0  0  2  0  0  0  0  0  0
  195.0390  174.7640  145.6050 C   0  0  2  0  0  3  0  0  0  0  0  0
  194.9670  172.3450  145.3130 N   0  0  0  0  0  1  0  0  0  0  0  0
  196.8940  173.5130  144.7570 O   0  0  0  0  0  1  0  0  0  0  0  0
  195.8300  173.4610  145.6600 C   0  0  1  0  0  3  0  0  0  0  0  0
  193.6860  174.5100  145.3630 O   0  0  0  0  0  0  0  0  0  0  0  0
  193.0240  174.9820  146.5000 C   0  0  0  0  0  2  0  0  0  0  0  0
  192.5610  176.4150  146.2840 C   0  0  0  0  0  2  0  0  0  0  0  0
  191.0930  176.5750  146.6500 C   0  0  2  0  0  3  0  0  0  0  0  0
  190.4730  175.1900  146.8350 C   0  0  0  0  0  2  0  0  0  0  0  0
  188.8650  177.4610  145.9000 C   0  0  0  0  0  2  0  0  0  0  0  0
  188.2520  176.0740  146.0870 C   0  0  2  0  0  3  0  0  0  0  0  0
  190.3480  177.3370  145.5510 C   0  0  0  0  0  2  0  0  0  0  0  0
  186.9060  176.2020  146.4310 O   0  0  0  0  0  1  0  0  0  0  0  0
  188.9920  175.3180  147.1880 C   0  0  0  0  0  2  0  0  0  0  0  0
  196.3760  173.0230  138.7930 C   0  0  0  0  0  2  0  0  0  0  0  0
  196.7410  170.8540  138.1310 O   0  0  0  0  0  0  0  0  0  0  0  0
  196.9850  173.0820  136.0700 C   0  0  0  0  0  1  0  0  0  0  0  0
  195.8810  171.9010  137.9930 N   0  0  0  0  0  0  0  0  0  0  0  0
  195.8490  172.1840  136.5620 C   0  0  0  0  0  0  0  0  0  0  0  0
  196.4590  170.0110  137.0920 N   0  0  0  0  0  2  0  0  0  0  0  0
  194.5020  172.7510  136.1610 C   0  0  0  0  0  1  0  0  0  0  0  0
  196.0400  170.8360  135.9720 C   0  0  0  0  0  2  0  0  0  0  0  0
  191.5310  173.2660  143.2410 C   0  0  0  0  0  2  0  0  0  0  0  0
  190.8930  174.6520  143.2240 C   0  0  0  0  0  2  0  0  0  0  0  0
  189.3760  174.5460  143.1980 C   0  0  0  0  0  2  0  0  0  0  0  0
  188.8280  174.8180  141.8320 C   0  0  0  0  0  0  0  0  0  0  0  0
  189.2410  174.0600  140.8090 C   0  0  0  0  0  3  0  0  0  0  0  0
  187.7470  174.8060  138.9840 O   0  0  0  0  0  0  0  0  0  0  0  0
  189.6020  173.8000  138.3710 N   0  0  0  0  0  0  0  0  0  0  0  0
  189.2420  173.9540  135.9020 C   0  0  0  0  0  1  0  0  0  0  0  0
  187.7100  174.7950  137.6870 N   0  0  0  0  0  0  0  0  0  0  0  0
  188.8470  174.2280  139.4000 C   0  0  0  0  0  0  0  0  0  0  0  0
  188.8460  174.1750  137.3200 C   0  0  0  0  0  0  0  0  0  0  0  0
  188.6330  177.3070  141.8480 C   0  0  0  0  0  2  0  0  0  0  0  0
  187.9060  175.9860  141.6380 C   0  0  2  0  0  3  0  0  0  0  0  0
  186.5150  177.7160  142.8060 C   0  0  1  0  0  3  0  0  0  0  0  0
  186.5020  175.9310  142.8010 S   0  0  0  0  0  0  0  0  0  0  0  0
  187.5940  178.2790  142.2770 C   0  0  0  0  0  2  0  0  0  0  0  0
  185.2980  178.5060  143.1760 C   0  0  0  0  0  2  0  0  0  0  0  0
  183.4610  178.0080  141.7640 C   0  0  0  0  0  3  0  0  0  0  0  0
  184.4710  178.7590  142.0200 N   0  0  0  0  0  0  0  0  0  0  0  0
  182.5820  178.2700  140.5750 C   0  0  0  0  0  2  0  0  0  0  0  0
  180.1470  178.4640  140.3010 N   0  0  0  0  0  1  0  0  0  0  0  0
  181.3190  179.0520  140.9330 C   0  0  1  0  0  3  0  0  0  0  0  0
  181.1450  179.0920  142.3200 O   0  0  0  0  0  1  0  0  0  0  0  0
  1  4  1  0  0  0  0
  2  8  1  6  0  0  0
  2  5  1  0  0  0  0
  3  6  1  0  0  0  0
  3  9  1  1  0  0  0
  3  2  1  0  0  0  0
  4  5  1  0  0  0  0
  4 38  1  1  0  0  0
  6  1  1  0  0  0  0
  7  8  1  0  0  0  0
  9 30  1  6  0  0  0
 10 11  1  0  0  0  0
 11 13  1  6  0  0  0
 12  9  1  1  0  0  0
 12 10  1  0  0  0  0
 12 11  1  0  0  0  0
 13 14  1  0  0  0  0
 14 15  1  0  0  0  0
 16 15  1  6  0  0  0
 16 19  1  0  0  0  0
 17 19  1  0  0  0  0
 19 18  1  6  0  0  0
 20 16  1  0  0  0  0
 20 21  1  0  0  0  0
 22 21  1  0  0  0  0
 23 22  1  6  0  0  0
 23 24  1  0  0  0  0
 24 29  1  0  0  0  0
 25 26  1  0  0  0  0
 26 28  1  1  0  0  0
 26 29  1  0  0  0  0
 27 25  1  0  0  0  0
 27 23  1  0  0  0  0
 32 34  1  0  0  0  0
 33 31  1  0  0  0  0
 33 30  1  0  0  0  0
 34 33  1  0  0  0  0
 35 31  1  0  0  0  0
 36 34  1  0  0  0  0
 37 34  1  0  0  0  0
 37 35  1  0  0  0  0
 39 38  1  0  0  0  0
 40 39  1  0  0  0  0
 41 40  1  0  0  0  0
 42 41  2  0  0  0  0
 43 47  1  0  0  0  0
 44 47  2  0  0  0  0
 45 48  1  0  0  0  0
 46 43  1  0  0  0  0
 47 42  1  0  0  0  0
 48 46  2  0  0  0  0
 48 44  1  0  0  0  0
 49 53  1  0  0  0  0
 50 41  1  1  0  0  0
 50 49  1  0  0  0  0
 50 52  1  0  0  0  0
 51 54  1  6  0  0  0
 52 51  1  0  0  0  0
 53 51  1  0  0  0  0
 55 56  2  0  0  0  0
 56 54  1  0  0  0  0
 57 59  1  0  0  0  0
 57 55  1  0  0  0  0
 59 58  1  6  0  0  0
 59 60  1  0  0  0  0
M  END
>  <MODEL>
4

>  <REMARK>
 VINA RESULT:      -5.2      2.616      9.571
  Name = 
  24 active torsions:
  status: ('A' for Active; 'I' for Inactive)
    1  A    between atoms: C_2  and  C_16
    2  A    between atoms: C_2  and  O_24
    3  A    between atoms: C_2  and  C_48
    4  A    between atoms: C_5  and  C_25
    5  A    between atoms: C_7  and  C_29
    6  A    between atoms: C_7  and  C_35
    7  A    between atoms: C_10  and  C_12
    8  A    between atoms: C_10  and  C_50
    9  A    between atoms: C_14  and  C_27
   10  A    between atoms: C_14  and  C_30
   11  A    between atoms: C_15  and  C_25
   12  A    between atoms: C_16  and  C_27
   13  A    between atoms: C_17  and  C_23
   14  A    between atoms: C_17  and  C_39
   15  A    between atoms: C_17  and  C_59
   16  A    between atoms: C_18  and  C_19
   17  A    between atoms: C_18  and  C_40
   18  A    between atoms: C_19  and  C_35
   19  A    between atoms: C_21  and  C_60
   20  A    between atoms: O_24  and  C_50
   21  A    between atoms: N_34  and  C_55
   22  A    between atoms: N_36  and  C_39
   23  A    between atoms: C_37  and  C_44
   24  A    between atoms: C_41  and  C_55
                            x       y       z     vdW  Elec       q    Type
                         _______ _______ _______ _____ _____    ______ ____

>  <TORSDO>
F 24

$$$$
=
 OpenBabel11072408523D

 60 65  0  0  1  0  0  0  0  0999 V2000
  191.9560  175.5080  144.1270 O   0  0  0  0  0  0  0  0  0  0  0  0
  189.5910  175.7930  145.7660 C   0  0  1  0  0  3  0  0  0  0  0  0
  189.6320  176.1760  144.2730 C   0  0  1  0  0  3  0  0  0  0  0  0
  192.0820  175.4870  145.5290 C   0  0  1  0  0  3  0  0  0  0  0  0
  190.8000  174.9410  146.1690 C   0  0  0  0  0  2  0  0  0  0  0  0
  191.0530  176.5410  143.8190 C   0  0  0  0  0  2  0  0  0  0  0  0
  190.4330  176.9400  147.6880 O   0  0  0  0  0  1  0  0  0  0  0  0
  189.5180  177.0370  146.6370 C   0  0  0  0  0  2  0  0  0  0  0  0
  188.9460  175.1640  143.3390 C   0  0  2  0  0  3  0  0  0  0  0  0
  188.9280  174.3410  140.9820 C   0  0  0  0  0  2  0  0  0  0  0  0
  189.8840  173.4730  141.7700 C   0  0  2  0  0  3  0  0  0  0  0  0
  189.7770  174.9540  142.0770 C   0  0  2  0  0  3  0  0  0  0  0  0
  191.1570  173.2450  140.9840 C   0  0  0  0  0  2  0  0  0  0  0  0
  191.7870  171.9330  141.3990 C   0  0  0  0  0  2  0  0  0  0  0  0
  192.8900  171.5780  140.4160 C   0  0  0  0  0  2  0  0  0  0  0  0
  192.6250  170.2440  139.7160 C   0  0  2  0  0  3  0  0  0  0  0  0
  195.0560  170.3700  139.5910 N   0  0  0  0  0  1  0  0  0  0  0  0
  194.0450  168.4430  140.3970 O   0  0  0  0  0  1  0  0  0  0  0  0
  193.9190  169.4750  139.4660 C   0  0  1  0  0  3  0  0  0  0  0  0
  191.9340  170.4500  138.5190 O   0  0  0  0  0  0  0  0  0  0  0  0
  190.8540  169.5650  138.5720 C   0  0  0  0  0  2  0  0  0  0  0  0
  189.6540  170.1520  137.8440 C   0  0  0  0  0  2  0  0  0  0  0  0
  189.9920  171.5060  137.2390 C   0  0  2  0  0  3  0  0  0  0  0  0
  189.1520  172.5820  137.9290 C   0  0  0  0  0  2  0  0  0  0  0  0
  190.0050  172.8810  135.1350 C   0  0  0  0  0  2  0  0  0  0  0  0
  189.1660  173.9520  135.8320 C   0  0  2  0  0  3  0  0  0  0  0  0
  189.7050  171.5070  135.7350 C   0  0  0  0  0  2  0  0  0  0  0  0
  189.4680  175.2030  135.2940 O   0  0  0  0  0  1  0  0  0  0  0  0
  189.4590  173.9550  137.3310 C   0  0  0  0  0  2  0  0  0  0  0  0
  187.5230  175.5770  142.9680 C   0  0  0  0  0  2  0  0  0  0  0  0
  186.1280  177.1120  143.9550 O   0  0  0  0  0  0  0  0  0  0  0  0
  186.4370  177.1400  140.9260 C   0  0  0  0  0  1  0  0  0  0  0  0
  187.3030  176.9920  143.2790 N   0  0  0  0  0  0  0  0  0  0  0  0
  187.1510  177.8250  142.0920 C   0  0  0  0  0  0  0  0  0  0  0  0
  185.7920  178.4350  143.8690 N   0  0  0  0  0  2  0  0  0  0  0  0
  188.4920  178.3780  141.6530 C   0  0  0  0  0  1  0  0  0  0  0  0
  186.2770  178.9180  142.5880 C   0  0  0  0  0  2  0  0  0  0  0  0
  193.2980  174.6620  145.9500 C   0  0  0  0  0  2  0  0  0  0  0  0
  194.6140  175.4160  145.7760 C   0  0  0  0  0  2  0  0  0  0  0  0
  195.7990  174.4830  145.9730 C   0  0  0  0  0  2  0  0  0  0  0  0
  195.8120  173.3860  144.9550 C   0  0  0  0  0  0  0  0  0  0  0  0
  195.4580  172.1510  145.3340 C   0  0  0  0  0  3  0  0  0  0  0  0
  194.4150  170.2440  144.1520 O   0  0  0  0  0  0  0  0  0  0  0  0
  196.5900  170.4580  143.9230 N   0  0  0  0  0  0  0  0  0  0  0  0
  196.9420  168.4910  142.4200 C   0  0  0  0  0  1  0  0  0  0  0  0
  194.7690  169.2620  143.3820 N   0  0  0  0  0  0  0  0  0  0  0  0
  195.4690  170.9530  144.4780 C   0  0  0  0  0  0  0  0  0  0  0  0
  196.1010  169.3970  143.2490 C   0  0  0  0  0  0  0  0  0  0  0  0
  197.2810  174.8530  143.5710 C   0  0  0  0  0  2  0  0  0  0  0  0
  196.3060  173.6840  143.5710 C   0  0  2  0  0  3  0  0  0  0  0  0
  196.0540  175.1950  141.5840 C   0  0  1  0  0  3  0  0  0  0  0  0
  194.9340  174.1030  142.4460 S   0  0  0  0  0  0  0  0  0  0  0  0
  197.1890  175.4600  142.2170 C   0  0  0  0  0  2  0  0  0  0  0  0
  195.8160  175.5950  140.1610 C   0  0  0  0  0  2  0  0  0  0  0  0
  194.2000  175.1430  138.4890 C   0  0  0  0  0  3  0  0  0  0  0  0
  194.8200  174.7530  139.5440 N   0  0  0  0  0  0  0  0  0  0  0  0
  193.1740  174.2680  137.8260 C   0  0  0  0  0  2  0  0  0  0  0  0
  192.6830  176.0300  136.1840 N   0  0  0  0  0  1  0  0  0  0  0  0
  192.9660  174.6120  136.3520 C   0  0  1  0  0  3  0  0  0  0  0  0
  194.0920  174.2570  135.6030 O   0  0  0  0  0  1  0  0  0  0  0  0
  1  4  1  0  0  0  0
  2  5  1  0  0  0  0
  2  8  1  1  0  0  0
  3  9  1  6  0  0  0
  3  2  1  0  0  0  0
  4 38  1  6  0  0  0
  4  5  1  0  0  0  0
  6  1  1  0  0  0  0
  6  3  1  0  0  0  0
  8  7  1  0  0  0  0
  9 30  1  6  0  0  0
 10 11  1  0  0  0  0
 10 12  1  0  0  0  0
 11 13  1  6  0  0  0
 11 12  1  0  0  0  0
 12  9  1  1  0  0  0
 13 14  1  0  0  0  0
 15 14  1  0  0  0  0
 16 15  1  6  0  0  0
 19 17  1  1  0  0  0
 19 16  1  0  0  0  0
 19 18  1  0  0  0  0
 20 21  1  0  0  0  0
 20 16  1  0  0  0  0
 22 21  1  0  0  0  0
 23 22  1  1  0  0  0
 23 24  1  0  0  0  0
 25 27  1  0  0  0  0
 25 26  1  0  0  0  0
 26 28  1  6  0  0  0
 26 29  1  0  0  0  0
 27 23  1  0  0  0  0
 29 24  1  0  0  0  0
 30 33  1  0  0  0  0
 32 34  1  0  0  0  0
 33 31  1  0  0  0  0
 34 37  1  0  0  0  0
 34 33  1  0  0  0  0
 35 31  1  0  0  0  0
 36 34  1  0  0  0  0
 37 35  1  0  0  0  0
 39 38  1  0  0  0  0
 39 40  1  0  0  0  0
 41 42  2  0  0  0  0
 41 40  1  0  0  0  0
 43 47  1  0  0  0  0
 44 47  2  0  0  0  0
 45 48  1  0  0  0  0
 46 43  1  0  0  0  0
 47 42  1  0  0  0  0
 48 46  2  0  0  0  0
 48 44  1  0  0  0  0
 50 49  1  0  0  0  0
 50 41  1  1  0  0  0
 51 54  1  6  0  0  0
 51 53  1  0  0  0  0
 51 52  1  0  0  0  0
 52 50  1  0  0  0  0
 53 49  1  0  0  0  0
 55 56  2  0  0  0  0
 56 54  1  0  0  0  0
 57 55  1  0  0  0  0
 58 59  1  0  0  0  0
 59 60  1  6  0  0  0
 59 57  1  0  0  0  0
M  END
>  <MODEL>
5

>  <REMARK>
 VINA RESULT:      -5.0      2.449      7.409
  Name = 
  24 active torsions:
  status: ('A' for Active; 'I' for Inactive)
    1  A    between atoms: C_2  and  C_16
    2  A    between atoms: C_2  and  O_24
    3  A    between atoms: C_2  and  C_48
    4  A    between atoms: C_5  and  C_25
    5  A    between atoms: C_7  and  C_29
    6  A    between atoms: C_7  and  C_35
    7  A    between atoms: C_10  and  C_12
    8  A    between atoms: C_10  and  C_50
    9  A    between atoms: C_14  and  C_27
   10  A    between atoms: C_14  and  C_30
   11  A    between atoms: C_15  and  C_25
   12  A    between atoms: C_16  and  C_27
   13  A    between atoms: C_17  and  C_23
   14  A    between atoms: C_17  and  C_39
   15  A    between atoms: C_17  and  C_59
   16  A    between atoms: C_18  and  C_19
   17  A    between atoms: C_18  and  C_40
   18  A    between atoms: C_19  and  C_35
   19  A    between atoms: C_21  and  C_60
   20  A    between atoms: O_24  and  C_50
   21  A    between atoms: N_34  and  C_55
   22  A    between atoms: N_36  and  C_39
   23  A    between atoms: C_37  and  C_44
   24  A    between atoms: C_41  and  C_55
                            x       y       z     vdW  Elec       q    Type
                         _______ _______ _______ _____ _____    ______ ____

>  <TORSDO>
F 24

$$$$
=
 OpenBabel11072408523D

 60 65  0  0  1  0  0  0  0  0999 V2000
  193.4530  175.7260  142.6080 O   0  0  0  0  0  0  0  0  0  0  0  0
  194.4370  175.9400  145.3180 C   0  0  1  0  0  3  0  0  0  0  0  0
  192.9400  176.0060  144.9590 C   0  0  1  0  0  3  0  0  0  0  0  0
  194.8120  176.0190  142.8270 C   0  0  1  0  0  3  0  0  0  0  0  0
  195.2800  175.4090  144.1540 C   0  0  0  0  0  2  0  0  0  0  0  0
  192.7210  176.5040  143.5220 C   0  0  0  0  0  2  0  0  0  0  0  0
  194.2830  177.7250  146.9010 O   0  0  0  0  0  1  0  0  0  0  0  0
  194.9460  177.3080  145.7460 C   0  0  0  0  0  2  0  0  0  0  0  0
  192.1550  174.7200  145.2720 C   0  0  2  0  0  3  0  0  0  0  0  0
  190.2560  173.3580  144.3910 C   0  0  0  0  0  2  0  0  0  0  0  0
  191.5450  172.6850  143.9740 C   0  0  2  0  0  3  0  0  0  0  0  0
  191.4620  174.1980  144.0180 C   0  0  2  0  0  3  0  0  0  0  0  0
  191.4660  172.2500  142.5260 C   0  0  0  0  0  2  0  0  0  0  0  0
  190.0200  172.0390  142.1330 C   0  0  0  0  0  2  0  0  0  0  0  0
  189.8260  172.4780  140.6920 C   0  0  0  0  0  2  0  0  0  0  0  0
  188.7540  173.5600  140.5620 C   0  0  2  0  0  3  0  0  0  0  0  0
  189.8250  174.1260  138.4470 N   0  0  0  0  0  1  0  0  0  0  0  0
  187.8050  172.9860  138.4420 O   0  0  0  0  0  1  0  0  0  0  0  0
  188.5410  173.9680  139.1070 C   0  0  1  0  0  3  0  0  0  0  0  0
  189.0850  174.6710  141.3420 O   0  0  0  0  0  0  0  0  0  0  0  0
  187.8570  175.2110  141.7350 C   0  0  0  0  0  2  0  0  0  0  0  0
  187.8710  176.7240  141.5750 C   0  0  0  0  0  2  0  0  0  0  0  0
  187.1950  177.4040  142.7570 C   0  0  2  0  0  3  0  0  0  0  0  0
  186.2330  176.4150  143.4150 C   0  0  0  0  0  2  0  0  0  0  0  0
  185.7160  179.3040  143.4740 C   0  0  0  0  0  2  0  0  0  0  0  0
  184.7590  178.3090  144.1310 C   0  0  2  0  0  3  0  0  0  0  0  0
  186.4290  178.6450  142.2930 C   0  0  0  0  0  2  0  0  0  0  0  0
  184.1350  178.9140  145.2220 O   0  0  0  0  0  1  0  0  0  0  0  0
  185.5260  177.0750  144.5980 C   0  0  0  0  0  2  0  0  0  0  0  0
  191.1350  174.9130  146.3950 C   0  0  0  0  0  2  0  0  0  0  0  0
  191.2930  176.4230  148.1180 O   0  0  0  0  0  0  0  0  0  0  0  0
  188.5770  175.9420  146.8270 C   0  0  0  0  0  1  0  0  0  0  0  0
  191.0590  176.3240  146.7800 N   0  0  0  0  0  0  0  0  0  0  0  0
  189.7380  176.9060  146.5770 C   0  0  0  0  0  0  0  0  0  0  0  0
  190.8320  177.6600  148.4770 N   0  0  0  0  0  2  0  0  0  0  0  0
  189.6360  177.5260  145.1980 C   0  0  0  0  0  1  0  0  0  0  0  0
  189.6960  177.9590  147.6220 C   0  0  0  0  0  2  0  0  0  0  0  0
  195.6680  175.5190  141.6620 C   0  0  0  0  0  2  0  0  0  0  0  0
  196.4740  174.2710  142.0140 C   0  0  0  0  0  2  0  0  0  0  0  0
  196.9950  173.5950  140.7550 C   0  0  0  0  0  2  0  0  0  0  0  0
  195.9720  172.6810  140.1570 C   0  0  0  0  0  0  0  0  0  0  0  0
  195.6960  171.5280  140.7790 C   0  0  0  0  0  3  0  0  0  0  0  0
  195.0530  169.5490  139.4410 O   0  0  0  0  0  0  0  0  0  0  0  0
  193.4860  170.4100  140.7180 N   0  0  0  0  0  0  0  0  0  0  0  0
  191.6780  168.7840  140.1350 C   0  0  0  0  0  1  0  0  0  0  0  0
  194.0110  168.8020  139.2420 N   0  0  0  0  0  0  0  0  0  0  0  0
  194.7630  170.4950  140.3010 C   0  0  0  0  0  0  0  0  0  0  0  0
  193.0560  169.3370  140.0230 C   0  0  0  0  0  0  0  0  0  0  0  0
  196.2000  174.0710  138.0960 C   0  0  0  0  0  2  0  0  0  0  0  0
  195.3580  173.0410  138.8360 C   0  0  2  0  0  3  0  0  0  0  0  0
  193.9930  174.7490  137.6070 C   0  0  1  0  0  3  0  0  0  0  0  0
  193.6840  173.7330  139.0430 S   0  0  0  0  0  0  0  0  0  0  0  0
  195.2580  174.8070  137.2130 C   0  0  0  0  0  2  0  0  0  0  0  0
  192.8710  175.3070  136.7870 C   0  0  0  0  0  2  0  0  0  0  0  0
  192.5170  173.1190  135.9490 C   0  0  0  0  0  3  0  0  0  0  0  0
  192.4820  174.3860  135.7450 N   0  0  0  0  0  0  0  0  0  0  0  0
  192.0970  172.1500  134.8800 C   0  0  0  0  0  2  0  0  0  0  0  0
  191.6630  170.1620  136.2590 N   0  0  0  0  0  1  0  0  0  0  0  0
  191.0580  171.1430  135.3690 C   0  0  1  0  0  3  0  0  0  0  0  0
  190.0100  171.7990  136.0210 O   0  0  0  0  0  1  0  0  0  0  0  0
  1  4  1  0  0  0  0
  1  6  1  0  0  0  0
  2  8  1  6  0  0  0
  3  9  1  6  0  0  0
  3  2  1  0  0  0  0
  4 38  1  6  0  0  0
  4  5  1  0  0  0  0
  5  2  1  0  0  0  0
  6  3  1  0  0  0  0
  8  7  1  0  0  0  0
  9 30  1  1  0  0  0
 11 13  1  6  0  0  0
 11 12  1  0  0  0  0
 11 10  1  0  0  0  0
 12 10  1  0  0  0  0
 12  9  1  1  0  0  0
 14 13  1  0  0  0  0
 15 14  1  0  0  0  0
 16 15  1  6  0  0  0
 16 20  1  0  0  0  0
 17 19  1  0  0  0  0
 19 18  1  6  0  0  0
 19 16  1  0  0  0  0
 20 21  1  0  0  0  0
 22 21  1  0  0  0  0
 23 22  1  6  0  0  0
 23 24  1  0  0  0  0
 24 29  1  0  0  0  0
 25 26  1  0  0  0  0
 26 29  1  0  0  0  0
 26 28  1  1  0  0  0
 27 23  1  0  0  0  0
 27 25  1  0  0  0  0
 30 33  1  0  0  0  0
 31 35  1  0  0  0  0
 33 31  1  0  0  0  0
 34 33  1  0  0  0  0
 34 32  1  0  0  0  0
 34 37  1  0  0  0  0
 36 34  1  0  0  0  0
 37 35  1  0  0  0  0
 38 39  1  0  0  0  0
 40 39  1  0  0  0  0
 41 40  1  0  0  0  0
 41 42  2  0  0  0  0
 43 47  1  0  0  0  0
 46 43  1  0  0  0  0
 46 48  2  0  0  0  0
 47 44  2  0  0  0  0
 47 42  1  0  0  0  0
 48 45  1  0  0  0  0
 48 44  1  0  0  0  0
 49 50  1  0  0  0  0
 50 52  1  0  0  0  0
 50 41  1  1  0  0  0
 51 54  1  6  0  0  0
 51 52  1  0  0  0  0
 53 51  1  0  0  0  0
 53 49  1  0  0  0  0
 56 55  2  0  0  0  0
 56 54  1  0  0  0  0
 57 59  1  0  0  0  0
 57 55  1  0  0  0  0
 59 60  1  1  0  0  0
 59 58  1  0  0  0  0
M  END
>  <MODEL>
6

>  <REMARK>
 VINA RESULT:      -5.0      2.924      7.266
  Name = 
  24 active torsions:
  status: ('A' for Active; 'I' for Inactive)
    1  A    between atoms: C_2  and  C_16
    2  A    between atoms: C_2  and  O_24
    3  A    between atoms: C_2  and  C_48
    4  A    between atoms: C_5  and  C_25
    5  A    between atoms: C_7  and  C_29
    6  A    between atoms: C_7  and  C_35
    7  A    between atoms: C_10  and  C_12
    8  A    between atoms: C_10  and  C_50
    9  A    between atoms: C_14  and  C_27
   10  A    between atoms: C_14  and  C_30
   11  A    between atoms: C_15  and  C_25
   12  A    between atoms: C_16  and  C_27
   13  A    between atoms: C_17  and  C_23
   14  A    between atoms: C_17  and  C_39
   15  A    between atoms: C_17  and  C_59
   16  A    between atoms: C_18  and  C_19
   17  A    between atoms: C_18  and  C_40
   18  A    between atoms: C_19  and  C_35
   19  A    between atoms: C_21  and  C_60
   20  A    between atoms: O_24  and  C_50
   21  A    between atoms: N_34  and  C_55
   22  A    between atoms: N_36  and  C_39
   23  A    between atoms: C_37  and  C_44
   24  A    between atoms: C_41  and  C_55
                            x       y       z     vdW  Elec       q    Type
                         _______ _______ _______ _____ _____    ______ ____

>  <TORSDO>
F 24

$$$$
=
 OpenBabel11072408523D

 60 65  0  0  1  0  0  0  0  0999 V2000
  189.1160  174.7590  143.2630 O   0  0  0  0  0  0  0  0  0  0  0  0
  187.8930  177.0960  142.0790 C   0  0  1  0  0  3  0  0  0  0  0  0
  187.7030  176.7050  143.5580 C   0  0  1  0  0  3  0  0  0  0  0  0
  189.0310  174.8570  141.8620 C   0  0  1  0  0  3  0  0  0  0  0  0
  189.0500  176.3290  141.4310 C   0  0  0  0  0  2  0  0  0  0  0  0
  187.8800  175.1940  143.7730 C   0  0  0  0  0  2  0  0  0  0  0  0
  186.7740  177.2880  139.9750 O   0  0  0  0  0  1  0  0  0  0  0  0
  186.6110  176.8640  141.2940 C   0  0  0  0  0  2  0  0  0  0  0  0
  188.5220  177.5510  144.5490 C   0  0  2  0  0  3  0  0  0  0  0  0
  190.2600  177.4710  146.3390 C   0  0  0  0  0  2  0  0  0  0  0  0
  190.9600  177.3300  145.0060 C   0  0  2  0  0  3  0  0  0  0  0  0
  189.5970  176.6990  145.2160 C   0  0  2  0  0  3  0  0  0  0  0  0
  192.0010  176.2330  145.0720 C   0  0  0  0  0  2  0  0  0  0  0  0
  193.2930  176.7160  144.4490 C   0  0  0  0  0  2  0  0  0  0  0  0
  194.0800  175.5190  143.9430 C   0  0  0  0  0  2  0  0  0  0  0  0
  195.4610  175.9200  143.4220 C   0  0  2  0  0  3  0  0  0  0  0  0
  195.0260  176.9490  141.2550 N   0  0  0  0  0  1  0  0  0  0  0  0
  196.8900  175.5950  141.5300 O   0  0  0  0  0  1  0  0  0  0  0  0
  195.5560  175.7650  141.9070 C   0  0  1  0  0  3  0  0  0  0  0  0
  196.4570  175.1740  144.0580 O   0  0  0  0  0  0  0  0  0  0  0  0
  195.9860  174.9870  145.3610 C   0  0  0  0  0  2  0  0  0  0  0  0
  196.6730  173.7900  146.0020 C   0  0  0  0  0  2  0  0  0  0  0  0
  196.1150  172.4840  145.4580 C   0  0  2  0  0  3  0  0  0  0  0  0
  194.6070  172.4460  145.7050 C   0  0  0  0  0  2  0  0  0  0  0  0
  196.1950  169.9780  145.6250 C   0  0  0  0  0  2  0  0  0  0  0  0
  194.6860  169.9480  145.8710 C   0  0  2  0  0  3  0  0  0  0  0  0
  196.7850  171.2900  146.1430 C   0  0  0  0  0  2  0  0  0  0  0  0
  194.1560  168.7590  145.3710 O   0  0  0  0  0  1  0  0  0  0  0  0
  194.0190  171.1360  145.1810 C   0  0  0  0  0  2  0  0  0  0  0  0
  187.6500  178.2230  145.6080 C   0  0  0  0  0  2  0  0  0  0  0  0
  185.8930  179.4040  144.7170 O   0  0  0  0  0  0  0  0  0  0  0  0
  185.7790  178.5840  147.6480 C   0  0  0  0  0  1  0  0  0  0  0  0
  186.2410  178.1840  145.2110 N   0  0  0  0  0  0  0  0  0  0  0  0
  185.3340  177.9500  146.3290 C   0  0  0  0  0  0  0  0  0  0  0  0
  184.5260  179.4290  144.7370 N   0  0  0  0  0  2  0  0  0  0  0  0
  185.0760  176.4670  146.5040 C   0  0  0  0  0  1  0  0  0  0  0  0
  184.0990  178.6400  145.8800 C   0  0  0  0  0  2  0  0  0  0  0  0
  190.1640  174.0760  141.1950 C   0  0  0  0  0  2  0  0  0  0  0  0
  191.3000  173.7460  142.1580 C   0  0  0  0  0  2  0  0  0  0  0  0
  191.3340  172.2540  142.4580 C   0  0  0  0  0  2  0  0  0  0  0  0
  191.6540  171.4530  141.2350 C   0  0  0  0  0  0  0  0  0  0  0  0
  190.6480  171.0300  140.4600 C   0  0  0  0  0  3  0  0  0  0  0  0
  190.4780  168.9170  139.1850 O   0  0  0  0  0  0  0  0  0  0  0  0
  191.2360  170.6600  138.0820 N   0  0  0  0  0  0  0  0  0  0  0  0
  191.5510  169.5230  135.8770 C   0  0  0  0  0  1  0  0  0  0  0  0
  190.7070  168.4800  137.9840 N   0  0  0  0  0  0  0  0  0  0  0  0
  190.7830  170.1900  139.2590 C   0  0  0  0  0  0  0  0  0  0  0  0
  191.1730  169.5510  137.3170 C   0  0  0  0  0  0  0  0  0  0  0  0
  193.4580  169.7890  141.6900 C   0  0  0  0  0  2  0  0  0  0  0  0
  193.0810  171.0740  140.9670 C   0  0  2  0  0  3  0  0  0  0  0  0
  195.4150  171.0940  141.8860 C   0  0  1  0  0  3  0  0  0  0  0  0
  194.2330  172.3790  141.5110 S   0  0  0  0  0  0  0  0  0  0  0  0
  194.9270  169.8610  141.9080 C   0  0  0  0  0  2  0  0  0  0  0  0
  196.8840  171.3760  141.9480 C   0  0  0  0  0  2  0  0  0  0  0  0
  197.5220  171.7750  139.7020 C   0  0  0  0  0  3  0  0  0  0  0  0
  197.2910  172.2490  140.8730 N   0  0  0  0  0  0  0  0  0  0  0  0
  197.9290  172.6750  138.5690 C   0  0  0  0  0  2  0  0  0  0  0  0
  197.2730  175.0260  138.2870 N   0  0  0  0  0  1  0  0  0  0  0  0
  196.8240  173.6470  138.1590 C   0  0  1  0  0  3  0  0  0  0  0  0
  196.4150  173.3970  136.8460 O   0  0  0  0  0  1  0  0  0  0  0  0
  1  6  1  0  0  0  0
  2  8  1  6  0  0  0
  2  3  1  0  0  0  0
  3  6  1  0  0  0  0
  3  9  1  1  0  0  0
  4 38  1  6  0  0  0
  4  1  1  0  0  0  0
  5  4  1  0  0  0  0
  5  2  1  0  0  0  0
  7  8  1  0  0  0  0
  9 30  1  1  0  0  0
 11 13  1  1  0  0  0
 11 12  1  0  0  0  0
 11 10  1  0  0  0  0
 12  9  1  6  0  0  0
 12 10  1  0  0  0  0
 14 13  1  0  0  0  0
 15 14  1  0  0  0  0
 16 15  1  1  0  0  0
 16 20  1  0  0  0  0
 18 19  1  0  0  0  0
 19 17  1  6  0  0  0
 19 16  1  0  0  0  0
 20 21  1  0  0  0  0
 21 22  1  0  0  0  0
 23 24  1  0  0  0  0
 23 22  1  1  0  0  0
 23 27  1  0  0  0  0
 25 26  1  0  0  0  0
 25 27  1  0  0  0  0
 26 28  1  6  0  0  0
 29 24  1  0  0  0  0
 29 26  1  0  0  0  0
 31 35  1  0  0  0  0
 31 33  1  0  0  0  0
 33 30  1  0  0  0  0
 33 34  1  0  0  0  0
 34 36  1  0  0  0  0
 34 32  1  0  0  0  0
 35 37  1  0  0  0  0
 37 34  1  0  0  0  0
 38 39  1  0  0  0  0
 39 40  1  0  0  0  0
 41 40  1  0  0  0  0
 42 41  2  0  0  0  0
 43 47  1  0  0  0  0
 44 47  2  0  0  0  0
 45 48  1  0  0  0  0
 46 43  1  0  0  0  0
 47 42  1  0  0  0  0
 48 46  2  0  0  0  0
 48 44  1  0  0  0  0
 49 53  1  0  0  0  0
 50 41  1  1  0  0  0
 50 52  1  0  0  0  0
 50 49  1  0  0  0  0
 51 53  1  0  0  0  0
 51 54  1  6  0  0  0
 52 51  1  0  0  0  0
 55 56  2  0  0  0  0
 56 54  1  0  0  0  0
 57 55  1  0  0  0  0
 59 60  1  6  0  0  0
 59 58  1  0  0  0  0
 59 57  1  0  0  0  0
M  END
>  <MODEL>
7

>  <REMARK>
 VINA RESULT:      -4.9      2.293      4.189
  Name = 
  24 active torsions:
  status: ('A' for Active; 'I' for Inactive)
    1  A    between atoms: C_2  and  C_16
    2  A    between atoms: C_2  and  O_24
    3  A    between atoms: C_2  and  C_48
    4  A    between atoms: C_5  and  C_25
    5  A    between atoms: C_7  and  C_29
    6  A    between atoms: C_7  and  C_35
    7  A    between atoms: C_10  and  C_12
    8  A    between atoms: C_10  and  C_50
    9  A    between atoms: C_14  and  C_27
   10  A    between atoms: C_14  and  C_30
   11  A    between atoms: C_15  and  C_25
   12  A    between atoms: C_16  and  C_27
   13  A    between atoms: C_17  and  C_23
   14  A    between atoms: C_17  and  C_39
   15  A    between atoms: C_17  and  C_59
   16  A    between atoms: C_18  and  C_19
   17  A    between atoms: C_18  and  C_40
   18  A    between atoms: C_19  and  C_35
   19  A    between atoms: C_21  and  C_60
   20  A    between atoms: O_24  and  C_50
   21  A    between atoms: N_34  and  C_55
   22  A    between atoms: N_36  and  C_39
   23  A    between atoms: C_37  and  C_44
   24  A    between atoms: C_41  and  C_55
                            x       y       z     vdW  Elec       q    Type
                         _______ _______ _______ _____ _____    ______ ____

>  <TORSDO>
F 24

$$$$
=
 OpenBabel11072408523D

 60 65  0  0  1  0  0  0  0  0999 V2000
  192.4190  172.3150  142.2640 O   0  0  0  0  0  0  0  0  0  0  0  0
  190.0780  171.6560  140.7010 C   0  0  1  0  0  3  0  0  0  0  0  0
  191.5020  171.6940  140.1100 C   0  0  1  0  0  3  0  0  0  0  0  0
  191.1440  172.6470  142.7590 C   0  0  1  0  0  3  0  0  0  0  0  0
  190.0970  171.6580  142.2330 C   0  0  0  0  0  2  0  0  0  0  0  0
  192.4180  172.6420  140.8970 C   0  0  0  0  0  2  0  0  0  0  0  0
  188.1070  172.3620  139.5460 O   0  0  0  0  0  1  0  0  0  0  0  0
  189.2550  172.8280  140.1900 C   0  0  0  0  0  2  0  0  0  0  0  0
  192.1300  170.3080  139.8800 C   0  0  2  0  0  3  0  0  0  0  0  0
  194.2650  169.0630  139.5240 C   0  0  0  0  0  2  0  0  0  0  0  0
  194.3850  169.8310  140.8210 C   0  0  2  0  0  3  0  0  0  0  0  0
  193.6330  170.4340  139.6510 C   0  0  2  0  0  3  0  0  0  0  0  0
  195.7380  170.5050  140.9090 C   0  0  0  0  0  2  0  0  0  0  0  0
  196.3310  170.2860  142.2840 C   0  0  0  0  0  2  0  0  0  0  0  0
  195.5230  171.0680  143.3050 C   0  0  0  0  0  2  0  0  0  0  0  0
  195.8560  170.6530  144.7390 C   0  0  2  0  0  3  0  0  0  0  0  0
  193.5270  169.9360  144.6600 N   0  0  0  0  0  1  0  0  0  0  0  0
  194.8470  169.3570  146.4790 O   0  0  0  0  0  1  0  0  0  0  0  0
  194.5940  170.3660  145.5470 C   0  0  1  0  0  3  0  0  0  0  0  0
  196.6300  171.6350  145.3640 O   0  0  0  0  0  0  0  0  0  0  0  0
  195.7900  172.7500  145.4500 C   0  0  0  0  0  2  0  0  0  0  0  0
  196.5910  174.0290  145.2590 C   0  0  0  0  0  2  0  0  0  0  0  0
  195.6880  175.1800  144.8410 C   0  0  2  0  0  3  0  0  0  0  0  0
  194.9130  175.6730  146.0640 C   0  0  0  0  0  2  0  0  0  0  0  0
  193.7760  175.8710  143.3640 C   0  0  0  0  0  2  0  0  0  0  0  0
  193.0080  176.3620  144.5910 C   0  0  2  0  0  3  0  0  0  0  0  0
  194.7100  174.7250  143.7540 C   0  0  0  0  0  2  0  0  0  0  0  0
  192.1790  177.4230  144.2270 O   0  0  0  0  0  1  0  0  0  0  0  0
  193.9840  176.8210  145.6720 C   0  0  0  0  0  2  0  0  0  0  0  0
  191.4830  169.5540  138.7190 C   0  0  0  0  0  2  0  0  0  0  0  0
  189.9830  170.6450  137.3640 O   0  0  0  0  0  0  0  0  0  0  0  0
  191.6170  168.3510  136.2030 C   0  0  0  0  0  1  0  0  0  0  0  0
  191.3140  170.4410  137.5650 N   0  0  0  0  0  0  0  0  0  0  0  0
  191.8070  169.8650  136.3190 C   0  0  0  0  0  0  0  0  0  0  0  0
  189.8770  171.1290  136.0890 N   0  0  0  0  0  2  0  0  0  0  0  0
  193.2560  170.2450  136.0940 C   0  0  0  0  0  1  0  0  0  0  0  0
  190.9370  170.5160  135.3080 C   0  0  0  0  0  2  0  0  0  0  0  0
  191.1480  172.6780  144.2880 C   0  0  0  0  0  2  0  0  0  0  0  0
  190.2720  173.7900  144.8590 C   0  0  0  0  0  2  0  0  0  0  0  0
  189.9410  174.8170  143.7870 C   0  0  0  0  0  2  0  0  0  0  0  0
  188.7310  175.6200  144.1480 C   0  0  0  0  0  0  0  0  0  0  0  0
  188.5860  176.0330  145.4130 C   0  0  0  0  0  3  0  0  0  0  0  0
  186.1750  176.4850  145.7370 O   0  0  0  0  0  0  0  0  0  0  0  0
  187.5650  177.8660  146.7320 N   0  0  0  0  0  0  0  0  0  0  0  0
  185.8430  179.3210  147.8120 C   0  0  0  0  0  1  0  0  0  0  0  0
  185.4160  177.3370  146.3550 N   0  0  0  0  0  0  0  0  0  0  0  0
  187.4350  176.7800  145.9460 C   0  0  0  0  0  0  0  0  0  0  0  0
  186.2730  178.1800  146.9580 C   0  0  0  0  0  0  0  0  0  0  0  0
  188.1390  175.3830  141.7340 C   0  0  0  0  0  2  0  0  0  0  0  0
  187.6780  175.8570  143.1050 C   0  0  2  0  0  3  0  0  0  0  0  0
  186.9470  177.3570  141.2330 C   0  0  1  0  0  3  0  0  0  0  0  0
  187.2550  177.6250  142.9710 S   0  0  0  0  0  0  0  0  0  0  0  0
  187.3920  176.2060  140.7470 C   0  0  0  0  0  2  0  0  0  0  0  0
  186.0570  178.2690  140.4460 C   0  0  0  0  0  2  0  0  0  0  0  0
  183.9780  178.5360  141.5520 C   0  0  0  0  0  3  0  0  0  0  0  0
  184.6670  177.9380  140.6470 N   0  0  0  0  0  0  0  0  0  0  0  0
  182.5260  178.2140  141.7580 C   0  0  0  0  0  2  0  0  0  0  0  0
  180.9590  177.5410  139.9880 N   0  0  0  0  0  1  0  0  0  0  0  0
  181.6460  178.6710  140.5960 C   0  0  1  0  0  3  0  0  0  0  0  0
  180.7160  179.6200  141.0290 O   0  0  0  0  0  1  0  0  0  0  0  0
  1  4  1  0  0  0  0
  2  8  1  6  0  0  0
  2  5  1  0  0  0  0
  3  9  1  1  0  0  0
  3  2  1  0  0  0  0
  3  6  1  0  0  0  0
  4 38  1  1  0  0  0
  5  4  1  0  0  0  0
  6  1  1  0  0  0  0
  7  8  1  0  0  0  0
  9 30  1  6  0  0  0
 10 12  1  0  0  0  0
 10 11  1  0  0  0  0
 11 13  1  6  0  0  0
 12  9  1  1  0  0  0
 12 11  1  0  0  0  0
 13 14  1  0  0  0  0
 14 15  1  0  0  0  0
 16 15  1  6  0  0  0
 16 20  1  0  0  0  0
 16 19  1  0  0  0  0
 19 17  1  6  0  0  0
 19 18  1  0  0  0  0
 20 21  1  0  0  0  0
 22 21  1  0  0  0  0
 23 22  1  1  0  0  0
 23 24  1  0  0  0  0
 25 27  1  0  0  0  0
 25 26  1  0  0  0  0
 26 28  1  6  0  0  0
 26 29  1  0  0  0  0
 27 23  1  0  0  0  0
 29 24  1  0  0  0  0
 31 33  1  0  0  0  0
 32 34  1  0  0  0  0
 33 30  1  0  0  0  0
 34 33  1  0  0  0  0
 35 31  1  0  0  0  0
 36 34  1  0  0  0  0
 37 35  1  0  0  0  0
 37 34  1  0  0  0  0
 38 39  1  0  0  0  0
 40 41  1  0  0  0  0
 40 39  1  0  0  0  0
 41 42  2  0  0  0  0
 42 47  1  0  0  0  0
 43 47  1  0  0  0  0
 43 46  1  0  0  0  0
 44 48  1  0  0  0  0
 46 48  2  0  0  0  0
 47 44  2  0  0  0  0
 48 45  1  0  0  0  0
 49 50  1  0  0  0  0
 50 41  1  1  0  0  0
 51 54  1  1  0  0  0
 51 52  1  0  0  0  0
 52 50  1  0  0  0  0
 53 51  1  0  0  0  0
 53 49  1  0  0  0  0
 54 56  1  0  0  0  0
 55 57  1  0  0  0  0
 56 55  2  0  0  0  0
 59 58  1  1  0  0  0
 59 60  1  0  0  0  0
 59 57  1  0  0  0  0
M  END
>  <MODEL>
8

>  <REMARK>
 VINA RESULT:      -4.8      2.925      9.938
  Name = 
  24 active torsions:
  status: ('A' for Active; 'I' for Inactive)
    1  A    between atoms: C_2  and  C_16
    2  A    between atoms: C_2  and  O_24
    3  A    between atoms: C_2  and  C_48
    4  A    between atoms: C_5  and  C_25
    5  A    between atoms: C_7  and  C_29
    6  A    between atoms: C_7  and  C_35
    7  A    between atoms: C_10  and  C_12
    8  A    between atoms: C_10  and  C_50
    9  A    between atoms: C_14  and  C_27
   10  A    between atoms: C_14  and  C_30
   11  A    between atoms: C_15  and  C_25
   12  A    between atoms: C_16  and  C_27
   13  A    between atoms: C_17  and  C_23
   14  A    between atoms: C_17  and  C_39
   15  A    between atoms: C_17  and  C_59
   16  A    between atoms: C_18  and  C_19
   17  A    between atoms: C_18  and  C_40
   18  A    between atoms: C_19  and  C_35
   19  A    between atoms: C_21  and  C_60
   20  A    between atoms: O_24  and  C_50
   21  A    between atoms: N_34  and  C_55
   22  A    between atoms: N_36  and  C_39
   23  A    between atoms: C_37  and  C_44
   24  A    between atoms: C_41  and  C_55
                            x       y       z     vdW  Elec       q    Type
                         _______ _______ _______ _____ _____    ______ ____

>  <TORSDO>
F 24

$$$$
=
 OpenBabel11072408523D

 60 65  0  0  1  0  0  0  0  0999 V2000
  192.1740  171.6420  140.8430 O   0  0  0  0  0  0  0  0  0  0  0  0
  192.0720  171.6300  137.9540 C   0  0  1  0  0  3  0  0  0  0  0  0
  193.3830  171.4700  138.7500 C   0  0  1  0  0  3  0  0  0  0  0  0
  191.0330  172.1450  140.1910 C   0  0  1  0  0  3  0  0  0  0  0  0
  190.8390  171.4430  138.8420 C   0  0  0  0  0  2  0  0  0  0  0  0
  193.2890  172.1260  140.1350 C   0  0  0  0  0  2  0  0  0  0  0  0
  190.9010  173.0680  136.4450 O   0  0  0  0  0  1  0  0  0  0  0  0
  192.0220  172.9890  137.2730 C   0  0  0  0  0  2  0  0  0  0  0  0
  193.9190  170.0280  138.8060 C   0  0  2  0  0  3  0  0  0  0  0  0
  195.4020  168.4430  140.0380 C   0  0  0  0  0  2  0  0  0  0  0  0
  194.2200  168.7600  140.9270 C   0  0  2  0  0  3  0  0  0  0  0  0
  194.8050  169.8360  140.0320 C   0  0  2  0  0  3  0  0  0  0  0  0
  194.6840  169.0230  142.3440 C   0  0  0  0  0  2  0  0  0  0  0  0
  193.5920  168.6390  143.3190 C   0  0  0  0  0  2  0  0  0  0  0  0
  193.4000  169.7640  144.3210 C   0  0  0  0  0  2  0  0  0  0  0  0
  194.6240  169.9470  145.2190 C   0  0  2  0  0  3  0  0  0  0  0  0
  196.2460  168.2950  145.9830 N   0  0  0  0  0  1  0  0  0  0  0  0
  194.5910  169.0350  147.4310 O   0  0  0  0  0  1  0  0  0  0  0  0
  194.8630  168.7220  146.0980 C   0  0  1  0  0  3  0  0  0  0  0  0
  194.4880  171.0970  146.0020 O   0  0  0  0  0  0  0  0  0  0  0  0
  194.8470  172.1500  145.1550 C   0  0  0  0  0  2  0  0  0  0  0  0
  194.4220  173.4800  145.7590 C   0  0  0  0  0  2  0  0  0  0  0  0
  194.4430  174.5850  144.7130 C   0  0  2  0  0  3  0  0  0  0  0  0
  194.1610  173.9750  143.3390 C   0  0  0  0  0  2  0  0  0  0  0  0
  195.8410  176.3660  143.6220 C   0  0  0  0  0  2  0  0  0  0  0  0
  195.5530  175.7510  142.2530 C   0  0  2  0  0  3  0  0  0  0  0  0
  195.8060  175.2840  144.7010 C   0  0  0  0  0  2  0  0  0  0  0  0
  195.5620  176.7520  141.2820 O   0  0  0  0  0  1  0  0  0  0  0  0
  194.1910  175.0600  142.2640 C   0  0  0  0  0  2  0  0  0  0  0  0
  194.6810  169.6350  137.5400 C   0  0  0  0  0  2  0  0  0  0  0  0
  194.7430  170.8570  135.5960 O   0  0  0  0  0  0  0  0  0  0  0  0
  197.2690  169.4260  136.5160 C   0  0  0  0  0  1  0  0  0  0  0  0
  195.2140  170.8260  136.8740 N   0  0  0  0  0  0  0  0  0  0  0  0
  196.6670  170.8130  136.7480 C   0  0  0  0  0  0  0  0  0  0  0  0
  195.5580  171.7310  134.9300 N   0  0  0  0  0  2  0  0  0  0  0  0
  197.3110  171.4890  137.9410 C   0  0  0  0  0  1  0  0  0  0  0  0
  196.8810  171.6180  135.5190 C   0  0  0  0  0  2  0  0  0  0  0  0
  189.7940  171.9910  141.0730 C   0  0  0  0  0  2  0  0  0  0  0  0
  188.7250  173.0410  140.7810 C   0  0  0  0  0  2  0  0  0  0  0  0
  189.3040  174.4430  140.9000 C   0  0  0  0  0  2  0  0  0  0  0  0
  189.4050  174.8790  142.3280 C   0  0  0  0  0  0  0  0  0  0  0  0
  190.4070  174.4030  143.0780 C   0  0  0  0  0  3  0  0  0  0  0  0
  190.2240  173.9230  145.4970 O   0  0  0  0  0  0  0  0  0  0  0  0
  191.2690  175.7770  144.9510 N   0  0  0  0  0  0  0  0  0  0  0  0
  191.8180  176.5240  147.2730 C   0  0  0  0  0  1  0  0  0  0  0  0
  190.5770  174.4540  146.6270 N   0  0  0  0  0  0  0  0  0  0  0  0
  190.6200  174.6850  144.5070 C   0  0  0  0  0  0  0  0  0  0  0  0
  191.2120  175.5890  146.2850 C   0  0  0  0  0  0  0  0  0  0  0  0
  186.9510  175.3220  142.4280 C   0  0  0  0  0  2  0  0  0  0  0  0
  188.3320  175.7590  142.8970 C   0  0  2  0  0  3  0  0  0  0  0  0
  186.7860  177.6770  142.4210 C   0  0  1  0  0  3  0  0  0  0  0  0
  188.5630  177.4990  142.4050 S   0  0  0  0  0  0  0  0  0  0  0  0
  186.1020  176.5420  142.4730 C   0  0  0  0  0  2  0  0  0  0  0  0
  186.1350  179.0140  142.5890 C   0  0  0  0  0  2  0  0  0  0  0  0
  186.2100  179.0380  144.9580 C   0  0  0  0  0  3  0  0  0  0  0  0
  185.5090  179.1280  143.8850 N   0  0  0  0  0  0  0  0  0  0  0  0
  185.5740  179.1730  146.3120 C   0  0  0  0  0  2  0  0  0  0  0  0
  186.8360  177.1270  146.8230 N   0  0  0  0  0  1  0  0  0  0  0  0
  185.6260  177.8790  147.1220 C   0  0  1  0  0  3  0  0  0  0  0  0
  185.5610  178.1550  148.4900 O   0  0  0  0  0  1  0  0  0  0  0  0
  2  8  1  1  0  0  0
  2  3  1  0  0  0  0
  2  5  1  0  0  0  0
  3  9  1  1  0  0  0
  3  6  1  0  0  0  0
  4  1  1  0  0  0  0
  4 38  1  1  0  0  0
  5  4  1  0  0  0  0
  6  1  1  0  0  0  0
  7  8  1  0  0  0  0
  9 30  1  6  0  0  0
 10 11  1  0  0  0  0
 11 13  1  1  0  0  0
 12  9  1  6  0  0  0
 12 10  1  0  0  0  0
 12 11  1  0  0  0  0
 13 14  1  0  0  0  0
 14 15  1  0  0  0  0
 16 15  1  1  0  0  0
 16 20  1  0  0  0  0
 16 19  1  0  0  0  0
 19 17  1  1  0  0  0
 19 18  1  0  0  0  0
 21 22  1  0  0  0  0
 21 20  1  0  0  0  0
 23 22  1  1  0  0  0
 24 23  1  0  0  0  0
 25 27  1  0  0  0  0
 26 28  1  6  0  0  0
 26 29  1  0  0  0  0
 26 25  1  0  0  0  0
 27 23  1  0  0  0  0
 29 24  1  0  0  0  0
 31 33  1  0  0  0  0
 32 34  1  0  0  0  0
 33 30  1  0  0  0  0
 34 33  1  0  0  0  0
 34 36  1  0  0  0  0
 35 37  1  0  0  0  0
 35 31  1  0  0  0  0
 37 34  1  0  0  0  0
 39 40  1  0  0  0  0
 39 38  1  0  0  0  0
 40 41  1  0  0  0  0
 41 42  2  0  0  0  0
 42 47  1  0  0  0  0
 43 46  1  0  0  0  0
 44 48  1  0  0  0  0
 47 44  2  0  0  0  0
 47 43  1  0  0  0  0
 48 46  2  0  0  0  0
 48 45  1  0  0  0  0
 49 53  1  0  0  0  0
 49 50  1  0  0  0  0
 50 41  1  6  0  0  0
 51 53  1  0  0  0  0
 51 54  1  1  0  0  0
 52 51  1  0  0  0  0
 52 50  1  0  0  0  0
 54 56  1  0  0  0  0
 55 57  1  0  0  0  0
 56 55  2  0  0  0  0
 57 59  1  0  0  0  0
 59 58  1  1  0  0  0
 59 60  1  0  0  0  0
M  END
>  <MODEL>
9

>  <REMARK>
 VINA RESULT:      -4.5      2.723      9.843
  Name = 
  24 active torsions:
  status: ('A' for Active; 'I' for Inactive)
    1  A    between atoms: C_2  and  C_16
    2  A    between atoms: C_2  and  O_24
    3  A    between atoms: C_2  and  C_48
    4  A    between atoms: C_5  and  C_25
    5  A    between atoms: C_7  and  C_29
    6  A    between atoms: C_7  and  C_35
    7  A    between atoms: C_10  and  C_12
    8  A    between atoms: C_10  and  C_50
    9  A    between atoms: C_14  and  C_27
   10  A    between atoms: C_14  and  C_30
   11  A    between atoms: C_15  and  C_25
   12  A    between atoms: C_16  and  C_27
   13  A    between atoms: C_17  and  C_23
   14  A    between atoms: C_17  and  C_39
   15  A    between atoms: C_17  and  C_59
   16  A    between atoms: C_18  and  C_19
   17  A    between atoms: C_18  and  C_40
   18  A    between atoms: C_19  and  C_35
   19  A    between atoms: C_21  and  C_60
   20  A    between atoms: O_24  and  C_50
   21  A    between atoms: N_34  and  C_55
   22  A    between atoms: N_36  and  C_39
   23  A    between atoms: C_37  and  C_44
   24  A    between atoms: C_41  and  C_55
                            x       y       z     vdW  Elec       q    Type
                         _______ _______ _______ _____ _____    ______ ____

>  <TORSDO>
F 24

$$$$
