=
 OpenBabel11072408453D

 36 42  0  0  1  0  0  0  0  0999 V2000
  195.1190  170.4990  143.6520 C   0  0  0  0  0  3  0  0  0  0  0  0
  193.2550  171.9350  143.0610 C   0  0  0  0  0  0  0  0  0  0  0  0
  186.4790  178.8580  144.5820 C   0  0  0  0  0  3  0  0  0  0  0  0
  194.0430  171.7930  145.4400 C   0  0  0  0  0  3  0  0  0  0  0  0
  189.5010  174.6050  141.7490 C   0  0  0  0  0  0  0  0  0  0  0  0
  189.3370  175.2660  143.0390 C   0  0  0  0  0  0  0  0  0  0  0  0
  188.5410  174.0510  141.0910 N   0  0  0  0  0  0  0  0  0  0  0  0
  185.1550  178.6280  143.9760 C   0  0  0  0  0  3  0  0  0  0  0  0
  188.3240  176.0680  143.2500 C   0  0  0  0  0  0  0  0  0  0  0  0
  191.4660  174.0200  143.6980 C   0  0  0  0  0  0  0  0  0  0  0  0
  189.7380  175.3920  147.6860 O   0  0  0  0  0  1  0  0  0  0  0  0
  191.5880  173.5400  142.4290 C   0  0  0  0  0  0  0  0  0  0  0  0
  192.9120  172.1680  144.5100 C   0  0  0  0  0  0  0  0  0  0  0  0
  190.4740  173.2060  140.2540 N   0  0  0  0  0  0  0  0  0  0  0  0
  192.3960  173.5310  144.6930 N   0  0  0  0  0  0  0  0  0  0  0  0
  187.4970  178.0330  144.3430 C   0  0  0  0  0  3  0  0  0  0  0  0
  195.0350  170.9870  145.0440 C   0  0  0  0  0  3  0  0  0  0  0  0
  190.8310  174.1630  141.2890 C   0  0  1  0  0  3  0  0  0  0  0  0
  192.8300  174.3610  145.8260 C   0  0  2  0  0  3  0  0  0  0  0  0
  191.7660  174.4100  146.9230 C   0  0  0  0  0  2  0  0  0  0  0  0
  190.4220  175.0770  144.0790 C   0  0  2  0  0  3  0  0  0  0  0  0
  184.9170  177.5610  143.2080 C   0  0  0  0  0  3  0  0  0  0  0  0
  194.2910  170.9550  142.7090 C   0  0  0  0  0  2  0  0  0  0  0  0
  189.1850  173.1980  140.1500 C   0  0  0  0  0  3  0  0  0  0  0  0
  190.5690  175.2880  146.5710 C   0  0  1  0  0  3  0  0  0  0  0  0
  192.5940  172.5560  142.1310 N   0  0  0  0  0  0  0  0  0  0  0  0
  187.3170  176.8640  143.4700 C   0  0  0  0  0  0  0  0  0  0  0  0
  185.9590  176.5070  142.9280 C   0  0  0  0  0  2  0  0  0  0  0  0
  189.7780  174.7050  145.4130 C   0  0  0  0  0  2  0  0  0  0  0  0
  195.2720  177.1540  144.5790 C   0  0  0  0  0  1  0  0  0  0  0  0
  193.9620  176.3910  146.4440 O   0  0  0  0  0  0  0  0  0  0  0  0
  193.2800  175.7590  145.3830 C   0  0  1  0  0  3  0  0  0  0  0  0
  194.7520  175.9660  145.3620 C   0  0  1  0  0  0  0  0  0  0  0  0
  195.7320  174.8870  145.7950 C   0  0  0  0  0  2  0  0  0  0  0  0
  197.5480  173.7840  145.1990 C   0  0  0  0  0  1  0  0  0  0  0  0
  196.3990  174.3790  144.6790 O   0  0  0  0  0  0  0  0  0  0  0  0
  1 17  2  0  0  0  0
  2 13  1  0  0  0  0
  5  6  1  0  0  0  0
  6  9  2  0  0  0  0
  6 21  1  0  0  0  0
  7  5  2  0  0  0  0
  8  3  1  0  0  0  0
  9 27  2  0  0  0  0
 10 21  1  0  0  0  0
 10 15  1  0  0  0  0
 12 10  2  0  0  0  0
 13 15  1  0  0  0  0
 13  4  2  0  0  0  0
 15 19  1  0  0  0  0
 16  3  2  0  0  0  0
 17  4  1  0  0  0  0
 18 14  1  6  0  0  0
 18  5  1  0  0  0  0
 18 12  1  0  0  0  0
 19 20  1  1  0  0  0
 21 29  1  1  0  0  0
 22  8  2  0  0  0  0
 23  2  1  0  0  0  0
 23  1  1  0  0  0  0
 24 14  2  0  0  0  0
 24  7  1  0  0  0  0
 25 20  1  0  0  0  0
 25 11  1  1  0  0  0
 26 12  1  0  0  0  0
 26  2  2  0  0  0  0
 27 16  1  0  0  0  0
 28 22  1  0  0  0  0
 28 27  1  0  0  0  0
 29 25  1  0  0  0  0
 32 19  1  0  0  0  0
 32 31  1  1  0  0  0
 33 30  1  6  0  0  0
 33 32  1  0  0  0  0
 33 34  1  0  0  0  0
 33 31  1  0  0  0  0
 36 35  1  0  0  0  0
 36 34  1  0  0  0  0
M  END
>  <MODEL>
1

>  <REMARK>
 VINA RESULT:      -7.7      0.000      0.000
  Name = 
  3 active torsions:
  status: ('A' for Active; 'I' for Inactive)
    1  A    between atoms: C_3  and  O_20
    2  A    between atoms: C_3  and  C_30
    3  A    between atoms: C_24  and  C_25
                            x       y       z     vdW  Elec       q    Type
                         _______ _______ _______ _____ _____    ______ ____

>  <TORSDO>
F 3

$$$$
=
 OpenBabel11072408453D

 36 42  0  0  1  0  0  0  0  0999 V2000
  187.5160  177.0900  141.5150 C   0  0  0  0  0  3  0  0  0  0  0  0
  189.0820  175.2850  141.9320 C   0  0  0  0  0  0  0  0  0  0  0  0
  196.8150  170.9610  146.1360 C   0  0  0  0  0  3  0  0  0  0  0  0
  189.5140  177.5790  142.8550 C   0  0  0  0  0  3  0  0  0  0  0  0
  192.1430  171.6500  142.5390 C   0  0  0  0  0  0  0  0  0  0  0  0
  193.0100  172.3490  143.4810 C   0  0  0  0  0  0  0  0  0  0  0  0
  192.5640  171.0090  141.5030 N   0  0  0  0  0  0  0  0  0  0  0  0
  197.6300  170.0860  145.2740 C   0  0  0  0  0  3  0  0  0  0  0  0
  194.1190  171.7940  143.8990 C   0  0  0  0  0  0  0  0  0  0  0  0
  191.2800  174.2210  143.3450 C   0  0  0  0  0  0  0  0  0  0  0  0
  194.9040  176.2350  145.2370 O   0  0  0  0  0  1  0  0  0  0  0  0
  190.4880  173.4430  142.5550 C   0  0  0  0  0  0  0  0  0  0  0  0
  190.1090  176.2390  142.4870 C   0  0  0  0  0  0  0  0  0  0  0  0
  190.3540  171.4090  141.1660 N   0  0  0  0  0  0  0  0  0  0  0  0
  190.8700  175.5910  143.5630 N   0  0  0  0  0  0  0  0  0  0  0  0
  195.6840  171.5070  145.6900 C   0  0  0  0  0  3  0  0  0  0  0  0
  188.3350  177.9780  142.3650 C   0  0  0  0  0  3  0  0  0  0  0  0
  190.7020  171.9570  142.4680 C   0  0  1  0  0  3  0  0  0  0  0  0
  191.1760  176.3050  144.8120 C   0  0  2  0  0  3  0  0  0  0  0  0
  192.6260  176.7910  144.8380 C   0  0  0  0  0  2  0  0  0  0  0  0
  192.5400  173.6790  144.0320 C   0  0  2  0  0  3  0  0  0  0  0  0
  197.2890  169.8480  144.0050 C   0  0  0  0  0  3  0  0  0  0  0  0
  187.8560  175.8140  141.3200 C   0  0  0  0  0  2  0  0  0  0  0  0
  191.4160  170.8570  140.6740 C   0  0  0  0  0  3  0  0  0  0  0  0
  193.6380  175.6740  145.0760 C   0  0  1  0  0  3  0  0  0  0  0  0
  189.3130  174.0060  141.9450 N   0  0  0  0  0  0  0  0  0  0  0  0
  195.2270  171.2490  144.3170 C   0  0  0  0  0  0  0  0  0  0  0  0
  196.0790  170.4700  143.3520 C   0  0  0  0  0  2  0  0  0  0  0  0
  193.6690  174.7000  143.9120 C   0  0  0  0  0  2  0  0  0  0  0  0
  188.9080  174.8240  147.6370 C   0  0  0  0  0  1  0  0  0  0  0  0
  190.7150  176.3380  147.1720 O   0  0  0  0  0  0  0  0  0  0  0  0
  190.8110  175.4830  146.0540 C   0  0  1  0  0  3  0  0  0  0  0  0
  189.5040  175.8290  146.6720 C   0  0  1  0  0  0  0  0  0  0  0  0
  188.6220  176.9480  146.1400 C   0  0  0  0  0  2  0  0  0  0  0  0
  186.5390  177.4560  145.6200 C   0  0  0  0  0  1  0  0  0  0  0  0
  187.4590  176.4090  145.5870 O   0  0  0  0  0  0  0  0  0  0  0  0
  1 17  2  0  0  0  0
  2 26  2  0  0  0  0
  2 13  1  0  0  0  0
  5  6  1  0  0  0  0
  6  9  2  0  0  0  0
  6 21  1  0  0  0  0
  7  5  2  0  0  0  0
  8  3  1  0  0  0  0
  9 27  2  0  0  0  0
 10 15  1  0  0  0  0
 10 21  1  0  0  0  0
 12 10  2  0  0  0  0
 13  4  2  0  0  0  0
 13 15  1  0  0  0  0
 15 19  1  0  0  0  0
 16  3  2  0  0  0  0
 17  4  1  0  0  0  0
 18 14  1  6  0  0  0
 18  5  1  0  0  0  0
 18 12  1  0  0  0  0
 19 20  1  1  0  0  0
 19 32  1  0  0  0  0
 20 25  1  0  0  0  0
 21 29  1  6  0  0  0
 22  8  2  0  0  0  0
 23  1  1  0  0  0  0
 23  2  1  0  0  0  0
 24 14  2  0  0  0  0
 24  7  1  0  0  0  0
 25 11  1  6  0  0  0
 26 12  1  0  0  0  0
 27 16  1  0  0  0  0
 28 22  1  0  0  0  0
 28 27  1  0  0  0  0
 29 25  1  0  0  0  0
 32 33  1  0  0  0  0
 32 31  1  1  0  0  0
 33 31  1  0  0  0  0
 33 30  1  1  0  0  0
 34 33  1  0  0  0  0
 36 35  1  0  0  0  0
 36 34  1  0  0  0  0
M  END
>  <MODEL>
2

>  <REMARK>
 VINA RESULT:      -7.5      1.758      7.411
  Name = 
  3 active torsions:
  status: ('A' for Active; 'I' for Inactive)
    1  A    between atoms: C_3  and  O_20
    2  A    between atoms: C_3  and  C_30
    3  A    between atoms: C_24  and  C_25
                            x       y       z     vdW  Elec       q    Type
                         _______ _______ _______ _____ _____    ______ ____

>  <TORSDO>
F 3

$$$$
=
 OpenBabel11072408453D

 36 42  0  0  1  0  0  0  0  0999 V2000
  192.0040  176.3700  147.2590 C   0  0  0  0  0  3  0  0  0  0  0  0
  189.6870  176.7590  146.6540 C   0  0  0  0  0  0  0  0  0  0  0  0
  182.1340  177.9240  140.5100 C   0  0  0  0  0  3  0  0  0  0  0  0
  191.4780  176.7740  144.8950 C   0  0  0  0  0  3  0  0  0  0  0  0
  185.0890  177.6510  145.6520 C   0  0  0  0  0  0  0  0  0  0  0  0
  185.2560  177.6490  144.2020 C   0  0  0  0  0  0  0  0  0  0  0  0
  184.4750  178.5740  146.3100 N   0  0  0  0  0  0  0  0  0  0  0  0
  181.1270  178.9320  140.8880 C   0  0  0  0  0  3  0  0  0  0  0  0
  184.2550  177.9640  143.4190 C   0  0  0  0  0  0  0  0  0  0  0  0
  187.6620  176.9580  144.7010 C   0  0  0  0  0  0  0  0  0  0  0  0
  187.8010  178.2910  140.3450 O   0  0  0  0  0  1  0  0  0  0  0  0
  187.3740  176.8840  146.0300 C   0  0  0  0  0  0  0  0  0  0  0  0
  190.0730  177.1920  145.2630 C   0  0  1  0  0  3  0  0  0  0  0  0
  185.7620  177.4530  147.8080 N   0  0  0  0  0  0  0  0  0  0  0  0
  189.0410  176.7780  144.3020 N   0  0  0  0  0  0  0  0  0  0  0  0
  183.1370  177.6130  141.3290 C   0  0  0  0  0  3  0  0  0  0  0  0
  192.3740  176.4380  145.8300 C   0  0  0  0  0  3  0  0  0  0  0  0
  185.9510  176.8190  146.5120 C   0  0  1  0  0  3  0  0  0  0  0  0
  189.4040  176.1860  143.0060 C   0  0  2  0  0  3  0  0  0  0  0  0
  189.2650  177.2000  141.8690 C   0  0  0  0  0  2  0  0  0  0  0  0
  186.5780  177.1760  143.6370 C   0  0  2  0  0  3  0  0  0  0  0  0
  181.2120  179.6020  142.0410 C   0  0  0  0  0  3  0  0  0  0  0  0
  190.7360  176.5050  147.6510 C   0  0  0  0  0  3  0  0  0  0  0  0
  184.9010  178.4080  147.6580 C   0  0  0  0  0  3  0  0  0  0  0  0
  187.8160  177.4830  141.4810 C   0  0  1  0  0  3  0  0  0  0  0  0
  188.4330  176.6680  146.9800 N   0  0  0  0  0  0  0  0  0  0  0  0
  183.2650  178.2800  142.6330 C   0  0  0  0  0  0  0  0  0  0  0  0
  182.3440  179.4060  143.0180 C   0  0  0  0  0  2  0  0  0  0  0  0
  187.0710  178.1860  142.6020 C   0  0  0  0  0  2  0  0  0  0  0  0
  188.7140  172.3340  142.9490 C   0  0  0  0  0  1  0  0  0  0  0  0
  189.1840  174.2580  141.5860 O   0  0  0  0  0  0  0  0  0  0  0  0
  188.6410  174.8860  142.7280 C   0  0  1  0  0  3  0  0  0  0  0  0
  189.4590  173.6470  142.8230 C   0  0  1  0  0  0  0  0  0  0  0  0
  190.9490  173.6770  143.1240 C   0  0  0  0  0  2  0  0  0  0  0  0
  192.5290  172.9370  144.4750 C   0  0  0  0  0  1  0  0  0  0  0  0
  191.1740  173.2610  144.4370 O   0  0  0  0  0  0  0  0  0  0  0  0
  1 23  2  0  0  0  0
  2 26  2  0  0  0  0
  2 23  1  0  0  0  0
  3  8  1  0  0  0  0
  3 16  2  0  0  0  0
  4 17  2  0  0  0  0
  5  7  2  0  0  0  0
  6  5  1  0  0  0  0
  7 24  1  0  0  0  0
  8 22  2  0  0  0  0
  9  6  2  0  0  0  0
 10 12  2  0  0  0  0
 12 18  1  0  0  0  0
 12 26  1  0  0  0  0
 13  4  1  6  0  0  0
 13  2  1  0  0  0  0
 15 10  1  0  0  0  0
 15 13  1  0  0  0  0
 16 27  1  0  0  0  0
 17  1  1  0  0  0  0
 18  5  1  6  0  0  0
 18 14  1  0  0  0  0
 19 20  1  6  0  0  0
 19 15  1  0  0  0  0
 21 29  1  6  0  0  0
 21  6  1  0  0  0  0
 21 10  1  0  0  0  0
 22 28  1  0  0  0  0
 24 14  2  0  0  0  0
 25 11  1  6  0  0  0
 25 20  1  0  0  0  0
 25 29  1  0  0  0  0
 27 28  1  0  0  0  0
 27  9  2  0  0  0  0
 31 33  1  0  0  0  0
 32 31  1  6  0  0  0
 32 33  1  0  0  0  0
 32 19  1  0  0  0  0
 33 30  1  1  0  0  0
 33 34  1  0  0  0  0
 34 36  1  0  0  0  0
 36 35  1  0  0  0  0
M  END
>  <MODEL>
3

>  <REMARK>
 VINA RESULT:      -7.3      3.541      6.394
  Name = 
  3 active torsions:
  status: ('A' for Active; 'I' for Inactive)
    1  A    between atoms: C_3  and  O_20
    2  A    between atoms: C_3  and  C_30
    3  A    between atoms: C_24  and  C_25
                            x       y       z     vdW  Elec       q    Type
                         _______ _______ _______ _____ _____    ______ ____

>  <TORSDO>
F 3

$$$$
=
 OpenBabel11072408453D

 36 42  0  0  1  0  0  0  0  0999 V2000
  190.4410  175.2910  147.8340 C   0  0  0  0  0  3  0  0  0  0  0  0
  191.9000  175.4140  145.8990 C   0  0  0  0  0  0  0  0  0  0  0  0
  194.3120  174.3910  136.4490 C   0  0  0  0  0  3  0  0  0  0  0  0
  189.6910  174.2310  145.7500 C   0  0  0  0  0  3  0  0  0  0  0  0
  194.9610  175.6240  142.2200 C   0  0  0  0  0  0  0  0  0  0  0  0
  194.0450  175.0500  141.2400 C   0  0  0  0  0  0  0  0  0  0  0  0
  196.1760  175.2300  142.3970 N   0  0  0  0  0  0  0  0  0  0  0  0
  195.6840  173.9360  136.1660 C   0  0  0  0  0  3  0  0  0  0  0  0
  194.4560  174.7840  140.0260 C   0  0  0  0  0  0  0  0  0  0  0  0
  192.3260  175.1280  143.1260 C   0  0  0  0  0  0  0  0  0  0  0  0
  190.4440  172.3280  140.0630 O   0  0  0  0  0  1  0  0  0  0  0  0
  193.2250  175.7620  143.9300 C   0  0  0  0  0  0  0  0  0  0  0  0
  191.0650  174.4120  145.1450 C   0  0  1  0  0  3  0  0  0  0  0  0
  195.5890  176.3830  144.2620 N   0  0  0  0  0  0  0  0  0  0  0  0
  191.0640  174.7340  143.7110 N   0  0  0  0  0  0  0  0  0  0  0  0
  193.9210  174.6650  137.6930 C   0  0  0  0  0  3  0  0  0  0  0  0
  189.4280  174.6020  147.0080 C   0  0  0  0  0  3  0  0  0  0  0  0
  194.4520  176.4160  143.3560 C   0  0  1  0  0  3  0  0  0  0  0  0
  189.8250  174.6780  142.9220 C   0  0  2  0  0  3  0  0  0  0  0  0
  189.7620  173.4110  142.0680 C   0  0  0  0  0  2  0  0  0  0  0  0
  192.5950  174.8700  141.6380 C   0  0  2  0  0  3  0  0  0  0  0  0
  196.5690  173.7380  137.1470 C   0  0  0  0  0  3  0  0  0  0  0  0
  191.6030  175.6900  147.3110 C   0  0  0  0  0  3  0  0  0  0  0  0
  196.5450  175.7400  143.6730 C   0  0  0  0  0  3  0  0  0  0  0  0
  190.6870  173.4490  140.8540 C   0  0  1  0  0  3  0  0  0  0  0  0
  192.9120  175.9840  145.3170 N   0  0  0  0  0  0  0  0  0  0  0  0
  194.8570  174.5130  138.8160 C   0  0  0  0  0  0  0  0  0  0  0  0
  196.2290  173.9300  138.6050 C   0  0  0  0  0  2  0  0  0  0  0  0
  192.1460  173.4570  141.2720 C   0  0  0  0  0  2  0  0  0  0  0  0
  188.5580  178.2910  142.1070 C   0  0  0  0  0  1  0  0  0  0  0  0
  188.2880  175.9600  141.5870 O   0  0  0  0  0  0  0  0  0  0  0  0
  189.6040  175.9520  142.0970 C   0  0  1  0  0  3  0  0  0  0  0  0
  188.5580  176.8670  142.6270 C   0  0  1  0  0  0  0  0  0  0  0  0
  187.7370  176.5370  143.8630 C   0  0  0  0  0  2  0  0  0  0  0  0
  187.0670  177.3020  145.8210 C   0  0  0  0  0  1  0  0  0  0  0  0
  188.1320  177.3540  144.9230 O   0  0  0  0  0  0  0  0  0  0  0  0
  2 23  1  0  0  0  0
  3 16  2  0  0  0  0
  4 17  2  0  0  0  0
  5  7  2  0  0  0  0
  6 21  1  0  0  0  0
  6  5  1  0  0  0  0
  7 24  1  0  0  0  0
  8  3  1  0  0  0  0
  8 22  2  0  0  0  0
  9  6  2  0  0  0  0
 10 15  1  0  0  0  0
 10 12  2  0  0  0  0
 12 26  1  0  0  0  0
 13  4  1  1  0  0  0
 13  2  1  0  0  0  0
 15 13  1  0  0  0  0
 16 27  1  0  0  0  0
 17  1  1  0  0  0  0
 18  5  1  6  0  0  0
 18 12  1  0  0  0  0
 18 14  1  0  0  0  0
 19 20  1  6  0  0  0
 19 15  1  0  0  0  0
 21 29  1  1  0  0  0
 21 10  1  0  0  0  0
 22 28  1  0  0  0  0
 23  1  2  0  0  0  0
 24 14  2  0  0  0  0
 25 11  1  6  0  0  0
 25 29  1  0  0  0  0
 25 20  1  0  0  0  0
 26  2  2  0  0  0  0
 27  9  2  0  0  0  0
 28 27  1  0  0  0  0
 31 33  1  0  0  0  0
 32 31  1  6  0  0  0
 32 33  1  0  0  0  0
 32 19  1  0  0  0  0
 33 30  1  6  0  0  0
 33 34  1  0  0  0  0
 34 36  1  0  0  0  0
 36 35  1  0  0  0  0
M  END
>  <MODEL>
4

>  <REMARK>
 VINA RESULT:      -7.2      3.501      7.539
  Name = 
  3 active torsions:
  status: ('A' for Active; 'I' for Inactive)
    1  A    between atoms: C_3  and  O_20
    2  A    between atoms: C_3  and  C_30
    3  A    between atoms: C_24  and  C_25
                            x       y       z     vdW  Elec       q    Type
                         _______ _______ _______ _____ _____    ______ ____

>  <TORSDO>
F 3

$$$$
=
 OpenBabel11072408453D

 36 42  0  0  1  0  0  0  0  0999 V2000
  196.3120  175.4960  143.9540 C   0  0  0  0  0  3  0  0  0  0  0  0
  194.2440  175.9730  145.1310 C   0  0  0  0  0  0  0  0  0  0  0  0
  184.5580  177.2140  146.0280 C   0  0  0  0  0  3  0  0  0  0  0  0
  194.2700  175.8070  142.6260 C   0  0  0  0  0  3  0  0  0  0  0  0
  190.2810  177.0490  147.5980 C   0  0  0  0  0  0  0  0  0  0  0  0
  189.3760  176.9660  146.4570 C   0  0  0  0  0  0  0  0  0  0  0  0
  190.3130  178.0350  148.4290 N   0  0  0  0  0  0  0  0  0  0  0  0
  184.1130  178.2910  146.9310 C   0  0  0  0  0  3  0  0  0  0  0  0
  188.1150  177.2920  146.5860 C   0  0  0  0  0  0  0  0  0  0  0  0
  191.4310  176.1780  145.1640 C   0  0  0  0  0  0  0  0  0  0  0  0
  188.4540  177.2800  141.8940 O   0  0  0  0  0  1  0  0  0  0  0  0
  192.1660  176.1860  146.3110 C   0  0  0  0  0  0  0  0  0  0  0  0
  193.5350  176.3140  143.8460 C   0  0  1  0  0  3  0  0  0  0  0  0
  192.2800  176.9260  148.6610 N   0  0  0  0  0  0  0  0  0  0  0  0
  192.1250  175.9060  143.9240 N   0  0  0  0  0  0  0  0  0  0  0  0
  185.8470  176.8940  145.9220 C   0  0  0  0  0  3  0  0  0  0  0  0
  195.5640  175.4730  142.6800 C   0  0  0  0  0  3  0  0  0  0  0  0
  191.4990  176.2190  147.6580 C   0  0  1  0  0  3  0  0  0  0  0  0
  191.4670  175.2320  142.7960 C   0  0  2  0  0  3  0  0  0  0  0  0
  190.5660  176.1930  142.0180 C   0  0  0  0  0  2  0  0  0  0  0  0
  189.9130  176.3970  145.1600 C   0  0  2  0  0  3  0  0  0  0  0  0
  184.9880  179.0130  147.6370 C   0  0  0  0  0  3  0  0  0  0  0  0
  195.6900  175.7160  145.1150 C   0  0  0  0  0  3  0  0  0  0  0  0
  191.5660  177.9160  149.0920 C   0  0  0  0  0  3  0  0  0  0  0  0
  189.2670  176.5300  142.7430 C   0  0  1  0  0  3  0  0  0  0  0  0
  193.5860  175.9640  146.2510 N   0  0  0  0  0  0  0  0  0  0  0  0
  186.8590  177.6180  146.7050 C   0  0  0  0  0  0  0  0  0  0  0  0
  186.4800  178.8090  147.5440 C   0  0  0  0  0  2  0  0  0  0  0  0
  189.5320  177.3260  144.0090 C   0  0  0  0  0  2  0  0  0  0  0  0
  191.0240  171.5250  143.9690 C   0  0  0  0  0  1  0  0  0  0  0  0
  190.6750  173.0550  142.1490 O   0  0  0  0  0  0  0  0  0  0  0  0
  190.7290  173.9600  143.2300 C   0  0  1  0  0  3  0  0  0  0  0  0
  191.5480  172.7190  143.1990 C   0  0  1  0  0  0  0  0  0  0  0  0
  192.9920  172.7090  142.7220 C   0  0  0  0  0  2  0  0  0  0  0  0
  194.9500  171.8780  143.3090 C   0  0  0  0  0  1  0  0  0  0  0  0
  193.8480  172.5660  143.8150 O   0  0  0  0  0  0  0  0  0  0  0  0
  1 23  2  0  0  0  0
  2 26  2  0  0  0  0
  3  8  1  0  0  0  0
  4 17  2  0  0  0  0
  5 18  1  0  0  0  0
  5  7  2  0  0  0  0
  6  9  2  0  0  0  0
  6  5  1  0  0  0  0
  7 24  1  0  0  0  0
  8 22  2  0  0  0  0
  9 27  2  0  0  0  0
 10 12  2  0  0  0  0
 13  4  1  6  0  0  0
 13 15  1  0  0  0  0
 13  2  1  0  0  0  0
 14 24  2  0  0  0  0
 15 10  1  0  0  0  0
 16  3  2  0  0  0  0
 16 27  1  0  0  0  0
 17  1  1  0  0  0  0
 18 12  1  6  0  0  0
 18 14  1  0  0  0  0
 19 20  1  1  0  0  0
 19 32  1  0  0  0  0
 19 15  1  0  0  0  0
 20 25  1  0  0  0  0
 21 29  1  6  0  0  0
 21 10  1  0  0  0  0
 21  6  1  0  0  0  0
 23  2  1  0  0  0  0
 25 11  1  6  0  0  0
 25 29  1  0  0  0  0
 26 12  1  0  0  0  0
 27 28  1  0  0  0  0
 28 22  1  0  0  0  0
 31 33  1  0  0  0  0
 32 31  1  6  0  0  0
 33 32  1  0  0  0  0
 33 30  1  1  0  0  0
 34 33  1  0  0  0  0
 34 36  1  0  0  0  0
 35 36  1  0  0  0  0
M  END
>  <MODEL>
5

>  <REMARK>
 VINA RESULT:      -7.1      2.878      5.175
  Name = 
  3 active torsions:
  status: ('A' for Active; 'I' for Inactive)
    1  A    between atoms: C_3  and  O_20
    2  A    between atoms: C_3  and  C_30
    3  A    between atoms: C_24  and  C_25
                            x       y       z     vdW  Elec       q    Type
                         _______ _______ _______ _____ _____    ______ ____

>  <TORSDO>
F 3

$$$$
=
 OpenBabel11072408453D

 36 42  0  0  1  0  0  0  0  0999 V2000
  194.1900  176.8760  146.5240 C   0  0  0  0  0  3  0  0  0  0  0  0
  194.0120  176.0270  144.2580 C   0  0  0  0  0  0  0  0  0  0  0  0
  189.7010  171.3920  136.7690 C   0  0  0  0  0  3  0  0  0  0  0  0
  192.3310  175.3610  146.0000 C   0  0  0  0  0  3  0  0  0  0  0  0
  193.8900  174.3290  139.7810 C   0  0  0  0  0  0  0  0  0  0  0  0
  192.5970  173.6670  139.9150 C   0  0  0  0  0  0  0  0  0  0  0  0
  194.9460  173.7690  139.2970 N   0  0  0  0  0  0  0  0  0  0  0  0
  190.5780  170.5870  135.9010 C   0  0  0  0  0  3  0  0  0  0  0  0
  192.1270  172.9260  138.9430 C   0  0  0  0  0  0  0  0  0  0  0  0
  192.5340  174.7400  142.2300 C   0  0  0  0  0  0  0  0  0  0  0  0
  189.2960  171.5400  142.4340 O   0  0  0  0  0  1  0  0  0  0  0  0
  193.6950  175.4010  141.9650 C   0  0  0  0  0  0  0  0  0  0  0  0
  192.9550  175.0320  144.6630 C   0  0  1  0  0  3  0  0  0  0  0  0
  195.6510  175.5800  140.4720 N   0  0  0  0  0  0  0  0  0  0  0  0
  191.9940  174.8440  143.5680 N   0  0  0  0  0  0  0  0  0  0  0  0
  190.2040  172.1460  137.7460 C   0  0  0  0  0  3  0  0  0  0  0  0
  192.9330  176.1820  146.8680 C   0  0  0  0  0  3  0  0  0  0  0  0
  194.1990  175.5460  140.5550 C   0  0  1  0  0  3  0  0  0  0  0  0
  190.5480  174.7910  143.8290 C   0  0  2  0  0  3  0  0  0  0  0  0
  190.0250  173.3540  143.7880 C   0  0  0  0  0  2  0  0  0  0  0  0
  191.7780  173.9450  141.1580 C   0  0  2  0  0  3  0  0  0  0  0  0
  191.9000  170.5480  136.0900 C   0  0  0  0  0  3  0  0  0  0  0  0
  194.6960  176.8190  145.2900 C   0  0  0  0  0  3  0  0  0  0  0  0
  196.0260  174.5880  139.7300 C   0  0  0  0  0  3  0  0  0  0  0  0
  189.9230  172.7830  142.3770 C   0  0  1  0  0  3  0  0  0  0  0  0
  194.3540  176.1380  143.0100 N   0  0  0  0  0  0  0  0  0  0  0  0
  191.6550  172.1850  137.9810 C   0  0  0  0  0  0  0  0  0  0  0  0
  192.5870  171.2880  137.2120 C   0  0  0  0  0  2  0  0  0  0  0  0
  191.2950  172.6210  141.7460 C   0  0  0  0  0  2  0  0  0  0  0  0
  188.6420  178.0280  142.7300 C   0  0  0  0  0  1  0  0  0  0  0  0
  188.3930  175.6980  143.2680 O   0  0  0  0  0  0  0  0  0  0  0  0
  189.7570  175.7280  142.9080 C   0  0  1  0  0  3  0  0  0  0  0  0
  189.0970  176.8700  143.5950 C   0  0  1  0  0  0  0  0  0  0  0  0
  189.1630  177.0610  145.1020 C   0  0  0  0  0  2  0  0  0  0  0  0
  187.5540  176.6240  146.5480 C   0  0  0  0  0  1  0  0  0  0  0  0
  187.9390  177.5410  145.5700 O   0  0  0  0  0  0  0  0  0  0  0  0
  1 17  1  0  0  0  0
  2 13  1  0  0  0  0
  2 23  1  0  0  0  0
  3 16  2  0  0  0  0
  4 17  2  0  0  0  0
  5  6  1  0  0  0  0
  6 21  1  0  0  0  0
  7 24  1  0  0  0  0
  7  5  2  0  0  0  0
  8 22  2  0  0  0  0
  8  3  1  0  0  0  0
  9  6  2  0  0  0  0
 10 15  1  0  0  0  0
 12 10  2  0  0  0  0
 12 26  1  0  0  0  0
 13  4  1  1  0  0  0
 14 18  1  0  0  0  0
 15 19  1  0  0  0  0
 15 13  1  0  0  0  0
 16 27  1  0  0  0  0
 18  5  1  6  0  0  0
 18 12  1  0  0  0  0
 19 20  1  6  0  0  0
 21 29  1  1  0  0  0
 21 10  1  0  0  0  0
 22 28  1  0  0  0  0
 23  1  2  0  0  0  0
 24 14  2  0  0  0  0
 25 11  1  1  0  0  0
 25 20  1  0  0  0  0
 26  2  2  0  0  0  0
 27  9  2  0  0  0  0
 28 27  1  0  0  0  0
 29 25  1  0  0  0  0
 31 33  1  0  0  0  0
 32 31  1  1  0  0  0
 32 33  1  0  0  0  0
 32 19  1  0  0  0  0
 33 30  1  6  0  0  0
 33 34  1  0  0  0  0
 34 36  1  0  0  0  0
 36 35  1  0  0  0  0
M  END
>  <MODEL>
6

>  <REMARK>
 VINA RESULT:      -7.0      3.142      6.731
  Name = 
  3 active torsions:
  status: ('A' for Active; 'I' for Inactive)
    1  A    between atoms: C_3  and  O_20
    2  A    between atoms: C_3  and  C_30
    3  A    between atoms: C_24  and  C_25
                            x       y       z     vdW  Elec       q    Type
                         _______ _______ _______ _____ _____    ______ ____

>  <TORSDO>
F 3

$$$$
=
 OpenBabel11072408453D

 36 42  0  0  1  0  0  0  0  0999 V2000
  194.8950  169.7150  141.7710 C   0  0  0  0  0  3  0  0  0  0  0  0
  193.0270  171.2490  141.5740 C   0  0  0  0  0  0  0  0  0  0  0  0
  187.1230  178.5460  144.4150 C   0  0  0  0  0  3  0  0  0  0  0  0
  194.3040  171.0740  143.7280 C   0  0  0  0  0  3  0  0  0  0  0  0
  189.2260  174.1200  141.0640 C   0  0  0  0  0  0  0  0  0  0  0  0
  189.3820  174.7940  142.3480 C   0  0  0  0  0  0  0  0  0  0  0  0
  188.1170  173.6170  140.6390 N   0  0  0  0  0  0  0  0  0  0  0  0
  185.6890  178.3870  144.1150 C   0  0  0  0  0  3  0  0  0  0  0  0
  188.4840  175.6520  142.7610 C   0  0  0  0  0  0  0  0  0  0  0  0
  191.5340  173.4340  142.5510 C   0  0  0  0  0  0  0  0  0  0  0  0
  190.7880  174.9160  146.7950 O   0  0  0  0  0  1  0  0  0  0  0  0
  191.3510  172.9430  141.2930 C   0  0  0  0  0  0  0  0  0  0  0  0
  193.0200  171.5070  143.0600 C   0  0  0  0  0  0  0  0  0  0  0  0
  189.7750  172.6620  139.4170 N   0  0  0  0  0  0  0  0  0  0  0  0
  192.6300  172.8980  143.3280 N   0  0  0  0  0  0  0  0  0  0  0  0
  188.0200  177.6640  143.9750 C   0  0  0  0  0  3  0  0  0  0  0  0
  195.1410  170.2120  143.1400 C   0  0  0  0  0  3  0  0  0  0  0  0
  190.3990  173.6020  140.3340 C   0  0  1  0  0  3  0  0  0  0  0  0
  193.3430  173.7070  144.3260 C   0  0  2  0  0  3  0  0  0  0  0  0
  192.5470  173.8200  145.6280 C   0  0  0  0  0  2  0  0  0  0  0  0
  190.6550  174.5490  143.1320 C   0  0  2  0  0  3  0  0  0  0  0  0
  185.2330  177.3320  143.4330 C   0  0  0  0  0  3  0  0  0  0  0  0
  193.9080  170.2120  141.0230 C   0  0  0  0  0  2  0  0  0  0  0  0
  188.4950  172.7260  139.5950 C   0  0  0  0  0  3  0  0  0  0  0  0
  191.3500  174.7620  145.5290 C   0  0  1  0  0  3  0  0  0  0  0  0
  192.2140  171.9030  140.8000 N   0  0  0  0  0  0  0  0  0  0  0  0
  187.5920  176.5040  143.1800 C   0  0  0  0  0  0  0  0  0  0  0  0
  186.1310  176.2200  142.9510 C   0  0  0  0  0  2  0  0  0  0  0  0
  190.2970  174.2190  144.5800 C   0  0  0  0  0  2  0  0  0  0  0  0
  195.6580  176.3890  142.6630 C   0  0  0  0  0  1  0  0  0  0  0  0
  194.5880  175.7280  144.7120 O   0  0  0  0  0  0  0  0  0  0  0  0
  193.7600  175.0760  143.7740 C   0  0  1  0  0  3  0  0  0  0  0  0
  195.2210  175.2430  143.5530 C   0  0  1  0  0  0  0  0  0  0  0  0
  196.2260  174.1560  143.8980 C   0  0  0  0  0  2  0  0  0  0  0  0
  197.0630  173.6050  145.8630 C   0  0  0  0  0  1  0  0  0  0  0  0
  197.0880  174.6100  144.8970 O   0  0  0  0  0  0  0  0  0  0  0  0
  1 17  2  0  0  0  0
  2 13  1  0  0  0  0
  5  6  1  0  0  0  0
  6  9  2  0  0  0  0
  6 21  1  0  0  0  0
  7  5  2  0  0  0  0
  8  3  1  0  0  0  0
  9 27  2  0  0  0  0
 10 21  1  0  0  0  0
 10 15  1  0  0  0  0
 12 10  2  0  0  0  0
 13 15  1  0  0  0  0
 13  4  2  0  0  0  0
 14 24  2  0  0  0  0
 15 19  1  0  0  0  0
 16  3  2  0  0  0  0
 17  4  1  0  0  0  0
 18 14  1  6  0  0  0
 18  5  1  0  0  0  0
 18 12  1  0  0  0  0
 19 20  1  1  0  0  0
 21 29  1  1  0  0  0
 22  8  2  0  0  0  0
 23  2  1  0  0  0  0
 23  1  1  0  0  0  0
 24  7  1  0  0  0  0
 25 20  1  0  0  0  0
 25 11  1  1  0  0  0
 26 12  1  0  0  0  0
 26  2  2  0  0  0  0
 27 16  1  0  0  0  0
 28 27  1  0  0  0  0
 28 22  1  0  0  0  0
 29 25  1  0  0  0  0
 32 19  1  0  0  0  0
 32 31  1  1  0  0  0
 33 30  1  6  0  0  0
 33 32  1  0  0  0  0
 33 34  1  0  0  0  0
 33 31  1  0  0  0  0
 34 36  1  0  0  0  0
 36 35  1  0  0  0  0
M  END
>  <MODEL>
7

>  <REMARK>
 VINA RESULT:      -6.9      1.225      1.400
  Name = 
  3 active torsions:
  status: ('A' for Active; 'I' for Inactive)
    1  A    between atoms: C_3  and  O_20
    2  A    between atoms: C_3  and  C_30
    3  A    between atoms: C_24  and  C_25
                            x       y       z     vdW  Elec       q    Type
                         _______ _______ _______ _____ _____    ______ ____

>  <TORSDO>
F 3

$$$$
=
 OpenBabel11072408453D

 36 42  0  0  1  0  0  0  0  0999 V2000
  189.0550  172.6490  137.5200 C   0  0  0  0  0  3  0  0  0  0  0  0
  188.3220  174.2790  139.1600 C   0  0  0  0  0  0  0  0  0  0  0  0
  188.0060  178.5570  147.9780 C   0  0  0  0  0  3  0  0  0  0  0  0
  189.6890  172.2950  139.8650 C   0  0  0  0  0  3  0  0  0  0  0  0
  186.6740  177.5100  142.2890 C   0  0  0  0  0  0  0  0  0  0  0  0
  187.4160  176.9930  143.4330 C   0  0  0  0  0  0  0  0  0  0  0  0
  185.4120  177.7770  142.3030 N   0  0  0  0  0  0  0  0  0  0  0  0
  186.6900  179.0440  148.4270 C   0  0  0  0  0  3  0  0  0  0  0  0
  187.2270  177.4930  144.6280 C   0  0  0  0  0  0  0  0  0  0  0  0
  188.4760  175.3980  141.7440 C   0  0  0  0  0  0  0  0  0  0  0  0
  189.4940  173.5350  145.7770 O   0  0  0  0  0  1  0  0  0  0  0  0
  187.8170  176.0220  140.7290 C   0  0  0  0  0  0  0  0  0  0  0  0
  188.7450  173.3910  140.3020 C   0  0  0  0  0  0  0  0  0  0  0  0
  186.0130  177.5900  140.1210 N   0  0  0  0  0  0  0  0  0  0  0  0
  189.2320  174.2070  141.4220 N   0  0  0  0  0  0  0  0  0  0  0  0
  188.1750  178.0600  146.7540 C   0  0  0  0  0  3  0  0  0  0  0  0
  189.7910  171.9320  138.5810 C   0  0  0  0  0  3  0  0  0  0  0  0
  187.2110  177.3850  140.9200 C   0  0  1  0  0  3  0  0  0  0  0  0
  190.4480  173.8350  142.1600 C   0  0  2  0  0  3  0  0  0  0  0  0
  190.1110  173.1910  143.5060 C   0  0  0  0  0  2  0  0  0  0  0  0
  188.4760  175.9410  143.1790 C   0  0  2  0  0  3  0  0  0  0  0  0
  185.6130  178.9630  147.6400 C   0  0  0  0  0  3  0  0  0  0  0  0
  188.3730  173.7650  137.7850 C   0  0  0  0  0  2  0  0  0  0  0  0
  185.0360  177.8410  140.9320 C   0  0  0  0  0  3  0  0  0  0  0  0
  189.6250  174.1890  144.5530 C   0  0  1  0  0  3  0  0  0  0  0  0
  187.8620  175.4700  139.4010 N   0  0  0  0  0  0  0  0  0  0  0  0
  187.0420  177.9840  145.8200 C   0  0  0  0  0  0  0  0  0  0  0  0
  185.6500  178.3470  146.2640 C   0  0  0  0  0  2  0  0  0  0  0  0
  188.2850  174.7890  144.1640 C   0  0  0  0  0  2  0  0  0  0  0  0
  193.7270  175.9030  141.6230 C   0  0  0  0  0  1  0  0  0  0  0  0
  192.4300  174.6750  143.2310 O   0  0  0  0  0  0  0  0  0  0  0  0
  191.4240  175.0090  142.3010 C   0  0  1  0  0  3  0  0  0  0  0  0
  192.8200  174.7170  141.8810 C   0  0  1  0  0  0  0  0  0  0  0  0
  193.2530  173.3420  141.3970 C   0  0  0  0  0  2  0  0  0  0  0  0
  193.3660  171.4170  142.4700 C   0  0  0  0  0  1  0  0  0  0  0  0
  193.9480  172.6830  142.4120 O   0  0  0  0  0  0  0  0  0  0  0  0
  1 23  1  0  0  0  0
  1 17  2  0  0  0  0
  2 26  2  0  0  0  0
  2 13  1  0  0  0  0
  3  8  1  0  0  0  0
  4 13  2  0  0  0  0
  5  7  2  0  0  0  0
  5  6  1  0  0  0  0
  6  9  2  0  0  0  0
  9 27  2  0  0  0  0
 10 21  1  0  0  0  0
 12 18  1  0  0  0  0
 12 10  2  0  0  0  0
 13 15  1  0  0  0  0
 14 24  2  0  0  0  0
 15 10  1  0  0  0  0
 15 19  1  0  0  0  0
 16  3  2  0  0  0  0
 17  4  1  0  0  0  0
 18 14  1  6  0  0  0
 18  5  1  0  0  0  0
 19 32  1  0  0  0  0
 19 20  1  1  0  0  0
 20 25  1  0  0  0  0
 21  6  1  0  0  0  0
 21 29  1  1  0  0  0
 22  8  2  0  0  0  0
 23  2  1  0  0  0  0
 24  7  1  0  0  0  0
 25 11  1  1  0  0  0
 26 12  1  0  0  0  0
 27 28  1  0  0  0  0
 27 16  1  0  0  0  0
 28 22  1  0  0  0  0
 29 25  1  0  0  0  0
 32 31  1  1  0  0  0
 33 30  1  6  0  0  0
 33 32  1  0  0  0  0
 33 31  1  0  0  0  0
 34 33  1  0  0  0  0
 34 36  1  0  0  0  0
 36 35  1  0  0  0  0
M  END
>  <MODEL>
8

>  <REMARK>
 VINA RESULT:      -6.6      2.666      4.936
  Name = 
  3 active torsions:
  status: ('A' for Active; 'I' for Inactive)
    1  A    between atoms: C_3  and  O_20
    2  A    between atoms: C_3  and  C_30
    3  A    between atoms: C_24  and  C_25
                            x       y       z     vdW  Elec       q    Type
                         _______ _______ _______ _____ _____    ______ ____

>  <TORSDO>
F 3

$$$$
=
 OpenBabel11072408453D

 36 42  0  0  1  0  0  0  0  0999 V2000
  189.0420  177.4990  144.7670 C   0  0  0  0  0  3  0  0  0  0  0  0
  189.5290  175.8070  143.0980 C   0  0  0  0  0  0  0  0  0  0  0  0
  195.2680  170.4420  137.2290 C   0  0  0  0  0  3  0  0  0  0  0  0
  191.3180  177.3980  143.8540 C   0  0  0  0  0  3  0  0  0  0  0  0
  190.2850  172.5060  139.7100 C   0  0  0  0  0  0  0  0  0  0  0  0
  191.7260  172.7160  139.6250 C   0  0  0  0  0  0  0  0  0  0  0  0
  189.4960  172.4670  138.6910 N   0  0  0  0  0  0  0  0  0  0  0  0
  194.7360  170.1350  135.8890 C   0  0  0  0  0  3  0  0  0  0  0  0
  192.4350  172.0920  138.7190 C   0  0  0  0  0  0  0  0  0  0  0  0
  191.3860  174.3220  141.5800 C   0  0  0  0  0  0  0  0  0  0  0  0
  195.5340  175.3830  140.0200 O   0  0  0  0  0  1  0  0  0  0  0  0
  190.0700  173.9760  141.6470 C   0  0  0  0  0  0  0  0  0  0  0  0
  190.8620  176.4350  142.7810 C   0  0  1  0  0  3  0  0  0  0  0  0
  188.1910  172.8530  140.5080 N   0  0  0  0  0  0  0  0  0  0  0  0
  191.8410  175.3940  142.4380 N   0  0  0  0  0  0  0  0  0  0  0  0
  194.5230  171.0700  138.1380 C   0  0  0  0  0  3  0  0  0  0  0  0
  190.4590  177.9160  144.7380 C   0  0  0  0  0  3  0  0  0  0  0  0
  189.5630  172.7280  140.9770 C   0  0  1  0  0  3  0  0  0  0  0  0
  193.2120  175.4380  142.9680 C   0  0  2  0  0  3  0  0  0  0  0  0
  194.2030  175.9330  141.9130 C   0  0  0  0  0  2  0  0  0  0  0  0
  192.3830  173.5890  140.6740 C   0  0  2  0  0  3  0  0  0  0  0  0
  193.5080  170.5160  135.5240 C   0  0  0  0  0  3  0  0  0  0  0  0
  188.6020  176.4950  144.0060 C   0  0  0  0  0  3  0  0  0  0  0  0
  188.1930  172.6660  139.2280 C   0  0  0  0  0  3  0  0  0  0  0  0
  194.5130  174.8980  140.8360 C   0  0  1  0  0  3  0  0  0  0  0  0
  189.1840  174.6950  142.5230 N   0  0  0  0  0  0  0  0  0  0  0  0
  193.1470  171.4770  137.8180 C   0  0  0  0  0  0  0  0  0  0  0  0
  192.5950  171.3060  136.4280 C   0  0  0  0  0  2  0  0  0  0  0  0
  193.2910  174.6050  139.9830 C   0  0  0  0  0  2  0  0  0  0  0  0
  193.7260  172.7430  145.7590 C   0  0  0  0  0  1  0  0  0  0  0  0
  194.8520  174.2720  144.2850 O   0  0  0  0  0  0  0  0  0  0  0  0
  193.6360  174.1010  143.5890 C   0  0  1  0  0  3  0  0  0  0  0  0
  193.7010  174.0940  145.0740 C   0  0  1  0  0  0  0  0  0  0  0  0
  193.4170  175.3340  145.9070 C   0  0  0  0  0  2  0  0  0  0  0  0
  194.5660  177.2040  146.1380 C   0  0  0  0  0  1  0  0  0  0  0  0
  194.6110  175.8400  146.4230 O   0  0  0  0  0  0  0  0  0  0  0  0
  2 23  1  0  0  0  0
  3 16  2  0  0  0  0
  4 17  2  0  0  0  0
  6  5  1  0  0  0  0
  6 21  1  0  0  0  0
  7 24  1  0  0  0  0
  7  5  2  0  0  0  0
  8  3  1  0  0  0  0
  9  6  2  0  0  0  0
 10 12  2  0  0  0  0
 10 15  1  0  0  0  0
 12 26  1  0  0  0  0
 13  2  1  0  0  0  0
 13  4  1  1  0  0  0
 14 18  1  0  0  0  0
 15 13  1  0  0  0  0
 15 19  1  0  0  0  0
 17  1  1  0  0  0  0
 18  5  1  6  0  0  0
 18 12  1  0  0  0  0
 19 20  1  6  0  0  0
 19 32  1  0  0  0  0
 21 29  1  6  0  0  0
 21 10  1  0  0  0  0
 22  8  2  0  0  0  0
 22 28  1  0  0  0  0
 23  1  2  0  0  0  0
 24 14  2  0  0  0  0
 25 11  1  6  0  0  0
 25 20  1  0  0  0  0
 26  2  2  0  0  0  0
 27 16  1  0  0  0  0
 27  9  2  0  0  0  0
 28 27  1  0  0  0  0
 29 25  1  0  0  0  0
 31 33  1  0  0  0  0
 32 31  1  6  0  0  0
 32 33  1  0  0  0  0
 33 30  1  1  0  0  0
 33 34  1  0  0  0  0
 34 36  1  0  0  0  0
 35 36  1  0  0  0  0
M  END
>  <MODEL>
9

>  <REMARK>
 VINA RESULT:      -6.4      3.079      6.947
  Name = 
  3 active torsions:
  status: ('A' for Active; 'I' for Inactive)
    1  A    between atoms: C_3  and  O_20
    2  A    between atoms: C_3  and  C_30
    3  A    between atoms: C_24  and  C_25
                            x       y       z     vdW  Elec       q    Type
                         _______ _______ _______ _____ _____    ______ ____

>  <TORSDO>
F 3

$$$$
