=
 OpenBabel11072408563D

 45 50  0  0  1  0  0  0  0  0999 V2000
  188.9700  176.9490  145.2420 C   0  0  0  0  0  0  0  0  0  0  0  0
  193.2240  174.5340  146.4410 C   0  0  0  0  0  3  0  0  0  0  0  0
  193.3970  174.9170  144.9890 C   0  0  1  0  0  3  0  0  0  0  0  0
  191.0060  179.0860  143.7120 O   0  0  0  0  0  1  0  0  0  0  0  0
  191.0450  175.6480  146.5470 C   0  0  0  0  0  0  0  0  0  0  0  0
  193.0220  176.7040  144.8030 S   0  0  0  0  0  0  0  0  0  0  0  0
  190.2950  177.0600  144.7100 C   0  0  0  0  0  0  0  0  0  0  0  0
  192.1240  174.8420  147.1350 C   0  0  0  0  0  3  0  0  0  0  0  0
  189.7950  175.5610  147.0400 C   0  0  0  0  0  3  0  0  0  0  0  0
  190.2760  177.9170  143.4980 C   0  0  1  0  0  0  0  0  0  0  0  0
  188.7250  176.2290  146.4130 O   0  0  0  0  0  0  0  0  0  0  0  0
  188.7670  178.2560  143.3470 C   0  0  2  0  0  3  0  0  0  0  0  0
  188.0840  177.6000  144.5190 C   0  0  0  0  0  3  0  0  0  0  0  0
  191.3220  176.4780  145.3390 C   0  0  0  0  0  0  0  0  0  0  0  0
  190.7870  177.2280  142.4080 F   0  0  0  0  0  0  0  0  0  0  0  0
  188.2140  177.7280  142.1060 N   0  0  0  0  0  2  0  0  0  0  0  0
  185.5790  177.5350  142.0410 S   0  0  0  0  0  0  0  0  0  0  0  0
  187.0750  176.8660  142.0780 C   0  0  0  0  0  0  0  0  0  0  0  0
  187.2530  175.4440  142.0640 N   0  0  0  0  0  2  0  0  0  0  0  0
  190.0220  172.3520  141.1020 C   0  0  0  0  0  2  0  0  0  0  0  0
  188.9260  173.8270  142.8200 C   0  0  0  0  0  2  0  0  0  0  0  0
  188.4970  174.7850  141.6970 C   0  0  1  0  0  3  0  0  0  0  0  0
  188.3420  174.0900  140.3420 C   0  0  0  0  0  2  0  0  0  0  0  0
  189.1420  172.3870  142.3520 C   0  0  0  0  0  2  0  0  0  0  0  0
  189.5160  173.2630  140.0700 N   0  0  0  0  0  0  0  0  0  0  0  0
  189.6770  174.0690  137.8800 O   0  0  0  0  0  0  0  0  0  0  0  0
  191.3200  172.4600  138.4580 C   0  0  0  0  0  1  0  0  0  0  0  0
  190.1330  173.3070  138.7740 C   0  0  0  0  0  0  0  0  0  0  0  0
  194.7450  174.5700  144.5090 N   0  0  0  0  0  0  0  0  0  0  0  0
  196.5710  170.5150  145.8250 C   0  0  0  0  0  2  0  0  0  0  0  0
  194.8930  172.1140  144.7050 C   0  0  2  0  0  0  0  0  0  0  0  0
  196.3140  172.6230  144.5970 C   0  0  1  0  0  3  0  0  0  0  0  0
  195.2610  173.4620  145.3270 C   0  0  1  0  0  3  0  0  0  0  0  0
  194.7730  170.7110  145.8620 S   0  0  0  0  0  0  0  0  0  0  0  0
  197.1670  171.8890  145.6140 C   0  0  0  0  0  2  0  0  0  0  0  0
  194.2200  172.0360  143.3270 C   0  0  1  0  0  3  0  0  0  0  0  0
  195.1340  171.4020  142.2900 C   0  0  0  0  0  1  0  0  0  0  0  0
  192.7200  170.3200  142.6410 O   0  0  0  0  0  0  0  0  0  0  0  0
  192.9040  171.3290  143.3700 C   0  0  0  0  0  0  0  0  0  0  0  0
  191.8640  171.7710  144.2380 N   0  0  0  0  0  1  0  0  0  0  0  0
  195.5980  175.7370  144.7510 C   0  0  0  0  0  2  0  0  0  0  0  0
  196.4760  176.0100  143.5400 C   0  0  0  0  0  2  0  0  0  0  0  0
  195.7210  175.7080  142.2560 C   0  0  0  0  0  2  0  0  0  0  0  0
  196.5390  174.7930  141.3620 C   0  0  0  0  0  2  0  0  0  0  0  0
  197.9400  174.6230  141.9180 C   0  0  0  0  0  1  0  0  0  0  0  0
  1 11  1  0  0  0  0
  2  8  2  0  0  0  0
  3 29  1  1  0  0  0
  3  2  1  0  0  0  0
  5  9  2  0  0  0  0
  5  8  1  0  0  0  0
  6  3  1  0  0  0  0
  6 14  1  0  0  0  0
  7  1  1  0  0  0  0
  7 14  2  0  0  0  0
 10 15  1  6  0  0  0
 10  4  1  0  0  0  0
 10  7  1  0  0  0  0
 11  9  1  0  0  0  0
 12 16  1  6  0  0  0
 12 10  1  0  0  0  0
 12 13  1  0  0  0  0
 13  1  2  0  0  0  0
 14  5  1  0  0  0  0
 17 18  2  0  0  0  0
 18 16  1  0  0  0  0
 19 18  1  0  0  0  0
 20 24  1  0  0  0  0
 22 19  1  1  0  0  0
 22 21  1  0  0  0  0
 23 22  1  0  0  0  0
 24 21  1  0  0  0  0
 25 23  1  0  0  0  0
 25 20  1  0  0  0  0
 26 28  2  0  0  0  0
 27 28  1  0  0  0  0
 28 25  1  0  0  0  0
 29 41  1  0  0  0  0
 30 34  1  0  0  0  0
 31 36  1  6  0  0  0
 31 33  1  0  0  0  0
 31 34  1  0  0  0  0
 32 31  1  0  0  0  0
 32 33  1  0  0  0  0
 32 35  1  1  0  0  0
 33 29  1  6  0  0  0
 35 30  1  0  0  0  0
 36 37  1  6  0  0  0
 36 39  1  0  0  0  0
 38 39  2  0  0  0  0
 39 40  1  0  0  0  0
 42 41  1  0  0  0  0
 43 42  1  0  0  0  0
 44 45  1  0  0  0  0
 44 43  1  0  0  0  0
M  END
>  <MODEL>
1

>  <REMARK>
 VINA RESULT:      -6.5      0.000      0.000
  Name = 
  12 active torsions:
  status: ('A' for Active; 'I' for Inactive)
    1  A    between atoms: C_1  and  C_35
    2  A    between atoms: C_1  and  N_45
    3  A    between atoms: C_5  and  N_45
    4  A    between atoms: C_10  and  C_24
    5  A    between atoms: N_12  and  C_23
    6  A    between atoms: N_12  and  C_32
    7  A    between atoms: C_13  and  N_14
    8  A    between atoms: N_14  and  C_23
    9  A    between atoms: C_18  and  C_33
   10  A    between atoms: C_24  and  C_35
   11  A    between atoms: C_30  and  N_45
   12  A    between atoms: C_33  and  C_38
                            x       y       z     vdW  Elec       q    Type
                         _______ _______ _______ _____ _____    ______ ____

>  <TORSDO>
F 12

$$$$
=
 OpenBabel11072408563D

 45 50  0  0  1  0  0  0  0  0999 V2000
  190.3130  176.6390  146.7750 C   0  0  0  0  0  0  0  0  0  0  0  0
  193.7860  173.8650  144.4050 C   0  0  0  0  0  3  0  0  0  0  0  0
  192.7650  174.1950  143.3400 C   0  0  1  0  0  3  0  0  0  0  0  0
  190.4490  178.5380  144.0500 O   0  0  0  0  0  1  0  0  0  0  0  0
  192.5680  175.1810  146.0750 C   0  0  0  0  0  0  0  0  0  0  0  0
  192.4570  176.0040  143.3590 S   0  0  0  0  0  0  0  0  0  0  0  0
  190.7170  176.6120  145.4020 C   0  0  0  0  0  0  0  0  0  0  0  0
  193.6650  174.2920  145.6660 C   0  0  0  0  0  3  0  0  0  0  0  0
  192.1810  175.2240  147.3650 C   0  0  0  0  0  3  0  0  0  0  0  0
  189.7850  177.4370  144.5920 C   0  0  1  0  0  0  0  0  0  0  0  0
  191.0550  175.9740  147.7540 O   0  0  0  0  0  0  0  0  0  0  0  0
  188.7490  177.9130  145.6480 C   0  0  2  0  0  3  0  0  0  0  0  0
  189.2230  177.3530  146.9630 C   0  0  0  0  0  3  0  0  0  0  0  0
  191.8220  175.9520  145.0390 C   0  0  0  0  0  0  0  0  0  0  0  0
  189.2170  176.6780  143.5810 F   0  0  0  0  0  0  0  0  0  0  0  0
  187.4110  177.4090  145.3610 N   0  0  0  0  0  2  0  0  0  0  0  0
  185.2530  177.7120  146.8550 S   0  0  0  0  0  0  0  0  0  0  0  0
  186.2320  178.1700  145.6220 C   0  0  0  0  0  0  0  0  0  0  0  0
  185.9300  179.3230  144.8240 N   0  0  0  0  0  2  0  0  0  0  0  0
  184.9560  177.7380  140.9910 C   0  0  0  0  0  2  0  0  0  0  0  0
  186.6280  178.8100  142.5370 C   0  0  0  0  0  2  0  0  0  0  0  0
  185.4720  179.2580  143.4450 C   0  0  1  0  0  3  0  0  0  0  0  0
  184.2420  178.3540  143.3430 C   0  0  0  0  0  2  0  0  0  0  0  0
  186.3040  177.5740  141.6930 C   0  0  0  0  0  2  0  0  0  0  0  0
  183.9050  178.1270  141.9390 N   0  0  0  0  0  0  0  0  0  0  0  0
  181.6360  178.5360  142.3310 O   0  0  0  0  0  0  0  0  0  0  0  0
  182.1620  177.9850  140.0860 C   0  0  0  0  0  1  0  0  0  0  0  0
  182.5400  178.2310  141.5090 C   0  0  0  0  0  0  0  0  0  0  0  0
  193.2070  173.7120  142.0210 N   0  0  0  0  0  0  0  0  0  0  0  0
  191.6370  169.5940  140.5760 C   0  0  0  0  0  2  0  0  0  0  0  0
  191.5110  172.0380  141.3750 C   0  0  2  0  0  0  0  0  0  0  0  0
  192.7140  171.7960  140.4890 C   0  0  1  0  0  3  0  0  0  0  0  0
  192.9170  172.2730  141.9300 C   0  0  1  0  0  3  0  0  0  0  0  0
  190.7160  170.4710  141.8620 S   0  0  0  0  0  0  0  0  0  0  0  0
  192.9630  170.3020  140.4120 C   0  0  0  0  0  2  0  0  0  0  0  0
  190.6600  173.2060  140.8570 C   0  0  1  0  0  3  0  0  0  0  0  0
  190.4590  173.1320  139.3520 C   0  0  0  0  0  1  0  0  0  0  0  0
  189.3080  173.7100  142.7510 O   0  0  0  0  0  0  0  0  0  0  0  0
  189.3440  173.3120  141.5580 C   0  0  0  0  0  0  0  0  0  0  0  0
  188.1300  172.9860  140.8870 N   0  0  0  0  0  1  0  0  0  0  0  0
  194.6620  173.8780  141.9700 C   0  0  0  0  0  2  0  0  0  0  0  0
  195.0620  174.6470  140.7200 C   0  0  0  0  0  2  0  0  0  0  0  0
  196.2510  175.5480  141.0080 C   0  0  0  0  0  2  0  0  0  0  0  0
  195.9560  176.4540  142.1900 C   0  0  0  0  0  2  0  0  0  0  0  0
  197.1970  176.6280  143.0460 C   0  0  0  0  0  1  0  0  0  0  0  0
  1 13  2  0  0  0  0
  1 11  1  0  0  0  0
  2  8  2  0  0  0  0
  3 29  1  6  0  0  0
  3  6  1  0  0  0  0
  3  2  1  0  0  0  0
  4 10  1  0  0  0  0
  5  9  2  0  0  0  0
  6 14  1  0  0  0  0
  7  1  1  0  0  0  0
  8  5  1  0  0  0  0
  9 11  1  0  0  0  0
 10 15  1  6  0  0  0
 10  7  1  0  0  0  0
 10 12  1  0  0  0  0
 12 16  1  6  0  0  0
 12 13  1  0  0  0  0
 14  7  2  0  0  0  0
 14  5  1  0  0  0  0
 16 18  1  0  0  0  0
 18 17  2  0  0  0  0
 19 18  1  0  0  0  0
 20 24  1  0  0  0  0
 20 25  1  0  0  0  0
 21 22  1  0  0  0  0
 22 19  1  1  0  0  0
 23 22  1  0  0  0  0
 24 21  1  0  0  0  0
 25 23  1  0  0  0  0
 27 28  1  0  0  0  0
 28 25  1  0  0  0  0
 28 26  2  0  0  0  0
 30 34  1  0  0  0  0
 31 36  1  6  0  0  0
 31 34  1  0  0  0  0
 31 33  1  0  0  0  0
 32 35  1  1  0  0  0
 32 31  1  0  0  0  0
 32 33  1  0  0  0  0
 33 29  1  6  0  0  0
 35 30  1  0  0  0  0
 36 37  1  6  0  0  0
 36 39  1  0  0  0  0
 39 38  2  0  0  0  0
 40 39  1  0  0  0  0
 41 29  1  0  0  0  0
 42 43  1  0  0  0  0
 42 41  1  0  0  0  0
 43 44  1  0  0  0  0
 44 45  1  0  0  0  0
M  END
>  <MODEL>
2

>  <REMARK>
 VINA RESULT:      -6.4      2.869      4.874
  Name = 
  12 active torsions:
  status: ('A' for Active; 'I' for Inactive)
    1  A    between atoms: C_1  and  C_35
    2  A    between atoms: C_1  and  N_45
    3  A    between atoms: C_5  and  N_45
    4  A    between atoms: C_10  and  C_24
    5  A    between atoms: N_12  and  C_23
    6  A    between atoms: N_12  and  C_32
    7  A    between atoms: C_13  and  N_14
    8  A    between atoms: N_14  and  C_23
    9  A    between atoms: C_18  and  C_33
   10  A    between atoms: C_24  and  C_35
   11  A    between atoms: C_30  and  N_45
   12  A    between atoms: C_33  and  C_38
                            x       y       z     vdW  Elec       q    Type
                         _______ _______ _______ _____ _____    ______ ____

>  <TORSDO>
F 12

$$$$
=
 OpenBabel11072408563D

 45 50  0  0  1  0  0  0  0  0999 V2000
  194.6830  175.0180  145.4090 C   0  0  0  0  0  0  0  0  0  0  0  0
  190.2350  176.7950  146.9670 C   0  0  0  0  0  3  0  0  0  0  0  0
  189.9080  175.9450  145.7600 C   0  0  1  0  0  3  0  0  0  0  0  0
  193.0420  172.1480  145.0640 O   0  0  0  0  0  1  0  0  0  0  0  0
  192.6130  176.2270  146.8060 C   0  0  0  0  0  0  0  0  0  0  0  0
  190.7020  174.3030  145.9630 S   0  0  0  0  0  0  0  0  0  0  0  0
  193.3610  174.4840  145.2790 C   0  0  0  0  0  0  0  0  0  0  0  0
  191.4850  176.9470  147.4140 C   0  0  0  0  0  3  0  0  0  0  0  0
  193.8640  176.7120  146.9250 C   0  0  0  0  0  3  0  0  0  0  0  0
  193.3840  173.3100  144.3710 C   0  0  1  0  0  0  0  0  0  0  0  0
  194.9390  176.1060  146.2470 O   0  0  0  0  0  0  0  0  0  0  0  0
  194.8750  173.2460  143.9380 C   0  0  2  0  0  3  0  0  0  0  0  0
  195.5620  174.3610  144.6820 C   0  0  0  0  0  3  0  0  0  0  0  0
  192.3500  175.0200  145.9710 C   0  0  0  0  0  0  0  0  0  0  0  0
  192.5190  173.5020  143.3060 F   0  0  0  0  0  0  0  0  0  0  0  0
  195.0320  173.4520  142.5030 N   0  0  0  0  0  2  0  0  0  0  0  0
  196.2540  172.6420  140.3050 S   0  0  0  0  0  0  0  0  0  0  0  0
  195.2780  172.3780  141.5950 C   0  0  0  0  0  0  0  0  0  0  0  0
  194.6910  171.0910  141.8310 N   0  0  0  0  0  2  0  0  0  0  0  0
  190.5180  170.7800  141.0320 C   0  0  0  0  0  2  0  0  0  0  0  0
  192.5450  170.0230  142.3160 C   0  0  0  0  0  2  0  0  0  0  0  0
  193.4400  170.6480  141.2350 C   0  0  1  0  0  3  0  0  0  0  0  0
  192.7700  171.8110  140.4980 C   0  0  0  0  0  2  0  0  0  0  0  0
  191.1590  170.6650  142.4150 C   0  0  0  0  0  2  0  0  0  0  0  0
  191.4260  171.4240  140.0750 N   0  0  0  0  0  0  0  0  0  0  0  0
  191.7550  172.3070  137.9350 O   0  0  0  0  0  0  0  0  0  0  0  0
  189.6090  171.3630  138.2890 C   0  0  0  0  0  1  0  0  0  0  0  0
  190.9830  171.7270  138.7440 C   0  0  0  0  0  0  0  0  0  0  0  0
  188.4510  175.8480  145.5640 N   0  0  0  0  0  0  0  0  0  0  0  0
  186.7810  178.1240  141.8850 C   0  0  0  0  0  2  0  0  0  0  0  0
  188.3240  176.5340  143.1970 C   0  0  2  0  0  0  0  0  0  0  0  0
  186.9000  176.4880  143.7080 C   0  0  1  0  0  3  0  0  0  0  0  0
  188.0300  176.9180  144.6480 C   0  0  1  0  0  3  0  0  0  0  0  0
  188.5720  177.9220  142.0410 S   0  0  0  0  0  0  0  0  0  0  0  0
  186.1670  177.7170  143.2050 C   0  0  0  0  0  2  0  0  0  0  0  0
  188.8350  175.1320  142.8370 C   0  0  1  0  0  3  0  0  0  0  0  0
  187.8060  174.3440  142.0420 C   0  0  0  0  0  1  0  0  0  0  0  0
  190.3090  174.4390  141.1020 O   0  0  0  0  0  0  0  0  0  0  0  0
  190.1430  175.1650  142.1160 C   0  0  0  0  0  0  0  0  0  0  0  0
  191.1960  176.0210  142.5490 N   0  0  0  0  0  1  0  0  0  0  0  0
  187.8280  176.1040  146.8650 C   0  0  0  0  0  2  0  0  0  0  0  0
  186.4680  176.7600  146.6790 C   0  0  0  0  0  2  0  0  0  0  0  0
  186.3180  177.9480  147.6150 C   0  0  0  0  0  2  0  0  0  0  0  0
  185.4860  179.0370  146.9620 C   0  0  0  0  0  2  0  0  0  0  0  0
  184.2460  178.4430  146.3190 C   0  0  0  0  0  1  0  0  0  0  0  0
  1 11  1  0  0  0  0
  2  8  2  0  0  0  0
  3 29  1  1  0  0  0
  3  6  1  0  0  0  0
  3  2  1  0  0  0  0
  5  9  2  0  0  0  0
  5  8  1  0  0  0  0
  6 14  1  0  0  0  0
  7  1  1  0  0  0  0
  7 14  2  0  0  0  0
 10 15  1  6  0  0  0
 10  4  1  0  0  0  0
 10  7  1  0  0  0  0
 11  9  1  0  0  0  0
 12 16  1  6  0  0  0
 12 10  1  0  0  0  0
 12 13  1  0  0  0  0
 13  1  2  0  0  0  0
 14  5  1  0  0  0  0
 17 18  2  0  0  0  0
 18 19  1  0  0  0  0
 18 16  1  0  0  0  0
 20 24  1  0  0  0  0
 21 24  1  0  0  0  0
 22 19  1  1  0  0  0
 22 21  1  0  0  0  0
 23 22  1  0  0  0  0
 25 23  1  0  0  0  0
 25 20  1  0  0  0  0
 26 28  2  0  0  0  0
 27 28  1  0  0  0  0
 28 25  1  0  0  0  0
 29 41  1  0  0  0  0
 30 34  1  0  0  0  0
 30 35  1  0  0  0  0
 31 36  1  6  0  0  0
 31 32  1  0  0  0  0
 31 33  1  0  0  0  0
 32 35  1  6  0  0  0
 32 33  1  0  0  0  0
 33 29  1  1  0  0  0
 34 31  1  0  0  0  0
 36 37  1  6  0  0  0
 38 39  2  0  0  0  0
 39 40  1  0  0  0  0
 39 36  1  0  0  0  0
 42 41  1  0  0  0  0
 42 43  1  0  0  0  0
 44 43  1  0  0  0  0
 45 44  1  0  0  0  0
M  END
>  <MODEL>
3

>  <REMARK>
 VINA RESULT:      -6.3      2.639      7.396
  Name = 
  12 active torsions:
  status: ('A' for Active; 'I' for Inactive)
    1  A    between atoms: C_1  and  C_35
    2  A    between atoms: C_1  and  N_45
    3  A    between atoms: C_5  and  N_45
    4  A    between atoms: C_10  and  C_24
    5  A    between atoms: N_12  and  C_23
    6  A    between atoms: N_12  and  C_32
    7  A    between atoms: C_13  and  N_14
    8  A    between atoms: N_14  and  C_23
    9  A    between atoms: C_18  and  C_33
   10  A    between atoms: C_24  and  C_35
   11  A    between atoms: C_30  and  N_45
   12  A    between atoms: C_33  and  C_38
                            x       y       z     vdW  Elec       q    Type
                         _______ _______ _______ _____ _____    ______ ____

>  <TORSDO>
F 12

$$$$
=
 OpenBabel11072408563D

 45 50  0  0  1  0  0  0  0  0999 V2000
  191.6810  176.4130  146.8320 C   0  0  0  0  0  0  0  0  0  0  0  0
  194.2240  174.3850  142.9870 C   0  0  0  0  0  3  0  0  0  0  0  0
  192.8010  174.4990  142.4890 C   0  0  1  0  0  3  0  0  0  0  0  0
  190.2730  178.2910  144.4770 O   0  0  0  0  0  1  0  0  0  0  0  0
  193.6330  175.4350  145.1200 C   0  0  0  0  0  0  0  0  0  0  0  0
  192.2090  176.2100  142.7890 S   0  0  0  0  0  0  0  0  0  0  0  0
  191.4460  176.4630  145.4200 C   0  0  0  0  0  0  0  0  0  0  0  0
  194.5860  174.7830  144.2110 C   0  0  0  0  0  3  0  0  0  0  0  0
  193.8430  175.4040  146.4500 C   0  0  0  0  0  3  0  0  0  0  0  0
  190.1230  177.0810  145.1560 C   0  0  1  0  0  0  0  0  0  0  0  0
  192.8810  175.9140  147.3430 O   0  0  0  0  0  0  0  0  0  0  0  0
  189.5790  177.3430  146.5880 C   0  0  2  0  0  3  0  0  0  0  0  0
  190.6700  176.8940  147.5250 C   0  0  0  0  0  3  0  0  0  0  0  0
  192.3850  176.0370  144.5690 C   0  0  0  0  0  0  0  0  0  0  0  0
  189.3220  176.2200  144.4230 F   0  0  0  0  0  0  0  0  0  0  0  0
  188.3660  176.5800  146.8560 N   0  0  0  0  0  2  0  0  0  0  0  0
  187.0340  178.5580  147.9930 S   0  0  0  0  0  0  0  0  0  0  0  0
  187.0990  177.2030  147.0730 C   0  0  0  0  0  0  0  0  0  0  0  0
  185.9180  176.6540  146.4760 N   0  0  0  0  0  2  0  0  0  0  0  0
  185.1880  179.0550  143.0330 C   0  0  0  0  0  2  0  0  0  0  0  0
  184.5720  178.3740  145.3760 C   0  0  0  0  0  2  0  0  0  0  0  0
  185.3820  177.0810  145.1930 C   0  0  1  0  0  3  0  0  0  0  0  0
  186.5140  177.2210  144.1730 C   0  0  0  0  0  2  0  0  0  0  0  0
  185.0380  179.5240  144.4800 C   0  0  0  0  0  2  0  0  0  0  0  0
  186.0080  177.8410  142.9500 N   0  0  0  0  0  0  0  0  0  0  0  0
  187.0940  176.2660  141.6040 O   0  0  0  0  0  0  0  0  0  0  0  0
  185.8810  177.9140  140.4050 C   0  0  0  0  0  1  0  0  0  0  0  0
  186.3640  177.2910  141.6730 C   0  0  0  0  0  0  0  0  0  0  0  0
  192.7080  174.1100  141.0710 N   0  0  0  0  0  0  0  0  0  0  0  0
  190.9400  169.9180  140.1720 C   0  0  0  0  0  2  0  0  0  0  0  0
  191.0340  172.2970  141.1500 C   0  0  2  0  0  0  0  0  0  0  0  0
  191.6850  172.2220  139.7860 C   0  0  1  0  0  3  0  0  0  0  0  0
  192.5140  172.6540  140.9990 C   0  0  1  0  0  3  0  0  0  0  0  0
  190.6810  170.6350  141.8110 S   0  0  0  0  0  0  0  0  0  0  0  0
  191.9740  170.7680  139.4690 C   0  0  0  0  0  2  0  0  0  0  0  0
  189.9580  173.3900  141.1980 C   0  0  1  0  0  3  0  0  0  0  0  0
  189.2450  173.5380  139.8630 C   0  0  0  0  0  1  0  0  0  0  0  0
  189.3160  173.3880  143.4910 O   0  0  0  0  0  0  0  0  0  0  0  0
  188.9710  173.1760  142.2990 C   0  0  0  0  0  0  0  0  0  0  0  0
  187.6400  172.7530  142.0170 N   0  0  0  0  0  1  0  0  0  0  0  0
  194.0020  174.4180  140.4570 C   0  0  0  0  0  2  0  0  0  0  0  0
  193.8050  174.9180  139.0340 C   0  0  0  0  0  2  0  0  0  0  0  0
  194.9260  174.4220  138.1360 C   0  0  0  0  0  2  0  0  0  0  0  0
  195.5130  173.1330  138.6820 C   0  0  0  0  0  2  0  0  0  0  0  0
  195.1420  171.9620  137.7910 C   0  0  0  0  0  1  0  0  0  0  0  0
  1 11  1  0  0  0  0
  1 13  2  0  0  0  0
  2  8  2  0  0  0  0
  3 29  1  6  0  0  0
  3  6  1  0  0  0  0
  3  2  1  0  0  0  0
  4 10  1  0  0  0  0
  5  9  2  0  0  0  0
  6 14  1  0  0  0  0
  7  1  1  0  0  0  0
  8  5  1  0  0  0  0
  9 11  1  0  0  0  0
 10 15  1  6  0  0  0
 10  7  1  0  0  0  0
 10 12  1  0  0  0  0
 12 16  1  1  0  0  0
 12 13  1  0  0  0  0
 14  5  1  0  0  0  0
 14  7  2  0  0  0  0
 16 18  1  0  0  0  0
 18 17  2  0  0  0  0
 19 18  1  0  0  0  0
 20 24  1  0  0  0  0
 22 21  1  0  0  0  0
 22 19  1  1  0  0  0
 23 22  1  0  0  0  0
 24 21  1  0  0  0  0
 25 20  1  0  0  0  0
 25 23  1  0  0  0  0
 26 28  2  0  0  0  0
 27 28  1  0  0  0  0
 28 25  1  0  0  0  0
 30 34  1  0  0  0  0
 31 36  1  1  0  0  0
 31 34  1  0  0  0  0
 32 35  1  1  0  0  0
 32 33  1  0  0  0  0
 32 31  1  0  0  0  0
 33 29  1  6  0  0  0
 33 31  1  0  0  0  0
 35 30  1  0  0  0  0
 36 37  1  6  0  0  0
 36 39  1  0  0  0  0
 39 38  2  0  0  0  0
 40 39  1  0  0  0  0
 41 29  1  0  0  0  0
 42 41  1  0  0  0  0
 43 44  1  0  0  0  0
 43 42  1  0  0  0  0
 45 44  1  0  0  0  0
M  END
>  <MODEL>
4

>  <REMARK>
 VINA RESULT:      -6.3      2.922      5.142
  Name = 
  12 active torsions:
  status: ('A' for Active; 'I' for Inactive)
    1  A    between atoms: C_1  and  C_35
    2  A    between atoms: C_1  and  N_45
    3  A    between atoms: C_5  and  N_45
    4  A    between atoms: C_10  and  C_24
    5  A    between atoms: N_12  and  C_23
    6  A    between atoms: N_12  and  C_32
    7  A    between atoms: C_13  and  N_14
    8  A    between atoms: N_14  and  C_23
    9  A    between atoms: C_18  and  C_33
   10  A    between atoms: C_24  and  C_35
   11  A    between atoms: C_30  and  N_45
   12  A    between atoms: C_33  and  C_38
                            x       y       z     vdW  Elec       q    Type
                         _______ _______ _______ _____ _____    ______ ____

>  <TORSDO>
F 12

$$$$
=
 OpenBabel11072408563D

 45 50  0  0  1  0  0  0  0  0999 V2000
  189.5320  173.5040  139.2010 C   0  0  0  0  0  0  0  0  0  0  0  0
  194.1200  171.7170  140.2600 C   0  0  0  0  0  3  0  0  0  0  0  0
  193.7770  172.6120  141.4300 C   0  0  1  0  0  3  0  0  0  0  0  0
  188.9070  172.8690  142.4040 O   0  0  0  0  0  1  0  0  0  0  0  0
  191.9380  172.1210  139.2230 C   0  0  0  0  0  0  0  0  0  0  0  0
  192.1150  172.1500  142.0570 S   0  0  0  0  0  0  0  0  0  0  0  0
  190.1870  173.2820  140.4550 C   0  0  0  0  0  0  0  0  0  0  0  0
  193.2830  171.5300  139.2350 C   0  0  0  0  0  3  0  0  0  0  0  0
  191.3040  172.3300  138.0530 C   0  0  0  0  0  3  0  0  0  0  0  0
  189.3770  173.8700  141.5520 C   0  0  1  0  0  0  0  0  0  0  0  0
  190.0710  173.0080  138.0120 O   0  0  0  0  0  0  0  0  0  0  0  0
  188.1870  174.5130  140.7860 C   0  0  2  0  0  3  0  0  0  0  0  0
  188.4120  174.1830  139.3340 C   0  0  0  0  0  3  0  0  0  0  0  0
  191.3270  172.5850  140.5020 C   0  0  0  0  0  0  0  0  0  0  0  0
  190.1230  174.7940  142.2660 F   0  0  0  0  0  0  0  0  0  0  0  0
  188.1520  175.9610  140.9550 N   0  0  0  0  0  2  0  0  0  0  0  0
  186.1980  177.7260  141.1730 S   0  0  0  0  0  0  0  0  0  0  0  0
  187.2140  176.6110  141.8140 C   0  0  0  0  0  0  0  0  0  0  0  0
  187.1610  176.2710  143.2060 N   0  0  0  0  0  2  0  0  0  0  0  0
  189.1240  176.8720  146.9400 C   0  0  0  0  0  2  0  0  0  0  0  0
  187.6490  177.7440  145.0970 C   0  0  0  0  0  2  0  0  0  0  0  0
  188.1850  176.6410  144.1710 C   0  0  1  0  0  3  0  0  0  0  0  0
  188.6630  175.4000  144.9290 C   0  0  0  0  0  2  0  0  0  0  0  0
  187.7310  177.3940  146.5840 C   0  0  0  0  0  2  0  0  0  0  0  0
  189.5370  175.7960  146.0310 N   0  0  0  0  0  0  0  0  0  0  0  0
  191.1050  174.1480  145.4880 O   0  0  0  0  0  0  0  0  0  0  0  0
  191.6720  175.4580  147.3810 C   0  0  0  0  0  1  0  0  0  0  0  0
  190.7680  175.0910  146.2520 C   0  0  0  0  0  0  0  0  0  0  0  0
  194.8150  172.5370  142.4720 N   0  0  0  0  0  0  0  0  0  0  0  0
  197.7560  176.0840  142.9920 C   0  0  0  0  0  2  0  0  0  0  0  0
  195.4960  174.8510  142.9940 C   0  0  2  0  0  0  0  0  0  0  0  0
  196.6280  173.9560  143.4520 C   0  0  1  0  0  3  0  0  0  0  0  0
  195.8180  173.5790  142.2080 C   0  0  1  0  0  3  0  0  0  0  0  0
  196.1250  176.4070  142.2820 S   0  0  0  0  0  0  0  0  0  0  0  0
  197.9410  174.5840  143.0270 C   0  0  0  0  0  2  0  0  0  0  0  0
  194.3550  174.8790  144.0200 C   0  0  1  0  0  3  0  0  0  0  0  0
  194.8630  174.6460  145.4350 C   0  0  0  0  0  1  0  0  0  0  0  0
  192.7350  176.3000  143.0100 O   0  0  0  0  0  0  0  0  0  0  0  0
  193.5530  176.1380  143.9520 C   0  0  0  0  0  0  0  0  0  0  0  0
  193.6890  177.1480  144.9480 N   0  0  0  0  0  1  0  0  0  0  0  0
  195.4740  171.2360  142.3260 C   0  0  0  0  0  2  0  0  0  0  0  0
  195.0120  170.2840  143.4190 C   0  0  0  0  0  2  0  0  0  0  0  0
  194.7260  171.0460  144.7020 C   0  0  0  0  0  2  0  0  0  0  0  0
  195.6040  170.5340  145.8300 C   0  0  0  0  0  2  0  0  0  0  0  0
  196.7830  171.4630  146.0480 C   0  0  0  0  0  1  0  0  0  0  0  0
  1 13  2  0  0  0  0
  1  7  1  0  0  0  0
  2  3  1  0  0  0  0
  3  6  1  0  0  0  0
  3 29  1  1  0  0  0
  5  8  1  0  0  0  0
  5 14  1  0  0  0  0
  7 14  2  0  0  0  0
  7 10  1  0  0  0  0
  8  2  2  0  0  0  0
  9  5  2  0  0  0  0
 10 15  1  1  0  0  0
 10  4  1  0  0  0  0
 11  9  1  0  0  0  0
 11  1  1  0  0  0  0
 12 16  1  6  0  0  0
 12 10  1  0  0  0  0
 13 12  1  0  0  0  0
 14  6  1  0  0  0  0
 16 18  1  0  0  0  0
 17 18  2  0  0  0  0
 18 19  1  0  0  0  0
 21 24  1  0  0  0  0
 22 19  1  6  0  0  0
 22 23  1  0  0  0  0
 22 21  1  0  0  0  0
 23 25  1  0  0  0  0
 24 20  1  0  0  0  0
 25 28  1  0  0  0  0
 25 20  1  0  0  0  0
 26 28  2  0  0  0  0
 28 27  1  0  0  0  0
 30 35  1  0  0  0  0
 31 32  1  0  0  0  0
 31 36  1  1  0  0  0
 32 35  1  6  0  0  0
 33 29  1  1  0  0  0
 33 31  1  0  0  0  0
 33 32  1  0  0  0  0
 34 30  1  0  0  0  0
 34 31  1  0  0  0  0
 36 37  1  1  0  0  0
 38 39  2  0  0  0  0
 39 36  1  0  0  0  0
 39 40  1  0  0  0  0
 41 29  1  0  0  0  0
 41 42  1  0  0  0  0
 42 43  1  0  0  0  0
 43 44  1  0  0  0  0
 44 45  1  0  0  0  0
M  END
>  <MODEL>
5

>  <REMARK>
 VINA RESULT:      -6.3      2.060      5.753
  Name = 
  12 active torsions:
  status: ('A' for Active; 'I' for Inactive)
    1  A    between atoms: C_1  and  C_35
    2  A    between atoms: C_1  and  N_45
    3  A    between atoms: C_5  and  N_45
    4  A    between atoms: C_10  and  C_24
    5  A    between atoms: N_12  and  C_23
    6  A    between atoms: N_12  and  C_32
    7  A    between atoms: C_13  and  N_14
    8  A    between atoms: N_14  and  C_23
    9  A    between atoms: C_18  and  C_33
   10  A    between atoms: C_24  and  C_35
   11  A    between atoms: C_30  and  N_45
   12  A    between atoms: C_33  and  C_38
                            x       y       z     vdW  Elec       q    Type
                         _______ _______ _______ _____ _____    ______ ____

>  <TORSDO>
F 12

$$$$
=
 OpenBabel11072408563D

 45 50  0  0  1  0  0  0  0  0999 V2000
  189.7660  173.2230  139.5720 C   0  0  0  0  0  0  0  0  0  0  0  0
  193.6440  170.7440  141.6180 C   0  0  0  0  0  3  0  0  0  0  0  0
  193.0850  171.5810  142.7460 C   0  0  1  0  0  3  0  0  0  0  0  0
  188.1970  172.4270  142.3940 O   0  0  0  0  0  1  0  0  0  0  0  0
  191.9010  171.5260  140.0840 C   0  0  0  0  0  0  0  0  0  0  0  0
  191.2740  171.3030  142.8450 S   0  0  0  0  0  0  0  0  0  0  0  0
  190.0120  172.8140  140.9230 C   0  0  0  0  0  0  0  0  0  0  0  0
  193.1150  170.7560  140.3910 C   0  0  0  0  0  3  0  0  0  0  0  0
  191.6500  171.9120  138.8180 C   0  0  0  0  0  3  0  0  0  0  0  0
  188.9950  173.4180  141.8200 C   0  0  1  0  0  0  0  0  0  0  0  0
  190.5600  172.7540  138.5240 O   0  0  0  0  0  0  0  0  0  0  0  0
  188.1480  174.2770  140.8410 C   0  0  2  0  0  3  0  0  0  0  0  0
  188.7360  174.0370  139.4760 C   0  0  0  0  0  3  0  0  0  0  0  0
  191.0090  171.9650  141.1950 C   0  0  0  0  0  0  0  0  0  0  0  0
  189.6060  174.1710  142.8100 F   0  0  0  0  0  0  0  0  0  0  0  0
  188.2260  175.6980  141.1600 N   0  0  0  0  0  2  0  0  0  0  0  0
  186.7270  177.3560  139.7500 S   0  0  0  0  0  0  0  0  0  0  0  0
  187.0830  176.5550  141.1350 C   0  0  0  0  0  0  0  0  0  0  0  0
  186.2610  176.6880  142.3020 N   0  0  0  0  0  2  0  0  0  0  0  0
  185.6420  179.4150  145.5160 C   0  0  0  0  0  2  0  0  0  0  0  0
  185.9990  178.9980  143.0610 C   0  0  0  0  0  2  0  0  0  0  0  0
  186.5470  177.6020  143.3960 C   0  0  1  0  0  3  0  0  0  0  0  0
  185.9950  177.0390  144.7080 C   0  0  0  0  0  2  0  0  0  0  0  0
  185.0420  179.5540  144.1170 C   0  0  0  0  0  2  0  0  0  0  0  0
  186.1010  178.0430  145.7650 N   0  0  0  0  0  0  0  0  0  0  0  0
  186.9660  176.4810  147.2750 O   0  0  0  0  0  0  0  0  0  0  0  0
  186.7020  178.6640  148.1620 C   0  0  0  0  0  1  0  0  0  0  0  0
  186.6010  177.6670  147.0560 C   0  0  0  0  0  0  0  0  0  0  0  0
  193.7720  171.2820  144.0140 N   0  0  0  0  0  0  0  0  0  0  0  0
  197.0660  174.3430  145.1470 C   0  0  0  0  0  2  0  0  0  0  0  0
  194.7670  173.5170  144.3330 C   0  0  2  0  0  0  0  0  0  0  0  0
  195.3270  172.6370  145.4310 C   0  0  1  0  0  3  0  0  0  0  0  0
  195.0330  172.0370  144.0520 C   0  0  1  0  0  3  0  0  0  0  0  0
  196.0230  174.6830  143.7100 S   0  0  0  0  0  0  0  0  0  0  0  0
  196.8130  172.9090  145.5550 C   0  0  0  0  0  2  0  0  0  0  0  0
  193.3580  174.0160  144.6800 C   0  0  1  0  0  3  0  0  0  0  0  0
  193.2410  174.4010  146.1470 C   0  0  0  0  0  1  0  0  0  0  0  0
  192.6410  174.9210  142.5980 O   0  0  0  0  0  0  0  0  0  0  0  0
  192.9170  175.1450  143.8050 C   0  0  0  0  0  0  0  0  0  0  0  0
  192.7870  176.4650  144.3240 N   0  0  0  0  0  1  0  0  0  0  0  0
  194.1080  169.8560  143.9910 C   0  0  0  0  0  2  0  0  0  0  0  0
  194.2560  169.3250  145.4090 C   0  0  0  0  0  2  0  0  0  0  0  0
  195.6970  168.9310  145.6820 C   0  0  0  0  0  2  0  0  0  0  0  0
  195.9320  168.7780  147.1750 C   0  0  0  0  0  2  0  0  0  0  0  0
  194.6280  168.4700  147.8870 C   0  0  0  0  0  1  0  0  0  0  0  0
  1  7  1  0  0  0  0
  2  3  1  0  0  0  0
  3  6  1  0  0  0  0
  3 29  1  1  0  0  0
  5  8  1  0  0  0  0
  5 14  1  0  0  0  0
  7 14  2  0  0  0  0
  7 10  1  0  0  0  0
  8  2  2  0  0  0  0
  9  5  2  0  0  0  0
 10  4  1  1  0  0  0
 10 15  1  0  0  0  0
 11  9  1  0  0  0  0
 11  1  1  0  0  0  0
 12 16  1  1  0  0  0
 12 10  1  0  0  0  0
 13  1  2  0  0  0  0
 13 12  1  0  0  0  0
 14  6  1  0  0  0  0
 17 18  2  0  0  0  0
 18 16  1  0  0  0  0
 18 19  1  0  0  0  0
 20 25  1  0  0  0  0
 21 22  1  0  0  0  0
 21 24  1  0  0  0  0
 22 19  1  6  0  0  0
 22 23  1  0  0  0  0
 23 25  1  0  0  0  0
 24 20  1  0  0  0  0
 25 28  1  0  0  0  0
 28 26  2  0  0  0  0
 28 27  1  0  0  0  0
 30 35  1  0  0  0  0
 31 36  1  1  0  0  0
 31 32  1  0  0  0  0
 32 35  1  6  0  0  0
 33 29  1  1  0  0  0
 33 31  1  0  0  0  0
 33 32  1  0  0  0  0
 34 31  1  0  0  0  0
 34 30  1  0  0  0  0
 36 37  1  1  0  0  0
 38 39  2  0  0  0  0
 39 40  1  0  0  0  0
 39 36  1  0  0  0  0
 41 29  1  0  0  0  0
 41 42  1  0  0  0  0
 42 43  1  0  0  0  0
 43 44  1  0  0  0  0
 44 45  1  0  0  0  0
M  END
>  <MODEL>
6

>  <REMARK>
 VINA RESULT:      -6.3      2.435      6.283
  Name = 
  12 active torsions:
  status: ('A' for Active; 'I' for Inactive)
    1  A    between atoms: C_1  and  C_35
    2  A    between atoms: C_1  and  N_45
    3  A    between atoms: C_5  and  N_45
    4  A    between atoms: C_10  and  C_24
    5  A    between atoms: N_12  and  C_23
    6  A    between atoms: N_12  and  C_32
    7  A    between atoms: C_13  and  N_14
    8  A    between atoms: N_14  and  C_23
    9  A    between atoms: C_18  and  C_33
   10  A    between atoms: C_24  and  C_35
   11  A    between atoms: C_30  and  N_45
   12  A    between atoms: C_33  and  C_38
                            x       y       z     vdW  Elec       q    Type
                         _______ _______ _______ _____ _____    ______ ____

>  <TORSDO>
F 12

$$$$
=
 OpenBabel11072408563D

 45 50  0  0  1  0  0  0  0  0999 V2000
  190.5570  176.7190  145.5120 C   0  0  0  0  0  0  0  0  0  0  0  0
  195.3230  175.1790  146.0460 C   0  0  0  0  0  3  0  0  0  0  0  0
  194.9060  174.6720  144.6840 C   0  0  1  0  0  3  0  0  0  0  0  0
  191.5110  177.5220  142.4310 O   0  0  0  0  0  1  0  0  0  0  0  0
  193.1550  176.2710  146.3790 C   0  0  0  0  0  0  0  0  0  0  0  0
  194.1750  176.0630  143.7370 S   0  0  0  0  0  0  0  0  0  0  0  0
  191.5700  176.4450  144.5380 C   0  0  0  0  0  0  0  0  0  0  0  0
  194.4970  175.8790  146.8310 C   0  0  0  0  0  3  0  0  0  0  0  0
  192.1920  176.5390  147.2820 C   0  0  0  0  0  3  0  0  0  0  0  0
  190.9760  176.4730  143.1780 C   0  0  1  0  0  0  0  0  0  0  0  0
  190.8700  176.7940  146.8710 O   0  0  0  0  0  0  0  0  0  0  0  0
  189.4740  176.7460  143.4710 C   0  0  2  0  0  3  0  0  0  0  0  0
  189.3730  176.8970  144.9670 C   0  0  0  0  0  3  0  0  0  0  0  0
  192.8390  176.2640  144.9220 C   0  0  0  0  0  0  0  0  0  0  0  0
  191.1890  175.2670  142.5290 F   0  0  0  0  0  0  0  0  0  0  0  0
  188.6270  175.6410  143.0360 N   0  0  0  0  0  2  0  0  0  0  0  0
  188.1880  174.9700  140.5190 S   0  0  0  0  0  0  0  0  0  0  0  0
  187.7620  175.7370  141.9040 C   0  0  0  0  0  0  0  0  0  0  0  0
  186.5390  176.4780  141.9960 N   0  0  0  0  0  2  0  0  0  0  0  0
  184.3920  178.8270  144.8290 C   0  0  0  0  0  2  0  0  0  0  0  0
  185.2740  178.5120  142.4940 C   0  0  0  0  0  2  0  0  0  0  0  0
  186.2630  177.4650  143.0290 C   0  0  1  0  0  3  0  0  0  0  0  0
  185.7720  176.7690  144.3010 C   0  0  0  0  0  2  0  0  0  0  0  0
  184.0180  178.6700  143.3550 C   0  0  0  0  0  2  0  0  0  0  0  0
  185.3050  177.7650  145.2640 N   0  0  0  0  0  0  0  0  0  0  0  0
  186.4570  176.7300  147.0170 O   0  0  0  0  0  0  0  0  0  0  0  0
  185.2200  178.6500  147.6520 C   0  0  0  0  0  1  0  0  0  0  0  0
  185.6970  177.6620  146.6410 C   0  0  0  0  0  0  0  0  0  0  0  0
  196.0410  174.0470  143.9850 N   0  0  0  0  0  0  0  0  0  0  0  0
  197.0450  169.6940  145.2300 C   0  0  0  0  0  2  0  0  0  0  0  0
  195.5870  171.6650  144.4460 C   0  0  2  0  0  0  0  0  0  0  0  0
  196.9840  171.7320  143.8670 C   0  0  1  0  0  3  0  0  0  0  0  0
  196.4750  172.8720  144.7550 C   0  0  1  0  0  3  0  0  0  0  0  0
  195.4700  170.4070  145.7590 S   0  0  0  0  0  0  0  0  0  0  0  0
  197.8860  170.8240  144.6800 C   0  0  0  0  0  2  0  0  0  0  0  0
  194.5210  171.7300  143.3430 C   0  0  1  0  0  3  0  0  0  0  0  0
  194.8800  170.8440  142.1600 C   0  0  0  0  0  1  0  0  0  0  0  0
  192.5690  172.2070  144.6200 O   0  0  0  0  0  0  0  0  0  0  0  0
  193.1530  171.4030  143.8470 C   0  0  0  0  0  0  0  0  0  0  0  0
  192.4940  170.2030  143.4510 N   0  0  0  0  0  1  0  0  0  0  0  0
  197.1380  175.0190  143.9990 C   0  0  0  0  0  2  0  0  0  0  0  0
  197.7310  175.1670  142.6060 C   0  0  0  0  0  2  0  0  0  0  0  0
  196.8690  174.4490  141.5820 C   0  0  0  0  0  2  0  0  0  0  0  0
  197.3120  174.8010  140.1730 C   0  0  0  0  0  2  0  0  0  0  0  0
  196.1260  175.2480  139.3400 C   0  0  0  0  0  1  0  0  0  0  0  0
  1 11  1  0  0  0  0
  2  8  2  0  0  0  0
  3 29  1  6  0  0  0
  3  2  1  0  0  0  0
  5  8  1  0  0  0  0
  5  9  2  0  0  0  0
  6  3  1  0  0  0  0
  6 14  1  0  0  0  0
  7 14  2  0  0  0  0
  7  1  1  0  0  0  0
 10  4  1  6  0  0  0
 10 12  1  0  0  0  0
 10  7  1  0  0  0  0
 11  9  1  0  0  0  0
 12 16  1  1  0  0  0
 12 13  1  0  0  0  0
 13  1  2  0  0  0  0
 14  5  1  0  0  0  0
 15 10  1  0  0  0  0
 17 18  2  0  0  0  0
 18 19  1  0  0  0  0
 18 16  1  0  0  0  0
 20 25  1  0  0  0  0
 21 22  1  0  0  0  0
 21 24  1  0  0  0  0
 22 19  1  6  0  0  0
 22 23  1  0  0  0  0
 23 25  1  0  0  0  0
 24 20  1  0  0  0  0
 25 28  1  0  0  0  0
 28 26  2  0  0  0  0
 28 27  1  0  0  0  0
 29 41  1  0  0  0  0
 30 34  1  0  0  0  0
 31 36  1  6  0  0  0
 31 33  1  0  0  0  0
 31 34  1  0  0  0  0
 32 31  1  0  0  0  0
 32 35  1  1  0  0  0
 32 33  1  0  0  0  0
 33 29  1  6  0  0  0
 35 30  1  0  0  0  0
 36 37  1  6  0  0  0
 36 39  1  0  0  0  0
 39 38  2  0  0  0  0
 40 39  1  0  0  0  0
 42 41  1  0  0  0  0
 43 42  1  0  0  0  0
 44 43  1  0  0  0  0
 45 44  1  0  0  0  0
M  END
>  <MODEL>
7

>  <REMARK>
 VINA RESULT:      -6.2      2.295      4.181
  Name = 
  12 active torsions:
  status: ('A' for Active; 'I' for Inactive)
    1  A    between atoms: C_1  and  C_35
    2  A    between atoms: C_1  and  N_45
    3  A    between atoms: C_5  and  N_45
    4  A    between atoms: C_10  and  C_24
    5  A    between atoms: N_12  and  C_23
    6  A    between atoms: N_12  and  C_32
    7  A    between atoms: C_13  and  N_14
    8  A    between atoms: N_14  and  C_23
    9  A    between atoms: C_18  and  C_33
   10  A    between atoms: C_24  and  C_35
   11  A    between atoms: C_30  and  N_45
   12  A    between atoms: C_33  and  C_38
                            x       y       z     vdW  Elec       q    Type
                         _______ _______ _______ _____ _____    ______ ____

>  <TORSDO>
F 12

$$$$
=
 OpenBabel11072408563D

 45 50  0  0  1  0  0  0  0  0999 V2000
  189.3940  177.1890  146.8900 C   0  0  0  0  0  0  0  0  0  0  0  0
  193.0730  174.0840  145.4100 C   0  0  0  0  0  3  0  0  0  0  0  0
  192.0210  173.9740  144.3300 C   0  0  1  0  0  3  0  0  0  0  0  0
  189.3470  178.1200  143.6990 O   0  0  0  0  0  1  0  0  0  0  0  0
  191.7600  175.7660  146.6140 C   0  0  0  0  0  0  0  0  0  0  0  0
  191.5600  175.6640  143.7830 S   0  0  0  0  0  0  0  0  0  0  0  0
  189.7880  176.7560  145.5830 C   0  0  0  0  0  0  0  0  0  0  0  0
  192.9250  174.8810  146.4730 C   0  0  0  0  0  3  0  0  0  0  0  0
  191.3800  176.1890  147.8350 C   0  0  0  0  0  3  0  0  0  0  0  0
  188.7830  177.2010  144.5850 C   0  0  1  0  0  0  0  0  0  0  0  0
  190.1970  176.9330  148.0040 O   0  0  0  0  0  0  0  0  0  0  0  0
  187.7180  177.9070  145.4700 C   0  0  2  0  0  3  0  0  0  0  0  0
  188.2480  177.8370  146.8780 C   0  0  0  0  0  3  0  0  0  0  0  0
  190.9430  176.1030  145.4130 C   0  0  0  0  0  0  0  0  0  0  0  0
  188.2750  176.1160  143.8890 F   0  0  0  0  0  0  0  0  0  0  0  0
  186.4260  177.2350  145.4040 N   0  0  0  0  0  2  0  0  0  0  0  0
  184.5220  178.0920  147.0220 S   0  0  0  0  0  0  0  0  0  0  0  0
  185.1890  177.9350  145.5330 C   0  0  0  0  0  0  0  0  0  0  0  0
  184.5600  178.5010  144.3760 N   0  0  0  0  0  2  0  0  0  0  0  0
  184.4070  178.0400  140.1420 C   0  0  0  0  0  2  0  0  0  0  0  0
  183.2190  178.1690  142.3570 C   0  0  0  0  0  2  0  0  0  0  0  0
  184.5480  177.8660  143.0660 C   0  0  1  0  0  3  0  0  0  0  0  0
  185.7730  178.3050  142.2600 C   0  0  0  0  0  2  0  0  0  0  0  0
  183.3890  178.8150  140.9800 C   0  0  0  0  0  2  0  0  0  0  0  0
  185.6570  177.8320  140.8820 N   0  0  0  0  0  0  0  0  0  0  0  0
  187.8680  177.0690  140.8710 O   0  0  0  0  0  0  0  0  0  0  0  0
  186.7060  176.7440  138.8300 C   0  0  0  0  0  1  0  0  0  0  0  0
  186.7860  177.2180  140.2430 C   0  0  0  0  0  0  0  0  0  0  0  0
  192.4920  173.1300  143.2200 N   0  0  0  0  0  0  0  0  0  0  0  0
  194.1470  174.9060  139.2680 C   0  0  0  0  0  2  0  0  0  0  0  0
  194.1770  174.1420  141.7260 C   0  0  2  0  0  0  0  0  0  0  0  0
  193.3280  173.2330  140.8640 C   0  0  1  0  0  3  0  0  0  0  0  0
  192.6880  173.9810  142.0370 C   0  0  1  0  0  3  0  0  0  0  0  0
  194.6440  175.6610  140.8340 S   0  0  0  0  0  0  0  0  0  0  0  0
  193.0090  173.9570  139.5700 C   0  0  0  0  0  2  0  0  0  0  0  0
  195.2370  173.3470  142.5020 C   0  0  1  0  0  3  0  0  0  0  0  0
  195.7660  172.1740  141.6930 C   0  0  0  0  0  1  0  0  0  0  0  0
  196.1600  175.0360  143.9030 O   0  0  0  0  0  0  0  0  0  0  0  0
  196.3630  174.2060  142.9790 C   0  0  0  0  0  0  0  0  0  0  0  0
  197.6660  174.0850  142.4140 N   0  0  0  0  0  1  0  0  0  0  0  0
  191.4160  172.1840  142.9150 C   0  0  0  0  0  2  0  0  0  0  0  0
  190.1710  172.5220  143.7220 C   0  0  0  0  0  2  0  0  0  0  0  0
  188.9390  172.5000  142.8340 C   0  0  0  0  0  2  0  0  0  0  0  0
  189.0360  173.5740  141.7650 C   0  0  0  0  0  2  0  0  0  0  0  0
  188.1740  173.2110  140.5700 C   0  0  0  0  0  1  0  0  0  0  0  0
  1 11  1  0  0  0  0
  2  8  2  0  0  0  0
  3 29  1  6  0  0  0
  3  2  1  0  0  0  0
  5  9  2  0  0  0  0
  6  3  1  0  0  0  0
  6 14  1  0  0  0  0
  7  1  1  0  0  0  0
  8  5  1  0  0  0  0
  9 11  1  0  0  0  0
 10  4  1  6  0  0  0
 10 12  1  0  0  0  0
 10  7  1  0  0  0  0
 12 16  1  1  0  0  0
 12 13  1  0  0  0  0
 13  1  2  0  0  0  0
 14  7  2  0  0  0  0
 14  5  1  0  0  0  0
 15 10  1  0  0  0  0
 16 18  1  0  0  0  0
 18 17  2  0  0  0  0
 19 18  1  0  0  0  0
 20 25  1  0  0  0  0
 20 24  1  0  0  0  0
 21 22  1  0  0  0  0
 22 19  1  1  0  0  0
 23 22  1  0  0  0  0
 24 21  1  0  0  0  0
 25 23  1  0  0  0  0
 27 28  1  0  0  0  0
 28 26  2  0  0  0  0
 28 25  1  0  0  0  0
 30 35  1  0  0  0  0
 30 34  1  0  0  0  0
 31 33  1  0  0  0  0
 31 36  1  1  0  0  0
 32 35  1  6  0  0  0
 32 31  1  0  0  0  0
 32 33  1  0  0  0  0
 33 29  1  1  0  0  0
 34 31  1  0  0  0  0
 36 37  1  6  0  0  0
 36 39  1  0  0  0  0
 39 38  2  0  0  0  0
 40 39  1  0  0  0  0
 41 29  1  0  0  0  0
 41 42  1  0  0  0  0
 43 42  1  0  0  0  0
 44 43  1  0  0  0  0
 45 44  1  0  0  0  0
M  END
>  <MODEL>
8

>  <REMARK>
 VINA RESULT:      -6.2      2.738      5.048
  Name = 
  12 active torsions:
  status: ('A' for Active; 'I' for Inactive)
    1  A    between atoms: C_1  and  C_35
    2  A    between atoms: C_1  and  N_45
    3  A    between atoms: C_5  and  N_45
    4  A    between atoms: C_10  and  C_24
    5  A    between atoms: N_12  and  C_23
    6  A    between atoms: N_12  and  C_32
    7  A    between atoms: C_13  and  N_14
    8  A    between atoms: N_14  and  C_23
    9  A    between atoms: C_18  and  C_33
   10  A    between atoms: C_24  and  C_35
   11  A    between atoms: C_30  and  N_45
   12  A    between atoms: C_33  and  C_38
                            x       y       z     vdW  Elec       q    Type
                         _______ _______ _______ _____ _____    ______ ____

>  <TORSDO>
F 12

$$$$
=
 OpenBabel11072408563D

 45 50  0  0  1  0  0  0  0  0999 V2000
  189.5790  173.7080  139.4740 C   0  0  0  0  0  0  0  0  0  0  0  0
  194.4470  173.1560  140.6430 C   0  0  0  0  0  3  0  0  0  0  0  0
  193.9360  174.2000  141.6090 C   0  0  1  0  0  3  0  0  0  0  0  0
  189.1280  173.6870  142.7680 O   0  0  0  0  0  1  0  0  0  0  0  0
  192.2190  172.8750  139.6630 C   0  0  0  0  0  0  0  0  0  0  0  0
  192.4120  173.5650  142.4110 S   0  0  0  0  0  0  0  0  0  0  0  0
  190.2770  173.9050  140.7090 C   0  0  0  0  0  0  0  0  0  0  0  0
  193.6580  172.5830  139.7290 C   0  0  0  0  0  3  0  0  0  0  0  0
  191.5460  172.6880  138.5110 C   0  0  0  0  0  3  0  0  0  0  0  0
  189.3720  174.5470  141.6970 C   0  0  1  0  0  0  0  0  0  0  0  0
  190.1990  173.0790  138.3930 O   0  0  0  0  0  0  0  0  0  0  0  0
  188.0680  174.7520  140.8770 C   0  0  2  0  0  3  0  0  0  0  0  0
  188.3440  174.1610  139.5190 C   0  0  0  0  0  3  0  0  0  0  0  0
  191.5370  173.4780  140.8440 C   0  0  0  0  0  0  0  0  0  0  0  0
  189.9170  175.7360  142.1540 F   0  0  0  0  0  0  0  0  0  0  0  0
  187.7350  176.1650  140.7320 N   0  0  0  0  0  2  0  0  0  0  0  0
  185.7840  177.9460  140.7560 S   0  0  0  0  0  0  0  0  0  0  0  0
  186.6900  176.7880  141.4800 C   0  0  0  0  0  0  0  0  0  0  0  0
  186.4360  176.3840  142.8320 N   0  0  0  0  0  2  0  0  0  0  0  0
  187.2310  177.3700  146.9000 C   0  0  0  0  0  2  0  0  0  0  0  0
  185.6780  177.4070  144.9200 C   0  0  0  0  0  2  0  0  0  0  0  0
  186.8770  177.1330  143.9990 C   0  0  1  0  0  3  0  0  0  0  0  0
  188.0160  176.3880  144.7000 C   0  0  0  0  0  2  0  0  0  0  0  0
  185.8780  176.9120  146.3540 C   0  0  0  0  0  2  0  0  0  0  0  0
  188.3200  177.0320  145.9760 N   0  0  0  0  0  0  0  0  0  0  0  0
  190.6200  176.9580  145.5590 O   0  0  0  0  0  0  0  0  0  0  0  0
  190.0300  177.9130  147.6480 C   0  0  0  0  0  1  0  0  0  0  0  0
  189.6860  177.2770  146.3420 C   0  0  0  0  0  0  0  0  0  0  0  0
  194.9760  174.5680  142.5850 N   0  0  0  0  0  0  0  0  0  0  0  0
  194.1790  176.5280  146.7120 C   0  0  0  0  0  2  0  0  0  0  0  0
  194.6960  174.6430  145.0360 C   0  0  2  0  0  0  0  0  0  0  0  0
  195.3530  175.9470  144.6390 C   0  0  1  0  0  3  0  0  0  0  0  0
  194.3400  175.2900  143.6970 C   0  0  1  0  0  3  0  0  0  0  0  0
  193.4920  174.8870  146.3830 S   0  0  0  0  0  0  0  0  0  0  0  0
  194.6800  177.0760  145.3950 C   0  0  0  0  0  2  0  0  0  0  0  0
  195.7210  173.5020  145.1160 C   0  0  1  0  0  3  0  0  0  0  0  0
  196.8070  173.7910  146.1410 C   0  0  0  0  0  1  0  0  0  0  0  0
  193.9270  171.9460  144.9480 O   0  0  0  0  0  0  0  0  0  0  0  0
  195.0840  172.1770  145.3850 C   0  0  0  0  0  0  0  0  0  0  0  0
  195.7770  171.1670  146.1130 N   0  0  0  0  0  1  0  0  0  0  0  0
  195.8850  175.4990  141.9110 C   0  0  0  0  0  2  0  0  0  0  0  0
  197.3160  174.9890  141.9870 C   0  0  0  0  0  2  0  0  0  0  0  0
  197.9410  174.9510  140.6030 C   0  0  0  0  0  2  0  0  0  0  0  0
  197.0260  175.6140  139.5880 C   0  0  0  0  0  2  0  0  0  0  0  0
  197.4810  175.2960  138.1760 C   0  0  0  0  0  1  0  0  0  0  0  0
  1 13  2  0  0  0  0
  1  7  1  0  0  0  0
  2  3  1  0  0  0  0
  3  6  1  0  0  0  0
  3 29  1  1  0  0  0
  5  8  1  0  0  0  0
  5 14  1  0  0  0  0
  7 14  2  0  0  0  0
  7 10  1  0  0  0  0
  8  2  2  0  0  0  0
  9  5  2  0  0  0  0
 10 15  1  1  0  0  0
 10  4  1  0  0  0  0
 11  9  1  0  0  0  0
 11  1  1  0  0  0  0
 12 16  1  6  0  0  0
 12 10  1  0  0  0  0
 13 12  1  0  0  0  0
 14  6  1  0  0  0  0
 16 18  1  0  0  0  0
 17 18  2  0  0  0  0
 18 19  1  0  0  0  0
 21 24  1  0  0  0  0
 22 19  1  6  0  0  0
 22 23  1  0  0  0  0
 22 21  1  0  0  0  0
 23 25  1  0  0  0  0
 24 20  1  0  0  0  0
 25 28  1  0  0  0  0
 25 20  1  0  0  0  0
 26 28  2  0  0  0  0
 28 27  1  0  0  0  0
 31 36  1  6  0  0  0
 31 34  1  0  0  0  0
 32 31  1  0  0  0  0
 32 35  1  1  0  0  0
 33 29  1  6  0  0  0
 33 32  1  0  0  0  0
 33 31  1  0  0  0  0
 34 30  1  0  0  0  0
 35 30  1  0  0  0  0
 36 39  1  0  0  0  0
 36 37  1  1  0  0  0
 38 39  2  0  0  0  0
 39 40  1  0  0  0  0
 41 42  1  0  0  0  0
 41 29  1  0  0  0  0
 43 42  1  0  0  0  0
 44 43  1  0  0  0  0
 45 44  1  0  0  0  0
M  END
>  <MODEL>
9

>  <REMARK>
 VINA RESULT:      -6.0      2.107      5.334
  Name = 
  12 active torsions:
  status: ('A' for Active; 'I' for Inactive)
    1  A    between atoms: C_1  and  C_35
    2  A    between atoms: C_1  and  N_45
    3  A    between atoms: C_5  and  N_45
    4  A    between atoms: C_10  and  C_24
    5  A    between atoms: N_12  and  C_23
    6  A    between atoms: N_12  and  C_32
    7  A    between atoms: C_13  and  N_14
    8  A    between atoms: N_14  and  C_23
    9  A    between atoms: C_18  and  C_33
   10  A    between atoms: C_24  and  C_35
   11  A    between atoms: C_30  and  N_45
   12  A    between atoms: C_33  and  C_38
                            x       y       z     vdW  Elec       q    Type
                         _______ _______ _______ _____ _____    ______ ____

>  <TORSDO>
F 12

$$$$
