=
 OpenBabel11062422013D

 35 42  0  0  1  0  0  0  0  0999 V2000
  187.4800  175.7000  138.9660 C   0  0  0  0  0  0  0  0  0  0  0  0
  188.3810  175.5620  143.3610 O   0  0  0  0  0  0  0  0  0  0  0  0
  186.4150  177.6450  145.3980 C   0  0  1  0  0  3  0  0  0  0  0  0
  187.8160  174.4530  138.4520 C   0  0  0  0  0  3  0  0  0  0  0  0
  187.8900  176.0990  140.1950 C   0  0  0  0  0  0  0  0  0  0  0  0
  184.0660  178.3150  145.9900 C   0  0  0  0  0  2  0  0  0  0  0  0
  187.0190  178.0120  141.6920 C   0  0  0  0  0  2  0  0  0  0  0  0
  185.9770  178.8640  147.6300 C   0  0  0  0  0  2  0  0  0  0  0  0
  186.4460  177.4240  142.9770 C   0  0  1  0  0  3  0  0  0  0  0  0
  187.8630  177.3910  147.3510 O   0  0  0  0  0  0  0  0  0  0  0  0
  186.4450  176.5380  138.5030 N   0  0  0  0  0  2  0  0  0  0  0  0
  189.8350  173.1310  141.2790 C   0  0  0  0  0  3  0  0  0  0  0  0
  186.1780  177.5130  139.4210 O   0  0  0  0  0  0  0  0  0  0  0  0
  189.0340  177.3690  146.5910 C   0  0  1  0  0  3  0  0  0  0  0  0
  186.7480  176.9840  140.6050 C   0  0  1  0  0  3  0  0  0  0  0  0
  185.2200  178.4890  144.9940 C   0  0  2  0  0  3  0  0  0  0  0  0
  189.6700  171.4320  139.5480 C   0  0  0  0  0  0  0  0  0  0  0  0
  188.5420  176.6620  144.2260 C   0  0  1  0  0  3  0  0  0  0  0  0
  187.3440  177.6650  144.1870 C   0  0  2  0  0  3  0  0  0  0  0  0
  188.6280  173.6100  139.2220 C   0  0  0  0  0  0  0  0  0  0  0  0
  190.2810  177.1660  147.4600 C   0  0  0  0  0  2  0  0  0  0  0  0
  189.1020  174.0310  140.4970 C   0  0  0  0  0  0  0  0  0  0  0  0
  184.7660  178.0770  143.2860 S   0  0  0  0  0  0  0  0  0  0  0  0
  190.1200  171.8400  140.8100 C   0  0  0  0  0  3  0  0  0  0  0  0
  184.5800  178.2320  147.4430 C   0  0  0  0  0  2  0  0  0  0  0  0
  188.9190  172.3190  138.7670 C   0  0  0  0  0  3  0  0  0  0  0  0
  188.9870  176.1920  145.6180 C   0  0  1  0  0  3  0  0  0  0  0  0
  191.0980  176.2700  146.7210 O   0  0  0  0  0  0  0  0  0  0  0  0
  190.8860  174.8450  144.8990 O   0  0  0  0  0  0  0  0  0  0  0  0
  189.2560  175.8290  142.2990 C   0  0  0  0  0  2  0  0  0  0  0  0
  188.7190  175.2980  141.0010 C   0  0  0  0  0  0  0  0  0  0  0  0
  190.3910  175.7110  145.6740 C   0  0  0  0  0  0  0  0  0  0  0  0
  187.0310  178.2910  146.6590 C   0  0  1  0  0  3  0  0  0  0  0  0
  189.7010  169.7030  137.7820 C   0  0  0  0  0  1  0  0  0  0  0  0
  189.9750  170.1410  139.1060 O   0  0  0  0  0  0  0  0  0  0  0  0
  1  5  1  0  0  0  0
  2 18  1  0  0  0  0
  3 33  1  0  0  0  0
  4  1  2  0  0  0  0
  4 20  1  0  0  0  0
  5 15  1  0  0  0  0
  5 31  2  0  0  0  0
  6 25  1  0  0  0  0
  7  9  1  0  0  0  0
  9 23  1  0  0  0  0
  9 19  1  0  0  0  0
 11  1  1  0  0  0  0
 11 13  1  0  0  0  0
 13 15  1  0  0  0  0
 14 10  1  0  0  0  0
 14 21  1  0  0  0  0
 15  7  1  0  0  0  0
 16  3  1  0  0  0  0
 16  6  1  0  0  0  0
 17 24  2  0  0  0  0
 18 27  1  0  0  0  0
 19 18  1  0  0  0  0
 19  3  1  0  0  0  0
 20 22  1  0  0  0  0
 22 31  1  0  0  0  0
 22 12  2  0  0  0  0
 23 16  1  0  0  0  0
 24 12  1  0  0  0  0
 25  8  1  0  0  0  0
 26 20  2  0  0  0  0
 26 17  1  0  0  0  0
 27 32  1  0  0  0  0
 27 14  1  0  0  0  0
 28 21  1  0  0  0  0
 29 32  2  0  0  0  0
 30  2  1  0  0  0  0
 31 30  1  0  0  0  0
 32 28  1  0  0  0  0
 33 10  1  0  0  0  0
 33  8  1  0  0  0  0
 34 35  1  0  0  0  0
 35 17  1  0  0  0  0
M  END
>  <MODEL>
1

>  <REMARK>
 VINA RESULT:      -8.7      0.000      0.000
  Name = 
  1 active torsions:
  status: ('A' for Active; 'I' for Inactive)
    1  A    between atoms: C_18  and  O_26
                            x       y       z     vdW  Elec       q    Type
                         _______ _______ _______ _____ _____    ______ ____

>  <TORSDO>
F 1

$$$$
=
 OpenBabel11062422013D

 35 42  0  0  1  0  0  0  0  0999 V2000
  190.8690  175.9980  146.3240 C   0  0  0  0  0  0  0  0  0  0  0  0
  189.2310  174.1820  142.5610 O   0  0  0  0  0  0  0  0  0  0  0  0
  190.8100  171.2410  141.4620 C   0  0  1  0  0  3  0  0  0  0  0  0
  189.8150  176.6680  146.9340 C   0  0  0  0  0  3  0  0  0  0  0  0
  190.8010  175.5840  145.0350 C   0  0  0  0  0  0  0  0  0  0  0  0
  191.5690  168.9420  142.1350 C   0  0  0  0  0  2  0  0  0  0  0  0
  192.2420  173.8570  143.7710 C   0  0  0  0  0  2  0  0  0  0  0  0
  191.3090  169.4910  139.6310 C   0  0  0  0  0  2  0  0  0  0  0  0
  191.3630  172.6910  143.3320 C   0  0  1  0  0  3  0  0  0  0  0  0
  189.7590  171.2970  139.2550 O   0  0  0  0  0  0  0  0  0  0  0  0
  191.9420  175.3630  146.9830 N   0  0  0  0  0  2  0  0  0  0  0  0
  187.4080  176.7610  144.1040 C   0  0  0  0  0  3  0  0  0  0  0  0
  192.6050  174.5360  146.1210 O   0  0  0  0  0  0  0  0  0  0  0  0
  189.8190  172.6880  139.1630 C   0  0  1  0  0  3  0  0  0  0  0  0
  191.6570  174.3510  145.0840 C   0  0  1  0  0  3  0  0  0  0  0  0
  191.8910  170.4410  142.1650 C   0  0  2  0  0  3  0  0  0  0  0  0
  186.3810  177.7700  146.0630 C   0  0  0  0  0  0  0  0  0  0  0  0
  189.9690  173.7220  141.4530 C   0  0  1  0  0  3  0  0  0  0  0  0
  191.0850  172.6960  141.8320 C   0  0  2  0  0  3  0  0  0  0  0  0
  188.6710  176.9430  146.1750 C   0  0  0  0  0  0  0  0  0  0  0  0
  189.1860  173.2090  137.8670 C   0  0  0  0  0  2  0  0  0  0  0  0
  188.5990  176.5520  144.8080 C   0  0  0  0  0  0  0  0  0  0  0  0
  192.1050  171.1010  143.8420 S   0  0  0  0  0  0  0  0  0  0  0  0
  186.3050  177.3670  144.7240 C   0  0  0  0  0  3  0  0  0  0  0  0
  190.9630  168.5180  140.7800 C   0  0  0  0  0  2  0  0  0  0  0  0
  187.5630  177.5450  146.7820 C   0  0  0  0  0  3  0  0  0  0  0  0
  189.0280  173.3090  140.3130 C   0  0  1  0  0  3  0  0  0  0  0  0
  188.4670  174.3700  138.2540 O   0  0  0  0  0  0  0  0  0  0  0  0
  187.7330  175.3710  140.2170 O   0  0  0  0  0  0  0  0  0  0  0  0
  189.6980  175.4860  142.7680 C   0  0  0  0  0  2  0  0  0  0  0  0
  189.6820  175.8490  144.2250 C   0  0  0  0  0  0  0  0  0  0  0  0
  188.3690  174.4510  139.6290 C   0  0  0  0  0  0  0  0  0  0  0  0
  190.9350  170.9550  139.9480 C   0  0  1  0  0  3  0  0  0  0  0  0
  184.0800  178.6590  145.9230 C   0  0  0  0  0  1  0  0  0  0  0  0
  185.2660  178.3750  146.6520 O   0  0  0  0  0  0  0  0  0  0  0  0
  1  4  1  0  0  0  0
  1 11  1  0  0  0  0
  2 30  1  0  0  0  0
  3 19  1  0  0  0  0
  3 16  1  0  0  0  0
  5 15  1  0  0  0  0
  5  1  2  0  0  0  0
  6 16  1  0  0  0  0
  7 15  1  0  0  0  0
  8 33  1  0  0  0  0
  8 25  1  0  0  0  0
  9  7  1  0  0  0  0
  9 23  1  0  0  0  0
 10 33  1  0  0  0  0
 12 24  2  0  0  0  0
 12 22  1  0  0  0  0
 13 11  1  0  0  0  0
 14 10  1  0  0  0  0
 14 27  1  0  0  0  0
 15 13  1  0  0  0  0
 16 23  1  0  0  0  0
 17 35  1  0  0  0  0
 17 26  2  0  0  0  0
 18 19  1  0  0  0  0
 18  2  1  0  0  0  0
 19  9  1  0  0  0  0
 20 26  1  0  0  0  0
 20  4  2  0  0  0  0
 21 28  1  0  0  0  0
 21 14  1  0  0  0  0
 22 20  1  0  0  0  0
 24 17  1  0  0  0  0
 25  6  1  0  0  0  0
 27 18  1  0  0  0  0
 28 32  1  0  0  0  0
 30 31  1  0  0  0  0
 31 22  2  0  0  0  0
 31  5  1  0  0  0  0
 32 29  2  0  0  0  0
 32 27  1  0  0  0  0
 33  3  1  0  0  0  0
 34 35  1  0  0  0  0
M  END
>  <MODEL>
2

>  <REMARK>
 VINA RESULT:      -8.6      3.043      8.784
  Name = 
  1 active torsions:
  status: ('A' for Active; 'I' for Inactive)
    1  A    between atoms: C_18  and  O_26
                            x       y       z     vdW  Elec       q    Type
                         _______ _______ _______ _____ _____    ______ ____

>  <TORSDO>
F 1

$$$$
=
 OpenBabel11062422013D

 35 42  0  0  1  0  0  0  0  0999 V2000
  187.6370  177.7810  144.7910 C   0  0  0  0  0  0  0  0  0  0  0  0
  187.6750  175.2130  141.1110 O   0  0  0  0  0  0  0  0  0  0  0  0
  189.9060  172.4970  141.1560 C   0  0  1  0  0  3  0  0  0  0  0  0
  186.3580  178.3180  144.8880 C   0  0  0  0  0  3  0  0  0  0  0  0
  188.0800  177.1950  143.6510 C   0  0  0  0  0  0  0  0  0  0  0  0
  190.6710  170.4890  142.4590 C   0  0  0  0  0  2  0  0  0  0  0  0
  190.0840  175.6150  143.2730 C   0  0  0  0  0  2  0  0  0  0  0  0
  191.2390  170.6440  139.9500 C   0  0  0  0  0  2  0  0  0  0  0  0
  189.5730  174.2590  142.7980 C   0  0  1  0  0  3  0  0  0  0  0  0
  189.6990  172.0660  138.7590 O   0  0  0  0  0  0  0  0  0  0  0  0
  188.4830  177.4490  145.8700 N   0  0  0  0  0  2  0  0  0  0  0  0
  185.1090  177.5890  141.4640 C   0  0  0  0  0  3  0  0  0  0  0  0
  189.5070  176.6540  145.4410 O   0  0  0  0  0  0  0  0  0  0  0  0
  189.6080  173.4190  138.4320 C   0  0  1  0  0  3  0  0  0  0  0  0
  189.0160  176.1600  144.2070 C   0  0  1  0  0  3  0  0  0  0  0  0
  190.7650  172.0120  142.3100 C   0  0  2  0  0  3  0  0  0  0  0  0
  183.3380  178.6390  142.7580 C   0  0  0  0  0  0  0  0  0  0  0  0
  188.8080  174.7550  140.4100 C   0  0  1  0  0  3  0  0  0  0  0  0
  189.8430  174.0130  141.3160 C   0  0  2  0  0  3  0  0  0  0  0  0
  185.5290  178.2730  143.7610 C   0  0  0  0  0  0  0  0  0  0  0  0
  189.4090  173.6380  136.9280 C   0  0  0  0  0  2  0  0  0  0  0  0
  185.9930  177.6990  142.5440 C   0  0  0  0  0  0  0  0  0  0  0  0
  190.2880  172.9150  143.8100 S   0  0  0  0  0  0  0  0  0  0  0  0
  183.7900  178.0550  141.5670 C   0  0  0  0  0  3  0  0  0  0  0  0
  190.6400  169.7850  141.0860 C   0  0  0  0  0  2  0  0  0  0  0  0
  184.2100  178.7340  143.8500 C   0  0  0  0  0  3  0  0  0  0  0  0
  188.3900  174.0290  139.1250 C   0  0  1  0  0  3  0  0  0  0  0  0
  188.4560  174.6860  136.8350 O   0  0  0  0  0  0  0  0  0  0  0  0
  186.9560  175.7840  138.2280 O   0  0  0  0  0  0  0  0  0  0  0  0
  187.8670  176.5970  141.2100 C   0  0  0  0  0  2  0  0  0  0  0  0
  187.2930  177.1390  142.4880 C   0  0  0  0  0  0  0  0  0  0  0  0
  187.8710  174.9280  138.0620 C   0  0  0  0  0  0  0  0  0  0  0  0
  190.5910  172.0420  139.8480 C   0  0  1  0  0  3  0  0  0  0  0  0
  181.0820  178.8870  141.7800 C   0  0  0  0  0  1  0  0  0  0  0  0
  182.0190  179.0980  142.8270 O   0  0  0  0  0  0  0  0  0  0  0  0
  1  4  1  0  0  0  0
  1 11  1  0  0  0  0
  2 30  1  0  0  0  0
  3 19  1  0  0  0  0
  3 16  1  0  0  0  0
  5 15  1  0  0  0  0
  5  1  2  0  0  0  0
  7 15  1  0  0  0  0
  8 25  1  0  0  0  0
  9  7  1  0  0  0  0
  9 23  1  0  0  0  0
 10 33  1  0  0  0  0
 12 24  2  0  0  0  0
 12 22  1  0  0  0  0
 13 11  1  0  0  0  0
 14 10  1  0  0  0  0
 14 27  1  0  0  0  0
 15 13  1  0  0  0  0
 16  6  1  0  0  0  0
 16 23  1  0  0  0  0
 17 35  1  0  0  0  0
 17 26  2  0  0  0  0
 18  2  1  0  0  0  0
 18 19  1  0  0  0  0
 19  9  1  0  0  0  0
 20 26  1  0  0  0  0
 20  4  2  0  0  0  0
 21 14  1  0  0  0  0
 22 20  1  0  0  0  0
 24 17  1  0  0  0  0
 25  6  1  0  0  0  0
 27 18  1  0  0  0  0
 28 21  1  0  0  0  0
 28 32  1  0  0  0  0
 30 31  1  0  0  0  0
 31 22  2  0  0  0  0
 31  5  1  0  0  0  0
 32 29  2  0  0  0  0
 32 27  1  0  0  0  0
 33  8  1  0  0  0  0
 33  3  1  0  0  0  0
 34 35  1  0  0  0  0
M  END
>  <MODEL>
3

>  <REMARK>
 VINA RESULT:      -8.5      2.805      8.221
  Name = 
  1 active torsions:
  status: ('A' for Active; 'I' for Inactive)
    1  A    between atoms: C_18  and  O_26
                            x       y       z     vdW  Elec       q    Type
                         _______ _______ _______ _____ _____    ______ ____

>  <TORSDO>
F 1

$$$$
=
 OpenBabel11062422013D

 35 42  0  0  1  0  0  0  0  0999 V2000
  190.9380  176.7330  146.5560 C   0  0  0  0  0  0  0  0  0  0  0  0
  189.8210  174.2930  142.9590 O   0  0  0  0  0  0  0  0  0  0  0  0
  192.0460  171.7100  142.1050 C   0  0  1  0  0  3  0  0  0  0  0  0
  189.7480  177.1930  147.1100 C   0  0  0  0  0  3  0  0  0  0  0  0
  190.9880  176.2110  145.3060 C   0  0  0  0  0  0  0  0  0  0  0  0
  193.2970  169.7070  142.9660 C   0  0  0  0  0  2  0  0  0  0  0  0
  192.8060  174.7620  144.1880 C   0  0  0  0  0  2  0  0  0  0  0  0
  192.9630  169.9770  140.4250 C   0  0  0  0  0  2  0  0  0  0  0  0
  192.2220  173.3950  143.8480 C   0  0  1  0  0  3  0  0  0  0  0  0
  191.0490  171.3460  139.9030 O   0  0  0  0  0  0  0  0  0  0  0  0
  192.1150  176.4160  147.2640 N   0  0  0  0  0  2  0  0  0  0  0  0
  187.4330  176.5050  144.2840 C   0  0  0  0  0  3  0  0  0  0  0  0
  192.9630  175.6940  146.4730 O   0  0  0  0  0  0  0  0  0  0  0  0
  190.7940  172.7020  139.6950 C   0  0  1  0  0  3  0  0  0  0  0  0
  192.1010  175.2140  145.4560 C   0  0  1  0  0  3  0  0  0  0  0  0
  193.2690  171.2370  142.8710 C   0  0  2  0  0  3  0  0  0  0  0  0
  186.1700  177.4090  146.1550 C   0  0  0  0  0  0  0  0  0  0  0  0
  190.6640  173.9250  141.8910 C   0  0  1  0  0  3  0  0  0  0  0  0
  191.9780  173.2140  142.3530 C   0  0  2  0  0  3  0  0  0  0  0  0
  188.5850  177.1370  146.3320 C   0  0  0  0  0  0  0  0  0  0  0  0
  190.0820  172.9580  138.3620 C   0  0  0  0  0  2  0  0  0  0  0  0
  188.6280  176.6310  145.0020 C   0  0  0  0  0  0  0  0  0  0  0  0
  193.2980  172.0620  144.4870 S   0  0  0  0  0  0  0  0  0  0  0  0
  186.2110  176.8910  144.8540 C   0  0  0  0  0  3  0  0  0  0  0  0
  192.8270  169.0480  141.6520 C   0  0  0  0  0  2  0  0  0  0  0  0
  187.3580  177.5190  146.8880 C   0  0  0  0  0  3  0  0  0  0  0  0
  189.8620  173.2180  140.7910 C   0  0  1  0  0  3  0  0  0  0  0  0
  189.1110  173.9520  138.6520 O   0  0  0  0  0  0  0  0  0  0  0  0
  188.1340  174.9160  140.5260 O   0  0  0  0  0  0  0  0  0  0  0  0
  189.9760  175.6820  143.0560 C   0  0  0  0  0  2  0  0  0  0  0  0
  189.8530  176.1480  144.4780 C   0  0  0  0  0  0  0  0  0  0  0  0
  188.9720  174.1200  140.0150 C   0  0  0  0  0  0  0  0  0  0  0  0
  192.2600  171.3380  140.6210 C   0  0  1  0  0  3  0  0  0  0  0  0
  184.0470  178.6660  146.0140 C   0  0  0  0  0  1  0  0  0  0  0  0
  184.9370  177.7900  146.6930 O   0  0  0  0  0  0  0  0  0  0  0  0
  1  4  1  0  0  0  0
  1 11  1  0  0  0  0
  2 30  1  0  0  0  0
  3 19  1  0  0  0  0
  3 16  1  0  0  0  0
  5 15  1  0  0  0  0
  5  1  2  0  0  0  0
  7 15  1  0  0  0  0
  8 33  1  0  0  0  0
  8 25  1  0  0  0  0
  9  7  1  0  0  0  0
  9 23  1  0  0  0  0
 10 33  1  0  0  0  0
 12 24  2  0  0  0  0
 12 22  1  0  0  0  0
 13 11  1  0  0  0  0
 14 10  1  0  0  0  0
 14 27  1  0  0  0  0
 15 13  1  0  0  0  0
 16  6  1  0  0  0  0
 16 23  1  0  0  0  0
 17 35  1  0  0  0  0
 17 26  2  0  0  0  0
 18 19  1  0  0  0  0
 18  2  1  0  0  0  0
 19  9  1  0  0  0  0
 20 26  1  0  0  0  0
 20  4  2  0  0  0  0
 21 28  1  0  0  0  0
 21 14  1  0  0  0  0
 22 20  1  0  0  0  0
 24 17  1  0  0  0  0
 25  6  1  0  0  0  0
 27 18  1  0  0  0  0
 28 32  1  0  0  0  0
 30 31  1  0  0  0  0
 31 22  2  0  0  0  0
 31  5  1  0  0  0  0
 32 29  2  0  0  0  0
 32 27  1  0  0  0  0
 33  3  1  0  0  0  0
 34 35  1  0  0  0  0
M  END
>  <MODEL>
4

>  <REMARK>
 VINA RESULT:      -8.5      3.303      8.818
  Name = 
  1 active torsions:
  status: ('A' for Active; 'I' for Inactive)
    1  A    between atoms: C_18  and  O_26
                            x       y       z     vdW  Elec       q    Type
                         _______ _______ _______ _____ _____    ______ ____

>  <TORSDO>
F 1

$$$$
=
 OpenBabel11062422013D

 35 42  0  0  1  0  0  0  0  0999 V2000
  189.2160  173.7900  140.1200 C   0  0  0  0  0  0  0  0  0  0  0  0
  189.3110  174.9310  144.4590 O   0  0  0  0  0  0  0  0  0  0  0  0
  186.9270  177.3050  145.4750 C   0  0  1  0  0  3  0  0  0  0  0  0
  189.6890  172.4850  140.0420 C   0  0  0  0  0  3  0  0  0  0  0  0
  189.3810  174.5420  141.2360 C   0  0  0  0  0  0  0  0  0  0  0  0
  184.4850  177.9000  145.4630 C   0  0  0  0  0  2  0  0  0  0  0  0
  188.1780  176.7040  141.9670 C   0  0  0  0  0  2  0  0  0  0  0  0
  186.0440  179.0410  147.1690 C   0  0  0  0  0  2  0  0  0  0  0  0
  187.4050  176.4390  143.2550 C   0  0  1  0  0  3  0  0  0  0  0  0
  188.0070  177.7210  147.6290 O   0  0  0  0  0  0  0  0  0  0  0  0
  188.2490  174.3750  139.2760 N   0  0  0  0  0  2  0  0  0  0  0  0
  191.2130  172.1650  143.4160 C   0  0  0  0  0  3  0  0  0  0  0  0
  187.7820  175.5350  139.8240 O   0  0  0  0  0  0  0  0  0  0  0  0
  189.2960  177.5970  147.1080 C   0  0  1  0  0  3  0  0  0  0  0  0
  188.1490  175.4000  141.1870 C   0  0  1  0  0  3  0  0  0  0  0  0
  185.7920  177.8980  144.6610 C   0  0  2  0  0  3  0  0  0  0  0  0
  191.4320  170.0520  142.2340 C   0  0  0  0  0  0  0  0  0  0  0  0
  189.2690  176.2340  144.9930 C   0  0  1  0  0  3  0  0  0  0  0  0
  188.0590  177.0780  144.4770 C   0  0  2  0  0  3  0  0  0  0  0  0
  190.3800  171.9580  141.1400 C   0  0  0  0  0  0  0  0  0  0  0  0
  190.3720  177.7490  148.1900 C   0  0  0  0  0  2  0  0  0  0  0  0
  190.5980  172.7490  142.3030 C   0  0  0  0  0  0  0  0  0  0  0  0
  185.6730  177.0000  143.0890 S   0  0  0  0  0  0  0  0  0  0  0  0
  191.6280  170.8250  143.3850 C   0  0  0  0  0  3  0  0  0  0  0  0
  184.7300  178.2610  146.9440 C   0  0  0  0  0  2  0  0  0  0  0  0
  190.7990  170.6230  141.1220 C   0  0  0  0  0  3  0  0  0  0  0  0
  189.4720  176.2010  146.5130 C   0  0  1  0  0  3  0  0  0  0  0  0
  191.3440  176.7620  147.8780 O   0  0  0  0  0  0  0  0  0  0  0  0
  191.5220  174.8830  146.5240 O   0  0  0  0  0  0  0  0  0  0  0  0
  190.3520  174.9760  143.5230 C   0  0  0  0  0  2  0  0  0  0  0  0
  190.0800  174.0670  142.3590 C   0  0  0  0  0  0  0  0  0  0  0  0
  190.8610  175.8800  146.9310 C   0  0  0  0  0  0  0  0  0  0  0  0
  187.2790  178.3210  146.5850 C   0  0  1  0  0  3  0  0  0  0  0  0
  192.9120  168.2580  143.0700 C   0  0  0  0  0  1  0  0  0  0  0  0
  191.8620  168.7210  142.2320 O   0  0  0  0  0  0  0  0  0  0  0  0
  1  5  1  0  0  0  0
  2 18  1  0  0  0  0
  3 33  1  0  0  0  0
  4  1  2  0  0  0  0
  4 20  1  0  0  0  0
  5 31  2  0  0  0  0
  6 25  1  0  0  0  0
  7  9  1  0  0  0  0
  9 19  1  0  0  0  0
 11 13  1  0  0  0  0
 11  1  1  0  0  0  0
 13 15  1  0  0  0  0
 14 10  1  0  0  0  0
 14 21  1  0  0  0  0
 15  5  1  0  0  0  0
 15  7  1  0  0  0  0
 16  6  1  0  0  0  0
 16  3  1  0  0  0  0
 17 24  2  0  0  0  0
 18 27  1  0  0  0  0
 19 18  1  0  0  0  0
 19  3  1  0  0  0  0
 20 22  1  0  0  0  0
 22 31  1  0  0  0  0
 22 12  2  0  0  0  0
 23  9  1  0  0  0  0
 23 16  1  0  0  0  0
 24 12  1  0  0  0  0
 25  8  1  0  0  0  0
 26 20  2  0  0  0  0
 26 17  1  0  0  0  0
 27 32  1  0  0  0  0
 27 14  1  0  0  0  0
 28 21  1  0  0  0  0
 29 32  2  0  0  0  0
 30  2  1  0  0  0  0
 31 30  1  0  0  0  0
 32 28  1  0  0  0  0
 33  8  1  0  0  0  0
 33 10  1  0  0  0  0
 35 17  1  0  0  0  0
 35 34  1  0  0  0  0
M  END
>  <MODEL>
5

>  <REMARK>
 VINA RESULT:      -8.4      1.794      2.326
  Name = 
  1 active torsions:
  status: ('A' for Active; 'I' for Inactive)
    1  A    between atoms: C_18  and  O_26
                            x       y       z     vdW  Elec       q    Type
                         _______ _______ _______ _____ _____    ______ ____

>  <TORSDO>
F 1

$$$$
=
 OpenBabel11062422013D

 35 42  0  0  1  0  0  0  0  0999 V2000
  189.2970  172.5550  139.8970 C   0  0  0  0  0  0  0  0  0  0  0  0
  188.7480  175.8800  142.8600 O   0  0  0  0  0  0  0  0  0  0  0  0
  190.8640  175.8020  145.6650 C   0  0  1  0  0  3  0  0  0  0  0  0
  188.9240  173.0610  138.6570 C   0  0  0  0  0  3  0  0  0  0  0  0
  188.9840  173.1930  141.0510 C   0  0  0  0  0  0  0  0  0  0  0  0
  193.2500  175.6300  146.4340 C   0  0  0  0  0  2  0  0  0  0  0  0
  189.9660  172.9070  143.4200 C   0  0  0  0  0  2  0  0  0  0  0  0
  191.4750  176.5510  148.0590 C   0  0  0  0  0  2  0  0  0  0  0  0
  190.6420  174.2060  143.8460 C   0  0  1  0  0  3  0  0  0  0  0  0
  189.5760  177.4750  146.8980 O   0  0  0  0  0  0  0  0  0  0  0  0
  190.2900  171.5810  140.1320 N   0  0  0  0  0  2  0  0  0  0  0  0
  187.1410  176.1350  139.7440 C   0  0  0  0  0  3  0  0  0  0  0  0
  190.6260  171.5580  141.4550 O   0  0  0  0  0  0  0  0  0  0  0  0
  188.3480  177.0110  146.4220 C   0  0  1  0  0  3  0  0  0  0  0  0
  190.1530  172.8120  141.9150 C   0  0  1  0  0  3  0  0  0  0  0  0
  192.0210  174.8590  145.9380 C   0  0  2  0  0  3  0  0  0  0  0  0
  187.1720  176.0430  137.3150 C   0  0  0  0  0  0  0  0  0  0  0  0
  188.6530  175.7590  144.2610 C   0  0  1  0  0  3  0  0  0  0  0  0
  189.8410  174.9680  144.8980 C   0  0  2  0  0  3  0  0  0  0  0  0
  188.1790  174.2470  138.6170 C   0  0  0  0  0  0  0  0  0  0  0  0
  187.1740  177.8530  146.9370 C   0  0  0  0  0  2  0  0  0  0  0  0
  187.8070  174.9070  139.8220 C   0  0  0  0  0  0  0  0  0  0  0  0
  192.3380  173.8800  144.4430 S   0  0  0  0  0  0  0  0  0  0  0  0
  186.8230  176.7020  138.5010 C   0  0  0  0  0  3  0  0  0  0  0  0
  192.8540  176.7680  147.3990 C   0  0  0  0  0  2  0  0  0  0  0  0
  187.8570  174.8230  137.3830 C   0  0  0  0  0  3  0  0  0  0  0  0
  188.3210  177.1150  144.8980 C   0  0  1  0  0  3  0  0  0  0  0  0
  186.3050  177.9840  145.8220 O   0  0  0  0  0  0  0  0  0  0  0  0
  186.3750  177.6350  143.5270 O   0  0  0  0  0  0  0  0  0  0  0  0
  187.7910  174.9820  142.3710 C   0  0  0  0  0  2  0  0  0  0  0  0
  188.2250  174.3760  141.0670 C   0  0  0  0  0  0  0  0  0  0  0  0
  186.9280  177.5700  144.6620 C   0  0  0  0  0  0  0  0  0  0  0  0
  190.3480  176.3060  147.0320 C   0  0  1  0  0  3  0  0  0  0  0  0
  187.8050  177.2380  135.2470 C   0  0  0  0  0  1  0  0  0  0  0  0
  186.8370  176.6310  136.0910 O   0  0  0  0  0  0  0  0  0  0  0  0
  1 11  1  0  0  0  0
  1  5  1  0  0  0  0
  2 18  1  0  0  0  0
  3 16  1  0  0  0  0
  3 33  1  0  0  0  0
  4  1  2  0  0  0  0
  5 31  2  0  0  0  0
  5 15  1  0  0  0  0
  6 25  1  0  0  0  0
  7  9  1  0  0  0  0
  9 23  1  0  0  0  0
  9 19  1  0  0  0  0
 10 33  1  0  0  0  0
 11 13  1  0  0  0  0
 12 22  1  0  0  0  0
 13 15  1  0  0  0  0
 14 10  1  0  0  0  0
 14 21  1  0  0  0  0
 15  7  1  0  0  0  0
 16  6  1  0  0  0  0
 17 26  2  0  0  0  0
 17 24  1  0  0  0  0
 18 19  1  0  0  0  0
 18 27  1  0  0  0  0
 19  3  1  0  0  0  0
 20  4  1  0  0  0  0
 20 22  2  0  0  0  0
 22 31  1  0  0  0  0
 23 16  1  0  0  0  0
 24 12  2  0  0  0  0
 25  8  1  0  0  0  0
 26 20  1  0  0  0  0
 27 14  1  0  0  0  0
 28 21  1  0  0  0  0
 29 32  2  0  0  0  0
 30  2  1  0  0  0  0
 31 30  1  0  0  0  0
 32 27  1  0  0  0  0
 32 28  1  0  0  0  0
 33  8  1  0  0  0  0
 34 35  1  0  0  0  0
 35 17  1  0  0  0  0
M  END
>  <MODEL>
6

>  <REMARK>
 VINA RESULT:      -8.3      2.533      5.182
  Name = 
  1 active torsions:
  status: ('A' for Active; 'I' for Inactive)
    1  A    between atoms: C_18  and  O_26
                            x       y       z     vdW  Elec       q    Type
                         _______ _______ _______ _____ _____    ______ ____

>  <TORSDO>
F 1

$$$$
=
 OpenBabel11062422013D

 35 42  0  0  1  0  0  0  0  0999 V2000
  188.4140  174.5040  141.4640 C   0  0  0  0  0  0  0  0  0  0  0  0
  192.3370  175.5190  143.3940 O   0  0  0  0  0  0  0  0  0  0  0  0
  195.2050  174.9040  141.4580 C   0  0  1  0  0  3  0  0  0  0  0  0
  187.4670  175.3610  142.0130 C   0  0  0  0  0  3  0  0  0  0  0  0
  189.6380  174.3400  142.0240 C   0  0  0  0  0  0  0  0  0  0  0  0
  196.3010  175.2910  139.2300 C   0  0  0  0  0  2  0  0  0  0  0  0
  191.7970  173.3450  141.0230 C   0  0  0  0  0  2  0  0  0  0  0  0
  197.7560  174.5800  141.2350 C   0  0  0  0  0  2  0  0  0  0  0  0
  192.8720  174.4250  140.9690 C   0  0  1  0  0  3  0  0  0  0  0  0
  196.7410  175.1610  143.3420 O   0  0  0  0  0  0  0  0  0  0  0  0
  188.4060  173.9890  140.1510 N   0  0  0  0  0  2  0  0  0  0  0  0
  189.3780  176.6140  144.9450 C   0  0  0  0  0  3  0  0  0  0  0  0
  189.6280  173.4620  139.8420 O   0  0  0  0  0  0  0  0  0  0  0  0
  195.8690  174.5610  144.2520 C   0  0  1  0  0  3  0  0  0  0  0  0
  190.4740  174.0610  140.8080 C   0  0  1  0  0  3  0  0  0  0  0  0
  195.2770  174.4570  140.0090 C   0  0  2  0  0  3  0  0  0  0  0  0
  187.2130  177.7160  144.8680 C   0  0  0  0  0  0  0  0  0  0  0  0
  193.4940  174.7160  143.4330 C   0  0  1  0  0  3  0  0  0  0  0  0
  193.9590  174.2270  142.0230 C   0  0  2  0  0  3  0  0  0  0  0  0
  187.7890  176.0430  143.1940 C   0  0  0  0  0  0  0  0  0  0  0  0
  196.4400  174.5440  145.6740 C   0  0  0  0  0  2  0  0  0  0  0  0
  189.0540  175.8500  143.8170 C   0  0  0  0  0  0  0  0  0  0  0  0
  193.6080  174.5150  139.2990 S   0  0  0  0  0  0  0  0  0  0  0  0
  188.4660  177.5410  145.4700 C   0  0  0  0  0  3  0  0  0  0  0  0
  197.5570  175.5840  140.0780 C   0  0  0  0  0  2  0  0  0  0  0  0
  186.8880  176.9710  143.7280 C   0  0  0  0  0  3  0  0  0  0  0  0
  194.5690  175.3630  144.3150 C   0  0  1  0  0  3  0  0  0  0  0  0
  195.3380  174.8570  146.5130 O   0  0  0  0  0  0  0  0  0  0  0  0
  193.1870  175.7060  146.2910 O   0  0  0  0  0  0  0  0  0  0  0  0
  191.3210  174.6820  143.8720 C   0  0  0  0  0  2  0  0  0  0  0  0
  190.0050  174.9880  143.2170 C   0  0  0  0  0  0  0  0  0  0  0  0
  194.2700  175.3170  145.7680 C   0  0  0  0  0  0  0  0  0  0  0  0
  196.5150  174.4560  142.1450 C   0  0  1  0  0  3  0  0  0  0  0  0
  185.5660  179.5420  144.6180 C   0  0  0  0  0  1  0  0  0  0  0  0
  186.3230  178.6440  145.4180 O   0  0  0  0  0  0  0  0  0  0  0  0
  1  4  2  0  0  0  0
  1  5  1  0  0  0  0
  2 18  1  0  0  0  0
  2 30  1  0  0  0  0
  3 19  1  0  0  0  0
  3 33  1  0  0  0  0
  4 20  1  0  0  0  0
  5 31  2  0  0  0  0
  6 16  1  0  0  0  0
  6 25  1  0  0  0  0
  8 33  1  0  0  0  0
  9  7  1  0  0  0  0
  9 19  1  0  0  0  0
 10 14  1  0  0  0  0
 11  1  1  0  0  0  0
 12 24  1  0  0  0  0
 13 11  1  0  0  0  0
 13 15  1  0  0  0  0
 14 27  1  0  0  0  0
 14 21  1  0  0  0  0
 15  7  1  0  0  0  0
 15  5  1  0  0  0  0
 16  3  1  0  0  0  0
 17 35  1  0  0  0  0
 17 24  2  0  0  0  0
 18 27  1  0  0  0  0
 19 18  1  0  0  0  0
 20 26  2  0  0  0  0
 20 22  1  0  0  0  0
 21 28  1  0  0  0  0
 22 12  2  0  0  0  0
 23 16  1  0  0  0  0
 23  9  1  0  0  0  0
 25  8  1  0  0  0  0
 26 17  1  0  0  0  0
 27 32  1  0  0  0  0
 31 22  1  0  0  0  0
 31 30  1  0  0  0  0
 32 29  2  0  0  0  0
 32 28  1  0  0  0  0
 33 10  1  0  0  0  0
 34 35  1  0  0  0  0
M  END
>  <MODEL>
7

>  <REMARK>
 VINA RESULT:      -8.1      4.403      7.992
  Name = 
  1 active torsions:
  status: ('A' for Active; 'I' for Inactive)
    1  A    between atoms: C_18  and  O_26
                            x       y       z     vdW  Elec       q    Type
                         _______ _______ _______ _____ _____    ______ ____

>  <TORSDO>
F 1

$$$$
=
 OpenBabel11062422013D

 35 42  0  0  1  0  0  0  0  0999 V2000
  190.4640  170.9190  140.2470 C   0  0  0  0  0  0  0  0  0  0  0  0
  189.2090  174.7490  142.2220 O   0  0  0  0  0  0  0  0  0  0  0  0
  190.6050  175.3740  145.3860 C   0  0  1  0  0  3  0  0  0  0  0  0
  190.3900  171.1360  138.8760 C   0  0  0  0  0  3  0  0  0  0  0  0
  189.8830  171.7640  141.1350 C   0  0  0  0  0  0  0  0  0  0  0  0
  192.7440  175.5010  146.6990 C   0  0  0  0  0  2  0  0  0  0  0  0
  190.2810  172.0300  143.6700 C   0  0  0  0  0  2  0  0  0  0  0  0
  190.6290  176.6360  147.6380 C   0  0  0  0  0  2  0  0  0  0  0  0
  190.8280  173.4260  143.9500 C   0  0  1  0  0  3  0  0  0  0  0  0
  189.0510  177.1900  145.9030 O   0  0  0  0  0  0  0  0  0  0  0  0
  191.3800  170.0740  140.9070 N   0  0  0  0  0  2  0  0  0  0  0  0
  188.3790  174.2620  138.8410 C   0  0  0  0  0  3  0  0  0  0  0  0
  191.3950  170.3440  142.2450 O   0  0  0  0  0  0  0  0  0  0  0  0
  187.9740  176.5680  145.2700 C   0  0  1  0  0  3  0  0  0  0  0  0
  190.8180  171.6370  142.3040 C   0  0  1  0  0  3  0  0  0  0  0  0
  191.6720  174.5750  146.1120 C   0  0  2  0  0  3  0  0  0  0  0  0
  188.9830  173.6710  136.5610 C   0  0  0  0  0  0  0  0  0  0  0  0
  188.7880  174.9150  143.5560 C   0  0  1  0  0  3  0  0  0  0  0  0
  189.7980  174.3430  144.6030 C   0  0  2  0  0  3  0  0  0  0  0  0
  189.6680  172.2430  138.4130 C   0  0  0  0  0  0  0  0  0  0  0  0
  186.7060  177.4300  145.3090 C   0  0  0  0  0  2  0  0  0  0  0  0
  189.0170  173.1160  139.3300 C   0  0  0  0  0  0  0  0  0  0  0  0
  192.3390  173.3280  144.9750 S   0  0  0  0  0  0  0  0  0  0  0  0
  188.3600  174.5400  137.4660 C   0  0  0  0  0  3  0  0  0  0  0  0
  192.1240  176.7900  147.2800 C   0  0  0  0  0  2  0  0  0  0  0  0
  189.6410  172.5320  137.0440 C   0  0  0  0  0  3  0  0  0  0  0  0
  188.3060  176.3520  143.7940 C   0  0  1  0  0  3  0  0  0  0  0  0
  186.1220  177.2780  144.0240 O   0  0  0  0  0  0  0  0  0  0  0  0
  186.7340  176.4660  141.9360 O   0  0  0  0  0  0  0  0  0  0  0  0
  188.4010  173.7160  141.7310 C   0  0  0  0  0  2  0  0  0  0  0  0
  189.1340  172.8790  140.7220 C   0  0  0  0  0  0  0  0  0  0  0  0
  187.0040  176.6690  143.1540 C   0  0  0  0  0  0  0  0  0  0  0  0
  189.7780  176.1200  146.4580 C   0  0  1  0  0  3  0  0  0  0  0  0
  188.6060  175.2650  134.7110 C   0  0  0  0  0  1  0  0  0  0  0  0
  188.9420  173.9730  135.1960 O   0  0  0  0  0  0  0  0  0  0  0  0
  1 11  1  0  0  0  0
  1  5  1  0  0  0  0
  2 18  1  0  0  0  0
  3 16  1  0  0  0  0
  3 33  1  0  0  0  0
  4  1  2  0  0  0  0
  5 15  1  0  0  0  0
  6 25  1  0  0  0  0
  7  9  1  0  0  0  0
  9 19  1  0  0  0  0
  9 23  1  0  0  0  0
 10 33  1  0  0  0  0
 11 13  1  0  0  0  0
 12 22  1  0  0  0  0
 13 15  1  0  0  0  0
 14 21  1  0  0  0  0
 14 10  1  0  0  0  0
 15  7  1  0  0  0  0
 16  6  1  0  0  0  0
 17 26  2  0  0  0  0
 17 24  1  0  0  0  0
 18 27  1  0  0  0  0
 18 19  1  0  0  0  0
 19  3  1  0  0  0  0
 20  4  1  0  0  0  0
 20 22  2  0  0  0  0
 22 31  1  0  0  0  0
 23 16  1  0  0  0  0
 24 12  2  0  0  0  0
 25  8  1  0  0  0  0
 26 20  1  0  0  0  0
 27 14  1  0  0  0  0
 28 21  1  0  0  0  0
 29 32  2  0  0  0  0
 30  2  1  0  0  0  0
 31  5  2  0  0  0  0
 31 30  1  0  0  0  0
 32 27  1  0  0  0  0
 32 28  1  0  0  0  0
 33  8  1  0  0  0  0
 34 35  1  0  0  0  0
 35 17  1  0  0  0  0
M  END
>  <MODEL>
8

>  <REMARK>
 VINA RESULT:      -7.8      2.891      5.303
  Name = 
  1 active torsions:
  status: ('A' for Active; 'I' for Inactive)
    1  A    between atoms: C_18  and  O_26
                            x       y       z     vdW  Elec       q    Type
                         _______ _______ _______ _____ _____    ______ ____

>  <TORSDO>
F 1

$$$$
=
 OpenBabel11062422013D

 35 42  0  0  1  0  0  0  0  0999 V2000
  188.6850  173.7830  141.3890 C   0  0  0  0  0  0  0  0  0  0  0  0
  192.7290  175.6300  142.0020 O   0  0  0  0  0  0  0  0  0  0  0  0
  195.1040  174.9940  139.4910 C   0  0  1  0  0  3  0  0  0  0  0  0
  187.7680  174.6110  142.0270 C   0  0  0  0  0  3  0  0  0  0  0  0
  190.0170  173.8840  141.6180 C   0  0  0  0  0  0  0  0  0  0  0  0
  195.5470  175.0590  137.0180 C   0  0  0  0  0  2  0  0  0  0  0  0
  192.0060  172.9780  140.2460 C   0  0  0  0  0  2  0  0  0  0  0  0
  197.5420  174.9430  138.6450 C   0  0  0  0  0  2  0  0  0  0  0  0
  192.8380  174.1480  139.7320 C   0  0  1  0  0  3  0  0  0  0  0  0
  196.9850  175.8050  140.8250 O   0  0  0  0  0  0  0  0  0  0  0  0
  188.4460  173.0200  140.2270 N   0  0  0  0  0  2  0  0  0  0  0  0
  190.0930  176.6450  144.0950 C   0  0  0  0  0  3  0  0  0  0  0  0
  189.6270  172.5940  139.6900 O   0  0  0  0  0  0  0  0  0  0  0  0
  196.4730  175.2980  142.0200 C   0  0  1  0  0  3  0  0  0  0  0  0
  190.5690  173.4720  140.2830 C   0  0  1  0  0  3  0  0  0  0  0  0
  194.8980  174.2790  138.1680 C   0  0  2  0  0  3  0  0  0  0  0  0
  187.8190  177.4400  144.4270 C   0  0  0  0  0  0  0  0  0  0  0  0
  193.9790  174.9970  141.8570 C   0  0  1  0  0  3  0  0  0  0  0  0
  194.1640  174.2980  140.4720 C   0  0  2  0  0  3  0  0  0  0  0  0
  188.2470  175.5480  142.9520 C   0  0  0  0  0  0  0  0  0  0  0  0
  197.3660  175.6340  143.2200 C   0  0  0  0  0  2  0  0  0  0  0  0
  189.6390  175.6390  143.2340 C   0  0  0  0  0  0  0  0  0  0  0  0
  193.1210  173.9920  137.9330 S   0  0  0  0  0  0  0  0  0  0  0  0
  189.1920  177.5410  144.6890 C   0  0  0  0  0  3  0  0  0  0  0  0
  196.9020  175.6660  137.4390 C   0  0  0  0  0  2  0  0  0  0  0  0
  187.3590  176.4480  143.5520 C   0  0  0  0  0  3  0  0  0  0  0  0
  195.1110  175.9330  142.3010 C   0  0  1  0  0  3  0  0  0  0  0  0
  196.4630  175.9720  144.2630 O   0  0  0  0  0  0  0  0  0  0  0  0
  194.2110  176.4920  144.4950 O   0  0  0  0  0  0  0  0  0  0  0  0
  192.0150  174.7890  142.8650 C   0  0  0  0  0  2  0  0  0  0  0  0
  190.5470  174.7960  142.5470 C   0  0  0  0  0  0  0  0  0  0  0  0
  195.1850  176.1410  143.7690 C   0  0  0  0  0  0  0  0  0  0  0  0
  196.5970  174.8540  139.8630 C   0  0  1  0  0  3  0  0  0  0  0  0
  185.9410  179.0420  144.3160 C   0  0  0  0  0  1  0  0  0  0  0  0
  186.9460  178.3440  145.0400 O   0  0  0  0  0  0  0  0  0  0  0  0
  1  5  2  0  0  0  0
  1  4  1  0  0  0  0
  2 30  1  0  0  0  0
  3 33  1  0  0  0  0
  3 19  1  0  0  0  0
  4 20  2  0  0  0  0
  5 31  1  0  0  0  0
  6 25  1  0  0  0  0
  6 16  1  0  0  0  0
  7 15  1  0  0  0  0
  8 33  1  0  0  0  0
  9  7  1  0  0  0  0
  9 19  1  0  0  0  0
 10 14  1  0  0  0  0
 11  1  1  0  0  0  0
 12 24  2  0  0  0  0
 13 11  1  0  0  0  0
 13 15  1  0  0  0  0
 14 27  1  0  0  0  0
 14 21  1  0  0  0  0
 15  5  1  0  0  0  0
 16  3  1  0  0  0  0
 17 24  1  0  0  0  0
 17 35  1  0  0  0  0
 18  2  1  0  0  0  0
 18 27  1  0  0  0  0
 19 18  1  0  0  0  0
 20 22  1  0  0  0  0
 20 26  1  0  0  0  0
 21 28  1  0  0  0  0
 22 12  1  0  0  0  0
 23 16  1  0  0  0  0
 23  9  1  0  0  0  0
 25  8  1  0  0  0  0
 26 17  2  0  0  0  0
 27 32  1  0  0  0  0
 31 30  1  0  0  0  0
 31 22  2  0  0  0  0
 32 28  1  0  0  0  0
 32 29  2  0  0  0  0
 33 10  1  0  0  0  0
 34 35  1  0  0  0  0
M  END
>  <MODEL>
9

>  <REMARK>
 VINA RESULT:      -7.8      4.866      8.436
  Name = 
  1 active torsions:
  status: ('A' for Active; 'I' for Inactive)
    1  A    between atoms: C_18  and  O_26
                            x       y       z     vdW  Elec       q    Type
                         _______ _______ _______ _____ _____    ______ ____

>  <TORSDO>
F 1

$$$$
