=
 OpenBabel11072408253D

 34 36  0  0  1  0  0  0  0  0999 V2000
  189.3460  171.7900  144.6250 C   0  0  0  0  0  1  0  0  0  0  0  0
  189.7280  174.9910  141.2830 C   0  0  0  0  0  1  0  0  0  0  0  0
  190.1510  172.3750  143.4740 C   0  0  2  0  0  3  0  0  0  0  0  0
  190.3790  174.6150  144.2560 C   0  0  1  0  0  3  0  0  0  0  0  0
  191.0380  173.4040  143.8900 O   0  0  0  0  0  0  0  0  0  0  0  0
  188.8620  174.2360  142.2830 C   0  0  2  0  0  3  0  0  0  0  0  0
  188.9610  174.8190  143.6940 C   0  0  2  0  0  3  0  0  0  0  0  0
  189.2600  172.7620  142.2860 C   0  0  0  0  0  2  0  0  0  0  0  0
  189.8320  174.1060  146.5230 O   0  0  0  0  0  0  0  0  0  0  0  0
  191.1720  176.0030  146.2580 N   0  0  0  0  0  0  0  0  0  0  0  0
  190.4560  174.8660  145.7350 C   0  0  0  0  0  0  0  0  0  0  0  0
  194.6110  177.4190  145.3880 C   0  0  0  0  0  1  0  0  0  0  0  0
  192.8570  175.9170  144.4160 C   0  0  0  0  0  2  0  0  0  0  0  0
  193.9100  175.1920  146.5580 C   0  0  0  0  0  1  0  0  0  0  0  0
  192.1020  176.7850  145.4250 C   0  0  2  0  0  3  0  0  0  0  0  0
  193.5550  176.3720  145.6670 C   0  0  0  0  0  0  0  0  0  0  0  0
  190.6580  176.6030  147.4930 C   0  0  2  0  0  3  0  0  0  0  0  0
  189.5830  177.6270  147.1800 C   0  0  0  0  0  1  0  0  0  0  0  0
  191.6840  177.2040  148.2250 O   0  0  0  0  0  1  0  0  0  0  0  0
  188.5550  176.2880  143.7470 C   0  0  0  0  0  2  0  0  0  0  0  0
  187.0480  176.4460  143.5740 C   0  0  1  0  0  3  0  0  0  0  0  0
  186.5950  178.5220  144.8850 C   0  0  0  0  0  3  0  0  0  0  0  0
  186.4310  177.1380  144.7500 C   0  0  0  0  0  0  0  0  0  0  0  0
  186.0290  179.1950  145.9720 C   0  0  0  0  0  3  0  0  0  0  0  0
  185.6980  176.4300  145.7140 C   0  0  0  0  0  3  0  0  0  0  0  0
  185.1320  177.1030  146.8010 C   0  0  0  0  0  3  0  0  0  0  0  0
  185.2980  178.4850  146.9300 C   0  0  0  0  0  3  0  0  0  0  0  0
  187.5920  177.7170  141.6180 O   0  0  0  0  0  0  0  0  0  0  0  0
  186.7010  177.1230  142.2850 C   0  0  0  0  0  0  0  0  0  0  0  0
  185.3770  177.0770  141.8330 O   0  0  0  0  0  0  0  0  0  0  0  0
  185.1720  179.2870  142.3770 F   0  0  0  0  0  0  0  0  0  0  0  0
  183.3690  177.9500  142.5440 F   0  0  0  0  0  0  0  0  0  0  0  0
  184.1550  178.5390  140.4430 N   0  0  0  0  0  1  0  0  0  0  0  0
  184.5140  178.2110  141.8120 C   0  0  0  0  0  0  0  0  0  0  0  0
  3  5  1  0  0  0  0
  3  1  1  1  0  0  0
  4 11  1  1  0  0  0
  5  4  1  0  0  0  0
  6  2  1  6  0  0  0
  6  8  1  0  0  0  0
  6  7  1  0  0  0  0
  7 20  1  6  0  0  0
  7  4  1  0  0  0  0
  8  3  1  0  0  0  0
 10 17  1  0  0  0  0
 11 10  1  0  0  0  0
 11  9  2  0  0  0  0
 12 16  1  0  0  0  0
 13 15  1  0  0  0  0
 13 16  1  0  0  0  0
 15 16  1  0  0  0  0
 15 10  1  1  0  0  0
 16 14  1  0  0  0  0
 17 18  1  6  0  0  0
 17 19  1  0  0  0  0
 21 20  1  1  0  0  0
 21 23  1  0  0  0  0
 22 24  1  0  0  0  0
 23 22  2  0  0  0  0
 23 25  1  0  0  0  0
 24 27  2  0  0  0  0
 25 26  2  0  0  0  0
 26 27  1  0  0  0  0
 28 29  2  0  0  0  0
 29 21  1  0  0  0  0
 30 29  1  0  0  0  0
 33 34  1  0  0  0  0
 34 30  1  0  0  0  0
 34 31  1  0  0  0  0
 34 32  1  0  0  0  0
M  END
>  <MODEL>
1

>  <REMARK>
 VINA RESULT:      -7.1      0.000      0.000
  Name = 
  9 active torsions:
  status: ('A' for Active; 'I' for Inactive)
    1  A    between atoms: O_4  and  C_27
    2  A    between atoms: O_4  and  C_29
    3  A    between atoms: C_7  and  C_9
    4  A    between atoms: C_7  and  C_30
    5  A    between atoms: C_9  and  C_11
    6  A    between atoms: C_9  and  C_27
    7  A    between atoms: C_14  and  N_26
    8  A    between atoms: C_18  and  C_34
    9  A    between atoms: C_23  and  N_26
                            x       y       z     vdW  Elec       q    Type
                         _______ _______ _______ _____ _____    ______ ____

>  <TORSDO>
F 9

$$$$
=
 OpenBabel11072408253D

 34 36  0  0  1  0  0  0  0  0999 V2000
  189.3140  171.5520  143.0990 C   0  0  0  0  0  1  0  0  0  0  0  0
  188.1610  175.3830  140.7430 C   0  0  0  0  0  1  0  0  0  0  0  0
  189.3380  172.3270  141.7900 C   0  0  2  0  0  3  0  0  0  0  0  0
  190.4100  174.3200  142.5360 C   0  0  1  0  0  3  0  0  0  0  0  0
  190.4660  173.1830  141.6770 O   0  0  0  0  0  0  0  0  0  0  0  0
  187.9660  174.4800  141.9540 C   0  0  2  0  0  3  0  0  0  0  0  0
  189.0150  174.7290  143.0390 C   0  0  2  0  0  3  0  0  0  0  0  0
  187.9980  173.0210  141.5070 C   0  0  0  0  0  2  0  0  0  0  0  0
  191.2260  173.4300  144.5940 O   0  0  0  0  0  0  0  0  0  0  0  0
  192.5700  175.1040  143.6690 N   0  0  0  0  0  0  0  0  0  0  0  0
  191.4220  174.2340  143.6430 C   0  0  0  0  0  0  0  0  0  0  0  0
  195.1420  176.4900  141.2080 C   0  0  0  0  0  1  0  0  0  0  0  0
  193.1020  175.0340  141.2300 C   0  0  0  0  0  2  0  0  0  0  0  0
  195.0700  174.2480  142.5460 C   0  0  0  0  0  1  0  0  0  0  0  0
  192.9750  175.8910  142.4910 C   0  0  2  0  0  3  0  0  0  0  0  0
  194.3430  175.4520  141.9670 C   0  0  0  0  0  0  0  0  0  0  0  0
  193.0770  175.4990  144.9880 C   0  0  2  0  0  3  0  0  0  0  0  0
  193.6230  176.9140  144.9460 C   0  0  0  0  0  1  0  0  0  0  0  0
  194.0700  174.6210  145.4270 O   0  0  0  0  0  1  0  0  0  0  0  0
  189.0100  176.1720  143.5330 C   0  0  0  0  0  2  0  0  0  0  0  0
  188.2990  176.2880  144.8770 C   0  0  1  0  0  3  0  0  0  0  0  0
  189.3450  174.9960  146.7410 C   0  0  0  0  0  3  0  0  0  0  0  0
  189.2650  176.1920  146.0180 C   0  0  0  0  0  0  0  0  0  0  0  0
  190.2380  174.8790  147.8100 C   0  0  0  0  0  3  0  0  0  0  0  0
  190.0850  177.2740  146.3750 C   0  0  0  0  0  3  0  0  0  0  0  0
  190.9780  177.1560  147.4440 C   0  0  0  0  0  3  0  0  0  0  0  0
  191.0550  175.9580  148.1620 C   0  0  0  0  0  3  0  0  0  0  0  0
  187.2120  178.1980  143.9240 O   0  0  0  0  0  0  0  0  0  0  0  0
  187.4600  177.5250  144.9620 C   0  0  0  0  0  0  0  0  0  0  0  0
  186.9530  177.9130  146.2070 O   0  0  0  0  0  0  0  0  0  0  0  0
  186.2750  176.5430  147.9060 F   0  0  0  0  0  0  0  0  0  0  0  0
  185.1990  176.4470  145.9310 F   0  0  0  0  0  0  0  0  0  0  0  0
  184.8980  178.2950  147.3000 N   0  0  0  0  0  1  0  0  0  0  0  0
  185.8340  177.2880  146.8290 C   0  0  0  0  0  0  0  0  0  0  0  0
  3  1  1  1  0  0  0
  4  7  1  0  0  0  0
  4 11  1  1  0  0  0
  5  3  1  0  0  0  0
  5  4  1  0  0  0  0
  6  2  1  6  0  0  0
  6  7  1  0  0  0  0
  7 20  1  6  0  0  0
  8  3  1  0  0  0  0
  8  6  1  0  0  0  0
 10 17  1  0  0  0  0
 11 10  1  0  0  0  0
 11  9  2  0  0  0  0
 12 16  1  0  0  0  0
 13 16  1  0  0  0  0
 13 15  1  0  0  0  0
 15 10  1  1  0  0  0
 16 15  1  0  0  0  0
 16 14  1  0  0  0  0
 17 18  1  6  0  0  0
 17 19  1  0  0  0  0
 21 20  1  6  0  0  0
 21 29  1  0  0  0  0
 21 23  1  0  0  0  0
 22 24  1  0  0  0  0
 23 25  1  0  0  0  0
 23 22  2  0  0  0  0
 24 27  2  0  0  0  0
 25 26  2  0  0  0  0
 26 27  1  0  0  0  0
 28 29  2  0  0  0  0
 29 30  1  0  0  0  0
 30 34  1  0  0  0  0
 32 34  1  0  0  0  0
 34 33  1  0  0  0  0
 34 31  1  0  0  0  0
M  END
>  <MODEL>
2

>  <REMARK>
 VINA RESULT:      -6.9      2.636      3.879
  Name = 
  9 active torsions:
  status: ('A' for Active; 'I' for Inactive)
    1  A    between atoms: O_4  and  C_27
    2  A    between atoms: O_4  and  C_29
    3  A    between atoms: C_7  and  C_9
    4  A    between atoms: C_7  and  C_30
    5  A    between atoms: C_9  and  C_11
    6  A    between atoms: C_9  and  C_27
    7  A    between atoms: C_14  and  N_26
    8  A    between atoms: C_18  and  C_34
    9  A    between atoms: C_23  and  N_26
                            x       y       z     vdW  Elec       q    Type
                         _______ _______ _______ _____ _____    ______ ____

>  <TORSDO>
F 9

$$$$
=
 OpenBabel11072408253D

 34 36  0  0  1  0  0  0  0  0999 V2000
  189.3300  171.7020  144.0620 C   0  0  0  0  0  1  0  0  0  0  0  0
  188.4670  174.6810  140.6060 C   0  0  0  0  0  1  0  0  0  0  0  0
  189.4560  172.0480  142.5850 C   0  0  2  0  0  3  0  0  0  0  0  0
  190.5730  174.1450  142.7700 C   0  0  1  0  0  3  0  0  0  0  0  0
  190.6230  172.8020  142.2930 O   0  0  0  0  0  0  0  0  0  0  0  0
  188.1710  174.1860  142.0170 C   0  0  2  0  0  3  0  0  0  0  0  0
  189.1720  174.7220  143.0410 C   0  0  2  0  0  3  0  0  0  0  0  0
  188.1630  172.6600  142.0260 C   0  0  0  0  0  2  0  0  0  0  0  0
  191.3730  173.7040  144.9740 O   0  0  0  0  0  0  0  0  0  0  0  0
  192.5490  175.3760  143.8400 N   0  0  0  0  0  0  0  0  0  0  0  0
  191.5220  174.3680  143.9140 C   0  0  0  0  0  0  0  0  0  0  0  0
  195.0580  176.5150  141.1950 C   0  0  0  0  0  1  0  0  0  0  0  0
  193.0710  175.0050  141.4260 C   0  0  0  0  0  2  0  0  0  0  0  0
  195.0720  174.4660  142.8150 C   0  0  0  0  0  1  0  0  0  0  0  0
  192.9200  176.0150  142.5660 C   0  0  2  0  0  3  0  0  0  0  0  0
  194.3000  175.5580  142.0910 C   0  0  0  0  0  0  0  0  0  0  0  0
  192.9250  176.0360  145.0950 C   0  0  2  0  0  3  0  0  0  0  0  0
  191.7360  176.7660  145.6900 C   0  0  0  0  0  1  0  0  0  0  0  0
  193.9780  176.9310  144.8950 O   0  0  0  0  0  1  0  0  0  0  0  0
  189.2040  176.2460  143.0830 C   0  0  0  0  0  2  0  0  0  0  0  0
  187.7930  176.8220  143.1190 C   0  0  1  0  0  3  0  0  0  0  0  0
  185.9670  176.7120  144.8190 C   0  0  0  0  0  3  0  0  0  0  0  0
  187.3060  176.9930  144.5260 C   0  0  0  0  0  0  0  0  0  0  0  0
  185.4850  176.8610  146.1230 C   0  0  0  0  0  3  0  0  0  0  0  0
  188.1630  177.4280  145.5480 C   0  0  0  0  0  3  0  0  0  0  0  0
  187.6810  177.5780  146.8520 C   0  0  0  0  0  3  0  0  0  0  0  0
  186.3430  177.2940  147.1400 C   0  0  0  0  0  3  0  0  0  0  0  0
  188.7170  178.6140  141.8250 O   0  0  0  0  0  0  0  0  0  0  0  0
  187.6870  178.0950  142.3370 C   0  0  0  0  0  0  0  0  0  0  0  0
  186.4310  178.6890  142.1800 O   0  0  0  0  0  0  0  0  0  0  0  0
  185.8480  176.9690  140.7930 F   0  0  0  0  0  0  0  0  0  0  0  0
  185.1820  179.0570  140.2810 F   0  0  0  0  0  0  0  0  0  0  0  0
  184.1920  177.9540  142.0660 N   0  0  0  0  0  1  0  0  0  0  0  0
  185.4190  178.1730  141.3190 C   0  0  0  0  0  0  0  0  0  0  0  0
  3  1  1  1  0  0  0
  4  7  1  0  0  0  0
  4 11  1  1  0  0  0
  5  3  1  0  0  0  0
  5  4  1  0  0  0  0
  6  2  1  6  0  0  0
  6  8  1  0  0  0  0
  6  7  1  0  0  0  0
  7 20  1  6  0  0  0
  8  3  1  0  0  0  0
 10 11  1  0  0  0  0
 10 17  1  0  0  0  0
 11  9  2  0  0  0  0
 12 16  1  0  0  0  0
 13 16  1  0  0  0  0
 13 15  1  0  0  0  0
 15 10  1  1  0  0  0
 16 15  1  0  0  0  0
 16 14  1  0  0  0  0
 17 18  1  6  0  0  0
 19 17  1  0  0  0  0
 21 20  1  1  0  0  0
 21 23  1  0  0  0  0
 22 24  1  0  0  0  0
 23 22  2  0  0  0  0
 23 25  1  0  0  0  0
 24 27  2  0  0  0  0
 25 26  2  0  0  0  0
 26 27  1  0  0  0  0
 28 29  2  0  0  0  0
 29 21  1  0  0  0  0
 30 29  1  0  0  0  0
 31 34  1  0  0  0  0
 32 34  1  0  0  0  0
 34 33  1  0  0  0  0
 34 30  1  0  0  0  0
M  END
>  <MODEL>
3

>  <REMARK>
 VINA RESULT:      -6.9      1.887      2.369
  Name = 
  9 active torsions:
  status: ('A' for Active; 'I' for Inactive)
    1  A    between atoms: O_4  and  C_27
    2  A    between atoms: O_4  and  C_29
    3  A    between atoms: C_7  and  C_9
    4  A    between atoms: C_7  and  C_30
    5  A    between atoms: C_9  and  C_11
    6  A    between atoms: C_9  and  C_27
    7  A    between atoms: C_14  and  N_26
    8  A    between atoms: C_18  and  C_34
    9  A    between atoms: C_23  and  N_26
                            x       y       z     vdW  Elec       q    Type
                         _______ _______ _______ _____ _____    ______ ____

>  <TORSDO>
F 9

$$$$
=
 OpenBabel11072408253D

 34 36  0  0  1  0  0  0  0  0999 V2000
  193.3990  177.2290  144.7040 C   0  0  0  0  0  1  0  0  0  0  0  0
  190.7900  174.8720  147.7370 C   0  0  0  0  0  1  0  0  0  0  0  0
  193.2600  176.0490  145.6550 C   0  0  2  0  0  3  0  0  0  0  0  0
  191.3230  175.0220  144.7210 C   0  0  1  0  0  3  0  0  0  0  0  0
  192.7100  174.8990  145.0280 O   0  0  0  0  0  0  0  0  0  0  0  0
  191.0600  176.1520  146.9550 C   0  0  2  0  0  3  0  0  0  0  0  0
  190.5370  176.0760  145.5200 C   0  0  2  0  0  3  0  0  0  0  0  0
  192.5580  176.4420  146.9620 C   0  0  0  0  0  2  0  0  0  0  0  0
  191.3970  176.1840  142.6390 O   0  0  0  0  0  0  0  0  0  0  0  0
  190.4440  174.0530  142.5180 N   0  0  0  0  0  0  0  0  0  0  0  0
  191.0860  175.1220  143.2410 C   0  0  0  0  0  0  0  0  0  0  0  0
  190.7560  170.2460  142.4930 C   0  0  0  0  0  1  0  0  0  0  0  0
  191.5250  172.2230  143.8290 C   0  0  0  0  0  2  0  0  0  0  0  0
  192.2630  172.1070  141.4480 C   0  0  0  0  0  1  0  0  0  0  0  0
  190.2690  172.7140  143.1060 C   0  0  2  0  0  3  0  0  0  0  0  0
  191.2060  171.6920  142.4590 C   0  0  0  0  0  0  0  0  0  0  0  0
  189.6180  174.4300  141.3670 C   0  0  2  0  0  3  0  0  0  0  0  0
  188.1730  174.0270  141.5930 C   0  0  0  0  0  1  0  0  0  0  0  0
  190.0940  173.8430  140.1930 O   0  0  0  0  0  1  0  0  0  0  0  0
  189.0370  175.8040  145.4610 C   0  0  0  0  0  2  0  0  0  0  0  0
  188.2520  177.1030  145.3110 C   0  0  1  0  0  3  0  0  0  0  0  0
  186.4200  176.7290  143.6560 C   0  0  0  0  0  3  0  0  0  0  0  0
  187.6900  177.2490  143.9300 C   0  0  0  0  0  0  0  0  0  0  0  0
  185.8700  176.8520  142.3770 C   0  0  0  0  0  3  0  0  0  0  0  0
  188.4110  177.8900  142.9120 C   0  0  0  0  0  3  0  0  0  0  0  0
  187.8620  178.0120  141.6320 C   0  0  0  0  0  3  0  0  0  0  0  0
  186.5910  177.4940  141.3640 C   0  0  0  0  0  3  0  0  0  0  0  0
  187.1100  176.3970  147.2950 O   0  0  0  0  0  0  0  0  0  0  0  0
  187.1910  177.2400  146.3590 C   0  0  0  0  0  0  0  0  0  0  0  0
  186.3020  178.3170  146.2850 O   0  0  0  0  0  0  0  0  0  0  0  0
  184.6540  178.5930  147.8440 F   0  0  0  0  0  0  0  0  0  0  0  0
  184.4990  176.8890  146.3810 F   0  0  0  0  0  0  0  0  0  0  0  0
  184.1590  179.0590  145.6370 N   0  0  0  0  0  1  0  0  0  0  0  0
  184.9050  178.2020  146.5420 C   0  0  0  0  0  0  0  0  0  0  0  0
  3  1  1  6  0  0  0
  3  8  1  0  0  0  0
  4 11  1  6  0  0  0
  4  5  1  0  0  0  0
  4  7  1  0  0  0  0
  5  3  1  0  0  0  0
  6  8  1  0  0  0  0
  6  2  1  6  0  0  0
  7 20  1  1  0  0  0
  7  6  1  0  0  0  0
  9 11  2  0  0  0  0
 10 11  1  0  0  0  0
 14 16  1  0  0  0  0
 15 10  1  6  0  0  0
 15 13  1  0  0  0  0
 16 12  1  0  0  0  0
 16 15  1  0  0  0  0
 16 13  1  0  0  0  0
 17 18  1  1  0  0  0
 17 10  1  0  0  0  0
 19 17  1  0  0  0  0
 21 20  1  6  0  0  0
 21 29  1  0  0  0  0
 22 23  1  0  0  0  0
 23 21  1  0  0  0  0
 24 22  2  0  0  0  0
 25 23  2  0  0  0  0
 26 25  1  0  0  0  0
 27 26  2  0  0  0  0
 27 24  1  0  0  0  0
 29 28  2  0  0  0  0
 30 29  1  0  0  0  0
 30 34  1  0  0  0  0
 32 34  1  0  0  0  0
 33 34  1  0  0  0  0
 34 31  1  0  0  0  0
M  END
>  <MODEL>
4

>  <REMARK>
 VINA RESULT:      -6.8      2.494      5.160
  Name = 
  9 active torsions:
  status: ('A' for Active; 'I' for Inactive)
    1  A    between atoms: O_4  and  C_27
    2  A    between atoms: O_4  and  C_29
    3  A    between atoms: C_7  and  C_9
    4  A    between atoms: C_7  and  C_30
    5  A    between atoms: C_9  and  C_11
    6  A    between atoms: C_9  and  C_27
    7  A    between atoms: C_14  and  N_26
    8  A    between atoms: C_18  and  C_34
    9  A    between atoms: C_23  and  N_26
                            x       y       z     vdW  Elec       q    Type
                         _______ _______ _______ _____ _____    ______ ____

>  <TORSDO>
F 9

$$$$
=
 OpenBabel11072408253D

 34 36  0  0  1  0  0  0  0  0999 V2000
  194.4720  176.7920  144.7350 C   0  0  0  0  0  1  0  0  0  0  0  0
  191.5500  175.3040  148.0230 C   0  0  0  0  0  1  0  0  0  0  0  0
  194.2360  175.9380  145.9720 C   0  0  2  0  0  3  0  0  0  0  0  0
  192.4410  174.5870  145.1780 C   0  0  1  0  0  3  0  0  0  0  0  0
  193.7820  174.6290  145.6600 O   0  0  0  0  0  0  0  0  0  0  0  0
  191.8940  176.3090  146.9310 C   0  0  2  0  0  3  0  0  0  0  0  0
  191.5490  175.7890  145.5350 C   0  0  2  0  0  3  0  0  0  0  0  0
  193.3760  176.6630  147.0170 C   0  0  0  0  0  2  0  0  0  0  0  0
  192.5490  175.1440  142.8600 O   0  0  0  0  0  0  0  0  0  0  0  0
  192.0690  172.8970  143.2880 N   0  0  0  0  0  0  0  0  0  0  0  0
  192.3830  174.2360  143.7180 C   0  0  0  0  0  0  0  0  0  0  0  0
  192.8890  169.2940  144.2570 C   0  0  0  0  0  1  0  0  0  0  0  0
  193.4230  171.6370  144.9670 C   0  0  0  0  0  2  0  0  0  0  0  0
  194.1020  170.9690  142.6610 C   0  0  0  0  0  1  0  0  0  0  0  0
  192.0930  171.7570  144.2210 C   0  0  2  0  0  3  0  0  0  0  0  0
  193.1390  170.7190  143.8110 C   0  0  0  0  0  0  0  0  0  0  0  0
  191.3400  172.7570  142.0230 C   0  0  2  0  0  3  0  0  0  0  0  0
  190.2660  173.8220  141.9070 C   0  0  0  0  0  1  0  0  0  0  0  0
  190.7630  171.4900  141.9140 O   0  0  0  0  0  1  0  0  0  0  0  0
  190.0710  175.4380  145.3920 C   0  0  0  0  0  2  0  0  0  0  0  0
  189.2120  176.6970  145.3430 C   0  0  1  0  0  3  0  0  0  0  0  0
  187.5690  176.0460  143.5790 C   0  0  0  0  0  3  0  0  0  0  0  0
  188.6050  176.8940  143.9880 C   0  0  0  0  0  0  0  0  0  0  0  0
  186.9830  176.2070  142.3200 C   0  0  0  0  0  3  0  0  0  0  0  0
  189.0540  177.9050  143.1240 C   0  0  0  0  0  3  0  0  0  0  0  0
  188.4680  178.0650  141.8650 C   0  0  0  0  0  3  0  0  0  0  0  0
  187.4320  177.2170  141.4630 C   0  0  0  0  0  3  0  0  0  0  0  0
  187.9500  175.6710  147.1010 O   0  0  0  0  0  0  0  0  0  0  0  0
  188.1760  176.7110  146.4230 C   0  0  0  0  0  0  0  0  0  0  0  0
  187.4730  177.8950  146.6710 O   0  0  0  0  0  0  0  0  0  0  0  0
  185.5160  176.8870  146.0550 F   0  0  0  0  0  0  0  0  0  0  0  0
  186.1050  178.8220  145.0670 F   0  0  0  0  0  0  0  0  0  0  0  0
  185.4000  178.8440  147.2770 N   0  0  0  0  0  1  0  0  0  0  0  0
  186.1270  178.1110  146.2550 C   0  0  0  0  0  0  0  0  0  0  0  0
  3  1  1  6  0  0  0
  3  8  1  0  0  0  0
  4 11  1  6  0  0  0
  4  7  1  0  0  0  0
  4  5  1  0  0  0  0
  5  3  1  0  0  0  0
  6  8  1  0  0  0  0
  6  2  1  1  0  0  0
  7 20  1  1  0  0  0
  7  6  1  0  0  0  0
  9 11  2  0  0  0  0
 10 11  1  0  0  0  0
 14 16  1  0  0  0  0
 15 10  1  6  0  0  0
 15 13  1  0  0  0  0
 16 15  1  0  0  0  0
 16 12  1  0  0  0  0
 16 13  1  0  0  0  0
 17 18  1  1  0  0  0
 17 10  1  0  0  0  0
 19 17  1  0  0  0  0
 21 20  1  6  0  0  0
 21 29  1  0  0  0  0
 22 23  1  0  0  0  0
 23 21  1  0  0  0  0
 24 22  2  0  0  0  0
 25 23  2  0  0  0  0
 26 25  1  0  0  0  0
 27 26  2  0  0  0  0
 27 24  1  0  0  0  0
 29 30  1  0  0  0  0
 29 28  2  0  0  0  0
 31 34  1  0  0  0  0
 32 34  1  0  0  0  0
 34 30  1  0  0  0  0
 34 33  1  0  0  0  0
M  END
>  <MODEL>
5

>  <REMARK>
 VINA RESULT:      -6.7      2.692      5.367
  Name = 
  9 active torsions:
  status: ('A' for Active; 'I' for Inactive)
    1  A    between atoms: O_4  and  C_27
    2  A    between atoms: O_4  and  C_29
    3  A    between atoms: C_7  and  C_9
    4  A    between atoms: C_7  and  C_30
    5  A    between atoms: C_9  and  C_11
    6  A    between atoms: C_9  and  C_27
    7  A    between atoms: C_14  and  N_26
    8  A    between atoms: C_18  and  C_34
    9  A    between atoms: C_23  and  N_26
                            x       y       z     vdW  Elec       q    Type
                         _______ _______ _______ _____ _____    ______ ____

>  <TORSDO>
F 9

$$$$
=
 OpenBabel11072408253D

 34 36  0  0  1  0  0  0  0  0999 V2000
  188.9420  174.6390  147.2640 C   0  0  0  0  0  1  0  0  0  0  0  0
  191.0300  177.7860  144.5640 C   0  0  0  0  0  1  0  0  0  0  0  0
  188.8160  175.7920  146.2790 C   0  0  2  0  0  3  0  0  0  0  0  0
  190.0500  174.8830  144.4540 C   0  0  1  0  0  3  0  0  0  0  0  0
  188.7920  175.3610  144.9260 O   0  0  0  0  0  0  0  0  0  0  0  0
  191.1020  176.7910  145.7150 C   0  0  2  0  0  3  0  0  0  0  0  0
  191.2940  175.3540  145.2280 C   0  0  2  0  0  3  0  0  0  0  0  0
  189.8370  176.9030  146.5610 C   0  0  0  0  0  2  0  0  0  0  0  0
  189.8150  172.6310  145.2080 O   0  0  0  0  0  0  0  0  0  0  0  0
  190.3380  172.8370  142.9390 N   0  0  0  0  0  0  0  0  0  0  0  0
  190.0350  173.3970  144.2320 C   0  0  0  0  0  0  0  0  0  0  0  0
  189.2000  173.7860  139.4180 C   0  0  0  0  0  1  0  0  0  0  0  0
  189.3010  174.7590  141.7260 C   0  0  0  0  0  2  0  0  0  0  0  0
  187.9060  172.7140  141.4180 C   0  0  0  0  0  1  0  0  0  0  0  0
  190.3740  173.6670  141.7220 C   0  0  2  0  0  3  0  0  0  0  0  0
  189.0900  173.5180  140.9040 C   0  0  0  0  0  0  0  0  0  0  0  0
  191.0000  171.5290  142.9190 C   0  0  2  0  0  3  0  0  0  0  0  0
  192.3110  171.6070  142.1590 C   0  0  0  0  0  1  0  0  0  0  0  0
  190.1780  170.5580  142.3440 O   0  0  0  0  0  1  0  0  0  0  0  0
  192.5580  175.1850  144.3910 C   0  0  0  0  0  2  0  0  0  0  0  0
  193.8040  175.4840  145.2170 C   0  0  1  0  0  3  0  0  0  0  0  0
  194.0650  173.0010  145.1860 C   0  0  0  0  0  3  0  0  0  0  0  0
  194.6400  174.2570  145.4120 C   0  0  0  0  0  0  0  0  0  0  0  0
  194.8220  171.8390  145.3590 C   0  0  0  0  0  3  0  0  0  0  0  0
  195.9810  174.3420  145.8190 C   0  0  0  0  0  3  0  0  0  0  0  0
  196.7370  173.1790  145.9930 C   0  0  0  0  0  3  0  0  0  0  0  0
  196.1580  171.9280  145.7630 C   0  0  0  0  0  3  0  0  0  0  0  0
  195.0450  177.5260  145.3880 O   0  0  0  0  0  0  0  0  0  0  0  0
  194.6010  176.6130  144.6390 C   0  0  0  0  0  0  0  0  0  0  0  0
  194.8490  176.6300  143.2620 O   0  0  0  0  0  0  0  0  0  0  0  0
  196.0240  174.8090  142.5350 F   0  0  0  0  0  0  0  0  0  0  0  0
  197.1360  176.5140  143.4950 F   0  0  0  0  0  0  0  0  0  0  0  0
  196.2480  176.7910  141.3700 N   0  0  0  0  0  1  0  0  0  0  0  0
  196.0690  176.1830  142.6780 C   0  0  0  0  0  0  0  0  0  0  0  0
  3  8  1  0  0  0  0
  3  1  1  1  0  0  0
  4 11  1  1  0  0  0
  4  5  1  0  0  0  0
  4  7  1  0  0  0  0
  5  3  1  0  0  0  0
  6  2  1  6  0  0  0
  6  8  1  0  0  0  0
  7 20  1  6  0  0  0
  7  6  1  0  0  0  0
 10 11  1  0  0  0  0
 11  9  2  0  0  0  0
 12 16  1  0  0  0  0
 15 13  1  0  0  0  0
 15 10  1  1  0  0  0
 16 14  1  0  0  0  0
 16 15  1  0  0  0  0
 16 13  1  0  0  0  0
 17 18  1  6  0  0  0
 17 10  1  0  0  0  0
 19 17  1  0  0  0  0
 21 20  1  6  0  0  0
 21 23  1  0  0  0  0
 22 24  2  0  0  0  0
 22 23  1  0  0  0  0
 23 25  2  0  0  0  0
 24 27  1  0  0  0  0
 25 26  1  0  0  0  0
 27 26  2  0  0  0  0
 29 21  1  0  0  0  0
 29 28  2  0  0  0  0
 30 29  1  0  0  0  0
 31 34  1  0  0  0  0
 33 34  1  0  0  0  0
 34 30  1  0  0  0  0
 34 32  1  0  0  0  0
M  END
>  <MODEL>
6

>  <REMARK>
 VINA RESULT:      -6.6      4.368      8.116
  Name = 
  9 active torsions:
  status: ('A' for Active; 'I' for Inactive)
    1  A    between atoms: O_4  and  C_27
    2  A    between atoms: O_4  and  C_29
    3  A    between atoms: C_7  and  C_9
    4  A    between atoms: C_7  and  C_30
    5  A    between atoms: C_9  and  C_11
    6  A    between atoms: C_9  and  C_27
    7  A    between atoms: C_14  and  N_26
    8  A    between atoms: C_18  and  C_34
    9  A    between atoms: C_23  and  N_26
                            x       y       z     vdW  Elec       q    Type
                         _______ _______ _______ _____ _____    ______ ____

>  <TORSDO>
F 9

$$$$
=
 OpenBabel11072408253D

 34 36  0  0  1  0  0  0  0  0999 V2000
  191.4730  176.8600  147.6040 C   0  0  0  0  0  1  0  0  0  0  0  0
  189.6790  173.0250  145.6980 C   0  0  0  0  0  1  0  0  0  0  0  0
  191.2990  175.3490  147.6470 C   0  0  2  0  0  3  0  0  0  0  0  0
  192.1760  174.7930  145.5020 C   0  0  1  0  0  3  0  0  0  0  0  0
  192.3010  174.6570  146.9160 O   0  0  0  0  0  0  0  0  0  0  0  0
  189.6920  174.5430  145.8270 C   0  0  2  0  0  3  0  0  0  0  0  0
  190.7860  175.1880  144.9740 C   0  0  2  0  0  3  0  0  0  0  0  0
  189.8660  174.9250  147.2940 C   0  0  0  0  0  2  0  0  0  0  0  0
  193.2660  176.8820  145.1210 O   0  0  0  0  0  0  0  0  0  0  0  0
  194.2960  175.0560  144.0880 N   0  0  0  0  0  0  0  0  0  0  0  0
  193.2760  175.6380  144.9230 C   0  0  0  0  0  0  0  0  0  0  0  0
  196.4030  171.8800  144.3460 C   0  0  0  0  0  1  0  0  0  0  0  0
  194.3610  172.9130  145.3690 C   0  0  0  0  0  2  0  0  0  0  0  0
  196.5160  174.1360  145.6590 C   0  0  0  0  0  1  0  0  0  0  0  0
  194.4970  173.5990  144.0080 C   0  0  2  0  0  3  0  0  0  0  0  0
  195.7300  173.1590  144.7990 C   0  0  0  0  0  0  0  0  0  0  0  0
  194.8500  175.9030  143.0260 C   0  0  2  0  0  3  0  0  0  0  0  0
  195.0710  175.0950  141.7610 C   0  0  0  0  0  1  0  0  0  0  0  0
  196.0510  176.4910  143.4280 O   0  0  0  0  0  1  0  0  0  0  0  0
  190.6440  174.8500  143.4930 C   0  0  0  0  0  2  0  0  0  0  0  0
  189.1860  174.5930  143.1270 C   0  0  1  0  0  3  0  0  0  0  0  0
  187.0910  175.9090  142.7910 C   0  0  0  0  0  3  0  0  0  0  0  0
  188.4890  175.8580  142.7320 C   0  0  0  0  0  0  0  0  0  0  0  0
  186.4140  177.0780  142.4290 C   0  0  0  0  0  3  0  0  0  0  0  0
  189.2060  176.9850  142.3020 C   0  0  0  0  0  3  0  0  0  0  0  0
  188.5280  178.1530  141.9390 C   0  0  0  0  0  3  0  0  0  0  0  0
  187.1320  178.1990  142.0030 C   0  0  0  0  0  3  0  0  0  0  0  0
  188.4980  172.4330  142.3540 O   0  0  0  0  0  0  0  0  0  0  0  0
  189.0510  173.5330  142.0780 C   0  0  0  0  0  0  0  0  0  0  0  0
  189.5410  173.7880  140.7930 O   0  0  0  0  0  0  0  0  0  0  0  0
  188.0010  175.0250  139.6420 F   0  0  0  0  0  0  0  0  0  0  0  0
  187.8230  172.7810  139.6360 F   0  0  0  0  0  0  0  0  0  0  0  0
  189.5320  173.7880  138.4340 N   0  0  0  0  0  1  0  0  0  0  0  0
  188.7140  173.8400  139.6330 C   0  0  0  0  0  0  0  0  0  0  0  0
  3  1  1  6  0  0  0
  4 11  1  1  0  0  0
  4  5  1  0  0  0  0
  5  3  1  0  0  0  0
  6  2  1  1  0  0  0
  6  8  1  0  0  0  0
  7 20  1  6  0  0  0
  7  4  1  0  0  0  0
  7  6  1  0  0  0  0
  8  3  1  0  0  0  0
 10 11  1  0  0  0  0
 11  9  2  0  0  0  0
 12 16  1  0  0  0  0
 15 10  1  1  0  0  0
 15 16  1  0  0  0  0
 15 13  1  0  0  0  0
 16 13  1  0  0  0  0
 16 14  1  0  0  0  0
 17 18  1  6  0  0  0
 17 19  1  0  0  0  0
 17 10  1  0  0  0  0
 21 20  1  6  0  0  0
 23 22  1  0  0  0  0
 23 21  1  0  0  0  0
 24 22  2  0  0  0  0
 25 23  2  0  0  0  0
 26 27  2  0  0  0  0
 26 25  1  0  0  0  0
 27 24  1  0  0  0  0
 29 28  2  0  0  0  0
 29 21  1  0  0  0  0
 30 29  1  0  0  0  0
 33 34  1  0  0  0  0
 34 32  1  0  0  0  0
 34 31  1  0  0  0  0
 34 30  1  0  0  0  0
M  END
>  <MODEL>
7

>  <REMARK>
 VINA RESULT:      -6.3      3.171      4.977
  Name = 
  9 active torsions:
  status: ('A' for Active; 'I' for Inactive)
    1  A    between atoms: O_4  and  C_27
    2  A    between atoms: O_4  and  C_29
    3  A    between atoms: C_7  and  C_9
    4  A    between atoms: C_7  and  C_30
    5  A    between atoms: C_9  and  C_11
    6  A    between atoms: C_9  and  C_27
    7  A    between atoms: C_14  and  N_26
    8  A    between atoms: C_18  and  C_34
    9  A    between atoms: C_23  and  N_26
                            x       y       z     vdW  Elec       q    Type
                         _______ _______ _______ _____ _____    ______ ____

>  <TORSDO>
F 9

$$$$
=
 OpenBabel11072408253D

 34 36  0  0  1  0  0  0  0  0999 V2000
  192.6590  177.1720  144.6990 C   0  0  0  0  0  1  0  0  0  0  0  0
  189.7470  174.7030  147.3420 C   0  0  0  0  0  1  0  0  0  0  0  0
  192.4450  176.0080  145.6550 C   0  0  2  0  0  3  0  0  0  0  0  0
  190.7650  174.8200  144.4520 C   0  0  1  0  0  3  0  0  0  0  0  0
  192.0860  174.8060  144.9870 O   0  0  0  0  0  0  0  0  0  0  0  0
  190.0560  175.9810  146.5710 C   0  0  2  0  0  3  0  0  0  0  0  0
  189.7860  175.8330  145.0720 C   0  0  2  0  0  3  0  0  0  0  0  0
  191.5090  176.3800  146.8140 C   0  0  0  0  0  2  0  0  0  0  0  0
  191.1210  175.9310  142.3700 O   0  0  0  0  0  0  0  0  0  0  0  0
  190.3160  173.7460  142.1690 N   0  0  0  0  0  0  0  0  0  0  0  0
  190.7720  174.8690  142.9500 C   0  0  0  0  0  0  0  0  0  0  0  0
  190.8170  169.9620  142.3210 C   0  0  0  0  0  1  0  0  0  0  0  0
  191.2680  172.0100  143.6930 C   0  0  0  0  0  2  0  0  0  0  0  0
  192.3760  171.8740  141.4620 C   0  0  0  0  0  1  0  0  0  0  0  0
  190.1180  172.4140  142.7670 C   0  0  2  0  0  3  0  0  0  0  0  0
  191.1940  171.4280  142.3090 C   0  0  0  0  0  0  0  0  0  0  0  0
  189.6740  174.0440  140.8850 C   0  0  2  0  0  3  0  0  0  0  0  0
  188.4060  173.2280  140.7220 C   0  0  0  0  0  1  0  0  0  0  0  0
  190.5400  173.7900  139.8200 O   0  0  0  0  0  1  0  0  0  0  0  0
  188.3390  175.4520  144.7760 C   0  0  0  0  0  2  0  0  0  0  0  0
  187.5570  176.6470  144.2430 C   0  0  1  0  0  3  0  0  0  0  0  0
  186.2570  178.6090  145.0780 C   0  0  0  0  0  3  0  0  0  0  0  0
  186.8230  177.3550  145.3390 C   0  0  0  0  0  0  0  0  0  0  0  0
  185.5650  179.2920  146.0820 C   0  0  0  0  0  3  0  0  0  0  0  0
  186.6950  176.7910  146.6180 C   0  0  0  0  0  3  0  0  0  0  0  0
  186.0040  177.4750  147.6220 C   0  0  0  0  0  3  0  0  0  0  0  0
  185.4380  178.7250  147.3540 C   0  0  0  0  0  3  0  0  0  0  0  0
  189.3450  178.2280  144.0400 O   0  0  0  0  0  0  0  0  0  0  0  0
  188.4270  177.5830  143.4630 C   0  0  0  0  0  0  0  0  0  0  0  0
  188.2090  177.7210  142.0880 O   0  0  0  0  0  0  0  0  0  0  0  0
  186.1410  178.6580  141.8280 F   0  0  0  0  0  0  0  0  0  0  0  0
  186.3200  176.4160  141.9170 F   0  0  0  0  0  0  0  0  0  0  0  0
  187.0670  177.5410  140.0310 N   0  0  0  0  0  1  0  0  0  0  0  0
  186.9290  177.5780  141.4770 C   0  0  0  0  0  0  0  0  0  0  0  0
  3  1  1  6  0  0  0
  3  8  1  0  0  0  0
  4 11  1  6  0  0  0
  4  5  1  0  0  0  0
  4  7  1  0  0  0  0
  5  3  1  0  0  0  0
  6  8  1  0  0  0  0
  6  2  1  1  0  0  0
  7 20  1  1  0  0  0
  7  6  1  0  0  0  0
  9 11  2  0  0  0  0
 10 11  1  0  0  0  0
 14 16  1  0  0  0  0
 15 10  1  6  0  0  0
 15 13  1  0  0  0  0
 16 12  1  0  0  0  0
 16 15  1  0  0  0  0
 16 13  1  0  0  0  0
 17 18  1  6  0  0  0
 17 10  1  0  0  0  0
 19 17  1  0  0  0  0
 21 20  1  1  0  0  0
 21 23  1  0  0  0  0
 22 23  2  0  0  0  0
 22 24  1  0  0  0  0
 23 25  1  0  0  0  0
 24 27  2  0  0  0  0
 25 26  2  0  0  0  0
 27 26  1  0  0  0  0
 29 28  2  0  0  0  0
 29 21  1  0  0  0  0
 30 29  1  0  0  0  0
 33 34  1  0  0  0  0
 34 31  1  0  0  0  0
 34 32  1  0  0  0  0
 34 30  1  0  0  0  0
M  END
>  <MODEL>
8

>  <REMARK>
 VINA RESULT:      -6.3      1.967      4.494
  Name = 
  9 active torsions:
  status: ('A' for Active; 'I' for Inactive)
    1  A    between atoms: O_4  and  C_27
    2  A    between atoms: O_4  and  C_29
    3  A    between atoms: C_7  and  C_9
    4  A    between atoms: C_7  and  C_30
    5  A    between atoms: C_9  and  C_11
    6  A    between atoms: C_9  and  C_27
    7  A    between atoms: C_14  and  N_26
    8  A    between atoms: C_18  and  C_34
    9  A    between atoms: C_23  and  N_26
                            x       y       z     vdW  Elec       q    Type
                         _______ _______ _______ _____ _____    ______ ____

>  <TORSDO>
F 9

$$$$
=
 OpenBabel11072408253D

 34 36  0  0  1  0  0  0  0  0999 V2000
  190.4340  178.2800  144.4660 C   0  0  0  0  0  1  0  0  0  0  0  0
  189.3010  174.3110  146.5930 C   0  0  0  0  0  1  0  0  0  0  0  0
  190.5010  177.4110  145.7130 C   0  0  2  0  0  3  0  0  0  0  0  0
  191.4870  175.4550  144.7730 C   0  0  1  0  0  3  0  0  0  0  0  0
  191.6120  176.5250  145.7080 O   0  0  0  0  0  0  0  0  0  0  0  0
  189.0700  175.3050  145.4610 C   0  0  2  0  0  3  0  0  0  0  0  0
  190.0600  175.1140  144.3110 C   0  0  2  0  0  3  0  0  0  0  0  0
  189.1590  176.7260  146.0100 C   0  0  0  0  0  2  0  0  0  0  0  0
  192.3690  176.6170  142.8840 O   0  0  0  0  0  0  0  0  0  0  0  0
  193.4040  174.5670  143.3220 N   0  0  0  0  0  0  0  0  0  0  0  0
  192.4470  175.6020  143.6270 C   0  0  0  0  0  0  0  0  0  0  0  0
  195.7590  172.4190  145.4270 C   0  0  0  0  0  1  0  0  0  0  0  0
  193.8180  173.9780  145.7140 C   0  0  0  0  0  2  0  0  0  0  0  0
  195.8940  174.9260  144.7050 C   0  0  0  0  0  1  0  0  0  0  0  0
  193.7000  173.4800  144.2720 C   0  0  2  0  0  3  0  0  0  0  0  0
  195.0660  173.6710  144.9340 C   0  0  0  0  0  0  0  0  0  0  0  0
  193.7660  174.3890  141.9130 C   0  0  2  0  0  3  0  0  0  0  0  0
  193.8790  172.9140  141.5740 C   0  0  0  0  0  1  0  0  0  0  0  0
  194.9680  175.0350  141.6180 O   0  0  0  0  0  1  0  0  0  0  0  0
  189.9960  173.7110  143.7150 C   0  0  0  0  0  2  0  0  0  0  0  0
  189.8600  173.7680  142.1970 C   0  0  1  0  0  3  0  0  0  0  0  0
  190.4800  171.3570  142.3870 C   0  0  0  0  0  3  0  0  0  0  0  0
  190.2200  172.4590  141.5650 C   0  0  0  0  0  0  0  0  0  0  0  0
  190.8170  170.1220  141.8240 C   0  0  0  0  0  3  0  0  0  0  0  0
  190.3030  172.3180  140.1710 C   0  0  0  0  0  3  0  0  0  0  0  0
  190.6410  171.0840  139.6080 C   0  0  0  0  0  3  0  0  0  0  0  0
  190.8980  169.9860  140.4350 C   0  0  0  0  0  3  0  0  0  0  0  0
  187.4810  173.5360  142.0300 O   0  0  0  0  0  0  0  0  0  0  0  0
  188.5010  174.2340  141.7740 C   0  0  0  0  0  0  0  0  0  0  0  0
  188.3840  175.4550  141.1010 O   0  0  0  0  0  0  0  0  0  0  0  0
  188.7510  177.5960  141.8110 F   0  0  0  0  0  0  0  0  0  0  0  0
  187.2740  176.3150  142.9260 F   0  0  0  0  0  0  0  0  0  0  0  0
  186.7250  177.1070  140.8170 N   0  0  0  0  0  1  0  0  0  0  0  0
  187.7880  176.6150  141.6760 C   0  0  0  0  0  0  0  0  0  0  0  0
  3  1  1  6  0  0  0
  3  8  1  0  0  0  0
  4 11  1  6  0  0  0
  4  5  1  0  0  0  0
  5  3  1  0  0  0  0
  6  8  1  0  0  0  0
  6  2  1  1  0  0  0
  7 20  1  1  0  0  0
  7  4  1  0  0  0  0
  7  6  1  0  0  0  0
  9 11  2  0  0  0  0
 10 11  1  0  0  0  0
 14 16  1  0  0  0  0
 15 10  1  6  0  0  0
 15 16  1  0  0  0  0
 15 13  1  0  0  0  0
 16 12  1  0  0  0  0
 16 13  1  0  0  0  0
 17 18  1  1  0  0  0
 17 10  1  0  0  0  0
 19 17  1  0  0  0  0
 21 20  1  1  0  0  0
 23 21  1  0  0  0  0
 23 22  2  0  0  0  0
 24 22  1  0  0  0  0
 25 23  1  0  0  0  0
 26 25  2  0  0  0  0
 26 27  1  0  0  0  0
 27 24  2  0  0  0  0
 29 28  2  0  0  0  0
 29 21  1  0  0  0  0
 30 34  1  0  0  0  0
 30 29  1  0  0  0  0
 33 34  1  0  0  0  0
 34 31  1  0  0  0  0
 34 32  1  0  0  0  0
M  END
>  <MODEL>
9

>  <REMARK>
 VINA RESULT:      -6.2      2.725      5.819
  Name = 
  9 active torsions:
  status: ('A' for Active; 'I' for Inactive)
    1  A    between atoms: O_4  and  C_27
    2  A    between atoms: O_4  and  C_29
    3  A    between atoms: C_7  and  C_9
    4  A    between atoms: C_7  and  C_30
    5  A    between atoms: C_9  and  C_11
    6  A    between atoms: C_9  and  C_27
    7  A    between atoms: C_14  and  N_26
    8  A    between atoms: C_18  and  C_34
    9  A    between atoms: C_23  and  N_26
                            x       y       z     vdW  Elec       q    Type
                         _______ _______ _______ _____ _____    ______ ____

>  <TORSDO>
F 9

$$$$
