=
 OpenBabel11062418483D

 37 39  0  0  1  0  0  0  0  0999 V2000
  193.9320  174.5240  143.7460 C   0  0  0  0  0  2  0  0  0  0  0  0
  191.7570  174.3570  141.3530 N   0  0  0  0  0  0  0  0  0  0  0  0
  190.3630  175.9360  143.2170 C   0  0  0  0  0  3  0  0  0  0  0  0
  189.1650  177.7610  144.2460 C   0  0  0  0  0  3  0  0  0  0  0  0
  191.5530  177.4100  144.8660 C   0  0  0  0  0  2  0  0  0  0  0  0
  191.7450  176.5230  146.0560 C   0  0  0  0  0  0  0  0  0  0  0  0
  188.0410  176.3310  142.6460 C   0  0  0  0  0  0  0  0  0  0  0  0
  189.2670  174.3850  141.5780 C   0  0  0  0  0  0  0  0  0  0  0  0
  190.8410  176.3570  146.8610 O   0  0  0  0  0  0  0  0  0  0  0  0
  188.0090  177.4140  143.5400 C   0  0  0  0  0  0  0  0  0  0  0  0
  192.9420  173.7230  140.8740 C   0  0  0  0  0  0  0  0  0  0  0  0
  192.8680  172.6260  140.1960 N   0  0  0  0  0  2  0  0  0  0  0  0
  190.4920  173.8090  141.1060 N   0  0  0  0  0  0  0  0  0  0  0  0
  194.2770  174.2360  141.2980 C   0  0  0  0  0  2  0  0  0  0  0  0
  193.0800  175.9010  146.2910 C   0  0  0  0  0  2  0  0  0  0  0  0
  188.1890  173.8450  141.2160 O   0  0  0  0  0  0  0  0  0  0  0  0
  190.3390  177.0290  144.0880 C   0  0  0  0  0  0  0  0  0  0  0  0
  194.6360  173.7080  142.6770 C   0  0  0  0  0  2  0  0  0  0  0  0
  189.2260  175.5720  142.4800 C   0  0  0  0  0  0  0  0  0  0  0  0
  194.0990  173.8950  145.1260 C   0  0  2  0  0  3  0  0  0  0  0  0
  186.8900  176.0220  141.9260 O   0  0  0  0  0  1  0  0  0  0  0  0
  193.0070  174.3940  146.0680 C   0  0  0  0  0  2  0  0  0  0  0  0
  186.8020  178.1720  143.6870 N   0  0  0  0  0  2  0  0  0  0  0  0
  186.1790  178.5200  144.9310 C   0  0  0  0  0  0  0  0  0  0  0  0
  186.0240  179.7410  145.2030 O   0  0  0  0  0  0  0  0  0  0  0  0
  185.2590  176.3490  145.1730 O   0  0  0  0  0  1  0  0  0  0  0  0
  184.4360  178.0140  146.6250 C   0  0  0  0  0  1  0  0  0  0  0  0
  185.6600  177.4740  145.9010 C   0  0  2  0  0  0  0  0  0  0  0  0
  186.7260  177.0260  146.9230 C   0  0  0  0  0  0  0  0  0  0  0  0
  187.6010  178.0560  147.2210 F   0  0  0  0  0  0  0  0  0  0  0  0
  186.1100  176.6280  148.0970 F   0  0  0  0  0  0  0  0  0  0  0  0
  187.4450  175.9560  146.4200 F   0  0  0  0  0  0  0  0  0  0  0  0
  195.4820  174.1680  145.7080 C   0  0  0  0  0  2  0  0  0  0  0  0
  196.3230  172.9050  145.7010 C   0  0  0  0  0  2  0  0  0  0  0  0
  196.1280  170.5860  146.1770 O   0  0  0  0  0  0  0  0  0  0  0  0
  195.4170  171.6930  145.6780 C   0  0  2  0  0  3  0  0  0  0  0  0
  195.9800  170.6610  144.7820 C   0  0  0  0  0  2  0  0  0  0  0  0
  1 20  1  0  0  0  0
  3 17  1  0  0  0  0
  5  6  1  0  0  0  0
  6 15  1  0  0  0  0
  6  9  2  0  0  0  0
  7 10  2  0  0  0  0
  8 19  1  0  0  0  0
 10 23  1  0  0  0  0
 10  4  1  0  0  0  0
 11 14  1  0  0  0  0
 11  2  1  0  0  0  0
 12 11  2  0  0  0  0
 13  2  2  0  0  0  0
 13  8  1  0  0  0  0
 14 18  1  0  0  0  0
 16  8  2  0  0  0  0
 17  4  2  0  0  0  0
 17  5  1  0  0  0  0
 18  1  1  0  0  0  0
 19  7  1  0  0  0  0
 19  3  2  0  0  0  0
 20 33  1  1  0  0  0
 20 22  1  0  0  0  0
 21  7  1  0  0  0  0
 22 15  1  0  0  0  0
 23 24  1  0  0  0  0
 24 25  2  0  0  0  0
 24 28  1  0  0  0  0
 26 28  1  0  0  0  0
 28 27  1  1  0  0  0
 28 29  1  0  0  0  0
 29 30  1  0  0  0  0
 29 31  1  0  0  0  0
 32 29  1  0  0  0  0
 34 33  1  0  0  0  0
 36 34  1  6  0  0  0
 36 35  1  0  0  0  0
 37 36  1  0  0  0  0
 37 35  1  0  0  0  0
M  END
>  <MODEL>
1

>  <REMARK>
 VINA RESULT:      -8.0      0.000      0.000
  Name = 
  6 active torsions:
  status: ('A' for Active; 'I' for Inactive)
    1  A    between atoms: C_2  and  C_27
    2  A    between atoms: C_2  and  C_31
    3  A    between atoms: C_5  and  C_15
    4  A    between atoms: N_14  and  C_17
    5  A    between atoms: C_15  and  C_30
    6  A    between atoms: C_31  and  C_33
                            x       y       z     vdW  Elec       q    Type
                         _______ _______ _______ _____ _____    ______ ____

>  <TORSDO>
F 6

$$$$
=
 OpenBabel11062418483D

 37 39  0  0  1  0  0  0  0  0999 V2000
  185.6660  178.4110  144.1320 C   0  0  0  0  0  2  0  0  0  0  0  0
  187.4860  177.2930  146.5670 N   0  0  0  0  0  0  0  0  0  0  0  0
  188.9520  176.3690  144.3510 C   0  0  0  0  0  3  0  0  0  0  0  0
  190.7370  175.9810  142.7740 C   0  0  0  0  0  3  0  0  0  0  0  0
  188.9140  177.5600  142.1410 C   0  0  0  0  0  2  0  0  0  0  0  0
  187.7790  176.9120  141.4120 C   0  0  0  0  0  0  0  0  0  0  0  0
  190.7540  174.8510  144.9160 C   0  0  0  0  0  0  0  0  0  0  0  0
  188.8730  175.2130  146.5760 C   0  0  0  0  0  0  0  0  0  0  0  0
  187.9370  175.8480  140.8330 O   0  0  0  0  0  0  0  0  0  0  0  0
  191.3400  175.0860  143.6620 C   0  0  0  0  0  0  0  0  0  0  0  0
  186.4590  178.0910  147.1560 C   0  0  0  0  0  0  0  0  0  0  0  0
  185.8600  177.6960  148.2300 N   0  0  0  0  0  2  0  0  0  0  0  0
  187.8660  176.0690  147.1320 N   0  0  0  0  0  0  0  0  0  0  0  0
  185.9610  179.3000  146.4380 C   0  0  0  0  0  2  0  0  0  0  0  0
  186.4680  177.6180  141.3350 C   0  0  0  0  0  2  0  0  0  0  0  0
  189.1850  174.1810  147.2260 O   0  0  0  0  0  0  0  0  0  0  0  0
  189.5480  176.6220  143.1130 C   0  0  0  0  0  0  0  0  0  0  0  0
  184.9480  178.9070  145.3750 C   0  0  0  0  0  2  0  0  0  0  0  0
  189.5420  175.4900  145.2720 C   0  0  0  0  0  0  0  0  0  0  0  0
  184.6870  177.8120  143.1270 C   0  0  2  0  0  3  0  0  0  0  0  0
  191.3890  173.9830  145.8010 O   0  0  0  0  0  1  0  0  0  0  0  0
  185.4220  176.8820  142.1660 C   0  0  0  0  0  2  0  0  0  0  0  0
  192.5720  174.4350  143.3240 N   0  0  0  0  0  2  0  0  0  0  0  0
  193.8280  174.6260  143.9880 C   0  0  0  0  0  0  0  0  0  0  0  0
  194.3830  173.6270  144.5200 O   0  0  0  0  0  0  0  0  0  0  0  0
  194.3020  176.6310  142.8170 O   0  0  0  0  0  1  0  0  0  0  0  0
  196.0320  175.7570  144.1590 C   0  0  0  0  0  1  0  0  0  0  0  0
  194.5320  175.9700  144.0280 C   0  0  2  0  0  0  0  0  0  0  0  0
  194.0240  176.8760  145.1690 C   0  0  0  0  0  0  0  0  0  0  0  0
  193.6730  176.1340  146.2820 F   0  0  0  0  0  0  0  0  0  0  0  0
  195.0180  177.7660  145.5380 F   0  0  0  0  0  0  0  0  0  0  0  0
  192.9230  177.6000  144.7460 F   0  0  0  0  0  0  0  0  0  0  0  0
  183.9310  178.8930  142.3620 C   0  0  0  0  0  2  0  0  0  0  0  0
  182.8620  178.2760  141.4800 C   0  0  0  0  0  2  0  0  0  0  0  0
  180.5130  177.9230  141.4820 O   0  0  0  0  0  0  0  0  0  0  0  0
  181.5100  178.8470  141.8480 C   0  0  2  0  0  3  0  0  0  0  0  0
  180.6910  179.0270  140.6300 C   0  0  0  0  0  2  0  0  0  0  0  0
  1 18  1  0  0  0  0
  2 13  2  0  0  0  0
  2 11  1  0  0  0  0
  3 19  1  0  0  0  0
  4 17  1  0  0  0  0
  4 10  2  0  0  0  0
  5 17  1  0  0  0  0
  6  5  1  0  0  0  0
  7 19  2  0  0  0  0
  7 21  1  0  0  0  0
  8 13  1  0  0  0  0
  8 16  2  0  0  0  0
  9  6  2  0  0  0  0
 10  7  1  0  0  0  0
 11 12  2  0  0  0  0
 14 11  1  0  0  0  0
 15  6  1  0  0  0  0
 15 22  1  0  0  0  0
 17  3  2  0  0  0  0
 18 14  1  0  0  0  0
 19  8  1  0  0  0  0
 20 33  1  6  0  0  0
 20  1  1  0  0  0  0
 22 20  1  0  0  0  0
 23 10  1  0  0  0  0
 23 24  1  0  0  0  0
 24 28  1  0  0  0  0
 24 25  2  0  0  0  0
 26 28  1  0  0  0  0
 28 27  1  1  0  0  0
 28 29  1  0  0  0  0
 29 31  1  0  0  0  0
 29 30  1  0  0  0  0
 32 29  1  0  0  0  0
 34 33  1  0  0  0  0
 35 36  1  0  0  0  0
 36 34  1  6  0  0  0
 37 35  1  0  0  0  0
 37 36  1  0  0  0  0
M  END
>  <MODEL>
2

>  <REMARK>
 VINA RESULT:      -7.9      3.535      9.368
  Name = 
  6 active torsions:
  status: ('A' for Active; 'I' for Inactive)
    1  A    between atoms: C_2  and  C_27
    2  A    between atoms: C_2  and  C_31
    3  A    between atoms: C_5  and  C_15
    4  A    between atoms: N_14  and  C_17
    5  A    between atoms: C_15  and  C_30
    6  A    between atoms: C_31  and  C_33
                            x       y       z     vdW  Elec       q    Type
                         _______ _______ _______ _____ _____    ______ ____

>  <TORSDO>
F 6

$$$$
=
 OpenBabel11062418483D

 37 39  0  0  1  0  0  0  0  0999 V2000
  185.4660  178.4650  144.2830 C   0  0  0  0  0  2  0  0  0  0  0  0
  187.3840  177.3890  146.6590 N   0  0  0  0  0  0  0  0  0  0  0  0
  188.9420  176.7580  144.4030 C   0  0  0  0  0  3  0  0  0  0  0  0
  190.7610  176.6530  142.8200 C   0  0  0  0  0  3  0  0  0  0  0  0
  188.7880  178.0740  142.2700 C   0  0  0  0  0  2  0  0  0  0  0  0
  187.7260  177.3620  141.4930 C   0  0  0  0  0  0  0  0  0  0  0  0
  190.8890  175.3980  144.8880 C   0  0  0  0  0  0  0  0  0  0  0  0
  188.9760  175.4630  146.5520 C   0  0  0  0  0  0  0  0  0  0  0  0
  187.9940  176.3570  140.8500 O   0  0  0  0  0  0  0  0  0  0  0  0
  191.4500  175.7700  143.6560 C   0  0  0  0  0  0  0  0  0  0  0  0
  186.2810  178.0390  147.2870 C   0  0  0  0  0  0  0  0  0  0  0  0
  185.7220  177.5190  148.3300 N   0  0  0  0  0  2  0  0  0  0  0  0
  187.8860  176.1760  147.1510 N   0  0  0  0  0  0  0  0  0  0  0  0
  185.6640  179.2340  146.6420 C   0  0  0  0  0  2  0  0  0  0  0  0
  186.3500  177.9340  141.4490 C   0  0  0  0  0  2  0  0  0  0  0  0
  189.3900  174.4290  147.1390 O   0  0  0  0  0  0  0  0  0  0  0  0
  189.5120  177.1470  143.1880 C   0  0  0  0  0  0  0  0  0  0  0  0
  184.6990  178.8080  145.5480 C   0  0  0  0  0  2  0  0  0  0  0  0
  189.6160  175.8870  145.2730 C   0  0  0  0  0  0  0  0  0  0  0  0
  184.5560  177.8350  143.2340 C   0  0  2  0  0  3  0  0  0  0  0  0
  191.6070  174.5460  145.7230 O   0  0  0  0  0  1  0  0  0  0  0  0
  185.3840  177.0450  142.2230 C   0  0  0  0  0  2  0  0  0  0  0  0
  192.7420  175.2690  143.2890 N   0  0  0  0  0  2  0  0  0  0  0  0
  193.0190  174.4020  142.1810 C   0  0  0  0  0  0  0  0  0  0  0  0
  193.8160  174.8040  141.2910 O   0  0  0  0  0  0  0  0  0  0  0  0
  192.4290  172.4210  143.3400 O   0  0  0  0  0  1  0  0  0  0  0  0
  193.3060  172.1540  141.1680 C   0  0  0  0  0  1  0  0  0  0  0  0
  192.4290  173.0080  142.0700 C   0  0  2  0  0  0  0  0  0  0  0  0
  190.9770  173.0140  141.5470 C   0  0  0  0  0  0  0  0  0  0  0  0
  190.7340  174.1200  140.7530 F   0  0  0  0  0  0  0  0  0  0  0  0
  190.7480  171.8780  140.7900 F   0  0  0  0  0  0  0  0  0  0  0  0
  190.0910  173.0190  142.6090 F   0  0  0  0  0  0  0  0  0  0  0  0
  183.6950  178.8790  142.5310 C   0  0  0  0  0  2  0  0  0  0  0  0
  182.6850  178.2120  141.6170 C   0  0  0  0  0  2  0  0  0  0  0  0
  180.3310  177.8910  141.6030 O   0  0  0  0  0  0  0  0  0  0  0  0
  181.3290  178.8620  141.8000 C   0  0  2  0  0  3  0  0  0  0  0  0
  180.5600  178.7820  140.5410 C   0  0  0  0  0  2  0  0  0  0  0  0
  1 18  1  0  0  0  0
  2 13  2  0  0  0  0
  2 11  1  0  0  0  0
  3 19  1  0  0  0  0
  4 17  1  0  0  0  0
  4 10  2  0  0  0  0
  5 17  1  0  0  0  0
  6  5  1  0  0  0  0
  7 19  2  0  0  0  0
  7 21  1  0  0  0  0
  8 16  2  0  0  0  0
  8 13  1  0  0  0  0
  9  6  2  0  0  0  0
 10  7  1  0  0  0  0
 11 12  2  0  0  0  0
 14 11  1  0  0  0  0
 15  6  1  0  0  0  0
 15 22  1  0  0  0  0
 17  3  2  0  0  0  0
 18 14  1  0  0  0  0
 19  8  1  0  0  0  0
 20 33  1  6  0  0  0
 20  1  1  0  0  0  0
 22 20  1  0  0  0  0
 23 10  1  0  0  0  0
 24 23  1  0  0  0  0
 25 24  2  0  0  0  0
 28 27  1  6  0  0  0
 28 24  1  0  0  0  0
 28 26  1  0  0  0  0
 29 28  1  0  0  0  0
 29 32  1  0  0  0  0
 30 29  1  0  0  0  0
 31 29  1  0  0  0  0
 34 33  1  0  0  0  0
 35 36  1  0  0  0  0
 36 34  1  6  0  0  0
 37 35  1  0  0  0  0
 37 36  1  0  0  0  0
M  END
>  <MODEL>
3

>  <REMARK>
 VINA RESULT:      -7.7      3.620      9.426
  Name = 
  6 active torsions:
  status: ('A' for Active; 'I' for Inactive)
    1  A    between atoms: C_2  and  C_27
    2  A    between atoms: C_2  and  C_31
    3  A    between atoms: C_5  and  C_15
    4  A    between atoms: N_14  and  C_17
    5  A    between atoms: C_15  and  C_30
    6  A    between atoms: C_31  and  C_33
                            x       y       z     vdW  Elec       q    Type
                         _______ _______ _______ _____ _____    ______ ____

>  <TORSDO>
F 6

$$$$
=
 OpenBabel11062418483D

 37 39  0  0  1  0  0  0  0  0999 V2000
  193.5120  174.1550  143.6400 C   0  0  0  0  0  2  0  0  0  0  0  0
  191.0340  173.6650  141.6140 N   0  0  0  0  0  0  0  0  0  0  0  0
  189.9470  175.6350  143.3010 C   0  0  0  0  0  3  0  0  0  0  0  0
  188.9500  177.6820  144.1030 C   0  0  0  0  0  3  0  0  0  0  0  0
  191.3890  177.3230  144.4760 C   0  0  0  0  0  2  0  0  0  0  0  0
  191.7110  176.6630  145.7800 C   0  0  0  0  0  0  0  0  0  0  0  0
  187.5820  176.0420  142.9590 C   0  0  0  0  0  0  0  0  0  0  0  0
  188.5980  173.8680  142.1390 C   0  0  0  0  0  0  0  0  0  0  0  0
  190.9170  176.6990  146.7080 O   0  0  0  0  0  0  0  0  0  0  0  0
  187.7010  177.2720  143.6270 C   0  0  0  0  0  0  0  0  0  0  0  0
  192.1260  172.8890  141.1200 C   0  0  0  0  0  0  0  0  0  0  0  0
  191.9300  171.6910  140.6790 N   0  0  0  0  0  2  0  0  0  0  0  0
  189.7310  173.1490  141.6360 N   0  0  0  0  0  0  0  0  0  0  0  0
  193.5190  173.4000  141.2680 C   0  0  0  0  0  2  0  0  0  0  0  0
  193.0460  176.0250  145.9610 C   0  0  0  0  0  2  0  0  0  0  0  0
  187.4660  173.3290  142.0240 O   0  0  0  0  0  0  0  0  0  0  0  0
  190.0710  176.8710  143.9430 C   0  0  0  0  0  0  0  0  0  0  0  0
  194.0430  173.1180  142.6670 C   0  0  0  0  0  2  0  0  0  0  0  0
  188.7110  175.2030  142.7950 C   0  0  0  0  0  0  0  0  0  0  0  0
  193.8420  173.7860  145.0820 C   0  0  2  0  0  3  0  0  0  0  0  0
  186.3370  175.6670  142.4610 O   0  0  0  0  0  1  0  0  0  0  0  0
  192.9000  174.5090  146.0410 C   0  0  0  0  0  2  0  0  0  0  0  0
  186.5470  178.1090  143.7760 N   0  0  0  0  0  2  0  0  0  0  0  0
  186.0190  178.5910  145.0190 C   0  0  0  0  0  0  0  0  0  0  0  0
  185.9460  179.8370  145.1950 O   0  0  0  0  0  0  0  0  0  0  0  0
  185.1580  176.4390  145.5130 O   0  0  0  0  0  1  0  0  0  0  0  0
  184.2450  178.2460  146.7210 C   0  0  0  0  0  1  0  0  0  0  0  0
  185.5040  177.6600  146.1010 C   0  0  2  0  0  0  0  0  0  0  0  0
  186.5540  177.3810  147.1970 C   0  0  0  0  0  0  0  0  0  0  0  0
  187.0860  176.1100  147.0730 F   0  0  0  0  0  0  0  0  0  0  0  0
  187.5890  178.2950  147.0970 F   0  0  0  0  0  0  0  0  0  0  0  0
  185.9780  177.5070  148.4490 F   0  0  0  0  0  0  0  0  0  0  0  0
  195.2980  174.0860  145.4240 C   0  0  0  0  0  2  0  0  0  0  0  0
  196.0580  174.5250  144.1870 C   0  0  0  0  0  2  0  0  0  0  0  0
  195.8170  176.6490  143.1510 O   0  0  0  0  0  0  0  0  0  0  0  0
  196.3610  176.0060  144.2780 C   0  0  2  0  0  3  0  0  0  0  0  0
  197.2030  176.4170  143.1350 C   0  0  0  0  0  2  0  0  0  0  0  0
  1 20  1  0  0  0  0
  2 13  2  0  0  0  0
  3 17  1  0  0  0  0
  5  6  1  0  0  0  0
  6 15  1  0  0  0  0
  6  9  2  0  0  0  0
  7 10  2  0  0  0  0
  8 19  1  0  0  0  0
 10 23  1  0  0  0  0
 10  4  1  0  0  0  0
 11 14  1  0  0  0  0
 11  2  1  0  0  0  0
 12 11  2  0  0  0  0
 13  8  1  0  0  0  0
 14 18  1  0  0  0  0
 15 22  1  0  0  0  0
 16  8  2  0  0  0  0
 17  4  2  0  0  0  0
 17  5  1  0  0  0  0
 18  1  1  0  0  0  0
 19  7  1  0  0  0  0
 19  3  2  0  0  0  0
 20 33  1  1  0  0  0
 20 22  1  0  0  0  0
 21  7  1  0  0  0  0
 23 24  1  0  0  0  0
 24 25  2  0  0  0  0
 24 28  1  0  0  0  0
 26 28  1  0  0  0  0
 28 27  1  1  0  0  0
 28 29  1  0  0  0  0
 29 32  1  0  0  0  0
 30 29  1  0  0  0  0
 31 29  1  0  0  0  0
 34 33  1  0  0  0  0
 35 36  1  0  0  0  0
 36 34  1  6  0  0  0
 37 35  1  0  0  0  0
 37 36  1  0  0  0  0
M  END
>  <MODEL>
4

>  <REMARK>
 VINA RESULT:      -7.5      1.481      1.964
  Name = 
  6 active torsions:
  status: ('A' for Active; 'I' for Inactive)
    1  A    between atoms: C_2  and  C_27
    2  A    between atoms: C_2  and  C_31
    3  A    between atoms: C_5  and  C_15
    4  A    between atoms: N_14  and  C_17
    5  A    between atoms: C_15  and  C_30
    6  A    between atoms: C_31  and  C_33
                            x       y       z     vdW  Elec       q    Type
                         _______ _______ _______ _____ _____    ______ ____

>  <TORSDO>
F 6

$$$$
=
 OpenBabel11062418483D

 37 39  0  0  1  0  0  0  0  0999 V2000
  185.4300  178.4850  144.2520 C   0  0  0  0  0  2  0  0  0  0  0  0
  187.3940  177.5220  146.6390 N   0  0  0  0  0  0  0  0  0  0  0  0
  188.9780  176.9360  144.3890 C   0  0  0  0  0  3  0  0  0  0  0  0
  190.8000  176.8940  142.8060 C   0  0  0  0  0  3  0  0  0  0  0  0
  188.7660  178.2210  142.2420 C   0  0  0  0  0  2  0  0  0  0  0  0
  187.7370  177.4530  141.4730 C   0  0  0  0  0  0  0  0  0  0  0  0
  190.9840  175.6700  144.8880 C   0  0  0  0  0  0  0  0  0  0  0  0
  189.0700  175.6680  146.5520 C   0  0  0  0  0  0  0  0  0  0  0  0
  188.0490  176.4550  140.8410 O   0  0  0  0  0  0  0  0  0  0  0  0
  191.5280  176.0530  143.6520 C   0  0  0  0  0  0  0  0  0  0  0  0
  186.2620  178.1290  147.2600 C   0  0  0  0  0  0  0  0  0  0  0  0
  185.7280  177.5960  148.3090 N   0  0  0  0  0  2  0  0  0  0  0  0
  187.9490  176.3380  147.1430 N   0  0  0  0  0  0  0  0  0  0  0  0
  185.5930  179.2880  146.6020 C   0  0  0  0  0  2  0  0  0  0  0  0
  186.3370  177.9630  141.4230 C   0  0  0  0  0  2  0  0  0  0  0  0
  189.5300  174.6600  147.1500 O   0  0  0  0  0  0  0  0  0  0  0  0
  189.5300  177.3370  143.1700 C   0  0  0  0  0  0  0  0  0  0  0  0
  184.6480  178.8070  145.5130 C   0  0  0  0  0  2  0  0  0  0  0  0
  189.6910  176.1060  145.2680 C   0  0  0  0  0  0  0  0  0  0  0  0
  184.5480  177.8030  143.2100 C   0  0  2  0  0  3  0  0  0  0  0  0
  191.7390  174.8600  145.7320 O   0  0  0  0  0  1  0  0  0  0  0  0
  185.4110  177.0400  142.2080 C   0  0  0  0  0  2  0  0  0  0  0  0
  192.8410  175.6060  143.2900 N   0  0  0  0  0  2  0  0  0  0  0  0
  193.2090  175.0220  142.0330 C   0  0  0  0  0  0  0  0  0  0  0  0
  194.0930  175.5960  141.3410 O   0  0  0  0  0  0  0  0  0  0  0  0
  191.4520  174.0110  140.8050 O   0  0  0  0  0  1  0  0  0  0  0  0
  192.2040  172.8580  142.7190 C   0  0  0  0  0  1  0  0  0  0  0  0
  192.6100  173.7200  141.5330 C   0  0  2  0  0  0  0  0  0  0  0  0
  193.5690  172.9370  140.6120 C   0  0  0  0  0  0  0  0  0  0  0  0
  194.8360  172.8530  141.1590 F   0  0  0  0  0  0  0  0  0  0  0  0
  193.0920  171.6510  140.4250 F   0  0  0  0  0  0  0  0  0  0  0  0
  193.6520  173.5570  139.3770 F   0  0  0  0  0  0  0  0  0  0  0  0
  183.6420  178.8000  142.4960 C   0  0  0  0  0  2  0  0  0  0  0  0
  182.7180  178.0850  141.5290 C   0  0  0  0  0  2  0  0  0  0  0  0
  180.8170  179.2320  142.3740 O   0  0  0  0  0  0  0  0  0  0  0  0
  181.5430  178.9800  141.1960 C   0  0  2  0  0  3  0  0  0  0  0  0
  180.2760  178.2790  141.4940 C   0  0  0  0  0  2  0  0  0  0  0  0
  1 18  1  0  0  0  0
  2 13  2  0  0  0  0
  2 11  1  0  0  0  0
  3 19  1  0  0  0  0
  4 17  1  0  0  0  0
  4 10  2  0  0  0  0
  5 17  1  0  0  0  0
  6  5  1  0  0  0  0
  7 19  2  0  0  0  0
  7 21  1  0  0  0  0
  8 13  1  0  0  0  0
  8 16  2  0  0  0  0
  9  6  2  0  0  0  0
 10  7  1  0  0  0  0
 11 12  2  0  0  0  0
 14 11  1  0  0  0  0
 15  6  1  0  0  0  0
 15 22  1  0  0  0  0
 17  3  2  0  0  0  0
 18 14  1  0  0  0  0
 19  8  1  0  0  0  0
 20 33  1  6  0  0  0
 20  1  1  0  0  0  0
 22 20  1  0  0  0  0
 23 10  1  0  0  0  0
 24 23  1  0  0  0  0
 25 24  2  0  0  0  0
 26 28  1  0  0  0  0
 28 24  1  0  0  0  0
 28 27  1  1  0  0  0
 29 30  1  0  0  0  0
 29 28  1  0  0  0  0
 31 29  1  0  0  0  0
 32 29  1  0  0  0  0
 34 33  1  0  0  0  0
 36 37  1  0  0  0  0
 36 34  1  1  0  0  0
 36 35  1  0  0  0  0
 37 35  1  0  0  0  0
M  END
>  <MODEL>
5

>  <REMARK>
 VINA RESULT:      -6.8      4.199      9.621
  Name = 
  6 active torsions:
  status: ('A' for Active; 'I' for Inactive)
    1  A    between atoms: C_2  and  C_27
    2  A    between atoms: C_2  and  C_31
    3  A    between atoms: C_5  and  C_15
    4  A    between atoms: N_14  and  C_17
    5  A    between atoms: C_15  and  C_30
    6  A    between atoms: C_31  and  C_33
                            x       y       z     vdW  Elec       q    Type
                         _______ _______ _______ _____ _____    ______ ____

>  <TORSDO>
F 6

$$$$
=
 OpenBabel11062418483D

 37 39  0  0  1  0  0  0  0  0999 V2000
  188.8820  175.6160  143.7520 C   0  0  0  0  0  2  0  0  0  0  0  0
  190.3940  173.9620  141.4150 N   0  0  0  0  0  0  0  0  0  0  0  0
  192.5120  174.3700  143.2210 C   0  0  0  0  0  3  0  0  0  0  0  0
  194.3400  173.9810  144.7480 C   0  0  0  0  0  3  0  0  0  0  0  0
  192.1240  174.6280  145.6880 C   0  0  0  0  0  2  0  0  0  0  0  0
  191.9490  176.1040  145.8650 C   0  0  0  0  0  0  0  0  0  0  0  0
  194.6870  173.7300  142.3630 C   0  0  0  0  0  0  0  0  0  0  0  0
  192.7920  174.1680  140.7360 C   0  0  0  0  0  0  0  0  0  0  0  0
  192.9210  176.8410  145.9430 O   0  0  0  0  0  0  0  0  0  0  0  0
  195.1900  173.6990  143.6740 C   0  0  0  0  0  0  0  0  0  0  0  0
  189.0100  173.9880  141.0680 C   0  0  0  0  0  0  0  0  0  0  0  0
  188.6470  174.1940  139.8450 N   0  0  0  0  0  2  0  0  0  0  0  0
  191.3880  174.1600  140.4470 N   0  0  0  0  0  0  0  0  0  0  0  0
  187.9790  173.9440  142.1440 C   0  0  0  0  0  2  0  0  0  0  0  0
  190.5740  176.6590  146.0200 C   0  0  0  0  0  2  0  0  0  0  0  0
  193.5870  174.2700  139.7660 O   0  0  0  0  0  0  0  0  0  0  0  0
  193.0060  174.3140  144.5270 C   0  0  0  0  0  0  0  0  0  0  0  0
  187.7810  175.3250  142.7470 C   0  0  0  0  0  2  0  0  0  0  0  0
  193.3340  174.0750  142.1230 C   0  0  0  0  0  0  0  0  0  0  0  0
  188.8380  177.0670  144.2200 C   0  0  2  0  0  3  0  0  0  0  0  0
  195.5390  173.4120  141.3100 O   0  0  0  0  0  1  0  0  0  0  0  0
  190.1940  177.4770  144.7910 C   0  0  0  0  0  2  0  0  0  0  0  0
  196.5600  173.3400  143.8960 N   0  0  0  0  0  2  0  0  0  0  0  0
  197.0660  172.0040  144.0130 C   0  0  0  0  0  0  0  0  0  0  0  0
  197.9410  171.6210  143.1910 O   0  0  0  0  0  0  0  0  0  0  0  0
  196.4980  171.7860  146.3030 O   0  0  0  0  0  1  0  0  0  0  0  0
  197.6900  169.9970  145.3350 C   0  0  0  0  0  1  0  0  0  0  0  0
  196.6230  171.0590  145.1150 C   0  0  2  0  0  0  0  0  0  0  0  0
  195.2640  170.3910  144.8190 C   0  0  0  0  0  0  0  0  0  0  0  0
  194.9050  170.5490  143.4920 F   0  0  0  0  0  0  0  0  0  0  0  0
  195.3400  169.0360  145.0880 F   0  0  0  0  0  0  0  0  0  0  0  0
  194.2800  170.9430  145.6200 F   0  0  0  0  0  0  0  0  0  0  0  0
  187.7290  177.2990  145.2400 C   0  0  0  0  0  2  0  0  0  0  0  0
  186.6870  178.2540  144.6890 C   0  0  0  0  0  2  0  0  0  0  0  0
  184.4420  178.1550  143.9200 O   0  0  0  0  0  0  0  0  0  0  0  0
  185.3040  177.6890  144.9300 C   0  0  2  0  0  3  0  0  0  0  0  0
  184.3460  178.7890  145.1700 C   0  0  0  0  0  2  0  0  0  0  0  0
  1 20  1  0  0  0  0
  3 17  1  0  0  0  0
  5  6  1  0  0  0  0
  6  9  2  0  0  0  0
  6 15  1  0  0  0  0
  7 10  2  0  0  0  0
  8 19  1  0  0  0  0
 10 23  1  0  0  0  0
 10  4  1  0  0  0  0
 11  2  1  0  0  0  0
 11 14  1  0  0  0  0
 12 11  2  0  0  0  0
 13  8  1  0  0  0  0
 13  2  2  0  0  0  0
 14 18  1  0  0  0  0
 16  8  2  0  0  0  0
 17  4  2  0  0  0  0
 17  5  1  0  0  0  0
 18  1  1  0  0  0  0
 19  7  1  0  0  0  0
 19  3  2  0  0  0  0
 20 22  1  0  0  0  0
 20 33  1  1  0  0  0
 21  7  1  0  0  0  0
 22 15  1  0  0  0  0
 23 24  1  0  0  0  0
 24 28  1  0  0  0  0
 25 24  2  0  0  0  0
 28 27  1  1  0  0  0
 28 26  1  0  0  0  0
 29 31  1  0  0  0  0
 29 28  1  0  0  0  0
 29 32  1  0  0  0  0
 30 29  1  0  0  0  0
 34 33  1  0  0  0  0
 35 36  1  0  0  0  0
 35 37  1  0  0  0  0
 36 34  1  6  0  0  0
 36 37  1  0  0  0  0
M  END
>  <MODEL>
6

>  <REMARK>
 VINA RESULT:      -6.6      3.424      8.709
  Name = 
  6 active torsions:
  status: ('A' for Active; 'I' for Inactive)
    1  A    between atoms: C_2  and  C_27
    2  A    between atoms: C_2  and  C_31
    3  A    between atoms: C_5  and  C_15
    4  A    between atoms: N_14  and  C_17
    5  A    between atoms: C_15  and  C_30
    6  A    between atoms: C_31  and  C_33
                            x       y       z     vdW  Elec       q    Type
                         _______ _______ _______ _____ _____    ______ ____

>  <TORSDO>
F 6

$$$$
=
 OpenBabel11062418483D

 37 39  0  0  1  0  0  0  0  0999 V2000
  191.5090  171.7600  141.8520 C   0  0  0  0  0  2  0  0  0  0  0  0
  191.9190  173.8720  144.2720 N   0  0  0  0  0  0  0  0  0  0  0  0
  189.5890  174.8960  143.0740 C   0  0  0  0  0  3  0  0  0  0  0  0
  187.3250  175.6570  142.7280 C   0  0  0  0  0  3  0  0  0  0  0  0
  187.9790  173.4260  141.8280 C   0  0  0  0  0  2  0  0  0  0  0  0
  188.4840  173.4650  140.4200 C   0  0  0  0  0  0  0  0  0  0  0  0
  188.8950  177.0530  143.9340 C   0  0  0  0  0  0  0  0  0  0  0  0
  191.2890  176.2920  144.2800 C   0  0  0  0  0  0  0  0  0  0  0  0
  188.1990  174.3970  139.6830 O   0  0  0  0  0  0  0  0  0  0  0  0
  187.6120  176.8490  143.3990 C   0  0  0  0  0  0  0  0  0  0  0  0
  192.9090  172.8580  144.4420 C   0  0  0  0  0  0  0  0  0  0  0  0
  194.1170  173.1720  144.7750 N   0  0  0  0  0  2  0  0  0  0  0  0
  192.2310  175.2260  144.4580 N   0  0  0  0  0  0  0  0  0  0  0  0
  192.5910  171.4490  144.0710 C   0  0  0  0  0  2  0  0  0  0  0  0
  189.2780  172.3150  139.9000 C   0  0  0  0  0  2  0  0  0  0  0  0
  191.6680  177.4590  144.5620 O   0  0  0  0  0  0  0  0  0  0  0  0
  188.3060  174.6810  142.5640 C   0  0  0  0  0  0  0  0  0  0  0  0
  192.7430  171.2460  142.5730 C   0  0  0  0  0  2  0  0  0  0  0  0
  189.9050  176.0730  143.7690 C   0  0  0  0  0  0  0  0  0  0  0  0
  191.7120  171.7680  140.3400 C   0  0  2  0  0  3  0  0  0  0  0  0
  189.1520  178.2310  144.6300 O   0  0  0  0  0  1  0  0  0  0  0  0
  190.7280  172.7320  139.6810 C   0  0  0  0  0  2  0  0  0  0  0  0
  186.6030  177.8500  143.5840 N   0  0  0  0  0  2  0  0  0  0  0  0
  186.1960  178.4050  144.8420 C   0  0  0  0  0  0  0  0  0  0  0  0
  186.3170  179.6480  145.0150 O   0  0  0  0  0  0  0  0  0  0  0  0
  185.0800  176.3850  145.3790 O   0  0  0  0  0  1  0  0  0  0  0  0
  184.4160  178.3090  146.5690 C   0  0  0  0  0  1  0  0  0  0  0  0
  185.5830  177.5610  145.9440 C   0  0  2  0  0  0  0  0  0  0  0  0
  186.6050  177.1680  147.0320 C   0  0  0  0  0  0  0  0  0  0  0  0
  187.4930  178.1980  147.2850 F   0  0  0  0  0  0  0  0  0  0  0  0
  185.9410  176.8700  148.2100 F   0  0  0  0  0  0  0  0  0  0  0  0
  187.3150  176.0480  146.6340 F   0  0  0  0  0  0  0  0  0  0  0  0
  191.5810  170.3700  139.7450 C   0  0  0  0  0  2  0  0  0  0  0  0
  191.9040  170.3870  138.2630 C   0  0  0  0  0  2  0  0  0  0  0  0
  191.1690  169.5980  136.1460 O   0  0  0  0  0  0  0  0  0  0  0  0
  190.7820  169.7230  137.4930 C   0  0  2  0  0  3  0  0  0  0  0  0
  190.2770  170.6400  136.4490 C   0  0  0  0  0  2  0  0  0  0  0  0
  1 18  1  0  0  0  0
  2 11  1  0  0  0  0
  2 13  2  0  0  0  0
  3 19  1  0  0  0  0
  4 10  2  0  0  0  0
  5 17  1  0  0  0  0
  6  5  1  0  0  0  0
  7 21  1  0  0  0  0
  8 13  1  0  0  0  0
  8 16  2  0  0  0  0
  9  6  2  0  0  0  0
 10 23  1  0  0  0  0
 10  7  1  0  0  0  0
 11 12  2  0  0  0  0
 14 11  1  0  0  0  0
 15  6  1  0  0  0  0
 17  4  1  0  0  0  0
 17  3  2  0  0  0  0
 18 14  1  0  0  0  0
 19  7  2  0  0  0  0
 19  8  1  0  0  0  0
 20 33  1  6  0  0  0
 20  1  1  0  0  0  0
 22 15  1  0  0  0  0
 22 20  1  0  0  0  0
 23 24  1  0  0  0  0
 24 25  2  0  0  0  0
 24 28  1  0  0  0  0
 26 28  1  0  0  0  0
 28 27  1  1  0  0  0
 28 29  1  0  0  0  0
 29 30  1  0  0  0  0
 29 31  1  0  0  0  0
 32 29  1  0  0  0  0
 34 33  1  0  0  0  0
 35 37  1  0  0  0  0
 35 36  1  0  0  0  0
 36 34  1  1  0  0  0
 37 36  1  0  0  0  0
M  END
>  <MODEL>
7

>  <REMARK>
 VINA RESULT:      -6.5      2.725      5.132
  Name = 
  6 active torsions:
  status: ('A' for Active; 'I' for Inactive)
    1  A    between atoms: C_2  and  C_27
    2  A    between atoms: C_2  and  C_31
    3  A    between atoms: C_5  and  C_15
    4  A    between atoms: N_14  and  C_17
    5  A    between atoms: C_15  and  C_30
    6  A    between atoms: C_31  and  C_33
                            x       y       z     vdW  Elec       q    Type
                         _______ _______ _______ _____ _____    ______ ____

>  <TORSDO>
F 6

$$$$
=
 OpenBabel11062418483D

 37 39  0  0  1  0  0  0  0  0999 V2000
  192.9310  170.9110  143.4090 C   0  0  0  0  0  2  0  0  0  0  0  0
  194.0480  173.0100  145.6070 N   0  0  0  0  0  0  0  0  0  0  0  0
  191.3890  173.8890  145.3490 C   0  0  0  0  0  3  0  0  0  0  0  0
  189.1090  174.5000  145.8530 C   0  0  0  0  0  3  0  0  0  0  0  0
  189.5300  172.3320  144.6970 C   0  0  0  0  0  2  0  0  0  0  0  0
  189.5000  172.4260  143.2040 C   0  0  0  0  0  0  0  0  0  0  0  0
  190.9200  175.9810  146.4800 C   0  0  0  0  0  0  0  0  0  0  0  0
  193.3210  175.3810  145.9300 C   0  0  0  0  0  0  0  0  0  0  0  0
  188.9180  173.3480  142.6500 O   0  0  0  0  0  0  0  0  0  0  0  0
  189.5460  175.6980  146.4250 C   0  0  0  0  0  0  0  0  0  0  0  0
  195.0910  172.0630  145.3780 C   0  0  0  0  0  0  0  0  0  0  0  0
  196.3180  172.4540  145.2760 N   0  0  0  0  0  2  0  0  0  0  0  0
  194.3250  174.3790  145.7220 N   0  0  0  0  0  0  0  0  0  0  0  0
  194.7460  170.6410  145.0910 C   0  0  0  0  0  2  0  0  0  0  0  0
  190.1230  171.3410  142.3940 C   0  0  0  0  0  2  0  0  0  0  0  0
  193.7060  176.5660  146.1030 O   0  0  0  0  0  0  0  0  0  0  0  0
  190.0230  173.5960  145.3170 C   0  0  0  0  0  0  0  0  0  0  0  0
  194.3670  170.4710  143.6280 C   0  0  0  0  0  2  0  0  0  0  0  0
  191.8610  175.0750  145.9320 C   0  0  0  0  0  0  0  0  0  0  0  0
  192.5830  170.9540  141.9250 C   0  0  2  0  0  3  0  0  0  0  0  0
  191.3380  177.1640  147.0840 O   0  0  0  0  0  1  0  0  0  0  0  0
  191.3750  171.8580  141.6930 C   0  0  0  0  0  2  0  0  0  0  0  0
  188.6110  176.6250  146.9910 N   0  0  0  0  0  2  0  0  0  0  0  0
  187.2790  176.8650  146.5170 C   0  0  0  0  0  0  0  0  0  0  0  0
  186.3160  176.6580  147.3040 O   0  0  0  0  0  0  0  0  0  0  0  0
  186.4850  176.3620  144.3420 O   0  0  0  0  0  1  0  0  0  0  0  0
  188.2910  177.8700  144.4860 C   0  0  0  0  0  1  0  0  0  0  0  0
  186.9940  177.4020  145.1260 C   0  0  2  0  0  0  0  0  0  0  0  0
  185.9600  178.5470  145.1290 C   0  0  0  0  0  0  0  0  0  0  0  0
  186.0990  179.3480  146.2490 F   0  0  0  0  0  0  0  0  0  0  0  0
  186.1350  179.3380  144.0070 F   0  0  0  0  0  0  0  0  0  0  0  0
  184.6770  178.0280  145.1040 F   0  0  0  0  0  0  0  0  0  0  0  0
  192.3320  169.5600  141.3620 C   0  0  0  0  0  2  0  0  0  0  0  0
  192.0870  169.6230  139.8660 C   0  0  0  0  0  2  0  0  0  0  0  0
  190.8620  168.4680  138.1900 O   0  0  0  0  0  0  0  0  0  0  0  0
  190.8050  168.8900  139.5310 C   0  0  2  0  0  3  0  0  0  0  0  0
  190.0830  169.6060  138.4590 C   0  0  0  0  0  2  0  0  0  0  0  0
  1 18  1  0  0  0  0
  2 13  2  0  0  0  0
  3 19  1  0  0  0  0
  4 10  2  0  0  0  0
  5 17  1  0  0  0  0
  6  5  1  0  0  0  0
  7 21  1  0  0  0  0
  8 19  1  0  0  0  0
  8 16  2  0  0  0  0
  9  6  2  0  0  0  0
 10  7  1  0  0  0  0
 10 23  1  0  0  0  0
 11  2  1  0  0  0  0
 12 11  2  0  0  0  0
 13  8  1  0  0  0  0
 14 11  1  0  0  0  0
 15  6  1  0  0  0  0
 17  3  2  0  0  0  0
 17  4  1  0  0  0  0
 18 14  1  0  0  0  0
 19  7  2  0  0  0  0
 20 33  1  1  0  0  0
 20  1  1  0  0  0  0
 22 20  1  0  0  0  0
 22 15  1  0  0  0  0
 24 23  1  0  0  0  0
 24 25  2  0  0  0  0
 26 28  1  0  0  0  0
 28 27  1  6  0  0  0
 28 29  1  0  0  0  0
 28 24  1  0  0  0  0
 29 30  1  0  0  0  0
 31 29  1  0  0  0  0
 32 29  1  0  0  0  0
 34 33  1  0  0  0  0
 35 37  1  0  0  0  0
 35 36  1  0  0  0  0
 36 34  1  6  0  0  0
 37 36  1  0  0  0  0
M  END
>  <MODEL>
8

>  <REMARK>
 VINA RESULT:      -6.5      3.290      5.363
  Name = 
  6 active torsions:
  status: ('A' for Active; 'I' for Inactive)
    1  A    between atoms: C_2  and  C_27
    2  A    between atoms: C_2  and  C_31
    3  A    between atoms: C_5  and  C_15
    4  A    between atoms: N_14  and  C_17
    5  A    between atoms: C_15  and  C_30
    6  A    between atoms: C_31  and  C_33
                            x       y       z     vdW  Elec       q    Type
                         _______ _______ _______ _____ _____    ______ ____

>  <TORSDO>
F 6

$$$$
=
 OpenBabel11062418483D

 37 39  0  0  1  0  0  0  0  0999 V2000
  193.6160  173.3340  145.1360 C   0  0  0  0  0  2  0  0  0  0  0  0
  193.0690  176.5240  145.0500 N   0  0  0  0  0  0  0  0  0  0  0  0
  190.5010  175.5370  144.4600 C   0  0  0  0  0  3  0  0  0  0  0  0
  188.1330  175.0830  144.5580 C   0  0  0  0  0  3  0  0  0  0  0  0
  189.7160  173.2990  145.2840 C   0  0  0  0  0  2  0  0  0  0  0  0
  190.1140  172.3600  144.1890 C   0  0  0  0  0  0  0  0  0  0  0  0
  188.9160  177.2370  143.7750 C   0  0  0  0  0  0  0  0  0  0  0  0
  191.4000  177.7260  143.6280 C   0  0  0  0  0  0  0  0  0  0  0  0
  189.4170  172.2350  143.1930 O   0  0  0  0  0  0  0  0  0  0  0  0
  187.8580  176.3570  144.0550 C   0  0  0  0  0  0  0  0  0  0  0  0
  194.4160  176.3520  145.4870 C   0  0  0  0  0  0  0  0  0  0  0  0
  195.3530  177.1170  145.0330 N   0  0  0  0  0  2  0  0  0  0  0  0
  192.7290  177.5180  144.1220 N   0  0  0  0  0  0  0  0  0  0  0  0
  194.7720  175.1810  146.3390 C   0  0  0  0  0  2  0  0  0  0  0  0
  191.3340  171.5210  144.3590 C   0  0  0  0  0  2  0  0  0  0  0  0
  191.2080  178.7080  142.8630 O   0  0  0  0  0  0  0  0  0  0  0  0
  189.4480  174.6700  144.7630 C   0  0  0  0  0  0  0  0  0  0  0  0
  194.9650  173.9400  145.4840 C   0  0  0  0  0  2  0  0  0  0  0  0
  190.2580  176.8290  143.9700 C   0  0  0  0  0  0  0  0  0  0  0  0
  193.7580  172.2150  144.1090 C   0  0  2  0  0  3  0  0  0  0  0  0
  188.6210  178.5150  143.3070 O   0  0  0  0  0  1  0  0  0  0  0  0
  192.4280  171.9790  143.3990 C   0  0  0  0  0  2  0  0  0  0  0  0
  186.5070  176.7930  143.8560 N   0  0  0  0  0  2  0  0  0  0  0  0
  185.7920  177.7090  144.6970 C   0  0  0  0  0  0  0  0  0  0  0  0
  185.3560  178.7760  144.1860 O   0  0  0  0  0  0  0  0  0  0  0  0
  185.0670  176.0910  146.2700 O   0  0  0  0  0  1  0  0  0  0  0  0
  184.3710  178.3130  146.6410 C   0  0  0  0  0  1  0  0  0  0  0  0
  185.5000  177.4160  146.1580 C   0  0  2  0  0  0  0  0  0  0  0  0
  186.7400  177.5910  147.0600 C   0  0  0  0  0  0  0  0  0  0  0  0
  187.6990  178.3810  146.4500 F   0  0  0  0  0  0  0  0  0  0  0  0
  186.3710  178.1980  148.2480 F   0  0  0  0  0  0  0  0  0  0  0  0
  187.2930  176.3560  147.3510 F   0  0  0  0  0  0  0  0  0  0  0  0
  194.2690  170.9260  144.7440 C   0  0  0  0  0  2  0  0  0  0  0  0
  195.5530  170.4720  144.0750 C   0  0  0  0  0  2  0  0  0  0  0  0
  196.9520  171.0390  145.9090 O   0  0  0  0  0  0  0  0  0  0  0  0
  196.5150  169.9560  145.1240 C   0  0  2  0  0  3  0  0  0  0  0  0
  197.8460  170.5710  144.9310 C   0  0  0  0  0  2  0  0  0  0  0  0
  1 18  1  0  0  0  0
  2 11  1  0  0  0  0
  3 17  1  0  0  0  0
  4 17  2  0  0  0  0
  6 15  1  0  0  0  0
  6  5  1  0  0  0  0
  7 19  1  0  0  0  0
  7 10  2  0  0  0  0
  8 19  1  0  0  0  0
  8 13  1  0  0  0  0
  9  6  2  0  0  0  0
 10  4  1  0  0  0  0
 11 14  1  0  0  0  0
 12 11  2  0  0  0  0
 13  2  2  0  0  0  0
 16  8  2  0  0  0  0
 17  5  1  0  0  0  0
 18 14  1  0  0  0  0
 19  3  2  0  0  0  0
 20 33  1  1  0  0  0
 20  1  1  0  0  0  0
 21  7  1  0  0  0  0
 22 20  1  0  0  0  0
 22 15  1  0  0  0  0
 23 10  1  0  0  0  0
 23 24  1  0  0  0  0
 24 28  1  0  0  0  0
 25 24  2  0  0  0  0
 28 26  1  0  0  0  0
 28 27  1  1  0  0  0
 28 29  1  0  0  0  0
 29 32  1  0  0  0  0
 29 31  1  0  0  0  0
 30 29  1  0  0  0  0
 34 33  1  0  0  0  0
 36 34  1  6  0  0  0
 36 35  1  0  0  0  0
 37 36  1  0  0  0  0
 37 35  1  0  0  0  0
M  END
>  <MODEL>
9

>  <REMARK>
 VINA RESULT:      -6.4      2.366      3.372
  Name = 
  6 active torsions:
  status: ('A' for Active; 'I' for Inactive)
    1  A    between atoms: C_2  and  C_27
    2  A    between atoms: C_2  and  C_31
    3  A    between atoms: C_5  and  C_15
    4  A    between atoms: N_14  and  C_17
    5  A    between atoms: C_15  and  C_30
    6  A    between atoms: C_31  and  C_33
                            x       y       z     vdW  Elec       q    Type
                         _______ _______ _______ _____ _____    ______ ____

>  <TORSDO>
F 6

$$$$
