=
 OpenBabel11062419563D

 28 31  0  0  1  0  0  0  0  0999 V2000
  192.5930  175.0340  143.3950 C   0  0  0  0  0  2  0  0  0  0  0  0
  192.2140  176.2120  147.3250 N   0  0  0  0  0  2  0  0  0  0  0  0
  191.8310  175.5090  144.6140 C   0  0  2  0  0  3  0  0  0  0  0  0
  192.9980  174.9790  145.3650 C   0  0  1  0  0  3  0  0  0  0  0  0
  189.0890  174.4820  146.8440 O   0  0  0  0  0  1  0  0  0  0  0  0
  194.4770  177.1100  146.2290 S   0  0  0  0  0  0  0  0  0  0  0  0
  193.8220  174.8500  144.1730 N   0  0  0  0  0  2  0  0  0  0  0  0
  190.1430  175.3030  146.4290 C   0  0  2  0  0  0  0  0  0  0  0  0
  190.6490  174.8180  145.1120 N   0  0  0  0  0  0  0  0  0  0  0  0
  191.1930  175.2410  147.4840 N   0  0  0  0  0  2  0  0  0  0  0  0
  193.2810  176.0060  146.3890 C   0  0  0  0  0  0  0  0  0  0  0  0
  189.5710  171.7930  143.2520 C   0  0  0  0  0  3  0  0  0  0  0  0
  189.8060  172.6270  144.2640 C   0  0  0  0  0  3  0  0  0  0  0  0
  188.9830  174.8070  143.3870 C   0  0  0  0  0  3  0  0  0  0  0  0
  188.0170  174.2720  142.4070 C   0  0  0  0  0  3  0  0  0  0  0  0
  189.3530  172.2540  141.8500 C   0  0  0  0  0  2  0  0  0  0  0  0
  188.1460  173.1230  141.7450 C   0  0  0  0  0  3  0  0  0  0  0  0
  189.8100  174.1060  144.1840 C   0  0  0  0  0  0  0  0  0  0  0  0
  189.6040  176.7340  146.2720 C   0  0  0  0  0  2  0  0  0  0  0  0
  186.3270  177.4360  145.0120 C   0  0  0  0  0  3  0  0  0  0  0  0
  188.1920  176.8650  146.7420 C   0  0  0  0  0  3  0  0  0  0  0  0
  187.2540  177.1460  145.8840 C   0  0  0  0  0  0  0  0  0  0  0  0
  186.6080  177.5680  143.5750 C   0  0  0  0  0  0  0  0  0  0  0  0
  187.2110  177.8400  140.8490 C   0  0  0  0  0  3  0  0  0  0  0  0
  185.6430  177.2630  142.6000 C   0  0  0  0  0  3  0  0  0  0  0  0
  185.9440  177.3990  141.2420 C   0  0  0  0  0  3  0  0  0  0  0  0
  187.8740  178.0100  143.1720 C   0  0  0  0  0  3  0  0  0  0  0  0
  188.1750  178.1440  141.8130 C   0  0  0  0  0  3  0  0  0  0  0  0
  1  7  1  0  0  0  0
  2 10  1  0  0  0  0
  3  1  1  6  0  0  0
  3  9  1  0  0  0  0
  3  4  1  0  0  0  0
  4  7  1  6  0  0  0
  4 11  1  0  0  0  0
  6 11  2  0  0  0  0
  8  5  1  1  0  0  0
  8 10  1  0  0  0  0
  9  8  1  0  0  0  0
 11  2  1  0  0  0  0
 12 13  2  0  0  0  0
 14 18  2  0  0  0  0
 15 14  1  0  0  0  0
 16 12  1  0  0  0  0
 17 16  1  0  0  0  0
 17 15  2  0  0  0  0
 18 13  1  0  0  0  0
 18  9  1  0  0  0  0
 19  8  1  0  0  0  0
 19 21  1  0  0  0  0
 20 22  2  0  0  0  0
 22 21  2  0  0  0  0
 23 20  1  0  0  0  0
 24 26  2  0  0  0  0
 24 28  1  0  0  0  0
 25 23  2  0  0  0  0
 26 25  1  0  0  0  0
 27 23  1  0  0  0  0
 28 27  2  0  0  0  0
M  END
>  <MODEL>
1

>  <REMARK>
 VINA RESULT:      -7.5      0.000      0.000
  Name = 
  4 active torsions:
  status: ('A' for Active; 'I' for Inactive)
    1  A    between atoms: C_3  and  C_15
    2  A    between atoms: C_3  and  C_22
    3  A    between atoms: C_4  and  C_12
    4  A    between atoms: N_16  and  C_28
                            x       y       z     vdW  Elec       q    Type
                         _______ _______ _______ _____ _____    ______ ____

>  <TORSDO>
F 4

$$$$
=
 OpenBabel11062419563D

 28 31  0  0  1  0  0  0  0  0999 V2000
  192.9040  176.1210  142.6380 C   0  0  0  0  0  2  0  0  0  0  0  0
  192.5940  175.8520  146.7370 N   0  0  0  0  0  2  0  0  0  0  0  0
  192.1560  176.0090  143.9490 C   0  0  2  0  0  3  0  0  0  0  0  0
  193.4520  175.5090  144.4750 C   0  0  1  0  0  3  0  0  0  0  0  0
  189.8210  173.7840  145.7220 O   0  0  0  0  0  1  0  0  0  0  0  0
  194.5640  177.4920  145.9930 S   0  0  0  0  0  0  0  0  0  0  0  0
  194.1980  175.9440  143.3030 N   0  0  0  0  0  2  0  0  0  0  0  0
  190.6710  174.8890  145.6000 C   0  0  2  0  0  0  0  0  0  0  0  0
  191.1630  174.9720  144.1940 N   0  0  0  0  0  0  0  0  0  0  0  0
  191.7860  174.6980  146.5680 N   0  0  0  0  0  2  0  0  0  0  0  0
  193.6110  176.1810  145.7810 C   0  0  0  0  0  0  0  0  0  0  0  0
  188.1960  174.8230  141.9690 C   0  0  0  0  0  3  0  0  0  0  0  0
  189.2980  175.2790  142.5650 C   0  0  0  0  0  3  0  0  0  0  0  0
  190.8180  173.3090  142.5010 C   0  0  0  0  0  3  0  0  0  0  0  0
  190.2170  172.6340  141.3340 C   0  0  0  0  0  3  0  0  0  0  0  0
  187.8940  173.3700  141.8180 C   0  0  0  0  0  2  0  0  0  0  0  0
  188.9290  172.6830  140.9930 C   0  0  0  0  0  3  0  0  0  0  0  0
  190.4080  174.4490  143.0860 C   0  0  0  0  0  0  0  0  0  0  0  0
  189.8630  176.1540  145.9330 C   0  0  0  0  0  2  0  0  0  0  0  0
  186.3790  176.8020  146.4430 C   0  0  0  0  0  3  0  0  0  0  0  0
  188.7750  175.8910  146.9210 C   0  0  0  0  0  3  0  0  0  0  0  0
  187.5750  176.3390  146.6880 C   0  0  0  0  0  0  0  0  0  0  0  0
  186.0460  177.5090  145.1980 C   0  0  0  0  0  0  0  0  0  0  0  0
  185.4120  178.7960  142.7880 C   0  0  0  0  0  3  0  0  0  0  0  0
  185.8750  178.9040  145.1610 C   0  0  0  0  0  3  0  0  0  0  0  0
  185.5590  179.5440  143.9590 C   0  0  0  0  0  3  0  0  0  0  0  0
  185.8990  176.7680  144.0190 C   0  0  0  0  0  3  0  0  0  0  0  0
  185.5820  177.4090  142.8180 C   0  0  0  0  0  3  0  0  0  0  0  0
  1  7  1  0  0  0  0
  3  1  1  6  0  0  0
  3  9  1  0  0  0  0
  3  4  1  0  0  0  0
  4  7  1  6  0  0  0
  4 11  1  0  0  0  0
  8  5  1  1  0  0  0
  8 19  1  0  0  0  0
  8 10  1  0  0  0  0
  9  8  1  0  0  0  0
 10  2  1  0  0  0  0
 11  6  2  0  0  0  0
 11  2  1  0  0  0  0
 12 13  2  0  0  0  0
 13 18  1  0  0  0  0
 14 18  2  0  0  0  0
 15 14  1  0  0  0  0
 16 12  1  0  0  0  0
 17 15  2  0  0  0  0
 17 16  1  0  0  0  0
 18  9  1  0  0  0  0
 19 21  1  0  0  0  0
 20 22  2  0  0  0  0
 22 21  2  0  0  0  0
 23 20  1  0  0  0  0
 24 28  2  0  0  0  0
 24 26  1  0  0  0  0
 25 23  1  0  0  0  0
 26 25  2  0  0  0  0
 27 23  2  0  0  0  0
 28 27  1  0  0  0  0
M  END
>  <MODEL>
2

>  <REMARK>
 VINA RESULT:      -7.3      1.384      1.984
  Name = 
  4 active torsions:
  status: ('A' for Active; 'I' for Inactive)
    1  A    between atoms: C_3  and  C_15
    2  A    between atoms: C_3  and  C_22
    3  A    between atoms: C_4  and  C_12
    4  A    between atoms: N_16  and  C_28
                            x       y       z     vdW  Elec       q    Type
                         _______ _______ _______ _____ _____    ______ ____

>  <TORSDO>
F 4

$$$$
=
 OpenBabel11062419563D

 28 31  0  0  1  0  0  0  0  0999 V2000
  190.1780  172.4050  144.9360 C   0  0  0  0  0  2  0  0  0  0  0  0
  190.5630  173.9160  141.1230 N   0  0  0  0  0  2  0  0  0  0  0  0
  189.9810  173.4370  143.8470 C   0  0  2  0  0  3  0  0  0  0  0  0
  191.1290  172.7540  143.1970 C   0  0  1  0  0  3  0  0  0  0  0  0
  190.7720  176.9460  143.0640 O   0  0  0  0  0  1  0  0  0  0  0  0
  190.1560  171.2770  141.1120 S   0  0  0  0  0  0  0  0  0  0  0  0
  191.0620  171.6030  144.0850 N   0  0  0  0  0  2  0  0  0  0  0  0
  190.2750  175.6680  142.7860 C   0  0  2  0  0  0  0  0  0  0  0  0
  190.3550  174.8350  144.0210 N   0  0  0  0  0  0  0  0  0  0  0  0
  191.1010  175.1030  141.6820 N   0  0  0  0  0  2  0  0  0  0  0  0
  190.7470  172.6510  141.7740 C   0  0  0  0  0  0  0  0  0  0  0  0
  188.7350  176.7400  146.7640 C   0  0  0  0  0  3  0  0  0  0  0  0
  188.9820  175.7700  145.8840 C   0  0  0  0  0  3  0  0  0  0  0  0
  191.4490  175.4820  146.0540 C   0  0  0  0  0  3  0  0  0  0  0  0
  191.6120  175.9930  147.4300 C   0  0  0  0  0  3  0  0  0  0  0  0
  189.7870  177.6700  147.2670 C   0  0  0  0  0  2  0  0  0  0  0  0
  190.8600  176.9350  147.9970 C   0  0  0  0  0  3  0  0  0  0  0  0
  190.3120  175.4130  145.3380 C   0  0  0  0  0  0  0  0  0  0  0  0
  188.8050  175.8070  142.3580 C   0  0  0  0  0  2  0  0  0  0  0  0
  186.7850  178.6950  142.9890 C   0  0  0  0  0  3  0  0  0  0  0  0
  188.5060  177.1510  141.7810 C   0  0  0  0  0  3  0  0  0  0  0  0
  187.6510  177.9300  142.3800 C   0  0  0  0  0  0  0  0  0  0  0  0
  186.1500  178.3140  144.2580 C   0  0  0  0  0  0  0  0  0  0  0  0
  184.9390  177.6540  146.7010 C   0  0  0  0  0  3  0  0  0  0  0  0
  185.8290  176.9780  144.5540 C   0  0  0  0  0  3  0  0  0  0  0  0
  185.2250  176.6500  145.7710 C   0  0  0  0  0  3  0  0  0  0  0  0
  185.8620  179.3130  145.1960 C   0  0  0  0  0  3  0  0  0  0  0  0
  185.2570  178.9850  146.4130 C   0  0  0  0  0  3  0  0  0  0  0  0
  2 10  1  0  0  0  0
  2 11  1  0  0  0  0
  3  9  1  0  0  0  0
  3  1  1  1  0  0  0
  4 11  1  6  0  0  0
  4  3  1  0  0  0  0
  4  7  1  0  0  0  0
  6 11  2  0  0  0  0
  7  1  1  0  0  0  0
  8  5  1  1  0  0  0
  8  9  1  0  0  0  0
  9 18  1  0  0  0  0
 10  8  1  0  0  0  0
 12 16  1  0  0  0  0
 13 12  2  0  0  0  0
 14 15  1  0  0  0  0
 15 17  2  0  0  0  0
 16 17  1  0  0  0  0
 18 13  1  0  0  0  0
 18 14  2  0  0  0  0
 19  8  1  0  0  0  0
 20 23  1  0  0  0  0
 21 19  1  0  0  0  0
 21 22  2  0  0  0  0
 22 20  2  0  0  0  0
 23 25  2  0  0  0  0
 23 27  1  0  0  0  0
 25 26  1  0  0  0  0
 26 24  2  0  0  0  0
 27 28  2  0  0  0  0
 28 24  1  0  0  0  0
M  END
>  <MODEL>
3

>  <REMARK>
 VINA RESULT:      -7.2      2.658      4.951
  Name = 
  4 active torsions:
  status: ('A' for Active; 'I' for Inactive)
    1  A    between atoms: C_3  and  C_15
    2  A    between atoms: C_3  and  C_22
    3  A    between atoms: C_4  and  C_12
    4  A    between atoms: N_16  and  C_28
                            x       y       z     vdW  Elec       q    Type
                         _______ _______ _______ _____ _____    ______ ____

>  <TORSDO>
F 4

$$$$
=
 OpenBabel11062419563D

 28 31  0  0  1  0  0  0  0  0999 V2000
  191.2930  171.7370  144.2610 C   0  0  0  0  0  2  0  0  0  0  0  0
  190.0850  173.6510  140.8180 N   0  0  0  0  0  2  0  0  0  0  0  0
  190.5020  172.7540  143.4660 C   0  0  2  0  0  3  0  0  0  0  0  0
  191.5440  172.5350  142.4300 C   0  0  1  0  0  3  0  0  0  0  0  0
  190.0220  176.3910  143.1600 O   0  0  0  0  0  1  0  0  0  0  0  0
  190.4370  171.0330  140.4310 S   0  0  0  0  0  0  0  0  0  0  0  0
  192.0660  171.3420  143.0800 N   0  0  0  0  0  2  0  0  0  0  0  0
  189.8380  175.0540  142.7900 C   0  0  2  0  0  0  0  0  0  0  0  0
  190.5100  174.1750  143.7900 N   0  0  0  0  0  0  0  0  0  0  0  0
  190.4160  174.8880  141.4280 N   0  0  0  0  0  2  0  0  0  0  0  0
  190.7960  172.4530  141.1590 C   0  0  0  0  0  0  0  0  0  0  0  0
  189.3320  175.0790  147.1920 C   0  0  0  0  0  3  0  0  0  0  0  0
  189.5910  174.3540  146.1040 C   0  0  0  0  0  3  0  0  0  0  0  0
  191.9210  175.0200  145.5360 C   0  0  0  0  0  3  0  0  0  0  0  0
  192.3410  175.4380  146.8880 C   0  0  0  0  0  3  0  0  0  0  0  0
  190.1100  176.2950  147.5640 C   0  0  0  0  0  2  0  0  0  0  0  0
  191.5440  175.9690  147.8140 C   0  0  0  0  0  3  0  0  0  0  0  0
  190.7070  174.5800  145.1570 C   0  0  0  0  0  0  0  0  0  0  0  0
  188.3290  174.7610  142.7870 C   0  0  0  0  0  2  0  0  0  0  0  0
  185.8520  177.3460  142.8630 C   0  0  0  0  0  3  0  0  0  0  0  0
  187.5760  175.6630  141.8650 C   0  0  0  0  0  3  0  0  0  0  0  0
  186.7160  176.5090  142.3560 C   0  0  0  0  0  0  0  0  0  0  0  0
  185.6440  177.4840  144.3120 C   0  0  0  0  0  0  0  0  0  0  0  0
  185.1960  177.7940  147.0630 C   0  0  0  0  0  3  0  0  0  0  0  0
  186.4350  176.7890  145.2430 C   0  0  0  0  0  3  0  0  0  0  0  0
  186.2100  176.9440  146.6140 C   0  0  0  0  0  3  0  0  0  0  0  0
  184.6310  178.3340  144.7710 C   0  0  0  0  0  3  0  0  0  0  0  0
  184.4060  178.4880  146.1420 C   0  0  0  0  0  3  0  0  0  0  0  0
  2 11  1  0  0  0  0
  2 10  1  0  0  0  0
  3  9  1  0  0  0  0
  3  1  1  1  0  0  0
  4 11  1  6  0  0  0
  4  7  1  0  0  0  0
  4  3  1  0  0  0  0
  6 11  2  0  0  0  0
  7  1  1  0  0  0  0
  8  5  1  1  0  0  0
  8  9  1  0  0  0  0
  9 18  1  0  0  0  0
 10  8  1  0  0  0  0
 12 16  1  0  0  0  0
 13 12  2  0  0  0  0
 14 15  1  0  0  0  0
 15 17  2  0  0  0  0
 16 17  1  0  0  0  0
 18 14  2  0  0  0  0
 18 13  1  0  0  0  0
 19  8  1  0  0  0  0
 20 23  1  0  0  0  0
 21 22  2  0  0  0  0
 21 19  1  0  0  0  0
 22 20  2  0  0  0  0
 23 27  2  0  0  0  0
 23 25  1  0  0  0  0
 25 26  2  0  0  0  0
 26 24  1  0  0  0  0
 27 28  1  0  0  0  0
 28 24  2  0  0  0  0
M  END
>  <MODEL>
4

>  <REMARK>
 VINA RESULT:      -7.0      2.721      4.992
  Name = 
  4 active torsions:
  status: ('A' for Active; 'I' for Inactive)
    1  A    between atoms: C_3  and  C_15
    2  A    between atoms: C_3  and  C_22
    3  A    between atoms: C_4  and  C_12
    4  A    between atoms: N_16  and  C_28
                            x       y       z     vdW  Elec       q    Type
                         _______ _______ _______ _____ _____    ______ ____

>  <TORSDO>
F 4

$$$$
=
 OpenBabel11062419563D

 28 31  0  0  1  0  0  0  0  0999 V2000
  192.0720  173.0680  142.1900 C   0  0  0  0  0  2  0  0  0  0  0  0
  188.5270  175.1210  141.7560 N   0  0  0  0  0  2  0  0  0  0  0  0
  190.9180  173.9210  142.6700 C   0  0  2  0  0  3  0  0  0  0  0  0
  190.7400  174.2290  141.2270 C   0  0  1  0  0  3  0  0  0  0  0  0
  190.2270  177.2230  144.1410 O   0  0  0  0  0  1  0  0  0  0  0  0
  188.5470  172.8590  140.3400 S   0  0  0  0  0  0  0  0  0  0  0  0
  191.6240  173.1560  140.7970 N   0  0  0  0  0  2  0  0  0  0  0  0
  189.8790  175.9880  143.5840 C   0  0  2  0  0  0  0  0  0  0  0  0
  191.1180  175.1880  143.3590 N   0  0  0  0  0  0  0  0  0  0  0  0
  189.1580  176.2640  142.3100 N   0  0  0  0  0  2  0  0  0  0  0  0
  189.2810  174.1590  141.0060 C   0  0  0  0  0  0  0  0  0  0  0  0
  193.0610  175.0280  146.5180 C   0  0  0  0  0  3  0  0  0  0  0  0
  192.3880  174.6370  145.4360 C   0  0  0  0  0  3  0  0  0  0  0  0
  193.3200  176.0940  143.6460 C   0  0  0  0  0  3  0  0  0  0  0  0
  194.6290  176.3630  144.2740 C   0  0  0  0  0  3  0  0  0  0  0  0
  193.7720  176.3350  146.6060 C   0  0  0  0  0  2  0  0  0  0  0  0
  194.8550  176.4350  145.5850 C   0  0  0  0  0  3  0  0  0  0  0  0
  192.3040  175.3740  144.1540 C   0  0  0  0  0  0  0  0  0  0  0  0
  188.9710  175.2510  144.5810 C   0  0  0  0  0  2  0  0  0  0  0  0
  187.5170  177.5140  146.9450 C   0  0  0  0  0  3  0  0  0  0  0  0
  189.1590  175.7300  145.9830 C   0  0  0  0  0  3  0  0  0  0  0  0
  188.3410  176.6180  146.4720 C   0  0  0  0  0  0  0  0  0  0  0  0
  186.3690  178.0140  146.1750 C   0  0  0  0  0  0  0  0  0  0  0  0
  184.2200  178.9730  144.6480 C   0  0  0  0  0  3  0  0  0  0  0  0
  185.1030  178.1880  146.7600 C   0  0  0  0  0  3  0  0  0  0  0  0
  184.0330  178.6660  145.9990 C   0  0  0  0  0  3  0  0  0  0  0  0
  186.5480  178.3260  144.8220 C   0  0  0  0  0  3  0  0  0  0  0  0
  185.4760  178.8020  144.0600 C   0  0  0  0  0  3  0  0  0  0  0  0
  2 10  1  0  0  0  0
  3  1  1  6  0  0  0
  3  9  1  0  0  0  0
  4  7  1  6  0  0  0
  4  3  1  0  0  0  0
  6 11  2  0  0  0  0
  7  1  1  0  0  0  0
  8  5  1  1  0  0  0
  8 19  1  0  0  0  0
  9  8  1  0  0  0  0
  9 18  1  0  0  0  0
 10  8  1  0  0  0  0
 11  4  1  0  0  0  0
 11  2  1  0  0  0  0
 12 16  1  0  0  0  0
 13 12  2  0  0  0  0
 14 18  2  0  0  0  0
 14 15  1  0  0  0  0
 15 17  2  0  0  0  0
 17 16  1  0  0  0  0
 18 13  1  0  0  0  0
 19 21  1  0  0  0  0
 21 22  2  0  0  0  0
 22 20  2  0  0  0  0
 23 25  1  0  0  0  0
 23 20  1  0  0  0  0
 24 26  1  0  0  0  0
 26 25  2  0  0  0  0
 27 23  2  0  0  0  0
 28 24  2  0  0  0  0
 28 27  1  0  0  0  0
M  END
>  <MODEL>
5

>  <REMARK>
 VINA RESULT:      -7.0      2.871      4.864
  Name = 
  4 active torsions:
  status: ('A' for Active; 'I' for Inactive)
    1  A    between atoms: C_3  and  C_15
    2  A    between atoms: C_3  and  C_22
    3  A    between atoms: C_4  and  C_12
    4  A    between atoms: N_16  and  C_28
                            x       y       z     vdW  Elec       q    Type
                         _______ _______ _______ _____ _____    ______ ____

>  <TORSDO>
F 4

$$$$
=
 OpenBabel11062419563D

 28 31  0  0  1  0  0  0  0  0999 V2000
  191.1260  172.8040  144.9940 C   0  0  0  0  0  2  0  0  0  0  0  0
  190.0300  173.4600  141.0770 N   0  0  0  0  0  2  0  0  0  0  0  0
  190.3550  173.4860  143.8850 C   0  0  2  0  0  3  0  0  0  0  0  0
  191.4390  172.9670  143.0120 C   0  0  1  0  0  3  0  0  0  0  0  0
  189.8390  176.8110  142.3920 O   0  0  0  0  0  1  0  0  0  0  0  0
  190.4320  170.8690  141.5780 S   0  0  0  0  0  0  0  0  0  0  0  0
  191.9510  172.0650  144.0330 N   0  0  0  0  0  2  0  0  0  0  0  0
  189.6870  175.4220  142.4730 C   0  0  2  0  0  0  0  0  0  0  0  0
  190.3310  174.9340  143.7270 N   0  0  0  0  0  0  0  0  0  0  0  0
  190.3210  174.8360  141.2590 N   0  0  0  0  0  2  0  0  0  0  0  0
  190.7430  172.4570  141.8130 C   0  0  0  0  0  0  0  0  0  0  0  0
  192.2460  176.4550  146.5190 C   0  0  0  0  0  3  0  0  0  0  0  0
  191.8380  176.1760  145.2810 C   0  0  0  0  0  3  0  0  0  0  0  0
  189.3580  176.2380  145.4890 C   0  0  0  0  0  3  0  0  0  0  0  0
  189.2810  177.1370  146.6580 C   0  0  0  0  0  3  0  0  0  0  0  0
  191.3710  176.3110  147.7170 C   0  0  0  0  0  2  0  0  0  0  0  0
  190.1840  177.2110  147.6350 C   0  0  0  0  0  3  0  0  0  0  0  0
  190.4680  175.7680  144.8920 C   0  0  0  0  0  0  0  0  0  0  0  0
  188.1830  175.1060  142.5160 C   0  0  0  0  0  2  0  0  0  0  0  0
  185.8270  177.7770  142.8890 C   0  0  0  0  0  3  0  0  0  0  0  0
  187.3790  176.0570  141.6910 C   0  0  0  0  0  3  0  0  0  0  0  0
  186.6040  176.9210  142.2820 C   0  0  0  0  0  0  0  0  0  0  0  0
  185.7700  177.8890  144.3540 C   0  0  0  0  0  0  0  0  0  0  0  0
  185.6550  178.0310  147.1530 C   0  0  0  0  0  3  0  0  0  0  0  0
  185.8110  179.1340  145.0040 C   0  0  0  0  0  3  0  0  0  0  0  0
  185.7550  179.2040  146.3990 C   0  0  0  0  0  3  0  0  0  0  0  0
  185.6690  176.7190  145.1170 C   0  0  0  0  0  3  0  0  0  0  0  0
  185.6130  176.7890  146.5120 C   0  0  0  0  0  3  0  0  0  0  0  0
  2 10  1  0  0  0  0
  2 11  1  0  0  0  0
  3  1  1  1  0  0  0
  4 11  1  6  0  0  0
  4  3  1  0  0  0  0
  4  7  1  0  0  0  0
  6 11  2  0  0  0  0
  7  1  1  0  0  0  0
  8  5  1  6  0  0  0
  8 19  1  0  0  0  0
  8  9  1  0  0  0  0
  9  3  1  0  0  0  0
  9 18  1  0  0  0  0
 10  8  1  0  0  0  0
 12 16  1  0  0  0  0
 13 12  2  0  0  0  0
 14 15  1  0  0  0  0
 15 17  2  0  0  0  0
 17 16  1  0  0  0  0
 18 13  1  0  0  0  0
 18 14  2  0  0  0  0
 20 23  1  0  0  0  0
 21 22  2  0  0  0  0
 21 19  1  0  0  0  0
 22 20  2  0  0  0  0
 23 25  2  0  0  0  0
 23 27  1  0  0  0  0
 25 26  1  0  0  0  0
 26 24  2  0  0  0  0
 27 28  2  0  0  0  0
 28 24  1  0  0  0  0
M  END
>  <MODEL>
6

>  <REMARK>
 VINA RESULT:      -6.7      2.650      4.946
  Name = 
  4 active torsions:
  status: ('A' for Active; 'I' for Inactive)
    1  A    between atoms: C_3  and  C_15
    2  A    between atoms: C_3  and  C_22
    3  A    between atoms: C_4  and  C_12
    4  A    between atoms: N_16  and  C_28
                            x       y       z     vdW  Elec       q    Type
                         _______ _______ _______ _____ _____    ______ ____

>  <TORSDO>
F 4

$$$$
=
 OpenBabel11062419563D

 28 31  0  0  1  0  0  0  0  0999 V2000
  192.0900  173.3440  142.2730 C   0  0  0  0  0  2  0  0  0  0  0  0
  188.4120  175.2020  142.2650 N   0  0  0  0  0  2  0  0  0  0  0  0
  190.9340  174.0920  142.9010 C   0  0  2  0  0  3  0  0  0  0  0  0
  190.6200  174.4830  141.5020 C   0  0  1  0  0  3  0  0  0  0  0  0
  190.1850  177.2430  144.6500 O   0  0  0  0  0  1  0  0  0  0  0  0
  188.4410  173.0420  140.6960 S   0  0  0  0  0  0  0  0  0  0  0  0
  191.5240  173.4960  140.9290 N   0  0  0  0  0  2  0  0  0  0  0  0
  189.8600  176.0280  144.0370 C   0  0  2  0  0  0  0  0  0  0  0  0
  191.1200  175.3220  143.6590 N   0  0  0  0  0  0  0  0  0  0  0  0
  189.0230  176.3430  142.8460 N   0  0  0  0  0  2  0  0  0  0  0  0
  189.1540  174.3390  141.3920 C   0  0  0  0  0  0  0  0  0  0  0  0
  194.6740  176.3600  143.9150 C   0  0  0  0  0  3  0  0  0  0  0  0
  193.3530  176.4320  143.7550 C   0  0  0  0  0  3  0  0  0  0  0  0
  192.4920  174.9990  145.6000 C   0  0  0  0  0  3  0  0  0  0  0  0
  193.6500  175.1290  146.5060 C   0  0  0  0  0  3  0  0  0  0  0  0
  195.3420  175.2770  144.6930 C   0  0  0  0  0  2  0  0  0  0  0  0
  194.9160  175.2920  146.1220 C   0  0  0  0  0  3  0  0  0  0  0  0
  192.3550  175.5270  144.3700 C   0  0  0  0  0  0  0  0  0  0  0  0
  189.0800  175.1730  145.0480 C   0  0  0  0  0  2  0  0  0  0  0  0
  187.3890  177.5990  147.0670 C   0  0  0  0  0  3  0  0  0  0  0  0
  189.1130  175.7500  146.4260 C   0  0  0  0  0  3  0  0  0  0  0  0
  188.2540  176.6710  146.7550 C   0  0  0  0  0  0  0  0  0  0  0  0
  186.3400  178.0440  146.1380 C   0  0  0  0  0  0  0  0  0  0  0  0
  184.2920  178.8950  144.4210 C   0  0  0  0  0  3  0  0  0  0  0  0
  186.6010  178.2640  144.7750 C   0  0  0  0  0  3  0  0  0  0  0  0
  185.5810  178.6870  143.9200 C   0  0  0  0  0  3  0  0  0  0  0  0
  185.0470  178.2530  146.6310 C   0  0  0  0  0  3  0  0  0  0  0  0
  184.0260  178.6780  145.7750 C   0  0  0  0  0  3  0  0  0  0  0  0
  2 10  1  0  0  0  0
  3  1  1  6  0  0  0
  3  9  1  0  0  0  0
  4  7  1  6  0  0  0
  4  3  1  0  0  0  0
  6 11  2  0  0  0  0
  7  1  1  0  0  0  0
  8  5  1  1  0  0  0
  8 19  1  0  0  0  0
  9  8  1  0  0  0  0
  9 18  1  0  0  0  0
 10  8  1  0  0  0  0
 11  4  1  0  0  0  0
 11  2  1  0  0  0  0
 12 16  1  0  0  0  0
 13 12  2  0  0  0  0
 13 18  1  0  0  0  0
 14 15  1  0  0  0  0
 16 17  1  0  0  0  0
 17 15  2  0  0  0  0
 18 14  2  0  0  0  0
 19 21  1  0  0  0  0
 21 22  2  0  0  0  0
 22 20  2  0  0  0  0
 23 27  1  0  0  0  0
 23 20  1  0  0  0  0
 24 28  1  0  0  0  0
 25 23  2  0  0  0  0
 26 24  2  0  0  0  0
 26 25  1  0  0  0  0
 28 27  2  0  0  0  0
M  END
>  <MODEL>
7

>  <REMARK>
 VINA RESULT:      -6.6      2.775      4.827
  Name = 
  4 active torsions:
  status: ('A' for Active; 'I' for Inactive)
    1  A    between atoms: C_3  and  C_15
    2  A    between atoms: C_3  and  C_22
    3  A    between atoms: C_4  and  C_12
    4  A    between atoms: N_16  and  C_28
                            x       y       z     vdW  Elec       q    Type
                         _______ _______ _______ _____ _____    ______ ____

>  <TORSDO>
F 4

$$$$
=
 OpenBabel11062419563D

 28 31  0  0  1  0  0  0  0  0999 V2000
  190.3380  172.4980  144.7360 C   0  0  0  0  0  2  0  0  0  0  0  0
  189.0310  174.7880  141.5710 N   0  0  0  0  0  2  0  0  0  0  0  0
  190.0710  173.7960  144.0040 C   0  0  2  0  0  3  0  0  0  0  0  0
  190.0580  172.9370  142.7920 C   0  0  1  0  0  3  0  0  0  0  0  0
  191.8330  176.7530  142.7010 O   0  0  0  0  0  1  0  0  0  0  0  0
  187.4610  172.6680  141.9810 S   0  0  0  0  0  0  0  0  0  0  0  0
  189.9810  171.7030  143.5580 N   0  0  0  0  0  2  0  0  0  0  0  0
  190.7210  175.9270  142.8980 C   0  0  2  0  0  0  0  0  0  0  0  0
  191.1020  174.8060  143.8050 N   0  0  0  0  0  0  0  0  0  0  0  0
  190.2920  175.4360  141.5590 N   0  0  0  0  0  2  0  0  0  0  0  0
  188.9110  173.4250  142.0000 C   0  0  0  0  0  0  0  0  0  0  0  0
  192.6410  176.2090  146.8780 C   0  0  0  0  0  3  0  0  0  0  0  0
  191.8100  175.5320  146.0860 C   0  0  0  0  0  3  0  0  0  0  0  0
  193.3580  174.3900  144.5060 C   0  0  0  0  0  3  0  0  0  0  0  0
  194.5490  174.3690  145.3790 C   0  0  0  0  0  3  0  0  0  0  0  0
  194.0470  176.5280  146.5000 C   0  0  0  0  0  2  0  0  0  0  0  0
  194.8500  175.2880  146.2950 C   0  0  0  0  0  3  0  0  0  0  0  0
  192.1570  174.9310  144.7770 C   0  0  0  0  0  0  0  0  0  0  0  0
  189.6140  176.7630  143.5590 C   0  0  0  0  0  2  0  0  0  0  0  0
  186.6370  178.7000  143.0980 C   0  0  0  0  0  3  0  0  0  0  0  0
  189.0280  177.7710  142.6240 C   0  0  0  0  0  3  0  0  0  0  0  0
  187.8360  178.2420  142.8560 C   0  0  0  0  0  0  0  0  0  0  0  0
  185.8730  178.3160  144.2940 C   0  0  0  0  0  0  0  0  0  0  0  0
  184.4580  177.5290  146.5840 C   0  0  0  0  0  3  0  0  0  0  0  0
  184.7640  179.0580  144.7340 C   0  0  0  0  0  3  0  0  0  0  0  0
  184.0600  178.6660  145.8750 C   0  0  0  0  0  3  0  0  0  0  0  0
  186.2650  177.1790  145.0090 C   0  0  0  0  0  3  0  0  0  0  0  0
  185.5610  176.7860  146.1520 C   0  0  0  0  0  3  0  0  0  0  0  0
  2 11  1  0  0  0  0
  3  1  1  1  0  0  0
  4 11  1  6  0  0  0
  4  7  1  0  0  0  0
  4  3  1  0  0  0  0
  6 11  2  0  0  0  0
  7  1  1  0  0  0  0
  8  5  1  6  0  0  0
  8 19  1  0  0  0  0
  8  9  1  0  0  0  0
  9  3  1  0  0  0  0
  9 18  1  0  0  0  0
 10  2  1  0  0  0  0
 10  8  1  0  0  0  0
 13 12  2  0  0  0  0
 14 18  2  0  0  0  0
 14 15  1  0  0  0  0
 15 17  2  0  0  0  0
 16 12  1  0  0  0  0
 17 16  1  0  0  0  0
 18 13  1  0  0  0  0
 20 23  1  0  0  0  0
 21 22  2  0  0  0  0
 21 19  1  0  0  0  0
 22 20  2  0  0  0  0
 23 25  2  0  0  0  0
 23 27  1  0  0  0  0
 25 26  1  0  0  0  0
 26 24  2  0  0  0  0
 27 28  2  0  0  0  0
 28 24  1  0  0  0  0
M  END
>  <MODEL>
8

>  <REMARK>
 VINA RESULT:      -6.6      2.727      5.157
  Name = 
  4 active torsions:
  status: ('A' for Active; 'I' for Inactive)
    1  A    between atoms: C_3  and  C_15
    2  A    between atoms: C_3  and  C_22
    3  A    between atoms: C_4  and  C_12
    4  A    between atoms: N_16  and  C_28
                            x       y       z     vdW  Elec       q    Type
                         _______ _______ _______ _____ _____    ______ ____

>  <TORSDO>
F 4

$$$$
=
 OpenBabel11062419563D

 28 31  0  0  1  0  0  0  0  0999 V2000
  189.4950  174.9830  147.3850 C   0  0  0  0  0  2  0  0  0  0  0  0
  191.5950  175.6890  143.9110 N   0  0  0  0  0  2  0  0  0  0  0  0
  189.6360  175.3160  145.9150 C   0  0  2  0  0  3  0  0  0  0  0  0
  191.0230  175.6980  146.2880 C   0  0  1  0  0  3  0  0  0  0  0  0
  188.8420  177.9810  143.5030 O   0  0  0  0  0  1  0  0  0  0  0  0
  192.7060  173.7490  145.3700 S   0  0  0  0  0  0  0  0  0  0  0  0
  190.9440  175.0600  147.5930 N   0  0  0  0  0  2  0  0  0  0  0  0
  189.4160  176.7710  143.9090 C   0  0  2  0  0  0  0  0  0  0  0  0
  189.0120  176.4890  145.3180 N   0  0  0  0  0  0  0  0  0  0  0  0
  190.8920  176.9130  143.7730 N   0  0  0  0  0  2  0  0  0  0  0  0
  191.8660  175.1430  145.2090 C   0  0  0  0  0  0  0  0  0  0  0  0
  187.0420  178.5070  147.7310 C   0  0  0  0  0  3  0  0  0  0  0  0
  187.8710  178.1980  146.7340 C   0  0  0  0  0  3  0  0  0  0  0  0
  186.6220  176.4320  145.5020 C   0  0  0  0  0  3  0  0  0  0  0  0
  185.2620  176.8250  145.9200 C   0  0  0  0  0  3  0  0  0  0  0  0
  185.9360  177.6110  148.1780 C   0  0  0  0  0  2  0  0  0  0  0  0
  184.9450  177.3850  147.0870 C   0  0  0  0  0  3  0  0  0  0  0  0
  187.7860  176.9920  145.8780 C   0  0  0  0  0  0  0  0  0  0  0  0
  188.8830  175.6560  142.9940 C   0  0  0  0  0  2  0  0  0  0  0  0
  186.7690  177.7090  140.9600 C   0  0  0  0  0  3  0  0  0  0  0  0
  188.7320  176.1070  141.5780 C   0  0  0  0  0  3  0  0  0  0  0  0
  187.7570  176.9100  141.2620 C   0  0  0  0  0  0  0  0  0  0  0  0
  185.8460  178.2400  141.9730 C   0  0  0  0  0  0  0  0  0  0  0  0
  184.1360  179.2900  143.9330 C   0  0  0  0  0  3  0  0  0  0  0  0
  184.4950  177.8530  142.0200 C   0  0  0  0  0  3  0  0  0  0  0  0
  183.6440  178.3770  142.9970 C   0  0  0  0  0  3  0  0  0  0  0  0
  186.3300  179.1540  142.9160 C   0  0  0  0  0  3  0  0  0  0  0  0
  185.4780  179.6790  143.8930 C   0  0  0  0  0  3  0  0  0  0  0  0
  1  7  1  0  0  0  0
  2 11  1  0  0  0  0
  3  4  1  0  0  0  0
  3  1  1  1  0  0  0
  4 11  1  6  0  0  0
  4  7  1  0  0  0  0
  8  5  1  6  0  0  0
  8  9  1  0  0  0  0
  9 18  1  0  0  0  0
  9  3  1  0  0  0  0
 10  8  1  0  0  0  0
 10  2  1  0  0  0  0
 11  6  2  0  0  0  0
 12 16  1  0  0  0  0
 13 12  2  0  0  0  0
 14 18  2  0  0  0  0
 14 15  1  0  0  0  0
 15 17  2  0  0  0  0
 17 16  1  0  0  0  0
 18 13  1  0  0  0  0
 19  8  1  0  0  0  0
 20 22  2  0  0  0  0
 20 23  1  0  0  0  0
 21 19  1  0  0  0  0
 22 21  2  0  0  0  0
 23 25  2  0  0  0  0
 23 27  1  0  0  0  0
 25 26  1  0  0  0  0
 26 24  2  0  0  0  0
 27 28  2  0  0  0  0
 28 24  1  0  0  0  0
M  END
>  <MODEL>
9

>  <REMARK>
 VINA RESULT:      -6.5      2.174      4.551
  Name = 
  4 active torsions:
  status: ('A' for Active; 'I' for Inactive)
    1  A    between atoms: C_3  and  C_15
    2  A    between atoms: C_3  and  C_22
    3  A    between atoms: C_4  and  C_12
    4  A    between atoms: N_16  and  C_28
                            x       y       z     vdW  Elec       q    Type
                         _______ _______ _______ _____ _____    ______ ____

>  <TORSDO>
F 4

$$$$
