=
 OpenBabel11062419563D

 28 31  0  0  1  0  0  0  0  0999 V2000
  190.0360  175.1060  142.5990 C   0  0  0  0  0  0  0  0  0  0  0  0
  188.0490  174.8240  139.7200 N   0  0  0  0  0  1  0  0  0  0  0  0
  192.4560  174.7820  143.0560 S   0  0  0  0  0  0  0  0  0  0  0  0
  191.6440  175.8760  144.0920 C   0  0  0  0  0  0  0  0  0  0  0  0
  188.7820  175.0230  142.0300 C   0  0  0  0  0  0  0  0  0  0  0  0
  189.8330  173.3350  140.4390 C   0  0  0  0  0  3  0  0  0  0  0  0
  188.5660  174.0850  140.8580 C   0  0  2  0  0  3  0  0  0  0  0  0
  187.7650  175.8160  142.5880 C   0  0  0  0  0  3  0  0  0  0  0  0
  188.0610  176.6670  143.6760 C   0  0  0  0  0  0  0  0  0  0  0  0
  190.9850  173.4890  141.0380 N   0  0  0  0  0  0  0  0  0  0  0  0
  190.3130  175.9410  143.6680 C   0  0  0  0  0  0  0  0  0  0  0  0
  191.0980  174.3890  142.1400 C   0  0  0  0  0  0  0  0  0  0  0  0
  189.3310  176.7180  144.1960 N   0  0  0  0  0  0  0  0  0  0  0  0
  194.2670  176.7210  146.4580 C   0  0  0  0  0  2  0  0  0  0  0  0
  192.2910  176.7330  145.1440 C   0  0  2  0  0  3  0  0  0  0  0  0
  193.7990  176.7090  145.0330 C   0  0  0  0  0  2  0  0  0  0  0  0
  191.9430  176.2940  146.4320 O   0  0  0  0  0  0  0  0  0  0  0  0
  192.9870  176.7270  147.2610 C   0  0  0  0  0  2  0  0  0  0  0  0
  186.9710  177.5110  144.2610 C   0  0  1  0  0  3  0  0  0  0  0  0
  183.9080  178.1830  141.9660 C   0  0  0  0  0  1  0  0  0  0  0  0
  184.7670  177.6510  143.0100 N   0  0  0  0  0  2  0  0  0  0  0  0
  186.5960  178.9810  142.4280 O   0  0  0  0  0  0  0  0  0  0  0  0
  186.1140  178.0980  143.1860 C   0  0  0  0  0  0  0  0  0  0  0  0
  186.1260  176.7280  145.2580 C   0  0  0  0  0  2  0  0  0  0  0  0
  186.6150  176.9710  146.6770 C   0  0  0  0  0  2  0  0  0  0  0  0
  186.1990  179.0770  147.6950 O   0  0  0  0  0  1  0  0  0  0  0  0
  184.3620  178.0270  146.6200 C   0  0  0  0  0  1  0  0  0  0  0  0
  185.6250  177.8330  147.4380 C   0  0  1  0  0  3  0  0  0  0  0  0
  1 11  1  0  0  0  0
  3  4  1  0  0  0  0
  5  8  2  0  0  0  0
  5  1  1  0  0  0  0
  6  7  1  0  0  0  0
  6 10  2  0  0  0  0
  7  2  1  6  0  0  0
  7  5  1  0  0  0  0
  8  9  1  0  0  0  0
  9 13  2  0  0  0  0
  9 19  1  0  0  0  0
 10 12  1  0  0  0  0
 11  4  2  0  0  0  0
 11 13  1  0  0  0  0
 12  1  2  0  0  0  0
 12  3  1  0  0  0  0
 14 18  1  0  0  0  0
 15  4  1  6  0  0  0
 15 17  1  0  0  0  0
 16 15  1  0  0  0  0
 16 14  1  0  0  0  0
 17 18  1  0  0  0  0
 19 24  1  1  0  0  0
 20 21  1  0  0  0  0
 21 23  1  0  0  0  0
 22 23  2  0  0  0  0
 23 19  1  0  0  0  0
 24 25  1  0  0  0  0
 25 28  1  0  0  0  0
 28 27  1  6  0  0  0
 28 26  1  0  0  0  0
M  END
>  <MODEL>
1

>  <REMARK>
 VINA RESULT:      -6.9      0.000      0.000
  Name = 
  6 active torsions:
  status: ('A' for Active; 'I' for Inactive)
    1  A    between atoms: C_5  and  C_11
    2  A    between atoms: C_6  and  C_15
    3  A    between atoms: C_6  and  C_25
    4  A    between atoms: C_15  and  C_16
    5  A    between atoms: C_16  and  C_17
    6  A    between atoms: C_16  and  C_21
                            x       y       z     vdW  Elec       q    Type
                         _______ _______ _______ _____ _____    ______ ____

>  <TORSDO>
F 6

$$$$
=
 OpenBabel11062419563D

 28 31  0  0  1  0  0  0  0  0999 V2000
  190.6060  175.2920  144.6510 C   0  0  2  0  0  3  0  0  0  0  0  0
  191.0990  176.2570  147.9900 N   0  0  0  0  0  1  0  0  0  0  0  0
  191.4770  173.4350  143.2520 S   0  0  0  0  0  0  0  0  0  0  0  0
  189.9490  174.0550  142.7970 C   0  0  0  0  0  0  0  0  0  0  0  0
  190.4780  176.2480  145.6390 C   0  0  0  0  0  0  0  0  0  0  0  0
  192.7760  175.4700  146.4140 C   0  0  0  0  0  3  0  0  0  0  0  0
  191.6030  176.4280  146.6390 C   0  0  0  0  0  0  0  0  0  0  0  0
  189.3000  177.0130  145.6490 C   0  0  0  0  0  3  0  0  0  0  0  0
  188.3010  176.7690  144.6790 C   0  0  0  0  0  0  0  0  0  0  0  0
  192.8010  174.5870  145.4490 N   0  0  0  0  0  0  0  0  0  0  0  0
  189.6220  175.0660  143.7040 C   0  0  0  0  0  0  0  0  0  0  0  0
  191.7000  174.4900  144.5460 C   0  0  0  0  0  0  0  0  0  0  0  0
  188.4770  175.7980  143.7260 N   0  0  0  0  0  0  0  0  0  0  0  0
  189.2890  172.3500  139.6590 C   0  0  0  0  0  2  0  0  0  0  0  0
  189.0570  173.4910  141.7260 C   0  0  2  0  0  3  0  0  0  0  0  0
  189.6460  172.2400  141.1100 C   0  0  0  0  0  2  0  0  0  0  0  0
  188.8530  174.4260  140.6990 O   0  0  0  0  0  0  0  0  0  0  0  0
  188.5470  173.6630  139.5640 C   0  0  0  0  0  2  0  0  0  0  0  0
  187.0470  177.5890  144.7010 C   0  0  1  0  0  3  0  0  0  0  0  0
  184.8890  178.0250  141.4980 C   0  0  0  0  0  1  0  0  0  0  0  0
  185.3210  177.6810  142.8430 N   0  0  0  0  0  2  0  0  0  0  0  0
  187.4690  178.5530  142.5670 O   0  0  0  0  0  0  0  0  0  0  0  0
  186.6370  177.9760  143.3160 C   0  0  0  0  0  0  0  0  0  0  0  0
  185.9140  176.8650  145.4170 C   0  0  0  0  0  2  0  0  0  0  0  0
  185.9640  177.1430  146.9110 C   0  0  0  0  0  2  0  0  0  0  0  0
  185.8290  179.4610  147.4150 O   0  0  0  0  0  1  0  0  0  0  0  0
  184.0400  178.5330  146.1610 C   0  0  0  0  0  1  0  0  0  0  0  0
  185.0590  178.3090  147.2630 C   0  0  1  0  0  3  0  0  0  0  0  0
  1 11  1  1  0  0  0
  1  5  1  0  0  0  0
  3 12  1  0  0  0  0
  4  3  1  0  0  0  0
  4 11  2  0  0  0  0
  5  8  2  0  0  0  0
  5  7  1  0  0  0  0
  6  7  2  0  0  0  0
  7  2  1  0  0  0  0
  9 19  1  0  0  0  0
  9  8  1  0  0  0  0
 10  6  1  0  0  0  0
 11 13  1  0  0  0  0
 12  1  1  0  0  0  0
 12 10  2  0  0  0  0
 13  9  2  0  0  0  0
 14 16  1  0  0  0  0
 15  4  1  1  0  0  0
 16 15  1  0  0  0  0
 17 15  1  0  0  0  0
 18 14  1  0  0  0  0
 18 17  1  0  0  0  0
 19 24  1  6  0  0  0
 20 21  1  0  0  0  0
 21 23  1  0  0  0  0
 22 23  2  0  0  0  0
 23 19  1  0  0  0  0
 24 25  1  0  0  0  0
 25 28  1  0  0  0  0
 28 27  1  6  0  0  0
 28 26  1  0  0  0  0
M  END
>  <MODEL>
2

>  <REMARK>
 VINA RESULT:      -6.8      2.045      4.518
  Name = 
  6 active torsions:
  status: ('A' for Active; 'I' for Inactive)
    1  A    between atoms: C_5  and  C_11
    2  A    between atoms: C_6  and  C_15
    3  A    between atoms: C_6  and  C_25
    4  A    between atoms: C_15  and  C_16
    5  A    between atoms: C_16  and  C_17
    6  A    between atoms: C_16  and  C_21
                            x       y       z     vdW  Elec       q    Type
                         _______ _______ _______ _____ _____    ______ ____

>  <TORSDO>
F 6

$$$$
=
 OpenBabel11062419563D

 28 31  0  0  1  0  0  0  0  0999 V2000
  186.2540  178.0220  142.7630 C   0  0  0  0  0  0  0  0  0  0  0  0
  187.3870  176.3090  139.9160 N   0  0  0  0  0  1  0  0  0  0  0  0
  184.0030  178.5970  143.6420 S   0  0  0  0  0  0  0  0  0  0  0  0
  185.2420  178.4490  144.8120 C   0  0  0  0  0  0  0  0  0  0  0  0
  187.2910  177.6930  141.9130 C   0  0  0  0  0  0  0  0  0  0  0  0
  185.5720  177.9240  140.0480 C   0  0  0  0  0  3  0  0  0  0  0  0
  187.0260  177.6220  140.4220 C   0  0  2  0  0  3  0  0  0  0  0  0
  188.5490  177.4540  142.4910 C   0  0  0  0  0  3  0  0  0  0  0  0
  188.7000  177.5370  143.8940 C   0  0  0  0  0  0  0  0  0  0  0  0
  184.6540  178.2180  140.9320 N   0  0  0  0  0  0  0  0  0  0  0  0
  186.4160  178.1040  144.1360 C   0  0  0  0  0  0  0  0  0  0  0  0
  184.9930  178.2710  142.3180 C   0  0  0  0  0  0  0  0  0  0  0  0
  187.6300  177.8570  144.6930 N   0  0  0  0  0  0  0  0  0  0  0  0
  186.3740  178.9110  148.2320 C   0  0  0  0  0  2  0  0  0  0  0  0
  185.0530  178.5080  146.3030 C   0  0  2  0  0  3  0  0  0  0  0  0
  185.9550  179.5430  146.9390 C   0  0  0  0  0  2  0  0  0  0  0  0
  185.3340  177.2650  146.8930 O   0  0  0  0  0  0  0  0  0  0  0  0
  185.6960  177.5610  148.2150 C   0  0  0  0  0  2  0  0  0  0  0  0
  190.0450  177.2760  144.5000 C   0  0  1  0  0  3  0  0  0  0  0  0
  189.2980  174.6920  147.3050 C   0  0  0  0  0  1  0  0  0  0  0  0
  189.4590  175.3160  146.0030 N   0  0  0  0  0  2  0  0  0  0  0  0
  190.1840  177.3570  146.8740 O   0  0  0  0  0  0  0  0  0  0  0  0
  189.9100  176.6650  145.8590 C   0  0  0  0  0  0  0  0  0  0  0  0
  190.9090  176.4030  143.5990 C   0  0  0  0  0  2  0  0  0  0  0  0
  192.3740  176.7870  143.7320 C   0  0  0  0  0  2  0  0  0  0  0  0
  194.2460  175.3230  143.7560 O   0  0  0  0  0  1  0  0  0  0  0  0
  193.5960  176.2630  145.8360 C   0  0  0  0  0  1  0  0  0  0  0  0
  193.1340  175.7200  144.4970 C   0  0  1  0  0  3  0  0  0  0  0  0
  1 11  1  0  0  0  0
  3  4  1  0  0  0  0
  5  8  2  0  0  0  0
  5  1  1  0  0  0  0
  6  7  1  0  0  0  0
  6 10  2  0  0  0  0
  7  2  1  1  0  0  0
  7  5  1  0  0  0  0
  8  9  1  0  0  0  0
  9 19  1  0  0  0  0
  9 13  2  0  0  0  0
 10 12  1  0  0  0  0
 11 13  1  0  0  0  0
 11  4  2  0  0  0  0
 12  1  2  0  0  0  0
 12  3  1  0  0  0  0
 15  4  1  6  0  0  0
 15 17  1  0  0  0  0
 15 16  1  0  0  0  0
 16 14  1  0  0  0  0
 17 18  1  0  0  0  0
 18 14  1  0  0  0  0
 19 24  1  6  0  0  0
 19 23  1  0  0  0  0
 21 20  1  0  0  0  0
 23 21  1  0  0  0  0
 23 22  2  0  0  0  0
 24 25  1  0  0  0  0
 25 28  1  0  0  0  0
 26 28  1  0  0  0  0
 28 27  1  1  0  0  0
M  END
>  <MODEL>
3

>  <REMARK>
 VINA RESULT:      -6.8      2.850      6.444
  Name = 
  6 active torsions:
  status: ('A' for Active; 'I' for Inactive)
    1  A    between atoms: C_5  and  C_11
    2  A    between atoms: C_6  and  C_15
    3  A    between atoms: C_6  and  C_25
    4  A    between atoms: C_15  and  C_16
    5  A    between atoms: C_16  and  C_17
    6  A    between atoms: C_16  and  C_21
                            x       y       z     vdW  Elec       q    Type
                         _______ _______ _______ _____ _____    ______ ____

>  <TORSDO>
F 6

$$$$
=
 OpenBabel11062419563D

 28 31  0  0  1  0  0  0  0  0999 V2000
  186.4460  177.4520  145.0690 C   0  0  2  0  0  3  0  0  0  0  0  0
  186.5790  178.6760  148.3560 N   0  0  0  0  0  1  0  0  0  0  0  0
  185.1600  178.0970  143.0450 S   0  0  0  0  0  0  0  0  0  0  0  0
  186.6650  177.3360  142.7580 C   0  0  0  0  0  0  0  0  0  0  0  0
  186.8350  177.2790  146.3820 C   0  0  0  0  0  0  0  0  0  0  0  0
  184.6030  178.3530  146.9750 C   0  0  0  0  0  3  0  0  0  0  0  0
  185.9020  177.7270  147.4900 C   0  0  0  0  0  0  0  0  0  0  0  0
  188.0840  176.6790  146.6130 C   0  0  0  0  0  3  0  0  0  0  0  0
  188.8900  176.2990  145.5160 C   0  0  0  0  0  0  0  0  0  0  0  0
  184.3280  178.4820  145.7030 N   0  0  0  0  0  0  0  0  0  0  0  0
  187.2440  177.0710  144.0030 C   0  0  0  0  0  0  0  0  0  0  0  0
  185.2620  178.0250  144.7250 C   0  0  0  0  0  0  0  0  0  0  0  0
  188.4570  176.5050  144.2300 N   0  0  0  0  0  0  0  0  0  0  0  0
  186.6390  176.8040  139.1650 C   0  0  0  0  0  2  0  0  0  0  0  0
  187.3130  177.1520  141.4130 C   0  0  2  0  0  3  0  0  0  0  0  0
  186.4840  177.7640  140.3060 C   0  0  0  0  0  2  0  0  0  0  0  0
  187.4870  175.7890  141.1230 O   0  0  0  0  0  0  0  0  0  0  0  0
  187.5240  175.7140  139.7240 C   0  0  0  0  0  2  0  0  0  0  0  0
  190.2210  175.6630  145.7740 C   0  0  1  0  0  3  0  0  0  0  0  0
  189.9880  172.0700  144.3110 C   0  0  0  0  0  1  0  0  0  0  0  0
  189.7920  173.2410  145.1500 N   0  0  0  0  0  2  0  0  0  0  0  0
  191.1990  174.6050  143.8800 O   0  0  0  0  0  0  0  0  0  0  0  0
  190.4350  174.4880  144.8740 C   0  0  0  0  0  0  0  0  0  0  0  0
  191.3600  176.6650  145.6330 C   0  0  0  0  0  2  0  0  0  0  0  0
  192.4610  176.3640  146.6390 C   0  0  0  0  0  2  0  0  0  0  0  0
  194.5020  177.5790  146.6540 O   0  0  0  0  0  1  0  0  0  0  0  0
  194.6350  175.2710  146.1140 C   0  0  0  0  0  1  0  0  0  0  0  0
  193.8250  176.5500  146.0020 C   0  0  1  0  0  3  0  0  0  0  0  0
  1 11  1  6  0  0  0
  1  5  1  0  0  0  0
  3 12  1  0  0  0  0
  4  3  1  0  0  0  0
  4 11  2  0  0  0  0
  5  8  2  0  0  0  0
  5  7  1  0  0  0  0
  6  7  2  0  0  0  0
  7  2  1  0  0  0  0
  9 19  1  0  0  0  0
  9  8  1  0  0  0  0
 10  6  1  0  0  0  0
 11 13  1  0  0  0  0
 12  1  1  0  0  0  0
 12 10  2  0  0  0  0
 13  9  2  0  0  0  0
 14 18  1  0  0  0  0
 14 16  1  0  0  0  0
 15  4  1  1  0  0  0
 16 15  1  0  0  0  0
 17 15  1  0  0  0  0
 18 17  1  0  0  0  0
 19 24  1  6  0  0  0
 20 21  1  0  0  0  0
 22 23  2  0  0  0  0
 23 21  1  0  0  0  0
 23 19  1  0  0  0  0
 24 25  1  0  0  0  0
 28 27  1  1  0  0  0
 28 25  1  0  0  0  0
 28 26  1  0  0  0  0
M  END
>  <MODEL>
4

>  <REMARK>
 VINA RESULT:      -6.8      3.016      7.267
  Name = 
  6 active torsions:
  status: ('A' for Active; 'I' for Inactive)
    1  A    between atoms: C_5  and  C_11
    2  A    between atoms: C_6  and  C_15
    3  A    between atoms: C_6  and  C_25
    4  A    between atoms: C_15  and  C_16
    5  A    between atoms: C_16  and  C_17
    6  A    between atoms: C_16  and  C_21
                            x       y       z     vdW  Elec       q    Type
                         _______ _______ _______ _____ _____    ______ ____

>  <TORSDO>
F 6

$$$$
=
 OpenBabel11062419563D

 28 31  0  0  1  0  0  0  0  0999 V2000
  186.2570  177.7720  142.5130 C   0  0  0  0  0  0  0  0  0  0  0  0
  187.2260  176.1070  139.5790 N   0  0  0  0  0  1  0  0  0  0  0  0
  184.0760  178.5580  143.4040 S   0  0  0  0  0  0  0  0  0  0  0  0
  185.2690  178.1950  144.5750 C   0  0  0  0  0  0  0  0  0  0  0  0
  187.2620  177.3730  141.6550 C   0  0  0  0  0  0  0  0  0  0  0  0
  185.6130  177.9160  139.7910 C   0  0  0  0  0  3  0  0  0  0  0  0
  187.0140  177.4210  140.1600 C   0  0  2  0  0  3  0  0  0  0  0  0
  188.4730  176.9520  142.2290 C   0  0  0  0  0  3  0  0  0  0  0  0
  188.6100  176.9330  143.6360 C   0  0  0  0  0  0  0  0  0  0  0  0
  184.7220  178.2640  140.6830 N   0  0  0  0  0  0  0  0  0  0  0  0
  186.4050  177.7540  143.8900 C   0  0  0  0  0  0  0  0  0  0  0  0
  185.0420  178.1950  142.0720 C   0  0  0  0  0  0  0  0  0  0  0  0
  187.5730  177.3310  144.4420 N   0  0  0  0  0  0  0  0  0  0  0  0
  186.3160  178.6840  148.0180 C   0  0  0  0  0  2  0  0  0  0  0  0
  185.0640  178.1880  146.0640 C   0  0  2  0  0  3  0  0  0  0  0  0
  185.8370  179.3010  146.7390 C   0  0  0  0  0  2  0  0  0  0  0  0
  185.4820  176.9690  146.6220 O   0  0  0  0  0  0  0  0  0  0  0  0
  185.7980  177.2660  147.9550 C   0  0  0  0  0  2  0  0  0  0  0  0
  189.9040  176.4790  144.2370 C   0  0  1  0  0  3  0  0  0  0  0  0
  192.0710  174.5850  141.6260 C   0  0  0  0  0  1  0  0  0  0  0  0
  191.0830  174.8920  142.6450 N   0  0  0  0  0  2  0  0  0  0  0  0
  191.6450  177.1550  142.7630 O   0  0  0  0  0  0  0  0  0  0  0  0
  190.9220  176.2100  143.1750 C   0  0  0  0  0  0  0  0  0  0  0  0
  190.4360  177.4820  145.2530 C   0  0  0  0  0  2  0  0  0  0  0  0
  190.0710  177.0520  146.6660 C   0  0  0  0  0  2  0  0  0  0  0  0
  191.2230  175.3040  147.7890 O   0  0  0  0  0  1  0  0  0  0  0  0
  188.9410  174.9160  147.2630 C   0  0  0  0  0  1  0  0  0  0  0  0
  190.2470  175.5540  146.8260 C   0  0  1  0  0  3  0  0  0  0  0  0
  1 11  1  0  0  0  0
  3  4  1  0  0  0  0
  5  8  2  0  0  0  0
  5  1  1  0  0  0  0
  6  7  1  0  0  0  0
  6 10  2  0  0  0  0
  7  2  1  1  0  0  0
  7  5  1  0  0  0  0
  8  9  1  0  0  0  0
  9 19  1  0  0  0  0
  9 13  2  0  0  0  0
 10 12  1  0  0  0  0
 11 13  1  0  0  0  0
 11  4  2  0  0  0  0
 12  1  2  0  0  0  0
 12  3  1  0  0  0  0
 15  4  1  6  0  0  0
 15 17  1  0  0  0  0
 15 16  1  0  0  0  0
 16 14  1  0  0  0  0
 17 18  1  0  0  0  0
 18 14  1  0  0  0  0
 19 24  1  1  0  0  0
 20 21  1  0  0  0  0
 21 23  1  0  0  0  0
 22 23  2  0  0  0  0
 23 19  1  0  0  0  0
 24 25  1  0  0  0  0
 25 28  1  0  0  0  0
 28 27  1  1  0  0  0
 28 26  1  0  0  0  0
M  END
>  <MODEL>
5

>  <REMARK>
 VINA RESULT:      -6.7      2.765      5.877
  Name = 
  6 active torsions:
  status: ('A' for Active; 'I' for Inactive)
    1  A    between atoms: C_5  and  C_11
    2  A    between atoms: C_6  and  C_15
    3  A    between atoms: C_6  and  C_25
    4  A    between atoms: C_15  and  C_16
    5  A    between atoms: C_16  and  C_17
    6  A    between atoms: C_16  and  C_21
                            x       y       z     vdW  Elec       q    Type
                         _______ _______ _______ _____ _____    ______ ____

>  <TORSDO>
F 6

$$$$
=
 OpenBabel11062419563D

 28 31  0  0  1  0  0  0  0  0999 V2000
  188.7700  174.8280  142.1420 C   0  0  2  0  0  3  0  0  0  0  0  0
  190.0730  171.6950  143.0400 N   0  0  0  0  0  1  0  0  0  0  0  0
  187.5490  175.6760  140.1530 S   0  0  0  0  0  0  0  0  0  0  0  0
  187.2480  176.5060  141.6180 C   0  0  0  0  0  0  0  0  0  0  0  0
  189.5820  174.0760  142.9670 C   0  0  0  0  0  0  0  0  0  0  0  0
  190.1720  172.7710  140.8610 C   0  0  0  0  0  3  0  0  0  0  0  0
  190.3900  172.9420  142.3660 C   0  0  0  0  0  0  0  0  0  0  0  0
  189.6190  174.4200  144.3280 C   0  0  0  0  0  3  0  0  0  0  0  0
  188.8240  175.4900  144.7990 C   0  0  0  0  0  0  0  0  0  0  0  0
  189.3690  173.5330  140.1650 N   0  0  0  0  0  0  0  0  0  0  0  0
  187.9990  175.8770  142.6160 C   0  0  0  0  0  0  0  0  0  0  0  0
  188.6510  174.5840  140.8090 C   0  0  0  0  0  0  0  0  0  0  0  0
  188.0250  176.1980  143.9350 N   0  0  0  0  0  0  0  0  0  0  0  0
  185.7360  179.2730  143.4200 C   0  0  0  0  0  2  0  0  0  0  0  0
  186.2300  177.5940  141.8180 C   0  0  2  0  0  3  0  0  0  0  0  0
  186.8300  178.7980  142.5110 C   0  0  0  0  0  2  0  0  0  0  0  0
  185.1530  177.1370  142.5940 O   0  0  0  0  0  0  0  0  0  0  0  0
  184.6150  178.2880  143.1860 C   0  0  0  0  0  2  0  0  0  0  0  0
  188.8680  175.8470  146.2530 C   0  0  1  0  0  3  0  0  0  0  0  0
  192.6820  176.5010  146.6080 C   0  0  0  0  0  1  0  0  0  0  0  0
  191.3060  176.5430  146.1430 N   0  0  0  0  0  2  0  0  0  0  0  0
  190.5240  175.0630  147.7710 O   0  0  0  0  0  0  0  0  0  0  0  0
  190.2680  175.7900  146.7750 C   0  0  0  0  0  0  0  0  0  0  0  0
  188.2480  177.2130  146.5170 C   0  0  0  0  0  2  0  0  0  0  0  0
  186.9620  177.0690  147.3160 C   0  0  0  0  0  2  0  0  0  0  0  0
  184.7440  176.7630  146.5230 O   0  0  0  0  0  1  0  0  0  0  0  0
  185.3300  178.9470  147.2430 C   0  0  0  0  0  1  0  0  0  0  0  0
  185.7970  177.6760  146.5580 C   0  0  1  0  0  3  0  0  0  0  0  0
  1 12  1  1  0  0  0
  1 11  1  0  0  0  0
  1  5  1  0  0  0  0
  3 12  1  0  0  0  0
  3  4  1  0  0  0  0
  4 11  2  0  0  0  0
  5  8  2  0  0  0  0
  6  7  2  0  0  0  0
  7  5  1  0  0  0  0
  7  2  1  0  0  0  0
  8  9  1  0  0  0  0
  9 19  1  0  0  0  0
 10 12  2  0  0  0  0
 10  6  1  0  0  0  0
 11 13  1  0  0  0  0
 13  9  2  0  0  0  0
 15  4  1  1  0  0  0
 15 16  1  0  0  0  0
 15 17  1  0  0  0  0
 16 14  1  0  0  0  0
 17 18  1  0  0  0  0
 18 14  1  0  0  0  0
 19 24  1  6  0  0  0
 19 23  1  0  0  0  0
 21 20  1  0  0  0  0
 21 23  1  0  0  0  0
 23 22  2  0  0  0  0
 24 25  1  0  0  0  0
 26 28  1  0  0  0  0
 28 27  1  1  0  0  0
 28 25  1  0  0  0  0
M  END
>  <MODEL>
6

>  <REMARK>
 VINA RESULT:      -6.7      2.032      5.187
  Name = 
  6 active torsions:
  status: ('A' for Active; 'I' for Inactive)
    1  A    between atoms: C_5  and  C_11
    2  A    between atoms: C_6  and  C_15
    3  A    between atoms: C_6  and  C_25
    4  A    between atoms: C_15  and  C_16
    5  A    between atoms: C_16  and  C_17
    6  A    between atoms: C_16  and  C_21
                            x       y       z     vdW  Elec       q    Type
                         _______ _______ _______ _____ _____    ______ ____

>  <TORSDO>
F 6

$$$$
=
 OpenBabel11062419563D

 28 31  0  0  1  0  0  0  0  0999 V2000
  190.6280  176.3160  144.9840 C   0  0  0  0  0  0  0  0  0  0  0  0
  193.4200  176.3720  142.8570 N   0  0  0  0  0  1  0  0  0  0  0  0
  190.2410  177.0290  147.3310 S   0  0  0  0  0  0  0  0  0  0  0  0
  188.8660  177.0420  146.3140 C   0  0  0  0  0  0  0  0  0  0  0  0
  191.2390  175.8940  143.8200 C   0  0  0  0  0  0  0  0  0  0  0  0
  193.3670  175.7750  145.2140 C   0  0  0  0  0  3  0  0  0  0  0  0
  192.7190  175.5680  143.8430 C   0  0  2  0  0  3  0  0  0  0  0  0
  190.4350  175.7800  142.6740 C   0  0  0  0  0  3  0  0  0  0  0  0
  189.0640  176.1130  142.7460 C   0  0  0  0  0  0  0  0  0  0  0  0
  192.7030  176.1900  146.2620 N   0  0  0  0  0  0  0  0  0  0  0  0
  189.2820  176.6350  145.0430 C   0  0  0  0  0  0  0  0  0  0  0  0
  191.3070  176.4670  146.1540 C   0  0  0  0  0  0  0  0  0  0  0  0
  188.5120  176.5390  143.9290 N   0  0  0  0  0  0  0  0  0  0  0  0
  185.2360  176.9340  146.3870 C   0  0  0  0  0  2  0  0  0  0  0  0
  187.5040  177.5630  146.6850 C   0  0  2  0  0  3  0  0  0  0  0  0
  186.5310  176.4360  146.9550 C   0  0  0  0  0  2  0  0  0  0  0  0
  186.9740  178.3570  145.6560 O   0  0  0  0  0  0  0  0  0  0  0  0
  185.5840  178.2900  145.8210 C   0  0  0  0  0  2  0  0  0  0  0  0
  188.2170  175.9920  141.5170 C   0  0  1  0  0  3  0  0  0  0  0  0
  188.3030  172.8260  139.2640 C   0  0  0  0  0  1  0  0  0  0  0  0
  188.4120  174.1970  139.7330 N   0  0  0  0  0  2  0  0  0  0  0  0
  187.7350  173.6950  141.9100 O   0  0  0  0  0  0  0  0  0  0  0  0
  188.1090  174.5660  141.0810 C   0  0  0  0  0  0  0  0  0  0  0  0
  186.8350  176.6000  141.7220 C   0  0  0  0  0  2  0  0  0  0  0  0
  186.4640  177.4890  140.5450 C   0  0  0  0  0  2  0  0  0  0  0  0
  184.1840  177.8490  139.9850 O   0  0  0  0  0  1  0  0  0  0  0  0
  184.7600  178.0200  142.2810 C   0  0  0  0  0  1  0  0  0  0  0  0
  185.1960  178.2650  140.8480 C   0  0  1  0  0  3  0  0  0  0  0  0
  1 11  1  0  0  0  0
  1 12  2  0  0  0  0
  4  3  1  0  0  0  0
  5  7  1  0  0  0  0
  5  1  1  0  0  0  0
  6 10  2  0  0  0  0
  7  2  1  6  0  0  0
  7  6  1  0  0  0  0
  8  9  1  0  0  0  0
  8  5  2  0  0  0  0
  9 13  2  0  0  0  0
 11  4  2  0  0  0  0
 12 10  1  0  0  0  0
 12  3  1  0  0  0  0
 13 11  1  0  0  0  0
 14 16  1  0  0  0  0
 15  4  1  6  0  0  0
 15 16  1  0  0  0  0
 17 18  1  0  0  0  0
 17 15  1  0  0  0  0
 18 14  1  0  0  0  0
 19 24  1  1  0  0  0
 19  9  1  0  0  0  0
 20 21  1  0  0  0  0
 21 23  1  0  0  0  0
 23 19  1  0  0  0  0
 23 22  2  0  0  0  0
 25 28  1  0  0  0  0
 25 24  1  0  0  0  0
 26 28  1  0  0  0  0
 28 27  1  1  0  0  0
M  END
>  <MODEL>
7

>  <REMARK>
 VINA RESULT:      -6.6      2.341      5.434
  Name = 
  6 active torsions:
  status: ('A' for Active; 'I' for Inactive)
    1  A    between atoms: C_5  and  C_11
    2  A    between atoms: C_6  and  C_15
    3  A    between atoms: C_6  and  C_25
    4  A    between atoms: C_15  and  C_16
    5  A    between atoms: C_16  and  C_17
    6  A    between atoms: C_16  and  C_21
                            x       y       z     vdW  Elec       q    Type
                         _______ _______ _______ _____ _____    ______ ____

>  <TORSDO>
F 6

$$$$
=
 OpenBabel11062419563D

 28 31  0  0  1  0  0  0  0  0999 V2000
  186.1950  177.3520  144.6600 C   0  0  2  0  0  3  0  0  0  0  0  0
  186.3110  178.4100  148.0050 N   0  0  0  0  0  1  0  0  0  0  0  0
  184.9720  178.1420  142.6480 S   0  0  0  0  0  0  0  0  0  0  0  0
  186.4530  177.3400  142.3500 C   0  0  0  0  0  0  0  0  0  0  0  0
  186.5520  177.1010  145.9700 C   0  0  0  0  0  0  0  0  0  0  0  0
  184.3510  178.2280  146.5770 C   0  0  0  0  0  3  0  0  0  0  0  0
  185.6160  177.5300  147.0820 C   0  0  0  0  0  0  0  0  0  0  0  0
  187.7730  176.4440  146.1920 C   0  0  0  0  0  3  0  0  0  0  0  0
  188.5850  176.0880  145.0920 C   0  0  0  0  0  0  0  0  0  0  0  0
  184.1050  178.4290  145.3080 N   0  0  0  0  0  0  0  0  0  0  0  0
  186.9980  176.9940  143.5900 C   0  0  0  0  0  0  0  0  0  0  0  0
  185.0390  177.9850  144.3240 C   0  0  0  0  0  0  0  0  0  0  0  0
  188.1850  176.3720  143.8100 N   0  0  0  0  0  0  0  0  0  0  0  0
  186.4830  176.7920  138.7600 C   0  0  0  0  0  2  0  0  0  0  0  0
  187.1190  177.1970  141.0090 C   0  0  2  0  0  3  0  0  0  0  0  0
  186.2530  177.7430  139.8950 C   0  0  0  0  0  2  0  0  0  0  0  0
  187.3910  175.8480  140.7260 O   0  0  0  0  0  0  0  0  0  0  0  0
  187.4400  175.7710  139.3280 C   0  0  0  0  0  2  0  0  0  0  0  0
  189.8880  175.3900  145.3400 C   0  0  1  0  0  3  0  0  0  0  0  0
  191.7650  176.9690  148.3550 C   0  0  0  0  0  1  0  0  0  0  0  0
  190.8890  176.1330  147.5510 N   0  0  0  0  0  2  0  0  0  0  0  0
  191.5240  177.1080  145.5270 O   0  0  0  0  0  0  0  0  0  0  0  0
  190.8160  176.2570  146.1280 C   0  0  0  0  0  0  0  0  0  0  0  0
  189.6850  174.0480  146.0320 C   0  0  0  0  0  2  0  0  0  0  0  0
  189.6920  172.9180  145.0140 C   0  0  0  0  0  2  0  0  0  0  0  0
  191.5650  172.7580  143.5610 O   0  0  0  0  0  1  0  0  0  0  0  0
  189.4390  173.0200  142.5390 C   0  0  0  0  0  1  0  0  0  0  0  0
  190.3270  173.3800  143.7160 C   0  0  1  0  0  3  0  0  0  0  0  0
  1 11  1  1  0  0  0
  1  5  1  0  0  0  0
  3 12  1  0  0  0  0
  4  3  1  0  0  0  0
  4 11  2  0  0  0  0
  5  8  2  0  0  0  0
  5  7  1  0  0  0  0
  6  7  2  0  0  0  0
  7  2  1  0  0  0  0
  9 19  1  0  0  0  0
  9  8  1  0  0  0  0
 10  6  1  0  0  0  0
 11 13  1  0  0  0  0
 12  1  1  0  0  0  0
 12 10  2  0  0  0  0
 13  9  2  0  0  0  0
 14 18  1  0  0  0  0
 14 16  1  0  0  0  0
 15  4  1  1  0  0  0
 16 15  1  0  0  0  0
 17 15  1  0  0  0  0
 18 17  1  0  0  0  0
 19 24  1  1  0  0  0
 19 23  1  0  0  0  0
 21 20  1  0  0  0  0
 22 23  2  0  0  0  0
 23 21  1  0  0  0  0
 25 24  1  0  0  0  0
 26 28  1  0  0  0  0
 28 27  1  6  0  0  0
 28 25  1  0  0  0  0
M  END
>  <MODEL>
8

>  <REMARK>
 VINA RESULT:      -6.6      2.940      7.228
  Name = 
  6 active torsions:
  status: ('A' for Active; 'I' for Inactive)
    1  A    between atoms: C_5  and  C_11
    2  A    between atoms: C_6  and  C_15
    3  A    between atoms: C_6  and  C_25
    4  A    between atoms: C_15  and  C_16
    5  A    between atoms: C_16  and  C_17
    6  A    between atoms: C_16  and  C_21
                            x       y       z     vdW  Elec       q    Type
                         _______ _______ _______ _____ _____    ______ ____

>  <TORSDO>
F 6

$$$$
=
 OpenBabel11062419563D

 28 31  0  0  1  0  0  0  0  0999 V2000
  191.1270  174.9640  144.6320 C   0  0  2  0  0  3  0  0  0  0  0  0
  191.2000  176.4590  147.8070 N   0  0  0  0  0  1  0  0  0  0  0  0
  192.0280  172.8410  143.7100 S   0  0  0  0  0  0  0  0  0  0  0  0
  190.6460  173.4670  142.9200 C   0  0  0  0  0  0  0  0  0  0  0  0
  190.9380  176.0820  145.4190 C   0  0  0  0  0  0  0  0  0  0  0  0
  193.0160  175.3080  146.6700 C   0  0  0  0  0  3  0  0  0  0  0  0
  191.9130  176.3620  146.5460 C   0  0  0  0  0  0  0  0  0  0  0  0
  189.8440  176.9090  145.1150 C   0  0  0  0  0  3  0  0  0  0  0  0
  188.9830  176.5640  144.0490 C   0  0  0  0  0  0  0  0  0  0  0  0
  193.1060  174.2720  145.8770 N   0  0  0  0  0  0  0  0  0  0  0  0
  190.2780  174.6390  143.5870 C   0  0  0  0  0  0  0  0  0  0  0  0
  192.1480  174.0890  144.8360 C   0  0  0  0  0  0  0  0  0  0  0  0
  189.2120  175.4330  143.3060 N   0  0  0  0  0  0  0  0  0  0  0  0
  190.2930  171.2200  140.0880 C   0  0  0  0  0  2  0  0  0  0  0  0
  189.8760  172.7830  141.8240 C   0  0  2  0  0  3  0  0  0  0  0  0
  190.3860  171.3800  141.5760 C   0  0  0  0  0  2  0  0  0  0  0  0
  189.9730  173.5000  140.6200 O   0  0  0  0  0  0  0  0  0  0  0  0
  189.7610  172.5510  139.6110 C   0  0  0  0  0  2  0  0  0  0  0  0
  187.8170  177.4520  143.7350 C   0  0  1  0  0  3  0  0  0  0  0  0
  186.5020  177.5500  140.0790 C   0  0  0  0  0  1  0  0  0  0  0  0
  186.6070  177.3100  141.5080 N   0  0  0  0  0  2  0  0  0  0  0  0
  188.6920  178.3420  141.7090 O   0  0  0  0  0  0  0  0  0  0  0  0
  187.7410  177.7360  142.2690 C   0  0  0  0  0  0  0  0  0  0  0  0
  186.5070  176.8600  144.2400 C   0  0  0  0  0  2  0  0  0  0  0  0
  185.9050  177.7450  145.3200 C   0  0  0  0  0  2  0  0  0  0  0  0
  183.8100  178.7580  145.7970 O   0  0  0  0  0  1  0  0  0  0  0  0
  185.1870  179.8480  144.2000 C   0  0  0  0  0  1  0  0  0  0  0  0
  184.7230  178.5210  144.7710 C   0  0  1  0  0  3  0  0  0  0  0  0
  1 11  1  1  0  0  0
  1 12  1  0  0  0  0
  1  5  1  0  0  0  0
  3 12  1  0  0  0  0
  4 11  2  0  0  0  0
  4  3  1  0  0  0  0
  5  7  1  0  0  0  0
  7  6  2  0  0  0  0
  7  2  1  0  0  0  0
  8  5  2  0  0  0  0
  9  8  1  0  0  0  0
 10  6  1  0  0  0  0
 12 10  2  0  0  0  0
 13 11  1  0  0  0  0
 13  9  2  0  0  0  0
 14 16  1  0  0  0  0
 15  4  1  1  0  0  0
 16 15  1  0  0  0  0
 17 15  1  0  0  0  0
 18 14  1  0  0  0  0
 18 17  1  0  0  0  0
 19  9  1  0  0  0  0
 19 24  1  6  0  0  0
 20 21  1  0  0  0  0
 21 23  1  0  0  0  0
 22 23  2  0  0  0  0
 23 19  1  0  0  0  0
 24 25  1  0  0  0  0
 28 27  1  1  0  0  0
 28 25  1  0  0  0  0
 28 26  1  0  0  0  0
M  END
>  <MODEL>
9

>  <REMARK>
 VINA RESULT:      -6.6      2.456      4.743
  Name = 
  6 active torsions:
  status: ('A' for Active; 'I' for Inactive)
    1  A    between atoms: C_5  and  C_11
    2  A    between atoms: C_6  and  C_15
    3  A    between atoms: C_6  and  C_25
    4  A    between atoms: C_15  and  C_16
    5  A    between atoms: C_16  and  C_17
    6  A    between atoms: C_16  and  C_21
                            x       y       z     vdW  Elec       q    Type
                         _______ _______ _______ _____ _____    ______ ____

>  <TORSDO>
F 6

$$$$
