=
 OpenBabel11072408253D

 34 36  0  0  1  0  0  0  0  0999 V2000
  189.7510  175.7100  145.0980 C   0  0  2  0  0  3  0  0  0  0  0  0
  188.7430  175.8090  146.2040 C   0  0  0  0  0  0  0  0  0  0  0  0
  188.6950  174.8990  147.0730 O   0  0  0  0  0  0  0  0  0  0  0  0
  187.8570  176.9290  146.2820 N   0  0  0  0  0  2  0  0  0  0  0  0
  184.8970  178.5240  145.7380 C   0  0  1  0  0  0  0  0  0  0  0  0
  184.9600  176.9900  145.6950 C   0  0  0  0  0  2  0  0  0  0  0  0
  184.3440  179.0170  146.9320 O   0  0  0  0  0  0  0  0  0  0  0  0
  185.6980  179.3490  146.6820 C   0  0  1  0  0  3  0  0  0  0  0  0
  186.5960  178.5450  147.5860 C   0  0  0  0  0  0  0  0  0  0  0  0
  186.8670  177.0880  147.3390 C   0  0  1  0  0  3  0  0  0  0  0  0
  187.1330  179.0970  148.5320 O   0  0  0  0  0  0  0  0  0  0  0  0
  185.5720  176.3820  146.9550 C   0  0  0  0  0  2  0  0  0  0  0  0
  184.3720  179.2030  144.6060 O   0  0  0  0  0  0  0  0  0  0  0  0
  183.7360  178.1230  142.5330 O   0  0  0  0  0  0  0  0  0  0  0  0
  184.6720  178.8040  143.3030 C   0  0  0  0  0  0  0  0  0  0  0  0
  185.8040  179.0630  142.8190 O   0  0  0  0  0  1  0  0  0  0  0  0
  190.4620  177.0350  144.8390 C   0  0  0  0  0  2  0  0  0  0  0  0
  192.2690  176.5200  147.1760 Cl  0  0  0  0  0  0  0  0  0  0  0  0
  191.9130  176.8160  144.5110 C   0  0  0  0  0  0  0  0  0  0  0  0
  192.8000  176.5630  145.4980 C   0  0  0  0  0  0  0  0  0  0  0  0
  192.3280  176.8890  143.1440 N   0  0  0  0  0  2  0  0  0  0  0  0
  192.3840  175.8730  142.4210 O   0  0  0  0  0  1  0  0  0  0  0  0
  194.1990  176.3290  145.2730 N   0  0  0  0  0  2  0  0  0  0  0  0
  195.0390  175.3420  145.9390 C   0  0  0  0  0  2  0  0  0  0  0  0
  194.4950  173.9870  144.0620 F   0  0  0  0  0  0  0  0  0  0  0  0
  195.7820  173.0980  145.6910 F   0  0  0  0  0  0  0  0  0  0  0  0
  193.5940  173.4750  146.0610 F   0  0  0  0  0  0  0  0  0  0  0  0
  194.7250  173.9460  145.4250 C   0  0  0  0  0  0  0  0  0  0  0  0
  189.1750  175.1020  143.8160 C   0  0  0  0  0  2  0  0  0  0  0  0
  186.9750  175.7590  142.8410 C   0  0  0  0  0  2  0  0  0  0  0  0
  188.1470  174.1560  141.4070 O   0  0  0  0  0  1  0  0  0  0  0  0
  187.8930  175.5030  141.6760 C   0  0  0  0  0  0  0  0  0  0  0  0
  187.7060  176.3530  140.5870 O   0  0  0  0  0  1  0  0  0  0  0  0
  188.4580  176.1250  142.9380 C   0  0  2  0  0  3  0  0  0  0  0  0
  1 29  1  6  0  0  0
  1  2  1  0  0  0  0
  2  4  1  0  0  0  0
  2  3  2  0  0  0  0
  5 13  1  6  0  0  0
  5  8  1  0  0  0  0
  5  7  1  0  0  0  0
  6  5  1  0  0  0  0
  6 12  1  0  0  0  0
  8  7  1  1  0  0  0
  8  9  1  0  0  0  0
  9 11  2  0  0  0  0
 10  4  1  6  0  0  0
 10  9  1  0  0  0  0
 12 10  1  0  0  0  0
 14 15  2  0  0  0  0
 15 13  1  0  0  0  0
 16 15  1  0  0  0  0
 17  1  1  0  0  0  0
 19 17  1  0  0  0  0
 19 20  2  0  0  0  0
 20 18  1  0  0  0  0
 21 19  1  0  0  0  0
 22 21  1  0  0  0  0
 23 20  1  0  0  0  0
 23 24  1  0  0  0  0
 25 28  1  0  0  0  0
 28 26  1  0  0  0  0
 28 24  1  0  0  0  0
 28 27  1  0  0  0  0
 30 34  1  0  0  0  0
 31 32  1  0  0  0  0
 32 30  1  0  0  0  0
 32 34  1  0  0  0  0
 33 32  1  0  0  0  0
 34 29  1  1  0  0  0
M  END
>  <MODEL>
1

>  <REMARK>
 VINA RESULT:      -6.5      0.000      0.000
  Name = 
  12 active torsions:
  status: ('A' for Active; 'I' for Inactive)
    1  A    between atoms: N_1  and  C_33
    2  A    between atoms: N_1  and  C_34
    3  A    between atoms: C_2  and  C_7
    4  A    between atoms: C_2  and  C_11
    5  A    between atoms: C_2  and  C_30
    6  A    between atoms: C_3  and  O_17
    7  A    between atoms: N_10  and  C_18
    8  A    between atoms: C_11  and  C_18
    9  A    between atoms: O_17  and  C_22
   10  A    between atoms: C_20  and  N_29
   11  A    between atoms: C_28  and  C_33
   12  A    between atoms: C_30  and  C_31
                            x       y       z     vdW  Elec       q    Type
                         _______ _______ _______ _____ _____    ______ ____

>  <TORSDO>
F 12

$$$$
=
 OpenBabel11072408253D

 34 36  0  0  1  0  0  0  0  0999 V2000
  190.2060  176.4730  145.2340 C   0  0  2  0  0  3  0  0  0  0  0  0
  189.2090  176.3710  146.3500 C   0  0  0  0  0  0  0  0  0  0  0  0
  189.3220  175.4400  147.1900 O   0  0  0  0  0  0  0  0  0  0  0  0
  188.1530  177.3270  146.4700 N   0  0  0  0  0  2  0  0  0  0  0  0
  184.9270  178.2970  145.9590 C   0  0  1  0  0  0  0  0  0  0  0  0
  185.2960  176.8070  145.9180 C   0  0  0  0  0  2  0  0  0  0  0  0
  184.3010  178.6740  147.1600 O   0  0  0  0  0  0  0  0  0  0  0  0
  185.5580  179.2690  146.8930 C   0  0  1  0  0  3  0  0  0  0  0  0
  186.6090  178.6630  147.7880 C   0  0  0  0  0  0  0  0  0  0  0  0
  187.1630  177.2900  147.5390 C   0  0  1  0  0  3  0  0  0  0  0  0
  187.0350  179.3160  148.7260 O   0  0  0  0  0  0  0  0  0  0  0  0
  186.0310  176.3380  147.1720 C   0  0  0  0  0  2  0  0  0  0  0  0
  184.2650  178.8530  144.8330 O   0  0  0  0  0  0  0  0  0  0  0  0
  185.8760  179.3950  143.1070 O   0  0  0  0  0  1  0  0  0  0  0  0
  184.7550  178.6930  143.5360 C   0  0  0  0  0  0  0  0  0  0  0  0
  184.1770  177.9030  142.7460 O   0  0  0  0  0  0  0  0  0  0  0  0
  191.6410  176.5620  145.7430 C   0  0  0  0  0  2  0  0  0  0  0  0
  194.5820  176.7530  146.2970 Cl  0  0  0  0  0  0  0  0  0  0  0  0
  192.4940  175.4730  145.1510 C   0  0  0  0  0  0  0  0  0  0  0  0
  193.8280  175.4690  145.3600 C   0  0  0  0  0  0  0  0  0  0  0  0
  191.8650  174.4580  144.3630 N   0  0  0  0  0  2  0  0  0  0  0  0
  191.5270  173.3620  144.8560 O   0  0  0  0  0  1  0  0  0  0  0  0
  194.7140  174.4620  144.8440 N   0  0  0  0  0  2  0  0  0  0  0  0
  195.3040  173.3540  145.5830 C   0  0  0  0  0  2  0  0  0  0  0  0
  197.4690  172.4410  145.2190 F   0  0  0  0  0  0  0  0  0  0  0  0
  197.1980  174.6750  145.0210 F   0  0  0  0  0  0  0  0  0  0  0  0
  197.1230  173.7040  147.0510 F   0  0  0  0  0  0  0  0  0  0  0  0
  196.8050  173.5470  145.7170 C   0  0  0  0  0  0  0  0  0  0  0  0
  189.8750  177.5860  144.2370 C   0  0  0  0  0  2  0  0  0  0  0  0
  188.9210  177.9760  141.9650 C   0  0  0  0  0  2  0  0  0  0  0  0
  187.4960  176.4880  143.2920 O   0  0  0  0  0  1  0  0  0  0  0  0
  188.5270  176.5760  142.3530 C   0  0  0  0  0  0  0  0  0  0  0  0
  188.5220  175.6580  141.3030 O   0  0  0  0  0  1  0  0  0  0  0  0
  189.8790  177.1100  142.7860 C   0  0  2  0  0  3  0  0  0  0  0  0
  1 29  1  1  0  0  0
  1 17  1  0  0  0  0
  1  2  1  0  0  0  0
  2  4  1  0  0  0  0
  2  3  2  0  0  0  0
  5 13  1  6  0  0  0
  5  8  1  0  0  0  0
  5  7  1  0  0  0  0
  6  5  1  0  0  0  0
  6 12  1  0  0  0  0
  8  7  1  1  0  0  0
  8  9  1  0  0  0  0
  9 11  2  0  0  0  0
 10  4  1  6  0  0  0
 10  9  1  0  0  0  0
 12 10  1  0  0  0  0
 14 15  1  0  0  0  0
 15 13  1  0  0  0  0
 16 15  2  0  0  0  0
 19 20  2  0  0  0  0
 19 17  1  0  0  0  0
 20 18  1  0  0  0  0
 21 22  1  0  0  0  0
 21 19  1  0  0  0  0
 23 20  1  0  0  0  0
 23 24  1  0  0  0  0
 24 28  1  0  0  0  0
 25 28  1  0  0  0  0
 26 28  1  0  0  0  0
 28 27  1  0  0  0  0
 30 32  1  0  0  0  0
 30 34  1  0  0  0  0
 32 34  1  0  0  0  0
 32 31  1  0  0  0  0
 33 32  1  0  0  0  0
 34 29  1  1  0  0  0
M  END
>  <MODEL>
2

>  <REMARK>
 VINA RESULT:      -6.5      1.547      1.912
  Name = 
  12 active torsions:
  status: ('A' for Active; 'I' for Inactive)
    1  A    between atoms: N_1  and  C_33
    2  A    between atoms: N_1  and  C_34
    3  A    between atoms: C_2  and  C_7
    4  A    between atoms: C_2  and  C_11
    5  A    between atoms: C_2  and  C_30
    6  A    between atoms: C_3  and  O_17
    7  A    between atoms: N_10  and  C_18
    8  A    between atoms: C_11  and  C_18
    9  A    between atoms: O_17  and  C_22
   10  A    between atoms: C_20  and  N_29
   11  A    between atoms: C_28  and  C_33
   12  A    between atoms: C_30  and  C_31
                            x       y       z     vdW  Elec       q    Type
                         _______ _______ _______ _____ _____    ______ ____

>  <TORSDO>
F 12

$$$$
=
 OpenBabel11072408253D

 34 36  0  0  1  0  0  0  0  0999 V2000
  190.1210  175.8710  145.8740 C   0  0  2  0  0  3  0  0  0  0  0  0
  188.7990  175.9660  146.5760 C   0  0  0  0  0  0  0  0  0  0  0  0
  188.4920  175.0910  147.4290 O   0  0  0  0  0  0  0  0  0  0  0  0
  187.9030  177.0450  146.2950 N   0  0  0  0  0  2  0  0  0  0  0  0
  185.2850  178.5950  144.7640 C   0  0  1  0  0  0  0  0  0  0  0  0
  185.3750  177.0620  144.7630 C   0  0  0  0  0  2  0  0  0  0  0  0
  184.3560  179.0900  145.6950 O   0  0  0  0  0  0  0  0  0  0  0  0
  185.7110  179.4380  145.9130 C   0  0  1  0  0  3  0  0  0  0  0  0
  186.2590  178.6540  147.0770 C   0  0  0  0  0  0  0  0  0  0  0  0
  186.6120  177.1990  146.9540 C   0  0  1  0  0  3  0  0  0  0  0  0
  186.4390  179.2210  148.1420 O   0  0  0  0  0  0  0  0  0  0  0  0
  185.5300  176.4730  146.1640 C   0  0  0  0  0  2  0  0  0  0  0  0
  185.1670  179.2580  143.5130 O   0  0  0  0  0  0  0  0  0  0  0  0
  184.7050  178.1400  141.4140 O   0  0  0  0  0  0  0  0  0  0  0  0
  185.6100  178.6740  142.3250 C   0  0  0  0  0  0  0  0  0  0  0  0
  186.8420  178.6300  142.0760 O   0  0  0  0  0  1  0  0  0  0  0  0
  190.4300  174.4530  145.4060 C   0  0  0  0  0  2  0  0  0  0  0  0
  189.3690  171.7980  144.5010 Cl  0  0  0  0  0  0  0  0  0  0  0  0
  190.1960  174.3080  143.9270 C   0  0  0  0  0  0  0  0  0  0  0  0
  189.7060  173.1520  143.4290 C   0  0  0  0  0  0  0  0  0  0  0  0
  190.5100  175.4090  143.0700 N   0  0  0  0  0  2  0  0  0  0  0  0
  189.6240  176.1770  142.6390 O   0  0  0  0  0  1  0  0  0  0  0  0
  189.4410  172.9330  142.0340 N   0  0  0  0  0  2  0  0  0  0  0  0
  188.2100  173.2440  141.3180 C   0  0  0  0  0  2  0  0  0  0  0  0
  187.9420  173.2330  138.9560 F   0  0  0  0  0  0  0  0  0  0  0  0
  188.0450  175.2250  140.0150 F   0  0  0  0  0  0  0  0  0  0  0  0
  189.8940  173.9540  139.8170 F   0  0  0  0  0  0  0  0  0  0  0  0
  188.5250  173.9290  139.9980 C   0  0  0  0  0  0  0  0  0  0  0  0
  191.2710  176.4790  146.6810 C   0  0  0  0  0  2  0  0  0  0  0  0
  193.7530  176.7300  146.7350 C   0  0  0  0  0  2  0  0  0  0  0  0
  192.8320  177.3890  144.5620 O   0  0  0  0  0  1  0  0  0  0  0  0
  193.3960  176.3600  145.3200 C   0  0  0  0  0  0  0  0  0  0  0  0
  194.3140  175.5230  144.6860 O   0  0  0  0  0  1  0  0  0  0  0  0
  192.6010  175.7600  146.4620 C   0  0  2  0  0  3  0  0  0  0  0  0
  1 17  1  1  0  0  0
  1  2  1  0  0  0  0
  1 29  1  0  0  0  0
  2  3  2  0  0  0  0
  4  2  1  0  0  0  0
  5 13  1  6  0  0  0
  5  7  1  0  0  0  0
  5  8  1  0  0  0  0
  6  5  1  0  0  0  0
  6 12  1  0  0  0  0
  8  7  1  1  0  0  0
  8  9  1  0  0  0  0
  9 11  2  0  0  0  0
 10  4  1  6  0  0  0
 10  9  1  0  0  0  0
 12 10  1  0  0  0  0
 14 15  2  0  0  0  0
 15 13  1  0  0  0  0
 16 15  1  0  0  0  0
 19 17  1  0  0  0  0
 20 19  2  0  0  0  0
 20 18  1  0  0  0  0
 21 19  1  0  0  0  0
 22 21  1  0  0  0  0
 23 20  1  0  0  0  0
 24 23  1  0  0  0  0
 25 28  1  0  0  0  0
 27 28  1  0  0  0  0
 28 26  1  0  0  0  0
 28 24  1  0  0  0  0
 31 32  1  0  0  0  0
 32 34  1  0  0  0  0
 32 30  1  0  0  0  0
 33 32  1  0  0  0  0
 34 29  1  6  0  0  0
 34 30  1  0  0  0  0
M  END
>  <MODEL>
3

>  <REMARK>
 VINA RESULT:      -6.4      2.979      4.747
  Name = 
  12 active torsions:
  status: ('A' for Active; 'I' for Inactive)
    1  A    between atoms: N_1  and  C_33
    2  A    between atoms: N_1  and  C_34
    3  A    between atoms: C_2  and  C_7
    4  A    between atoms: C_2  and  C_11
    5  A    between atoms: C_2  and  C_30
    6  A    between atoms: C_3  and  O_17
    7  A    between atoms: N_10  and  C_18
    8  A    between atoms: C_11  and  C_18
    9  A    between atoms: O_17  and  C_22
   10  A    between atoms: C_20  and  N_29
   11  A    between atoms: C_28  and  C_33
   12  A    between atoms: C_30  and  C_31
                            x       y       z     vdW  Elec       q    Type
                         _______ _______ _______ _____ _____    ______ ____

>  <TORSDO>
F 12

$$$$
=
 OpenBabel11072408253D

 34 36  0  0  1  0  0  0  0  0999 V2000
  188.7310  176.5470  146.6710 C   0  0  2  0  0  3  0  0  0  0  0  0
  189.2200  176.9930  145.3250 C   0  0  0  0  0  0  0  0  0  0  0  0
  190.1030  177.8880  145.2590 O   0  0  0  0  0  0  0  0  0  0  0  0
  188.7030  176.3990  144.1310 N   0  0  0  0  0  2  0  0  0  0  0  0
  186.4890  177.1250  141.6460 C   0  0  1  0  0  0  0  0  0  0  0  0
  187.1390  178.2610  142.4500 C   0  0  0  0  0  2  0  0  0  0  0  0
  187.0620  176.9570  140.3740 O   0  0  0  0  0  0  0  0  0  0  0  0
  187.2040  175.8740  141.2750 C   0  0  1  0  0  3  0  0  0  0  0  0
  188.6240  175.8100  141.7750 C   0  0  0  0  0  0  0  0  0  0  0  0
  189.1470  176.7790  142.7960 C   0  0  1  0  0  3  0  0  0  0  0  0
  189.3610  174.9340  141.3540 O   0  0  0  0  0  0  0  0  0  0  0  0
  188.6650  178.1860  142.4640 C   0  0  0  0  0  2  0  0  0  0  0  0
  185.0710  177.0760  141.5860 O   0  0  0  0  0  0  0  0  0  0  0  0
  183.3110  178.6180  142.2120 O   0  0  0  0  0  1  0  0  0  0  0  0
  184.3040  178.2130  141.3280 C   0  0  0  0  0  0  0  0  0  0  0  0
  184.5160  178.8800  140.2820 O   0  0  0  0  0  0  0  0  0  0  0  0
  189.2090  175.1420  147.0260 C   0  0  0  0  0  2  0  0  0  0  0  0
  190.6410  173.6590  144.8490 Cl  0  0  0  0  0  0  0  0  0  0  0  0
  190.7070  175.0920  147.1410 C   0  0  0  0  0  0  0  0  0  0  0  0
  191.4380  174.4580  146.1990 C   0  0  0  0  0  0  0  0  0  0  0  0
  191.3320  175.7180  148.2660 N   0  0  0  0  0  2  0  0  0  0  0  0
  191.5290  176.9510  148.3030 O   0  0  0  0  0  1  0  0  0  0  0  0
  192.8720  174.3740  146.2240 N   0  0  0  0  0  2  0  0  0  0  0  0
  193.7950  174.8470  145.2010 C   0  0  0  0  0  2  0  0  0  0  0  0
  194.4850  176.1950  147.0340 F   0  0  0  0  0  0  0  0  0  0  0  0
  196.0150  174.8580  146.0480 F   0  0  0  0  0  0  0  0  0  0  0  0
  195.2590  176.6900  144.9780 F   0  0  0  0  0  0  0  0  0  0  0  0
  194.9120  175.6620  145.8320 C   0  0  0  0  0  0  0  0  0  0  0  0
  187.2180  176.7050  146.8400 C   0  0  0  0  0  2  0  0  0  0  0  0
  185.9120  178.7180  147.5210 C   0  0  0  0  0  2  0  0  0  0  0  0
  184.4550  176.9700  146.6120 O   0  0  0  0  0  1  0  0  0  0  0  0
  185.1900  178.1260  146.3400 C   0  0  0  0  0  0  0  0  0  0  0  0
  184.6230  179.0610  145.4740 O   0  0  0  0  0  1  0  0  0  0  0  0
  186.7050  178.0690  146.3850 C   0  0  2  0  0  3  0  0  0  0  0  0
  1 29  1  6  0  0  0
  1 17  1  0  0  0  0
  2  1  1  0  0  0  0
  3  2  2  0  0  0  0
  4  2  1  0  0  0  0
  5 13  1  1  0  0  0
  5  6  1  0  0  0  0
  6 12  1  0  0  0  0
  7  5  1  0  0  0  0
  8  7  1  6  0  0  0
  8  5  1  0  0  0  0
  8  9  1  0  0  0  0
  9 10  1  0  0  0  0
 10  4  1  1  0  0  0
 11  9  2  0  0  0  0
 12 10  1  0  0  0  0
 15 13  1  0  0  0  0
 15 14  1  0  0  0  0
 16 15  2  0  0  0  0
 17 19  1  0  0  0  0
 18 20  1  0  0  0  0
 19 21  1  0  0  0  0
 20 23  1  0  0  0  0
 20 19  2  0  0  0  0
 21 22  1  0  0  0  0
 24 28  1  0  0  0  0
 24 23  1  0  0  0  0
 27 28  1  0  0  0  0
 28 26  1  0  0  0  0
 28 25  1  0  0  0  0
 32 34  1  0  0  0  0
 32 31  1  0  0  0  0
 32 30  1  0  0  0  0
 33 32  1  0  0  0  0
 34 29  1  1  0  0  0
 34 30  1  0  0  0  0
M  END
>  <MODEL>
4

>  <REMARK>
 VINA RESULT:      -6.4      2.133      4.576
  Name = 
  12 active torsions:
  status: ('A' for Active; 'I' for Inactive)
    1  A    between atoms: N_1  and  C_33
    2  A    between atoms: N_1  and  C_34
    3  A    between atoms: C_2  and  C_7
    4  A    between atoms: C_2  and  C_11
    5  A    between atoms: C_2  and  C_30
    6  A    between atoms: C_3  and  O_17
    7  A    between atoms: N_10  and  C_18
    8  A    between atoms: C_11  and  C_18
    9  A    between atoms: O_17  and  C_22
   10  A    between atoms: C_20  and  N_29
   11  A    between atoms: C_28  and  C_33
   12  A    between atoms: C_30  and  C_31
                            x       y       z     vdW  Elec       q    Type
                         _______ _______ _______ _____ _____    ______ ____

>  <TORSDO>
F 12

$$$$
=
 OpenBabel11072408253D

 34 36  0  0  1  0  0  0  0  0999 V2000
  186.3140  176.4010  143.4000 C   0  0  2  0  0  3  0  0  0  0  0  0
  187.4500  175.4900  143.0440 C   0  0  0  0  0  0  0  0  0  0  0  0
  187.3940  174.8300  141.9730 O   0  0  0  0  0  0  0  0  0  0  0  0
  188.5910  175.3840  143.8980 N   0  0  0  0  0  2  0  0  0  0  0  0
  191.5230  175.6420  145.6150 C   0  0  1  0  0  0  0  0  0  0  0  0
  190.5030  174.5610  145.9990 C   0  0  0  0  0  2  0  0  0  0  0  0
  192.6050  175.1360  144.8740 O   0  0  0  0  0  0  0  0  0  0  0  0
  191.7710  176.0690  144.2110 C   0  0  1  0  0  3  0  0  0  0  0  0
  190.9170  175.3570  143.1950 C   0  0  0  0  0  0  0  0  0  0  0  0
  189.7320  174.5270  143.6000 C   0  0  1  0  0  3  0  0  0  0  0  0
  191.1830  175.4750  142.0100 O   0  0  0  0  0  0  0  0  0  0  0  0
  190.0880  173.6840  144.8180 C   0  0  0  0  0  2  0  0  0  0  0  0
  191.9610  176.5360  146.6270 O   0  0  0  0  0  0  0  0  0  0  0  0
  189.9450  177.6560  147.3690 O   0  0  0  0  0  0  0  0  0  0  0  0
  191.1150  176.9600  147.6530 C   0  0  0  0  0  0  0  0  0  0  0  0
  191.4130  176.7080  148.8480 O   0  0  0  0  0  1  0  0  0  0  0  0
  186.4980  177.8080  142.8390 C   0  0  0  0  0  2  0  0  0  0  0  0
  183.6650  178.6550  143.3370 Cl  0  0  0  0  0  0  0  0  0  0  0  0
  185.6500  178.0180  141.6150 C   0  0  0  0  0  0  0  0  0  0  0  0
  184.3650  178.4130  141.7410 C   0  0  0  0  0  0  0  0  0  0  0  0
  186.2300  177.7820  140.3280 N   0  0  0  0  0  2  0  0  0  0  0  0
  187.4570  177.5980  140.1860 O   0  0  0  0  0  1  0  0  0  0  0  0
  183.4900  178.6500  140.6260 N   0  0  0  0  0  2  0  0  0  0  0  0
  182.4210  177.7810  140.1520 C   0  0  0  0  0  2  0  0  0  0  0  0
  180.7830  177.8810  141.8730 F   0  0  0  0  0  0  0  0  0  0  0  0
  181.0810  179.6990  140.5670 F   0  0  0  0  0  0  0  0  0  0  0  0
  180.0970  177.8560  139.7280 F   0  0  0  0  0  0  0  0  0  0  0  0
  181.0690  178.3180  140.5930 C   0  0  0  0  0  0  0  0  0  0  0  0
  186.0030  176.4110  144.9000 C   0  0  0  0  0  2  0  0  0  0  0  0
  186.6130  177.3760  147.1180 C   0  0  0  0  0  2  0  0  0  0  0  0
  184.2380  177.7090  146.6180 O   0  0  0  0  0  1  0  0  0  0  0  0
  185.5230  178.2530  146.5610 C   0  0  0  0  0  0  0  0  0  0  0  0
  185.6620  179.6100  146.8490 O   0  0  0  0  0  1  0  0  0  0  0  0
  186.5410  177.6490  145.6140 C   0  0  2  0  0  3  0  0  0  0  0  0
  1 17  1  1  0  0  0
  1 29  1  0  0  0  0
  2  1  1  0  0  0  0
  2  4  1  0  0  0  0
  3  2  2  0  0  0  0
  5  6  1  0  0  0  0
  5 13  1  1  0  0  0
  7  5  1  0  0  0  0
  8  9  1  6  0  0  0
  8  7  1  0  0  0  0
  8  5  1  0  0  0  0
  9 10  1  0  0  0  0
 10  4  1  1  0  0  0
 10 12  1  0  0  0  0
 11  9  2  0  0  0  0
 12  6  1  0  0  0  0
 13 15  1  0  0  0  0
 14 15  2  0  0  0  0
 15 16  1  0  0  0  0
 19 20  2  0  0  0  0
 19 17  1  0  0  0  0
 20 18  1  0  0  0  0
 21 19  1  0  0  0  0
 22 21  1  0  0  0  0
 23 20  1  0  0  0  0
 24 28  1  0  0  0  0
 24 23  1  0  0  0  0
 26 28  1  0  0  0  0
 27 28  1  0  0  0  0
 28 25  1  0  0  0  0
 32 31  1  0  0  0  0
 32 33  1  0  0  0  0
 32 30  1  0  0  0  0
 34 29  1  6  0  0  0
 34 32  1  0  0  0  0
 34 30  1  0  0  0  0
M  END
>  <MODEL>
5

>  <REMARK>
 VINA RESULT:      -6.4      5.399      8.695
  Name = 
  12 active torsions:
  status: ('A' for Active; 'I' for Inactive)
    1  A    between atoms: N_1  and  C_33
    2  A    between atoms: N_1  and  C_34
    3  A    between atoms: C_2  and  C_7
    4  A    between atoms: C_2  and  C_11
    5  A    between atoms: C_2  and  C_30
    6  A    between atoms: C_3  and  O_17
    7  A    between atoms: N_10  and  C_18
    8  A    between atoms: C_11  and  C_18
    9  A    between atoms: O_17  and  C_22
   10  A    between atoms: C_20  and  N_29
   11  A    between atoms: C_28  and  C_33
   12  A    between atoms: C_30  and  C_31
                            x       y       z     vdW  Elec       q    Type
                         _______ _______ _______ _____ _____    ______ ____

>  <TORSDO>
F 12

$$$$
=
 OpenBabel11072408253D

 34 36  0  0  1  0  0  0  0  0999 V2000
  189.9040  175.7340  145.4340 C   0  0  2  0  0  3  0  0  0  0  0  0
  188.7800  175.8530  146.4190 C   0  0  0  0  0  0  0  0  0  0  0  0
  188.6220  174.9490  147.2810 O   0  0  0  0  0  0  0  0  0  0  0  0
  187.9080  176.9860  146.3930 N   0  0  0  0  0  2  0  0  0  0  0  0
  185.0050  178.5160  145.4790 C   0  0  1  0  0  0  0  0  0  0  0  0
  185.0910  176.9830  145.4970 C   0  0  0  0  0  2  0  0  0  0  0  0
  184.3210  179.0390  146.5900 O   0  0  0  0  0  0  0  0  0  0  0  0
  185.6890  179.3840  146.4750 C   0  0  1  0  0  3  0  0  0  0  0  0
  186.4940  178.6240  147.4980 C   0  0  0  0  0  0  0  0  0  0  0  0
  186.8080  177.1650  147.3320 C   0  0  1  0  0  3  0  0  0  0  0  0
  186.9190  179.2170  148.4750 O   0  0  0  0  0  0  0  0  0  0  0  0
  185.5700  176.4260  146.8360 C   0  0  0  0  0  2  0  0  0  0  0  0
  184.5970  179.1480  144.2740 O   0  0  0  0  0  0  0  0  0  0  0  0
  184.2960  178.0980  142.1120 O   0  0  0  0  0  0  0  0  0  0  0  0
  185.1010  178.7610  143.0320 C   0  0  0  0  0  0  0  0  0  0  0  0
  186.2980  179.0150  142.7410 O   0  0  0  0  0  1  0  0  0  0  0  0
  190.7930  176.9740  145.4140 C   0  0  0  0  0  2  0  0  0  0  0  0
  192.8950  176.7560  143.2860 Cl  0  0  0  0  0  0  0  0  0  0  0  0
  192.1820  176.6520  145.8920 C   0  0  0  0  0  0  0  0  0  0  0  0
  193.1970  176.5480  145.0070 C   0  0  0  0  0  0  0  0  0  0  0  0
  192.3980  176.4510  147.2930 N   0  0  0  0  0  2  0  0  0  0  0  0
  191.5950  176.8800  148.1470 O   0  0  0  0  0  1  0  0  0  0  0  0
  194.5540  176.2570  145.3790 N   0  0  0  0  0  2  0  0  0  0  0  0
  195.3930  175.1850  144.8610 C   0  0  0  0  0  2  0  0  0  0  0  0
  197.6160  175.2610  144.0210 F   0  0  0  0  0  0  0  0  0  0  0  0
  195.9080  175.3000  142.5430 F   0  0  0  0  0  0  0  0  0  0  0  0
  196.3280  177.0980  143.8330 F   0  0  0  0  0  0  0  0  0  0  0  0
  196.3320  175.7180  143.7910 C   0  0  0  0  0  0  0  0  0  0  0  0
  189.4320  175.3370  144.0330 C   0  0  0  0  0  2  0  0  0  0  0  0
  190.3230  174.0260  142.1060 C   0  0  0  0  0  2  0  0  0  0  0  0
  187.8740  173.9630  142.1780 O   0  0  0  0  0  1  0  0  0  0  0  0
  189.0630  173.3280  142.5460 C   0  0  0  0  0  0  0  0  0  0  0  0
  189.1040  171.9370  142.4560 O   0  0  0  0  0  1  0  0  0  0  0  0
  189.9530  173.9710  143.5900 C   0  0  2  0  0  3  0  0  0  0  0  0
  1 29  1  6  0  0  0
  1  2  1  0  0  0  0
  2  3  2  0  0  0  0
  4  2  1  0  0  0  0
  5 13  1  6  0  0  0
  5  6  1  0  0  0  0
  5  8  1  0  0  0  0
  5  7  1  0  0  0  0
  6 12  1  0  0  0  0
  8  7  1  1  0  0  0
  8  9  1  0  0  0  0
  9 11  2  0  0  0  0
 10  4  1  6  0  0  0
 10  9  1  0  0  0  0
 12 10  1  0  0  0  0
 14 15  2  0  0  0  0
 15 13  1  0  0  0  0
 16 15  1  0  0  0  0
 17  1  1  0  0  0  0
 17 19  1  0  0  0  0
 18 20  1  0  0  0  0
 19 21  1  0  0  0  0
 20 23  1  0  0  0  0
 20 19  2  0  0  0  0
 21 22  1  0  0  0  0
 24 23  1  0  0  0  0
 26 28  1  0  0  0  0
 28 27  1  0  0  0  0
 28 25  1  0  0  0  0
 28 24  1  0  0  0  0
 30 32  1  0  0  0  0
 30 34  1  0  0  0  0
 31 32  1  0  0  0  0
 32 34  1  0  0  0  0
 33 32  1  0  0  0  0
 34 29  1  6  0  0  0
M  END
>  <MODEL>
6

>  <REMARK>
 VINA RESULT:      -6.2      1.900      2.354
  Name = 
  12 active torsions:
  status: ('A' for Active; 'I' for Inactive)
    1  A    between atoms: N_1  and  C_33
    2  A    between atoms: N_1  and  C_34
    3  A    between atoms: C_2  and  C_7
    4  A    between atoms: C_2  and  C_11
    5  A    between atoms: C_2  and  C_30
    6  A    between atoms: C_3  and  O_17
    7  A    between atoms: N_10  and  C_18
    8  A    between atoms: C_11  and  C_18
    9  A    between atoms: O_17  and  C_22
   10  A    between atoms: C_20  and  N_29
   11  A    between atoms: C_28  and  C_33
   12  A    between atoms: C_30  and  C_31
                            x       y       z     vdW  Elec       q    Type
                         _______ _______ _______ _____ _____    ______ ____

>  <TORSDO>
F 12

$$$$
=
 OpenBabel11072408253D

 34 36  0  0  1  0  0  0  0  0999 V2000
  189.6040  175.7080  144.8410 C   0  0  2  0  0  3  0  0  0  0  0  0
  190.7350  175.2720  145.7240 C   0  0  0  0  0  0  0  0  0  0  0  0
  190.5360  175.1520  146.9620 O   0  0  0  0  0  0  0  0  0  0  0  0
  192.0190  174.9780  145.1680 N   0  0  0  0  0  2  0  0  0  0  0  0
  195.1830  174.8930  143.9080 C   0  0  1  0  0  0  0  0  0  0  0  0
  194.7300  176.0860  144.7630 C   0  0  0  0  0  2  0  0  0  0  0  0
  196.0000  173.9920  144.6120 O   0  0  0  0  0  0  0  0  0  0  0  0
  194.7520  173.4930  144.1650 C   0  0  1  0  0  3  0  0  0  0  0  0
  193.8130  173.3470  145.3350 C   0  0  0  0  0  0  0  0  0  0  0  0
  193.1520  174.5370  145.9710 C   0  0  1  0  0  3  0  0  0  0  0  0
  193.5670  172.2310  145.7610 O   0  0  0  0  0  0  0  0  0  0  0  0
  194.1630  175.6670  146.1180 C   0  0  0  0  0  2  0  0  0  0  0  0
  195.7030  175.1590  142.6130 O   0  0  0  0  0  0  0  0  0  0  0  0
  195.5580  177.1690  141.2690 O   0  0  0  0  0  0  0  0  0  0  0  0
  196.1850  176.4190  142.2570 C   0  0  0  0  0  0  0  0  0  0  0  0
  197.2000  176.8820  142.8380 O   0  0  0  0  0  1  0  0  0  0  0  0
  190.0390  175.9020  143.3920 C   0  0  0  0  0  2  0  0  0  0  0  0
  188.9620  178.3210  141.9870 Cl  0  0  0  0  0  0  0  0  0  0  0  0
  188.8960  175.6570  142.4460 C   0  0  0  0  0  0  0  0  0  0  0  0
  188.3550  176.6850  141.7580 C   0  0  0  0  0  0  0  0  0  0  0  0
  188.3960  174.3250  142.3010 N   0  0  0  0  0  2  0  0  0  0  0  0
  188.7740  173.5800  141.3720 O   0  0  0  0  0  1  0  0  0  0  0  0
  187.2720  176.5390  140.8250 N   0  0  0  0  0  2  0  0  0  0  0  0
  186.2970  177.5550  140.4490 C   0  0  0  0  0  2  0  0  0  0  0  0
  185.8410  179.0290  142.2580 F   0  0  0  0  0  0  0  0  0  0  0  0
  184.0980  178.0710  141.1880 F   0  0  0  0  0  0  0  0  0  0  0  0
  185.4220  176.8330  142.5240 F   0  0  0  0  0  0  0  0  0  0  0  0
  185.3940  177.8830  141.6280 C   0  0  0  0  0  0  0  0  0  0  0  0
  188.8530  176.9240  145.3880 C   0  0  0  0  0  2  0  0  0  0  0  0
  186.6800  178.1420  145.2480 C   0  0  0  0  0  2  0  0  0  0  0  0
  187.4340  177.9180  147.5690 O   0  0  0  0  0  1  0  0  0  0  0  0
  186.6530  177.3770  146.5450 C   0  0  0  0  0  0  0  0  0  0  0  0
  185.4050  176.8600  146.8920 O   0  0  0  0  0  1  0  0  0  0  0  0
  187.3350  176.7620  145.3390 C   0  0  2  0  0  3  0  0  0  0  0  0
  1 17  1  6  0  0  0
  1 29  1  0  0  0  0
  1  2  1  0  0  0  0
  2  3  2  0  0  0  0
  4  2  1  0  0  0  0
  5 13  1  6  0  0  0
  5  8  1  0  0  0  0
  5  7  1  0  0  0  0
  5  6  1  0  0  0  0
  6 12  1  0  0  0  0
  8  7  1  1  0  0  0
  8  9  1  0  0  0  0
  9 11  2  0  0  0  0
  9 10  1  0  0  0  0
 10  4  1  6  0  0  0
 10 12  1  0  0  0  0
 14 15  2  0  0  0  0
 15 13  1  0  0  0  0
 15 16  1  0  0  0  0
 19 17  1  0  0  0  0
 20 18  1  0  0  0  0
 20 19  2  0  0  0  0
 21 19  1  0  0  0  0
 22 21  1  0  0  0  0
 23 20  1  0  0  0  0
 24 23  1  0  0  0  0
 24 28  1  0  0  0  0
 26 28  1  0  0  0  0
 28 25  1  0  0  0  0
 28 27  1  0  0  0  0
 30 34  1  0  0  0  0
 30 32  1  0  0  0  0
 32 33  1  0  0  0  0
 32 31  1  0  0  0  0
 34 29  1  1  0  0  0
 34 32  1  0  0  0  0
M  END
>  <MODEL>
7

>  <REMARK>
 VINA RESULT:      -6.2      4.176      8.342
  Name = 
  12 active torsions:
  status: ('A' for Active; 'I' for Inactive)
    1  A    between atoms: N_1  and  C_33
    2  A    between atoms: N_1  and  C_34
    3  A    between atoms: C_2  and  C_7
    4  A    between atoms: C_2  and  C_11
    5  A    between atoms: C_2  and  C_30
    6  A    between atoms: C_3  and  O_17
    7  A    between atoms: N_10  and  C_18
    8  A    between atoms: C_11  and  C_18
    9  A    between atoms: O_17  and  C_22
   10  A    between atoms: C_20  and  N_29
   11  A    between atoms: C_28  and  C_33
   12  A    between atoms: C_30  and  C_31
                            x       y       z     vdW  Elec       q    Type
                         _______ _______ _______ _____ _____    ______ ____

>  <TORSDO>
F 12

$$$$
=
 OpenBabel11072408253D

 34 36  0  0  1  0  0  0  0  0999 V2000
  187.7540  177.6510  143.1680 C   0  0  2  0  0  3  0  0  0  0  0  0
  187.4440  176.5490  142.1990 C   0  0  0  0  0  0  0  0  0  0  0  0
  186.7260  176.7990  141.1950 O   0  0  0  0  0  0  0  0  0  0  0  0
  187.9700  175.2350  142.4020 N   0  0  0  0  0  2  0  0  0  0  0  0
  190.2700  172.7750  141.8870 C   0  0  1  0  0  0  0  0  0  0  0  0
  189.1130  172.5490  142.8710 C   0  0  0  0  0  2  0  0  0  0  0  0
  190.0750  172.1300  140.6540 O   0  0  0  0  0  0  0  0  0  0  0  0
  190.1290  173.5450  140.6230 C   0  0  1  0  0  3  0  0  0  0  0  0
  188.7470  174.1020  140.3970 C   0  0  0  0  0  0  0  0  0  0  0  0
  187.7160  174.1270  141.4900 C   0  0  1  0  0  3  0  0  0  0  0  0
  188.4660  174.5650  139.3040 O   0  0  0  0  0  0  0  0  0  0  0  0
  187.7420  172.8060  142.2490 C   0  0  0  0  0  2  0  0  0  0  0  0
  191.5960  172.5930  142.3630 O   0  0  0  0  0  0  0  0  0  0  0  0
  191.9350  170.3350  143.1730 O   0  0  0  0  0  0  0  0  0  0  0  0
  191.8920  171.7070  143.3990 C   0  0  0  0  0  0  0  0  0  0  0  0
  192.1230  172.1530  144.5520 O   0  0  0  0  0  1  0  0  0  0  0  0
  188.4790  177.1450  144.4120 C   0  0  0  0  0  2  0  0  0  0  0  0
  189.7150  174.7450  145.7150 Cl  0  0  0  0  0  0  0  0  0  0  0  0
  189.9410  176.9280  144.1360 C   0  0  0  0  0  0  0  0  0  0  0  0
  190.5800  175.8650  144.6690 C   0  0  0  0  0  0  0  0  0  0  0  0
  190.6330  177.8710  143.3110 N   0  0  0  0  0  2  0  0  0  0  0  0
  191.1990  178.8730  143.7950 O   0  0  0  0  0  1  0  0  0  0  0  0
  191.9700  175.5750  144.4470 N   0  0  0  0  0  2  0  0  0  0  0  0
  193.1120  176.2410  145.0590 C   0  0  0  0  0  2  0  0  0  0  0  0
  194.6260  175.8980  146.8590 F   0  0  0  0  0  0  0  0  0  0  0  0
  192.5020  176.4940  147.3420 F   0  0  0  0  0  0  0  0  0  0  0  0
  192.9470  174.4270  146.5660 F   0  0  0  0  0  0  0  0  0  0  0  0
  193.3020  175.7590  146.4880 C   0  0  0  0  0  0  0  0  0  0  0  0
  186.5310  178.5030  143.5160 C   0  0  0  0  0  2  0  0  0  0  0  0
  184.1890  178.6010  144.3710 C   0  0  0  0  0  2  0  0  0  0  0  0
  185.7980  179.2970  146.0830 O   0  0  0  0  0  1  0  0  0  0  0  0
  185.0540  178.2420  145.5500 C   0  0  0  0  0  0  0  0  0  0  0  0
  184.4760  177.3440  146.4460 O   0  0  0  0  0  1  0  0  0  0  0  0
  185.4130  177.7020  144.1790 C   0  0  2  0  0  3  0  0  0  0  0  0
  1 29  1  1  0  0  0
  1 17  1  0  0  0  0
  2  4  1  0  0  0  0
  2  1  1  0  0  0  0
  3  2  2  0  0  0  0
  5 13  1  1  0  0  0
  5  6  1  0  0  0  0
  7  5  1  0  0  0  0
  8  9  1  1  0  0  0
  8  7  1  0  0  0  0
  8  5  1  0  0  0  0
  9 10  1  0  0  0  0
 10 12  1  0  0  0  0
 10  4  1  1  0  0  0
 11  9  2  0  0  0  0
 12  6  1  0  0  0  0
 13 15  1  0  0  0  0
 14 15  2  0  0  0  0
 15 16  1  0  0  0  0
 19 17  1  0  0  0  0
 19 20  2  0  0  0  0
 20 18  1  0  0  0  0
 21 22  1  0  0  0  0
 21 19  1  0  0  0  0
 23 20  1  0  0  0  0
 23 24  1  0  0  0  0
 24 28  1  0  0  0  0
 28 27  1  0  0  0  0
 28 25  1  0  0  0  0
 28 26  1  0  0  0  0
 30 32  1  0  0  0  0
 32 31  1  0  0  0  0
 32 33  1  0  0  0  0
 34 29  1  6  0  0  0
 34 30  1  0  0  0  0
 34 32  1  0  0  0  0
M  END
>  <MODEL>
8

>  <REMARK>
 VINA RESULT:      -6.2      2.601      6.391
  Name = 
  12 active torsions:
  status: ('A' for Active; 'I' for Inactive)
    1  A    between atoms: N_1  and  C_33
    2  A    between atoms: N_1  and  C_34
    3  A    between atoms: C_2  and  C_7
    4  A    between atoms: C_2  and  C_11
    5  A    between atoms: C_2  and  C_30
    6  A    between atoms: C_3  and  O_17
    7  A    between atoms: N_10  and  C_18
    8  A    between atoms: C_11  and  C_18
    9  A    between atoms: O_17  and  C_22
   10  A    between atoms: C_20  and  N_29
   11  A    between atoms: C_28  and  C_33
   12  A    between atoms: C_30  and  C_31
                            x       y       z     vdW  Elec       q    Type
                         _______ _______ _______ _____ _____    ______ ____

>  <TORSDO>
F 12

$$$$
=
 OpenBabel11072408253D

 34 36  0  0  1  0  0  0  0  0999 V2000
  188.8230  175.6110  142.0930 C   0  0  2  0  0  3  0  0  0  0  0  0
  188.2240  176.9770  141.9350 C   0  0  0  0  0  0  0  0  0  0  0  0
  188.9720  177.9440  141.6380 O   0  0  0  0  0  0  0  0  0  0  0  0
  186.8180  177.1760  142.1040 N   0  0  0  0  0  2  0  0  0  0  0  0
  184.7410  178.4400  144.4910 C   0  0  1  0  0  0  0  0  0  0  0  0
  186.2090  178.8890  144.4360 C   0  0  0  0  0  2  0  0  0  0  0  0
  183.8560  179.3940  143.9580 O   0  0  0  0  0  0  0  0  0  0  0  0
  183.9290  178.1540  143.2780 C   0  0  1  0  0  3  0  0  0  0  0  0
  184.6800  178.3260  141.9830 C   0  0  0  0  0  0  0  0  0  0  0  0
  186.1750  178.4750  141.9500 C   0  0  1  0  0  3  0  0  0  0  0  0
  184.0600  178.3230  140.9330 O   0  0  0  0  0  0  0  0  0  0  0  0
  186.6210  179.4160  143.0620 C   0  0  0  0  0  2  0  0  0  0  0  0
  184.2520  177.9040  145.7120 O   0  0  0  0  0  0  0  0  0  0  0  0
  185.2040  179.0310  147.6330 O   0  0  0  0  0  1  0  0  0  0  0  0
  185.0300  177.8820  146.8700 C   0  0  0  0  0  0  0  0  0  0  0  0
  185.5790  176.8090  147.2290 O   0  0  0  0  0  0  0  0  0  0  0  0
  190.3000  175.6640  142.4700 C   0  0  0  0  0  2  0  0  0  0  0  0
  191.6210  177.9320  143.9190 Cl  0  0  0  0  0  0  0  0  0  0  0  0
  190.4880  175.4770  143.9500 C   0  0  0  0  0  0  0  0  0  0  0  0
  191.0610  176.4520  144.6890 C   0  0  0  0  0  0  0  0  0  0  0  0
  190.0570  174.2510  144.5500 N   0  0  0  0  0  2  0  0  0  0  0  0
  190.8060  173.2550  144.6140 O   0  0  0  0  0  1  0  0  0  0  0  0
  191.2660  176.3630  146.1080 N   0  0  0  0  0  2  0  0  0  0  0  0
  190.5290  177.0730  147.1450 C   0  0  0  0  0  2  0  0  0  0  0  0
  188.4070  177.9990  147.6850 F   0  0  0  0  0  0  0  0  0  0  0  0
  189.0150  177.9040  145.5120 F   0  0  0  0  0  0  0  0  0  0  0  0
  188.4800  176.0170  146.6190 F   0  0  0  0  0  0  0  0  0  0  0  0
  189.0780  177.2560  146.7320 C   0  0  0  0  0  0  0  0  0  0  0  0
  188.5650  174.7020  140.8880 C   0  0  0  0  0  2  0  0  0  0  0  0
  189.0740  172.4510  139.9400 C   0  0  0  0  0  2  0  0  0  0  0  0
  188.2300  172.2870  142.2350 O   0  0  0  0  0  1  0  0  0  0  0  0
  189.3590  172.3620  141.4160 C   0  0  0  0  0  0  0  0  0  0  0  0
  190.4530  171.5650  141.7520 O   0  0  0  0  0  1  0  0  0  0  0  0
  189.6580  173.6550  140.6830 C   0  0  2  0  0  3  0  0  0  0  0  0
  1 29  1  6  0  0  0
  1 17  1  0  0  0  0
  2  1  1  0  0  0  0
  2  4  1  0  0  0  0
  3  2  2  0  0  0  0
  5 13  1  1  0  0  0
  6  5  1  0  0  0  0
  7  5  1  0  0  0  0
  8  9  1  6  0  0  0
  8  7  1  0  0  0  0
  8  5  1  0  0  0  0
 10  9  1  0  0  0  0
 10  4  1  1  0  0  0
 10 12  1  0  0  0  0
 11  9  2  0  0  0  0
 12  6  1  0  0  0  0
 13 15  1  0  0  0  0
 15 16  2  0  0  0  0
 15 14  1  0  0  0  0
 17 19  1  0  0  0  0
 18 20  1  0  0  0  0
 19 21  1  0  0  0  0
 19 20  2  0  0  0  0
 20 23  1  0  0  0  0
 21 22  1  0  0  0  0
 23 24  1  0  0  0  0
 26 28  1  0  0  0  0
 27 28  1  0  0  0  0
 28 24  1  0  0  0  0
 28 25  1  0  0  0  0
 30 34  1  0  0  0  0
 30 32  1  0  0  0  0
 32 33  1  0  0  0  0
 32 31  1  0  0  0  0
 34 29  1  1  0  0  0
 34 32  1  0  0  0  0
M  END
>  <MODEL>
9

>  <REMARK>
 VINA RESULT:      -6.1      3.030      4.690
  Name = 
  12 active torsions:
  status: ('A' for Active; 'I' for Inactive)
    1  A    between atoms: N_1  and  C_33
    2  A    between atoms: N_1  and  C_34
    3  A    between atoms: C_2  and  C_7
    4  A    between atoms: C_2  and  C_11
    5  A    between atoms: C_2  and  C_30
    6  A    between atoms: C_3  and  O_17
    7  A    between atoms: N_10  and  C_18
    8  A    between atoms: C_11  and  C_18
    9  A    between atoms: O_17  and  C_22
   10  A    between atoms: C_20  and  N_29
   11  A    between atoms: C_28  and  C_33
   12  A    between atoms: C_30  and  C_31
                            x       y       z     vdW  Elec       q    Type
                         _______ _______ _______ _____ _____    ______ ____

>  <TORSDO>
F 12

$$$$
