=
 OpenBabel11062419343D

 40 41  0  0  1  0  0  0  0  0999 V2000
  192.6540  174.4950  142.6860 C   0  0  0  0  0  2  0  0  0  0  0  0
  192.4580  173.7010  143.9820 C   0  0  1  0  0  3  0  0  0  0  0  0
  191.7510  172.3940  143.6490 C   0  0  0  0  0  2  0  0  0  0  0  0
  190.3910  172.3130  144.3290 C   0  0  0  0  0  2  0  0  0  0  0  0
  189.2880  171.9950  143.3330 C   0  0  0  0  0  2  0  0  0  0  0  0
  189.9950  171.3340  141.7930 S   0  0  0  0  0  0  0  0  0  0  0  0
  189.2620  172.6070  140.7690 C   0  0  0  0  0  0  0  0  0  0  0  0
  188.1170  172.9610  140.9780 O   0  0  0  0  0  0  0  0  0  0  0  0
  190.0340  173.1860  139.6250 C   0  0  0  0  0  2  0  0  0  0  0  0
  191.2970  172.3900  139.3340 C   0  0  0  0  0  2  0  0  0  0  0  0
  192.4960  173.3090  139.1940 C   0  0  0  0  0  1  0  0  0  0  0  0
  193.7800  173.4890  144.7500 C   0  0  1  0  0  3  0  0  0  0  0  0
  193.9940  174.4040  145.9790 C   0  0  1  0  0  3  0  0  0  0  0  0
  193.8270  176.8090  145.6500 C   0  0  0  0  0  2  0  0  0  0  0  0
  192.6910  176.3950  146.5540 C   0  0  0  0  0  2  0  0  0  0  0  0
  194.8110  175.6720  145.7500 C   0  0  2  0  0  3  0  0  0  0  0  0
  192.6910  174.8740  146.6010 C   0  0  0  0  0  2  0  0  0  0  0  0
  195.8720  175.6440  144.6520 C   0  0  0  0  0  2  0  0  0  0  0  0
  195.4950  176.4180  143.5550 O   0  0  0  0  0  1  0  0  0  0  0  0
  194.0440  172.0170  145.0820 C   0  0  0  0  0  2  0  0  0  0  0  0
  195.4270  171.8580  145.6860 C   0  0  0  0  0  1  0  0  0  0  0  0
  191.3890  175.2290  142.2620 C   0  0  0  0  0  2  0  0  0  0  0  0
  190.8280  176.0010  143.4490 C   0  0  1  0  0  3  0  0  0  0  0  0
  191.0780  177.3630  143.2830 O   0  0  0  0  0  1  0  0  0  0  0  0
  189.3290  175.7620  143.6190 C   0  0  1  0  0  3  0  0  0  0  0  0
  187.4510  176.5760  144.6680 C   0  0  2  0  0  3  0  0  0  0  0  0
  188.8470  176.4970  144.7380 O   0  0  0  0  0  0  0  0  0  0  0  0
  187.0460  177.5230  143.5350 C   0  0  0  0  0  2  0  0  0  0  0  0
  188.0800  177.4470  142.4190 C   0  0  1  0  0  3  0  0  0  0  0  0
  188.6380  176.0960  142.3550 N   0  0  0  0  0  2  0  0  0  0  0  0
  186.9030  177.0570  146.0000 C   0  0  0  0  0  2  0  0  0  0  0  0
  185.4060  176.8140  146.0770 C   0  0  0  0  0  2  0  0  0  0  0  0
  185.1720  178.8060  147.3120 O   0  0  0  0  0  0  0  0  0  0  0  0
  184.7010  178.0700  146.4560 C   0  0  0  0  0  3  0  0  0  0  0  0
  187.4310  177.8040  141.1010 C   0  0  0  0  0  2  0  0  0  0  0  0
  187.2560  176.6050  140.3000 N   0  0  0  0  0  2  0  0  0  0  0  0
  186.5170  177.0000  139.1140 C   0  0  0  0  0  2  0  0  0  0  0  0
  186.8780  176.0960  137.9880 C   0  0  0  0  0  0  0  0  0  0  0  0
  186.5420  176.4370  136.6840 O   0  0  0  0  0  0  0  0  0  0  0  0
  187.5330  175.0450  138.2130 O   0  0  0  0  0  1  0  0  0  0  0  0
  2  1  1  6  0  0  0
  2 12  1  0  0  0  0
  3  2  1  0  0  0  0
  3  4  1  0  0  0  0
  5  4  1  0  0  0  0
  6  5  1  0  0  0  0
  7  8  2  0  0  0  0
  7  6  1  0  0  0  0
  9  7  1  0  0  0  0
 10  9  1  0  0  0  0
 11 10  1  0  0  0  0
 12 20  1  1  0  0  0
 13 12  1  6  0  0  0
 13 17  1  0  0  0  0
 14 16  1  0  0  0  0
 14 15  1  0  0  0  0
 15 17  1  0  0  0  0
 16 18  1  6  0  0  0
 16 13  1  0  0  0  0
 19 18  1  0  0  0  0
 20 21  1  0  0  0  0
 22  1  1  0  0  0  0
 22 23  1  0  0  0  0
 23 24  1  6  0  0  0
 25 23  1  6  0  0  0
 25 27  1  0  0  0  0
 26 27  1  0  0  0  0
 26 31  1  1  0  0  0
 28 26  1  0  0  0  0
 29 35  1  6  0  0  0
 29 28  1  0  0  0  0
 30 29  1  0  0  0  0
 30 25  1  0  0  0  0
 31 32  1  0  0  0  0
 32 34  1  0  0  0  0
 34 33  2  0  0  0  0
 36 35  1  0  0  0  0
 37 36  1  0  0  0  0
 38 40  1  0  0  0  0
 38 37  1  0  0  0  0
 39 38  2  0  0  0  0
M  END
>  <MODEL>
1

>  <REMARK>
 VINA RESULT:      -5.2      0.000      0.000
  Name = 
  22 active torsions:
  status: ('A' for Active; 'I' for Inactive)
    1  A    between atoms: C_1  and  C_11
    2  A    between atoms: C_2  and  C_14
    3  A    between atoms: C_2  and  C_19
    4  A    between atoms: C_2  and  C_25
    5  A    between atoms: C_3  and  C_26
    6  A    between atoms: C_4  and  C_15
    7  A    between atoms: C_4  and  N_38
    8  A    between atoms: C_5  and  C_26
    9  A    between atoms: C_5  and  C_36
   10  A    between atoms: C_7  and  C_9
   11  A    between atoms: C_7  and  C_14
   12  A    between atoms: C_8  and  C_28
   13  A    between atoms: C_9  and  C_11
   14  A    between atoms: S_10  and  C_29
   15  A    between atoms: S_10  and  C_35
   16  A    between atoms: C_12  and  C_21
   17  A    between atoms: C_12  and  C_35
   18  A    between atoms: C_14  and  C_21
   19  A    between atoms: C_16  and  C_32
   20  A    between atoms: C_27  and  C_29
   21  A    between atoms: C_27  and  C_33
   22  A    between atoms: C_28  and  N_38
                            x       y       z     vdW  Elec       q    Type
                         _______ _______ _______ _____ _____    ______ ____

>  <TORSDO>
F 22

$$$$
=
 OpenBabel11062419343D

 40 41  0  0  1  0  0  0  0  0999 V2000
  189.4130  174.7950  145.5700 C   0  0  0  0  0  2  0  0  0  0  0  0
  188.8520  175.8330  144.5910 C   0  0  1  0  0  3  0  0  0  0  0  0
  188.5790  177.1220  145.3560 C   0  0  0  0  0  2  0  0  0  0  0  0
  187.2330  177.7200  144.9650 C   0  0  0  0  0  2  0  0  0  0  0  0
  186.4410  178.1520  146.1880 C   0  0  0  0  0  2  0  0  0  0  0  0
  184.6560  177.9820  145.8810 S   0  0  0  0  0  0  0  0  0  0  0  0
  184.7440  178.7220  144.2530 C   0  0  0  0  0  0  0  0  0  0  0  0
  184.8830  179.9260  144.1460 O   0  0  0  0  0  0  0  0  0  0  0  0
  184.5850  177.8700  143.0320 C   0  0  0  0  0  2  0  0  0  0  0  0
  185.2460  178.4960  141.8150 C   0  0  0  0  0  2  0  0  0  0  0  0
  186.4340  177.6710  141.3590 C   0  0  0  0  0  1  0  0  0  0  0  0
  189.7670  176.0450  143.3670 C   0  0  1  0  0  3  0  0  0  0  0  0
  189.3690  175.2650  142.0910 C   0  0  1  0  0  3  0  0  0  0  0  0
  189.9760  172.9130  141.9600 C   0  0  0  0  0  2  0  0  0  0  0  0
  188.4690  172.9920  141.9990 C   0  0  0  0  0  2  0  0  0  0  0  0
  190.4060  174.2930  141.5360 C   0  0  2  0  0  3  0  0  0  0  0  0
  188.1050  174.4440  142.2690 C   0  0  0  0  0  2  0  0  0  0  0  0
  191.8800  174.6090  141.7830 C   0  0  0  0  0  2  0  0  0  0  0  0
  192.6270  173.4490  141.9810 O   0  0  0  0  0  1  0  0  0  0  0  0
  190.0310  177.5250  143.0710 C   0  0  0  0  0  2  0  0  0  0  0  0
  191.4930  177.8540  143.3130 C   0  0  0  0  0  1  0  0  0  0  0  0
  190.8590  174.4340  145.2620 C   0  0  0  0  0  2  0  0  0  0  0  0
  191.7810  175.1600  146.2320 C   0  0  1  0  0  3  0  0  0  0  0  0
  191.1750  175.2400  147.4840 O   0  0  0  0  0  1  0  0  0  0  0  0
  193.1360  174.4630  146.3500 C   0  0  1  0  0  3  0  0  0  0  0  0
  194.4920  172.9110  145.3310 C   0  0  2  0  0  3  0  0  0  0  0  0
  193.1640  173.3190  145.5050 O   0  0  0  0  0  0  0  0  0  0  0  0
  195.2260  173.9160  144.4400 C   0  0  0  0  0  2  0  0  0  0  0  0
  194.6510  175.3080  144.6680 C   0  0  1  0  0  3  0  0  0  0  0  0
  194.2090  175.4370  146.0570 N   0  0  0  0  0  2  0  0  0  0  0  0
  194.5200  171.5210  144.7190 C   0  0  0  0  0  2  0  0  0  0  0  0
  193.1100  171.0490  144.4090 C   0  0  0  0  0  2  0  0  0  0  0  0
  193.9450  168.9550  143.7270 O   0  0  0  0  0  0  0  0  0  0  0  0
  193.0720  169.5620  144.3310 C   0  0  0  0  0  3  0  0  0  0  0  0
  195.7050  176.3480  144.3600 C   0  0  0  0  0  2  0  0  0  0  0  0
  196.6880  175.7940  143.4470 N   0  0  0  0  0  2  0  0  0  0  0  0
  196.6060  176.5720  142.2230 C   0  0  0  0  0  2  0  0  0  0  0  0
  195.6900  175.8890  141.2680 C   0  0  0  0  0  0  0  0  0  0  0  0
  195.8880  174.5520  140.9460 O   0  0  0  0  0  1  0  0  0  0  0  0
  194.7060  176.5100  140.7910 O   0  0  0  0  0  0  0  0  0  0  0  0
  2  3  1  1  0  0  0
  2  1  1  0  0  0  0
  4  3  1  0  0  0  0
  4  5  1  0  0  0  0
  6  5  1  0  0  0  0
  7  6  1  0  0  0  0
  8  7  2  0  0  0  0
  9  7  1  0  0  0  0
 10  9  1  0  0  0  0
 11 10  1  0  0  0  0
 12 20  1  6  0  0  0
 12  2  1  0  0  0  0
 13 17  1  0  0  0  0
 13 12  1  1  0  0  0
 14 15  1  0  0  0  0
 15 17  1  0  0  0  0
 16 18  1  1  0  0  0
 16 14  1  0  0  0  0
 16 13  1  0  0  0  0
 18 19  1  0  0  0  0
 20 21  1  0  0  0  0
 22  1  1  0  0  0  0
 22 23  1  0  0  0  0
 23 24  1  1  0  0  0
 25 23  1  6  0  0  0
 26 31  1  6  0  0  0
 26 27  1  0  0  0  0
 27 25  1  0  0  0  0
 28 29  1  0  0  0  0
 28 26  1  0  0  0  0
 29 35  1  1  0  0  0
 29 30  1  0  0  0  0
 30 25  1  0  0  0  0
 32 31  1  0  0  0  0
 33 34  2  0  0  0  0
 34 32  1  0  0  0  0
 36 35  1  0  0  0  0
 37 36  1  0  0  0  0
 38 37  1  0  0  0  0
 39 38  1  0  0  0  0
 40 38  2  0  0  0  0
M  END
>  <MODEL>
2

>  <REMARK>
 VINA RESULT:      -5.0      3.539      7.732
  Name = 
  22 active torsions:
  status: ('A' for Active; 'I' for Inactive)
    1  A    between atoms: C_1  and  C_11
    2  A    between atoms: C_2  and  C_14
    3  A    between atoms: C_2  and  C_19
    4  A    between atoms: C_2  and  C_25
    5  A    between atoms: C_3  and  C_26
    6  A    between atoms: C_4  and  C_15
    7  A    between atoms: C_4  and  N_38
    8  A    between atoms: C_5  and  C_26
    9  A    between atoms: C_5  and  C_36
   10  A    between atoms: C_7  and  C_9
   11  A    between atoms: C_7  and  C_14
   12  A    between atoms: C_8  and  C_28
   13  A    between atoms: C_9  and  C_11
   14  A    between atoms: S_10  and  C_29
   15  A    between atoms: S_10  and  C_35
   16  A    between atoms: C_12  and  C_21
   17  A    between atoms: C_12  and  C_35
   18  A    between atoms: C_14  and  C_21
   19  A    between atoms: C_16  and  C_32
   20  A    between atoms: C_27  and  C_29
   21  A    between atoms: C_27  and  C_33
   22  A    between atoms: C_28  and  N_38
                            x       y       z     vdW  Elec       q    Type
                         _______ _______ _______ _____ _____    ______ ____

>  <TORSDO>
F 22

$$$$
=
 OpenBabel11062419343D

 40 41  0  0  1  0  0  0  0  0999 V2000
  189.7670  174.6350  146.2230 C   0  0  0  0  0  2  0  0  0  0  0  0
  189.9410  176.1430  146.4300 C   0  0  1  0  0  3  0  0  0  0  0  0
  191.4100  176.4270  146.7220 C   0  0  0  0  0  2  0  0  0  0  0  0
  192.1890  175.1360  146.9330 C   0  0  0  0  0  2  0  0  0  0  0  0
  193.3670  175.0350  145.9770 C   0  0  0  0  0  2  0  0  0  0  0  0
  193.7140  173.2950  145.5780 S   0  0  0  0  0  0  0  0  0  0  0  0
  195.4890  173.5320  145.5440 C   0  0  0  0  0  0  0  0  0  0  0  0
  195.9690  174.5440  146.0180 O   0  0  0  0  0  0  0  0  0  0  0  0
  196.3680  172.5180  144.8800 C   0  0  0  0  0  2  0  0  0  0  0  0
  195.9050  171.0970  145.1620 C   0  0  0  0  0  2  0  0  0  0  0  0
  196.7340  170.4660  146.2630 C   0  0  0  0  0  1  0  0  0  0  0  0
  189.3950  176.9680  145.2450 C   0  0  1  0  0  3  0  0  0  0  0  0
  188.0930  177.7560  145.5220 C   0  0  1  0  0  3  0  0  0  0  0  0
  186.0050  176.5090  145.6070 C   0  0  0  0  0  2  0  0  0  0  0  0
  186.2590  177.0640  146.9880 C   0  0  0  0  0  2  0  0  0  0  0  0
  186.8680  177.3550  144.7060 C   0  0  2  0  0  3  0  0  0  0  0  0
  187.6510  177.6780  146.9730 C   0  0  0  0  0  2  0  0  0  0  0  0
  187.1020  176.7740  143.3130 C   0  0  0  0  0  2  0  0  0  0  0  0
  185.9020  176.4190  142.6970 O   0  0  0  0  0  1  0  0  0  0  0  0
  190.4660  177.8480  144.5910 C   0  0  0  0  0  2  0  0  0  0  0  0
  190.6940  177.4130  143.1550 C   0  0  0  0  0  1  0  0  0  0  0  0
  189.6470  174.2640  144.7520 C   0  0  0  0  0  2  0  0  0  0  0  0
  190.1700  172.8490  144.5400 C   0  0  1  0  0  3  0  0  0  0  0  0
  189.4110  171.9520  145.2910 O   0  0  0  0  0  1  0  0  0  0  0  0
  190.1400  172.4520  143.0650 C   0  0  1  0  0  3  0  0  0  0  0  0
  189.7380  173.2740  140.9550 C   0  0  2  0  0  3  0  0  0  0  0  0
  189.4460  173.4410  142.3140 O   0  0  0  0  0  0  0  0  0  0  0  0
  191.1820  173.7030  140.6840 C   0  0  0  0  0  2  0  0  0  0  0  0
  192.0340  173.4130  141.9120 C   0  0  1  0  0  3  0  0  0  0  0  0
  191.5240  172.2240  142.5960 N   0  0  0  0  0  2  0  0  0  0  0  0
  188.7630  174.0890  140.1230 C   0  0  0  0  0  2  0  0  0  0  0  0
  188.2200  173.2570  138.9750 C   0  0  0  0  0  2  0  0  0  0  0  0
  189.6870  174.1510  137.3630 O   0  0  0  0  0  0  0  0  0  0  0  0
  188.5270  173.9130  137.6740 C   0  0  0  0  0  3  0  0  0  0  0  0
  193.4710  173.1930  141.4910 C   0  0  0  0  0  2  0  0  0  0  0  0
  194.3300  174.1540  142.1600 N   0  0  0  0  0  2  0  0  0  0  0  0
  195.0440  174.8710  141.1190 C   0  0  0  0  0  2  0  0  0  0  0  0
  196.0640  175.7570  141.7440 C   0  0  0  0  0  0  0  0  0  0  0  0
  196.1890  177.0770  141.3320 O   0  0  0  0  0  0  0  0  0  0  0  0
  196.7810  175.3220  142.6820 O   0  0  0  0  0  1  0  0  0  0  0  0
  2  1  1  6  0  0  0
  2  3  1  0  0  0  0
  3  4  1  0  0  0  0
  5  4  1  0  0  0  0
  6  5  1  0  0  0  0
  7  6  1  0  0  0  0
  7  8  2  0  0  0  0
  9 10  1  0  0  0  0
  9  7  1  0  0  0  0
 10 11  1  0  0  0  0
 12 20  1  1  0  0  0
 12  2  1  0  0  0  0
 13 12  1  1  0  0  0
 13 17  1  0  0  0  0
 14 15  1  0  0  0  0
 16 18  1  6  0  0  0
 16 13  1  0  0  0  0
 16 14  1  0  0  0  0
 17 15  1  0  0  0  0
 19 18  1  0  0  0  0
 21 20  1  0  0  0  0
 22  1  1  0  0  0  0
 23 22  1  0  0  0  0
 23 24  1  1  0  0  0
 25 23  1  1  0  0  0
 26 31  1  6  0  0  0
 26 27  1  0  0  0  0
 27 25  1  0  0  0  0
 28 26  1  0  0  0  0
 28 29  1  0  0  0  0
 29 35  1  6  0  0  0
 29 30  1  0  0  0  0
 30 25  1  0  0  0  0
 32 31  1  0  0  0  0
 33 34  2  0  0  0  0
 34 32  1  0  0  0  0
 35 36  1  0  0  0  0
 37 38  1  0  0  0  0
 37 36  1  0  0  0  0
 38 40  1  0  0  0  0
 39 38  2  0  0  0  0
M  END
>  <MODEL>
3

>  <REMARK>
 VINA RESULT:      -5.0      2.637      7.346
  Name = 
  22 active torsions:
  status: ('A' for Active; 'I' for Inactive)
    1  A    between atoms: C_1  and  C_11
    2  A    between atoms: C_2  and  C_14
    3  A    between atoms: C_2  and  C_19
    4  A    between atoms: C_2  and  C_25
    5  A    between atoms: C_3  and  C_26
    6  A    between atoms: C_4  and  C_15
    7  A    between atoms: C_4  and  N_38
    8  A    between atoms: C_5  and  C_26
    9  A    between atoms: C_5  and  C_36
   10  A    between atoms: C_7  and  C_9
   11  A    between atoms: C_7  and  C_14
   12  A    between atoms: C_8  and  C_28
   13  A    between atoms: C_9  and  C_11
   14  A    between atoms: S_10  and  C_29
   15  A    between atoms: S_10  and  C_35
   16  A    between atoms: C_12  and  C_21
   17  A    between atoms: C_12  and  C_35
   18  A    between atoms: C_14  and  C_21
   19  A    between atoms: C_16  and  C_32
   20  A    between atoms: C_27  and  C_29
   21  A    between atoms: C_27  and  C_33
   22  A    between atoms: C_28  and  N_38
                            x       y       z     vdW  Elec       q    Type
                         _______ _______ _______ _____ _____    ______ ____

>  <TORSDO>
F 22

$$$$
=
 OpenBabel11062419343D

 40 41  0  0  1  0  0  0  0  0999 V2000
  190.0860  174.5910  142.7370 C   0  0  0  0  0  2  0  0  0  0  0  0
  190.3260  173.6670  143.9370 C   0  0  1  0  0  3  0  0  0  0  0  0
  190.5540  172.2520  143.4230 C   0  0  0  0  0  2  0  0  0  0  0  0
  189.8300  172.0220  142.1020 C   0  0  0  0  0  2  0  0  0  0  0  0
  190.5030  170.9330  141.2820 C   0  0  0  0  0  2  0  0  0  0  0  0
  191.4030  171.6600  139.8790 S   0  0  0  0  0  0  0  0  0  0  0  0
  193.0100  171.4260  140.6340 C   0  0  0  0  0  0  0  0  0  0  0  0
  193.5790  170.3560  140.5180 O   0  0  0  0  0  0  0  0  0  0  0  0
  193.6200  172.5200  141.4540 C   0  0  0  0  0  2  0  0  0  0  0  0
  193.1210  173.8910  141.0290 C   0  0  0  0  0  2  0  0  0  0  0  0
  194.0280  174.4960  139.9740 C   0  0  0  0  0  1  0  0  0  0  0  0
  191.4690  174.1660  144.8470 C   0  0  1  0  0  3  0  0  0  0  0  0
  191.0280  174.8310  146.1720 C   0  0  1  0  0  3  0  0  0  0  0  0
  189.6440  176.8280  146.0370 C   0  0  0  0  0  2  0  0  0  0  0  0
  188.8120  175.7410  146.6750 C   0  0  0  0  0  2  0  0  0  0  0  0
  191.0640  176.3560  146.2140 C   0  0  2  0  0  3  0  0  0  0  0  0
  189.6160  174.4530  146.5830 C   0  0  0  0  0  2  0  0  0  0  0  0
  192.0900  177.0660  145.3330 C   0  0  0  0  0  2  0  0  0  0  0  0
  191.4940  177.6300  144.2050 O   0  0  0  0  0  1  0  0  0  0  0  0
  192.5530  173.1070  145.0730 C   0  0  0  0  0  2  0  0  0  0  0  0
  193.9290  173.7410  144.9880 C   0  0  0  0  0  1  0  0  0  0  0  0
  188.7950  175.3850  142.8690 C   0  0  0  0  0  2  0  0  0  0  0  0
  188.4870  176.0770  141.5480 C   0  0  1  0  0  3  0  0  0  0  0  0
  187.8380  175.1880  140.6930 O   0  0  0  0  0  1  0  0  0  0  0  0
  187.6300  177.3260  141.7530 C   0  0  1  0  0  3  0  0  0  0  0  0
  185.4930  178.1410  141.5100 C   0  0  2  0  0  3  0  0  0  0  0  0
  186.4100  177.1960  141.0330 O   0  0  0  0  0  0  0  0  0  0  0  0
  185.0200  177.7370  142.9090 C   0  0  0  0  0  2  0  0  0  0  0  0
  186.1450  177.0110  143.6340 C   0  0  1  0  0  3  0  0  0  0  0  0
  187.4360  177.5480  143.2020 N   0  0  0  0  0  2  0  0  0  0  0  0
  184.3220  178.2430  140.5480 C   0  0  0  0  0  2  0  0  0  0  0  0
  183.0070  178.1880  141.3040 C   0  0  0  0  0  2  0  0  0  0  0  0
  180.7160  178.1280  140.7610 O   0  0  0  0  0  0  0  0  0  0  0  0
  181.8670  178.1150  140.3480 C   0  0  0  0  0  3  0  0  0  0  0  0
  185.9830  177.1880  145.1270 C   0  0  0  0  0  2  0  0  0  0  0  0
  186.0300  178.6000  145.4620 N   0  0  0  0  0  2  0  0  0  0  0  0
  185.2990  178.7580  146.7070 C   0  0  0  0  0  2  0  0  0  0  0  0
  186.1410  178.2690  147.8340 C   0  0  0  0  0  0  0  0  0  0  0  0
  185.9970  176.9680  148.3000 O   0  0  0  0  0  0  0  0  0  0  0  0
  187.0180  179.0210  148.3330 O   0  0  0  0  0  1  0  0  0  0  0  0
  1 22  1  0  0  0  0
  2  1  1  6  0  0  0
  2 12  1  0  0  0  0
  3  2  1  0  0  0  0
  4  3  1  0  0  0  0
  5  4  1  0  0  0  0
  6  7  1  0  0  0  0
  6  5  1  0  0  0  0
  7  9  1  0  0  0  0
  8  7  2  0  0  0  0
 10  9  1  0  0  0  0
 11 10  1  0  0  0  0
 12 20  1  1  0  0  0
 13 12  1  6  0  0  0
 13 16  1  0  0  0  0
 13 17  1  0  0  0  0
 14 16  1  0  0  0  0
 14 15  1  0  0  0  0
 16 18  1  6  0  0  0
 17 15  1  0  0  0  0
 19 18  1  0  0  0  0
 21 20  1  0  0  0  0
 23 24  1  6  0  0  0
 23 22  1  0  0  0  0
 25 23  1  1  0  0  0
 25 30  1  0  0  0  0
 26 31  1  6  0  0  0
 26 28  1  0  0  0  0
 27 26  1  0  0  0  0
 27 25  1  0  0  0  0
 28 29  1  0  0  0  0
 29 35  1  1  0  0  0
 30 29  1  0  0  0  0
 31 32  1  0  0  0  0
 34 33  2  0  0  0  0
 34 32  1  0  0  0  0
 35 36  1  0  0  0  0
 36 37  1  0  0  0  0
 37 38  1  0  0  0  0
 38 39  2  0  0  0  0
 38 40  1  0  0  0  0
M  END
>  <MODEL>
4

>  <REMARK>
 VINA RESULT:      -4.9      2.690      4.931
  Name = 
  22 active torsions:
  status: ('A' for Active; 'I' for Inactive)
    1  A    between atoms: C_1  and  C_11
    2  A    between atoms: C_2  and  C_14
    3  A    between atoms: C_2  and  C_19
    4  A    between atoms: C_2  and  C_25
    5  A    between atoms: C_3  and  C_26
    6  A    between atoms: C_4  and  C_15
    7  A    between atoms: C_4  and  N_38
    8  A    between atoms: C_5  and  C_26
    9  A    between atoms: C_5  and  C_36
   10  A    between atoms: C_7  and  C_9
   11  A    between atoms: C_7  and  C_14
   12  A    between atoms: C_8  and  C_28
   13  A    between atoms: C_9  and  C_11
   14  A    between atoms: S_10  and  C_29
   15  A    between atoms: S_10  and  C_35
   16  A    between atoms: C_12  and  C_21
   17  A    between atoms: C_12  and  C_35
   18  A    between atoms: C_14  and  C_21
   19  A    between atoms: C_16  and  C_32
   20  A    between atoms: C_27  and  C_29
   21  A    between atoms: C_27  and  C_33
   22  A    between atoms: C_28  and  N_38
                            x       y       z     vdW  Elec       q    Type
                         _______ _______ _______ _____ _____    ______ ____

>  <TORSDO>
F 22

$$$$
=
 OpenBabel11062419343D

 40 41  0  0  1  0  0  0  0  0999 V2000
  188.2350  175.1510  142.7270 C   0  0  0  0  0  2  0  0  0  0  0  0
  188.4960  176.5220  143.3610 C   0  0  1  0  0  3  0  0  0  0  0  0
  189.7480  177.1180  142.7300 C   0  0  0  0  0  2  0  0  0  0  0  0
  190.9950  176.7460  143.5210 C   0  0  0  0  0  2  0  0  0  0  0  0
  190.8530  177.1140  144.9880 C   0  0  0  0  0  2  0  0  0  0  0  0
  192.1440  176.2980  145.9760 S   0  0  0  0  0  0  0  0  0  0  0  0
  190.9700  175.4280  147.0120 C   0  0  0  0  0  0  0  0  0  0  0  0
  191.2590  175.1770  148.1670 O   0  0  0  0  0  0  0  0  0  0  0  0
  189.6680  174.9610  146.4400 C   0  0  0  0  0  2  0  0  0  0  0  0
  189.7130  173.4890  146.0620 C   0  0  0  0  0  2  0  0  0  0  0  0
  190.4750  173.2860  144.7660 C   0  0  0  0  0  1  0  0  0  0  0  0
  187.2730  177.4590  143.2670 C   0  0  1  0  0  3  0  0  0  0  0  0
  186.8710  178.1690  144.5820 C   0  0  1  0  0  3  0  0  0  0  0  0
  185.2060  177.0940  145.9930 C   0  0  0  0  0  2  0  0  0  0  0  0
  186.5090  177.1060  146.7560 C   0  0  0  0  0  2  0  0  0  0  0  0
  185.3880  178.1540  144.9380 C   0  0  2  0  0  3  0  0  0  0  0  0
  187.5810  177.6060  145.8000 C   0  0  0  0  0  2  0  0  0  0  0  0
  184.3830  178.0950  143.7890 C   0  0  0  0  0  2  0  0  0  0  0  0
  183.4800  179.1560  143.8430 O   0  0  0  0  0  1  0  0  0  0  0  0
  187.3660  178.4400  142.0940 C   0  0  0  0  0  2  0  0  0  0  0  0
  186.5400  177.9360  140.9240 C   0  0  0  0  0  1  0  0  0  0  0  0
  188.8940  175.0120  141.3630 C   0  0  0  0  0  2  0  0  0  0  0  0
  188.5430  173.6550  140.7660 C   0  0  1  0  0  3  0  0  0  0  0  0
  188.2720  173.7970  139.4060 O   0  0  0  0  0  1  0  0  0  0  0  0
  189.6680  172.6410  140.9710 C   0  0  1  0  0  3  0  0  0  0  0  0
  190.9290  171.0580  139.8800 C   0  0  2  0  0  3  0  0  0  0  0  0
  189.7010  171.7300  139.8800 O   0  0  0  0  0  0  0  0  0  0  0  0
  192.0410  172.0200  139.4540 C   0  0  0  0  0  2  0  0  0  0  0  0
  191.6950  173.4290  139.9170 C   0  0  1  0  0  3  0  0  0  0  0  0
  190.9430  173.3650  141.1700 N   0  0  0  0  0  2  0  0  0  0  0  0
  190.8550  169.8640  138.9430 C   0  0  0  0  0  2  0  0  0  0  0  0
  189.6870  170.0130  137.9850 C   0  0  0  0  0  2  0  0  0  0  0  0
  189.4930  171.0450  135.8760 O   0  0  0  0  0  0  0  0  0  0  0  0
  190.1810  170.3630  136.6240 C   0  0  0  0  0  3  0  0  0  0  0  0
  192.9660  174.2240  140.1140 C   0  0  0  0  0  2  0  0  0  0  0  0
  193.0840  174.6230  141.5060 N   0  0  0  0  0  2  0  0  0  0  0  0
  194.0010  175.7480  141.5410 C   0  0  0  0  0  2  0  0  0  0  0  0
  195.0080  175.5260  142.6160 C   0  0  0  0  0  0  0  0  0  0  0  0
  195.9480  174.5110  142.4930 O   0  0  0  0  0  0  0  0  0  0  0  0
  195.0380  176.2920  143.6140 O   0  0  0  0  0  1  0  0  0  0  0  0
  2  1  1  6  0  0  0
  3  2  1  0  0  0  0
  3  4  1  0  0  0  0
  4  5  1  0  0  0  0
  5  6  1  0  0  0  0
  6  7  1  0  0  0  0
  7  8  2  0  0  0  0
  9  7  1  0  0  0  0
 10  9  1  0  0  0  0
 11 10  1  0  0  0  0
 12 20  1  6  0  0  0
 12  2  1  0  0  0  0
 13 12  1  6  0  0  0
 13 16  1  0  0  0  0
 13 17  1  0  0  0  0
 14 15  1  0  0  0  0
 16 18  1  6  0  0  0
 16 14  1  0  0  0  0
 17 15  1  0  0  0  0
 18 19  1  0  0  0  0
 21 20  1  0  0  0  0
 22  1  1  0  0  0  0
 23 24  1  6  0  0  0
 23 22  1  0  0  0  0
 25 23  1  6  0  0  0
 25 30  1  0  0  0  0
 26 31  1  6  0  0  0
 26 27  1  0  0  0  0
 27 25  1  0  0  0  0
 28 26  1  0  0  0  0
 28 29  1  0  0  0  0
 29 35  1  1  0  0  0
 29 30  1  0  0  0  0
 32 31  1  0  0  0  0
 33 34  2  0  0  0  0
 34 32  1  0  0  0  0
 35 36  1  0  0  0  0
 36 37  1  0  0  0  0
 37 38  1  0  0  0  0
 38 40  1  0  0  0  0
 39 38  2  0  0  0  0
M  END
>  <MODEL>
5

>  <REMARK>
 VINA RESULT:      -4.9      2.761      8.242
  Name = 
  22 active torsions:
  status: ('A' for Active; 'I' for Inactive)
    1  A    between atoms: C_1  and  C_11
    2  A    between atoms: C_2  and  C_14
    3  A    between atoms: C_2  and  C_19
    4  A    between atoms: C_2  and  C_25
    5  A    between atoms: C_3  and  C_26
    6  A    between atoms: C_4  and  C_15
    7  A    between atoms: C_4  and  N_38
    8  A    between atoms: C_5  and  C_26
    9  A    between atoms: C_5  and  C_36
   10  A    between atoms: C_7  and  C_9
   11  A    between atoms: C_7  and  C_14
   12  A    between atoms: C_8  and  C_28
   13  A    between atoms: C_9  and  C_11
   14  A    between atoms: S_10  and  C_29
   15  A    between atoms: S_10  and  C_35
   16  A    between atoms: C_12  and  C_21
   17  A    between atoms: C_12  and  C_35
   18  A    between atoms: C_14  and  C_21
   19  A    between atoms: C_16  and  C_32
   20  A    between atoms: C_27  and  C_29
   21  A    between atoms: C_27  and  C_33
   22  A    between atoms: C_28  and  N_38
                            x       y       z     vdW  Elec       q    Type
                         _______ _______ _______ _____ _____    ______ ____

>  <TORSDO>
F 22

$$$$
=
 OpenBabel11062419343D

 40 41  0  0  1  0  0  0  0  0999 V2000
  189.9760  174.6450  145.7820 C   0  0  0  0  0  2  0  0  0  0  0  0
  189.7190  176.0780  146.2600 C   0  0  1  0  0  3  0  0  0  0  0  0
  190.9680  176.5840  146.9720 C   0  0  0  0  0  2  0  0  0  0  0  0
  192.1380  175.6280  146.7780 C   0  0  0  0  0  2  0  0  0  0  0  0
  193.4640  176.3700  146.7490 C   0  0  0  0  0  2  0  0  0  0  0  0
  193.9790  176.6810  145.0330 S   0  0  0  0  0  0  0  0  0  0  0  0
  195.3650  175.5500  145.1180 C   0  0  0  0  0  0  0  0  0  0  0  0
  195.5040  174.8420  146.0970 O   0  0  0  0  0  0  0  0  0  0  0  0
  196.3790  175.5230  144.0170 C   0  0  0  0  0  2  0  0  0  0  0  0
  195.8830  176.2420  142.7730 C   0  0  0  0  0  2  0  0  0  0  0  0
  195.4070  175.2510  141.7280 C   0  0  0  0  0  1  0  0  0  0  0  0
  189.2620  177.0090  145.1170 C   0  0  1  0  0  3  0  0  0  0  0  0
  187.9330  177.7630  145.3590 C   0  0  1  0  0  3  0  0  0  0  0  0
  185.8610  176.5010  145.1780 C   0  0  0  0  0  2  0  0  0  0  0  0
  186.0020  176.9380  146.6160 C   0  0  0  0  0  2  0  0  0  0  0  0
  186.7790  177.4260  144.4210 C   0  0  2  0  0  3  0  0  0  0  0  0
  187.3830  177.5600  146.7590 C   0  0  0  0  0  2  0  0  0  0  0  0
  187.1250  176.9670  143.0050 C   0  0  0  0  0  2  0  0  0  0  0  0
  186.4490  175.7950  142.6660 O   0  0  0  0  0  1  0  0  0  0  0  0
  190.3730  177.9500  144.6380 C   0  0  0  0  0  2  0  0  0  0  0  0
  190.6950  177.6790  143.1800 C   0  0  0  0  0  1  0  0  0  0  0  0
  189.3610  174.3740  144.4170 C   0  0  0  0  0  2  0  0  0  0  0  0
  189.8220  173.0120  143.9130 C   0  0  1  0  0  3  0  0  0  0  0  0
  189.6390  172.0570  144.9120 O   0  0  0  0  0  1  0  0  0  0  0  0
  189.0730  172.5960  142.6480 C   0  0  1  0  0  3  0  0  0  0  0  0
  188.6890  173.2030  140.4640 C   0  0  2  0  0  3  0  0  0  0  0  0
  189.0310  173.6840  141.7330 O   0  0  0  0  0  0  0  0  0  0  0  0
  189.8620  172.4120  139.8800 C   0  0  0  0  0  2  0  0  0  0  0  0
  190.6280  171.7370  141.0100 C   0  0  1  0  0  3  0  0  0  0  0  0
  189.7040  171.3820  142.0880 N   0  0  0  0  0  2  0  0  0  0  0  0
  188.3170  174.3680  139.5620 C   0  0  0  0  0  2  0  0  0  0  0  0
  188.3370  173.9400  138.1060 C   0  0  0  0  0  2  0  0  0  0  0  0
  186.8360  175.6990  137.6540 O   0  0  0  0  0  0  0  0  0  0  0  0
  187.7650  175.0150  137.2470 C   0  0  0  0  0  3  0  0  0  0  0  0
  191.3150  170.4960  140.4860 C   0  0  0  0  0  2  0  0  0  0  0  0
  190.4850  169.8660  139.4740 N   0  0  0  0  0  2  0  0  0  0  0  0
  191.3860  169.3360  138.4660 C   0  0  0  0  0  2  0  0  0  0  0  0
  190.8790  169.7020  137.1140 C   0  0  0  0  0  0  0  0  0  0  0  0
  191.6290  169.4060  135.9840 O   0  0  0  0  0  0  0  0  0  0  0  0
  189.7450  170.2340  136.9940 O   0  0  0  0  0  1  0  0  0  0  0  0
  2  1  1  6  0  0  0
  2  3  1  0  0  0  0
  4  3  1  0  0  0  0
  5  4  1  0  0  0  0
  6  7  1  0  0  0  0
  6  5  1  0  0  0  0
  7  8  2  0  0  0  0
  9  7  1  0  0  0  0
 10  9  1  0  0  0  0
 11 10  1  0  0  0  0
 12 20  1  1  0  0  0
 12  2  1  0  0  0  0
 13 12  1  6  0  0  0
 13 17  1  0  0  0  0
 14 15  1  0  0  0  0
 15 17  1  0  0  0  0
 16 18  1  6  0  0  0
 16 14  1  0  0  0  0
 16 13  1  0  0  0  0
 19 18  1  0  0  0  0
 21 20  1  0  0  0  0
 22  1  1  0  0  0  0
 23 22  1  0  0  0  0
 23 24  1  1  0  0  0
 25 23  1  1  0  0  0
 26 31  1  6  0  0  0
 26 27  1  0  0  0  0
 27 25  1  0  0  0  0
 28 26  1  0  0  0  0
 28 29  1  0  0  0  0
 29 35  1  6  0  0  0
 29 30  1  0  0  0  0
 30 25  1  0  0  0  0
 32 31  1  0  0  0  0
 34 33  2  0  0  0  0
 34 32  1  0  0  0  0
 36 35  1  0  0  0  0
 37 36  1  0  0  0  0
 38 37  1  0  0  0  0
 39 38  2  0  0  0  0
 40 38  1  0  0  0  0
M  END
>  <MODEL>
6

>  <REMARK>
 VINA RESULT:      -4.9      2.937      7.023
  Name = 
  22 active torsions:
  status: ('A' for Active; 'I' for Inactive)
    1  A    between atoms: C_1  and  C_11
    2  A    between atoms: C_2  and  C_14
    3  A    between atoms: C_2  and  C_19
    4  A    between atoms: C_2  and  C_25
    5  A    between atoms: C_3  and  C_26
    6  A    between atoms: C_4  and  C_15
    7  A    between atoms: C_4  and  N_38
    8  A    between atoms: C_5  and  C_26
    9  A    between atoms: C_5  and  C_36
   10  A    between atoms: C_7  and  C_9
   11  A    between atoms: C_7  and  C_14
   12  A    between atoms: C_8  and  C_28
   13  A    between atoms: C_9  and  C_11
   14  A    between atoms: S_10  and  C_29
   15  A    between atoms: S_10  and  C_35
   16  A    between atoms: C_12  and  C_21
   17  A    between atoms: C_12  and  C_35
   18  A    between atoms: C_14  and  C_21
   19  A    between atoms: C_16  and  C_32
   20  A    between atoms: C_27  and  C_29
   21  A    between atoms: C_27  and  C_33
   22  A    between atoms: C_28  and  N_38
                            x       y       z     vdW  Elec       q    Type
                         _______ _______ _______ _____ _____    ______ ____

>  <TORSDO>
F 22

$$$$
=
 OpenBabel11062419343D

 40 41  0  0  1  0  0  0  0  0999 V2000
  189.0480  174.4990  144.9170 C   0  0  0  0  0  2  0  0  0  0  0  0
  189.1440  175.9080  145.5130 C   0  0  1  0  0  3  0  0  0  0  0  0
  188.1180  176.0330  146.6320 C   0  0  0  0  0  2  0  0  0  0  0  0
  187.2000  177.2280  146.4060 C   0  0  0  0  0  2  0  0  0  0  0  0
  185.8620  176.7990  145.8270 C   0  0  0  0  0  2  0  0  0  0  0  0
  184.6030  178.0770  146.1220 S   0  0  0  0  0  0  0  0  0  0  0  0
  184.6930  178.7210  144.4530 C   0  0  0  0  0  0  0  0  0  0  0  0
  184.5670  179.9160  144.2620 O   0  0  0  0  0  0  0  0  0  0  0  0
  184.8600  177.7850  143.2970 C   0  0  0  0  0  2  0  0  0  0  0  0
  185.7030  178.3980  142.1900 C   0  0  0  0  0  2  0  0  0  0  0  0
  187.1810  178.1840  142.4530 C   0  0  0  0  0  1  0  0  0  0  0  0
  190.5760  176.2600  145.9700 C   0  0  1  0  0  3  0  0  0  0  0  0
  191.2640  177.4070  145.1920 C   0  0  1  0  0  3  0  0  0  0  0  0
  192.2010  176.8980  143.0060 C   0  0  0  0  0  2  0  0  0  0  0  0
  191.0610  177.8660  142.7970 C   0  0  0  0  0  2  0  0  0  0  0  0
  192.5560  177.0560  144.4610 C   0  0  2  0  0  3  0  0  0  0  0  0
  190.3650  178.0310  144.1390 C   0  0  0  0  0  2  0  0  0  0  0  0
  193.4140  175.9310  145.0380 C   0  0  0  0  0  2  0  0  0  0  0  0
  193.6720  174.9440  144.0860 O   0  0  0  0  0  1  0  0  0  0  0  0
  190.6840  176.4530  147.4860 C   0  0  0  0  0  2  0  0  0  0  0  0
  191.3750  175.2580  148.1170 C   0  0  0  0  0  1  0  0  0  0  0  0
  190.2530  174.1550  144.0530 C   0  0  0  0  0  2  0  0  0  0  0  0
  190.5180  172.6570  144.1240 C   0  0  1  0  0  3  0  0  0  0  0  0
  189.5340  172.0430  144.8970 O   0  0  0  0  0  1  0  0  0  0  0  0
  190.5600  172.0250  142.7340 C   0  0  1  0  0  3  0  0  0  0  0  0
  190.1080  172.4420  140.5180 C   0  0  2  0  0  3  0  0  0  0  0  0
  189.7740  172.7940  141.8310 O   0  0  0  0  0  0  0  0  0  0  0  0
  191.5010  172.9810  140.1800 C   0  0  0  0  0  2  0  0  0  0  0  0
  192.3570  172.9920  141.4390 C   0  0  1  0  0  3  0  0  0  0  0  0
  191.9690  171.8810  142.3090 N   0  0  0  0  0  2  0  0  0  0  0  0
  189.0650  172.9970  139.5630 C   0  0  0  0  0  2  0  0  0  0  0  0
  189.7030  173.3660  138.2350 C   0  0  0  0  0  2  0  0  0  0  0  0
  187.7160  174.5860  137.9000 O   0  0  0  0  0  0  0  0  0  0  0  0
  188.7440  174.1440  137.4030 C   0  0  0  0  0  3  0  0  0  0  0  0
  193.8170  172.8690  141.0610 C   0  0  0  0  0  2  0  0  0  0  0  0
  194.3180  174.1580  140.6180 N   0  0  0  0  0  2  0  0  0  0  0  0
  195.6620  174.2890  141.1540 C   0  0  0  0  0  2  0  0  0  0  0  0
  196.1180  175.6970  140.9940 C   0  0  0  0  0  0  0  0  0  0  0  0
  197.2040  175.9910  140.1800 O   0  0  0  0  0  0  0  0  0  0  0  0
  195.4870  176.6280  141.5590 O   0  0  0  0  0  1  0  0  0  0  0  0
  2  1  1  1  0  0  0
  2 12  1  0  0  0  0
  2  3  1  0  0  0  0
  4  3  1  0  0  0  0
  5  6  1  0  0  0  0
  5  4  1  0  0  0  0
  7  6  1  0  0  0  0
  8  7  2  0  0  0  0
  9  7  1  0  0  0  0
 10 11  1  0  0  0  0
 10  9  1  0  0  0  0
 12 20  1  1  0  0  0
 13 12  1  6  0  0  0
 14 16  1  0  0  0  0
 15 14  1  0  0  0  0
 15 17  1  0  0  0  0
 16 18  1  1  0  0  0
 16 13  1  0  0  0  0
 17 13  1  0  0  0  0
 19 18  1  0  0  0  0
 20 21  1  0  0  0  0
 22 23  1  0  0  0  0
 22  1  1  0  0  0  0
 23 24  1  1  0  0  0
 25 23  1  1  0  0  0
 26 31  1  6  0  0  0
 26 27  1  0  0  0  0
 27 25  1  0  0  0  0
 28 26  1  0  0  0  0
 28 29  1  0  0  0  0
 29 35  1  6  0  0  0
 29 30  1  0  0  0  0
 30 25  1  0  0  0  0
 32 31  1  0  0  0  0
 34 33  2  0  0  0  0
 34 32  1  0  0  0  0
 36 35  1  0  0  0  0
 36 37  1  0  0  0  0
 38 37  1  0  0  0  0
 38 40  1  0  0  0  0
 39 38  2  0  0  0  0
M  END
>  <MODEL>
7

>  <REMARK>
 VINA RESULT:      -4.9      2.963      6.913
  Name = 
  22 active torsions:
  status: ('A' for Active; 'I' for Inactive)
    1  A    between atoms: C_1  and  C_11
    2  A    between atoms: C_2  and  C_14
    3  A    between atoms: C_2  and  C_19
    4  A    between atoms: C_2  and  C_25
    5  A    between atoms: C_3  and  C_26
    6  A    between atoms: C_4  and  C_15
    7  A    between atoms: C_4  and  N_38
    8  A    between atoms: C_5  and  C_26
    9  A    between atoms: C_5  and  C_36
   10  A    between atoms: C_7  and  C_9
   11  A    between atoms: C_7  and  C_14
   12  A    between atoms: C_8  and  C_28
   13  A    between atoms: C_9  and  C_11
   14  A    between atoms: S_10  and  C_29
   15  A    between atoms: S_10  and  C_35
   16  A    between atoms: C_12  and  C_21
   17  A    between atoms: C_12  and  C_35
   18  A    between atoms: C_14  and  C_21
   19  A    between atoms: C_16  and  C_32
   20  A    between atoms: C_27  and  C_29
   21  A    between atoms: C_27  and  C_33
   22  A    between atoms: C_28  and  N_38
                            x       y       z     vdW  Elec       q    Type
                         _______ _______ _______ _____ _____    ______ ____

>  <TORSDO>
F 22

$$$$
=
 OpenBabel11062419343D

 40 41  0  0  1  0  0  0  0  0999 V2000
  191.8210  174.3440  143.2220 C   0  0  0  0  0  2  0  0  0  0  0  0
  192.1960  173.3700  144.3450 C   0  0  1  0  0  3  0  0  0  0  0  0
  191.8280  171.9580  143.9050 C   0  0  0  0  0  2  0  0  0  0  0  0
  190.4060  171.9030  143.3600 C   0  0  0  0  0  2  0  0  0  0  0  0
  190.3110  170.9930  142.1470 C   0  0  0  0  0  2  0  0  0  0  0  0
  189.8760  171.9530  140.6650 S   0  0  0  0  0  0  0  0  0  0  0  0
  190.8870  170.9540  139.5750 C   0  0  0  0  0  0  0  0  0  0  0  0
  190.6190  169.7780  139.4170 O   0  0  0  0  0  0  0  0  0  0  0  0
  192.0890  171.5500  138.9110 C   0  0  0  0  0  2  0  0  0  0  0  0
  192.6480  172.7230  139.7010 C   0  0  0  0  0  2  0  0  0  0  0  0
  193.7070  172.2590  140.6830 C   0  0  0  0  0  1  0  0  0  0  0  0
  193.6740  173.4990  144.7690 C   0  0  1  0  0  3  0  0  0  0  0  0
  193.9390  174.3850  146.0100 C   0  0  1  0  0  3  0  0  0  0  0  0
  193.8410  176.7990  145.7250 C   0  0  0  0  0  2  0  0  0  0  0  0
  192.7090  176.4040  146.6430 C   0  0  0  0  0  2  0  0  0  0  0  0
  194.7900  175.6310  145.7880 C   0  0  2  0  0  3  0  0  0  0  0  0
  192.6630  174.8830  146.6650 C   0  0  0  0  0  2  0  0  0  0  0  0
  195.8300  175.5900  144.6690 C   0  0  0  0  0  2  0  0  0  0  0  0
  195.6750  176.6580  143.7850 O   0  0  0  0  0  1  0  0  0  0  0  0
  194.3830  172.1440  144.8740 C   0  0  0  0  0  2  0  0  0  0  0  0
  195.5400  172.0830  143.8940 C   0  0  0  0  0  1  0  0  0  0  0  0
  190.8730  175.4350  143.6980 C   0  0  0  0  0  2  0  0  0  0  0  0
  190.0180  175.9100  142.5310 C   0  0  1  0  0  3  0  0  0  0  0  0
  189.0610  174.9420  142.2270 O   0  0  0  0  0  1  0  0  0  0  0  0
  189.3350  177.2420  142.8380 C   0  0  1  0  0  3  0  0  0  0  0  0
  187.3000  178.3120  142.7850 C   0  0  2  0  0  3  0  0  0  0  0  0
  188.0580  177.2840  142.2110 O   0  0  0  0  0  0  0  0  0  0  0  0
  186.8850  177.9130  144.2040 C   0  0  0  0  0  2  0  0  0  0  0  0
  187.9650  177.0330  144.8180 C   0  0  1  0  0  3  0  0  0  0  0  0
  189.2760  177.4300  144.3030 N   0  0  0  0  0  2  0  0  0  0  0  0
  186.0820  178.5880  141.9200 C   0  0  0  0  0  2  0  0  0  0  0  0
  184.9770  177.5940  142.2260 C   0  0  0  0  0  2  0  0  0  0  0  0
  182.8230  178.0970  141.4150 O   0  0  0  0  0  0  0  0  0  0  0  0
  183.6620  178.2900  142.2850 C   0  0  0  0  0  3  0  0  0  0  0  0
  187.9350  177.1700  146.3240 C   0  0  0  0  0  2  0  0  0  0  0  0
  186.6960  176.6190  146.8410 N   0  0  0  0  0  2  0  0  0  0  0  0
  186.3060  177.4540  147.9640 C   0  0  0  0  0  2  0  0  0  0  0  0
  185.5330  178.6230  147.4610 C   0  0  0  0  0  0  0  0  0  0  0  0
  184.3330  178.4300  146.7890 O   0  0  0  0  0  0  0  0  0  0  0  0
  185.9450  179.7900  147.6890 O   0  0  0  0  0  1  0  0  0  0  0  0
  1 22  1  0  0  0  0
  2  1  1  6  0  0  0
  2 12  1  0  0  0  0
  3  2  1  0  0  0  0
  4  3  1  0  0  0  0
  5  4  1  0  0  0  0
  6  5  1  0  0  0  0
  7  6  1  0  0  0  0
  8  7  2  0  0  0  0
  9  7  1  0  0  0  0
  9 10  1  0  0  0  0
 10 11  1  0  0  0  0
 12 20  1  1  0  0  0
 13 12  1  6  0  0  0
 13 17  1  0  0  0  0
 14 16  1  0  0  0  0
 14 15  1  0  0  0  0
 15 17  1  0  0  0  0
 16 18  1  6  0  0  0
 16 13  1  0  0  0  0
 19 18  1  0  0  0  0
 21 20  1  0  0  0  0
 23 24  1  1  0  0  0
 23 22  1  0  0  0  0
 25 23  1  1  0  0  0
 25 30  1  0  0  0  0
 26 31  1  6  0  0  0
 26 28  1  0  0  0  0
 27 26  1  0  0  0  0
 27 25  1  0  0  0  0
 28 29  1  0  0  0  0
 29 35  1  1  0  0  0
 30 29  1  0  0  0  0
 31 32  1  0  0  0  0
 32 34  1  0  0  0  0
 33 34  2  0  0  0  0
 35 36  1  0  0  0  0
 36 37  1  0  0  0  0
 38 40  1  0  0  0  0
 38 37  1  0  0  0  0
 39 38  2  0  0  0  0
M  END
>  <MODEL>
8

>  <REMARK>
 VINA RESULT:      -4.8      2.098      4.074
  Name = 
  22 active torsions:
  status: ('A' for Active; 'I' for Inactive)
    1  A    between atoms: C_1  and  C_11
    2  A    between atoms: C_2  and  C_14
    3  A    between atoms: C_2  and  C_19
    4  A    between atoms: C_2  and  C_25
    5  A    between atoms: C_3  and  C_26
    6  A    between atoms: C_4  and  C_15
    7  A    between atoms: C_4  and  N_38
    8  A    between atoms: C_5  and  C_26
    9  A    between atoms: C_5  and  C_36
   10  A    between atoms: C_7  and  C_9
   11  A    between atoms: C_7  and  C_14
   12  A    between atoms: C_8  and  C_28
   13  A    between atoms: C_9  and  C_11
   14  A    between atoms: S_10  and  C_29
   15  A    between atoms: S_10  and  C_35
   16  A    between atoms: C_12  and  C_21
   17  A    between atoms: C_12  and  C_35
   18  A    between atoms: C_14  and  C_21
   19  A    between atoms: C_16  and  C_32
   20  A    between atoms: C_27  and  C_29
   21  A    between atoms: C_27  and  C_33
   22  A    between atoms: C_28  and  N_38
                            x       y       z     vdW  Elec       q    Type
                         _______ _______ _______ _____ _____    ______ ____

>  <TORSDO>
F 22

$$$$
=
 OpenBabel11062419343D

 40 41  0  0  1  0  0  0  0  0999 V2000
  192.9010  173.5830  143.3220 C   0  0  0  0  0  2  0  0  0  0  0  0
  193.8260  174.1500  144.4050 C   0  0  1  0  0  3  0  0  0  0  0  0
  193.1530  173.9710  145.7600 C   0  0  0  0  0  2  0  0  0  0  0  0
  193.0280  175.3000  146.4940 C   0  0  0  0  0  2  0  0  0  0  0  0
  191.7390  175.3730  147.2960 C   0  0  0  0  0  2  0  0  0  0  0  0
  190.5860  176.5570  146.5370 S   0  0  0  0  0  0  0  0  0  0  0  0
  189.1730  175.4690  146.7020 C   0  0  0  0  0  0  0  0  0  0  0  0
  189.3280  174.2650  146.6140 O   0  0  0  0  0  0  0  0  0  0  0  0
  187.8020  176.0430  146.8850 C   0  0  0  0  0  2  0  0  0  0  0  0
  187.8200  177.5630  146.8820 C   0  0  0  0  0  2  0  0  0  0  0  0
  186.4120  178.1210  146.9650 C   0  0  0  0  0  1  0  0  0  0  0  0
  195.2410  173.5370  144.3530 C   0  0  1  0  0  3  0  0  0  0  0  0
  196.3900  174.5310  144.0560 C   0  0  1  0  0  3  0  0  0  0  0  0
  196.4290  175.6050  141.8730 C   0  0  0  0  0  2  0  0  0  0  0  0
  196.1900  176.6810  142.9040 C   0  0  0  0  0  2  0  0  0  0  0  0
  197.0080  174.4600  142.6630 C   0  0  2  0  0  3  0  0  0  0  0  0
  195.9800  175.9810  144.2380 C   0  0  0  0  0  2  0  0  0  0  0  0
  196.9890  173.1110  141.9460 C   0  0  0  0  0  2  0  0  0  0  0  0
  196.0480  173.0910  140.9170 O   0  0  0  0  0  1  0  0  0  0  0  0
  195.5510  172.6540  145.5660 C   0  0  0  0  0  2  0  0  0  0  0  0
  196.9010  173.0250  146.1510 C   0  0  0  0  0  1  0  0  0  0  0  0
  191.4660  174.0650  143.4790 C   0  0  0  0  0  2  0  0  0  0  0  0
  190.5100  172.9100  143.2090 C   0  0  1  0  0  3  0  0  0  0  0  0
  190.5200  172.0300  144.2910 O   0  0  0  0  0  1  0  0  0  0  0  0
  189.0870  173.4040  142.9520 C   0  0  1  0  0  3  0  0  0  0  0  0
  187.8270  175.3130  142.7120 C   0  0  2  0  0  3  0  0  0  0  0  0
  188.9880  174.7830  143.2870 O   0  0  0  0  0  0  0  0  0  0  0  0
  188.0070  175.4220  141.1960 C   0  0  0  0  0  2  0  0  0  0  0  0
  188.9150  174.2980  140.7130 C   0  0  1  0  0  3  0  0  0  0  0  0
  188.7190  173.1130  141.5490 N   0  0  0  0  0  2  0  0  0  0  0  0
  187.5320  176.6720  143.3240 C   0  0  0  0  0  2  0  0  0  0  0  0
  186.5420  177.4370  142.4640 C   0  0  0  0  0  2  0  0  0  0  0  0
  184.5420  178.6340  142.8070 O   0  0  0  0  0  0  0  0  0  0  0  0
  185.3990  177.9100  143.2950 C   0  0  0  0  0  3  0  0  0  0  0  0
  188.5950  173.9740  139.2710 C   0  0  0  0  0  2  0  0  0  0  0  0
  189.7690  173.4150  138.6230 N   0  0  0  0  0  2  0  0  0  0  0  0
  189.3230  172.2400  137.8950 C   0  0  0  0  0  2  0  0  0  0  0  0
  189.9160  171.0230  138.5170 C   0  0  0  0  0  0  0  0  0  0  0  0
  190.6830  171.1320  139.6700 O   0  0  0  0  0  1  0  0  0  0  0  0
  189.6790  169.8900  138.0250 O   0  0  0  0  0  0  0  0  0  0  0  0
  1 22  1  0  0  0  0
  2  1  1  6  0  0  0
  2  3  1  0  0  0  0
  3  4  1  0  0  0  0
  4  5  1  0  0  0  0
  6  7  1  0  0  0  0
  6  5  1  0  0  0  0
  7  9  1  0  0  0  0
  8  7  2  0  0  0  0
 10  9  1  0  0  0  0
 10 11  1  0  0  0  0
 12  2  1  0  0  0  0
 12 20  1  1  0  0  0
 13 17  1  0  0  0  0
 13 12  1  6  0  0  0
 14 16  1  0  0  0  0
 14 15  1  0  0  0  0
 15 17  1  0  0  0  0
 16 18  1  6  0  0  0
 16 13  1  0  0  0  0
 19 18  1  0  0  0  0
 20 21  1  0  0  0  0
 23 22  1  0  0  0  0
 23 24  1  1  0  0  0
 25 23  1  6  0  0  0
 25 27  1  0  0  0  0
 26 27  1  0  0  0  0
 26 31  1  1  0  0  0
 28 26  1  0  0  0  0
 29 35  1  6  0  0  0
 29 28  1  0  0  0  0
 29 30  1  0  0  0  0
 30 25  1  0  0  0  0
 32 34  1  0  0  0  0
 32 31  1  0  0  0  0
 33 34  2  0  0  0  0
 36 35  1  0  0  0  0
 37 38  1  0  0  0  0
 37 36  1  0  0  0  0
 38 39  1  0  0  0  0
 40 38  2  0  0  0  0
M  END
>  <MODEL>
9

>  <REMARK>
 VINA RESULT:      -4.7      2.751      4.868
  Name = 
  22 active torsions:
  status: ('A' for Active; 'I' for Inactive)
    1  A    between atoms: C_1  and  C_11
    2  A    between atoms: C_2  and  C_14
    3  A    between atoms: C_2  and  C_19
    4  A    between atoms: C_2  and  C_25
    5  A    between atoms: C_3  and  C_26
    6  A    between atoms: C_4  and  C_15
    7  A    between atoms: C_4  and  N_38
    8  A    between atoms: C_5  and  C_26
    9  A    between atoms: C_5  and  C_36
   10  A    between atoms: C_7  and  C_9
   11  A    between atoms: C_7  and  C_14
   12  A    between atoms: C_8  and  C_28
   13  A    between atoms: C_9  and  C_11
   14  A    between atoms: S_10  and  C_29
   15  A    between atoms: S_10  and  C_35
   16  A    between atoms: C_12  and  C_21
   17  A    between atoms: C_12  and  C_35
   18  A    between atoms: C_14  and  C_21
   19  A    between atoms: C_16  and  C_32
   20  A    between atoms: C_27  and  C_29
   21  A    between atoms: C_27  and  C_33
   22  A    between atoms: C_28  and  N_38
                            x       y       z     vdW  Elec       q    Type
                         _______ _______ _______ _____ _____    ______ ____

>  <TORSDO>
F 22

$$$$
