=
 OpenBabel11072408553D

 45 50  0  0  1  0  0  0  0  0999 V2000
  192.5250  173.8590  139.1880 C   0  0  0  0  0  3  0  0  0  0  0  0
  193.2830  174.3980  140.2250 C   0  0  0  0  0  0  0  0  0  0  0  0
  191.4080  174.0920  141.7230 C   0  0  0  0  0  3  0  0  0  0  0  0
  192.7230  174.5290  141.5100 C   0  0  0  0  0  0  0  0  0  0  0  0
  194.7990  175.3940  142.3990 N   0  0  0  0  0  0  0  0  0  0  0  0
  194.6680  174.8790  139.9090 C   0  0  0  0  0  3  0  0  0  0  0  0
  191.2070  173.4250  139.3880 C   0  0  0  0  0  0  0  0  0  0  0  0
  195.4550  175.1920  141.1440 C   0  0  0  0  0  0  0  0  0  0  0  0
  193.5430  175.1270  142.6040 C   0  0  0  0  0  0  0  0  0  0  0  0
  196.7210  175.4260  141.0430 N   0  0  0  0  0  1  0  0  0  0  0  0
  190.6390  173.5530  140.6760 C   0  0  0  0  0  0  0  0  0  0  0  0
  189.9350  177.8990  145.5700 C   0  0  0  0  0  2  0  0  0  0  0  0
  191.7700  176.2070  144.0680 C   0  0  2  0  0  3  0  0  0  0  0  0
  192.6140  174.1420  144.7480 C   0  0  2  0  0  3  0  0  0  0  0  0
  193.0220  175.4020  143.9890 C   0  0  1  0  0  3  0  0  0  0  0  0
  189.9570  176.3750  145.7910 C   0  0  2  0  0  3  0  0  0  0  0  0
  190.5410  178.3260  144.2180 C   0  0  0  0  0  2  0  0  0  0  0  0
  191.9280  177.7110  143.9920 C   0  0  0  0  0  2  0  0  0  0  0  0
  191.3550  175.8450  145.4600 C   0  0  1  0  0  3  0  0  0  0  0  0
  191.5420  174.4620  145.6220 O   0  0  0  0  0  0  0  0  0  0  0  0
  193.7920  173.5240  145.5050 C   0  0  1  0  0  3  0  0  0  0  0  0
  194.4270  172.3750  144.7350 C   0  0  0  0  0  1  0  0  0  0  0  0
  194.7520  174.5050  145.7620 O   0  0  0  0  0  1  0  0  0  0  0  0
  188.8460  175.6810  145.0040 C   0  0  0  0  0  2  0  0  0  0  0  0
  186.9950  176.4940  146.6200 C   0  0  0  0  0  2  0  0  0  0  0  0
  184.9170  177.5680  145.7110 C   0  0  2  0  0  3  0  0  0  0  0  0
  184.1340  178.7240  145.7540 O   0  0  0  0  0  1  0  0  0  0  0  0
  186.0340  177.6780  146.7470 C   0  0  0  0  0  2  0  0  0  0  0  0
  187.5430  176.3760  145.2240 C   0  0  0  0  0  0  0  0  0  0  0  0
  186.8180  176.7530  144.1700 C   0  0  0  0  0  3  0  0  0  0  0  0
  184.8170  177.6660  143.3100 O   0  0  0  0  0  0  0  0  0  0  0  0
  185.4940  177.3720  144.3310 C   0  0  0  0  0  0  0  0  0  0  0  0
  190.7270  171.4830  137.8650 C   0  0  0  0  0  2  0  0  0  0  0  0
  190.4720  172.8710  138.2730 N   0  0  0  0  0  0  0  0  0  0  0  0
  189.9510  172.1780  135.5670 C   0  0  0  0  0  2  0  0  0  0  0  0
  189.8880  171.0910  136.6450 C   0  0  1  0  0  3  0  0  0  0  0  0
  189.5610  173.5660  136.0990 C   0  0  0  0  0  2  0  0  0  0  0  0
  189.3940  173.6150  137.6200 C   0  0  0  0  0  2  0  0  0  0  0  0
  191.6200  169.5430  135.5690 C   0  0  0  0  0  0  0  0  0  0  0  0
  190.3200  169.8010  136.1130 N   0  0  0  0  0  2  0  0  0  0  0  0
  192.4740  170.4640  135.4730 O   0  0  0  0  0  0  0  0  0  0  0  0
  191.9650  168.1710  135.1140 C   0  0  0  0  0  1  0  0  0  0  0  0
  189.3070  173.1870  140.8950 O   0  0  0  0  0  0  0  0  0  0  0  0
  188.4070  173.9530  141.6830 C   0  0  0  0  0  2  0  0  0  0  0  0
  188.2040  175.3110  141.0410 C   0  0  0  0  0  1  0  0  0  0  0  0
  1  7  2  0  0  0  0
  1  2  1  0  0  0  0
  2  4  1  0  0  0  0
  4  3  1  0  0  0  0
  4  9  2  0  0  0  0
  5  9  1  0  0  0  0
  6  2  2  0  0  0  0
  6  8  1  0  0  0  0
  7 11  1  0  0  0  0
  8  5  2  0  0  0  0
 10  8  1  0  0  0  0
 11 43  1  0  0  0  0
 11  3  2  0  0  0  0
 12 16  1  0  0  0  0
 13 18  1  1  0  0  0
 13 19  1  0  0  0  0
 14 21  1  1  0  0  0
 14 20  1  0  0  0  0
 15  9  1  6  0  0  0
 15 13  1  0  0  0  0
 15 14  1  0  0  0  0
 16 24  1  6  0  0  0
 17 12  1  0  0  0  0
 18 17  1  0  0  0  0
 19 20  1  6  0  0  0
 19 16  1  0  0  0  0
 21 22  1  6  0  0  0
 21 23  1  0  0  0  0
 24 29  1  0  0  0  0
 25 28  1  0  0  0  0
 26 27  1  6  0  0  0
 26 28  1  0  0  0  0
 29 25  1  0  0  0  0
 30 32  1  0  0  0  0
 30 29  2  0  0  0  0
 31 32  2  0  0  0  0
 32 26  1  0  0  0  0
 33 34  1  0  0  0  0
 34  7  1  0  0  0  0
 35 37  1  0  0  0  0
 35 36  1  0  0  0  0
 36 40  1  6  0  0  0
 36 33  1  0  0  0  0
 37 38  1  0  0  0  0
 38 34  1  0  0  0  0
 39 40  1  0  0  0  0
 41 39  2  0  0  0  0
 42 39  1  0  0  0  0
 43 44  1  0  0  0  0
 45 44  1  0  0  0  0
M  END
>  <MODEL>
1

>  <REMARK>
 VINA RESULT:      -7.6      0.000      0.000
  Name = 
  8 active torsions:
  status: ('A' for Active; 'I' for Inactive)
    1  A    between atoms: N_3  and  C_15
    2  A    between atoms: C_9  and  O_25
    3  A    between atoms: C_16  and  C_20
    4  A    between atoms: C_18  and  C_21
    5  A    between atoms: C_22  and  C_30
    6  A    between atoms: C_24  and  N_31
    7  A    between atoms: O_25  and  C_44
    8  A    between atoms: C_30  and  C_34
                            x       y       z     vdW  Elec       q    Type
                         _______ _______ _______ _____ _____    ______ ____

>  <TORSDO>
F 8

$$$$
=
 OpenBabel11072408553D

 45 50  0  0  1  0  0  0  0  0999 V2000
  188.5580  175.1080  141.3820 C   0  0  0  0  0  3  0  0  0  0  0  0
  189.6460  174.2430  141.2880 C   0  0  0  0  0  0  0  0  0  0  0  0
  191.0090  175.8670  142.4540 C   0  0  0  0  0  3  0  0  0  0  0  0
  190.8930  174.6210  141.8200 C   0  0  0  0  0  0  0  0  0  0  0  0
  191.8700  172.4930  141.2190 N   0  0  0  0  0  0  0  0  0  0  0  0
  189.4530  172.9460  140.5610 C   0  0  0  0  0  3  0  0  0  0  0  0
  188.6640  176.3590  142.0080 C   0  0  0  0  0  0  0  0  0  0  0  0
  190.6060  172.0110  140.7530 C   0  0  0  0  0  0  0  0  0  0  0  0
  192.0520  173.6900  141.6930 C   0  0  0  0  0  0  0  0  0  0  0  0
  190.5000  170.7870  140.3540 N   0  0  0  0  0  1  0  0  0  0  0  0
  189.9140  176.7450  142.5440 C   0  0  0  0  0  0  0  0  0  0  0  0
  195.9080  172.8100  145.4150 C   0  0  0  0  0  2  0  0  0  0  0  0
  193.9970  173.2000  143.2510 C   0  0  2  0  0  3  0  0  0  0  0  0
  194.5030  173.8010  141.0550 C   0  0  2  0  0  3  0  0  0  0  0  0
  193.4500  174.0250  142.1370 C   0  0  1  0  0  3  0  0  0  0  0  0
  196.3320  172.6100  143.9480 C   0  0  2  0  0  3  0  0  0  0  0  0
  194.3830  172.7140  145.6260 C   0  0  0  0  0  2  0  0  0  0  0  0
  193.6140  173.6190  144.6540 C   0  0  0  0  0  2  0  0  0  0  0  0
  195.4530  173.4890  143.0530 C   0  0  1  0  0  3  0  0  0  0  0  0
  195.7240  173.4260  141.6760 O   0  0  0  0  0  0  0  0  0  0  0  0
  194.6800  175.0330  140.1650 C   0  0  1  0  0  3  0  0  0  0  0  0
  193.8430  174.9460  138.8960 C   0  0  0  0  0  1  0  0  0  0  0  0
  194.3330  176.1820  140.8790 O   0  0  0  0  0  1  0  0  0  0  0  0
  196.3080  171.1340  143.5570 C   0  0  0  0  0  2  0  0  0  0  0  0
  197.1500  170.0020  145.7270 C   0  0  0  0  0  2  0  0  0  0  0  0
  195.6270  168.4880  147.0260 C   0  0  2  0  0  3  0  0  0  0  0  0
  195.0430  168.2810  148.2780 O   0  0  0  0  0  1  0  0  0  0  0  0
  196.6070  169.6560  147.1160 C   0  0  0  0  0  2  0  0  0  0  0  0
  196.0370  170.2840  144.7550 C   0  0  0  0  0  0  0  0  0  0  0  0
  194.8570  169.6720  144.8680 C   0  0  0  0  0  3  0  0  0  0  0  0
  193.4610  168.1660  146.0320 O   0  0  0  0  0  0  0  0  0  0  0  0
  194.5680  168.7650  145.9890 C   0  0  0  0  0  0  0  0  0  0  0  0
  186.7180  177.2580  143.3200 C   0  0  0  0  0  2  0  0  0  0  0  0
  187.4990  177.2110  142.0780 N   0  0  0  0  0  0  0  0  0  0  0  0
  184.7520  177.9110  141.8800 C   0  0  0  0  0  2  0  0  0  0  0  0
  185.5020  178.1810  143.1870 C   0  0  1  0  0  3  0  0  0  0  0  0
  185.6620  177.9940  140.6440 C   0  0  0  0  0  2  0  0  0  0  0  0
  187.1490  178.1210  140.9850 C   0  0  0  0  0  2  0  0  0  0  0  0
  184.9580  178.4100  145.6780 C   0  0  0  0  0  0  0  0  0  0  0  0
  184.6150  178.0370  144.3390 N   0  0  0  0  0  2  0  0  0  0  0  0
  186.1060  178.8530  145.9500 O   0  0  0  0  0  0  0  0  0  0  0  0
  183.9480  178.2740  146.7590 C   0  0  0  0  0  1  0  0  0  0  0  0
  190.0690  178.0100  143.1200 O   0  0  0  0  0  0  0  0  0  0  0  0
  190.6400  178.2170  144.4050 C   0  0  0  0  0  2  0  0  0  0  0  0
  189.7880  177.5260  145.4530 C   0  0  0  0  0  1  0  0  0  0  0  0
  1  7  1  0  0  0  0
  2  1  2  0  0  0  0
  2  4  1  0  0  0  0
  3 11  1  0  0  0  0
  4  3  2  0  0  0  0
  5  9  2  0  0  0  0
  6  8  2  0  0  0  0
  6  2  1  0  0  0  0
  7 34  1  0  0  0  0
  7 11  2  0  0  0  0
  8  5  1  0  0  0  0
  9  4  1  0  0  0  0
 10  8  1  0  0  0  0
 11 43  1  0  0  0  0
 12 17  1  0  0  0  0
 13 18  1  1  0  0  0
 14 21  1  1  0  0  0
 14 20  1  0  0  0  0
 14 15  1  0  0  0  0
 15  9  1  6  0  0  0
 15 13  1  0  0  0  0
 16 24  1  6  0  0  0
 16 12  1  0  0  0  0
 18 17  1  0  0  0  0
 19 20  1  6  0  0  0
 19 13  1  0  0  0  0
 19 16  1  0  0  0  0
 21 22  1  6  0  0  0
 21 23  1  0  0  0  0
 24 29  1  0  0  0  0
 25 28  1  0  0  0  0
 26 28  1  0  0  0  0
 26 27  1  1  0  0  0
 29 30  2  0  0  0  0
 29 25  1  0  0  0  0
 30 32  1  0  0  0  0
 32 31  2  0  0  0  0
 32 26  1  0  0  0  0
 34 33  1  0  0  0  0
 35 36  1  0  0  0  0
 36 33  1  0  0  0  0
 36 40  1  1  0  0  0
 37 38  1  0  0  0  0
 37 35  1  0  0  0  0
 38 34  1  0  0  0  0
 39 41  2  0  0  0  0
 39 42  1  0  0  0  0
 40 39  1  0  0  0  0
 43 44  1  0  0  0  0
 44 45  1  0  0  0  0
M  END
>  <MODEL>
2

>  <REMARK>
 VINA RESULT:      -7.3      3.278      8.736
  Name = 
  8 active torsions:
  status: ('A' for Active; 'I' for Inactive)
    1  A    between atoms: N_3  and  C_15
    2  A    between atoms: C_9  and  O_25
    3  A    between atoms: C_16  and  C_20
    4  A    between atoms: C_18  and  C_21
    5  A    between atoms: C_22  and  C_30
    6  A    between atoms: C_24  and  N_31
    7  A    between atoms: O_25  and  C_44
    8  A    between atoms: C_30  and  C_34
                            x       y       z     vdW  Elec       q    Type
                         _______ _______ _______ _____ _____    ______ ____

>  <TORSDO>
F 8

$$$$
=
 OpenBabel11072408553D

 45 50  0  0  1  0  0  0  0  0999 V2000
  193.1860  174.1580  138.8710 C   0  0  0  0  0  3  0  0  0  0  0  0
  193.7570  174.5770  140.0710 C   0  0  0  0  0  0  0  0  0  0  0  0
  191.7120  173.9880  141.2230 C   0  0  0  0  0  3  0  0  0  0  0  0
  193.0160  174.5030  141.2650 C   0  0  0  0  0  0  0  0  0  0  0  0
  194.8900  175.3190  142.5570 N   0  0  0  0  0  0  0  0  0  0  0  0
  195.1410  175.1530  140.0290 C   0  0  0  0  0  3  0  0  0  0  0  0
  191.8820  173.6470  138.8150 C   0  0  0  0  0  0  0  0  0  0  0  0
  195.7270  175.3220  141.3970 C   0  0  0  0  0  0  0  0  0  0  0  0
  193.6360  174.9750  142.5380 C   0  0  0  0  0  0  0  0  0  0  0  0
  196.9780  175.6200  141.5150 N   0  0  0  0  0  1  0  0  0  0  0  0
  191.1320  173.5700  140.0120 C   0  0  0  0  0  0  0  0  0  0  0  0
  189.9770  177.6500  145.5300 C   0  0  0  0  0  2  0  0  0  0  0  0
  191.7960  176.0180  143.9450 C   0  0  2  0  0  3  0  0  0  0  0  0
  192.1880  173.7340  144.2100 C   0  0  2  0  0  3  0  0  0  0  0  0
  192.9100  175.0320  143.8550 C   0  0  1  0  0  3  0  0  0  0  0  0
  189.7360  176.1370  145.3680 C   0  0  2  0  0  3  0  0  0  0  0  0
  190.8810  178.2430  144.4310 C   0  0  0  0  0  2  0  0  0  0  0  0
  192.1820  177.4460  144.2680 C   0  0  0  0  0  2  0  0  0  0  0  0
  191.0790  175.4430  145.1270 C   0  0  1  0  0  3  0  0  0  0  0  0
  191.0300  174.0480  144.9670 O   0  0  0  0  0  0  0  0  0  0  0  0
  193.1010  172.7580  144.9560 C   0  0  1  0  0  3  0  0  0  0  0  0
  193.7670  171.7650  144.0140 C   0  0  0  0  0  1  0  0  0  0  0  0
  194.0780  173.4700  145.6560 O   0  0  0  0  0  1  0  0  0  0  0  0
  188.7030  175.8510  144.2790 C   0  0  0  0  0  2  0  0  0  0  0  0
  187.1460  177.7540  143.4720 C   0  0  0  0  0  2  0  0  0  0  0  0
  185.2240  178.4960  144.9050 C   0  0  2  0  0  3  0  0  0  0  0  0
  183.8370  178.6660  144.9320 O   0  0  0  0  0  1  0  0  0  0  0  0
  185.6530  178.0920  143.4970 C   0  0  0  0  0  2  0  0  0  0  0  0
  187.4880  176.6940  144.4830 C   0  0  0  0  0  0  0  0  0  0  0  0
  186.8070  176.5920  145.6260 C   0  0  0  0  0  3  0  0  0  0  0  0
  185.0640  177.3620  147.0200 O   0  0  0  0  0  0  0  0  0  0  0  0
  185.6480  177.4520  145.9070 C   0  0  0  0  0  0  0  0  0  0  0  0
  190.6460  174.2020  136.6980 C   0  0  0  0  0  2  0  0  0  0  0  0
  191.3460  173.2250  137.5410 N   0  0  0  0  0  0  0  0  0  0  0  0
  189.4050  172.2380  135.7160 C   0  0  0  0  0  2  0  0  0  0  0  0
  190.1150  173.5600  135.4120 C   0  0  1  0  0  3  0  0  0  0  0  0
  190.2830  171.2610  136.5140 C   0  0  0  0  0  2  0  0  0  0  0  0
  191.5900  171.8800  137.0150 C   0  0  0  0  0  2  0  0  0  0  0  0
  188.2310  175.2910  135.3330 C   0  0  0  0  0  0  0  0  0  0  0  0
  189.2280  174.4790  134.7030 N   0  0  0  0  0  2  0  0  0  0  0  0
  188.0250  175.2140  136.5740 O   0  0  0  0  0  0  0  0  0  0  0  0
  187.4290  176.2360  134.5130 C   0  0  0  0  0  1  0  0  0  0  0  0
  189.8070  173.1230  139.9810 O   0  0  0  0  0  0  0  0  0  0  0  0
  188.7180  173.8750  140.4960 C   0  0  0  0  0  2  0  0  0  0  0  0
  188.1670  173.1860  141.7300 C   0  0  0  0  0  1  0  0  0  0  0  0
  1  2  1  0  0  0  0
  2  4  1  0  0  0  0
  3  4  1  0  0  0  0
  4  9  2  0  0  0  0
  6  2  2  0  0  0  0
  6  8  1  0  0  0  0
  7  1  2  0  0  0  0
  7 11  1  0  0  0  0
  8 10  1  0  0  0  0
  8  5  2  0  0  0  0
  9  5  1  0  0  0  0
 11  3  2  0  0  0  0
 13 18  1  1  0  0  0
 13 19  1  0  0  0  0
 14 21  1  1  0  0  0
 14 20  1  0  0  0  0
 15  9  1  6  0  0  0
 15 13  1  0  0  0  0
 15 14  1  0  0  0  0
 16 24  1  6  0  0  0
 16 12  1  0  0  0  0
 17 12  1  0  0  0  0
 18 17  1  0  0  0  0
 19 20  1  6  0  0  0
 19 16  1  0  0  0  0
 21 22  1  6  0  0  0
 21 23  1  0  0  0  0
 24 29  1  0  0  0  0
 25 28  1  0  0  0  0
 25 29  1  0  0  0  0
 26 27  1  6  0  0  0
 26 32  1  0  0  0  0
 28 26  1  0  0  0  0
 29 30  2  0  0  0  0
 30 32  1  0  0  0  0
 32 31  2  0  0  0  0
 33 34  1  0  0  0  0
 34  7  1  0  0  0  0
 35 37  1  0  0  0  0
 36 40  1  1  0  0  0
 36 35  1  0  0  0  0
 36 33  1  0  0  0  0
 37 38  1  0  0  0  0
 38 34  1  0  0  0  0
 39 41  2  0  0  0  0
 40 39  1  0  0  0  0
 42 39  1  0  0  0  0
 43 11  1  0  0  0  0
 43 44  1  0  0  0  0
 44 45  1  0  0  0  0
M  END
>  <MODEL>
3

>  <REMARK>
 VINA RESULT:      -7.2      1.506      2.558
  Name = 
  8 active torsions:
  status: ('A' for Active; 'I' for Inactive)
    1  A    between atoms: N_3  and  C_15
    2  A    between atoms: C_9  and  O_25
    3  A    between atoms: C_16  and  C_20
    4  A    between atoms: C_18  and  C_21
    5  A    between atoms: C_22  and  C_30
    6  A    between atoms: C_24  and  N_31
    7  A    between atoms: O_25  and  C_44
    8  A    between atoms: C_30  and  C_34
                            x       y       z     vdW  Elec       q    Type
                         _______ _______ _______ _____ _____    ______ ____

>  <TORSDO>
F 8

$$$$
=
 OpenBabel11072408553D

 45 50  0  0  1  0  0  0  0  0999 V2000
  187.9940  174.9740  139.7520 C   0  0  0  0  0  3  0  0  0  0  0  0
  188.8110  173.9310  139.3210 C   0  0  0  0  0  0  0  0  0  0  0  0
  189.8040  173.8290  141.5260 C   0  0  0  0  0  3  0  0  0  0  0  0
  189.7370  173.3510  140.2080 C   0  0  0  0  0  0  0  0  0  0  0  0
  190.4310  171.7450  138.5400 N   0  0  0  0  0  0  0  0  0  0  0  0
  188.7080  173.5030  137.8880 C   0  0  0  0  0  3  0  0  0  0  0  0
  188.0570  175.4650  141.0640 C   0  0  0  0  0  0  0  0  0  0  0  0
  189.4410  172.2230  137.6240 C   0  0  0  0  0  0  0  0  0  0  0  0
  190.6170  172.2480  139.7240 C   0  0  0  0  0  0  0  0  0  0  0  0
  189.2820  171.6260  136.4900 N   0  0  0  0  0  1  0  0  0  0  0  0
  188.9840  174.8860  141.9610 C   0  0  0  0  0  0  0  0  0  0  0  0
  194.7890  173.1460  143.0840 C   0  0  0  0  0  2  0  0  0  0  0  0
  192.4480  172.5340  141.4610 C   0  0  2  0  0  3  0  0  0  0  0  0
  191.1910  170.5710  141.5370 C   0  0  2  0  0  3  0  0  0  0  0  0
  191.7050  171.6170  140.5510 C   0  0  1  0  0  3  0  0  0  0  0  0
  193.7180  172.1620  143.5900 C   0  0  2  0  0  3  0  0  0  0  0  0
  194.2730  174.0920  141.9800 C   0  0  0  0  0  2  0  0  0  0  0  0
  193.5840  173.3240  140.8450 C   0  0  0  0  0  2  0  0  0  0  0  0
  193.0320  171.5110  142.3860 C   0  0  1  0  0  3  0  0  0  0  0  0
  192.0280  170.5740  142.6840 O   0  0  0  0  0  0  0  0  0  0  0  0
  191.1100  169.1800  140.9040 C   0  0  1  0  0  3  0  0  0  0  0  0
  192.2930  168.8990  139.9880 C   0  0  0  0  0  1  0  0  0  0  0  0
  191.0500  168.2090  141.9060 O   0  0  0  0  0  1  0  0  0  0  0  0
  192.7420  172.8450  144.5470 C   0  0  0  0  0  2  0  0  0  0  0  0
  194.3520  174.3020  145.9540 C   0  0  0  0  0  2  0  0  0  0  0  0
  194.1810  176.8040  145.8680 C   0  0  2  0  0  3  0  0  0  0  0  0
  194.8910  177.9750  145.5900 O   0  0  0  0  0  1  0  0  0  0  0  0
  195.1310  175.6110  145.8020 C   0  0  0  0  0  2  0  0  0  0  0  0
  193.2530  174.1940  144.9330 C   0  0  0  0  0  0  0  0  0  0  0  0
  192.6300  175.2820  144.4780 C   0  0  0  0  0  3  0  0  0  0  0  0
  192.3990  177.6320  144.4790 O   0  0  0  0  0  0  0  0  0  0  0  0
  193.0460  176.6310  144.8900 C   0  0  0  0  0  0  0  0  0  0  0  0
  186.5920  176.5440  142.7990 C   0  0  0  0  0  2  0  0  0  0  0  0
  187.1810  176.5460  141.4530 N   0  0  0  0  0  0  0  0  0  0  0  0
  184.7200  177.9200  141.8160 C   0  0  0  0  0  2  0  0  0  0  0  0
  185.6630  177.7440  143.0090 C   0  0  1  0  0  3  0  0  0  0  0  0
  185.4670  178.0130  140.4760 C   0  0  0  0  0  2  0  0  0  0  0  0
  186.9630  177.7060  140.5850 C   0  0  0  0  0  2  0  0  0  0  0  0
  184.9300  178.5550  145.3240 C   0  0  0  0  0  0  0  0  0  0  0  0
  184.9110  177.6030  144.2540 N   0  0  0  0  0  2  0  0  0  0  0  0
  185.6640  179.5770  145.2650 O   0  0  0  0  0  0  0  0  0  0  0  0
  184.0740  178.3330  146.5180 C   0  0  0  0  0  1  0  0  0  0  0  0
  189.1150  175.3920  143.2580 O   0  0  0  0  0  0  0  0  0  0  0  0
  189.2990  174.5690  144.4010 C   0  0  0  0  0  2  0  0  0  0  0  0
  189.0840  175.3940  145.6560 C   0  0  0  0  0  1  0  0  0  0  0  0
  1  7  1  0  0  0  0
  2  1  2  0  0  0  0
  2  4  1  0  0  0  0
  3 11  1  0  0  0  0
  4  3  2  0  0  0  0
  5  9  2  0  0  0  0
  6  2  1  0  0  0  0
  7 34  1  0  0  0  0
  7 11  2  0  0  0  0
  8  6  2  0  0  0  0
  8  5  1  0  0  0  0
  9  4  1  0  0  0  0
 10  8  1  0  0  0  0
 11 43  1  0  0  0  0
 12 16  1  0  0  0  0
 13 18  1  6  0  0  0
 13 19  1  0  0  0  0
 14 21  1  6  0  0  0
 14 20  1  0  0  0  0
 15  9  1  1  0  0  0
 15 13  1  0  0  0  0
 15 14  1  0  0  0  0
 16 24  1  6  0  0  0
 17 12  1  0  0  0  0
 18 17  1  0  0  0  0
 19 20  1  1  0  0  0
 19 16  1  0  0  0  0
 21 22  1  1  0  0  0
 21 23  1  0  0  0  0
 24 29  1  0  0  0  0
 26 27  1  6  0  0  0
 28 26  1  0  0  0  0
 28 25  1  0  0  0  0
 29 25  1  0  0  0  0
 30 32  1  0  0  0  0
 30 29  2  0  0  0  0
 31 32  2  0  0  0  0
 32 26  1  0  0  0  0
 33 36  1  0  0  0  0
 34 33  1  0  0  0  0
 35 36  1  0  0  0  0
 36 40  1  1  0  0  0
 37 38  1  0  0  0  0
 37 35  1  0  0  0  0
 38 34  1  0  0  0  0
 39 42  1  0  0  0  0
 40 39  1  0  0  0  0
 41 39  2  0  0  0  0
 43 44  1  0  0  0  0
 44 45  1  0  0  0  0
M  END
>  <MODEL>
4

>  <REMARK>
 VINA RESULT:      -7.2      2.786      7.714
  Name = 
  8 active torsions:
  status: ('A' for Active; 'I' for Inactive)
    1  A    between atoms: N_3  and  C_15
    2  A    between atoms: C_9  and  O_25
    3  A    between atoms: C_16  and  C_20
    4  A    between atoms: C_18  and  C_21
    5  A    between atoms: C_22  and  C_30
    6  A    between atoms: C_24  and  N_31
    7  A    between atoms: O_25  and  C_44
    8  A    between atoms: C_30  and  C_34
                            x       y       z     vdW  Elec       q    Type
                         _______ _______ _______ _____ _____    ______ ____

>  <TORSDO>
F 8

$$$$
=
 OpenBabel11072408553D

 45 50  0  0  1  0  0  0  0  0999 V2000
  194.6270  174.3980  141.2900 C   0  0  0  0  0  3  0  0  0  0  0  0
  194.2110  174.5400  142.6120 C   0  0  0  0  0  0  0  0  0  0  0  0
  191.9300  174.1350  141.9150 C   0  0  0  0  0  3  0  0  0  0  0  0
  192.8470  174.4180  142.9370 C   0  0  0  0  0  0  0  0  0  0  0  0
  193.3130  174.7190  145.2910 N   0  0  0  0  0  0  0  0  0  0  0  0
  195.2460  174.8800  143.6420 C   0  0  0  0  0  3  0  0  0  0  0  0
  193.7180  174.1220  140.2580 C   0  0  0  0  0  0  0  0  0  0  0  0
  194.7210  174.7510  145.0390 C   0  0  0  0  0  0  0  0  0  0  0  0
  192.4180  174.5920  144.3560 C   0  0  0  0  0  0  0  0  0  0  0  0
  195.5440  174.8190  146.0320 N   0  0  0  0  0  1  0  0  0  0  0  0
  192.3460  173.9980  140.5780 C   0  0  0  0  0  0  0  0  0  0  0  0
  188.4600  177.3820  146.8150 C   0  0  0  0  0  2  0  0  0  0  0  0
  190.4390  175.8750  145.2990 C   0  0  2  0  0  3  0  0  0  0  0  0
  189.9960  174.2470  143.6880 C   0  0  2  0  0  3  0  0  0  0  0  0
  190.9820  174.5780  144.8060 C   0  0  1  0  0  3  0  0  0  0  0  0
  188.1170  176.8130  145.4260 C   0  0  2  0  0  3  0  0  0  0  0  0
  189.9770  177.5240  147.0570 C   0  0  0  0  0  2  0  0  0  0  0  0
  190.7300  176.2250  146.7430 C   0  0  0  0  0  2  0  0  0  0  0  0
  188.9780  175.5720  145.1720 C   0  0  1  0  0  3  0  0  0  0  0  0
  188.7760  174.9260  143.9400 O   0  0  0  0  0  0  0  0  0  0  0  0
  189.7820  172.7390  143.5430 C   0  0  1  0  0  3  0  0  0  0  0  0
  189.6900  172.0420  144.8920 C   0  0  0  0  0  1  0  0  0  0  0  0
  188.6190  172.4980  142.8090 O   0  0  0  0  0  1  0  0  0  0  0  0
  188.2540  177.8770  144.3380 C   0  0  0  0  0  2  0  0  0  0  0  0
  185.6690  177.8630  144.2140 C   0  0  0  0  0  2  0  0  0  0  0  0
  184.5180  177.9130  141.9850 C   0  0  2  0  0  3  0  0  0  0  0  0
  183.6000  178.6210  141.2050 O   0  0  0  0  0  1  0  0  0  0  0  0
  184.5650  178.5230  143.3830 C   0  0  0  0  0  2  0  0  0  0  0  0
  187.0030  177.9510  143.5250 C   0  0  0  0  0  0  0  0  0  0  0  0
  187.0890  177.9480  142.1940 C   0  0  0  0  0  3  0  0  0  0  0  0
  186.0080  177.8880  140.0960 O   0  0  0  0  0  0  0  0  0  0  0  0
  185.8850  177.9430  141.3490 C   0  0  0  0  0  0  0  0  0  0  0  0
  194.4650  175.1870  138.1070 C   0  0  0  0  0  2  0  0  0  0  0  0
  194.2100  173.9820  138.9060 N   0  0  0  0  0  0  0  0  0  0  0  0
  194.0620  173.7420  136.0790 C   0  0  0  0  0  2  0  0  0  0  0  0
  194.9390  174.8360  136.6940 C   0  0  1  0  0  3  0  0  0  0  0  0
  193.9600  172.4920  136.9670 C   0  0  0  0  0  2  0  0  0  0  0  0
  194.5770  172.6750  138.3560 C   0  0  0  0  0  2  0  0  0  0  0  0
  196.1560  176.7060  135.4370 C   0  0  0  0  0  0  0  0  0  0  0  0
  194.9630  176.0260  135.8460 N   0  0  0  0  0  2  0  0  0  0  0  0
  197.2860  176.3270  135.8440 O   0  0  0  0  0  0  0  0  0  0  0  0
  196.0570  177.8720  134.5220 C   0  0  0  0  0  1  0  0  0  0  0  0
  191.4060  173.7840  139.5650 O   0  0  0  0  0  0  0  0  0  0  0  0
  190.3730  172.8130  139.6520 C   0  0  0  0  0  2  0  0  0  0  0  0
  190.8980  171.4740  139.1710 C   0  0  0  0  0  1  0  0  0  0  0  0
  1  2  1  0  0  0  0
  2  4  2  0  0  0  0
  2  6  1  0  0  0  0
  3  4  1  0  0  0  0
  4  9  1  0  0  0  0
  6  8  2  0  0  0  0
  7 11  1  0  0  0  0
  7  1  2  0  0  0  0
  8  5  1  0  0  0  0
  8 10  1  0  0  0  0
  9  5  2  0  0  0  0
 11  3  2  0  0  0  0
 12 17  1  0  0  0  0
 13 18  1  1  0  0  0
 14 21  1  1  0  0  0
 14 20  1  0  0  0  0
 14 15  1  0  0  0  0
 15  9  1  6  0  0  0
 15 13  1  0  0  0  0
 16 24  1  6  0  0  0
 16 12  1  0  0  0  0
 18 17  1  0  0  0  0
 19 20  1  6  0  0  0
 19 13  1  0  0  0  0
 19 16  1  0  0  0  0
 21 22  1  1  0  0  0
 23 21  1  0  0  0  0
 26 27  1  6  0  0  0
 26 28  1  0  0  0  0
 28 25  1  0  0  0  0
 29 25  1  0  0  0  0
 29 24  1  0  0  0  0
 30 29  2  0  0  0  0
 31 32  2  0  0  0  0
 32 26  1  0  0  0  0
 32 30  1  0  0  0  0
 33 34  1  0  0  0  0
 34  7  1  0  0  0  0
 35 36  1  0  0  0  0
 35 37  1  0  0  0  0
 36 40  1  6  0  0  0
 36 33  1  0  0  0  0
 37 38  1  0  0  0  0
 38 34  1  0  0  0  0
 39 41  2  0  0  0  0
 39 40  1  0  0  0  0
 42 39  1  0  0  0  0
 43 44  1  0  0  0  0
 43 11  1  0  0  0  0
 45 44  1  0  0  0  0
M  END
>  <MODEL>
5

>  <REMARK>
 VINA RESULT:      -7.1      2.802      4.339
  Name = 
  8 active torsions:
  status: ('A' for Active; 'I' for Inactive)
    1  A    between atoms: N_3  and  C_15
    2  A    between atoms: C_9  and  O_25
    3  A    between atoms: C_16  and  C_20
    4  A    between atoms: C_18  and  C_21
    5  A    between atoms: C_22  and  C_30
    6  A    between atoms: C_24  and  N_31
    7  A    between atoms: O_25  and  C_44
    8  A    between atoms: C_30  and  C_34
                            x       y       z     vdW  Elec       q    Type
                         _______ _______ _______ _____ _____    ______ ____

>  <TORSDO>
F 8

$$$$
=
 OpenBabel11072408553D

 45 50  0  0  1  0  0  0  0  0999 V2000
  187.9060  174.8240  140.2180 C   0  0  0  0  0  3  0  0  0  0  0  0
  188.8450  173.8180  139.9990 C   0  0  0  0  0  0  0  0  0  0  0  0
  190.1920  174.7130  141.7980 C   0  0  0  0  0  3  0  0  0  0  0  0
  190.0090  173.7580  140.7870 C   0  0  0  0  0  0  0  0  0  0  0  0
  190.7420  171.7430  139.6710 N   0  0  0  0  0  0  0  0  0  0  0  0
  188.5970  172.8580  138.8740 C   0  0  0  0  0  3  0  0  0  0  0  0
  188.0820  175.7880  141.2220 C   0  0  0  0  0  0  0  0  0  0  0  0
  189.5330  171.6890  138.9090 C   0  0  0  0  0  0  0  0  0  0  0  0
  191.0120  172.6850  140.5250 C   0  0  0  0  0  0  0  0  0  0  0  0
  189.3170  170.6840  138.1270 N   0  0  0  0  0  1  0  0  0  0  0  0
  189.2500  175.7340  142.0170 C   0  0  0  0  0  0  0  0  0  0  0  0
  196.0320  174.7050  140.9910 C   0  0  0  0  0  2  0  0  0  0  0  0
  193.3070  173.6770  140.9770 C   0  0  2  0  0  3  0  0  0  0  0  0
  192.2130  172.6430  142.7580 C   0  0  2  0  0  3  0  0  0  0  0  0
  192.3340  172.5790  141.2380 C   0  0  1  0  0  3  0  0  0  0  0  0
  195.2240  174.6050  142.2990 C   0  0  2  0  0  3  0  0  0  0  0  0
  195.1470  174.7160  139.7280 C   0  0  0  0  0  2  0  0  0  0  0  0
  194.1450  173.5540  139.7220 C   0  0  0  0  0  2  0  0  0  0  0  0
  194.1990  173.4760  142.1630 C   0  0  1  0  0  3  0  0  0  0  0  0
  193.3830  173.2500  143.2840 O   0  0  0  0  0  0  0  0  0  0  0  0
  191.9710  171.2620  143.3710 C   0  0  1  0  0  3  0  0  0  0  0  0
  192.5270  170.1450  142.4990 C   0  0  0  0  0  1  0  0  0  0  0  0
  192.5530  171.2010  144.6390 O   0  0  0  0  0  1  0  0  0  0  0  0
  194.6000  175.9480  142.6720 C   0  0  0  0  0  2  0  0  0  0  0  0
  194.9580  175.7380  145.2270 C   0  0  0  0  0  2  0  0  0  0  0  0
  192.9800  175.5920  146.7640 C   0  0  2  0  0  3  0  0  0  0  0  0
  192.3590  176.1910  147.8630 O   0  0  0  0  0  1  0  0  0  0  0  0
  194.3230  176.2720  146.5130 C   0  0  0  0  0  2  0  0  0  0  0  0
  194.0310  175.8900  144.0520 C   0  0  0  0  0  0  0  0  0  0  0  0
  192.7080  175.8270  144.2100 C   0  0  0  0  0  3  0  0  0  0  0  0
  190.8500  175.5830  145.6460 O   0  0  0  0  0  0  0  0  0  0  0  0
  192.1010  175.6910  145.5420 C   0  0  0  0  0  0  0  0  0  0  0  0
  186.4200  176.9430  142.7130 C   0  0  0  0  0  2  0  0  0  0  0  0
  187.0720  176.8050  141.4040 N   0  0  0  0  0  0  0  0  0  0  0  0
  184.4570  177.9170  141.4630 C   0  0  0  0  0  2  0  0  0  0  0  0
  185.3530  178.0420  142.6980 C   0  0  1  0  0  3  0  0  0  0  0  0
  185.2560  177.8880  140.1500 C   0  0  0  0  0  2  0  0  0  0  0  0
  186.7690  177.7810  140.3550 C   0  0  0  0  0  2  0  0  0  0  0  0
  184.8840  178.7280  145.1200 C   0  0  0  0  0  0  0  0  0  0  0  0
  184.5590  178.0080  143.9250 N   0  0  0  0  0  2  0  0  0  0  0  0
  185.9380  179.4150  145.1930 O   0  0  0  0  0  0  0  0  0  0  0  0
  183.9660  178.6650  146.2860 C   0  0  0  0  0  1  0  0  0  0  0  0
  189.4850  176.7160  142.9850 O   0  0  0  0  0  0  0  0  0  0  0  0
  190.1950  177.9170  142.7200 C   0  0  0  0  0  2  0  0  0  0  0  0
  190.4720  178.6380  144.0260 C   0  0  0  0  0  1  0  0  0  0  0  0
  1  7  1  0  0  0  0
  2  1  2  0  0  0  0
  2  4  1  0  0  0  0
  3 11  1  0  0  0  0
  4  3  2  0  0  0  0
  5  9  2  0  0  0  0
  6  8  2  0  0  0  0
  6  2  1  0  0  0  0
  7 34  1  0  0  0  0
  7 11  2  0  0  0  0
  8  5  1  0  0  0  0
  9  4  1  0  0  0  0
 10  8  1  0  0  0  0
 11 43  1  0  0  0  0
 12 16  1  0  0  0  0
 13 18  1  6  0  0  0
 13 15  1  0  0  0  0
 13 19  1  0  0  0  0
 14 20  1  0  0  0  0
 14 21  1  1  0  0  0
 15  9  1  6  0  0  0
 15 14  1  0  0  0  0
 16 24  1  6  0  0  0
 17 12  1  0  0  0  0
 18 17  1  0  0  0  0
 19 16  1  0  0  0  0
 19 20  1  1  0  0  0
 21 22  1  6  0  0  0
 21 23  1  0  0  0  0
 24 29  1  0  0  0  0
 25 28  1  0  0  0  0
 26 27  1  1  0  0  0
 28 26  1  0  0  0  0
 29 30  2  0  0  0  0
 29 25  1  0  0  0  0
 30 32  1  0  0  0  0
 32 31  2  0  0  0  0
 32 26  1  0  0  0  0
 34 33  1  0  0  0  0
 35 36  1  0  0  0  0
 36 33  1  0  0  0  0
 36 40  1  1  0  0  0
 37 38  1  0  0  0  0
 37 35  1  0  0  0  0
 38 34  1  0  0  0  0
 39 41  2  0  0  0  0
 39 42  1  0  0  0  0
 40 39  1  0  0  0  0
 44 43  1  0  0  0  0
 44 45  1  0  0  0  0
M  END
>  <MODEL>
6

>  <REMARK>
 VINA RESULT:      -7.1      2.901      7.447
  Name = 
  8 active torsions:
  status: ('A' for Active; 'I' for Inactive)
    1  A    between atoms: N_3  and  C_15
    2  A    between atoms: C_9  and  O_25
    3  A    between atoms: C_16  and  C_20
    4  A    between atoms: C_18  and  C_21
    5  A    between atoms: C_22  and  C_30
    6  A    between atoms: C_24  and  N_31
    7  A    between atoms: O_25  and  C_44
    8  A    between atoms: C_30  and  C_34
                            x       y       z     vdW  Elec       q    Type
                         _______ _______ _______ _____ _____    ______ ____

>  <TORSDO>
F 8

$$$$
=
 OpenBabel11072408553D

 45 50  0  0  1  0  0  0  0  0999 V2000
  190.6710  176.9210  143.5630 C   0  0  0  0  0  3  0  0  0  0  0  0
  191.9250  176.3210  143.6570 C   0  0  0  0  0  0  0  0  0  0  0  0
  191.2110  174.6340  142.0760 C   0  0  0  0  0  3  0  0  0  0  0  0
  192.2050  175.1590  142.9150 C   0  0  0  0  0  0  0  0  0  0  0  0
  194.4830  175.1100  143.7250 N   0  0  0  0  0  0  0  0  0  0  0  0
  192.9220  176.9190  144.6050 C   0  0  0  0  0  3  0  0  0  0  0  0
  189.6670  176.4020  142.7330 C   0  0  0  0  0  0  0  0  0  0  0  0
  194.2930  176.3450  144.4220 C   0  0  0  0  0  0  0  0  0  0  0  0
  193.5470  174.5180  143.0430 C   0  0  0  0  0  0  0  0  0  0  0  0
  195.2930  176.8960  145.0260 N   0  0  0  0  0  1  0  0  0  0  0  0
  189.9420  175.2340  141.9850 C   0  0  0  0  0  0  0  0  0  0  0  0
  192.7740  169.1440  142.9060 C   0  0  0  0  0  2  0  0  0  0  0  0
  193.1140  172.0330  142.7470 C   0  0  2  0  0  3  0  0  0  0  0  0
  193.7480  173.2470  140.8590 C   0  0  2  0  0  3  0  0  0  0  0  0
  193.9270  173.2250  142.3750 C   0  0  1  0  0  3  0  0  0  0  0  0
  192.6010  169.8830  141.5650 C   0  0  2  0  0  3  0  0  0  0  0  0
  192.6240  170.0670  144.1330 C   0  0  0  0  0  2  0  0  0  0  0  0
  193.5090  171.3160  144.0210 C   0  0  0  0  0  2  0  0  0  0  0  0
  193.4540  171.1530  141.5850 C   0  0  1  0  0  3  0  0  0  0  0  0
  193.4110  171.9390  140.4200 O   0  0  0  0  0  0  0  0  0  0  0  0
  194.9920  173.7770  140.1440 C   0  0  1  0  0  3  0  0  0  0  0  0
  194.8560  175.2480  139.7750 C   0  0  0  0  0  1  0  0  0  0  0  0
  196.1140  173.5990  140.9560 O   0  0  0  0  0  1  0  0  0  0  0  0
  191.1270  170.1480  141.2620 C   0  0  0  0  0  2  0  0  0  0  0  0
  191.5640  169.3740  138.8320 C   0  0  0  0  0  2  0  0  0  0  0  0
  190.7200  170.7450  136.9070 C   0  0  2  0  0  3  0  0  0  0  0  0
  189.9190  170.7090  135.7620 O   0  0  0  0  0  1  0  0  0  0  0  0
  190.8170  169.3400  137.4960 C   0  0  0  0  0  2  0  0  0  0  0  0
  190.9250  170.3370  139.7950 C   0  0  0  0  0  0  0  0  0  0  0  0
  190.3060  171.4350  139.3570 C   0  0  0  0  0  3  0  0  0  0  0  0
  189.6050  172.7780  137.5460 O   0  0  0  0  0  0  0  0  0  0  0  0
  190.1490  171.7050  137.9200 C   0  0  0  0  0  0  0  0  0  0  0  0
  187.5220  177.0670  143.8610 C   0  0  0  0  0  2  0  0  0  0  0  0
  188.3870  177.0710  142.6750 N   0  0  0  0  0  0  0  0  0  0  0  0
  185.5880  177.3350  142.2630 C   0  0  0  0  0  2  0  0  0  0  0  0
  186.1960  177.7870  143.5940 C   0  0  1  0  0  3  0  0  0  0  0  0
  186.5610  177.4870  141.0830 C   0  0  0  0  0  2  0  0  0  0  0  0
  187.9850  177.8560  141.5060 C   0  0  0  0  0  2  0  0  0  0  0  0
  185.0850  178.4730  145.7960 C   0  0  0  0  0  0  0  0  0  0  0  0
  185.2600  177.5730  144.6950 N   0  0  0  0  0  2  0  0  0  0  0  0
  185.7910  179.5120  145.8990 O   0  0  0  0  0  0  0  0  0  0  0  0
  184.0570  178.1790  146.8270 C   0  0  0  0  0  1  0  0  0  0  0  0
  188.9430  174.6560  141.1950 O   0  0  0  0  0  0  0  0  0  0  0  0
  187.9100  173.8360  141.7220 C   0  0  0  0  0  2  0  0  0  0  0  0
  188.5220  172.6090  142.3710 C   0  0  0  0  0  1  0  0  0  0  0  0
  1  2  1  0  0  0  0
  2  6  1  0  0  0  0
  3  4  1  0  0  0  0
  4  9  1  0  0  0  0
  4  2  2  0  0  0  0
  5  8  1  0  0  0  0
  7  1  2  0  0  0  0
  8  6  2  0  0  0  0
  8 10  1  0  0  0  0
  9  5  2  0  0  0  0
 11  3  2  0  0  0  0
 11  7  1  0  0  0  0
 12 17  1  0  0  0  0
 13 18  1  1  0  0  0
 14 21  1  6  0  0  0
 14 15  1  0  0  0  0
 15 13  1  0  0  0  0
 15  9  1  1  0  0  0
 16 24  1  1  0  0  0
 16 19  1  0  0  0  0
 16 12  1  0  0  0  0
 18 17  1  0  0  0  0
 19 20  1  6  0  0  0
 19 13  1  0  0  0  0
 20 14  1  0  0  0  0
 21 22  1  1  0  0  0
 21 23  1  0  0  0  0
 25 29  1  0  0  0  0
 26 27  1  6  0  0  0
 26 28  1  0  0  0  0
 26 32  1  0  0  0  0
 28 25  1  0  0  0  0
 29 24  1  0  0  0  0
 30 29  2  0  0  0  0
 31 32  2  0  0  0  0
 32 30  1  0  0  0  0
 34  7  1  0  0  0  0
 34 33  1  0  0  0  0
 35 36  1  0  0  0  0
 36 33  1  0  0  0  0
 36 40  1  1  0  0  0
 37 38  1  0  0  0  0
 37 35  1  0  0  0  0
 38 34  1  0  0  0  0
 39 41  2  0  0  0  0
 39 42  1  0  0  0  0
 40 39  1  0  0  0  0
 43 44  1  0  0  0  0
 43 11  1  0  0  0  0
 44 45  1  0  0  0  0
M  END
>  <MODEL>
7

>  <REMARK>
 VINA RESULT:      -7.1      2.827      8.163
  Name = 
  8 active torsions:
  status: ('A' for Active; 'I' for Inactive)
    1  A    between atoms: N_3  and  C_15
    2  A    between atoms: C_9  and  O_25
    3  A    between atoms: C_16  and  C_20
    4  A    between atoms: C_18  and  C_21
    5  A    between atoms: C_22  and  C_30
    6  A    between atoms: C_24  and  N_31
    7  A    between atoms: O_25  and  C_44
    8  A    between atoms: C_30  and  C_34
                            x       y       z     vdW  Elec       q    Type
                         _______ _______ _______ _____ _____    ______ ____

>  <TORSDO>
F 8

$$$$
=
 OpenBabel11072408553D

 45 50  0  0  1  0  0  0  0  0999 V2000
  185.1970  177.3520  143.7640 C   0  0  0  0  0  3  0  0  0  0  0  0
  186.3370  176.8440  144.3820 C   0  0  0  0  0  0  0  0  0  0  0  0
  187.4380  176.7580  142.2290 C   0  0  0  0  0  3  0  0  0  0  0  0
  187.4730  176.5310  143.6130 C   0  0  0  0  0  0  0  0  0  0  0  0
  188.7190  175.9000  145.5860 N   0  0  0  0  0  0  0  0  0  0  0  0
  186.2840  176.5930  145.8590 C   0  0  0  0  0  3  0  0  0  0  0  0
  185.1470  177.5770  142.3810 C   0  0  0  0  0  0  0  0  0  0  0  0
  187.6360  176.2950  146.4330 C   0  0  0  0  0  0  0  0  0  0  0  0
  188.6790  175.9680  144.2880 C   0  0  0  0  0  0  0  0  0  0  0  0
  187.7810  176.2520  147.7160 N   0  0  0  0  0  1  0  0  0  0  0  0
  186.2850  177.2650  141.6020 C   0  0  0  0  0  0  0  0  0  0  0  0
  194.1080  176.0650  144.1570 C   0  0  0  0  0  2  0  0  0  0  0  0
  191.2110  175.7700  144.2430 C   0  0  2  0  0  3  0  0  0  0  0  0
  189.9770  173.9970  143.3630 C   0  0  2  0  0  3  0  0  0  0  0  0
  189.9130  175.5100  143.5590 C   0  0  1  0  0  3  0  0  0  0  0  0
  193.4590  174.6690  144.1090 C   0  0  2  0  0  3  0  0  0  0  0  0
  193.1800  177.1480  144.7450 C   0  0  0  0  0  2  0  0  0  0  0  0
  191.8030  177.1520  144.0660 C   0  0  0  0  0  2  0  0  0  0  0  0
  192.0620  174.7920  143.4950 C   0  0  1  0  0  3  0  0  0  0  0  0
  191.3380  173.5930  143.3730 O   0  0  0  0  0  0  0  0  0  0  0  0
  189.2690  173.5570  142.0790 C   0  0  1  0  0  3  0  0  0  0  0  0
  190.2420  173.3810  140.9220 C   0  0  0  0  0  1  0  0  0  0  0  0
  188.5860  172.3600  142.3050 O   0  0  0  0  0  1  0  0  0  0  0  0
  193.4590  174.0080  145.4860 C   0  0  0  0  0  2  0  0  0  0  0  0
  195.9440  173.2860  145.4560 C   0  0  0  0  0  2  0  0  0  0  0  0
  196.5440  170.8490  145.4670 C   0  0  2  0  0  3  0  0  0  0  0  0
  197.2570  169.8670  146.1590 O   0  0  0  0  0  1  0  0  0  0  0  0
  196.8260  172.2110  146.0970 C   0  0  0  0  0  2  0  0  0  0  0  0
  194.4860  172.9250  145.5420 C   0  0  0  0  0  0  0  0  0  0  0  0
  194.0930  171.6500  145.5210 C   0  0  0  0  0  3  0  0  0  0  0  0
  194.6560  169.3600  145.4250 O   0  0  0  0  0  0  0  0  0  0  0  0
  195.0660  170.5490  145.4970 C   0  0  0  0  0  0  0  0  0  0  0  0
  182.8820  178.6250  142.6800 C   0  0  0  0  0  2  0  0  0  0  0  0
  183.9370  178.1110  141.7980 N   0  0  0  0  0  0  0  0  0  0  0  0
  181.2700  178.0800  140.8180 C   0  0  0  0  0  2  0  0  0  0  0  0
  181.6660  179.1060  141.8830 C   0  0  1  0  0  3  0  0  0  0  0  0
  182.4380  177.7030  139.8930 C   0  0  0  0  0  2  0  0  0  0  0  0
  183.7870  178.2640  140.3490 C   0  0  0  0  0  2  0  0  0  0  0  0
  179.3680  178.5830  142.8860 C   0  0  0  0  0  0  0  0  0  0  0  0
  180.5440  179.3940  142.7750 N   0  0  0  0  0  2  0  0  0  0  0  0
  179.2140  177.5680  142.1550 O   0  0  0  0  0  0  0  0  0  0  0  0
  178.3200  178.9440  143.8740 C   0  0  0  0  0  1  0  0  0  0  0  0
  186.2480  177.4190  140.2120 O   0  0  0  0  0  0  0  0  0  0  0  0
  187.0380  176.6460  139.3200 C   0  0  0  0  0  2  0  0  0  0  0  0
  186.3080  176.4980  137.9990 C   0  0  0  0  0  1  0  0  0  0  0  0
  1  2  1  0  0  0  0
  2  6  1  0  0  0  0
  3  4  1  0  0  0  0
  4  9  1  0  0  0  0
  4  2  2  0  0  0  0
  5  8  1  0  0  0  0
  6  8  2  0  0  0  0
  7  1  2  0  0  0  0
  8 10  1  0  0  0  0
  9  5  2  0  0  0  0
 11  3  2  0  0  0  0
 11  7  1  0  0  0  0
 12 17  1  0  0  0  0
 13 18  1  6  0  0  0
 14 21  1  6  0  0  0
 14 20  1  0  0  0  0
 14 15  1  0  0  0  0
 15 13  1  0  0  0  0
 15  9  1  1  0  0  0
 16 12  1  0  0  0  0
 16 24  1  1  0  0  0
 18 17  1  0  0  0  0
 19 20  1  1  0  0  0
 19 16  1  0  0  0  0
 19 13  1  0  0  0  0
 21 22  1  6  0  0  0
 21 23  1  0  0  0  0
 24 29  1  0  0  0  0
 25 29  1  0  0  0  0
 25 28  1  0  0  0  0
 26 32  1  0  0  0  0
 26 28  1  0  0  0  0
 26 27  1  1  0  0  0
 30 29  2  0  0  0  0
 31 32  2  0  0  0  0
 32 30  1  0  0  0  0
 34  7  1  0  0  0  0
 34 33  1  0  0  0  0
 35 36  1  0  0  0  0
 36 33  1  0  0  0  0
 36 40  1  1  0  0  0
 37 38  1  0  0  0  0
 37 35  1  0  0  0  0
 38 34  1  0  0  0  0
 39 42  1  0  0  0  0
 40 39  1  0  0  0  0
 41 39  2  0  0  0  0
 43 11  1  0  0  0  0
 44 43  1  0  0  0  0
 45 44  1  0  0  0  0
M  END
>  <MODEL>
8

>  <REMARK>
 VINA RESULT:      -7.0      4.149      9.357
  Name = 
  8 active torsions:
  status: ('A' for Active; 'I' for Inactive)
    1  A    between atoms: N_3  and  C_15
    2  A    between atoms: C_9  and  O_25
    3  A    between atoms: C_16  and  C_20
    4  A    between atoms: C_18  and  C_21
    5  A    between atoms: C_22  and  C_30
    6  A    between atoms: C_24  and  N_31
    7  A    between atoms: O_25  and  C_44
    8  A    between atoms: C_30  and  C_34
                            x       y       z     vdW  Elec       q    Type
                         _______ _______ _______ _____ _____    ______ ____

>  <TORSDO>
F 8

$$$$
=
 OpenBabel11072408553D

 45 50  0  0  1  0  0  0  0  0999 V2000
  189.8050  176.8200  145.6900 C   0  0  0  0  0  3  0  0  0  0  0  0
  191.1300  176.4150  145.5470 C   0  0  0  0  0  0  0  0  0  0  0  0
  190.5140  175.1760  143.5620 C   0  0  0  0  0  3  0  0  0  0  0  0
  191.4970  175.5760  144.4790 C   0  0  0  0  0  0  0  0  0  0  0  0
  193.8210  175.6350  145.1440 N   0  0  0  0  0  0  0  0  0  0  0  0
  192.1150  176.8510  146.5900 C   0  0  0  0  0  3  0  0  0  0  0  0
  188.8120  176.4230  144.7830 C   0  0  0  0  0  0  0  0  0  0  0  0
  193.5300  176.5690  146.1880 C   0  0  0  0  0  0  0  0  0  0  0  0
  192.9180  175.1350  144.3540 C   0  0  0  0  0  0  0  0  0  0  0  0
  194.4960  177.0620  146.8880 N   0  0  0  0  0  1  0  0  0  0  0  0
  189.1740  175.5790  143.7070 C   0  0  0  0  0  0  0  0  0  0  0  0
  192.5510  170.0770  142.4090 C   0  0  0  0  0  2  0  0  0  0  0  0
  192.6770  172.8690  143.2310 C   0  0  2  0  0  3  0  0  0  0  0  0
  193.2580  174.6810  141.8820 C   0  0  2  0  0  3  0  0  0  0  0  0
  193.4070  174.1660  143.3120 C   0  0  1  0  0  3  0  0  0  0  0  0
  192.3510  171.2080  141.3820 C   0  0  2  0  0  3  0  0  0  0  0  0
  192.3080  170.5260  143.8640 C   0  0  0  0  0  2  0  0  0  0  0  0
  193.0980  171.7940  144.2120 C   0  0  0  0  0  2  0  0  0  0  0  0
  193.1070  172.4510  141.8590 C   0  0  1  0  0  3  0  0  0  0  0  0
  193.0290  173.5760  141.0210 O   0  0  0  0  0  0  0  0  0  0  0  0
  194.4730  175.4980  141.4400 C   0  0  1  0  0  3  0  0  0  0  0  0
  195.7690  174.9610  142.0310 C   0  0  0  0  0  1  0  0  0  0  0  0
  194.5580  175.4990  140.0460 O   0  0  0  0  0  1  0  0  0  0  0  0
  190.8680  171.4660  141.1190 C   0  0  0  0  0  2  0  0  0  0  0  0
  190.6850  170.0620  138.9520 C   0  0  0  0  0  2  0  0  0  0  0  0
  190.2010  171.1890  136.7630 C   0  0  2  0  0  3  0  0  0  0  0  0
  189.3170  171.2210  135.6820 O   0  0  0  0  0  1  0  0  0  0  0  0
  189.8280  170.0310  137.6850 C   0  0  0  0  0  2  0  0  0  0  0  0
  190.5790  171.3870  139.6560 C   0  0  0  0  0  0  0  0  0  0  0  0
  190.3750  172.5130  138.9700 C   0  0  0  0  0  3  0  0  0  0  0  0
  190.0260  173.5850  136.8950 O   0  0  0  0  0  0  0  0  0  0  0  0
  190.1630  172.4960  137.5150 C   0  0  0  0  0  0  0  0  0  0  0  0
  186.5690  177.0230  143.8180 C   0  0  0  0  0  2  0  0  0  0  0  0
  187.4550  176.8790  144.9810 N   0  0  0  0  0  0  0  0  0  0  0  0
  185.3240  178.7490  145.1720 C   0  0  0  0  0  2  0  0  0  0  0  0
  185.1910  177.5560  144.2220 C   0  0  1  0  0  3  0  0  0  0  0  0
  186.1910  178.4360  146.4020 C   0  0  0  0  0  2  0  0  0  0  0  0
  186.9030  177.0840  146.3220 C   0  0  0  0  0  2  0  0  0  0  0  0
  184.9710  178.2670  141.7720 C   0  0  0  0  0  0  0  0  0  0  0  0
  184.4080  177.9120  143.0410 N   0  0  0  0  0  2  0  0  0  0  0  0
  186.2190  178.3410  141.6190 O   0  0  0  0  0  0  0  0  0  0  0  0
  184.0710  178.5510  140.6250 C   0  0  0  0  0  1  0  0  0  0  0  0
  188.1970  175.1150  142.8210 O   0  0  0  0  0  0  0  0  0  0  0  0
  188.4900  174.2950  141.6980 C   0  0  0  0  0  2  0  0  0  0  0  0
  187.7660  172.9690  141.8390 C   0  0  0  0  0  1  0  0  0  0  0  0
  2  1  1  0  0  0  0
  2  6  1  0  0  0  0
  3 11  2  0  0  0  0
  3  4  1  0  0  0  0
  4  2  2  0  0  0  0
  5  8  1  0  0  0  0
  7 34  1  0  0  0  0
  7  1  2  0  0  0  0
  8  6  2  0  0  0  0
  8 10  1  0  0  0  0
  9  4  1  0  0  0  0
  9  5  2  0  0  0  0
 11  7  1  0  0  0  0
 12 17  1  0  0  0  0
 13 15  1  0  0  0  0
 13 18  1  1  0  0  0
 14 21  1  6  0  0  0
 14 15  1  0  0  0  0
 15  9  1  1  0  0  0
 16 24  1  1  0  0  0
 16 19  1  0  0  0  0
 16 12  1  0  0  0  0
 17 18  1  0  0  0  0
 19 20  1  6  0  0  0
 19 13  1  0  0  0  0
 20 14  1  0  0  0  0
 21 22  1  1  0  0  0
 23 21  1  0  0  0  0
 25 29  1  0  0  0  0
 26 27  1  6  0  0  0
 26 32  1  0  0  0  0
 26 28  1  0  0  0  0
 28 25  1  0  0  0  0
 29 24  1  0  0  0  0
 30 29  2  0  0  0  0
 31 32  2  0  0  0  0
 32 30  1  0  0  0  0
 33 36  1  0  0  0  0
 33 34  1  0  0  0  0
 34 38  1  0  0  0  0
 35 37  1  0  0  0  0
 36 40  1  6  0  0  0
 36 35  1  0  0  0  0
 38 37  1  0  0  0  0
 39 40  1  0  0  0  0
 41 39  2  0  0  0  0
 42 39  1  0  0  0  0
 43 11  1  0  0  0  0
 44 45  1  0  0  0  0
 44 43  1  0  0  0  0
M  END
>  <MODEL>
9

>  <REMARK>
 VINA RESULT:      -7.0      2.988      8.104
  Name = 
  8 active torsions:
  status: ('A' for Active; 'I' for Inactive)
    1  A    between atoms: N_3  and  C_15
    2  A    between atoms: C_9  and  O_25
    3  A    between atoms: C_16  and  C_20
    4  A    between atoms: C_18  and  C_21
    5  A    between atoms: C_22  and  C_30
    6  A    between atoms: C_24  and  N_31
    7  A    between atoms: O_25  and  C_44
    8  A    between atoms: C_30  and  C_34
                            x       y       z     vdW  Elec       q    Type
                         _______ _______ _______ _____ _____    ______ ____

>  <TORSDO>
F 8

$$$$
