=
 OpenBabel11072408503D

 26 30  0  0  1  0  0  0  0  0999 V2000
  189.9860  176.5870  146.0860 N   0  0  0  0  0  0  0  0  0  0  0  0
  186.7770  177.0360  141.0060 N   0  0  0  0  0  1  0  0  0  0  0  0
  186.4210  177.0500  145.4240 C   0  0  2  0  0  0  0  0  0  0  0  0
  188.6940  175.8860  141.6160 O   0  0  0  0  0  0  0  0  0  0  0  0
  188.6800  176.6190  146.6150 N   0  0  0  0  0  2  0  0  0  0  0  0
  189.7900  176.5380  144.6240 C   0  0  1  0  0  3  0  0  0  0  0  0
  185.2390  179.3020  145.8490 C   0  0  0  0  0  2  0  0  0  0  0  0
  186.1990  177.2560  143.9310 C   0  0  1  0  0  3  0  0  0  0  0  0
  184.7710  179.1130  144.4730 N   0  0  0  0  0  2  0  0  0  0  0  0
  188.3120  176.3510  144.4360 C   0  0  1  0  0  3  0  0  0  0  0  0
  185.2580  176.7830  146.3460 C   0  0  0  0  0  2  0  0  0  0  0  0
  187.7010  176.5680  141.9820 C   0  0  0  0  0  0  0  0  0  0  0  0
  186.0270  178.1100  146.4420 C   0  0  1  0  0  3  0  0  0  0  0  0
  185.9010  178.7170  143.6450 C   0  0  0  0  0  2  0  0  0  0  0  0
  187.7330  176.3960  145.5950 C   0  0  2  0  0  3  0  0  0  0  0  0
  187.4910  176.8520  143.3720 N   0  0  0  0  0  0  0  0  0  0  0  0
  191.6200  177.7990  143.7380 O   0  0  0  0  0  1  0  0  0  0  0  0
  190.2600  177.8610  144.0350 C   0  0  0  0  0  2  0  0  0  0  0  0
  190.5870  175.3190  146.4800 C   0  0  0  0  0  2  0  0  0  0  0  0
  194.1900  176.4650  146.6700 C   0  0  0  0  0  3  0  0  0  0  0  0
  194.8470  175.4720  145.9400 C   0  0  0  0  0  3  0  0  0  0  0  0
  194.1180  174.4220  145.3750 C   0  0  0  0  0  3  0  0  0  0  0  0
  192.0660  175.3610  146.2700 C   0  0  0  0  0  0  0  0  0  0  0  0
  192.7310  174.3590  145.5370 C   0  0  0  0  0  0  0  0  0  0  0  0
  192.8030  176.4090  146.8350 C   0  0  0  0  0  3  0  0  0  0  0  0
  191.8570  173.0220  144.8040 Cl  0  0  0  0  0  0  0  0  0  0  0  0
  1 19  1  0  0  0  0
  1  5  1  0  0  0  0
  2 12  1  0  0  0  0
  3 15  1  0  0  0  0
  3 11  1  1  0  0  0
  3 13  1  0  0  0  0
  4 12  2  0  0  0  0
  6 18  1  6  0  0  0
  6  1  1  0  0  0  0
  8 14  1  1  0  0  0
  8  3  1  0  0  0  0
  9  7  1  0  0  0  0
 10 16  1  6  0  0  0
 10  6  1  0  0  0  0
 10 15  1  0  0  0  0
 11 13  1  0  0  0  0
 12 16  1  0  0  0  0
 13  7  1  6  0  0  0
 14  9  1  0  0  0  0
 15  5  1  1  0  0  0
 16  8  1  0  0  0  0
 17 18  1  0  0  0  0
 20 25  1  0  0  0  0
 21 20  2  0  0  0  0
 22 24  2  0  0  0  0
 22 21  1  0  0  0  0
 23 19  1  0  0  0  0
 23 25  2  0  0  0  0
 24 23  1  0  0  0  0
 26 24  1  0  0  0  0
M  END
>  <MODEL>
1

>  <REMARK>
 VINA RESULT:      -7.8      0.000      0.000
  Name = 
  3 active torsions:
  status: ('A' for Active; 'I' for Inactive)
    1  A    between atoms: N_2  and  C_25
    2  A    between atoms: C_9  and  C_23
    3  A    between atoms: C_18  and  C_25
                            x       y       z     vdW  Elec       q    Type
                         _______ _______ _______ _____ _____    ______ ____

>  <TORSDO>
F 3

$$$$
=
 OpenBabel11072408503D

 26 30  0  0  1  0  0  0  0  0999 V2000
  189.9430  176.6550  145.0160 N   0  0  0  0  0  0  0  0  0  0  0  0
  185.9390  177.3970  140.5760 N   0  0  0  0  0  1  0  0  0  0  0  0
  186.3290  177.2010  144.9860 C   0  0  2  0  0  0  0  0  0  0  0  0
  187.9040  176.1900  140.8000 O   0  0  0  0  0  0  0  0  0  0  0  0
  188.7450  176.6800  145.7590 N   0  0  0  0  0  2  0  0  0  0  0  0
  189.5040  176.6800  143.6080 C   0  0  1  0  0  3  0  0  0  0  0  0
  185.2860  179.4460  145.7060 C   0  0  0  0  0  2  0  0  0  0  0  0
  185.8640  177.4830  143.5630 C   0  0  1  0  0  3  0  0  0  0  0  0
  184.5890  179.3310  144.4220 N   0  0  0  0  0  2  0  0  0  0  0  0
  188.0110  176.5240  143.6630 C   0  0  1  0  0  3  0  0  0  0  0  0
  185.3310  176.9060  146.0780 C   0  0  0  0  0  2  0  0  0  0  0  0
  187.0020  176.8680  141.3600 C   0  0  0  0  0  0  0  0  0  0  0  0
  186.1350  178.2150  146.1040 C   0  0  1  0  0  3  0  0  0  0  0  0
  185.5550  178.9600  143.3980 C   0  0  0  0  0  2  0  0  0  0  0  0
  187.6360  176.5200  144.9040 C   0  0  2  0  0  3  0  0  0  0  0  0
  187.0350  177.0880  142.7760 N   0  0  0  0  0  0  0  0  0  0  0  0
  191.1400  178.4220  143.4970 O   0  0  0  0  0  1  0  0  0  0  0  0
  189.8980  178.0230  143.0080 C   0  0  0  0  0  2  0  0  0  0  0  0
  190.5730  175.3610  145.2450 C   0  0  0  0  0  2  0  0  0  0  0  0
  194.2860  175.3640  144.5050 C   0  0  0  0  0  3  0  0  0  0  0  0
  194.8170  175.8540  145.7000 C   0  0  0  0  0  3  0  0  0  0  0  0
  193.9680  176.1830  146.7600 C   0  0  0  0  0  3  0  0  0  0  0  0
  192.0470  175.5280  145.4270 C   0  0  0  0  0  0  0  0  0  0  0  0
  192.5840  176.0250  146.6310 C   0  0  0  0  0  0  0  0  0  0  0  0
  192.9040  175.2020  144.3690 C   0  0  0  0  0  3  0  0  0  0  0  0
  191.5570  176.4470  147.9930 Cl  0  0  0  0  0  0  0  0  0  0  0  0
  1 19  1  0  0  0  0
  1  5  1  0  0  0  0
  2 12  1  0  0  0  0
  3 11  1  1  0  0  0
  3 13  1  0  0  0  0
  4 12  2  0  0  0  0
  6 18  1  1  0  0  0
  6 10  1  0  0  0  0
  6  1  1  0  0  0  0
  8 14  1  1  0  0  0
  8  3  1  0  0  0  0
  9  7  1  0  0  0  0
 10 16  1  6  0  0  0
 10 15  1  0  0  0  0
 11 13  1  0  0  0  0
 12 16  1  0  0  0  0
 13  7  1  6  0  0  0
 14  9  1  0  0  0  0
 15  3  1  0  0  0  0
 15  5  1  1  0  0  0
 16  8  1  0  0  0  0
 18 17  1  0  0  0  0
 19 23  1  0  0  0  0
 20 21  1  0  0  0  0
 21 22  2  0  0  0  0
 23 24  2  0  0  0  0
 24 22  1  0  0  0  0
 24 26  1  0  0  0  0
 25 20  2  0  0  0  0
 25 23  1  0  0  0  0
M  END
>  <MODEL>
2

>  <REMARK>
 VINA RESULT:      -7.6      1.238      1.496
  Name = 
  3 active torsions:
  status: ('A' for Active; 'I' for Inactive)
    1  A    between atoms: N_2  and  C_25
    2  A    between atoms: C_9  and  C_23
    3  A    between atoms: C_18  and  C_25
                            x       y       z     vdW  Elec       q    Type
                         _______ _______ _______ _____ _____    ______ ____

>  <TORSDO>
F 3

$$$$
=
 OpenBabel11072408503D

 26 30  0  0  1  0  0  0  0  0999 V2000
  189.3470  176.6780  145.6870 N   0  0  0  0  0  0  0  0  0  0  0  0
  191.7060  171.3410  144.1870 N   0  0  0  0  0  1  0  0  0  0  0  0
  192.6710  175.6500  144.5700 C   0  0  2  0  0  0  0  0  0  0  0  0
  189.6020  172.2920  144.0010 O   0  0  0  0  0  0  0  0  0  0  0  0
  190.6220  177.0820  145.2430 N   0  0  0  0  0  2  0  0  0  0  0  0
  189.2950  175.2330  145.3920 C   0  0  1  0  0  3  0  0  0  0  0  0
  194.6900  175.5960  146.1730 C   0  0  0  0  0  2  0  0  0  0  0  0
  192.7400  174.1300  144.4910 C   0  0  1  0  0  3  0  0  0  0  0  0
  194.8430  174.2360  145.6500 N   0  0  0  0  0  2  0  0  0  0  0  0
  190.5370  174.9540  144.5960 C   0  0  1  0  0  3  0  0  0  0  0  0
  193.7560  176.5020  143.9600 C   0  0  0  0  0  2  0  0  0  0  0  0
  190.8240  172.4560  144.2560 C   0  0  0  0  0  0  0  0  0  0  0  0
  193.5920  176.4430  145.4860 C   0  0  1  0  0  3  0  0  0  0  0  0
  193.5420  173.5830  145.6580 C   0  0  0  0  0  2  0  0  0  0  0  0
  191.2470  176.0370  144.5350 C   0  0  2  0  0  3  0  0  0  0  0  0
  191.3270  173.7560  144.5890 N   0  0  0  0  0  0  0  0  0  0  0  0
  190.0770  175.1530  147.6520 O   0  0  0  0  0  1  0  0  0  0  0  0
  189.3020  174.4760  146.7130 C   0  0  0  0  0  2  0  0  0  0  0  0
  188.3590  177.3250  144.8310 C   0  0  0  0  0  2  0  0  0  0  0  0
  186.0720  177.8880  147.7940 C   0  0  0  0  0  3  0  0  0  0  0  0
  185.0350  178.6270  147.2210 C   0  0  0  0  0  3  0  0  0  0  0  0
  185.0710  178.9440  145.8610 C   0  0  0  0  0  3  0  0  0  0  0  0
  187.1880  177.7770  145.6430 C   0  0  0  0  0  0  0  0  0  0  0  0
  186.1430  178.5250  145.0670 C   0  0  0  0  0  0  0  0  0  0  0  0
  187.1460  177.4650  147.0070 C   0  0  0  0  0  3  0  0  0  0  0  0
  186.1420  178.9430  143.3600 Cl  0  0  0  0  0  0  0  0  0  0  0  0
  2 12  1  0  0  0  0
  3 11  1  6  0  0  0
  3 13  1  0  0  0  0
  4 12  2  0  0  0  0
  5  1  1  0  0  0  0
  6  1  1  0  0  0  0
  6 18  1  1  0  0  0
  8  3  1  0  0  0  0
  8 16  1  0  0  0  0
  8 14  1  1  0  0  0
  9 14  1  0  0  0  0
  9  7  1  0  0  0  0
 10 16  1  1  0  0  0
 10  6  1  0  0  0  0
 12 16  1  0  0  0  0
 13 11  1  6  0  0  0
 13  7  1  0  0  0  0
 15  3  1  0  0  0  0
 15 10  1  0  0  0  0
 15  5  1  1  0  0  0
 18 17  1  0  0  0  0
 19 23  1  0  0  0  0
 19  1  1  0  0  0  0
 21 20  1  0  0  0  0
 22 21  2  0  0  0  0
 23 25  1  0  0  0  0
 24 23  2  0  0  0  0
 24 22  1  0  0  0  0
 25 20  2  0  0  0  0
 26 24  1  0  0  0  0
M  END
>  <MODEL>
3

>  <REMARK>
 VINA RESULT:      -7.3      2.998      6.948
  Name = 
  3 active torsions:
  status: ('A' for Active; 'I' for Inactive)
    1  A    between atoms: N_2  and  C_25
    2  A    between atoms: C_9  and  C_23
    3  A    between atoms: C_18  and  C_25
                            x       y       z     vdW  Elec       q    Type
                         _______ _______ _______ _____ _____    ______ ____

>  <TORSDO>
F 3

$$$$
=
 OpenBabel11072408503D

 26 30  0  0  1  0  0  0  0  0999 V2000
  188.6210  176.9760  144.3120 N   0  0  0  0  0  0  0  0  0  0  0  0
  194.4280  175.4000  143.9970 N   0  0  0  0  0  1  0  0  0  0  0  0
  190.3240  173.7430  144.2350 C   0  0  2  0  0  0  0  0  0  0  0  0
  193.2800  177.1750  144.9450 O   0  0  0  0  0  0  0  0  0  0  0  0
  188.5110  175.5790  144.4570 N   0  0  0  0  0  2  0  0  0  0  0  0
  190.0740  177.2330  144.3130 C   0  0  1  0  0  3  0  0  0  0  0  0
  190.2520  172.2160  142.1590 C   0  0  0  0  0  2  0  0  0  0  0  0
  191.8120  173.9520  143.9850 C   0  0  1  0  0  3  0  0  0  0  0  0
  191.7070  172.2070  142.3350 N   0  0  0  0  0  2  0  0  0  0  0  0
  190.7020  175.9140  144.6620 C   0  0  1  0  0  3  0  0  0  0  0  0
  189.7990  172.4010  144.6800 C   0  0  0  0  0  2  0  0  0  0  0  0
  193.2230  176.0410  144.4000 C   0  0  0  0  0  0  0  0  0  0  0  0
  189.4610  172.9340  143.2780 C   0  0  1  0  0  3  0  0  0  0  0  0
  192.1590  173.5730  142.5570 C   0  0  0  0  0  2  0  0  0  0  0  0
  189.7710  175.0150  144.7400 C   0  0  2  0  0  3  0  0  0  0  0  0
  191.9590  175.3920  144.2090 N   0  0  0  0  0  0  0  0  0  0  0  0
  189.3480  177.9580  142.1520 O   0  0  0  0  0  1  0  0  0  0  0  0
  190.4800  177.6880  142.9180 C   0  0  0  0  0  2  0  0  0  0  0  0
  188.0770  177.5870  145.5190 C   0  0  0  0  0  2  0  0  0  0  0  0
  185.1010  179.1300  143.7620 C   0  0  0  0  0  3  0  0  0  0  0  0
  184.0990  179.0040  144.7270 C   0  0  0  0  0  3  0  0  0  0  0  0
  184.3890  178.4190  145.9620 C   0  0  0  0  0  3  0  0  0  0  0  0
  186.6910  178.0840  145.2680 C   0  0  0  0  0  0  0  0  0  0  0  0
  185.6790  177.9550  146.2390 C   0  0  0  0  0  0  0  0  0  0  0  0
  186.3930  178.6700  144.0310 C   0  0  0  0  0  3  0  0  0  0  0  0
  185.9960  177.2310  147.8080 Cl  0  0  0  0  0  0  0  0  0  0  0  0
  1  6  1  0  0  0  0
  1  5  1  0  0  0  0
  1 19  1  0  0  0  0
  2 12  1  0  0  0  0
  3 11  1  1  0  0  0
  3 15  1  0  0  0  0
  6 18  1  6  0  0  0
  6 10  1  0  0  0  0
  7  9  1  0  0  0  0
  8 14  1  6  0  0  0
  8 16  1  0  0  0  0
  8  3  1  0  0  0  0
  9 14  1  0  0  0  0
 10 16  1  6  0  0  0
 10 15  1  0  0  0  0
 12  4  2  0  0  0  0
 13  7  1  6  0  0  0
 13  3  1  0  0  0  0
 13 11  1  0  0  0  0
 15  5  1  6  0  0  0
 16 12  1  0  0  0  0
 17 18  1  0  0  0  0
 20 25  2  0  0  0  0
 20 21  1  0  0  0  0
 21 22  2  0  0  0  0
 22 24  1  0  0  0  0
 23 19  1  0  0  0  0
 23 24  2  0  0  0  0
 24 26  1  0  0  0  0
 25 23  1  0  0  0  0
M  END
>  <MODEL>
4

>  <REMARK>
 VINA RESULT:      -7.2      3.007      6.739
  Name = 
  3 active torsions:
  status: ('A' for Active; 'I' for Inactive)
    1  A    between atoms: N_2  and  C_25
    2  A    between atoms: C_9  and  C_23
    3  A    between atoms: C_18  and  C_25
                            x       y       z     vdW  Elec       q    Type
                         _______ _______ _______ _____ _____    ______ ____

>  <TORSDO>
F 3

$$$$
=
 OpenBabel11072408503D

 26 30  0  0  1  0  0  0  0  0999 V2000
  187.0360  177.3800  143.0000 N   0  0  0  0  0  0  0  0  0  0  0  0
  192.9170  176.7550  144.1550 N   0  0  0  0  0  1  0  0  0  0  0  0
  188.9390  176.9860  146.0950 C   0  0  2  0  0  0  0  0  0  0  0  0
  191.6930  177.8800  142.5400 O   0  0  0  0  0  0  0  0  0  0  0  0
  187.0210  177.4140  144.4090 N   0  0  0  0  0  2  0  0  0  0  0  0
  188.4690  177.3560  142.6470 C   0  0  1  0  0  3  0  0  0  0  0  0
  188.8890  174.7960  147.4540 C   0  0  0  0  0  2  0  0  0  0  0  0
  190.4000  176.7070  145.7680 C   0  0  1  0  0  3  0  0  0  0  0  0
  190.3460  174.9250  147.3800 N   0  0  0  0  0  2  0  0  0  0  0  0
  189.1920  177.5760  143.9450 C   0  0  1  0  0  3  0  0  0  0  0  0
  188.5170  177.3360  147.5010 C   0  0  0  0  0  2  0  0  0  0  0  0
  191.6890  177.2470  143.6290 C   0  0  0  0  0  0  0  0  0  0  0  0
  188.0950  175.9940  146.8820 C   0  0  1  0  0  3  0  0  0  0  0  0
  190.7180  175.2420  146.0090 C   0  0  0  0  0  2  0  0  0  0  0  0
  188.3250  177.6100  144.9070 C   0  0  2  0  0  3  0  0  0  0  0  0
  190.4630  177.0430  144.3440 N   0  0  0  0  0  0  0  0  0  0  0  0
  187.6180  175.2920  141.7860 O   0  0  0  0  0  1  0  0  0  0  0  0
  188.7930  175.9910  142.0570 C   0  0  0  0  0  2  0  0  0  0  0  0
  186.4990  178.6490  142.5250 C   0  0  0  0  0  2  0  0  0  0  0  0
  183.7650  177.8910  140.0190 C   0  0  0  0  0  3  0  0  0  0  0  0
  182.6140  178.0270  140.7980 C   0  0  0  0  0  3  0  0  0  0  0  0
  182.7210  178.3730  142.1470 C   0  0  0  0  0  3  0  0  0  0  0  0
  185.1380  178.4490  141.9400 C   0  0  0  0  0  0  0  0  0  0  0  0
  183.9770  178.5830  142.7250 C   0  0  0  0  0  0  0  0  0  0  0  0
  185.0240  178.1000  140.5890 C   0  0  0  0  0  3  0  0  0  0  0  0
  184.0600  179.0210  144.4250 Cl  0  0  0  0  0  0  0  0  0  0  0  0
  1  5  1  0  0  0  0
  3 13  1  0  0  0  0
  3 11  1  1  0  0  0
  4 12  2  0  0  0  0
  6 18  1  1  0  0  0
  6  1  1  0  0  0  0
  6 10  1  0  0  0  0
  8 14  1  6  0  0  0
  8  3  1  0  0  0  0
  9  7  1  0  0  0  0
 10 16  1  1  0  0  0
 10 15  1  0  0  0  0
 12  2  1  0  0  0  0
 12 16  1  0  0  0  0
 13  7  1  1  0  0  0
 13 11  1  0  0  0  0
 14  9  1  0  0  0  0
 15  5  1  6  0  0  0
 15  3  1  0  0  0  0
 16  8  1  0  0  0  0
 17 18  1  0  0  0  0
 19  1  1  0  0  0  0
 20 25  2  0  0  0  0
 20 21  1  0  0  0  0
 21 22  2  0  0  0  0
 22 24  1  0  0  0  0
 23 19  1  0  0  0  0
 23 24  2  0  0  0  0
 24 26  1  0  0  0  0
 25 23  1  0  0  0  0
M  END
>  <MODEL>
5

>  <REMARK>
 VINA RESULT:      -6.9      2.951      6.969
  Name = 
  3 active torsions:
  status: ('A' for Active; 'I' for Inactive)
    1  A    between atoms: N_2  and  C_25
    2  A    between atoms: C_9  and  C_23
    3  A    between atoms: C_18  and  C_25
                            x       y       z     vdW  Elec       q    Type
                         _______ _______ _______ _____ _____    ______ ____

>  <TORSDO>
F 3

$$$$
=
 OpenBabel11072408503D

 26 30  0  0  1  0  0  0  0  0999 V2000
  189.8510  176.4740  145.1630 N   0  0  0  0  0  0  0  0  0  0  0  0
  193.5730  173.6450  141.3620 N   0  0  0  0  0  1  0  0  0  0  0  0
  193.4890  176.4190  144.8170 C   0  0  2  0  0  0  0  0  0  0  0  0
  191.4350  174.5190  141.1860 O   0  0  0  0  0  0  0  0  0  0  0  0
  191.0840  177.0340  145.5540 N   0  0  0  0  0  2  0  0  0  0  0  0
  190.1780  175.6520  143.9820 C   0  0  1  0  0  3  0  0  0  0  0  0
  194.9990  175.1950  146.5110 C   0  0  0  0  0  2  0  0  0  0  0  0
  193.8910  175.3890  143.7700 C   0  0  1  0  0  3  0  0  0  0  0  0
  195.5600  174.5870  145.3020 N   0  0  0  0  0  2  0  0  0  0  0  0
  191.6120  175.9720  143.6700 C   0  0  1  0  0  3  0  0  0  0  0  0
  194.4910  177.4210  145.3360 C   0  0  0  0  0  2  0  0  0  0  0  0
  192.4900  174.4200  141.8650 C   0  0  0  0  0  0  0  0  0  0  0  0
  193.9600  176.3140  146.2600 C   0  0  1  0  0  3  0  0  0  0  0  0
  194.4650  174.1560  144.4450 C   0  0  0  0  0  2  0  0  0  0  0  0
  192.0730  176.7650  144.5870 C   0  0  2  0  0  3  0  0  0  0  0  0
  192.6090  175.0980  143.1220 N   0  0  0  0  0  0  0  0  0  0  0  0
  189.6620  174.0730  145.7030 O   0  0  0  0  0  1  0  0  0  0  0  0
  190.0070  174.1870  144.3580 C   0  0  0  0  0  2  0  0  0  0  0  0
  189.0020  177.5660  144.7020 C   0  0  0  0  0  2  0  0  0  0  0  0
  186.2460  176.7920  147.1790 C   0  0  0  0  0  3  0  0  0  0  0  0
  185.1120  177.2400  146.4980 C   0  0  0  0  0  3  0  0  0  0  0  0
  185.2370  177.7950  145.2210 C   0  0  0  0  0  3  0  0  0  0  0  0
  187.6390  177.4500  145.3040 C   0  0  0  0  0  0  0  0  0  0  0  0
  186.4950  177.9050  144.6200 C   0  0  0  0  0  0  0  0  0  0  0  0
  187.5060  176.8980  146.5840 C   0  0  0  0  0  3  0  0  0  0  0  0
  186.6010  178.6040  143.0110 Cl  0  0  0  0  0  0  0  0  0  0  0  0
  1  5  1  0  0  0  0
  2 12  1  0  0  0  0
  3 11  1  6  0  0  0
  3 13  1  0  0  0  0
  4 12  2  0  0  0  0
  6 18  1  1  0  0  0
  6  1  1  0  0  0  0
  8 14  1  1  0  0  0
  8  3  1  0  0  0  0
  9  7  1  0  0  0  0
 10 16  1  1  0  0  0
 10  6  1  0  0  0  0
 10 15  1  0  0  0  0
 12 16  1  0  0  0  0
 13 11  1  6  0  0  0
 13  7  1  0  0  0  0
 14  9  1  0  0  0  0
 15  3  1  0  0  0  0
 15  5  1  1  0  0  0
 16  8  1  0  0  0  0
 18 17  1  0  0  0  0
 19  1  1  0  0  0  0
 19 23  1  0  0  0  0
 21 20  2  0  0  0  0
 22 21  1  0  0  0  0
 23 25  2  0  0  0  0
 24 22  2  0  0  0  0
 24 23  1  0  0  0  0
 25 20  1  0  0  0  0
 26 24  1  0  0  0  0
M  END
>  <MODEL>
6

>  <REMARK>
 VINA RESULT:      -6.8      3.060      6.911
  Name = 
  3 active torsions:
  status: ('A' for Active; 'I' for Inactive)
    1  A    between atoms: N_2  and  C_25
    2  A    between atoms: C_9  and  C_23
    3  A    between atoms: C_18  and  C_25
                            x       y       z     vdW  Elec       q    Type
                         _______ _______ _______ _____ _____    ______ ____

>  <TORSDO>
F 3

$$$$
=
 OpenBabel11072408503D

 26 30  0  0  1  0  0  0  0  0999 V2000
  189.1120  176.6650  143.3770 N   0  0  0  0  0  0  0  0  0  0  0  0
  194.2230  176.0750  146.5130 N   0  0  0  0  0  1  0  0  0  0  0  0
  192.0320  174.5000  142.9970 C   0  0  2  0  0  0  0  0  0  0  0  0
  192.0400  176.6220  147.0620 O   0  0  0  0  0  0  0  0  0  0  0  0
  189.6850  175.5580  142.7190 N   0  0  0  0  0  2  0  0  0  0  0  0
  190.0170  176.9280  144.5130 C   0  0  1  0  0  3  0  0  0  0  0  0
  193.7490  174.8510  141.1070 C   0  0  0  0  0  2  0  0  0  0  0  0
  193.1060  174.9050  143.9990 C   0  0  1  0  0  3  0  0  0  0  0  0
  194.7100  174.8010  142.2120 N   0  0  0  0  0  2  0  0  0  0  0  0
  190.9810  175.7760  144.5160 C   0  0  1  0  0  3  0  0  0  0  0  0
  192.1380  173.2020  142.2370 C   0  0  0  0  0  2  0  0  0  0  0  0
  192.8410  176.1870  146.1930 C   0  0  0  0  0  0  0  0  0  0  0  0
  192.2850  174.5410  141.4970 C   0  0  1  0  0  3  0  0  0  0  0  0
  194.2250  175.6480  143.2920 C   0  0  0  0  0  2  0  0  0  0  0  0
  190.7420  175.0270  143.4850 C   0  0  2  0  0  3  0  0  0  0  0  0
  192.3630  175.7870  144.9020 N   0  0  0  0  0  0  0  0  0  0  0  0
  191.3000  178.2500  142.9860 O   0  0  0  0  0  1  0  0  0  0  0  0
  190.7320  178.2480  144.2590 C   0  0  0  0  0  2  0  0  0  0  0  0
  187.8380  176.2310  143.9380 C   0  0  0  0  0  2  0  0  0  0  0  0
  185.8130  179.4010  143.5130 C   0  0  0  0  0  3  0  0  0  0  0  0
  185.3620  179.6310  144.8140 C   0  0  0  0  0  3  0  0  0  0  0  0
  185.7200  178.7560  145.8430 C   0  0  0  0  0  3  0  0  0  0  0  0
  186.9860  177.4140  144.2650 C   0  0  0  0  0  0  0  0  0  0  0  0
  186.5290  177.6460  145.5770 C   0  0  0  0  0  0  0  0  0  0  0  0
  186.6220  178.2950  143.2390 C   0  0  0  0  0  3  0  0  0  0  0  0
  186.9560  176.5770  146.9040 Cl  0  0  0  0  0  0  0  0  0  0  0  0
  1 19  1  0  0  0  0
  1  6  1  0  0  0  0
  3 11  1  1  0  0  0
  3 15  1  0  0  0  0
  3  8  1  0  0  0  0
  5  1  1  0  0  0  0
  6 18  1  6  0  0  0
  6 10  1  0  0  0  0
  7  9  1  0  0  0  0
  8 14  1  6  0  0  0
  8 16  1  0  0  0  0
  9 14  1  0  0  0  0
 10 16  1  6  0  0  0
 12  2  1  0  0  0  0
 12  4  2  0  0  0  0
 13  7  1  1  0  0  0
 13 11  1  0  0  0  0
 13  3  1  0  0  0  0
 15  5  1  6  0  0  0
 15 10  1  0  0  0  0
 16 12  1  0  0  0  0
 17 18  1  0  0  0  0
 19 23  1  0  0  0  0
 20 21  1  0  0  0  0
 21 22  2  0  0  0  0
 23 24  2  0  0  0  0
 24 22  1  0  0  0  0
 24 26  1  0  0  0  0
 25 20  2  0  0  0  0
 25 23  1  0  0  0  0
M  END
>  <MODEL>
7

>  <REMARK>
 VINA RESULT:      -6.6      2.817      7.062
  Name = 
  3 active torsions:
  status: ('A' for Active; 'I' for Inactive)
    1  A    between atoms: N_2  and  C_25
    2  A    between atoms: C_9  and  C_23
    3  A    between atoms: C_18  and  C_25
                            x       y       z     vdW  Elec       q    Type
                         _______ _______ _______ _____ _____    ______ ____

>  <TORSDO>
F 3

$$$$
=
 OpenBabel11072408503D

 26 30  0  0  1  0  0  0  0  0999 V2000
  191.8950  175.6180  143.6980 N   0  0  0  0  0  0  0  0  0  0  0  0
  187.5030  177.7810  147.2110 N   0  0  0  0  0  1  0  0  0  0  0  0
  188.8290  177.4790  142.9930 C   0  0  2  0  0  0  0  0  0  0  0  0
  189.7820  177.4630  147.4780 O   0  0  0  0  0  0  0  0  0  0  0  0
  191.1320  176.3200  142.7440 N   0  0  0  0  0  2  0  0  0  0  0  0
  191.2580  175.9420  144.9900 C   0  0  1  0  0  3  0  0  0  0  0  0
  186.7880  176.3670  141.8780 C   0  0  0  0  0  2  0  0  0  0  0  0
  188.0090  177.6220  144.2690 C   0  0  1  0  0  3  0  0  0  0  0  0
  186.0710  176.9560  143.0120 N   0  0  0  0  0  2  0  0  0  0  0  0
  190.2450  177.0030  144.6680 C   0  0  1  0  0  3  0  0  0  0  0  0
  188.4890  178.2860  141.7650 C   0  0  0  0  0  2  0  0  0  0  0  0
  188.7950  177.4810  146.6960 C   0  0  0  0  0  0  0  0  0  0  0  0
  188.2790  176.7640  141.7670 C   0  0  1  0  0  3  0  0  0  0  0  0
  186.8180  176.6810  144.2310 C   0  0  0  0  0  2  0  0  0  0  0  0
  190.2210  177.1840  143.3850 C   0  0  2  0  0  3  0  0  0  0  0  0
  188.9740  177.2250  145.2970 N   0  0  0  0  0  0  0  0  0  0  0  0
  191.0520  173.5640  144.8310 O   0  0  0  0  0  1  0  0  0  0  0  0
  190.5900  174.6820  145.5220 C   0  0  0  0  0  2  0  0  0  0  0  0
  193.2260  176.2110  143.7170 C   0  0  0  0  0  2  0  0  0  0  0  0
  195.4620  173.1880  144.1540 C   0  0  0  0  0  3  0  0  0  0  0  0
  196.0690  173.4530  145.3830 C   0  0  0  0  0  3  0  0  0  0  0  0
  195.7490  174.6190  146.0830 C   0  0  0  0  0  3  0  0  0  0  0  0
  194.2080  175.2590  144.3200 C   0  0  0  0  0  0  0  0  0  0  0  0
  194.8230  175.5260  145.5580 C   0  0  0  0  0  0  0  0  0  0  0  0
  194.5350  174.0890  143.6230 C   0  0  0  0  0  3  0  0  0  0  0  0
  194.4490  176.9760  146.4770 Cl  0  0  0  0  0  0  0  0  0  0  0  0
  1 19  1  0  0  0  0
  1  6  1  0  0  0  0
  3 11  1  6  0  0  0
  3 15  1  0  0  0  0
  3  8  1  0  0  0  0
  5  1  1  0  0  0  0
  6 18  1  6  0  0  0
  7  9  1  0  0  0  0
  8 14  1  6  0  0  0
  8 16  1  0  0  0  0
  9 14  1  0  0  0  0
 10  6  1  0  0  0  0
 10 16  1  6  0  0  0
 12  2  1  0  0  0  0
 12  4  2  0  0  0  0
 13 11  1  6  0  0  0
 13  7  1  0  0  0  0
 13  3  1  0  0  0  0
 15  5  1  6  0  0  0
 15 10  1  0  0  0  0
 16 12  1  0  0  0  0
 17 18  1  0  0  0  0
 19 23  1  0  0  0  0
 20 21  1  0  0  0  0
 21 22  2  0  0  0  0
 23 24  2  0  0  0  0
 24 22  1  0  0  0  0
 24 26  1  0  0  0  0
 25 20  2  0  0  0  0
 25 23  1  0  0  0  0
M  END
>  <MODEL>
8

>  <REMARK>
 VINA RESULT:      -6.6      2.343      3.968
  Name = 
  3 active torsions:
  status: ('A' for Active; 'I' for Inactive)
    1  A    between atoms: N_2  and  C_25
    2  A    between atoms: C_9  and  C_23
    3  A    between atoms: C_18  and  C_25
                            x       y       z     vdW  Elec       q    Type
                         _______ _______ _______ _____ _____    ______ ____

>  <TORSDO>
F 3

$$$$
=
 OpenBabel11072408503D

 26 30  0  0  1  0  0  0  0  0999 V2000
  187.8140  176.4080  143.2300 N   0  0  0  0  0  0  0  0  0  0  0  0
  192.2180  175.0380  147.1070 N   0  0  0  0  0  1  0  0  0  0  0  0
  190.7060  174.1820  143.0300 C   0  0  2  0  0  0  0  0  0  0  0  0
  189.9820  175.6020  147.3290 O   0  0  0  0  0  0  0  0  0  0  0  0
  188.4790  175.3960  142.5090 N   0  0  0  0  0  2  0  0  0  0  0  0
  188.4910  176.4310  144.5410 C   0  0  1  0  0  3  0  0  0  0  0  0
  192.7610  174.7470  141.5780 C   0  0  0  0  0  2  0  0  0  0  0  0
  191.5770  174.3590  144.2670 C   0  0  1  0  0  3  0  0  0  0  0  0
  193.4910  174.4650  142.8160 N   0  0  0  0  0  2  0  0  0  0  0  0
  189.4120  175.2450  144.5240 C   0  0  1  0  0  3  0  0  0  0  0  0
  190.9290  173.0230  142.0910 C   0  0  0  0  0  2  0  0  0  0  0  0
  190.9250  175.2740  146.5610 C   0  0  0  0  0  0  0  0  0  0  0  0
  191.2420  174.4550  141.6320 C   0  0  1  0  0  3  0  0  0  0  0  0
  192.8260  175.1470  143.9170 C   0  0  0  0  0  2  0  0  0  0  0  0
  189.3590  174.6900  143.3540 C   0  0  2  0  0  3  0  0  0  0  0  0
  190.6940  175.1180  145.1550 N   0  0  0  0  0  0  0  0  0  0  0  0
  189.8690  178.0440  143.4340 O   0  0  0  0  0  1  0  0  0  0  0  0
  189.2700  177.7350  144.6540 C   0  0  0  0  0  2  0  0  0  0  0  0
  186.4480  175.9560  143.4620 C   0  0  0  0  0  2  0  0  0  0  0  0
  184.7870  177.8060  146.3160 C   0  0  0  0  0  3  0  0  0  0  0  0
  184.2750  178.9330  145.6700 C   0  0  0  0  0  3  0  0  0  0  0  0
  184.4630  179.0960  144.2950 C   0  0  0  0  0  3  0  0  0  0  0  0
  185.6790  176.9970  144.2090 C   0  0  0  0  0  0  0  0  0  0  0  0
  185.1640  178.1350  143.5590 C   0  0  0  0  0  0  0  0  0  0  0  0
  185.4880  176.8420  145.5880 C   0  0  0  0  0  3  0  0  0  0  0  0
  185.3700  178.3810  141.8320 Cl  0  0  0  0  0  0  0  0  0  0  0  0
  1 19  1  0  0  0  0
  1  6  1  0  0  0  0
  3 11  1  6  0  0  0
  3 15  1  0  0  0  0
  3  8  1  0  0  0  0
  5  1  1  0  0  0  0
  6 18  1  6  0  0  0
  7  9  1  0  0  0  0
  8 14  1  6  0  0  0
  8 16  1  0  0  0  0
  9 14  1  0  0  0  0
 10  6  1  0  0  0  0
 10 16  1  6  0  0  0
 12  2  1  0  0  0  0
 12  4  2  0  0  0  0
 13  7  1  1  0  0  0
 13 11  1  0  0  0  0
 13  3  1  0  0  0  0
 15  5  1  6  0  0  0
 15 10  1  0  0  0  0
 16 12  1  0  0  0  0
 17 18  1  0  0  0  0
 19 23  1  0  0  0  0
 21 20  1  0  0  0  0
 22 21  2  0  0  0  0
 23 25  1  0  0  0  0
 24 23  2  0  0  0  0
 24 22  1  0  0  0  0
 25 20  2  0  0  0  0
 26 24  1  0  0  0  0
M  END
>  <MODEL>
9

>  <REMARK>
 VINA RESULT:      -6.5      2.958      7.003
  Name = 
  3 active torsions:
  status: ('A' for Active; 'I' for Inactive)
    1  A    between atoms: N_2  and  C_25
    2  A    between atoms: C_9  and  C_23
    3  A    between atoms: C_18  and  C_25
                            x       y       z     vdW  Elec       q    Type
                         _______ _______ _______ _____ _____    ______ ____

>  <TORSDO>
F 3

$$$$
