=
 OpenBabel11062420343D

 32 36  0  0  1  0  0  0  0  0999 V2000
  191.3980  174.5640  143.3350 N   0  0  0  0  0  2  0  0  0  0  0  0
  190.0760  174.1630  142.9630 C   0  0  0  0  0  0  0  0  0  0  0  0
  189.7820  172.9370  142.9000 O   0  0  0  0  0  0  0  0  0  0  0  0
  189.0410  176.2850  144.8560 N   0  0  0  0  0  2  0  0  0  0  0  0
  186.4040  177.2690  147.3390 C   0  0  0  0  0  2  0  0  0  0  0  0
  185.9290  178.3450  145.1710 C   0  0  0  0  0  2  0  0  0  0  0  0
  188.4370  175.9850  143.7540 C   0  0  1  0  0  3  0  0  0  0  0  0
  188.6640  175.4270  141.4260 C   0  0  0  0  0  3  0  0  0  0  0  0
  187.6730  176.4230  141.1200 N   0  0  0  0  0  0  0  0  0  0  0  0
  187.2640  176.8410  143.5400 C   0  0  2  0  0  0  0  0  0  0  0  0
  185.3810  177.3930  146.2250 C   0  0  2  0  0  3  0  0  0  0  0  0
  186.9710  177.2540  142.1070 C   0  0  2  0  0  3  0  0  0  0  0  0
  187.2910  177.8990  144.6150 C   0  0  2  0  0  3  0  0  0  0  0  0
  185.9910  176.3640  142.8850 C   0  0  0  0  0  2  0  0  0  0  0  0
  189.0510  175.1870  142.6820 C   0  0  1  0  0  3  0  0  0  0  0  0
  188.2930  177.2790  145.6310 C   0  0  1  0  0  3  0  0  0  0  0  0
  187.6190  176.5370  146.7970 C   0  0  0  0  0  2  0  0  0  0  0  0
  184.1920  177.9100  146.7430 O   0  0  0  0  0  0  0  0  0  0  0  0
  183.7940  178.8840  145.8240 C   0  0  0  0  0  1  0  0  0  0  0  0
  192.1610  172.2400  144.7130 O   0  0  0  0  0  1  0  0  0  0  0  0
  193.0840  172.7600  142.3180 O   0  0  0  0  0  0  0  0  0  0  0  0
  192.6940  173.4190  143.6220 P   0  0  1  0  0  0  0  0  0  0  0  0
  195.7390  176.0950  143.5270 C   0  0  0  0  0  0  0  0  0  0  0  0
  194.7360  176.0180  145.7140 C   0  0  0  0  0  2  0  0  0  0  0  0
  194.9970  174.8440  143.1570 C   0  0  0  0  0  2  0  0  0  0  0  0
  193.6510  175.3460  145.1140 O   0  0  0  0  0  0  0  0  0  0  0  0
  194.1520  174.2770  144.3300 C   0  0  1  0  0  0  0  0  0  0  0  0
  195.5740  176.6420  144.6960 N   0  0  0  0  0  0  0  0  0  0  0  0
  194.8910  173.3900  145.1670 O   0  0  0  0  0  0  0  0  0  0  0  0
  195.7730  172.6000  144.4070 C   0  0  0  0  0  1  0  0  0  0  0  0
  196.5660  176.6910  142.5730 O   0  0  0  0  0  0  0  0  0  0  0  0
  196.2810  176.6420  141.1830 C   0  0  0  0  0  1  0  0  0  0  0  0
  1 22  1  0  0  0  0
  2  1  1  0  0  0  0
  3  2  2  0  0  0  0
  4 16  1  0  0  0  0
  6 11  1  0  0  0  0
  7  4  1  6  0  0  0
  8 15  1  0  0  0  0
  9  8  2  0  0  0  0
  9 12  1  0  0  0  0
 10 14  1  1  0  0  0
 10  7  1  0  0  0  0
 10 13  1  0  0  0  0
 11 18  1  1  0  0  0
 11  5  1  0  0  0  0
 12 14  1  6  0  0  0
 12 10  1  0  0  0  0
 13  6  1  1  0  0  0
 13 16  1  0  0  0  0
 15  2  1  6  0  0  0
 15  7  1  0  0  0  0
 16 17  1  1  0  0  0
 17  5  1  0  0  0  0
 19 18  1  0  0  0  0
 22 21  2  6  0  0  0
 22 27  1  0  0  0  0
 22 20  1  0  0  0  0
 23 28  2  0  0  0  0
 25 23  1  0  0  0  0
 25 27  1  0  0  0  0
 26 24  1  0  0  0  0
 27 26  1  0  0  0  0
 27 29  1  1  0  0  0
 28 24  1  0  0  0  0
 30 29  1  0  0  0  0
 31 23  1  0  0  0  0
 32 31  1  0  0  0  0
M  END
>  <MODEL>
1

>  <REMARK>
 VINA RESULT:      -7.3      0.000      0.000
  Name = 
  6 active torsions:
  status: ('A' for Active; 'I' for Inactive)
    1  A    between atoms: N_2  and  P_31
    2  A    between atoms: O_3  and  C_14
    3  A    between atoms: C_7  and  C_22
    4  A    between atoms: C_8  and  O_16
    5  A    between atoms: O_13  and  C_28
    6  A    between atoms: C_28  and  P_31
                            x       y       z     vdW  Elec       q    Type
                         _______ _______ _______ _____ _____    ______ ____

>  <TORSDO>
F 6

$$$$
=
 OpenBabel11062420343D

 32 36  0  0  1  0  0  0  0  0999 V2000
  191.1130  174.0500  142.9920 N   0  0  0  0  0  2  0  0  0  0  0  0
  189.7220  173.8540  142.7250 C   0  0  0  0  0  0  0  0  0  0  0  0
  189.2450  172.6860  142.6810 O   0  0  0  0  0  0  0  0  0  0  0  0
  188.9880  175.9570  144.7740 N   0  0  0  0  0  2  0  0  0  0  0  0
  186.5190  177.1060  147.3550 C   0  0  0  0  0  2  0  0  0  0  0  0
  186.1800  178.3850  145.2730 C   0  0  0  0  0  2  0  0  0  0  0  0
  188.3440  175.8180  143.6630 C   0  0  1  0  0  3  0  0  0  0  0  0
  188.4830  175.3990  141.2990 C   0  0  0  0  0  3  0  0  0  0  0  0
  187.6320  176.5370  141.0750 N   0  0  0  0  0  0  0  0  0  0  0  0
  187.2940  176.8350  143.5240 C   0  0  2  0  0  0  0  0  0  0  0  0
  185.5160  177.4430  146.2680 C   0  0  2  0  0  3  0  0  0  0  0  0
  187.0520  177.3830  142.1280 C   0  0  2  0  0  3  0  0  0  0  0  0
  187.4690  177.8020  144.6690 C   0  0  2  0  0  3  0  0  0  0  0  0
  185.9670  176.5780  142.8560 C   0  0  0  0  0  2  0  0  0  0  0  0
  188.8410  175.0230  142.5300 C   0  0  1  0  0  3  0  0  0  0  0  0
  188.3830  176.9850  145.6260 C   0  0  1  0  0  3  0  0  0  0  0  0
  187.6230  176.2590  146.7470 C   0  0  0  0  0  2  0  0  0  0  0  0
  184.4090  178.0760  146.8360 O   0  0  0  0  0  0  0  0  0  0  0  0
  183.8780  178.8610  145.8110 C   0  0  0  0  0  1  0  0  0  0  0  0
  191.6570  171.6490  144.3400 O   0  0  0  0  0  1  0  0  0  0  0  0
  192.3880  172.0000  141.8500 O   0  0  0  0  0  0  0  0  0  0  0  0
  192.2440  172.7220  143.1720 P   0  0  1  0  0  0  0  0  0  0  0  0
  194.7260  174.7770  145.6320 C   0  0  0  0  0  0  0  0  0  0  0  0
  195.7670  172.7440  144.8720 C   0  0  0  0  0  2  0  0  0  0  0  0
  193.6540  174.6010  144.5960 C   0  0  0  0  0  2  0  0  0  0  0  0
  194.4820  172.3230  144.4690 O   0  0  0  0  0  0  0  0  0  0  0  0
  193.8820  173.3520  143.7020 C   0  0  1  0  0  0  0  0  0  0  0  0
  195.6680  173.8900  145.7690 N   0  0  0  0  0  0  0  0  0  0  0  0
  194.7000  173.6260  142.5660 O   0  0  0  0  0  0  0  0  0  0  0  0
  194.4360  174.9100  142.0550 C   0  0  0  0  0  1  0  0  0  0  0  0
  194.6620  175.8830  146.4820 O   0  0  0  0  0  0  0  0  0  0  0  0
  194.5320  177.2110  145.9950 C   0  0  0  0  0  1  0  0  0  0  0  0
  1 22  1  0  0  0  0
  2  1  1  0  0  0  0
  3  2  2  0  0  0  0
  4 16  1  0  0  0  0
  6 11  1  0  0  0  0
  7  4  1  6  0  0  0
  8 15  1  0  0  0  0
  9  8  2  0  0  0  0
  9 12  1  0  0  0  0
 10 14  1  1  0  0  0
 10  7  1  0  0  0  0
 10 13  1  0  0  0  0
 11 18  1  1  0  0  0
 11  5  1  0  0  0  0
 12 14  1  6  0  0  0
 12 10  1  0  0  0  0
 13  6  1  1  0  0  0
 13 16  1  0  0  0  0
 15  2  1  6  0  0  0
 15  7  1  0  0  0  0
 16 17  1  1  0  0  0
 17  5  1  0  0  0  0
 19 18  1  0  0  0  0
 22 21  2  6  0  0  0
 22 27  1  0  0  0  0
 22 20  1  0  0  0  0
 23 28  2  0  0  0  0
 23 31  1  0  0  0  0
 24 28  1  0  0  0  0
 25 23  1  0  0  0  0
 26 24  1  0  0  0  0
 27 29  1  6  0  0  0
 27 26  1  0  0  0  0
 27 25  1  0  0  0  0
 30 29  1  0  0  0  0
 32 31  1  0  0  0  0
M  END
>  <MODEL>
2

>  <REMARK>
 VINA RESULT:      -7.3      1.220      1.891
  Name = 
  6 active torsions:
  status: ('A' for Active; 'I' for Inactive)
    1  A    between atoms: N_2  and  P_31
    2  A    between atoms: O_3  and  C_14
    3  A    between atoms: C_7  and  C_22
    4  A    between atoms: C_8  and  O_16
    5  A    between atoms: O_13  and  C_28
    6  A    between atoms: C_28  and  P_31
                            x       y       z     vdW  Elec       q    Type
                         _______ _______ _______ _____ _____    ______ ____

>  <TORSDO>
F 6

$$$$
=
 OpenBabel11062420343D

 32 36  0  0  1  0  0  0  0  0999 V2000
  191.3270  174.5980  143.2770 N   0  0  0  0  0  2  0  0  0  0  0  0
  189.9870  174.2290  142.9390 C   0  0  0  0  0  0  0  0  0  0  0  0
  189.6600  173.0110  142.8960 O   0  0  0  0  0  0  0  0  0  0  0  0
  188.9640  176.3230  144.8690 N   0  0  0  0  0  2  0  0  0  0  0  0
  186.3130  177.2940  147.3410 C   0  0  0  0  0  2  0  0  0  0  0  0
  185.8850  178.4300  145.1940 C   0  0  0  0  0  2  0  0  0  0  0  0
  188.3690  176.0600  143.7530 C   0  0  1  0  0  3  0  0  0  0  0  0
  188.6180  175.5540  141.4150 C   0  0  0  0  0  3  0  0  0  0  0  0
  187.6470  176.5740  141.1200 N   0  0  0  0  0  0  0  0  0  0  0  0
  187.2140  176.9410  143.5440 C   0  0  2  0  0  0  0  0  0  0  0  0
  185.3070  177.4630  146.2180 C   0  0  2  0  0  3  0  0  0  0  0  0
  186.9470  177.3940  142.1180 C   0  0  2  0  0  3  0  0  0  0  0  0
  187.2460  177.9730  144.6450 C   0  0  2  0  0  3  0  0  0  0  0  0
  185.9420  176.5020  142.8620 C   0  0  0  0  0  2  0  0  0  0  0  0
  188.9830  175.2770  142.6700 C   0  0  1  0  0  3  0  0  0  0  0  0
  188.2240  177.3110  145.6580 C   0  0  1  0  0  3  0  0  0  0  0  0
  187.5220  176.5540  146.7970 C   0  0  0  0  0  2  0  0  0  0  0  0
  184.1200  177.9880  146.7330 O   0  0  0  0  0  0  0  0  0  0  0  0
  183.6930  178.9130  145.7770 C   0  0  0  0  0  1  0  0  0  0  0  0
  192.0220  172.2090  144.5780 O   0  0  0  0  0  1  0  0  0  0  0  0
  193.0090  172.8080  142.2270 O   0  0  0  0  0  0  0  0  0  0  0  0
  192.5990  173.4210  143.5480 P   0  0  1  0  0  0  0  0  0  0  0  0
  196.2440  173.4130  145.3240 C   0  0  0  0  0  0  0  0  0  0  0  0
  196.0370  175.2700  143.8060 C   0  0  0  0  0  2  0  0  0  0  0  0
  194.7640  173.1810  145.2220 C   0  0  0  0  0  2  0  0  0  0  0  0
  194.9150  174.6080  143.2640 O   0  0  0  0  0  0  0  0  0  0  0  0
  194.0520  174.2270  144.3220 C   0  0  1  0  0  0  0  0  0  0  0  0
  196.8160  174.3550  144.6330 N   0  0  0  0  0  0  0  0  0  0  0  0
  193.6500  175.3920  145.0390 O   0  0  0  0  0  0  0  0  0  0  0  0
  193.1320  175.0510  146.3020 C   0  0  0  0  0  1  0  0  0  0  0  0
  197.0020  172.5630  146.1320 O   0  0  0  0  0  0  0  0  0  0  0  0
  196.8170  171.1550  146.1380 C   0  0  0  0  0  1  0  0  0  0  0  0
  1 22  1  0  0  0  0
  2  1  1  0  0  0  0
  3  2  2  0  0  0  0
  4 16  1  0  0  0  0
  6 11  1  0  0  0  0
  7  4  1  6  0  0  0
  8 15  1  0  0  0  0
  9  8  2  0  0  0  0
  9 12  1  0  0  0  0
 10 14  1  1  0  0  0
 10  7  1  0  0  0  0
 10 13  1  0  0  0  0
 11 18  1  1  0  0  0
 11  5  1  0  0  0  0
 12 14  1  6  0  0  0
 12 10  1  0  0  0  0
 13  6  1  1  0  0  0
 13 16  1  0  0  0  0
 15  2  1  6  0  0  0
 15  7  1  0  0  0  0
 16 17  1  1  0  0  0
 17  5  1  0  0  0  0
 19 18  1  0  0  0  0
 22 21  2  6  0  0  0
 22 27  1  0  0  0  0
 22 20  1  0  0  0  0
 23 31  1  0  0  0  0
 24 28  1  0  0  0  0
 25 23  1  0  0  0  0
 26 24  1  0  0  0  0
 26 27  1  0  0  0  0
 27 29  1  1  0  0  0
 27 25  1  0  0  0  0
 28 23  2  0  0  0  0
 29 30  1  0  0  0  0
 31 32  1  0  0  0  0
M  END
>  <MODEL>
3

>  <REMARK>
 VINA RESULT:      -7.1      1.071      2.116
  Name = 
  6 active torsions:
  status: ('A' for Active; 'I' for Inactive)
    1  A    between atoms: N_2  and  P_31
    2  A    between atoms: O_3  and  C_14
    3  A    between atoms: C_7  and  C_22
    4  A    between atoms: C_8  and  O_16
    5  A    between atoms: O_13  and  C_28
    6  A    between atoms: C_28  and  P_31
                            x       y       z     vdW  Elec       q    Type
                         _______ _______ _______ _____ _____    ______ ____

>  <TORSDO>
F 6

$$$$
=
 OpenBabel11062420343D

 32 36  0  0  1  0  0  0  0  0999 V2000
  190.9740  176.8270  145.4180 N   0  0  0  0  0  2  0  0  0  0  0  0
  189.9210  176.1910  146.1480 C   0  0  0  0  0  0  0  0  0  0  0  0
  190.1830  175.2400  146.9340 O   0  0  0  0  0  0  0  0  0  0  0  0
  188.0900  175.7850  143.7730 N   0  0  0  0  0  2  0  0  0  0  0  0
  186.7470  177.1850  140.5610 C   0  0  0  0  0  2  0  0  0  0  0  0
  185.0800  177.5030  142.3520 C   0  0  0  0  0  2  0  0  0  0  0  0
  187.8390  176.6480  144.7020 C   0  0  1  0  0  3  0  0  0  0  0  0
  187.8590  177.1250  147.0590 C   0  0  0  0  0  3  0  0  0  0  0  0
  186.5030  177.5910  146.9470 N   0  0  0  0  0  2  0  0  0  0  0  0
  186.5550  177.3190  144.4720 C   0  0  2  0  0  0  0  0  0  0  0  0
  185.9500  178.2220  141.3300 C   0  0  2  0  0  3  0  0  0  0  0  0
  185.7240  177.6460  145.7020 C   0  0  2  0  0  3  0  0  0  0  0  0
  185.8950  176.6180  143.3100 C   0  0  2  0  0  3  0  0  0  0  0  0
  186.2950  178.7640  144.8190 C   0  0  0  0  0  2  0  0  0  0  0  0
  188.5320  176.6700  145.9990 C   0  0  0  0  0  0  0  0  0  0  0  0
  187.0970  175.8440  142.6970 C   0  0  1  0  0  3  0  0  0  0  0  0
  187.7560  176.5580  141.5060 C   0  0  0  0  0  2  0  0  0  0  0  0
  185.1330  178.9300  140.4450 O   0  0  0  0  0  0  0  0  0  0  0  0
  183.8950  178.2880  140.5060 C   0  0  0  0  0  1  0  0  0  0  0  0
  193.6450  177.5040  144.8800 O   0  0  0  0  0  0  0  0  0  0  0  0
  193.0170  175.9830  146.9170 O   0  0  0  0  0  1  0  0  0  0  0  0
  192.6400  176.2840  145.4830 P   0  0  1  0  0  0  0  0  0  0  0  0
  194.8360  173.5520  143.4450 C   0  0  0  0  0  0  0  0  0  0  0  0
  193.0380  172.4850  144.6370 C   0  0  0  0  0  2  0  0  0  0  0  0
  194.2000  174.8870  143.7040 C   0  0  0  0  0  2  0  0  0  0  0  0
  192.9120  173.6820  145.3730 O   0  0  0  0  0  0  0  0  0  0  0  0
  192.8530  174.7720  144.4680 C   0  0  1  0  0  0  0  0  0  0  0  0
  194.3060  172.4620  143.9170 N   0  0  0  0  0  0  0  0  0  0  0  0
  191.7360  174.5970  143.5980 O   0  0  0  0  0  0  0  0  0  0  0  0
  191.9050  175.3320  142.4100 C   0  0  0  0  0  1  0  0  0  0  0  0
  196.0380  173.5090  142.7340 O   0  0  0  0  0  0  0  0  0  0  0  0
  197.2440  173.0280  143.3090 C   0  0  0  0  0  1  0  0  0  0  0  0
  1 22  1  0  0  0  0
  1  2  1  0  0  0  0
  2  3  2  0  0  0  0
  5 11  1  0  0  0  0
  5 17  1  0  0  0  0
  7  4  1  1  0  0  0
  7 15  1  0  0  0  0
  9  8  1  0  0  0  0
 10  7  1  0  0  0  0
 10 14  1  6  0  0  0
 10 12  1  0  0  0  0
 11 18  1  6  0  0  0
 11  6  1  0  0  0  0
 12 14  1  6  0  0  0
 12  9  1  0  0  0  0
 13  6  1  6  0  0  0
 13 10  1  0  0  0  0
 15  2  1  0  0  0  0
 15  8  2  0  0  0  0
 16 17  1  6  0  0  0
 16 13  1  0  0  0  0
 16  4  1  0  0  0  0
 18 19  1  0  0  0  0
 22 20  2  6  0  0  0
 22 21  1  0  0  0  0
 23 25  1  0  0  0  0
 23 28  2  0  0  0  0
 24 26  1  0  0  0  0
 25 27  1  0  0  0  0
 27 29  1  6  0  0  0
 27 26  1  0  0  0  0
 27 22  1  0  0  0  0
 28 24  1  0  0  0  0
 30 29  1  0  0  0  0
 31 32  1  0  0  0  0
 31 23  1  0  0  0  0
M  END
>  <MODEL>
4

>  <REMARK>
 VINA RESULT:      -7.1      2.383      4.143
  Name = 
  6 active torsions:
  status: ('A' for Active; 'I' for Inactive)
    1  A    between atoms: N_2  and  P_31
    2  A    between atoms: O_3  and  C_14
    3  A    between atoms: C_7  and  C_22
    4  A    between atoms: C_8  and  O_16
    5  A    between atoms: O_13  and  C_28
    6  A    between atoms: C_28  and  P_31
                            x       y       z     vdW  Elec       q    Type
                         _______ _______ _______ _____ _____    ______ ____

>  <TORSDO>
F 6

$$$$
=
 OpenBabel11062420343D

 32 36  0  0  1  0  0  0  0  0999 V2000
  191.1010  176.7530  145.4720 N   0  0  0  0  0  2  0  0  0  0  0  0
  190.0230  175.9960  146.0300 C   0  0  0  0  0  0  0  0  0  0  0  0
  190.2580  174.9110  146.6300 O   0  0  0  0  0  0  0  0  0  0  0  0
  188.1310  175.6820  143.6890 N   0  0  0  0  0  2  0  0  0  0  0  0
  186.7410  177.1870  140.5450 C   0  0  0  0  0  2  0  0  0  0  0  0
  185.1210  177.4870  142.3810 C   0  0  0  0  0  2  0  0  0  0  0  0
  187.9170  176.5250  144.6440 C   0  0  1  0  0  3  0  0  0  0  0  0
  187.9990  176.9420  147.0110 C   0  0  0  0  0  3  0  0  0  0  0  0
  186.6490  177.4340  146.9430 N   0  0  0  0  0  2  0  0  0  0  0  0
  186.6400  177.2240  144.4620 C   0  0  2  0  0  0  0  0  0  0  0  0
  185.9800  178.2170  141.3570 C   0  0  2  0  0  3  0  0  0  0  0  0
  185.8430  177.5340  145.7180 C   0  0  2  0  0  3  0  0  0  0  0  0
  185.9420  176.5650  143.2970 C   0  0  2  0  0  3  0  0  0  0  0  0
  186.4140  178.6640  144.8500 C   0  0  0  0  0  2  0  0  0  0  0  0
  188.6400  176.5020  145.9250 C   0  0  0  0  0  0  0  0  0  0  0  0
  187.1160  175.7860  142.6370 C   0  0  1  0  0  3  0  0  0  0  0  0
  187.7610  176.5180  141.4500 C   0  0  0  0  0  2  0  0  0  0  0  0
  185.1560  178.9610  140.5090 O   0  0  0  0  0  0  0  0  0  0  0  0
  183.9320  178.2900  140.5180 C   0  0  0  0  0  1  0  0  0  0  0  0
  193.7960  177.5350  145.3870 O   0  0  0  0  0  0  0  0  0  0  0  0
  193.0320  175.4540  146.7820 O   0  0  0  0  0  1  0  0  0  0  0  0
  192.7640  176.1980  145.4920 P   0  0  1  0  0  0  0  0  0  0  0  0
  191.8440  174.5150  141.9200 C   0  0  0  0  0  0  0  0  0  0  0  0
  194.2030  174.9720  142.0680 C   0  0  0  0  0  2  0  0  0  0  0  0
  191.7160  174.7670  143.3940 C   0  0  0  0  0  2  0  0  0  0  0  0
  193.9000  175.8020  143.1670 O   0  0  0  0  0  0  0  0  0  0  0  0
  193.0770  175.0840  144.0700 C   0  0  1  0  0  0  0  0  0  0  0  0
  192.9910  174.6540  141.3210 N   0  0  0  0  0  0  0  0  0  0  0  0
  193.7680  173.9120  144.5010 O   0  0  0  0  0  0  0  0  0  0  0  0
  192.8750  172.8400  144.6780 C   0  0  0  0  0  1  0  0  0  0  0  0
  190.6990  174.1840  141.1940 O   0  0  0  0  0  0  0  0  0  0  0  0
  189.7850  173.1870  141.6280 C   0  0  0  0  0  1  0  0  0  0  0  0
  1 22  1  0  0  0  0
  1  2  1  0  0  0  0
  2  3  2  0  0  0  0
  5 11  1  0  0  0  0
  5 17  1  0  0  0  0
  7  4  1  1  0  0  0
  7 15  1  0  0  0  0
  9  8  1  0  0  0  0
 10  7  1  0  0  0  0
 10 14  1  6  0  0  0
 10 12  1  0  0  0  0
 11 18  1  6  0  0  0
 11  6  1  0  0  0  0
 12 14  1  6  0  0  0
 12  9  1  0  0  0  0
 13  6  1  6  0  0  0
 13 10  1  0  0  0  0
 15  2  1  0  0  0  0
 15  8  2  0  0  0  0
 16 17  1  6  0  0  0
 16 13  1  0  0  0  0
 16  4  1  0  0  0  0
 18 19  1  0  0  0  0
 22 20  2  6  0  0  0
 22 21  1  0  0  0  0
 23 25  1  0  0  0  0
 24 26  1  0  0  0  0
 25 27  1  0  0  0  0
 26 27  1  0  0  0  0
 27 29  1  1  0  0  0
 27 22  1  0  0  0  0
 28 23  2  0  0  0  0
 28 24  1  0  0  0  0
 29 30  1  0  0  0  0
 31 32  1  0  0  0  0
 31 23  1  0  0  0  0
M  END
>  <MODEL>
5

>  <REMARK>
 VINA RESULT:      -7.1      2.350      4.325
  Name = 
  6 active torsions:
  status: ('A' for Active; 'I' for Inactive)
    1  A    between atoms: N_2  and  P_31
    2  A    between atoms: O_3  and  C_14
    3  A    between atoms: C_7  and  C_22
    4  A    between atoms: C_8  and  O_16
    5  A    between atoms: O_13  and  C_28
    6  A    between atoms: C_28  and  P_31
                            x       y       z     vdW  Elec       q    Type
                         _______ _______ _______ _____ _____    ______ ____

>  <TORSDO>
F 6

$$$$
=
 OpenBabel11062420343D

 32 36  0  0  1  0  0  0  0  0999 V2000
  192.3790  174.9670  143.8400 N   0  0  0  0  0  2  0  0  0  0  0  0
  191.8280  176.1710  144.3790 C   0  0  0  0  0  0  0  0  0  0  0  0
  192.3770  177.2820  144.1350 O   0  0  0  0  0  0  0  0  0  0  0  0
  188.9740  176.4720  143.4190 N   0  0  0  0  0  2  0  0  0  0  0  0
  186.0600  178.7770  142.8890 C   0  0  0  0  0  2  0  0  0  0  0  0
  185.6960  177.4570  144.9410 C   0  0  0  0  0  2  0  0  0  0  0  0
  189.2960  176.5420  144.6680 C   0  0  1  0  0  3  0  0  0  0  0  0
  190.6440  175.6500  146.4480 C   0  0  0  0  0  3  0  0  0  0  0  0
  189.4640  175.5750  147.2670 N   0  0  0  0  0  2  0  0  0  0  0  0
  188.1090  176.7130  145.5150 C   0  0  2  0  0  0  0  0  0  0  0  0
  185.8410  178.8680  144.3870 C   0  0  2  0  0  3  0  0  0  0  0  0
  188.1190  176.0020  146.8580 C   0  0  2  0  0  3  0  0  0  0  0  0
  186.9050  176.5630  144.6170 C   0  0  2  0  0  3  0  0  0  0  0  0
  188.0980  177.5360  146.7790 C   0  0  0  0  0  2  0  0  0  0  0  0
  190.6000  176.1140  145.1960 C   0  0  0  0  0  0  0  0  0  0  0  0
  187.5470  176.7360  143.2110 C   0  0  1  0  0  3  0  0  0  0  0  0
  187.4230  178.1570  142.6390 C   0  0  0  0  0  2  0  0  0  0  0  0
  184.6710  179.5870  144.6430 O   0  0  0  0  0  0  0  0  0  0  0  0
  183.9670  178.8110  145.5660 C   0  0  0  0  0  1  0  0  0  0  0  0
  193.8990  173.5330  141.9650 O   0  0  0  0  0  0  0  0  0  0  0  0
  193.9350  176.1510  142.0200 O   0  0  0  0  0  1  0  0  0  0  0  0
  193.8680  174.9330  142.9140 P   0  0  1  0  0  0  0  0  0  0  0  0
  196.6160  173.1370  145.2950 C   0  0  0  0  0  0  0  0  0  0  0  0
  197.6150  174.9320  144.0410 C   0  0  0  0  0  2  0  0  0  0  0  0
  195.2560  173.6330  144.8990 C   0  0  0  0  0  2  0  0  0  0  0  0
  196.4680  174.8990  143.2190 O   0  0  0  0  0  0  0  0  0  0  0  0
  195.3140  174.9270  144.0420 C   0  0  1  0  0  0  0  0  0  0  0  0
  197.6900  173.7260  144.8570 N   0  0  0  0  0  0  0  0  0  0  0  0
  195.3330  176.1140  144.8320 O   0  0  0  0  0  0  0  0  0  0  0  0
  194.7990  175.8740  146.1120 C   0  0  0  0  0  1  0  0  0  0  0  0
  196.7060  171.9980  146.0980 O   0  0  0  0  0  0  0  0  0  0  0  0
  196.9370  170.7040  145.5600 C   0  0  0  0  0  1  0  0  0  0  0  0
  1  2  1  0  0  0  0
  2 15  1  0  0  0  0
  3  2  2  0  0  0  0
  5 11  1  0  0  0  0
  7  4  1  6  0  0  0
  7 15  1  0  0  0  0
  7 10  1  0  0  0  0
  8  9  1  0  0  0  0
 10 14  1  1  0  0  0
 10 12  1  0  0  0  0
 11 18  1  6  0  0  0
 11  6  1  0  0  0  0
 12 14  1  1  0  0  0
 12  9  1  0  0  0  0
 13  6  1  1  0  0  0
 13 10  1  0  0  0  0
 15  8  2  0  0  0  0
 16 17  1  1  0  0  0
 16  4  1  0  0  0  0
 16 13  1  0  0  0  0
 17  5  1  0  0  0  0
 18 19  1  0  0  0  0
 21 22  1  0  0  0  0
 22 20  2  6  0  0  0
 22  1  1  0  0  0  0
 22 27  1  0  0  0  0
 23 31  1  0  0  0  0
 24 28  1  0  0  0  0
 25 23  1  0  0  0  0
 26 24  1  0  0  0  0
 26 27  1  0  0  0  0
 27 29  1  1  0  0  0
 27 25  1  0  0  0  0
 28 23  2  0  0  0  0
 29 30  1  0  0  0  0
 32 31  1  0  0  0  0
M  END
>  <MODEL>
6

>  <REMARK>
 VINA RESULT:      -7.0      2.041      3.685
  Name = 
  6 active torsions:
  status: ('A' for Active; 'I' for Inactive)
    1  A    between atoms: N_2  and  P_31
    2  A    between atoms: O_3  and  C_14
    3  A    between atoms: C_7  and  C_22
    4  A    between atoms: C_8  and  O_16
    5  A    between atoms: O_13  and  C_28
    6  A    between atoms: C_28  and  P_31
                            x       y       z     vdW  Elec       q    Type
                         _______ _______ _______ _____ _____    ______ ____

>  <TORSDO>
F 6

$$$$
=
 OpenBabel11062420343D

 32 36  0  0  1  0  0  0  0  0999 V2000
  191.5100  175.6100  145.3400 N   0  0  0  0  0  2  0  0  0  0  0  0
  192.5510  175.1570  146.2100 C   0  0  0  0  0  0  0  0  0  0  0  0
  192.3120  174.9650  147.4340 O   0  0  0  0  0  0  0  0  0  0  0  0
  193.6150  172.5200  145.1750 N   0  0  0  0  0  2  0  0  0  0  0  0
  195.5380  169.3890  145.9370 C   0  0  0  0  0  2  0  0  0  0  0  0
  196.9870  170.9600  144.7050 C   0  0  0  0  0  2  0  0  0  0  0  0
  194.3870  173.5200  145.4480 C   0  0  1  0  0  3  0  0  0  0  0  0
  194.7040  175.9010  145.3360 C   0  0  0  0  0  3  0  0  0  0  0  0
  196.0180  175.6720  144.7960 N   0  0  0  0  0  0  0  0  0  0  0  0
  195.7860  173.2150  145.1270 C   0  0  2  0  0  0  0  0  0  0  0  0
  196.8300  170.1820  146.0040 C   0  0  2  0  0  3  0  0  0  0  0  0
  196.6240  174.3530  144.5670 C   0  0  2  0  0  3  0  0  0  0  0  0
  195.7930  171.8840  144.4160 C   0  0  2  0  0  3  0  0  0  0  0  0
  196.9560  173.7270  145.9290 C   0  0  0  0  0  2  0  0  0  0  0  0
  193.8970  174.8890  145.6640 C   0  0  1  0  0  3  0  0  0  0  0  0
  194.3810  171.3370  144.7750 C   0  0  1  0  0  3  0  0  0  0  0  0
  194.3740  170.3630  145.9640 C   0  0  0  0  0  2  0  0  0  0  0  0
  197.9070  169.3040  146.1500 O   0  0  0  0  0  0  0  0  0  0  0  0
  197.5230  168.4310  147.1700 C   0  0  0  0  0  1  0  0  0  0  0  0
  189.2320  174.6680  146.6840 O   0  0  0  0  0  0  0  0  0  0  0  0
  189.9900  177.1670  146.8900 O   0  0  0  0  0  1  0  0  0  0  0  0
  189.9020  176.0160  145.9120 P   0  0  1  0  0  0  0  0  0  0  0  0
  187.8470  175.2880  142.4930 C   0  0  0  0  0  0  0  0  0  0  0  0
  186.6260  176.7950  143.9200 C   0  0  0  0  0  2  0  0  0  0  0  0
  189.0640  175.4820  143.3500 C   0  0  0  0  0  2  0  0  0  0  0  0
  187.4930  176.3970  144.9600 O   0  0  0  0  0  0  0  0  0  0  0  0
  188.8320  176.4960  144.5030 C   0  0  1  0  0  0  0  0  0  0  0  0
  186.7230  175.8700  142.7960 N   0  0  0  0  0  0  0  0  0  0  0  0
  189.0940  177.8440  144.1160 O   0  0  0  0  0  0  0  0  0  0  0  0
  190.2140  177.9130  143.2660 C   0  0  0  0  0  1  0  0  0  0  0  0
  187.9290  174.4260  141.3970 O   0  0  0  0  0  0  0  0  0  0  0  0
  188.1370  173.0290  141.5430 C   0  0  0  0  0  1  0  0  0  0  0  0
  1 22  1  0  0  0  0
  1  2  1  0  0  0  0
  2  3  2  0  0  0  0
  5 17  1  0  0  0  0
  5 11  1  0  0  0  0
  6 11  1  0  0  0  0
  7  4  1  6  0  0  0
  7 15  1  0  0  0  0
  8 15  1  0  0  0  0
  9  8  2  0  0  0  0
 10  7  1  0  0  0  0
 10 14  1  1  0  0  0
 11 18  1  6  0  0  0
 12  9  1  0  0  0  0
 12 10  1  0  0  0  0
 12 14  1  1  0  0  0
 13  6  1  1  0  0  0
 13 16  1  0  0  0  0
 13 10  1  0  0  0  0
 15  2  1  6  0  0  0
 16  4  1  0  0  0  0
 16 17  1  1  0  0  0
 18 19  1  0  0  0  0
 22 20  2  1  0  0  0
 22 21  1  0  0  0  0
 23 28  2  0  0  0  0
 23 25  1  0  0  0  0
 24 26  1  0  0  0  0
 25 27  1  0  0  0  0
 27 29  1  6  0  0  0
 27 26  1  0  0  0  0
 27 22  1  0  0  0  0
 28 24  1  0  0  0  0
 30 29  1  0  0  0  0
 31 32  1  0  0  0  0
 31 23  1  0  0  0  0
M  END
>  <MODEL>
7

>  <REMARK>
 VINA RESULT:      -6.7      2.898      9.113
  Name = 
  6 active torsions:
  status: ('A' for Active; 'I' for Inactive)
    1  A    between atoms: N_2  and  P_31
    2  A    between atoms: O_3  and  C_14
    3  A    between atoms: C_7  and  C_22
    4  A    between atoms: C_8  and  O_16
    5  A    between atoms: O_13  and  C_28
    6  A    between atoms: C_28  and  P_31
                            x       y       z     vdW  Elec       q    Type
                         _______ _______ _______ _____ _____    ______ ____

>  <TORSDO>
F 6

$$$$
=
 OpenBabel11062420343D

 32 36  0  0  1  0  0  0  0  0999 V2000
  191.6470  173.2590  144.0770 N   0  0  0  0  0  2  0  0  0  0  0  0
  191.2550  174.6340  144.1180 C   0  0  0  0  0  0  0  0  0  0  0  0
  191.8270  175.4760  143.3720 O   0  0  0  0  0  0  0  0  0  0  0  0
  188.5120  175.6270  143.3150 N   0  0  0  0  0  2  0  0  0  0  0  0
  186.3240  178.5920  142.6030 C   0  0  0  0  0  2  0  0  0  0  0  0
  185.8380  177.7420  144.8670 C   0  0  0  0  0  2  0  0  0  0  0  0
  188.9790  175.7740  144.5100 C   0  0  1  0  0  3  0  0  0  0  0  0
  190.2150  174.7840  146.3200 C   0  0  0  0  0  3  0  0  0  0  0  0
  189.1620  175.1780  147.2170 N   0  0  0  0  0  2  0  0  0  0  0  0
  187.9930  176.4070  145.3940 C   0  0  2  0  0  0  0  0  0  0  0  0
  186.3100  178.9540  144.0760 C   0  0  2  0  0  3  0  0  0  0  0  0
  187.9540  175.9220  146.8340 C   0  0  2  0  0  3  0  0  0  0  0  0
  186.7020  176.4940  144.6180 C   0  0  2  0  0  3  0  0  0  0  0  0
  188.3570  177.3650  146.5000 C   0  0  0  0  0  2  0  0  0  0  0  0
  190.1610  175.0590  145.0140 C   0  0  0  0  0  0  0  0  0  0  0  0
  187.2030  176.2690  143.1620 C   0  0  1  0  0  3  0  0  0  0  0  0
  187.4200  177.5670  142.3690 C   0  0  0  0  0  2  0  0  0  0  0  0
  185.4270  180.0150  144.2850 O   0  0  0  0  0  0  0  0  0  0  0  0
  184.1670  179.4220  144.3750 C   0  0  0  0  0  1  0  0  0  0  0  0
  193.0180  170.9870  143.1610 O   0  0  0  0  0  1  0  0  0  0  0  0
  192.7760  173.1200  141.6610 O   0  0  0  0  0  0  0  0  0  0  0  0
  192.9770  172.6770  143.0930 P   0  0  1  0  0  0  0  0  0  0  0  0
  195.7690  175.5790  143.5680 C   0  0  0  0  0  0  0  0  0  0  0  0
  195.5290  174.2850  145.5840 C   0  0  0  0  0  2  0  0  0  0  0  0
  194.9740  174.5450  142.8250 C   0  0  0  0  0  2  0  0  0  0  0  0
  194.3230  173.7960  145.0400 O   0  0  0  0  0  0  0  0  0  0  0  0
  194.5660  173.3430  143.7190 C   0  0  1  0  0  0  0  0  0  0  0  0
  195.9790  175.4610  144.8470 N   0  0  0  0  0  0  0  0  0  0  0  0
  195.5560  172.3160  143.7520 O   0  0  0  0  0  0  0  0  0  0  0  0
  196.1760  172.1770  142.4970 C   0  0  0  0  0  1  0  0  0  0  0  0
  196.2300  176.6990  142.8720 O   0  0  0  0  0  0  0  0  0  0  0  0
  196.2100  176.7740  141.4540 C   0  0  0  0  0  1  0  0  0  0  0  0
  1  2  1  0  0  0  0
  2 15  1  0  0  0  0
  3  2  2  0  0  0  0
  5 11  1  0  0  0  0
  7  4  1  1  0  0  0
  7 15  1  0  0  0  0
  7 10  1  0  0  0  0
  8  9  1  0  0  0  0
 10 14  1  1  0  0  0
 10 12  1  0  0  0  0
 11 18  1  6  0  0  0
 11  6  1  0  0  0  0
 12 14  1  1  0  0  0
 12  9  1  0  0  0  0
 13  6  1  6  0  0  0
 13 10  1  0  0  0  0
 15  8  2  0  0  0  0
 16 17  1  1  0  0  0
 16  4  1  0  0  0  0
 16 13  1  0  0  0  0
 17  5  1  0  0  0  0
 18 19  1  0  0  0  0
 22 21  2  6  0  0  0
 22 20  1  0  0  0  0
 22 27  1  0  0  0  0
 22  1  1  0  0  0  0
 23 28  2  0  0  0  0
 25 23  1  0  0  0  0
 25 27  1  0  0  0  0
 26 24  1  0  0  0  0
 27 29  1  6  0  0  0
 27 26  1  0  0  0  0
 28 24  1  0  0  0  0
 30 29  1  0  0  0  0
 31 23  1  0  0  0  0
 32 31  1  0  0  0  0
M  END
>  <MODEL>
8

>  <REMARK>
 VINA RESULT:      -6.7      1.606      2.773
  Name = 
  6 active torsions:
  status: ('A' for Active; 'I' for Inactive)
    1  A    between atoms: N_2  and  P_31
    2  A    between atoms: O_3  and  C_14
    3  A    between atoms: C_7  and  C_22
    4  A    between atoms: C_8  and  O_16
    5  A    between atoms: O_13  and  C_28
    6  A    between atoms: C_28  and  P_31
                            x       y       z     vdW  Elec       q    Type
                         _______ _______ _______ _____ _____    ______ ____

>  <TORSDO>
F 6

$$$$
=
 OpenBabel11062420343D

 32 36  0  0  1  0  0  0  0  0999 V2000
  188.4470  175.9180  145.3650 N   0  0  0  0  0  2  0  0  0  0  0  0
  189.1310  174.9540  146.1700 C   0  0  0  0  0  0  0  0  0  0  0  0
  188.8530  174.8430  147.3960 O   0  0  0  0  0  0  0  0  0  0  0  0
  192.1400  175.2090  146.3550 N   0  0  0  0  0  2  0  0  0  0  0  0
  195.2900  176.5010  144.7760 C   0  0  0  0  0  2  0  0  0  0  0  0
  195.0810  174.0840  144.3270 C   0  0  0  0  0  2  0  0  0  0  0  0
  191.5620  174.4460  145.4880 C   0  0  1  0  0  3  0  0  0  0  0  0
  189.7850  172.8840  145.0550 C   0  0  0  0  0  3  0  0  0  0  0  0
  190.7480  171.9990  144.4560 N   0  0  0  0  0  0  0  0  0  0  0  0
  192.5460  173.7050  144.6900 C   0  0  2  0  0  0  0  0  0  0  0  0
  195.1850  175.4580  143.6790 C   0  0  2  0  0  3  0  0  0  0  0  0
  192.1820  172.2810  144.3040 C   0  0  2  0  0  3  0  0  0  0  0  0
  193.8980  173.9730  145.3030 C   0  0  2  0  0  3  0  0  0  0  0  0
  192.3530  173.3670  143.2320 C   0  0  0  0  0  2  0  0  0  0  0  0
  190.1420  174.0700  145.5550 C   0  0  1  0  0  3  0  0  0  0  0  0
  193.5960  175.2210  146.1810 C   0  0  1  0  0  3  0  0  0  0  0  0
  193.9650  176.5570  145.5150 C   0  0  0  0  0  2  0  0  0  0  0  0
  196.3290  175.5070  142.8800 O   0  0  0  0  0  0  0  0  0  0  0  0
  196.6610  174.1710  142.6440 C   0  0  0  0  0  1  0  0  0  0  0  0
  186.1270  176.2000  146.9220 O   0  0  0  0  0  1  0  0  0  0  0  0
  187.9890  178.0410  146.9200 O   0  0  0  0  0  0  0  0  0  0  0  0
  187.2800  177.0510  146.0230 P   0  0  1  0  0  0  0  0  0  0  0  0
  186.5520  177.9020  142.1260 C   0  0  0  0  0  0  0  0  0  0  0  0
  184.5140  177.9500  143.4070 C   0  0  0  0  0  2  0  0  0  0  0  0
  187.3400  177.8790  143.4030 C   0  0  0  0  0  2  0  0  0  0  0  0
  185.2210  177.2700  144.4210 O   0  0  0  0  0  0  0  0  0  0  0  0
  186.4390  177.9530  144.6660 C   0  0  1  0  0  0  0  0  0  0  0  0
  185.2510  177.8940  142.1490 N   0  0  0  0  0  0  0  0  0  0  0  0
  186.1530  179.2920  145.0640 O   0  0  0  0  0  0  0  0  0  0  0  0
  185.2090  179.3150  146.1080 C   0  0  0  0  0  1  0  0  0  0  0  0
  187.2410  177.8750  140.9120 O   0  0  0  0  0  0  0  0  0  0  0  0
  186.6440  177.4160  139.7080 C   0  0  0  0  0  1  0  0  0  0  0  0
  1 22  1  0  0  0  0
  1  2  1  0  0  0  0
  2  3  2  0  0  0  0
  5 17  1  0  0  0  0
  7 15  1  0  0  0  0
  7  4  1  1  0  0  0
  8 15  1  0  0  0  0
  9  8  2  0  0  0  0
 10 14  1  6  0  0  0
 10 13  1  0  0  0  0
 10  7  1  0  0  0  0
 11 18  1  6  0  0  0
 11  6  1  0  0  0  0
 11  5  1  0  0  0  0
 12 14  1  6  0  0  0
 12  9  1  0  0  0  0
 12 10  1  0  0  0  0
 13  6  1  6  0  0  0
 13 16  1  0  0  0  0
 15  2  1  1  0  0  0
 16 17  1  6  0  0  0
 16  4  1  0  0  0  0
 19 18  1  0  0  0  0
 22 21  2  1  0  0  0
 22 20  1  0  0  0  0
 23 28  2  0  0  0  0
 23 25  1  0  0  0  0
 24 26  1  0  0  0  0
 25 27  1  0  0  0  0
 26 27  1  0  0  0  0
 27 29  1  1  0  0  0
 27 22  1  0  0  0  0
 28 24  1  0  0  0  0
 29 30  1  0  0  0  0
 31 23  1  0  0  0  0
 32 31  1  0  0  0  0
M  END
>  <MODEL>
9

>  <REMARK>
 VINA RESULT:      -6.7      2.848      8.410
  Name = 
  6 active torsions:
  status: ('A' for Active; 'I' for Inactive)
    1  A    between atoms: N_2  and  P_31
    2  A    between atoms: O_3  and  C_14
    3  A    between atoms: C_7  and  C_22
    4  A    between atoms: C_8  and  O_16
    5  A    between atoms: O_13  and  C_28
    6  A    between atoms: C_28  and  P_31
                            x       y       z     vdW  Elec       q    Type
                         _______ _______ _______ _____ _____    ______ ____

>  <TORSDO>
F 6

$$$$
