=
 OpenBabel11072409253D

 39 44  0  0  1  0  0  0  0  0999 V2000
  193.1190  174.8200  143.9270 N   0  0  0  0  0  0  0  0  0  0  0  0
  191.3470  175.6180  145.4420 C   0  0  0  0  0  0  0  0  0  0  0  0
  191.2840  176.8420  148.0560 C   0  0  0  0  0  2  0  0  0  0  0  0
  192.0000  175.0950  146.4500 C   0  0  0  0  0  0  0  0  0  0  0  0
  191.3370  175.3500  147.7650 C   0  0  2  0  0  3  0  0  0  0  0  0
  193.7510  174.2770  144.9350 C   0  0  0  0  0  0  0  0  0  0  0  0
  190.1930  176.3010  145.9120 N   0  0  0  0  0  0  0  0  0  0  0  0
  191.9690  175.7270  144.0720 C   0  0  1  0  0  3  0  0  0  0  0  0
  190.1040  176.1760  147.3650 C   0  0  2  0  0  3  0  0  0  0  0  0
  193.2490  174.4320  146.2680 N   0  0  0  0  0  2  0  0  0  0  0  0
  192.5260  177.3980  143.8050 Cl  0  0  0  0  0  0  0  0  0  0  0  0
  187.3980  178.0790  144.3300 N   0  0  0  0  0  0  0  0  0  0  0  0
  189.4660  177.2640  145.1920 N   0  0  0  0  0  2  0  0  0  0  0  0
  187.1560  176.5860  146.1090 C   0  0  0  0  0  2  0  0  0  0  0  0
  186.0410  177.8240  144.6430 C   0  0  1  0  0  3  0  0  0  0  0  0
  184.7600  177.2460  146.4590 C   0  0  0  0  0  3  0  0  0  0  0  0
  188.0380  177.2860  145.1400 C   0  0  0  0  0  0  0  0  0  0  0  0
  184.2380  178.3100  145.9220 N   0  0  0  0  0  0  0  0  0  0  0  0
  185.9380  176.8820  145.6870 C   0  0  2  0  0  3  0  0  0  0  0  0
  185.0790  180.0170  144.2850 N   0  0  0  0  0  1  0  0  0  0  0  0
  185.0620  178.6940  144.8100 C   0  0  1  0  0  3  0  0  0  0  0  0
  194.9660  173.4290  144.7070 C   0  0  1  0  0  3  0  0  0  0  0  0
  197.4140  174.4040  144.5290 O   0  0  0  0  0  1  0  0  0  0  0  0
  197.0510  172.7010  146.3720 O   0  0  0  0  0  1  0  0  0  0  0  0
  196.3930  174.0750  145.6110 S   0  0  0  0  0  3  0  0  0  0  0  0
  194.7280  171.9640  145.0830 C   0  0  0  0  0  2  0  0  0  0  0  0
  194.8790  169.3070  142.9050 C   0  0  0  0  0  2  0  0  0  0  0  0
  195.2350  170.6240  142.2760 C   0  0  0  0  0  2  0  0  0  0  0  0
  194.3220  171.5860  142.7350 O   0  0  0  0  0  0  0  0  0  0  0  0
  193.9310  171.1840  144.0320 C   0  0  1  0  0  0  0  0  0  0  0  0
  194.2560  169.7130  144.2040 C   0  0  0  0  0  2  0  0  0  0  0  0
  192.4220  171.3590  144.2850 C   0  0  0  0  0  2  0  0  0  0  0  0
  191.3340  171.3950  142.8090 P   0  0  2  0  0  0  0  0  0  0  0  0
  191.3750  170.0710  142.0780 O   0  0  0  0  0  1  0  0  0  0  0  0
  191.9090  172.6020  141.7720 O   0  0  0  0  0  0  0  0  0  0  0  0
  189.6130  171.8060  143.2580 C   0  0  1  0  0  3  0  0  0  0  0  0
  189.5510  172.3920  144.6540 C   0  0  0  0  0  1  0  0  0  0  0  0
  188.8890  174.1690  142.9080 C   0  0  0  0  0  1  0  0  0  0  0  0
  189.0220  172.7990  142.2710 C   0  0  0  0  0  2  0  0  0  0  0  0
  1  8  1  0  0  0  0
  1  6  2  0  0  0  0
  2  7  1  0  0  0  0
  2  4  2  0  0  0  0
  4  5  1  0  0  0  0
  5  3  1  1  0  0  0
  6 10  1  0  0  0  0
  7  9  1  0  0  0  0
  8 11  1  1  0  0  0
  8  2  1  0  0  0  0
  9  5  1  0  0  0  0
  9  3  1  1  0  0  0
 10  4  1  0  0  0  0
 12 17  2  0  0  0  0
 13  7  1  0  0  0  0
 15 12  1  1  0  0  0
 15 21  1  0  0  0  0
 15 19  1  0  0  0  0
 17 13  1  0  0  0  0
 17 14  1  0  0  0  0
 18 16  2  0  0  0  0
 19 14  1  1  0  0  0
 19 16  1  0  0  0  0
 21 20  1  1  0  0  0
 21 18  1  0  0  0  0
 22  6  1  0  0  0  0
 22 26  1  1  0  0  0
 22 25  1  0  0  0  0
 23 25  1  0  0  0  0
 25 24  1  0  0  0  0
 27 31  1  0  0  0  0
 28 29  1  0  0  0  0
 28 27  1  0  0  0  0
 29 30  1  0  0  0  0
 30 31  1  0  0  0  0
 30 32  1  1  0  0  0
 30 26  1  0  0  0  0
 33 35  2  6  0  0  0
 33 36  1  0  0  0  0
 33 32  1  0  0  0  0
 34 33  1  0  0  0  0
 36 37  1  1  0  0  0
 39 38  1  0  0  0  0
 39 36  1  0  0  0  0
M  END
>  <MODEL>
1

>  <REMARK>
 VINA RESULT:      -7.2      0.000      0.000
  Name = 
  9 active torsions:
  status: ('A' for Active; 'I' for Inactive)
    1  A    between atoms: P_1  and  C_10
    2  A    between atoms: P_1  and  C_22
    3  A    between atoms: N_6  and  N_24
    4  A    between atoms: C_7  and  C_26
    5  A    between atoms: C_7  and  C_35
    6  A    between atoms: C_10  and  C_39
    7  A    between atoms: C_18  and  C_35
    8  A    between atoms: C_22  and  C_26
    9  A    between atoms: S_33  and  C_35
                            x       y       z     vdW  Elec       q    Type
                         _______ _______ _______ _____ _____    ______ ____

>  <TORSDO>
F 9

$$$$
=
 OpenBabel11072409253D

 39 44  0  0  1  0  0  0  0  0999 V2000
  187.1140  175.8870  142.0890 N   0  0  0  0  0  0  0  0  0  0  0  0
  185.3180  177.3960  142.8440 C   0  0  0  0  0  0  0  0  0  0  0  0
  185.2090  179.8700  144.3280 C   0  0  0  0  0  2  0  0  0  0  0  0
  185.9350  177.5230  143.9920 C   0  0  0  0  0  0  0  0  0  0  0  0
  185.2420  178.4690  144.9200 C   0  0  2  0  0  3  0  0  0  0  0  0
  187.7090  175.9970  143.2480 C   0  0  0  0  0  0  0  0  0  0  0  0
  184.1650  178.2260  142.8150 N   0  0  0  0  0  0  0  0  0  0  0  0
  185.9780  176.7220  141.6670 C   0  0  1  0  0  3  0  0  0  0  0  0
  184.0360  178.9320  144.0880 C   0  0  2  0  0  3  0  0  0  0  0  0
  187.1750  176.8700  144.2520 N   0  0  0  0  0  2  0  0  0  0  0  0
  186.5740  177.9600  140.5320 Cl  0  0  0  0  0  0  0  0  0  0  0  0
  181.4630  178.7480  140.3860 N   0  0  0  0  0  0  0  0  0  0  0  0
  183.4760  178.6260  141.6580 N   0  0  0  0  0  2  0  0  0  0  0  0
  181.1170  178.4000  142.6690 C   0  0  0  0  0  2  0  0  0  0  0  0
  180.0920  178.6190  140.7130 C   0  0  1  0  0  3  0  0  0  0  0  0
  178.6890  179.0090  142.4890 C   0  0  0  0  0  3  0  0  0  0  0  0
  182.0560  178.5360  141.5250 C   0  0  0  0  0  0  0  0  0  0  0  0
  178.1880  179.6020  141.4440 N   0  0  0  0  0  0  0  0  0  0  0  0
  179.9290  178.3610  142.0890 C   0  0  2  0  0  3  0  0  0  0  0  0
  179.1170  180.2390  139.2000 N   0  0  0  0  0  1  0  0  0  0  0  0
  179.0860  179.3900  140.3430 C   0  0  1  0  0  3  0  0  0  0  0  0
  188.9130  175.1650  143.5710 C   0  0  1  0  0  3  0  0  0  0  0  0
  189.6920  172.8450  142.5800 O   0  0  0  0  0  1  0  0  0  0  0  0
  191.1040  174.8430  141.9150 O   0  0  0  0  0  1  0  0  0  0  0  0
  189.5080  174.2820  142.1090 S   0  0  0  0  0  3  0  0  0  0  0  0
  190.0460  175.9970  144.1770 C   0  0  0  0  0  2  0  0  0  0  0  0
  189.0490  174.7700  147.2310 C   0  0  0  0  0  2  0  0  0  0  0  0
  189.3320  176.2450  147.2370 C   0  0  0  0  0  2  0  0  0  0  0  0
  190.5060  176.4650  146.4990 O   0  0  0  0  0  0  0  0  0  0  0  0
  190.5580  175.4530  145.5140 C   0  0  1  0  0  0  0  0  0  0  0  0
  189.6430  174.3190  145.9330 C   0  0  0  0  0  2  0  0  0  0  0  0
  191.9700  174.8660  145.3320 C   0  0  0  0  0  2  0  0  0  0  0  0
  193.3730  176.0450  145.4080 P   0  0  2  0  0  0  0  0  0  0  0  0
  193.6260  176.4880  146.8330 O   0  0  0  0  0  1  0  0  0  0  0  0
  192.9570  177.4030  144.4880 O   0  0  0  0  0  0  0  0  0  0  0  0
  194.8920  175.3230  144.6990 C   0  0  1  0  0  3  0  0  0  0  0  0
  195.7210  176.3900  144.0130 C   0  0  0  0  0  1  0  0  0  0  0  0
  195.7880  173.1590  145.5630 C   0  0  0  0  0  1  0  0  0  0  0  0
  195.7270  174.6590  145.7820 C   0  0  0  0  0  2  0  0  0  0  0  0
  1  6  2  0  0  0  0
  2  4  2  0  0  0  0
  4 10  1  0  0  0  0
  4  5  1  0  0  0  0
  5  3  1  6  0  0  0
  6 22  1  0  0  0  0
  6 10  1  0  0  0  0
  7  2  1  0  0  0  0
  7  9  1  0  0  0  0
  8 11  1  6  0  0  0
  8  1  1  0  0  0  0
  8  2  1  0  0  0  0
  9  3  1  6  0  0  0
  9  5  1  0  0  0  0
 12 17  2  0  0  0  0
 13  7  1  0  0  0  0
 15 12  1  1  0  0  0
 15 19  1  0  0  0  0
 17 13  1  0  0  0  0
 17 14  1  0  0  0  0
 18 16  2  0  0  0  0
 19 16  1  1  0  0  0
 19 14  1  0  0  0  0
 21 20  1  1  0  0  0
 21 15  1  0  0  0  0
 21 18  1  0  0  0  0
 22 26  1  6  0  0  0
 24 25  1  0  0  0  0
 25 23  1  0  0  0  0
 25 22  1  0  0  0  0
 27 28  1  0  0  0  0
 29 28  1  0  0  0  0
 30 26  1  6  0  0  0
 30 31  1  0  0  0  0
 30 29  1  0  0  0  0
 31 27  1  0  0  0  0
 32 33  1  0  0  0  0
 32 30  1  0  0  0  0
 33 35  2  6  0  0  0
 33 34  1  0  0  0  0
 36 37  1  1  0  0  0
 36 33  1  0  0  0  0
 36 39  1  0  0  0  0
 38 39  1  0  0  0  0
M  END
>  <MODEL>
2

>  <REMARK>
 VINA RESULT:      -7.0      4.206      7.161
  Name = 
  9 active torsions:
  status: ('A' for Active; 'I' for Inactive)
    1  A    between atoms: P_1  and  C_10
    2  A    between atoms: P_1  and  C_22
    3  A    between atoms: N_6  and  N_24
    4  A    between atoms: C_7  and  C_26
    5  A    between atoms: C_7  and  C_35
    6  A    between atoms: C_10  and  C_39
    7  A    between atoms: C_18  and  C_35
    8  A    between atoms: C_22  and  C_26
    9  A    between atoms: S_33  and  C_35
                            x       y       z     vdW  Elec       q    Type
                         _______ _______ _______ _____ _____    ______ ____

>  <TORSDO>
F 9

$$$$
=
 OpenBabel11072409253D

 39 44  0  0  1  0  0  0  0  0999 V2000
  193.2400  174.9630  143.7540 N   0  0  0  0  0  0  0  0  0  0  0  0
  191.4140  175.6080  145.2770 C   0  0  0  0  0  0  0  0  0  0  0  0
  191.2610  176.7770  147.9130 C   0  0  0  0  0  2  0  0  0  0  0  0
  192.1000  175.1130  146.2770 C   0  0  0  0  0  0  0  0  0  0  0  0
  191.4170  175.2970  147.5950 C   0  0  2  0  0  3  0  0  0  0  0  0
  193.9060  174.4460  144.7540 C   0  0  0  0  0  0  0  0  0  0  0  0
  190.2140  176.2010  145.7550 N   0  0  0  0  0  0  0  0  0  0  0  0
  192.0300  175.7850  143.9120 C   0  0  1  0  0  3  0  0  0  0  0  0
  190.1310  176.0430  147.2050 C   0  0  2  0  0  3  0  0  0  0  0  0
  193.3920  174.5410  146.0880 N   0  0  0  0  0  2  0  0  0  0  0  0
  192.4710  177.4950  143.6770 Cl  0  0  0  0  0  0  0  0  0  0  0  0
  187.2880  177.8830  144.3130 N   0  0  0  0  0  0  0  0  0  0  0  0
  189.4240  177.1250  145.0510 N   0  0  0  0  0  2  0  0  0  0  0  0
  187.1980  176.4690  146.1690 C   0  0  0  0  0  2  0  0  0  0  0  0
  185.9610  177.6310  144.7390 C   0  0  1  0  0  3  0  0  0  0  0  0
  184.8270  177.1240  146.6710 C   0  0  0  0  0  3  0  0  0  0  0  0
  187.9960  177.1330  145.1060 C   0  0  0  0  0  0  0  0  0  0  0  0
  184.2540  178.1600  146.1280 N   0  0  0  0  0  0  0  0  0  0  0  0
  185.9490  176.7360  145.8280 C   0  0  2  0  0  3  0  0  0  0  0  0
  184.9490  179.7980  144.3580 N   0  0  0  0  0  1  0  0  0  0  0  0
  184.9870  178.5000  144.9410 C   0  0  1  0  0  3  0  0  0  0  0  0
  195.1770  173.6880  144.5150 C   0  0  1  0  0  3  0  0  0  0  0  0
  197.0090  174.5040  142.7960 O   0  0  0  0  0  1  0  0  0  0  0  0
  197.8180  174.1740  145.1760 O   0  0  0  0  0  1  0  0  0  0  0  0
  196.5620  174.8130  144.2190 S   0  0  0  0  0  3  0  0  0  0  0  0
  195.5100  172.7390  145.6680 C   0  0  0  0  0  2  0  0  0  0  0  0
  197.8680  170.3750  144.8450 C   0  0  0  0  0  2  0  0  0  0  0  0
  197.3090  171.1080  143.6580 C   0  0  0  0  0  2  0  0  0  0  0  0
  195.9210  171.2250  143.8350 O   0  0  0  0  0  0  0  0  0  0  0  0
  195.6960  171.2820  145.2290 C   0  0  1  0  0  0  0  0  0  0  0  0
  196.9170  170.7370  145.9420 C   0  0  0  0  0  2  0  0  0  0  0  0
  194.4840  170.4440  145.6750 C   0  0  0  0  0  2  0  0  0  0  0  0
  193.6240  169.4750  144.3770 P   0  0  2  0  0  0  0  0  0  0  0  0
  192.6980  168.4500  144.9970 O   0  0  0  0  0  1  0  0  0  0  0  0
  194.8010  168.6620  143.4740 O   0  0  0  0  0  0  0  0  0  0  0  0
  192.6870  170.5580  143.2450 C   0  0  1  0  0  3  0  0  0  0  0  0
  191.7970  169.7360  142.3350 C   0  0  0  0  0  1  0  0  0  0  0  0
  190.5280  171.8090  143.3010 C   0  0  0  0  0  1  0  0  0  0  0  0
  191.8320  171.5420  144.0270 C   0  0  0  0  0  2  0  0  0  0  0  0
  1  8  1  0  0  0  0
  1  6  2  0  0  0  0
  2  7  1  0  0  0  0
  2  4  2  0  0  0  0
  4  5  1  0  0  0  0
  5  3  1  1  0  0  0
  6 10  1  0  0  0  0
  7  9  1  0  0  0  0
  8 11  1  1  0  0  0
  8  2  1  0  0  0  0
  9  5  1  0  0  0  0
  9  3  1  1  0  0  0
 10  4  1  0  0  0  0
 12 17  2  0  0  0  0
 13 17  1  0  0  0  0
 13  7  1  0  0  0  0
 15 12  1  1  0  0  0
 15 21  1  0  0  0  0
 15 19  1  0  0  0  0
 17 14  1  0  0  0  0
 18 16  2  0  0  0  0
 19 14  1  1  0  0  0
 19 16  1  0  0  0  0
 21 20  1  1  0  0  0
 21 18  1  0  0  0  0
 22  6  1  0  0  0  0
 22 26  1  1  0  0  0
 23 25  1  0  0  0  0
 25 22  1  0  0  0  0
 25 24  1  0  0  0  0
 27 31  1  0  0  0  0
 28 29  1  0  0  0  0
 28 27  1  0  0  0  0
 29 30  1  0  0  0  0
 30 26  1  1  0  0  0
 30 32  1  0  0  0  0
 30 31  1  0  0  0  0
 33 35  2  6  0  0  0
 33 34  1  0  0  0  0
 33 32  1  0  0  0  0
 36 37  1  6  0  0  0
 36 39  1  0  0  0  0
 36 33  1  0  0  0  0
 38 39  1  0  0  0  0
M  END
>  <MODEL>
3

>  <REMARK>
 VINA RESULT:      -7.0      1.566      2.026
  Name = 
  9 active torsions:
  status: ('A' for Active; 'I' for Inactive)
    1  A    between atoms: P_1  and  C_10
    2  A    between atoms: P_1  and  C_22
    3  A    between atoms: N_6  and  N_24
    4  A    between atoms: C_7  and  C_26
    5  A    between atoms: C_7  and  C_35
    6  A    between atoms: C_10  and  C_39
    7  A    between atoms: C_18  and  C_35
    8  A    between atoms: C_22  and  C_26
    9  A    between atoms: S_33  and  C_35
                            x       y       z     vdW  Elec       q    Type
                         _______ _______ _______ _____ _____    ______ ____

>  <TORSDO>
F 9

$$$$
=
 OpenBabel11072409253D

 39 44  0  0  1  0  0  0  0  0999 V2000
  190.0510  172.6880  142.6020 N   0  0  0  0  0  0  0  0  0  0  0  0
  190.0160  174.9700  143.5300 C   0  0  0  0  0  0  0  0  0  0  0  0
  191.5280  177.3880  143.0810 C   0  0  0  0  0  2  0  0  0  0  0  0
  191.3260  174.9620  143.5480 C   0  0  0  0  0  0  0  0  0  0  0  0
  191.9060  176.2550  144.0230 C   0  0  2  0  0  3  0  0  0  0  0  0
  191.3580  172.6770  142.6490 C   0  0  0  0  0  0  0  0  0  0  0  0
  189.5310  176.2360  143.9560 N   0  0  0  0  0  0  0  0  0  0  0  0
  189.2320  173.8890  142.8290 C   0  0  1  0  0  3  0  0  0  0  0  0
  190.6560  177.1060  144.2940 C   0  0  2  0  0  3  0  0  0  0  0  0
  192.0730  173.8420  143.0780 N   0  0  0  0  0  2  0  0  0  0  0  0
  188.6620  174.4950  141.2530 Cl  0  0  0  0  0  0  0  0  0  0  0  0
  186.0120  177.1370  144.4820 N   0  0  0  0  0  0  0  0  0  0  0  0
  188.2370  176.7330  143.7270 N   0  0  0  0  0  2  0  0  0  0  0  0
  187.5530  176.8280  146.2090 C   0  0  0  0  0  2  0  0  0  0  0  0
  185.4110  177.1960  145.7630 C   0  0  1  0  0  3  0  0  0  0  0  0
  185.9700  177.7670  147.9160 C   0  0  0  0  0  3  0  0  0  0  0  0
  187.2490  176.8400  144.7550 C   0  0  0  0  0  0  0  0  0  0  0  0
  184.8970  178.4280  147.5910 N   0  0  0  0  0  0  0  0  0  0  0  0
  186.3640  176.9570  146.7730 C   0  0  2  0  0  3  0  0  0  0  0  0
  183.7710  178.9430  145.4080 N   0  0  0  0  0  1  0  0  0  0  0  0
  184.5700  178.1010  146.2320 C   0  0  1  0  0  3  0  0  0  0  0  0
  192.1240  171.4300  142.3240 C   0  0  1  0  0  3  0  0  0  0  0  0
  190.8370  169.1500  141.9740 O   0  0  0  0  0  1  0  0  0  0  0  0
  192.4080  169.8140  140.0970 O   0  0  0  0  0  1  0  0  0  0  0  0
  191.2090  170.3860  141.1640 S   0  0  0  0  0  3  0  0  0  0  0  0
  193.5160  171.7350  141.7670 C   0  0  0  0  0  2  0  0  0  0  0  0
  195.6810  169.0940  142.1710 C   0  0  0  0  0  2  0  0  0  0  0  0
  194.4280  168.9780  142.9920 C   0  0  0  0  0  2  0  0  0  0  0  0
  194.1550  170.2380  143.5480 O   0  0  0  0  0  0  0  0  0  0  0  0
  194.6560  171.1960  142.6390 C   0  0  1  0  0  0  0  0  0  0  0  0
  195.6580  170.5220  141.7230 C   0  0  0  0  0  2  0  0  0  0  0  0
  195.3770  172.3650  143.3360 C   0  0  0  0  0  2  0  0  0  0  0  0
  195.3770  172.3610  145.1700 P   0  0  2  0  0  0  0  0  0  0  0  0
  195.9920  171.0860  145.7050 O   0  0  0  0  0  1  0  0  0  0  0  0
  193.7690  172.4430  145.6880 O   0  0  0  0  0  0  0  0  0  0  0  0
  196.2630  173.8100  145.8410 C   0  0  1  0  0  3  0  0  0  0  0  0
  197.4870  174.1210  145.0040 C   0  0  0  0  0  1  0  0  0  0  0  0
  195.5750  175.8890  144.6430 C   0  0  0  0  0  1  0  0  0  0  0  0
  195.3550  175.0280  145.8730 C   0  0  0  0  0  2  0  0  0  0  0  0
  1  6  2  0  0  0  0
  1  8  1  0  0  0  0
  2  4  2  0  0  0  0
  2  7  1  0  0  0  0
  4  5  1  0  0  0  0
  5  3  1  6  0  0  0
  5  9  1  0  0  0  0
  6 10  1  0  0  0  0
  7  9  1  0  0  0  0
  8 11  1  6  0  0  0
  8  2  1  0  0  0  0
  9  3  1  6  0  0  0
 10  4  1  0  0  0  0
 12 17  2  0  0  0  0
 13  7  1  0  0  0  0
 13 17  1  0  0  0  0
 15 12  1  6  0  0  0
 15 21  1  0  0  0  0
 15 19  1  0  0  0  0
 17 14  1  0  0  0  0
 18 16  2  0  0  0  0
 19 14  1  6  0  0  0
 19 16  1  0  0  0  0
 21 20  1  6  0  0  0
 21 18  1  0  0  0  0
 22 26  1  6  0  0  0
 22  6  1  0  0  0  0
 24 25  1  0  0  0  0
 25 23  1  0  0  0  0
 25 22  1  0  0  0  0
 27 28  1  0  0  0  0
 28 29  1  0  0  0  0
 30 26  1  6  0  0  0
 30 32  1  0  0  0  0
 30 29  1  0  0  0  0
 31 27  1  0  0  0  0
 31 30  1  0  0  0  0
 32 33  1  0  0  0  0
 33 35  2  1  0  0  0
 33 34  1  0  0  0  0
 33 36  1  0  0  0  0
 36 37  1  6  0  0  0
 36 39  1  0  0  0  0
 38 39  1  0  0  0  0
M  END
>  <MODEL>
4

>  <REMARK>
 VINA RESULT:      -6.8      2.594      4.391
  Name = 
  9 active torsions:
  status: ('A' for Active; 'I' for Inactive)
    1  A    between atoms: P_1  and  C_10
    2  A    between atoms: P_1  and  C_22
    3  A    between atoms: N_6  and  N_24
    4  A    between atoms: C_7  and  C_26
    5  A    between atoms: C_7  and  C_35
    6  A    between atoms: C_10  and  C_39
    7  A    between atoms: C_18  and  C_35
    8  A    between atoms: C_22  and  C_26
    9  A    between atoms: S_33  and  C_35
                            x       y       z     vdW  Elec       q    Type
                         _______ _______ _______ _____ _____    ______ ____

>  <TORSDO>
F 9

$$$$
=
 OpenBabel11072409253D

 39 44  0  0  1  0  0  0  0  0999 V2000
  192.1670  177.0710  143.6230 N   0  0  0  0  0  0  0  0  0  0  0  0
  190.2030  176.2610  142.3760 C   0  0  0  0  0  0  0  0  0  0  0  0
  188.4970  173.9360  142.5260 C   0  0  0  0  0  2  0  0  0  0  0  0
  190.7070  175.0520  142.4060 C   0  0  0  0  0  0  0  0  0  0  0  0
  189.8140  174.0360  141.7710 C   0  0  2  0  0  3  0  0  0  0  0  0
  192.6770  175.8680  143.6250 C   0  0  0  0  0  0  0  0  0  0  0  0
  188.9250  176.2390  141.7550 N   0  0  0  0  0  0  0  0  0  0  0  0
  190.7930  177.3800  143.1960 C   0  0  1  0  0  3  0  0  0  0  0  0
  188.6040  174.8770  141.3350 C   0  0  2  0  0  3  0  0  0  0  0  0
  191.9440  174.7740  143.0580 N   0  0  0  0  0  2  0  0  0  0  0  0
  189.7930  177.6440  144.6470 Cl  0  0  0  0  0  0  0  0  0  0  0  0
  185.8990  178.0490  142.7770 N   0  0  0  0  0  0  0  0  0  0  0  0
  187.9490  177.2440  141.8630 N   0  0  0  0  0  2  0  0  0  0  0  0
  186.8840  176.3410  144.0280 C   0  0  0  0  0  2  0  0  0  0  0  0
  185.1250  177.6880  143.9060 C   0  0  1  0  0  3  0  0  0  0  0  0
  185.4290  176.8290  146.0140 C   0  0  0  0  0  3  0  0  0  0  0  0
  186.8830  177.1980  142.8140 C   0  0  0  0  0  0  0  0  0  0  0  0
  184.7320  177.9220  146.1230 N   0  0  0  0  0  0  0  0  0  0  0  0
  185.7290  176.6230  144.6050 C   0  0  2  0  0  3  0  0  0  0  0  0
  184.2860  179.8560  144.5850 N   0  0  0  0  0  1  0  0  0  0  0  0
  184.5750  178.4800  144.8090 C   0  0  1  0  0  3  0  0  0  0  0  0
  194.0580  175.6240  144.1530 C   0  0  1  0  0  3  0  0  0  0  0  0
  194.6660  177.3680  146.0410 O   0  0  0  0  0  1  0  0  0  0  0  0
  195.4590  174.9950  146.4530 O   0  0  0  0  0  1  0  0  0  0  0  0
  194.1430  175.9410  145.9320 S   0  0  0  0  0  3  0  0  0  0  0  0
  194.5520  174.2070  143.8500 C   0  0  0  0  0  2  0  0  0  0  0  0
  197.9290  173.6740  143.4830 C   0  0  0  0  0  2  0  0  0  0  0  0
  197.5610  175.1220  143.6430 C   0  0  0  0  0  2  0  0  0  0  0  0
  196.4210  175.3690  142.8610 O   0  0  0  0  0  0  0  0  0  0  0  0
  195.6890  174.1610  142.8240 C   0  0  1  0  0  0  0  0  0  0  0  0
  196.6110  173.0200  143.2080 C   0  0  0  0  0  2  0  0  0  0  0  0
  195.1190  173.8470  141.4280 C   0  0  0  0  0  2  0  0  0  0  0  0
  195.0600  175.2330  140.2290 P   0  0  2  0  0  0  0  0  0  0  0  0
  194.8160  176.5480  140.9380 O   0  0  0  0  0  1  0  0  0  0  0  0
  193.7730  174.9460  139.1690 O   0  0  0  0  0  0  0  0  0  0  0  0
  196.5950  175.3310  139.2440 C   0  0  1  0  0  3  0  0  0  0  0  0
  197.6160  174.3310  139.7470 C   0  0  0  0  0  1  0  0  0  0  0  0
  197.4500  175.5640  136.9110 C   0  0  0  0  0  1  0  0  0  0  0  0
  196.3090  175.0620  137.7760 C   0  0  0  0  0  2  0  0  0  0  0  0
  1  6  2  0  0  0  0
  2  4  2  0  0  0  0
  2  8  1  0  0  0  0
  4 10  1  0  0  0  0
  5  4  1  0  0  0  0
  5  3  1  1  0  0  0
  6 22  1  0  0  0  0
  7 13  1  0  0  0  0
  7  2  1  0  0  0  0
  8  1  1  0  0  0  0
  8 11  1  1  0  0  0
  9  7  1  0  0  0  0
  9  5  1  0  0  0  0
  9  3  1  1  0  0  0
 10  6  1  0  0  0  0
 12 17  2  0  0  0  0
 13 17  1  0  0  0  0
 15 12  1  1  0  0  0
 15 19  1  0  0  0  0
 15 21  1  0  0  0  0
 16 18  2  0  0  0  0
 17 14  1  0  0  0  0
 19 14  1  1  0  0  0
 19 16  1  0  0  0  0
 21 20  1  1  0  0  0
 21 18  1  0  0  0  0
 22 26  1  1  0  0  0
 22 25  1  0  0  0  0
 25 23  1  0  0  0  0
 25 24  1  0  0  0  0
 27 28  1  0  0  0  0
 29 28  1  0  0  0  0
 30 32  1  6  0  0  0
 30 29  1  0  0  0  0
 30 31  1  0  0  0  0
 30 26  1  0  0  0  0
 31 27  1  0  0  0  0
 33 35  2  6  0  0  0
 33 34  1  0  0  0  0
 33 32  1  0  0  0  0
 36 37  1  1  0  0  0
 36 33  1  0  0  0  0
 38 39  1  0  0  0  0
 39 36  1  0  0  0  0
M  END
>  <MODEL>
5

>  <REMARK>
 VINA RESULT:      -6.7      3.177      4.769
  Name = 
  9 active torsions:
  status: ('A' for Active; 'I' for Inactive)
    1  A    between atoms: P_1  and  C_10
    2  A    between atoms: P_1  and  C_22
    3  A    between atoms: N_6  and  N_24
    4  A    between atoms: C_7  and  C_26
    5  A    between atoms: C_7  and  C_35
    6  A    between atoms: C_10  and  C_39
    7  A    between atoms: C_18  and  C_35
    8  A    between atoms: C_22  and  C_26
    9  A    between atoms: S_33  and  C_35
                            x       y       z     vdW  Elec       q    Type
                         _______ _______ _______ _____ _____    ______ ____

>  <TORSDO>
F 9

$$$$
=
 OpenBabel11072409253D

 39 44  0  0  1  0  0  0  0  0999 V2000
  190.1880  173.7260  142.6940 N   0  0  0  0  0  0  0  0  0  0  0  0
  192.1870  174.3000  144.0160 C   0  0  0  0  0  0  0  0  0  0  0  0
  192.8910  176.4150  145.8510 C   0  0  0  0  0  2  0  0  0  0  0  0
  192.0120  175.5590  143.6970 C   0  0  0  0  0  0  0  0  0  0  0  0
  193.0170  176.4630  144.3360 C   0  0  2  0  0  3  0  0  0  0  0  0
  190.0370  174.9810  142.3580 C   0  0  0  0  0  0  0  0  0  0  0  0
  193.2870  174.1720  144.9060 N   0  0  0  0  0  0  0  0  0  0  0  0
  191.1360  173.2600  143.7190 C   0  0  1  0  0  3  0  0  0  0  0  0
  193.8750  175.4870  145.1560 C   0  0  2  0  0  3  0  0  0  0  0  0
  190.9160  175.9800  142.8880 N   0  0  0  0  0  2  0  0  0  0  0  0
  190.2280  172.8920  145.2070 Cl  0  0  0  0  0  0  0  0  0  0  0  0
  194.6060  170.9590  146.0940 N   0  0  0  0  0  0  0  0  0  0  0  0
  193.5450  173.0630  145.7290 N   0  0  0  0  0  2  0  0  0  0  0  0
  195.6060  172.2420  144.4190 C   0  0  0  0  0  2  0  0  0  0  0  0
  195.7000  170.2980  145.4850 C   0  0  1  0  0  3  0  0  0  0  0  0
  197.6740  170.8200  144.4350 C   0  0  0  0  0  3  0  0  0  0  0  0
  194.5100  172.0600  145.4060 C   0  0  0  0  0  0  0  0  0  0  0  0
  197.9380  169.9730  145.3880 N   0  0  0  0  0  0  0  0  0  0  0  0
  196.2430  171.0840  144.4490 C   0  0  2  0  0  3  0  0  0  0  0  0
  196.6670  169.1760  147.4010 N   0  0  0  0  0  1  0  0  0  0  0  0
  196.7080  169.6770  146.0690 C   0  0  1  0  0  3  0  0  0  0  0  0
  188.9910  175.3840  141.3620 C   0  0  1  0  0  3  0  0  0  0  0  0
  187.9020  174.7910  139.0310 O   0  0  0  0  0  1  0  0  0  0  0  0
  187.8050  172.9550  140.7770 O   0  0  0  0  0  1  0  0  0  0  0  0
  188.8060  174.1350  140.0670 S   0  0  0  0  0  3  0  0  0  0  0  0
  187.6380  175.6560  142.0240 C   0  0  0  0  0  2  0  0  0  0  0  0
  185.1250  177.8320  141.1400 C   0  0  0  0  0  2  0  0  0  0  0  0
  186.1820  177.6690  140.0840 C   0  0  0  0  0  2  0  0  0  0  0  0
  187.4350  177.6750  140.7180 O   0  0  0  0  0  0  0  0  0  0  0  0
  187.2350  177.1350  142.0090 C   0  0  1  0  0  0  0  0  0  0  0  0
  185.7600  177.2150  142.3470 C   0  0  0  0  0  2  0  0  0  0  0  0
  188.0050  177.8960  143.1040 C   0  0  0  0  0  2  0  0  0  0  0  0
  187.7580  177.3330  144.8320 P   0  0  2  0  0  0  0  0  0  0  0  0
  188.8160  177.9180  145.7430 O   0  0  0  0  0  1  0  0  0  0  0  0
  187.9000  175.6480  144.8530 O   0  0  0  0  0  0  0  0  0  0  0  0
  186.0950  177.7710  145.4460 C   0  0  1  0  0  3  0  0  0  0  0  0
  185.8490  177.1510  146.8060 C   0  0  0  0  0  1  0  0  0  0  0  0
  185.0200  179.7930  144.4540 C   0  0  0  0  0  1  0  0  0  0  0  0
  185.9390  179.2790  145.5460 C   0  0  0  0  0  2  0  0  0  0  0  0
  1  8  1  0  0  0  0
  2  7  1  0  0  0  0
  4  2  2  0  0  0  0
  4  5  1  0  0  0  0
  5  9  1  0  0  0  0
  5  3  1  1  0  0  0
  6  1  2  0  0  0  0
  6 10  1  0  0  0  0
  7  9  1  0  0  0  0
  7 13  1  0  0  0  0
  8  2  1  0  0  0  0
  8 11  1  1  0  0  0
  9  3  1  1  0  0  0
 10  4  1  0  0  0  0
 14 17  1  0  0  0  0
 15 21  1  0  0  0  0
 15 12  1  1  0  0  0
 16 19  1  0  0  0  0
 16 18  2  0  0  0  0
 17 13  1  0  0  0  0
 17 12  2  0  0  0  0
 18 21  1  0  0  0  0
 19 14  1  1  0  0  0
 19 15  1  0  0  0  0
 21 20  1  1  0  0  0
 22 26  1  1  0  0  0
 22  6  1  0  0  0  0
 23 25  1  0  0  0  0
 25 24  1  0  0  0  0
 25 22  1  0  0  0  0
 27 31  1  0  0  0  0
 28 29  1  0  0  0  0
 28 27  1  0  0  0  0
 29 30  1  0  0  0  0
 30 26  1  1  0  0  0
 30 31  1  0  0  0  0
 30 32  1  0  0  0  0
 32 33  1  0  0  0  0
 33 35  2  1  0  0  0
 33 36  1  0  0  0  0
 33 34  1  0  0  0  0
 36 39  1  0  0  0  0
 36 37  1  1  0  0  0
 38 39  1  0  0  0  0
M  END
>  <MODEL>
6

>  <REMARK>
 VINA RESULT:      -6.7      4.177      9.058
  Name = 
  9 active torsions:
  status: ('A' for Active; 'I' for Inactive)
    1  A    between atoms: P_1  and  C_10
    2  A    between atoms: P_1  and  C_22
    3  A    between atoms: N_6  and  N_24
    4  A    between atoms: C_7  and  C_26
    5  A    between atoms: C_7  and  C_35
    6  A    between atoms: C_10  and  C_39
    7  A    between atoms: C_18  and  C_35
    8  A    between atoms: C_22  and  C_26
    9  A    between atoms: S_33  and  C_35
                            x       y       z     vdW  Elec       q    Type
                         _______ _______ _______ _____ _____    ______ ____

>  <TORSDO>
F 9

$$$$
=
 OpenBabel11072409253D

 39 44  0  0  1  0  0  0  0  0999 V2000
  192.3910  177.0460  143.1520 N   0  0  0  0  0  0  0  0  0  0  0  0
  190.0330  176.7700  142.4910 C   0  0  0  0  0  0  0  0  0  0  0  0
  188.1080  174.6220  142.6150 C   0  0  0  0  0  2  0  0  0  0  0  0
  190.3210  175.5760  142.0350 C   0  0  0  0  0  0  0  0  0  0  0  0
  189.1240  174.8540  141.5060 C   0  0  2  0  0  3  0  0  0  0  0  0
  192.6760  175.8640  142.6690 C   0  0  0  0  0  0  0  0  0  0  0  0
  188.6400  177.0170  142.3630 N   0  0  0  0  0  0  0  0  0  0  0  0
  191.0200  177.5560  143.3170 C   0  0  1  0  0  3  0  0  0  0  0  0
  187.9900  175.8630  141.7440 C   0  0  2  0  0  3  0  0  0  0  0  0
  191.6380  175.0380  142.1280 N   0  0  0  0  0  2  0  0  0  0  0  0
  190.5760  177.4440  145.0380 Cl  0  0  0  0  0  0  0  0  0  0  0  0
  186.3660  178.6310  144.7500 N   0  0  0  0  0  0  0  0  0  0  0  0
  187.9200  178.0060  143.0530 N   0  0  0  0  0  2  0  0  0  0  0  0
  187.3380  176.5340  145.0860 C   0  0  0  0  0  2  0  0  0  0  0  0
  185.8750  177.9840  145.9100 C   0  0  1  0  0  3  0  0  0  0  0  0
  186.5810  176.4620  147.4780 C   0  0  0  0  0  3  0  0  0  0  0  0
  187.1600  177.7380  144.2330 C   0  0  0  0  0  0  0  0  0  0  0  0
  186.1410  177.5120  148.1080 N   0  0  0  0  0  0  0  0  0  0  0  0
  186.4480  176.7040  146.0490 C   0  0  2  0  0  3  0  0  0  0  0  0
  185.6420  179.8710  147.4100 N   0  0  0  0  0  1  0  0  0  0  0  0
  185.7350  178.4790  147.1260 C   0  0  1  0  0  3  0  0  0  0  0  0
  194.0950  175.3850  142.6100 C   0  0  1  0  0  3  0  0  0  0  0  0
  194.9160  175.4880  140.1020 O   0  0  0  0  0  1  0  0  0  0  0  0
  196.6650  176.0640  141.8460 O   0  0  0  0  0  1  0  0  0  0  0  0
  195.0450  176.3090  141.3790 S   0  0  0  0  0  3  0  0  0  0  0  0
  194.7890  175.4620  143.9720 C   0  0  0  0  0  2  0  0  0  0  0  0
  197.2030  173.5930  145.5560 C   0  0  0  0  0  2  0  0  0  0  0  0
  197.1600  173.3880  144.0680 C   0  0  0  0  0  2  0  0  0  0  0  0
  195.8140  173.2980  143.6800 O   0  0  0  0  0  0  0  0  0  0  0  0
  195.0790  174.0900  144.5900 C   0  0  1  0  0  0  0  0  0  0  0  0
  195.9190  174.3110  145.8320 C   0  0  0  0  0  2  0  0  0  0  0  0
  193.7600  173.4280  145.0330 C   0  0  0  0  0  2  0  0  0  0  0  0
  193.2350  171.9320  144.1110 P   0  0  2  0  0  0  0  0  0  0  0  0
  193.4680  172.1070  142.6260 O   0  0  0  0  0  0  0  0  0  0  0  0
  191.5780  171.7170  144.3740 O   0  0  0  0  0  1  0  0  0  0  0  0
  194.1030  170.4410  144.7070 C   0  0  1  0  0  3  0  0  0  0  0  0
  195.1260  169.9760  143.6910 C   0  0  0  0  0  1  0  0  0  0  0  0
  196.1830  170.0950  146.0430 C   0  0  0  0  0  1  0  0  0  0  0  0
  194.8000  170.7180  146.0290 C   0  0  0  0  0  2  0  0  0  0  0  0
  1  8  1  0  0  0  0
  2  8  1  0  0  0  0
  4 10  1  0  0  0  0
  4  2  2  0  0  0  0
  5  9  1  0  0  0  0
  5  4  1  0  0  0  0
  5  3  1  1  0  0  0
  6  1  2  0  0  0  0
  7  2  1  0  0  0  0
  7 13  1  0  0  0  0
  8 11  1  1  0  0  0
  9  7  1  0  0  0  0
  9  3  1  1  0  0  0
 10  6  1  0  0  0  0
 13 17  1  0  0  0  0
 15 12  1  6  0  0  0
 15 19  1  0  0  0  0
 15 21  1  0  0  0  0
 16 18  2  0  0  0  0
 17 12  2  0  0  0  0
 17 14  1  0  0  0  0
 19 14  1  6  0  0  0
 19 16  1  0  0  0  0
 21 20  1  6  0  0  0
 21 18  1  0  0  0  0
 22  6  1  0  0  0  0
 22 26  1  1  0  0  0
 23 25  1  0  0  0  0
 25 24  1  0  0  0  0
 25 22  1  0  0  0  0
 27 31  1  0  0  0  0
 28 27  1  0  0  0  0
 29 28  1  0  0  0  0
 29 30  1  0  0  0  0
 30 26  1  6  0  0  0
 30 32  1  0  0  0  0
 30 31  1  0  0  0  0
 33 34  2  6  0  0  0
 33 35  1  0  0  0  0
 33 36  1  0  0  0  0
 33 32  1  0  0  0  0
 36 37  1  6  0  0  0
 36 39  1  0  0  0  0
 39 38  1  0  0  0  0
M  END
>  <MODEL>
7

>  <REMARK>
 VINA RESULT:      -6.7      2.455      4.177
  Name = 
  9 active torsions:
  status: ('A' for Active; 'I' for Inactive)
    1  A    between atoms: P_1  and  C_10
    2  A    between atoms: P_1  and  C_22
    3  A    between atoms: N_6  and  N_24
    4  A    between atoms: C_7  and  C_26
    5  A    between atoms: C_7  and  C_35
    6  A    between atoms: C_10  and  C_39
    7  A    between atoms: C_18  and  C_35
    8  A    between atoms: C_22  and  C_26
    9  A    between atoms: S_33  and  C_35
                            x       y       z     vdW  Elec       q    Type
                         _______ _______ _______ _____ _____    ______ ____

>  <TORSDO>
F 9

$$$$
=
 OpenBabel11072409253D

 39 44  0  0  1  0  0  0  0  0999 V2000
  189.8280  173.1510  142.0140 N   0  0  0  0  0  0  0  0  0  0  0  0
  189.8430  175.3120  143.1980 C   0  0  0  0  0  0  0  0  0  0  0  0
  191.3600  177.7590  142.9760 C   0  0  0  0  0  2  0  0  0  0  0  0
  191.1530  175.2960  143.1690 C   0  0  0  0  0  0  0  0  0  0  0  0
  191.7610  176.5230  143.7680 C   0  0  2  0  0  3  0  0  0  0  0  0
  191.1350  173.1290  142.0140 C   0  0  0  0  0  0  0  0  0  0  0  0
  189.3840  176.5230  143.7830 N   0  0  0  0  0  0  0  0  0  0  0  0
  189.0270  174.3220  142.4060 C   0  0  1  0  0  3  0  0  0  0  0  0
  190.5270  177.3430  144.1790 C   0  0  2  0  0  3  0  0  0  0  0  0
  191.8740  174.2340  142.5480 N   0  0  0  0  0  2  0  0  0  0  0  0
  188.4080  175.1070  140.9310 Cl  0  0  0  0  0  0  0  0  0  0  0  0
  185.8880  177.3600  144.5250 N   0  0  0  0  0  0  0  0  0  0  0  0
  188.0870  177.0480  143.6580 N   0  0  0  0  0  2  0  0  0  0  0  0
  187.4780  176.8300  146.1520 C   0  0  0  0  0  2  0  0  0  0  0  0
  185.3260  177.2580  145.8200 C   0  0  1  0  0  3  0  0  0  0  0  0
  185.9520  177.5480  148.0110 C   0  0  0  0  0  3  0  0  0  0  0  0
  187.1310  177.0270  144.7200 C   0  0  0  0  0  0  0  0  0  0  0  0
  184.8750  178.2490  147.8050 N   0  0  0  0  0  0  0  0  0  0  0  0
  186.3070  176.8890  146.7630 C   0  0  2  0  0  3  0  0  0  0  0  0
  183.6880  179.0400  145.7390 N   0  0  0  0  0  1  0  0  0  0  0  0
  184.5060  178.0980  146.4250 C   0  0  1  0  0  3  0  0  0  0  0  0
  191.8780  171.9240  141.5210 C   0  0  1  0  0  3  0  0  0  0  0  0
  193.1800  169.8110  142.4240 O   0  0  0  0  0  1  0  0  0  0  0  0
  192.0170  171.2110  144.1890 O   0  0  0  0  0  1  0  0  0  0  0  0
  192.9890  171.2770  142.7930 S   0  0  0  0  0  3  0  0  0  0  0  0
  190.9350  170.8200  141.0390 C   0  0  0  0  0  2  0  0  0  0  0  0
  192.1230  168.9680  138.3950 C   0  0  0  0  0  2  0  0  0  0  0  0
  192.9330  170.2000  138.6810 C   0  0  0  0  0  2  0  0  0  0  0  0
  192.0430  171.2550  138.9400 O   0  0  0  0  0  0  0  0  0  0  0  0
  190.8890  170.6760  139.5140 C   0  0  1  0  0  0  0  0  0  0  0  0
  190.8740  169.1950  139.1890 C   0  0  0  0  0  2  0  0  0  0  0  0
  189.5810  171.2830  138.9720 C   0  0  0  0  0  2  0  0  0  0  0  0
  189.7260  172.8400  138.0150 P   0  0  2  0  0  0  0  0  0  0  0  0
  190.7450  173.7650  138.6440 O   0  0  0  0  0  1  0  0  0  0  0  0
  188.2170  173.6040  138.0390 O   0  0  0  0  0  0  0  0  0  0  0  0
  190.1700  172.5150  136.2740 C   0  0  1  0  0  3  0  0  0  0  0  0
  191.6520  172.7390  136.0500 C   0  0  0  0  0  1  0  0  0  0  0  0
  190.9960  170.4070  135.2230 C   0  0  0  0  0  1  0  0  0  0  0  0
  189.8140  171.0890  135.8860 C   0  0  0  0  0  2  0  0  0  0  0  0
  1  6  2  0  0  0  0
  1  8  1  0  0  0  0
  2  7  1  0  0  0  0
  4  2  2  0  0  0  0
  4  5  1  0  0  0  0
  5  3  1  6  0  0  0
  5  9  1  0  0  0  0
  6 10  1  0  0  0  0
  7  9  1  0  0  0  0
  8 11  1  6  0  0  0
  8  2  1  0  0  0  0
  9  3  1  6  0  0  0
 10  4  1  0  0  0  0
 12 17  2  0  0  0  0
 13  7  1  0  0  0  0
 13 17  1  0  0  0  0
 15 12  1  6  0  0  0
 15 21  1  0  0  0  0
 15 19  1  0  0  0  0
 17 14  1  0  0  0  0
 18 16  2  0  0  0  0
 19 14  1  6  0  0  0
 19 16  1  0  0  0  0
 21 20  1  6  0  0  0
 21 18  1  0  0  0  0
 22 26  1  1  0  0  0
 22  6  1  0  0  0  0
 22 25  1  0  0  0  0
 23 25  1  0  0  0  0
 25 24  1  0  0  0  0
 27 28  1  0  0  0  0
 27 31  1  0  0  0  0
 28 29  1  0  0  0  0
 29 30  1  0  0  0  0
 30 32  1  6  0  0  0
 30 26  1  0  0  0  0
 31 30  1  0  0  0  0
 33 35  2  1  0  0  0
 33 34  1  0  0  0  0
 33 32  1  0  0  0  0
 36 37  1  1  0  0  0
 36 33  1  0  0  0  0
 38 39  1  0  0  0  0
 39 36  1  0  0  0  0
M  END
>  <MODEL>
8

>  <REMARK>
 VINA RESULT:      -6.6      3.614      4.696
  Name = 
  9 active torsions:
  status: ('A' for Active; 'I' for Inactive)
    1  A    between atoms: P_1  and  C_10
    2  A    between atoms: P_1  and  C_22
    3  A    between atoms: N_6  and  N_24
    4  A    between atoms: C_7  and  C_26
    5  A    between atoms: C_7  and  C_35
    6  A    between atoms: C_10  and  C_39
    7  A    between atoms: C_18  and  C_35
    8  A    between atoms: C_22  and  C_26
    9  A    between atoms: S_33  and  C_35
                            x       y       z     vdW  Elec       q    Type
                         _______ _______ _______ _____ _____    ______ ____

>  <TORSDO>
F 9

$$$$
=
 OpenBabel11072409253D

 39 44  0  0  1  0  0  0  0  0999 V2000
  189.0650  175.2290  146.1370 N   0  0  0  0  0  0  0  0  0  0  0  0
  191.3840  175.3200  145.3110 C   0  0  0  0  0  0  0  0  0  0  0  0
  193.4050  177.3720  145.0990 C   0  0  0  0  0  2  0  0  0  0  0  0
  191.1190  176.4750  144.7530 C   0  0  0  0  0  0  0  0  0  0  0  0
  192.3100  177.0810  144.0830 C   0  0  2  0  0  3  0  0  0  0  0  0
  188.8010  176.3690  145.5540 C   0  0  0  0  0  0  0  0  0  0  0  0
  192.7550  174.9930  145.1260 N   0  0  0  0  0  0  0  0  0  0  0  0
  190.4200  174.6710  146.2720 C   0  0  1  0  0  3  0  0  0  0  0  0
  193.4120  176.0450  144.3550 C   0  0  2  0  0  3  0  0  0  0  0  0
  189.8360  177.0850  144.8700 N   0  0  0  0  0  2  0  0  0  0  0  0
  190.9790  174.9320  147.9430 Cl  0  0  0  0  0  0  0  0  0  0  0  0
  194.3150  171.8280  146.1380 N   0  0  0  0  0  0  0  0  0  0  0  0
  193.4740  174.0430  145.8710 N   0  0  0  0  0  2  0  0  0  0  0  0
  193.7940  172.3800  143.9290 C   0  0  0  0  0  2  0  0  0  0  0  0
  194.5360  170.7530  145.2430 C   0  0  1  0  0  3  0  0  0  0  0  0
  195.0770  170.4160  143.0370 C   0  0  0  0  0  3  0  0  0  0  0  0
  193.8040  172.7460  145.3700 C   0  0  0  0  0  0  0  0  0  0  0  0
  195.9130  169.7330  143.7640 N   0  0  0  0  0  0  0  0  0  0  0  0
  194.1630  171.1100  143.9320 C   0  0  2  0  0  3  0  0  0  0  0  0
  196.5420  169.7840  146.1940 N   0  0  0  0  0  1  0  0  0  0  0  0
  195.5990  169.9750  145.1450 C   0  0  1  0  0  3  0  0  0  0  0  0
  187.4030  176.9100  145.5310 C   0  0  1  0  0  3  0  0  0  0  0  0
  186.0760  176.8130  147.8130 O   0  0  0  0  0  1  0  0  0  0  0  0
  185.9770  179.0310  146.5880 O   0  0  0  0  0  1  0  0  0  0  0  0
  187.0080  177.7660  147.0750 S   0  0  0  0  0  3  0  0  0  0  0  0
  187.1620  177.8400  144.3400 C   0  0  0  0  0  2  0  0  0  0  0  0
  184.7410  178.6750  142.0450 C   0  0  0  0  0  2  0  0  0  0  0  0
  184.1910  178.2890  143.3890 C   0  0  0  0  0  2  0  0  0  0  0  0
  184.9000  177.1650  143.8410 O   0  0  0  0  0  0  0  0  0  0  0  0
  186.2000  177.2630  143.2960 C   0  0  1  0  0  0  0  0  0  0  0  0
  186.1640  178.2200  142.1210 C   0  0  0  0  0  2  0  0  0  0  0  0
  186.7370  175.9150  142.7810 C   0  0  0  0  0  2  0  0  0  0  0  0
  188.1160  175.9800  141.5740 P   0  0  2  0  0  0  0  0  0  0  0  0
  188.9790  177.2010  141.8100 O   0  0  0  0  0  1  0  0  0  0  0  0
  187.4450  176.0860  140.0260 O   0  0  0  0  0  0  0  0  0  0  0  0
  189.1400  174.4700  141.6470 C   0  0  1  0  0  3  0  0  0  0  0  0
  190.6130  174.8240  141.6500 C   0  0  0  0  0  1  0  0  0  0  0  0
  188.2760  172.2950  142.5140 C   0  0  0  0  0  1  0  0  0  0  0  0
  188.8160  173.6610  142.8920 C   0  0  0  0  0  2  0  0  0  0  0  0
  1  8  1  0  0  0  0
  2  8  1  0  0  0  0
  4 10  1  0  0  0  0
  4  2  2  0  0  0  0
  5  9  1  0  0  0  0
  5  4  1  0  0  0  0
  5  3  1  1  0  0  0
  6  1  2  0  0  0  0
  7  2  1  0  0  0  0
  7 13  1  0  0  0  0
  8 11  1  1  0  0  0
  9  3  1  1  0  0  0
  9  7  1  0  0  0  0
 10  6  1  0  0  0  0
 14 19  1  0  0  0  0
 14 17  1  0  0  0  0
 15 12  1  1  0  0  0
 16 18  2  0  0  0  0
 17 13  1  0  0  0  0
 17 12  2  0  0  0  0
 18 21  1  0  0  0  0
 19 16  1  6  0  0  0
 19 15  1  0  0  0  0
 21 15  1  0  0  0  0
 21 20  1  6  0  0  0
 22 26  1  6  0  0  0
 22  6  1  0  0  0  0
 22 25  1  0  0  0  0
 24 25  1  0  0  0  0
 25 23  1  0  0  0  0
 27 31  1  0  0  0  0
 27 28  1  0  0  0  0
 28 29  1  0  0  0  0
 30 32  1  6  0  0  0
 30 29  1  0  0  0  0
 30 26  1  0  0  0  0
 31 30  1  0  0  0  0
 33 35  2  6  0  0  0
 33 36  1  0  0  0  0
 33 34  1  0  0  0  0
 33 32  1  0  0  0  0
 36 37  1  1  0  0  0
 36 39  1  0  0  0  0
 38 39  1  0  0  0  0
M  END
>  <MODEL>
9

>  <REMARK>
 VINA RESULT:      -6.6      4.033      8.712
  Name = 
  9 active torsions:
  status: ('A' for Active; 'I' for Inactive)
    1  A    between atoms: P_1  and  C_10
    2  A    between atoms: P_1  and  C_22
    3  A    between atoms: N_6  and  N_24
    4  A    between atoms: C_7  and  C_26
    5  A    between atoms: C_7  and  C_35
    6  A    between atoms: C_10  and  C_39
    7  A    between atoms: C_18  and  C_35
    8  A    between atoms: C_22  and  C_26
    9  A    between atoms: S_33  and  C_35
                            x       y       z     vdW  Elec       q    Type
                         _______ _______ _______ _____ _____    ______ ____

>  <TORSDO>
F 9

$$$$
