=
 OpenBabel11072409143D

 39 43  0  0  1  0  0  0  0  0999 V2000
  195.8540  172.6370  143.7990 C   0  0  0  0  0  0  0  0  0  0  0  0
  193.4450  172.2780  145.0090 S   0  0  0  0  0  0  0  0  0  0  0  0
  191.8950  170.9450  143.0170 C   0  0  0  0  0  2  0  0  0  0  0  0
  196.8790  171.0540  142.3580 C   0  0  0  0  0  2  0  0  0  0  0  0
  189.4300  176.0630  144.8330 C   0  0  1  0  0  3  0  0  0  0  0  0
  197.5580  173.1420  143.9560 S   0  0  0  0  0  0  0  0  0  0  0  0
  195.1720  176.7370  143.8850 O   0  0  0  0  0  0  0  0  0  0  0  0
  190.4710  176.6460  143.8660 C   0  0  0  0  0  2  0  0  0  0  0  0
  189.6640  171.6670  142.2060 C   0  0  0  0  0  2  0  0  0  0  0  0
  195.6590  171.5930  143.0040 C   0  0  0  0  0  0  0  0  0  0  0  0
  188.0680  175.8600  144.1420 C   0  0  2  0  0  3  0  0  0  0  0  0
  191.6710  172.6070  141.3170 O   0  0  0  0  0  1  0  0  0  0  0  0
  191.8240  176.9050  144.5140 C   0  0  0  0  0  2  0  0  0  0  0  0
  188.4880  173.6610  142.9680 N   0  0  0  0  0  2  0  0  0  0  0  0
  194.6930  173.4270  144.3360 C   0  0  1  0  0  3  0  0  0  0  0  0
  191.0880  172.1230  142.4910 C   0  0  2  0  0  3  0  0  0  0  0  0
  195.1180  174.3510  145.3780 N   0  0  0  0  0  2  0  0  0  0  0  0
  188.1860  175.0540  142.8690 C   0  0  0  0  0  0  0  0  0  0  0  0
  188.7860  172.8400  141.8040 C   0  0  0  0  0  2  0  0  0  0  0  0
  192.6200  175.6150  144.5340 C   0  0  0  0  0  2  0  0  0  0  0  0
  193.2550  171.3750  143.4580 C   0  0  0  0  0  0  0  0  0  0  0  0
  194.3290  176.7000  146.3620 O   0  0  0  0  0  1  0  0  0  0  0  0
  197.9410  172.1380  142.4810 C   0  0  0  0  0  2  0  0  0  0  0  0
  194.3150  171.0660  142.7040 C   0  0  0  0  0  3  0  0  0  0  0  0
  188.2750  175.6540  141.7230 N   0  0  0  0  0  2  0  0  0  0  0  0
  194.3290  175.8910  145.0840 P   0  0  2  0  0  0  0  0  0  0  0  0
  184.0430  178.2720  142.7860 C   0  0  0  0  0  2  0  0  0  0  0  0
  185.0380  179.4160  145.4500 O   0  0  0  0  0  0  0  0  0  0  0  0
  185.3070  178.0420  143.5080 C   0  0  2  0  0  0  0  0  0  0  0  0
  186.2030  177.0570  143.0810 O   0  0  0  0  0  0  0  0  0  0  0  0
  185.6630  178.5750  144.8220 C   0  0  0  0  0  0  0  0  0  0  0  0
  186.8960  177.9180  145.2640 C   0  0  2  0  0  3  0  0  0  0  0  0
  187.3140  177.1920  143.9580 C   0  0  1  0  0  3  0  0  0  0  0  0
  186.5490  176.9580  146.3950 C   0  0  0  0  0  1  0  0  0  0  0  0
  185.1900  179.0610  142.5480 O   0  0  0  0  0  0  0  0  0  0  0  0
  189.8990  174.7570  145.4750 C   0  0  0  0  0  2  0  0  0  0  0  0
  188.8600  174.5060  147.6050 O   0  0  0  0  0  0  0  0  0  0  0  0
  191.0100  175.3000  147.6390 O   0  0  0  0  0  1  0  0  0  0  0  0
  189.8830  174.8550  146.9610 C   0  0  0  0  0  0  0  0  0  0  0  0
  1  6  1  0  0  0  0
  3 21  1  0  0  0  0
  4 23  1  0  0  0  0
  4 10  1  0  0  0  0
  5 36  1  6  0  0  0
  8 13  1  0  0  0  0
  8  5  1  0  0  0  0
  9 16  1  0  0  0  0
 10  1  2  0  0  0  0
 11 18  1  6  0  0  0
 11  5  1  0  0  0  0
 13 20  1  0  0  0  0
 15  1  1  1  0  0  0
 15  2  1  0  0  0  0
 15 17  1  0  0  0  0
 16 12  1  6  0  0  0
 16  3  1  0  0  0  0
 18 14  1  0  0  0  0
 19  9  1  0  0  0  0
 19 14  1  0  0  0  0
 20 26  1  0  0  0  0
 21  2  1  0  0  0  0
 23  6  1  0  0  0  0
 24 10  1  0  0  0  0
 24 21  2  0  0  0  0
 25 18  2  0  0  0  0
 26  7  2  6  0  0  0
 26 17  1  0  0  0  0
 26 22  1  0  0  0  0
 29 27  1  1  0  0  0
 29 31  1  0  0  0  0
 30 29  1  0  0  0  0
 31 32  1  0  0  0  0
 31 28  2  0  0  0  0
 32 34  1  1  0  0  0
 33 30  1  6  0  0  0
 33 11  1  0  0  0  0
 33 32  1  0  0  0  0
 35 27  1  0  0  0  0
 35 29  1  0  0  0  0
 36 39  1  0  0  0  0
 39 37  2  0  0  0  0
 39 38  1  0  0  0  0
M  END
>  <MODEL>
1

>  <REMARK>
 VINA RESULT:      -8.7      0.000      0.000
  Name = 
  3 active torsions:
  status: ('A' for Active; 'I' for Inactive)
    1  A    between atoms: C_6  and  C_7
    2  A    between atoms: C_6  and  C_30
    3  A    between atoms: C_16  and  C_31
                            x       y       z     vdW  Elec       q    Type
                         _______ _______ _______ _____ _____    ______ ____

>  <TORSDO>
F 3

$$$$
=
 OpenBabel11072409143D

 39 43  0  0  1  0  0  0  0  0999 V2000
  186.1490  178.1780  143.7120 C   0  0  0  0  0  0  0  0  0  0  0  0
  188.6180  177.7370  142.6600 S   0  0  0  0  0  0  0  0  0  0  0  0
  188.1200  175.8660  140.5620 C   0  0  0  0  0  2  0  0  0  0  0  0
  184.1550  178.3300  142.4330 C   0  0  0  0  0  2  0  0  0  0  0  0
  192.0260  173.8470  144.5910 C   0  0  1  0  0  3  0  0  0  0  0  0
  185.1380  179.1250  144.8370 S   0  0  0  0  0  0  0  0  0  0  0  0
  187.4300  176.3520  147.2200 O   0  0  0  0  0  0  0  0  0  0  0  0
  190.7340  173.5660  145.3710 C   0  0  0  0  0  2  0  0  0  0  0  0
  189.2790  173.6930  140.2650 C   0  0  0  0  0  2  0  0  0  0  0  0
  185.5580  177.8700  142.5650 C   0  0  0  0  0  0  0  0  0  0  0  0
  192.4850  172.6120  143.7910 C   0  0  2  0  0  3  0  0  0  0  0  0
  187.4190  173.9140  141.7460 O   0  0  0  0  0  1  0  0  0  0  0  0
  190.2630  174.7440  146.2120 C   0  0  0  0  0  2  0  0  0  0  0  0
  190.9910  172.8160  141.7620 N   0  0  0  0  0  2  0  0  0  0  0  0
  187.4810  177.5850  144.0790 C   0  0  1  0  0  3  0  0  0  0  0  0
  188.5450  174.5820  141.2590 C   0  0  2  0  0  3  0  0  0  0  0  0
  188.0560  178.2520  145.2390 N   0  0  0  0  0  2  0  0  0  0  0  0
  191.3890  172.0620  142.9080 C   0  0  0  0  0  0  0  0  0  0  0  0
  189.8390  172.4570  140.9500 C   0  0  0  0  0  2  0  0  0  0  0  0
  189.4800  175.6990  145.3330 C   0  0  0  0  0  2  0  0  0  0  0  0
  187.5330  176.8390  141.5310 C   0  0  0  0  0  0  0  0  0  0  0  0
  189.7090  177.6370  147.2380 O   0  0  0  0  0  1  0  0  0  0  0  0
  183.6810  178.6610  143.8420 C   0  0  0  0  0  2  0  0  0  0  0  0
  186.2110  177.0430  141.5350 C   0  0  0  0  0  3  0  0  0  0  0  0
  190.6530  171.0780  143.3200 N   0  0  0  0  0  2  0  0  0  0  0  0
  188.6920  177.0130  146.3080 P   0  0  2  0  0  0  0  0  0  0  0  0
  195.0710  168.4980  144.2820 C   0  0  0  0  0  2  0  0  0  0  0  0
  196.1210  170.5760  146.2750 O   0  0  0  0  0  0  0  0  0  0  0  0
  194.5160  169.8050  144.6750 C   0  0  2  0  0  0  0  0  0  0  0  0
  193.4250  170.3510  143.9910 O   0  0  0  0  0  0  0  0  0  0  0  0
  195.1340  170.7700  145.5820 C   0  0  0  0  0  0  0  0  0  0  0  0
  194.3690  172.0190  145.5140 C   0  0  2  0  0  3  0  0  0  0  0  0
  193.1340  171.5500  144.7000 C   0  0  1  0  0  3  0  0  0  0  0  0
  195.2090  173.0560  144.7770 C   0  0  0  0  0  1  0  0  0  0  0  0
  194.1480  168.6260  145.3420 O   0  0  0  0  0  0  0  0  0  0  0  0
  191.8960  175.0590  143.6670 C   0  0  0  0  0  2  0  0  0  0  0  0
  192.8220  176.8900  144.8800 O   0  0  0  0  0  1  0  0  0  0  0  0
  194.1300  176.0570  143.1910 O   0  0  0  0  0  0  0  0  0  0  0  0
  192.9630  176.0600  143.9440 C   0  0  0  0  0  0  0  0  0  0  0  0
  1 15  1  0  0  0  0
  1  6  1  0  0  0  0
  3 16  1  0  0  0  0
  3 21  1  0  0  0  0
  4 10  1  0  0  0  0
  4 23  1  0  0  0  0
  5 36  1  6  0  0  0
  5  8  1  0  0  0  0
  8 13  1  0  0  0  0
  9 19  1  0  0  0  0
  9 16  1  0  0  0  0
 10  1  2  0  0  0  0
 11 18  1  1  0  0  0
 11  5  1  0  0  0  0
 11 33  1  0  0  0  0
 14 18  1  0  0  0  0
 15  2  1  6  0  0  0
 15 17  1  0  0  0  0
 16 12  1  6  0  0  0
 17 26  1  0  0  0  0
 18 25  2  0  0  0  0
 19 14  1  0  0  0  0
 20 13  1  0  0  0  0
 20 26  1  0  0  0  0
 21 24  2  0  0  0  0
 21  2  1  0  0  0  0
 23  6  1  0  0  0  0
 24 10  1  0  0  0  0
 26  7  2  1  0  0  0
 26 22  1  0  0  0  0
 27 35  1  0  0  0  0
 29 27  1  6  0  0  0
 29 35  1  0  0  0  0
 29 31  1  0  0  0  0
 30 29  1  0  0  0  0
 31 28  2  0  0  0  0
 32 34  1  6  0  0  0
 32 31  1  0  0  0  0
 33 30  1  6  0  0  0
 33 32  1  0  0  0  0
 36 39  1  0  0  0  0
 38 39  2  0  0  0  0
 39 37  1  0  0  0  0
M  END
>  <MODEL>
2

>  <REMARK>
 VINA RESULT:      -7.9      3.371      8.752
  Name = 
  3 active torsions:
  status: ('A' for Active; 'I' for Inactive)
    1  A    between atoms: C_6  and  C_7
    2  A    between atoms: C_6  and  C_30
    3  A    between atoms: C_16  and  C_31
                            x       y       z     vdW  Elec       q    Type
                         _______ _______ _______ _____ _____    ______ ____

>  <TORSDO>
F 3

$$$$
=
 OpenBabel11072409143D

 39 43  0  0  1  0  0  0  0  0999 V2000
  194.6050  171.2280  141.5500 C   0  0  0  0  0  0  0  0  0  0  0  0
  194.0100  173.8760  141.7320 S   0  0  0  0  0  0  0  0  0  0  0  0
  195.2260  174.6600  144.1930 C   0  0  0  0  0  2  0  0  0  0  0  0
  196.6750  170.2720  142.2100 C   0  0  0  0  0  2  0  0  0  0  0  0
  189.3610  175.7280  144.0630 C   0  0  1  0  0  3  0  0  0  0  0  0
  194.5840  169.7440  140.5590 S   0  0  0  0  0  0  0  0  0  0  0  0
  190.5540  170.3930  141.9580 O   0  0  0  0  0  1  0  0  0  0  0  0
  189.3080  174.2260  144.3780 C   0  0  0  0  0  2  0  0  0  0  0  0
  194.0830  175.8360  146.0540 C   0  0  0  0  0  2  0  0  0  0  0  0
  195.6910  171.3770  142.2980 C   0  0  0  0  0  0  0  0  0  0  0  0
  189.3060  176.5790  145.3470 C   0  0  2  0  0  3  0  0  0  0  0  0
  193.9540  173.4630  145.8210 O   0  0  0  0  0  1  0  0  0  0  0  0
  189.3170  173.3440  143.1380 C   0  0  0  0  0  2  0  0  0  0  0  0
  191.7250  176.4530  146.0680 N   0  0  0  0  0  2  0  0  0  0  0  0
  193.4260  172.1470  141.7090 C   0  0  1  0  0  3  0  0  0  0  0  0
  194.0010  174.6560  145.0960 C   0  0  2  0  0  3  0  0  0  0  0  0
  192.4670  171.9710  140.6270 N   0  0  0  0  0  2  0  0  0  0  0  0
  190.3550  176.1650  146.3530 C   0  0  0  0  0  0  0  0  0  0  0  0
  192.8170  175.9490  146.8870 C   0  0  0  0  0  2  0  0  0  0  0  0
  190.7470  173.1580  142.6720 C   0  0  0  0  0  2  0  0  0  0  0  0
  195.1200  173.6150  143.1320 C   0  0  0  0  0  0  0  0  0  0  0  0
  189.8420  172.2540  140.2630 O   0  0  0  0  0  0  0  0  0  0  0  0
  195.9350  169.0910  141.5960 C   0  0  0  0  0  2  0  0  0  0  0  0
  195.8640  172.5080  143.2260 C   0  0  0  0  0  3  0  0  0  0  0  0
  190.0530  175.3450  147.3100 N   0  0  0  0  0  2  0  0  0  0  0  0
  190.8610  171.9350  141.3340 P   0  0  2  0  0  0  0  0  0  0  0  0
  185.9410  178.9090  148.0130 C   0  0  0  0  0  2  0  0  0  0  0  0
  184.6360  177.8900  145.4340 O   0  0  0  0  0  0  0  0  0  0  0  0
  186.4570  177.9870  146.9850 C   0  0  2  0  0  0  0  0  0  0  0  0
  187.7890  177.5650  147.0090 O   0  0  0  0  0  0  0  0  0  0  0  0
  185.7870  177.6180  145.7390 C   0  0  0  0  0  0  0  0  0  0  0  0
  186.7380  176.8710  144.9110 C   0  0  2  0  0  3  0  0  0  0  0  0
  187.8820  176.6390  145.9340 C   0  0  1  0  0  3  0  0  0  0  0  0
  187.1540  177.7560  143.7420 C   0  0  0  0  0  1  0  0  0  0  0  0
  185.7610  177.5120  148.1090 O   0  0  0  0  0  0  0  0  0  0  0  0
  190.5860  176.1060  143.2290 C   0  0  0  0  0  2  0  0  0  0  0  0
  189.6910  177.9500  142.0130 O   0  0  0  0  0  0  0  0  0  0  0  0
  191.4350  178.4410  143.4170 O   0  0  0  0  0  1  0  0  0  0  0  0
  190.5470  177.5430  142.8410 C   0  0  0  0  0  0  0  0  0  0  0  0
  1 15  1  0  0  0  0
  1 10  2  0  0  0  0
  2 21  1  0  0  0  0
  3 16  1  0  0  0  0
  4 10  1  0  0  0  0
  5 36  1  1  0  0  0
  5  8  1  0  0  0  0
  5 11  1  0  0  0  0
  6  1  1  0  0  0  0
  6 23  1  0  0  0  0
  9 19  1  0  0  0  0
 10 24  1  0  0  0  0
 11 33  1  0  0  0  0
 11 18  1  1  0  0  0
 13  8  1  0  0  0  0
 14 18  1  0  0  0  0
 14 19  1  0  0  0  0
 15 17  1  6  0  0  0
 15  2  1  0  0  0  0
 16 12  1  1  0  0  0
 16  9  1  0  0  0  0
 17 26  1  0  0  0  0
 18 25  2  0  0  0  0
 20 13  1  0  0  0  0
 21 24  2  0  0  0  0
 21  3  1  0  0  0  0
 23  4  1  0  0  0  0
 26 22  2  6  0  0  0
 26  7  1  0  0  0  0
 26 20  1  0  0  0  0
 27 35  1  0  0  0  0
 28 31  2  0  0  0  0
 29 30  1  0  0  0  0
 29 27  1  1  0  0  0
 29 35  1  0  0  0  0
 31 29  1  0  0  0  0
 32 34  1  6  0  0  0
 32 31  1  0  0  0  0
 32 33  1  0  0  0  0
 33 30  1  1  0  0  0
 37 39  2  0  0  0  0
 39 36  1  0  0  0  0
 39 38  1  0  0  0  0
M  END
>  <MODEL>
3

>  <REMARK>
 VINA RESULT:      -7.7      2.712      4.625
  Name = 
  3 active torsions:
  status: ('A' for Active; 'I' for Inactive)
    1  A    between atoms: C_6  and  C_7
    2  A    between atoms: C_6  and  C_30
    3  A    between atoms: C_16  and  C_31
                            x       y       z     vdW  Elec       q    Type
                         _______ _______ _______ _____ _____    ______ ____

>  <TORSDO>
F 3

$$$$
=
 OpenBabel11072409143D

 39 43  0  0  1  0  0  0  0  0999 V2000
  187.1360  177.5480  145.5800 C   0  0  0  0  0  0  0  0  0  0  0  0
  189.0130  177.6310  143.6130 S   0  0  0  0  0  0  0  0  0  0  0  0
  187.6910  176.4310  141.3850 C   0  0  0  0  0  2  0  0  0  0  0  0
  184.8160  177.9160  145.2350 C   0  0  0  0  0  2  0  0  0  0  0  0
  192.7350  173.6210  142.8770 C   0  0  1  0  0  3  0  0  0  0  0  0
  186.6580  178.0380  147.2270 S   0  0  0  0  0  0  0  0  0  0  0  0
  189.5590  174.8710  147.6390 O   0  0  0  0  0  1  0  0  0  0  0  0
  191.8180  173.0220  143.9530 C   0  0  0  0  0  2  0  0  0  0  0  0
  188.5660  174.5410  140.0390 C   0  0  0  0  0  2  0  0  0  0  0  0
  186.1470  177.5470  144.6960 C   0  0  0  0  0  0  0  0  0  0  0  0
  192.8110  172.7180  141.6310 C   0  0  2  0  0  3  0  0  0  0  0  0
  187.4050  174.1690  142.0920 O   0  0  0  0  0  1  0  0  0  0  0  0
  191.7430  173.8580  145.2230 C   0  0  0  0  0  2  0  0  0  0  0  0
  190.6770  173.3960  140.4580 N   0  0  0  0  0  2  0  0  0  0  0  0
  188.4830  176.9780  145.2330 C   0  0  1  0  0  3  0  0  0  0  0  0
  188.2940  175.0360  141.4520 C   0  0  2  0  0  3  0  0  0  0  0  0
  189.4770  177.3140  146.2430 N   0  0  0  0  0  2  0  0  0  0  0  0
  191.4430  172.3690  141.0910 C   0  0  0  0  0  0  0  0  0  0  0  0
  189.2910  173.2050  140.0600 C   0  0  0  0  0  2  0  0  0  0  0  0
  190.7280  174.9670  145.0280 C   0  0  0  0  0  2  0  0  0  0  0  0
  187.5490  177.0250  142.7470 C   0  0  0  0  0  0  0  0  0  0  0  0
  191.7300  176.2660  147.2060 O   0  0  0  0  0  0  0  0  0  0  0  0
  184.9170  177.7770  146.7480 C   0  0  0  0  0  2  0  0  0  0  0  0
  186.3340  177.1160  143.2980 C   0  0  0  0  0  3  0  0  0  0  0  0
  190.8750  171.2540  141.4260 N   0  0  0  0  0  2  0  0  0  0  0  0
  190.4160  175.8680  146.5730 P   0  0  2  0  0  0  0  0  0  0  0  0
  195.2930  168.9050  139.8540 C   0  0  0  0  0  2  0  0  0  0  0  0
  197.0320  170.3440  141.9280 O   0  0  0  0  0  0  0  0  0  0  0  0
  194.9470  169.9700  140.8120 C   0  0  2  0  0  0  0  0  0  0  0  0
  193.7000  170.6010  140.7570 O   0  0  0  0  0  0  0  0  0  0  0  0
  195.8700  170.6550  141.7160 C   0  0  0  0  0  0  0  0  0  0  0  0
  195.1640  171.7890  142.3180 C   0  0  2  0  0  3  0  0  0  0  0  0
  193.7090  171.4880  141.8690 C   0  0  1  0  0  3  0  0  0  0  0  0
  195.7180  173.0740  141.7180 C   0  0  0  0  0  1  0  0  0  0  0  0
  194.8050  168.6130  141.1460 O   0  0  0  0  0  0  0  0  0  0  0  0
  192.3180  175.0380  142.4800 C   0  0  0  0  0  2  0  0  0  0  0  0
  193.7280  176.4160  143.8200 O   0  0  0  0  0  1  0  0  0  0  0  0
  194.1920  176.4090  141.5750 O   0  0  0  0  0  0  0  0  0  0  0  0
  193.4410  175.9990  142.6680 C   0  0  0  0  0  0  0  0  0  0  0  0
  1  6  1  0  0  0  0
  3 16  1  0  0  0  0
  3 21  1  0  0  0  0
  4 23  1  0  0  0  0
  5 36  1  6  0  0  0
  5  8  1  0  0  0  0
  8 13  1  0  0  0  0
  9 19  1  0  0  0  0
  9 16  1  0  0  0  0
 10  4  1  0  0  0  0
 10  1  2  0  0  0  0
 11 18  1  1  0  0  0
 11 33  1  0  0  0  0
 11  5  1  0  0  0  0
 14 18  1  0  0  0  0
 15  2  1  6  0  0  0
 15  1  1  0  0  0  0
 15 17  1  0  0  0  0
 16 12  1  6  0  0  0
 17 26  1  0  0  0  0
 18 25  2  0  0  0  0
 19 14  1  0  0  0  0
 20 13  1  0  0  0  0
 20 26  1  0  0  0  0
 21 24  2  0  0  0  0
 21  2  1  0  0  0  0
 23  6  1  0  0  0  0
 24 10  1  0  0  0  0
 26 22  2  1  0  0  0
 26  7  1  0  0  0  0
 27 35  1  0  0  0  0
 29 27  1  6  0  0  0
 29 35  1  0  0  0  0
 29 31  1  0  0  0  0
 30 29  1  0  0  0  0
 31 28  2  0  0  0  0
 31 32  1  0  0  0  0
 32 34  1  6  0  0  0
 33 30  1  6  0  0  0
 33 32  1  0  0  0  0
 36 39  1  0  0  0  0
 38 39  2  0  0  0  0
 39 37  1  0  0  0  0
M  END
>  <MODEL>
4

>  <REMARK>
 VINA RESULT:      -7.5      3.228      8.776
  Name = 
  3 active torsions:
  status: ('A' for Active; 'I' for Inactive)
    1  A    between atoms: C_6  and  C_7
    2  A    between atoms: C_6  and  C_30
    3  A    between atoms: C_16  and  C_31
                            x       y       z     vdW  Elec       q    Type
                         _______ _______ _______ _____ _____    ______ ____

>  <TORSDO>
F 3

$$$$
=
 OpenBabel11072409143D

 39 43  0  0  1  0  0  0  0  0999 V2000
  191.4100  175.2370  146.1800 C   0  0  0  0  0  0  0  0  0  0  0  0
  193.2300  173.4370  145.2620 S   0  0  0  0  0  0  0  0  0  0  0  0
  195.6880  174.8870  145.3300 C   0  0  0  0  0  2  0  0  0  0  0  0
  191.8250  176.7900  147.9270 C   0  0  0  0  0  2  0  0  0  0  0  0
  194.3630  172.8250  139.8940 C   0  0  1  0  0  3  0  0  0  0  0  0
  189.7360  175.5480  146.7150 S   0  0  0  0  0  0  0  0  0  0  0  0
  189.6550  175.2330  142.4120 O   0  0  0  0  0  1  0  0  0  0  0  0
  193.4470  174.0570  139.8950 C   0  0  0  0  0  2  0  0  0  0  0  0
  197.2580  175.1490  143.4280 C   0  0  0  0  0  2  0  0  0  0  0  0
  192.3380  175.8910  146.8660 C   0  0  0  0  0  0  0  0  0  0  0  0
  195.7280  173.1340  139.2480 C   0  0  2  0  0  3  0  0  0  0  0  0
  195.3570  176.5730  143.6720 O   0  0  0  0  0  1  0  0  0  0  0  0
  192.0700  173.7900  140.4850 C   0  0  0  0  0  2  0  0  0  0  0  0
  196.9010  174.2390  141.1960 N   0  0  0  0  0  2  0  0  0  0  0  0
  191.7630  174.4730  144.9350 C   0  0  1  0  0  3  0  0  0  0  0  0
  195.8030  175.2630  143.8600 C   0  0  2  0  0  3  0  0  0  0  0  0
  190.6580  173.6320  144.4980 N   0  0  0  0  0  2  0  0  0  0  0  0
  196.3920  174.3440  139.8650 C   0  0  0  0  0  0  0  0  0  0  0  0
  197.4030  175.3880  141.9340 C   0  0  0  0  0  2  0  0  0  0  0  0
  192.1480  173.8930  141.9950 C   0  0  0  0  0  2  0  0  0  0  0  0
  194.2610  174.8320  145.7640 C   0  0  0  0  0  0  0  0  0  0  0  0
  189.7420  172.6270  142.2050 O   0  0  0  0  0  0  0  0  0  0  0  0
  190.3480  177.0070  147.6240 C   0  0  0  0  0  2  0  0  0  0  0  0
  193.7720  175.8090  146.5350 C   0  0  0  0  0  3  0  0  0  0  0  0
  196.2670  175.5090  139.3110 N   0  0  0  0  0  2  0  0  0  0  0  0
  190.5030  173.8110  142.7590 P   0  0  2  0  0  0  0  0  0  0  0  0
  197.9310  173.3520  134.8940 C   0  0  0  0  0  2  0  0  0  0  0  0
  195.6620  171.2970  134.7590 O   0  0  0  0  0  0  0  0  0  0  0  0
  196.8520  173.0620  135.8540 C   0  0  2  0  0  0  0  0  0  0  0  0
  196.8480  173.6500  137.1230 O   0  0  0  0  0  0  0  0  0  0  0  0
  195.8530  172.0000  135.7390 C   0  0  0  0  0  0  0  0  0  0  0  0
  195.1240  171.9170  137.0070 C   0  0  2  0  0  3  0  0  0  0  0  0
  195.6330  173.2030  137.7110 C   0  0  1  0  0  3  0  0  0  0  0  0
  195.5470  170.6400  137.7210 C   0  0  0  0  0  1  0  0  0  0  0  0
  196.6950  174.0330  134.8520 O   0  0  0  0  0  0  0  0  0  0  0  0
  194.5590  172.2430  141.2940 C   0  0  0  0  0  2  0  0  0  0  0  0
  195.0820  169.9190  141.3880 O   0  0  0  0  0  1  0  0  0  0  0  0
  192.8480  170.4320  141.3410 O   0  0  0  0  0  0  0  0  0  0  0  0
  194.1860  170.8020  141.3330 C   0  0  0  0  0  0  0  0  0  0  0  0
  1  6  1  0  0  0  0
  1 10  2  0  0  0  0
  2 21  1  0  0  0  0
  3 21  1  0  0  0  0
  5  8  1  0  0  0  0
  5 36  1  1  0  0  0
  6 23  1  0  0  0  0
  7 26  1  0  0  0  0
  8 13  1  0  0  0  0
  9 16  1  0  0  0  0
 10  4  1  0  0  0  0
 11 18  1  1  0  0  0
 11  5  1  0  0  0  0
 13 20  1  0  0  0  0
 14 19  1  0  0  0  0
 15 17  1  1  0  0  0
 15  2  1  0  0  0  0
 15  1  1  0  0  0  0
 16 12  1  1  0  0  0
 16  3  1  0  0  0  0
 18 14  1  0  0  0  0
 19  9  1  0  0  0  0
 20 26  1  0  0  0  0
 21 24  2  0  0  0  0
 23  4  1  0  0  0  0
 24 10  1  0  0  0  0
 25 18  2  0  0  0  0
 26 22  2  6  0  0  0
 26 17  1  0  0  0  0
 28 31  2  0  0  0  0
 29 27  1  6  0  0  0
 29 30  1  0  0  0  0
 31 29  1  0  0  0  0
 31 32  1  0  0  0  0
 32 33  1  0  0  0  0
 32 34  1  1  0  0  0
 33 30  1  6  0  0  0
 33 11  1  0  0  0  0
 35 27  1  0  0  0  0
 35 29  1  0  0  0  0
 36 39  1  0  0  0  0
 39 38  2  0  0  0  0
 39 37  1  0  0  0  0
M  END
>  <MODEL>
5

>  <REMARK>
 VINA RESULT:      -6.0      4.262      9.350
  Name = 
  3 active torsions:
  status: ('A' for Active; 'I' for Inactive)
    1  A    between atoms: C_6  and  C_7
    2  A    between atoms: C_6  and  C_30
    3  A    between atoms: C_16  and  C_31
                            x       y       z     vdW  Elec       q    Type
                         _______ _______ _______ _____ _____    ______ ____

>  <TORSDO>
F 3

$$$$
=
 OpenBabel11072409143D

 39 43  0  0  1  0  0  0  0  0999 V2000
  185.8590  177.7360  144.3690 C   0  0  0  0  0  0  0  0  0  0  0  0
  187.2240  175.6630  145.4820 S   0  0  0  0  0  0  0  0  0  0  0  0
  188.7120  176.9010  147.5800 C   0  0  0  0  0  2  0  0  0  0  0  0
  184.9110  179.5310  145.5990 C   0  0  0  0  0  2  0  0  0  0  0  0
  192.1750  174.0380  143.6600 C   0  0  1  0  0  3  0  0  0  0  0  0
  184.6080  178.2690  143.2140 S   0  0  0  0  0  0  0  0  0  0  0  0
  188.0980  177.2180  140.9050 O   0  0  0  0  0  0  0  0  0  0  0  0
  191.9350  175.3210  142.8510 C   0  0  0  0  0  2  0  0  0  0  0  0
  191.1610  176.7020  147.9200 C   0  0  0  0  0  2  0  0  0  0  0  0
  185.8900  178.4220  145.5030 C   0  0  0  0  0  0  0  0  0  0  0  0
  193.4770  174.1200  144.4790 C   0  0  2  0  0  3  0  0  0  0  0  0
  190.2460  178.2940  146.3950 O   0  0  0  0  0  1  0  0  0  0  0  0
  190.6800  175.2720  141.9910 C   0  0  0  0  0  2  0  0  0  0  0  0
  192.6670  175.4490  146.4710 N   0  0  0  0  0  2  0  0  0  0  0  0
  186.9360  176.7410  144.0370 C   0  0  1  0  0  3  0  0  0  0  0  0
  190.0700  177.0050  146.9030 C   0  0  2  0  0  3  0  0  0  0  0  0
  186.5700  175.9280  142.8860 N   0  0  0  0  0  2  0  0  0  0  0  0
  193.5350  175.3610  145.3390 C   0  0  0  0  0  0  0  0  0  0  0  0
  192.5280  176.6640  147.2580 C   0  0  0  0  0  2  0  0  0  0  0  0
  189.4790  175.6290  142.8440 C   0  0  0  0  0  2  0  0  0  0  0  0
  187.6020  177.0360  146.5910 C   0  0  0  0  0  0  0  0  0  0  0  0
  187.8200  174.6170  140.9310 O   0  0  0  0  0  1  0  0  0  0  0  0
  184.4420  179.8090  144.1770 C   0  0  0  0  0  2  0  0  0  0  0  0
  186.8920  178.1690  146.5550 C   0  0  0  0  0  3  0  0  0  0  0  0
  194.1550  176.4190  144.9180 N   0  0  0  0  0  2  0  0  0  0  0  0
  187.9760  175.8140  141.8410 P   0  0  2  0  0  0  0  0  0  0  0  0
  197.9410  175.5610  143.1160 C   0  0  0  0  0  2  0  0  0  0  0  0
  197.9400  172.5150  143.4550 O   0  0  0  0  0  0  0  0  0  0  0  0
  196.8190  174.6260  143.3120 C   0  0  2  0  0  0  0  0  0  0  0  0
  195.5250  175.1020  143.5410 O   0  0  0  0  0  0  0  0  0  0  0  0
  196.9230  173.1860  143.5440 C   0  0  0  0  0  0  0  0  0  0  0  0
  195.5970  172.6850  143.9140 C   0  0  2  0  0  3  0  0  0  0  0  0
  194.7250  173.9280  143.5930 C   0  0  1  0  0  3  0  0  0  0  0  0
  195.6120  172.3350  145.3970 C   0  0  0  0  0  1  0  0  0  0  0  0
  197.2600  174.9770  142.0250 O   0  0  0  0  0  0  0  0  0  0  0  0
  190.9960  173.6940  144.5710 C   0  0  0  0  0  2  0  0  0  0  0  0
  189.3780  171.9580  144.7900 O   0  0  0  0  0  1  0  0  0  0  0  0
  191.1070  171.5260  143.3480 O   0  0  0  0  0  0  0  0  0  0  0  0
  190.4500  172.3450  144.2560 C   0  0  0  0  0  0  0  0  0  0  0  0
  1 10  2  0  0  0  0
  2 21  1  0  0  0  0
  5 11  1  0  0  0  0
  5 36  1  1  0  0  0
  6 23  1  0  0  0  0
  6  1  1  0  0  0  0
  8  5  1  0  0  0  0
 10  4  1  0  0  0  0
 10 24  1  0  0  0  0
 11 18  1  6  0  0  0
 13 20  1  0  0  0  0
 13  8  1  0  0  0  0
 14 19  1  0  0  0  0
 15 17  1  6  0  0  0
 15  1  1  0  0  0  0
 15  2  1  0  0  0  0
 16 12  1  1  0  0  0
 16  3  1  0  0  0  0
 16  9  1  0  0  0  0
 18 14  1  0  0  0  0
 19  9  1  0  0  0  0
 21  3  1  0  0  0  0
 22 26  1  0  0  0  0
 23  4  1  0  0  0  0
 24 21  2  0  0  0  0
 25 18  2  0  0  0  0
 26  7  2  6  0  0  0
 26 20  1  0  0  0  0
 26 17  1  0  0  0  0
 28 31  2  0  0  0  0
 29 27  1  1  0  0  0
 29 30  1  0  0  0  0
 29 31  1  0  0  0  0
 31 32  1  0  0  0  0
 32 34  1  1  0  0  0
 33 30  1  1  0  0  0
 33 32  1  0  0  0  0
 33 11  1  0  0  0  0
 35 27  1  0  0  0  0
 35 29  1  0  0  0  0
 38 39  2  0  0  0  0
 39 36  1  0  0  0  0
 39 37  1  0  0  0  0
M  END
>  <MODEL>
6

>  <REMARK>
 VINA RESULT:      -5.7      3.271      9.215
  Name = 
  3 active torsions:
  status: ('A' for Active; 'I' for Inactive)
    1  A    between atoms: C_6  and  C_7
    2  A    between atoms: C_6  and  C_30
    3  A    between atoms: C_16  and  C_31
                            x       y       z     vdW  Elec       q    Type
                         _______ _______ _______ _____ _____    ______ ____

>  <TORSDO>
F 3

$$$$
