=
 OpenBabel11072408483D

 26 29  0  0  1  0  0  0  0  0999 V2000
  185.2500  178.2780  144.7950 C   0  0  2  0  0  3  0  0  0  0  0  0
  185.5040  177.0050  145.5900 C   0  0  1  0  0  3  0  0  0  0  0  0
  186.9570  177.6380  147.5710 C   0  0  0  0  0  2  0  0  0  0  0  0
  186.3970  179.0400  147.5260 C   0  0  0  0  0  2  0  0  0  0  0  0
  186.9270  177.0840  146.1620 C   0  0  1  0  0  3  0  0  0  0  0  0
  184.9060  178.9850  147.2180 C   0  0  0  0  0  2  0  0  0  0  0  0
  184.4760  178.0410  146.0750 C   0  0  1  0  0  3  0  0  0  0  0  0
  184.9410  177.6000  142.3830 C   0  0  0  0  0  3  0  0  0  0  0  0
  186.2210  177.5270  142.1950 N   0  0  0  0  0  0  0  0  0  0  0  0
  184.4030  177.9690  143.6540 N   0  0  0  0  0  2  0  0  0  0  0  0
  186.7860  177.1600  140.9350 C   0  0  0  0  0  0  0  0  0  0  0  0
  186.3870  177.8290  139.7860 O   0  0  0  0  0  0  0  0  0  0  0  0
  187.6410  176.2380  140.8520 O   0  0  0  0  0  1  0  0  0  0  0  0
  187.5760  175.7100  146.1440 C   0  0  0  0  0  2  0  0  0  0  0  0
  190.5320  175.7870  142.6950 C   0  0  0  0  0  1  0  0  0  0  0  0
  193.6390  175.5010  146.3090 C   0  0  0  0  0  1  0  0  0  0  0  0
  190.2700  175.2560  147.5600 C   0  0  0  0  0  2  0  0  0  0  0  0
  191.3570  177.2120  144.5880 C   0  0  0  0  0  2  0  0  0  0  0  0
  188.8600  176.7760  144.2770 C   0  0  0  0  0  2  0  0  0  0  0  0
  190.2190  176.9850  143.5760 C   0  0  0  0  0  0  0  0  0  0  0  0
  191.7360  175.4980  147.9190 C   0  0  0  0  0  2  0  0  0  0  0  0
  191.3320  176.1090  145.6370 C   0  0  1  0  0  3  0  0  0  0  0  0
  190.1150  178.2080  142.6910 C   0  0  0  0  0  1  0  0  0  0  0  0
  192.3690  176.2150  146.7270 C   0  0  2  0  0  3  0  0  0  0  0  0
  190.0290  176.1600  146.3740 C   0  0  1  0  0  3  0  0  0  0  0  0
  188.9160  175.7450  145.4210 C   0  0  1  0  0  3  0  0  0  0  0  0
  1 10  1  6  0  0  0
  1  2  1  0  0  0  0
  1  7  1  0  0  0  0
  2  7  1  0  0  0  0
  2  5  1  0  0  0  0
  4  3  1  0  0  0  0
  5  3  1  0  0  0  0
  6  4  1  0  0  0  0
  7  6  1  0  0  0  0
  8 10  1  0  0  0  0
  9  8  2  0  0  0  0
 11  9  1  0  0  0  0
 12 11  2  0  0  0  0
 13 11  1  0  0  0  0
 14  5  1  0  0  0  0
 15 20  1  0  0  0  0
 16 24  1  0  0  0  0
 17 21  1  0  0  0  0
 18 22  1  0  0  0  0
 19 26  1  0  0  0  0
 20 19  1  0  0  0  0
 20 18  1  0  0  0  0
 22 25  1  0  0  0  0
 22 24  1  0  0  0  0
 23 20  1  0  0  0  0
 24 21  1  0  0  0  0
 25 17  1  0  0  0  0
 26 14  1  0  0  0  0
 26 25  1  0  0  0  0
M  END
>  <MODEL>
1

>  <REMARK>
 VINA RESULT:      -7.7      0.000      0.000
  Name = 
  4 active torsions:
  status: ('A' for Active; 'I' for Inactive)
    1  A    between atoms: C_1  and  N_21
    2  A    between atoms: C_4  and  N_25
    3  A    between atoms: C_15  and  C_18
    4  A    between atoms: C_18  and  C_26
                            x       y       z     vdW  Elec       q    Type
                         _______ _______ _______ _____ _____    ______ ____

>  <TORSDO>
F 4

$$$$
=
 OpenBabel11072408483D

 26 29  0  0  1  0  0  0  0  0999 V2000
  191.1050  174.3130  144.9480 C   0  0  2  0  0  3  0  0  0  0  0  0
  191.1360  175.8310  144.8400 C   0  0  1  0  0  3  0  0  0  0  0  0
  190.5440  176.7560  147.1270 C   0  0  0  0  0  2  0  0  0  0  0  0
  191.0790  175.4980  147.7680 C   0  0  0  0  0  2  0  0  0  0  0  0
  190.0320  176.3900  145.7480 C   0  0  1  0  0  3  0  0  0  0  0  0
  192.3450  175.0550  147.0460 C   0  0  0  0  0  2  0  0  0  0  0  0
  192.2940  175.0670  145.5030 C   0  0  1  0  0  3  0  0  0  0  0  0
  190.4960  173.5500  142.6200 C   0  0  0  0  0  3  0  0  0  0  0  0
  189.2580  173.8940  142.7840 N   0  0  0  0  0  0  0  0  0  0  0  0
  191.4570  173.7340  143.6610 N   0  0  0  0  0  2  0  0  0  0  0  0
  188.2770  173.7210  141.7600 C   0  0  0  0  0  0  0  0  0  0  0  0
  188.2420  174.6060  140.6900 O   0  0  0  0  0  0  0  0  0  0  0  0
  187.4420  172.7790  141.8150 O   0  0  0  0  0  1  0  0  0  0  0  0
  189.3920  177.6100  145.1060 C   0  0  0  0  0  2  0  0  0  0  0  0
  185.1760  176.6010  146.4680 C   0  0  0  0  0  1  0  0  0  0  0  0
  184.1960  177.9270  141.9870 C   0  0  0  0  0  1  0  0  0  0  0  0
  187.7580  177.9230  142.5170 C   0  0  0  0  0  2  0  0  0  0  0  0
  185.1720  178.6900  145.0800 C   0  0  0  0  0  2  0  0  0  0  0  0
  187.2620  177.9860  146.3670 C   0  0  0  0  0  2  0  0  0  0  0  0
  185.7190  178.0160  146.3510 C   0  0  0  0  0  0  0  0  0  0  0  0
  186.6160  178.3890  141.6150 C   0  0  0  0  0  2  0  0  0  0  0  0
  185.8210  178.0650  143.8530 C   0  0  1  0  0  3  0  0  0  0  0  0
  185.2440  178.8050  147.5530 C   0  0  0  0  0  1  0  0  0  0  0  0
  185.4150  178.6500  142.5230 C   0  0  2  0  0  3  0  0  0  0  0  0
  187.3010  178.2940  143.9090 C   0  0  1  0  0  3  0  0  0  0  0  0
  187.8760  177.4690  145.0530 C   0  0  1  0  0  3  0  0  0  0  0  0
  1 10  1  6  0  0  0
  1  7  1  0  0  0  0
  2  1  1  0  0  0  0
  2  7  1  0  0  0  0
  2  5  1  0  0  0  0
  3  4  1  0  0  0  0
  5  3  1  0  0  0  0
  6  4  1  0  0  0  0
  7  6  1  0  0  0  0
  8  9  2  0  0  0  0
  8 10  1  0  0  0  0
 11 13  1  0  0  0  0
 11  9  1  0  0  0  0
 12 11  2  0  0  0  0
 14  5  1  0  0  0  0
 16 24  1  0  0  0  0
 17 25  1  0  0  0  0
 18 20  1  0  0  0  0
 20 19  1  0  0  0  0
 20 15  1  0  0  0  0
 20 23  1  0  0  0  0
 21 17  1  0  0  0  0
 21 24  1  0  0  0  0
 22 25  1  0  0  0  0
 22 18  1  0  0  0  0
 24 22  1  0  0  0  0
 25 26  1  0  0  0  0
 26 14  1  0  0  0  0
 26 19  1  0  0  0  0
M  END
>  <MODEL>
2

>  <REMARK>
 VINA RESULT:      -7.6      2.237      6.200
  Name = 
  4 active torsions:
  status: ('A' for Active; 'I' for Inactive)
    1  A    between atoms: C_1  and  N_21
    2  A    between atoms: C_4  and  N_25
    3  A    between atoms: C_15  and  C_18
    4  A    between atoms: C_18  and  C_26
                            x       y       z     vdW  Elec       q    Type
                         _______ _______ _______ _____ _____    ______ ____

>  <TORSDO>
F 4

$$$$
=
 OpenBabel11072408483D

 26 29  0  0  1  0  0  0  0  0999 V2000
  188.5950  176.4300  147.2190 C   0  0  2  0  0  3  0  0  0  0  0  0
  189.2050  176.0700  145.8720 C   0  0  1  0  0  3  0  0  0  0  0  0
  191.6630  176.6950  145.9740 C   0  0  0  0  0  2  0  0  0  0  0  0
  191.6420  176.5070  147.4720 C   0  0  0  0  0  2  0  0  0  0  0  0
  190.2740  177.1230  145.5440 C   0  0  1  0  0  3  0  0  0  0  0  0
  190.7920  175.2920  147.8220 C   0  0  0  0  0  2  0  0  0  0  0  0
  189.4330  175.1750  147.1010 C   0  0  1  0  0  3  0  0  0  0  0  0
  186.1820  176.9330  146.6760 C   0  0  0  0  0  3  0  0  0  0  0  0
  186.4910  178.0820  146.1630 N   0  0  0  0  0  0  0  0  0  0  0  0
  187.1850  176.0720  147.2160 N   0  0  0  0  0  2  0  0  0  0  0  0
  185.5080  178.9630  145.6150 C   0  0  0  0  0  0  0  0  0  0  0  0
  185.8570  179.8160  144.5780 O   0  0  0  0  0  0  0  0  0  0  0  0
  184.3300  178.9760  146.0620 O   0  0  0  0  0  1  0  0  0  0  0  0
  190.2760  177.4220  144.0530 C   0  0  0  0  0  2  0  0  0  0  0  0
  186.0050  176.4130  142.8740 C   0  0  0  0  0  1  0  0  0  0  0  0
  188.2600  172.9590  140.4690 C   0  0  0  0  0  1  0  0  0  0  0  0
  190.6180  174.8070  142.4680 C   0  0  0  0  0  2  0  0  0  0  0  0
  187.5370  176.1830  140.9010 C   0  0  0  0  0  2  0  0  0  0  0  0
  188.1200  177.7570  142.8250 C   0  0  0  0  0  2  0  0  0  0  0  0
  186.9890  177.1420  141.9730 C   0  0  0  0  0  0  0  0  0  0  0  0
  190.4400  173.8200  141.3140 C   0  0  0  0  0  2  0  0  0  0  0  0
  188.4800  175.1780  141.5490 C   0  0  1  0  0  3  0  0  0  0  0  0
  186.2500  178.2650  141.2780 C   0  0  0  0  0  1  0  0  0  0  0  0
  189.1320  174.1900  140.6160 C   0  0  2  0  0  3  0  0  0  0  0  0
  189.6350  175.9120  142.1610 C   0  0  1  0  0  3  0  0  0  0  0  0
  189.1240  176.7140  143.3500 C   0  0  1  0  0  3  0  0  0  0  0  0
  1 10  1  6  0  0  0
  2  7  1  0  0  0  0
  2  1  1  0  0  0  0
  3  4  1  0  0  0  0
  4  6  1  0  0  0  0
  5  2  1  0  0  0  0
  5  3  1  0  0  0  0
  7  1  1  0  0  0  0
  7  6  1  0  0  0  0
  8 10  1  0  0  0  0
  9  8  2  0  0  0  0
 11 13  1  0  0  0  0
 11  9  1  0  0  0  0
 12 11  2  0  0  0  0
 14  5  1  0  0  0  0
 16 24  1  0  0  0  0
 18 22  1  0  0  0  0
 18 20  1  0  0  0  0
 19 26  1  0  0  0  0
 20 19  1  0  0  0  0
 20 15  1  0  0  0  0
 21 17  1  0  0  0  0
 22 25  1  0  0  0  0
 23 20  1  0  0  0  0
 24 21  1  0  0  0  0
 24 22  1  0  0  0  0
 25 17  1  0  0  0  0
 25 26  1  0  0  0  0
 26 14  1  0  0  0  0
M  END
>  <MODEL>
3

>  <REMARK>
 VINA RESULT:      -7.5      2.553      5.159
  Name = 
  4 active torsions:
  status: ('A' for Active; 'I' for Inactive)
    1  A    between atoms: C_1  and  N_21
    2  A    between atoms: C_4  and  N_25
    3  A    between atoms: C_15  and  C_18
    4  A    between atoms: C_18  and  C_26
                            x       y       z     vdW  Elec       q    Type
                         _______ _______ _______ _____ _____    ______ ____

>  <TORSDO>
F 4

$$$$
=
 OpenBabel11072408483D

 26 29  0  0  1  0  0  0  0  0999 V2000
  191.9440  175.4340  145.3460 C   0  0  2  0  0  3  0  0  0  0  0  0
  190.6520  176.1830  145.6390 C   0  0  1  0  0  3  0  0  0  0  0  0
  188.8870  175.2770  144.0560 C   0  0  0  0  0  2  0  0  0  0  0  0
  189.6300  173.9640  143.9890 C   0  0  0  0  0  2  0  0  0  0  0  0
  189.9050  176.3710  144.3110 C   0  0  1  0  0  3  0  0  0  0  0  0
  190.1660  173.6100  145.3700 C   0  0  0  0  0  2  0  0  0  0  0  0
  190.8600  174.7470  146.1490 C   0  0  1  0  0  3  0  0  0  0  0  0
  194.3450  176.0420  145.8300 C   0  0  0  0  0  3  0  0  0  0  0  0
  194.7100  175.7430  144.6230 N   0  0  0  0  0  0  0  0  0  0  0  0
  192.9850  175.9070  146.2440 N   0  0  0  0  0  2  0  0  0  0  0  0
  196.0630  175.8690  144.1820 C   0  0  0  0  0  0  0  0  0  0  0  0
  197.0030  174.9300  144.5820 O   0  0  0  0  0  1  0  0  0  0  0  0
  196.4150  176.8220  143.4360 O   0  0  0  0  0  0  0  0  0  0  0  0
  189.2120  177.7230  144.2850 C   0  0  0  0  0  2  0  0  0  0  0  0
  185.3010  176.7140  146.3660 C   0  0  0  0  0  1  0  0  0  0  0  0
  183.5550  177.9720  142.1040 C   0  0  0  0  0  1  0  0  0  0  0  0
  187.1550  177.9920  142.0130 C   0  0  0  0  0  2  0  0  0  0  0  0
  185.0430  178.7840  144.9720 C   0  0  0  0  0  2  0  0  0  0  0  0
  187.3280  178.1080  145.8900 C   0  0  0  0  0  2  0  0  0  0  0  0
  185.8050  178.1300  146.1390 C   0  0  0  0  0  0  0  0  0  0  0  0
  185.8710  178.4400  141.3150 C   0  0  0  0  0  2  0  0  0  0  0  0
  185.4760  178.1440  143.6600 C   0  0  1  0  0  3  0  0  0  0  0  0
  185.5390  178.9330  147.3940 C   0  0  0  0  0  1  0  0  0  0  0  0
  184.8430  178.7080  142.4130 C   0  0  2  0  0  3  0  0  0  0  0  0
  186.9420  178.3810  143.4570 C   0  0  1  0  0  3  0  0  0  0  0  0
  187.7100  177.5750  144.4960 C   0  0  1  0  0  3  0  0  0  0  0  0
  1  2  1  0  0  0  0
  1  7  1  0  0  0  0
  1 10  1  1  0  0  0
  2  7  1  0  0  0  0
  3  5  1  0  0  0  0
  4  3  1  0  0  0  0
  4  6  1  0  0  0  0
  5  2  1  0  0  0  0
  6  7  1  0  0  0  0
  8 10  1  0  0  0  0
  9  8  2  0  0  0  0
 11 12  1  0  0  0  0
 11  9  1  0  0  0  0
 13 11  2  0  0  0  0
 14  5  1  0  0  0  0
 14 26  1  0  0  0  0
 16 24  1  0  0  0  0
 17 25  1  0  0  0  0
 18 20  1  0  0  0  0
 19 20  1  0  0  0  0
 20 15  1  0  0  0  0
 20 23  1  0  0  0  0
 21 17  1  0  0  0  0
 21 24  1  0  0  0  0
 22 18  1  0  0  0  0
 24 22  1  0  0  0  0
 25 22  1  0  0  0  0
 25 26  1  0  0  0  0
 26 19  1  0  0  0  0
M  END
>  <MODEL>
4

>  <REMARK>
 VINA RESULT:      -7.5      3.882      7.480
  Name = 
  4 active torsions:
  status: ('A' for Active; 'I' for Inactive)
    1  A    between atoms: C_1  and  N_21
    2  A    between atoms: C_4  and  N_25
    3  A    between atoms: C_15  and  C_18
    4  A    between atoms: C_18  and  C_26
                            x       y       z     vdW  Elec       q    Type
                         _______ _______ _______ _____ _____    ______ ____

>  <TORSDO>
F 4

$$$$
=
 OpenBabel11072408483D

 26 29  0  0  1  0  0  0  0  0999 V2000
  192.1340  176.0260  146.1960 C   0  0  2  0  0  3  0  0  0  0  0  0
  190.9410  176.9690  146.1330 C   0  0  1  0  0  3  0  0  0  0  0  0
  188.8700  175.5340  145.8280 C   0  0  0  0  0  2  0  0  0  0  0  0
  189.5710  174.3870  146.5140 C   0  0  0  0  0  2  0  0  0  0  0  0
  189.9260  176.3780  145.1440 C   0  0  1  0  0  3  0  0  0  0  0  0
  190.3910  174.9150  147.6840 C   0  0  0  0  0  2  0  0  0  0  0  0
  191.2450  176.1720  147.4120 C   0  0  1  0  0  3  0  0  0  0  0  0
  194.4180  176.7920  145.4430 C   0  0  0  0  0  3  0  0  0  0  0  0
  194.3500  176.0780  144.3640 N   0  0  0  0  0  0  0  0  0  0  0  0
  193.3480  176.8030  146.3890 N   0  0  0  0  0  2  0  0  0  0  0  0
  195.4050  176.0480  143.4010 C   0  0  0  0  0  0  0  0  0  0  0  0
  195.2950  175.2220  142.2910 O   0  0  0  0  0  0  0  0  0  0  0  0
  196.4350  176.7600  143.5470 O   0  0  0  0  0  1  0  0  0  0  0  0
  189.2530  177.4900  144.3550 C   0  0  0  0  0  2  0  0  0  0  0  0
  185.2230  176.8010  146.3370 C   0  0  0  0  0  1  0  0  0  0  0  0
  183.6940  177.9950  141.9740 C   0  0  0  0  0  1  0  0  0  0  0  0
  187.2900  177.7930  142.0050 C   0  0  0  0  0  2  0  0  0  0  0  0
  185.1380  178.8270  144.8590 C   0  0  0  0  0  2  0  0  0  0  0  0
  187.3470  178.0500  145.8780 C   0  0  0  0  0  2  0  0  0  0  0  0
  185.8210  178.1750  146.0750 C   0  0  0  0  0  0  0  0  0  0  0  0
  186.0590  178.2910  141.2470 C   0  0  0  0  0  2  0  0  0  0  0  0
  185.5720  178.1110  143.5870 C   0  0  1  0  0  3  0  0  0  0  0  0
  185.5650  179.0410  147.2890 C   0  0  0  0  0  1  0  0  0  0  0  0
  185.0150  178.6630  142.2990 C   0  0  2  0  0  3  0  0  0  0  0  0
  187.0550  178.2500  143.4260 C   0  0  1  0  0  3  0  0  0  0  0  0
  187.7390  177.4410  144.5190 C   0  0  1  0  0  3  0  0  0  0  0  0
  1 10  1  1  0  0  0
  1  7  1  0  0  0  0
  2  1  1  0  0  0  0
  2  7  1  0  0  0  0
  3  4  1  0  0  0  0
  4  6  1  0  0  0  0
  5  3  1  0  0  0  0
  5  2  1  0  0  0  0
  7  6  1  0  0  0  0
  8 10  1  0  0  0  0
  9  8  2  0  0  0  0
 11 13  1  0  0  0  0
 11  9  1  0  0  0  0
 12 11  2  0  0  0  0
 14 26  1  0  0  0  0
 14  5  1  0  0  0  0
 16 24  1  0  0  0  0
 17 25  1  0  0  0  0
 18 20  1  0  0  0  0
 19 20  1  0  0  0  0
 20 15  1  0  0  0  0
 20 23  1  0  0  0  0
 21 17  1  0  0  0  0
 21 24  1  0  0  0  0
 22 18  1  0  0  0  0
 24 22  1  0  0  0  0
 25 22  1  0  0  0  0
 25 26  1  0  0  0  0
 26 19  1  0  0  0  0
M  END
>  <MODEL>
5

>  <REMARK>
 VINA RESULT:      -7.5      3.656      7.149
  Name = 
  4 active torsions:
  status: ('A' for Active; 'I' for Inactive)
    1  A    between atoms: C_1  and  N_21
    2  A    between atoms: C_4  and  N_25
    3  A    between atoms: C_15  and  C_18
    4  A    between atoms: C_18  and  C_26
                            x       y       z     vdW  Elec       q    Type
                         _______ _______ _______ _____ _____    ______ ____

>  <TORSDO>
F 4

$$$$
=
 OpenBabel11072408483D

 26 29  0  0  1  0  0  0  0  0999 V2000
  191.6130  174.5020  143.9300 C   0  0  2  0  0  3  0  0  0  0  0  0
  191.8910  175.9830  144.1470 C   0  0  1  0  0  3  0  0  0  0  0  0
  191.5090  176.4630  146.6090 C   0  0  0  0  0  2  0  0  0  0  0  0
  191.8430  175.0260  146.9350 C   0  0  0  0  0  2  0  0  0  0  0  0
  190.9140  176.4940  145.2160 C   0  0  1  0  0  3  0  0  0  0  0  0
  193.0030  174.5620  146.0640 C   0  0  0  0  0  2  0  0  0  0  0  0
  192.9220  174.9200  144.5650 C   0  0  1  0  0  3  0  0  0  0  0  0
  190.8080  173.6320  141.7020 C   0  0  0  0  0  3  0  0  0  0  0  0
  189.6200  173.4090  142.1690 N   0  0  0  0  0  0  0  0  0  0  0  0
  191.8370  174.1730  142.5320 N   0  0  0  0  0  2  0  0  0  0  0  0
  188.5720  172.8680  141.3610 C   0  0  0  0  0  0  0  0  0  0  0  0
  188.8450  172.4860  140.0550 O   0  0  0  0  0  0  0  0  0  0  0  0
  187.4060  172.7360  141.8180 O   0  0  0  0  0  1  0  0  0  0  0  0
  190.4690  177.9090  144.8860 C   0  0  0  0  0  2  0  0  0  0  0  0
  186.8370  178.5350  142.2290 C   0  0  0  0  0  1  0  0  0  0  0  0
  184.5870  177.3640  146.2750 C   0  0  0  0  0  1  0  0  0  0  0  0
  188.1310  177.6050  146.8640 C   0  0  0  0  0  2  0  0  0  0  0  0
  186.5160  176.5220  143.6920 C   0  0  0  0  0  2  0  0  0  0  0  0
  188.8610  177.3140  143.0620 C   0  0  0  0  0  2  0  0  0  0  0  0
  187.3930  177.1710  142.6060 C   0  0  0  0  0  0  0  0  0  0  0  0
  186.7930  177.1010  147.4030 C   0  0  0  0  0  2  0  0  0  0  0  0
  186.7170  177.2540  145.0130 C   0  0  1  0  0  3  0  0  0  0  0  0
  187.3600  176.2910  141.3750 C   0  0  0  0  0  1  0  0  0  0  0  0
  185.9500  176.7080  146.1900 C   0  0  2  0  0  3  0  0  0  0  0  0
  188.1510  177.1330  145.4290 C   0  0  1  0  0  3  0  0  0  0  0  0
  189.0060  177.9400  144.4620 C   0  0  1  0  0  3  0  0  0  0  0  0
  1 10  1  6  0  0  0
  1  2  1  0  0  0  0
  1  7  1  0  0  0  0
  2  7  1  0  0  0  0
  2  5  1  0  0  0  0
  3  4  1  0  0  0  0
  5  3  1  0  0  0  0
  6  4  1  0  0  0  0
  7  6  1  0  0  0  0
  8  9  2  0  0  0  0
  8 10  1  0  0  0  0
 11 13  1  0  0  0  0
 11  9  1  0  0  0  0
 12 11  2  0  0  0  0
 14  5  1  0  0  0  0
 15 20  1  0  0  0  0
 17 21  1  0  0  0  0
 18 22  1  0  0  0  0
 19 26  1  0  0  0  0
 20 19  1  0  0  0  0
 20 18  1  0  0  0  0
 22 25  1  0  0  0  0
 22 24  1  0  0  0  0
 23 20  1  0  0  0  0
 24 16  1  0  0  0  0
 24 21  1  0  0  0  0
 25 17  1  0  0  0  0
 26 14  1  0  0  0  0
 26 25  1  0  0  0  0
M  END
>  <MODEL>
6

>  <REMARK>
 VINA RESULT:      -7.2      2.541      5.748
  Name = 
  4 active torsions:
  status: ('A' for Active; 'I' for Inactive)
    1  A    between atoms: C_1  and  N_21
    2  A    between atoms: C_4  and  N_25
    3  A    between atoms: C_15  and  C_18
    4  A    between atoms: C_18  and  C_26
                            x       y       z     vdW  Elec       q    Type
                         _______ _______ _______ _____ _____    ______ ____

>  <TORSDO>
F 4

$$$$
=
 OpenBabel11072408483D

 26 29  0  0  1  0  0  0  0  0999 V2000
  192.6260  175.8000  144.9460 C   0  0  2  0  0  3  0  0  0  0  0  0
  191.4900  176.2070  145.8730 C   0  0  1  0  0  3  0  0  0  0  0  0
  189.3480  175.2700  144.8850 C   0  0  0  0  0  2  0  0  0  0  0  0
  190.1410  174.1680  144.2250 C   0  0  0  0  0  2  0  0  0  0  0  0
  190.2510  176.4800  145.0070 C   0  0  1  0  0  3  0  0  0  0  0  0
  191.2290  173.6820  145.1740 C   0  0  0  0  0  2  0  0  0  0  0  0
  192.0470  174.7740  145.8970 C   0  0  1  0  0  3  0  0  0  0  0  0
  195.0360  176.4950  144.6620 C   0  0  0  0  0  3  0  0  0  0  0  0
  195.0090  176.2290  143.3940 N   0  0  0  0  0  0  0  0  0  0  0  0
  193.8820  176.3000  145.4810 N   0  0  0  0  0  2  0  0  0  0  0  0
  196.1480  176.4150  142.5510 C   0  0  0  0  0  0  0  0  0  0  0  0
  195.9750  176.4970  141.1760 O   0  0  0  0  0  0  0  0  0  0  0  0
  197.3060  176.5040  143.0390 O   0  0  0  0  0  1  0  0  0  0  0  0
  189.4610  177.6470  145.5750 C   0  0  0  0  0  2  0  0  0  0  0  0
  185.1760  176.4200  146.4580 C   0  0  0  0  0  1  0  0  0  0  0  0
  184.5940  177.9120  141.9600 C   0  0  0  0  0  1  0  0  0  0  0  0
  188.0820  178.0180  142.8490 C   0  0  0  0  0  2  0  0  0  0  0  0
  185.2230  178.5690  145.1650 C   0  0  0  0  0  2  0  0  0  0  0  0
  187.2020  177.8850  146.6280 C   0  0  0  0  0  2  0  0  0  0  0  0
  185.6680  177.8580  146.4560 C   0  0  0  0  0  0  0  0  0  0  0  0
  187.0170  178.4820  141.8560 C   0  0  0  0  0  2  0  0  0  0  0  0
  186.0180  178.0260  143.9860 C   0  0  1  0  0  3  0  0  0  0  0  0
  185.0430  178.5720  147.6360 C   0  0  0  0  0  1  0  0  0  0  0  0
  185.7220  178.6550  142.6480 C   0  0  2  0  0  3  0  0  0  0  0  0
  187.4740  178.3070  144.2010 C   0  0  1  0  0  3  0  0  0  0  0  0
  187.9650  177.4530  145.3620 C   0  0  1  0  0  3  0  0  0  0  0  0
  1 10  1  1  0  0  0
  1  2  1  0  0  0  0
  1  7  1  0  0  0  0
  2  7  1  0  0  0  0
  3  5  1  0  0  0  0
  4  3  1  0  0  0  0
  4  6  1  0  0  0  0
  5 14  1  0  0  0  0
  5  2  1  0  0  0  0
  6  7  1  0  0  0  0
  8 10  1  0  0  0  0
  9  8  2  0  0  0  0
 11 13  1  0  0  0  0
 11  9  1  0  0  0  0
 12 11  2  0  0  0  0
 16 24  1  0  0  0  0
 17 25  1  0  0  0  0
 18 20  1  0  0  0  0
 20 15  1  0  0  0  0
 20 19  1  0  0  0  0
 20 23  1  0  0  0  0
 21 24  1  0  0  0  0
 21 17  1  0  0  0  0
 22 25  1  0  0  0  0
 22 18  1  0  0  0  0
 24 22  1  0  0  0  0
 25 26  1  0  0  0  0
 26 14  1  0  0  0  0
 26 19  1  0  0  0  0
M  END
>  <MODEL>
7

>  <REMARK>
 VINA RESULT:      -7.2      3.863      7.331
  Name = 
  4 active torsions:
  status: ('A' for Active; 'I' for Inactive)
    1  A    between atoms: C_1  and  N_21
    2  A    between atoms: C_4  and  N_25
    3  A    between atoms: C_15  and  C_18
    4  A    between atoms: C_18  and  C_26
                            x       y       z     vdW  Elec       q    Type
                         _______ _______ _______ _____ _____    ______ ____

>  <TORSDO>
F 4

$$$$
=
 OpenBabel11072408483D

 26 29  0  0  1  0  0  0  0  0999 V2000
  185.7370  177.6570  145.6520 C   0  0  2  0  0  3  0  0  0  0  0  0
  186.5990  178.4640  144.6910 C   0  0  1  0  0  3  0  0  0  0  0  0
  185.4230  178.4530  142.4420 C   0  0  0  0  0  2  0  0  0  0  0  0
  184.0980  178.2700  143.1430 C   0  0  0  0  0  2  0  0  0  0  0  0
  186.4930  177.8140  143.3040 C   0  0  1  0  0  3  0  0  0  0  0  0
  184.0660  179.1210  144.4060 C   0  0  0  0  0  2  0  0  0  0  0  0
  185.3240  179.0700  145.3000 C   0  0  1  0  0  3  0  0  0  0  0  0
  187.5150  176.8560  147.2550 C   0  0  0  0  0  3  0  0  0  0  0  0
  188.0530  176.1010  146.3490 N   0  0  0  0  0  0  0  0  0  0  0  0
  186.3640  177.6490  146.9640 N   0  0  0  0  0  2  0  0  0  0  0  0
  189.2050  175.2980  146.6120 C   0  0  0  0  0  0  0  0  0  0  0  0
  190.2160  175.7970  147.4220 O   0  0  0  0  0  1  0  0  0  0  0  0
  189.3170  174.1440  146.1180 O   0  0  0  0  0  0  0  0  0  0  0  0
  187.8310  177.8870  142.5870 C   0  0  0  0  0  2  0  0  0  0  0  0
  188.9090  173.4750  142.7210 C   0  0  0  0  0  1  0  0  0  0  0  0
  192.8030  175.2410  144.8470 C   0  0  0  0  0  1  0  0  0  0  0  0
  190.4360  177.8830  144.2260 C   0  0  0  0  0  2  0  0  0  0  0  0
  190.9210  174.8510  142.1250 C   0  0  0  0  0  2  0  0  0  0  0  0
  188.5660  175.6980  141.6170 C   0  0  0  0  0  2  0  0  0  0  0  0
  189.4870  174.4640  141.7210 C   0  0  0  0  0  0  0  0  0  0  0  0
  191.8830  177.5410  144.5780 C   0  0  0  0  0  2  0  0  0  0  0  0
  190.8790  175.7350  143.3640 C   0  0  1  0  0  3  0  0  0  0  0  0
  189.5360  173.7900  140.3670 C   0  0  0  0  0  1  0  0  0  0  0  0
  192.2130  176.2310  143.8630 C   0  0  2  0  0  3  0  0  0  0  0  0
  190.1230  176.9900  143.0490 C   0  0  1  0  0  3  0  0  0  0  0  0
  188.6580  176.6320  142.8390 C   0  0  1  0  0  3  0  0  0  0  0  0
  1 10  1  1  0  0  0
  2  7  1  0  0  0  0
  2  1  1  0  0  0  0
  3  4  1  0  0  0  0
  3  5  1  0  0  0  0
  4  6  1  0  0  0  0
  5  2  1  0  0  0  0
  6  7  1  0  0  0  0
  7  1  1  0  0  0  0
  9 11  1  0  0  0  0
  9  8  2  0  0  0  0
 10  8  1  0  0  0  0
 11 12  1  0  0  0  0
 13 11  2  0  0  0  0
 14 26  1  0  0  0  0
 14  5  1  0  0  0  0
 17 21  1  0  0  0  0
 18 22  1  0  0  0  0
 19 20  1  0  0  0  0
 19 26  1  0  0  0  0
 20 18  1  0  0  0  0
 20 15  1  0  0  0  0
 22 24  1  0  0  0  0
 23 20  1  0  0  0  0
 24 21  1  0  0  0  0
 24 16  1  0  0  0  0
 25 22  1  0  0  0  0
 25 17  1  0  0  0  0
 26 25  1  0  0  0  0
M  END
>  <MODEL>
8

>  <REMARK>
 VINA RESULT:      -7.1      2.686      4.171
  Name = 
  4 active torsions:
  status: ('A' for Active; 'I' for Inactive)
    1  A    between atoms: C_1  and  N_21
    2  A    between atoms: C_4  and  N_25
    3  A    between atoms: C_15  and  C_18
    4  A    between atoms: C_18  and  C_26
                            x       y       z     vdW  Elec       q    Type
                         _______ _______ _______ _____ _____    ______ ____

>  <TORSDO>
F 4

$$$$
=
 OpenBabel11072408483D

 26 29  0  0  1  0  0  0  0  0999 V2000
  192.6810  175.5510  144.8670 C   0  0  2  0  0  3  0  0  0  0  0  0
  191.6330  175.2650  145.9340 C   0  0  1  0  0  3  0  0  0  0  0  0
  190.1760  173.3790  145.0640 C   0  0  0  0  0  2  0  0  0  0  0  0
  191.3290  172.8840  144.2240 C   0  0  0  0  0  2  0  0  0  0  0  0
  190.3290  174.8780  145.2210 C   0  0  1  0  0  3  0  0  0  0  0  0
  192.6260  173.0090  145.0130 C   0  0  0  0  0  2  0  0  0  0  0  0
  192.8490  174.3410  145.7600 C   0  0  1  0  0  3  0  0  0  0  0  0
  194.8970  176.7600  144.8620 C   0  0  0  0  0  3  0  0  0  0  0  0
  195.3960  175.9320  143.9990 N   0  0  0  0  0  0  0  0  0  0  0  0
  193.5540  176.6180  145.3290 N   0  0  0  0  0  2  0  0  0  0  0  0
  196.7350  176.0510  143.5150 C   0  0  0  0  0  0  0  0  0  0  0  0
  197.5440  174.9240  143.4600 O   0  0  0  0  0  1  0  0  0  0  0  0
  197.1910  177.1630  143.1390 O   0  0  0  0  0  0  0  0  0  0  0  0
  189.1330  175.4330  145.9760 C   0  0  0  0  0  2  0  0  0  0  0  0
  188.1660  178.1900  142.4970 C   0  0  0  0  0  1  0  0  0  0  0  0
  184.3190  179.0440  145.1930 C   0  0  0  0  0  1  0  0  0  0  0  0
  186.5970  176.8780  146.9510 C   0  0  0  0  0  2  0  0  0  0  0  0
  186.1000  176.9920  143.2660 C   0  0  0  0  0  2  0  0  0  0  0  0
  188.4120  175.9740  143.6400 C   0  0  0  0  0  2  0  0  0  0  0  0
  187.5260  176.8270  142.7090 C   0  0  0  0  0  0  0  0  0  0  0  0
  185.1730  177.4300  146.8890 C   0  0  0  0  0  2  0  0  0  0  0  0
  186.1700  177.4690  144.7100 C   0  0  1  0  0  3  0  0  0  0  0  0
  187.4380  176.1330  141.3660 C   0  0  0  0  0  1  0  0  0  0  0  0
  184.8460  177.6400  145.4110 C   0  0  2  0  0  3  0  0  0  0  0  0
  186.8830  176.4400  145.5340 C   0  0  1  0  0  3  0  0  0  0  0  0
  188.3470  176.4130  145.1150 C   0  0  1  0  0  3  0  0  0  0  0  0
  1 10  1  1  0  0  0
  1  7  1  0  0  0  0
  1  2  1  0  0  0  0
  3  5  1  0  0  0  0
  4  6  1  0  0  0  0
  4  3  1  0  0  0  0
  5  2  1  0  0  0  0
  5 14  1  0  0  0  0
  6  7  1  0  0  0  0
  7  2  1  0  0  0  0
  8 10  1  0  0  0  0
  9  8  2  0  0  0  0
 11  9  1  0  0  0  0
 12 11  1  0  0  0  0
 13 11  2  0  0  0  0
 15 20  1  0  0  0  0
 16 24  1  0  0  0  0
 18 22  1  0  0  0  0
 19 26  1  0  0  0  0
 20 18  1  0  0  0  0
 20 19  1  0  0  0  0
 21 17  1  0  0  0  0
 22 24  1  0  0  0  0
 22 25  1  0  0  0  0
 23 20  1  0  0  0  0
 24 21  1  0  0  0  0
 25 17  1  0  0  0  0
 26 25  1  0  0  0  0
 26 14  1  0  0  0  0
M  END
>  <MODEL>
9

>  <REMARK>
 VINA RESULT:      -7.1      4.108      7.285
  Name = 
  4 active torsions:
  status: ('A' for Active; 'I' for Inactive)
    1  A    between atoms: C_1  and  N_21
    2  A    between atoms: C_4  and  N_25
    3  A    between atoms: C_15  and  C_18
    4  A    between atoms: C_18  and  C_26
                            x       y       z     vdW  Elec       q    Type
                         _______ _______ _______ _____ _____    ______ ____

>  <TORSDO>
F 4

$$$$
