=
 OpenBabel11062422543D

 46 52  0  0  1  0  0  0  0  0999 V2000
  194.5590  172.5700  144.9390 C   0  0  2  0  0  3  0  0  0  0  0  0
  195.4370  175.3170  145.7390 C   0  0  0  0  0  2  0  0  0  0  0  0
  195.5230  174.9300  143.2680 C   0  0  2  0  0  3  0  0  0  0  0  0
  191.6320  176.4920  147.4250 C   0  0  1  0  0  3  0  0  0  0  0  0
  191.9180  176.9740  148.8360 C   0  0  0  0  0  1  0  0  0  0  0  0
  192.5940  176.3710  145.1090 C   0  0  0  0  0  2  0  0  0  0  0  0
  189.2330  174.9380  146.0360 C   0  0  0  0  0  0  0  0  0  0  0  0
  195.4090  172.8780  141.7200 C   0  0  0  0  0  3  0  0  0  0  0  0
  189.2980  174.0080  144.8690 C   0  0  1  0  0  3  0  0  0  0  0  0
  192.7750  173.5880  143.4440 C   0  0  0  0  0  2  0  0  0  0  0  0
  195.5010  175.1100  140.7250 C   0  0  0  0  0  2  0  0  0  0  0  0
  194.7730  176.6780  145.7590 C   0  0  1  0  0  3  0  0  0  0  0  0
  188.7860  174.5230  147.1390 O   0  0  0  0  0  0  0  0  0  0  0  0
  195.9930  173.4650  142.9740 C   0  0  2  0  0  3  0  0  0  0  0  0
  190.2290  176.9580  147.0440 C   0  0  0  0  0  2  0  0  0  0  0  0
  194.5940  175.0550  144.5000 C   0  0  2  0  0  0  0  0  0  0  0  0
  192.6810  177.0410  146.4500 C   0  0  2  0  0  3  0  0  0  0  0  0
  190.4450  174.6710  142.9750 C   0  0  0  0  0  0  0  0  0  0  0  0
  193.9480  176.3870  144.5830 N   0  0  1  0  0  0  0  0  0  0  0  0
  190.7090  175.1860  141.8560 O   0  0  0  0  0  0  0  0  0  0  0  0
  195.2030  173.6460  140.6520 C   0  0  0  0  0  0  0  0  0  0  0  0
  191.3480  173.8780  143.7680 C   0  0  0  0  0  0  0  0  0  0  0  0
  193.6830  173.8080  144.6640 C   0  0  2  0  0  3  0  0  0  0  0  0
  189.1890  174.7630  143.6170 N   0  0  0  0  0  0  0  0  0  0  0  0
  189.7590  176.2280  145.9190 O   0  0  0  0  0  0  0  0  0  0  0  0
  193.9760  176.7970  146.9150 O   0  0  0  0  0  0  0  0  0  0  0  0
  194.9470  175.6620  142.0350 C   0  0  0  0  0  2  0  0  0  0  0  0
  195.8760  172.4750  144.1430 C   0  0  1  0  0  3  0  0  0  0  0  0
  190.6920  173.4310  144.8310 C   0  0  0  0  0  3  0  0  0  0  0  0
  194.1210  172.6440  138.5190 N   0  0  0  0  0  0  0  0  0  0  0  0
  194.6050  173.0910  139.4720 C   0  0  0  0  0  0  0  0  0  0  0  0
  193.8100  171.2430  145.0320 C   0  0  0  0  0  2  0  0  0  0  0  0
  194.2370  170.3600  144.0380 O   0  0  0  0  0  1  0  0  0  0  0  0
  196.9600  172.6360  145.0080 O   0  0  0  0  0  0  0  0  0  0  0  0
  197.8770  171.6580  144.6180 C   0  0  0  0  0  2  0  0  0  0  0  0
  197.5470  170.3500  145.3090 C   0  0  0  0  0  1  0  0  0  0  0  0
  187.9430  175.0090  142.9010 C   0  0  0  0  0  2  0  0  0  0  0  0
  186.5770  176.7500  141.7460 C   0  0  0  0  0  2  0  0  0  0  0  0
  186.0920  178.1760  141.7550 C   0  0  0  0  0  3  0  0  0  0  0  0
  186.2530  178.9910  142.8100 C   0  0  0  0  0  3  0  0  0  0  0  0
  187.6480  176.4990  142.8090 C   0  0  1  0  0  3  0  0  0  0  0  0
  187.2030  177.0720  144.1620 C   0  0  1  0  0  3  0  0  0  0  0  0
  187.0270  178.5870  144.0400 C   0  0  0  0  0  2  0  0  0  0  0  0
  186.0100  176.4810  144.5950 O   0  0  0  0  0  0  0  0  0  0  0  0
  185.9750  176.7130  145.9710 C   0  0  0  0  0  2  0  0  0  0  0  0
  184.6760  177.4010  146.3340 C   0  0  0  0  0  1  0  0  0  0  0  0
  1 32  1  6  0  0  0
  3 27  1  6  0  0  0
  3 16  1  0  0  0  0
  4  5  1  1  0  0  0
  7 13  2  0  0  0  0
  9 29  1  6  0  0  0
  9  7  1  0  0  0  0
 10 22  1  0  0  0  0
 11 27  1  0  0  0  0
 12  2  1  1  0  0  0
 12 26  1  0  0  0  0
 14  8  1  6  0  0  0
 14  3  1  0  0  0  0
 14 28  1  0  0  0  0
 15  4  1  0  0  0  0
 16 19  1  0  0  0  0
 16 23  1  0  0  0  0
 16  2  1  1  0  0  0
 17  6  1  6  0  0  0
 17 26  1  0  0  0  0
 17  4  1  0  0  0  0
 18 24  1  0  0  0  0
 18 22  1  0  0  0  0
 19  6  1  1  0  0  0
 19 12  1  0  0  0  0
 20 18  2  0  0  0  0
 21 11  1  0  0  0  0
 21  8  2  0  0  0  0
 22 29  2  0  0  0  0
 23 10  1  6  0  0  0
 23  1  1  0  0  0  0
 24  9  1  0  0  0  0
 25  7  1  0  0  0  0
 25 15  1  0  0  0  0
 28  1  1  0  0  0  0
 28 34  1  1  0  0  0
 30 31  3  0  0  0  0
 31 21  1  0  0  0  0
 33 32  1  0  0  0  0
 35 34  1  0  0  0  0
 35 36  1  0  0  0  0
 37 24  1  0  0  0  0
 38 39  1  0  0  0  0
 38 41  1  0  0  0  0
 39 40  2  0  0  0  0
 40 43  1  0  0  0  0
 41 37  1  1  0  0  0
 41 42  1  0  0  0  0
 42 44  1  6  0  0  0
 43 42  1  0  0  0  0
 44 45  1  0  0  0  0
 45 46  1  0  0  0  0
M  END
>  <MODEL>
1

>  <REMARK>
 VINA RESULT:      -7.5      0.000      0.000
  Name = 
  8 active torsions:
  status: ('A' for Active; 'I' for Inactive)
    1  A    between atoms: C_2  and  C_21
    2  A    between atoms: C_6  and  O_15
    3  A    between atoms: O_15  and  C_43
    4  A    between atoms: C_20  and  C_28
    5  A    between atoms: C_28  and  N_36
    6  A    between atoms: C_29  and  O_45
    7  A    between atoms: C_33  and  C_38
    8  A    between atoms: C_40  and  O_45
                            x       y       z     vdW  Elec       q    Type
                         _______ _______ _______ _____ _____    ______ ____

>  <TORSDO>
F 8

$$$$
=
 OpenBabel11062422543D

 46 52  0  0  1  0  0  0  0  0999 V2000
  192.5290  171.0630  142.0420 C   0  0  2  0  0  3  0  0  0  0  0  0
  195.2120  172.3370  141.6760 C   0  0  0  0  0  2  0  0  0  0  0  0
  193.5630  172.9770  139.9070 C   0  0  2  0  0  3  0  0  0  0  0  0
  195.1150  174.5760  145.3750 C   0  0  1  0  0  3  0  0  0  0  0  0
  196.3900  174.2280  146.1220 C   0  0  0  0  0  1  0  0  0  0  0  0
  194.1540  174.8880  143.0760 C   0  0  0  0  0  2  0  0  0  0  0  0
  192.1290  175.2380  146.2370 C   0  0  0  0  0  0  0  0  0  0  0  0
  191.2670  172.1130  139.1300 C   0  0  0  0  0  3  0  0  0  0  0  0
  190.8740  174.9680  145.4720 C   0  0  1  0  0  3  0  0  0  0  0  0
  191.4570  173.3660  142.0980 C   0  0  0  0  0  2  0  0  0  0  0  0
  192.1870  174.1280  138.0950 C   0  0  0  0  0  2  0  0  0  0  0  0
  195.7890  173.7010  141.9900 C   0  0  1  0  0  3  0  0  0  0  0  0
  192.2840  174.7290  147.3790 O   0  0  0  0  0  0  0  0  0  0  0  0
  192.6630  171.7460  139.5450 C   0  0  2  0  0  3  0  0  0  0  0  0
  194.5160  175.8220  146.0220 C   0  0  0  0  0  2  0  0  0  0  0  0
  193.9110  173.0790  141.4120 C   0  0  2  0  0  0  0  0  0  0  0  0
  195.4140  174.8140  143.8890 C   0  0  2  0  0  3  0  0  0  0  0  0
  190.7590  175.6020  143.2520 C   0  0  0  0  0  0  0  0  0  0  0  0
  194.5140  174.3870  141.7610 N   0  0  1  0  0  0  0  0  0  0  0  0
  190.5710  176.2890  142.2130 O   0  0  0  0  0  0  0  0  0  0  0  0
  191.0450  173.2190  138.4230 C   0  0  0  0  0  0  0  0  0  0  0  0
  191.1420  174.2140  143.2830 C   0  0  0  0  0  0  0  0  0  0  0  0
  192.7510  172.5650  142.3090 C   0  0  2  0  0  3  0  0  0  0  0  0
  190.5840  176.0860  144.5700 N   0  0  0  0  0  0  0  0  0  0  0  0
  193.1570  175.9700  145.6360 O   0  0  0  0  0  0  0  0  0  0  0  0
  196.1530  173.7580  143.3500 O   0  0  0  0  0  0  0  0  0  0  0  0
  193.0420  174.3190  139.3440 C   0  0  0  0  0  2  0  0  0  0  0  0
  192.6430  170.6050  140.5750 C   0  0  1  0  0  3  0  0  0  0  0  0
  191.1520  173.8090  144.5470 C   0  0  0  0  0  3  0  0  0  0  0  0
  188.6250  173.8860  137.7760 N   0  0  0  0  0  0  0  0  0  0  0  0
  189.7060  173.5880  138.0660 C   0  0  0  0  0  0  0  0  0  0  0  0
  191.3540  170.4320  142.7850 C   0  0  0  0  0  2  0  0  0  0  0  0
  190.5550  169.6900  141.9140 O   0  0  0  0  0  1  0  0  0  0  0  0
  193.7770  169.8070  140.4180 O   0  0  0  0  0  0  0  0  0  0  0  0
  193.2880  168.5690  139.9980 C   0  0  0  0  0  2  0  0  0  0  0  0
  193.5450  168.4010  138.5140 C   0  0  0  0  0  1  0  0  0  0  0  0
  189.7220  177.2160  144.8960 C   0  0  0  0  0  2  0  0  0  0  0  0
  187.9800  177.3890  146.6750 C   0  0  0  0  0  2  0  0  0  0  0  0
  186.5460  177.1280  147.0590 C   0  0  0  0  0  3  0  0  0  0  0  0
  185.6120  176.7600  146.1690 C   0  0  0  0  0  3  0  0  0  0  0  0
  188.3440  176.7440  145.3370 C   0  0  1  0  0  3  0  0  0  0  0  0
  187.2740  177.0610  144.2820 C   0  0  1  0  0  3  0  0  0  0  0  0
  185.9330  176.4710  144.7230 C   0  0  0  0  0  2  0  0  0  0  0  0
  187.1520  178.4420  144.0840 O   0  0  0  0  0  0  0  0  0  0  0  0
  186.5630  178.5710  142.8250 C   0  0  0  0  0  2  0  0  0  0  0  0
  187.5690  178.1990  141.7560 C   0  0  0  0  0  1  0  0  0  0  0  0
  1 23  1  0  0  0  0
  1 32  1  6  0  0  0
  3 27  1  1  0  0  0
  3 16  1  0  0  0  0
  4 15  1  0  0  0  0
  4  5  1  1  0  0  0
  7 13  2  0  0  0  0
  9 29  1  6  0  0  0
  9  7  1  0  0  0  0
 10 22  1  0  0  0  0
 11 21  1  0  0  0  0
 11 27  1  0  0  0  0
 12  2  1  1  0  0  0
 12 26  1  0  0  0  0
 14  8  1  1  0  0  0
 14  3  1  0  0  0  0
 14 28  1  0  0  0  0
 16  2  1  1  0  0  0
 16 19  1  0  0  0  0
 16 23  1  0  0  0  0
 17  6  1  6  0  0  0
 17  4  1  0  0  0  0
 18 22  1  0  0  0  0
 18 24  1  0  0  0  0
 19 12  1  0  0  0  0
 19  6  1  1  0  0  0
 20 18  2  0  0  0  0
 21  8  2  0  0  0  0
 22 29  2  0  0  0  0
 23 10  1  6  0  0  0
 24 37  1  0  0  0  0
 24  9  1  0  0  0  0
 25 15  1  0  0  0  0
 25  7  1  0  0  0  0
 26 17  1  0  0  0  0
 28 34  1  1  0  0  0
 28  1  1  0  0  0  0
 30 31  3  0  0  0  0
 31 21  1  0  0  0  0
 33 32  1  0  0  0  0
 35 34  1  0  0  0  0
 36 35  1  0  0  0  0
 38 39  1  0  0  0  0
 40 39  2  0  0  0  0
 41 37  1  6  0  0  0
 41 38  1  0  0  0  0
 42 44  1  1  0  0  0
 42 43  1  0  0  0  0
 42 41  1  0  0  0  0
 43 40  1  0  0  0  0
 45 44  1  0  0  0  0
 46 45  1  0  0  0  0
M  END
>  <MODEL>
2

>  <REMARK>
 VINA RESULT:      -6.9      2.527      4.220
  Name = 
  8 active torsions:
  status: ('A' for Active; 'I' for Inactive)
    1  A    between atoms: C_2  and  C_21
    2  A    between atoms: C_6  and  O_15
    3  A    between atoms: O_15  and  C_43
    4  A    between atoms: C_20  and  C_28
    5  A    between atoms: C_28  and  N_36
    6  A    between atoms: C_29  and  O_45
    7  A    between atoms: C_33  and  C_38
    8  A    between atoms: C_40  and  O_45
                            x       y       z     vdW  Elec       q    Type
                         _______ _______ _______ _____ _____    ______ ____

>  <TORSDO>
F 8

$$$$
=
 OpenBabel11062422543D

 46 52  0  0  1  0  0  0  0  0999 V2000
  194.4270  174.9210  140.8590 C   0  0  2  0  0  3  0  0  0  0  0  0
  192.7290  172.5420  140.2190 C   0  0  0  0  0  2  0  0  0  0  0  0
  194.0400  172.2820  142.3340 C   0  0  2  0  0  3  0  0  0  0  0  0
  188.9580  174.6450  140.4770 C   0  0  1  0  0  3  0  0  0  0  0  0
  188.2290  174.3810  139.1720 C   0  0  0  0  0  1  0  0  0  0  0  0
  190.5490  173.6280  142.1320 C   0  0  0  0  0  2  0  0  0  0  0  0
  189.1560  177.1150  142.4670 C   0  0  0  0  0  0  0  0  0  0  0  0
  196.0160  173.5070  143.4380 C   0  0  0  0  0  3  0  0  0  0  0  0
  190.3090  177.5010  143.3370 C   0  0  1  0  0  3  0  0  0  0  0  0
  193.2540  175.1410  143.1010 C   0  0  0  0  0  2  0  0  0  0  0  0
  194.9250  171.6840  144.6490 C   0  0  0  0  0  2  0  0  0  0  0  0
  191.3800  172.0450  140.6940 C   0  0  1  0  0  3  0  0  0  0  0  0
  188.7330  177.9240  141.5980 O   0  0  0  0  0  0  0  0  0  0  0  0
  195.4560  172.9340  142.1670 C   0  0  2  0  0  3  0  0  0  0  0  0
  187.9490  175.2050  141.4750 C   0  0  0  0  0  2  0  0  0  0  0  0
  192.9020  173.0670  141.6360 C   0  0  2  0  0  0  0  0  0  0  0  0
  189.5980  173.3540  141.0030 C   0  0  2  0  0  3  0  0  0  0  0  0
  191.2970  175.8860  144.6630 C   0  0  0  0  0  0  0  0  0  0  0  0
  191.5600  172.5880  142.0440 N   0  0  1  0  0  0  0  0  0  0  0  0
  191.5480  175.1290  145.6380 O   0  0  0  0  0  0  0  0  0  0  0  0
  195.7900  172.9030  144.6030 C   0  0  0  0  0  0  0  0  0  0  0  0
  192.0690  175.9770  143.4510 C   0  0  0  0  0  0  0  0  0  0  0  0
  193.1550  174.5990  141.6680 C   0  0  2  0  0  3  0  0  0  0  0  0
  190.2230  176.8050  144.6240 N   0  0  0  0  0  0  0  0  0  0  0  0
  188.6250  175.8260  142.5600 O   0  0  0  0  0  0  0  0  0  0  0  0
  190.3560  172.7280  140.0100 O   0  0  0  0  0  0  0  0  0  0  0  0
  193.6840  171.9260  143.7950 C   0  0  0  0  0  2  0  0  0  0  0  0
  195.6010  173.9340  141.0090 C   0  0  1  0  0  3  0  0  0  0  0  0
  191.5580  176.9440  142.6990 C   0  0  0  0  0  3  0  0  0  0  0  0
  196.6930  173.9390  146.8020 N   0  0  0  0  0  0  0  0  0  0  0  0
  196.2900  173.4770  145.8200 C   0  0  0  0  0  0  0  0  0  0  0  0
  194.8610  176.3850  140.8740 C   0  0  0  0  0  2  0  0  0  0  0  0
  196.2180  176.5000  141.1830 O   0  0  0  0  0  1  0  0  0  0  0  0
  195.7920  173.2450  139.8110 O   0  0  0  0  0  0  0  0  0  0  0  0
  197.1470  173.4060  139.5170 C   0  0  0  0  0  2  0  0  0  0  0  0
  197.2950  174.2090  138.2410 C   0  0  0  0  0  1  0  0  0  0  0  0
  189.5940  177.3480  145.8220 C   0  0  0  0  0  2  0  0  0  0  0  0
  187.6310  177.2310  147.3590 C   0  0  0  0  0  2  0  0  0  0  0  0
  186.1710  176.8900  147.5090 C   0  0  0  0  0  3  0  0  0  0  0  0
  185.3740  176.6350  146.4590 C   0  0  0  0  0  3  0  0  0  0  0  0
  188.1890  176.7920  146.0040 C   0  0  1  0  0  3  0  0  0  0  0  0
  187.2540  177.2350  144.8710 C   0  0  1  0  0  3  0  0  0  0  0  0
  185.8910  176.5610  145.0430 C   0  0  0  0  0  2  0  0  0  0  0  0
  187.1050  178.6270  144.8520 O   0  0  0  0  0  0  0  0  0  0  0  0
  186.1840  178.8740  143.8330 C   0  0  0  0  0  2  0  0  0  0  0  0
  185.2750  180.0150  144.2390 C   0  0  0  0  0  1  0  0  0  0  0  0
  1 32  1  1  0  0  0
  1 28  1  0  0  0  0
  1 23  1  0  0  0  0
  3 27  1  1  0  0  0
  4  5  1  6  0  0  0
  4 17  1  0  0  0  0
  4 15  1  0  0  0  0
  7 25  1  0  0  0  0
  7  9  1  0  0  0  0
  8 21  2  0  0  0  0
  9 29  1  6  0  0  0
  9 24  1  0  0  0  0
 10 22  1  0  0  0  0
 12  2  1  6  0  0  0
 12 19  1  0  0  0  0
 13  7  2  0  0  0  0
 14  3  1  0  0  0  0
 14  8  1  1  0  0  0
 15 25  1  0  0  0  0
 16  2  1  6  0  0  0
 16 23  1  0  0  0  0
 16 19  1  0  0  0  0
 16  3  1  0  0  0  0
 17  6  1  1  0  0  0
 18 20  2  0  0  0  0
 19  6  1  6  0  0  0
 21 11  1  0  0  0  0
 21 31  1  0  0  0  0
 22 18  1  0  0  0  0
 23 10  1  1  0  0  0
 24 18  1  0  0  0  0
 24 37  1  0  0  0  0
 26 12  1  0  0  0  0
 26 17  1  0  0  0  0
 27 11  1  0  0  0  0
 28 34  1  6  0  0  0
 28 14  1  0  0  0  0
 29 22  2  0  0  0  0
 31 30  3  0  0  0  0
 32 33  1  0  0  0  0
 35 34  1  0  0  0  0
 36 35  1  0  0  0  0
 38 39  1  0  0  0  0
 40 39  2  0  0  0  0
 41 37  1  6  0  0  0
 41 38  1  0  0  0  0
 42 44  1  1  0  0  0
 42 43  1  0  0  0  0
 42 41  1  0  0  0  0
 43 40  1  0  0  0  0
 45 46  1  0  0  0  0
 45 44  1  0  0  0  0
M  END
>  <MODEL>
3

>  <REMARK>
 VINA RESULT:      -6.8      2.395      5.225
  Name = 
  8 active torsions:
  status: ('A' for Active; 'I' for Inactive)
    1  A    between atoms: C_2  and  C_21
    2  A    between atoms: C_6  and  O_15
    3  A    between atoms: O_15  and  C_43
    4  A    between atoms: C_20  and  C_28
    5  A    between atoms: C_28  and  N_36
    6  A    between atoms: C_29  and  O_45
    7  A    between atoms: C_33  and  C_38
    8  A    between atoms: C_40  and  O_45
                            x       y       z     vdW  Elec       q    Type
                         _______ _______ _______ _____ _____    ______ ____

>  <TORSDO>
F 8

$$$$
=
 OpenBabel11062422543D

 46 52  0  0  1  0  0  0  0  0999 V2000
  191.6190  176.3060  143.8330 C   0  0  2  0  0  3  0  0  0  0  0  0
  192.2340  173.8980  145.5000 C   0  0  0  0  0  2  0  0  0  0  0  0
  190.6320  173.4280  143.6360 C   0  0  2  0  0  3  0  0  0  0  0  0
  196.4530  173.8060  144.5510 C   0  0  1  0  0  3  0  0  0  0  0  0
  197.1910  173.7910  145.8770 C   0  0  0  0  0  1  0  0  0  0  0  0
  194.3520  173.0370  143.4110 C   0  0  0  0  0  2  0  0  0  0  0  0
  197.0140  175.0810  141.6940 C   0  0  0  0  0  0  0  0  0  0  0  0
  189.2130  174.8480  142.0250 C   0  0  0  0  0  3  0  0  0  0  0  0
  196.0140  175.5560  140.6900 C   0  0  1  0  0  3  0  0  0  0  0  0
  192.4230  175.0660  141.7660 C   0  0  0  0  0  2  0  0  0  0  0  0
  189.2400  172.4180  141.7540 C   0  0  0  0  0  2  0  0  0  0  0  0
  193.1600  172.7100  145.3440 C   0  0  1  0  0  3  0  0  0  0  0  0
  197.8640  175.8880  142.1570 O   0  0  0  0  0  0  0  0  0  0  0  0
  189.6650  174.6470  143.4440 C   0  0  2  0  0  3  0  0  0  0  0  0
  197.4410  173.4090  143.4570 C   0  0  0  0  0  2  0  0  0  0  0  0
  192.0860  173.8300  143.9870 C   0  0  2  0  0  0  0  0  0  0  0  0
  195.2580  172.8450  144.5920 C   0  0  2  0  0  3  0  0  0  0  0  0
  194.2500  174.1710  140.1290 C   0  0  0  0  0  0  0  0  0  0  0  0
  193.0240  172.6880  143.8840 N   0  0  1  0  0  0  0  0  0  0  0  0
  193.5600  173.2860  139.5570 O   0  0  0  0  0  0  0  0  0  0  0  0
  188.9860  173.7990  141.2380 C   0  0  0  0  0  0  0  0  0  0  0  0
  193.7810  175.0700  141.1510 C   0  0  0  0  0  0  0  0  0  0  0  0
  192.4990  175.1590  143.2970 C   0  0  2  0  0  3  0  0  0  0  0  0
  195.6040  174.4460  139.8250 N   0  0  0  0  0  0  0  0  0  0  0  0
  196.9330  173.7740  142.1820 O   0  0  0  0  0  0  0  0  0  0  0  0
  194.4670  173.0760  145.7200 O   0  0  0  0  0  0  0  0  0  0  0  0
  190.5810  172.4020  142.4820 C   0  0  0  0  0  2  0  0  0  0  0  0
  190.1300  175.9750  144.0600 C   0  0  1  0  0  3  0  0  0  0  0  0
  194.7590  175.9190  141.4440 C   0  0  0  0  0  3  0  0  0  0  0  0
  188.2830  174.1550  138.7680 N   0  0  0  0  0  0  0  0  0  0  0  0
  188.5960  173.9960  139.8710 C   0  0  0  0  0  0  0  0  0  0  0  0
  191.8440  177.6670  143.1780 C   0  0  0  0  0  2  0  0  0  0  0  0
  191.1790  178.6740  143.8800 O   0  0  0  0  0  1  0  0  0  0  0  0
  189.8510  175.9860  145.4280 O   0  0  0  0  0  0  0  0  0  0  0  0
  188.4640  176.1220  145.5090 C   0  0  0  0  0  2  0  0  0  0  0  0
  188.0740  177.5410  145.1460 C   0  0  0  0  0  1  0  0  0  0  0  0
  196.2140  174.1250  138.5410 C   0  0  0  0  0  2  0  0  0  0  0  0
  197.3500  175.4300  136.7420 C   0  0  0  0  0  2  0  0  0  0  0  0
  197.1910  176.4160  135.6130 C   0  0  0  0  0  3  0  0  0  0  0  0
  195.9920  176.7800  135.1310 C   0  0  0  0  0  3  0  0  0  0  0  0
  196.0660  175.2790  137.5600 C   0  0  1  0  0  3  0  0  0  0  0  0
  194.8610  175.0820  136.6310 C   0  0  1  0  0  3  0  0  0  0  0  0
  194.6930  176.3170  135.7440 C   0  0  0  0  0  2  0  0  0  0  0  0
  195.0120  173.9370  135.8400 O   0  0  0  0  0  0  0  0  0  0  0  0
  193.7390  173.3670  135.7890 C   0  0  0  0  0  2  0  0  0  0  0  0
  193.8120  171.9250  136.2450 C   0  0  0  0  0  1  0  0  0  0  0  0
  1 32  1  6  0  0  0
  1 28  1  0  0  0  0
  3 27  1  6  0  0  0
  3 16  1  0  0  0  0
  4 17  1  0  0  0  0
  4  5  1  1  0  0  0
  7 13  2  0  0  0  0
  7 25  1  0  0  0  0
  9 29  1  1  0  0  0
  9  7  1  0  0  0  0
 11 27  1  0  0  0  0
 12  2  1  1  0  0  0
 12 26  1  0  0  0  0
 14  8  1  6  0  0  0
 14  3  1  0  0  0  0
 14 28  1  0  0  0  0
 15  4  1  0  0  0  0
 16  2  1  1  0  0  0
 17  6  1  6  0  0  0
 17 26  1  0  0  0  0
 18 22  1  0  0  0  0
 19  6  1  6  0  0  0
 19 16  1  0  0  0  0
 19 12  1  0  0  0  0
 20 18  2  0  0  0  0
 21 11  1  0  0  0  0
 21  8  2  0  0  0  0
 22 29  2  0  0  0  0
 22 10  1  0  0  0  0
 23 10  1  6  0  0  0
 23  1  1  0  0  0  0
 23 16  1  0  0  0  0
 24 18  1  0  0  0  0
 24  9  1  0  0  0  0
 25 15  1  0  0  0  0
 28 34  1  1  0  0  0
 30 31  3  0  0  0  0
 31 21  1  0  0  0  0
 32 33  1  0  0  0  0
 34 35  1  0  0  0  0
 36 35  1  0  0  0  0
 37 24  1  0  0  0  0
 38 41  1  0  0  0  0
 39 38  1  0  0  0  0
 40 39  2  0  0  0  0
 40 43  1  0  0  0  0
 41 37  1  1  0  0  0
 42 44  1  6  0  0  0
 42 41  1  0  0  0  0
 43 42  1  0  0  0  0
 45 44  1  0  0  0  0
 45 46  1  0  0  0  0
M  END
>  <MODEL>
4

>  <REMARK>
 VINA RESULT:      -6.6      2.998      8.110
  Name = 
  8 active torsions:
  status: ('A' for Active; 'I' for Inactive)
    1  A    between atoms: C_2  and  C_21
    2  A    between atoms: C_6  and  O_15
    3  A    between atoms: O_15  and  C_43
    4  A    between atoms: C_20  and  C_28
    5  A    between atoms: C_28  and  N_36
    6  A    between atoms: C_29  and  O_45
    7  A    between atoms: C_33  and  C_38
    8  A    between atoms: C_40  and  O_45
                            x       y       z     vdW  Elec       q    Type
                         _______ _______ _______ _____ _____    ______ ____

>  <TORSDO>
F 8

$$$$
=
 OpenBabel11062422543D

 46 52  0  0  1  0  0  0  0  0999 V2000
  190.6710  175.4900  146.5970 C   0  0  2  0  0  3  0  0  0  0  0  0
  190.4530  177.9000  144.8350 C   0  0  0  0  0  2  0  0  0  0  0  0
  192.7840  177.0090  145.0090 C   0  0  2  0  0  3  0  0  0  0  0  0
  187.8410  176.0490  141.9260 C   0  0  1  0  0  3  0  0  0  0  0  0
  186.6350  176.9620  141.7890 C   0  0  0  0  0  1  0  0  0  0  0  0
  190.3130  176.0370  142.3640 C   0  0  0  0  0  2  0  0  0  0  0  0
  188.2880  172.9050  141.8200 C   0  0  0  0  0  0  0  0  0  0  0  0
  194.0100  175.3450  146.5430 C   0  0  0  0  0  3  0  0  0  0  0  0
  189.3210  172.1010  142.5410 C   0  0  1  0  0  3  0  0  0  0  0  0
  191.6630  174.1790  144.6600 C   0  0  0  0  0  2  0  0  0  0  0  0
  195.2100  176.3150  144.6450 C   0  0  0  0  0  2  0  0  0  0  0  0
  190.3740  178.1140  143.3380 C   0  0  1  0  0  3  0  0  0  0  0  0
  187.0660  172.6660  142.0130 O   0  0  0  0  0  0  0  0  0  0  0  0
  193.0540  176.5020  146.4670 C   0  0  2  0  0  3  0  0  0  0  0  0
  187.8340  175.0800  140.7480 C   0  0  0  0  0  2  0  0  0  0  0  0
  191.3510  176.7190  144.5000 C   0  0  2  0  0  0  0  0  0  0  0  0
  189.1340  176.8730  141.9570 C   0  0  2  0  0  3  0  0  0  0  0  0
  191.5280  172.7850  142.4560 C   0  0  0  0  0  0  0  0  0  0  0  0
  191.2160  176.9510  143.0410 N   0  0  1  0  0  0  0  0  0  0  0  0
  192.7210  172.9290  142.0790 O   0  0  0  0  0  0  0  0  0  0  0  0
  195.0420  175.2710  145.7040 C   0  0  0  0  0  0  0  0  0  0  0  0
  190.9620  173.3100  143.6710 C   0  0  0  0  0  0  0  0  0  0  0  0
  190.7980  175.3820  145.0640 C   0  0  2  0  0  3  0  0  0  0  0  0
  190.5530  172.0410  141.7500 N   0  0  0  0  0  0  0  0  0  0  0  0
  188.6870  173.9760  141.0150 O   0  0  0  0  0  0  0  0  0  0  0  0
  189.0530  177.9020  142.8990 O   0  0  0  0  0  0  0  0  0  0  0  0
  193.8590  176.5730  143.9870 C   0  0  0  0  0  2  0  0  0  0  0  0
  191.8080  176.2340  147.3250 C   0  0  1  0  0  3  0  0  0  0  0  0
  189.7120  172.8770  143.7750 C   0  0  0  0  0  3  0  0  0  0  0  0
  196.6430  173.2340  145.7910 N   0  0  0  0  0  0  0  0  0  0  0  0
  195.9280  174.1440  145.7510 C   0  0  0  0  0  0  0  0  0  0  0  0
  190.2250  174.2160  147.3100 C   0  0  0  0  0  2  0  0  0  0  0  0
  188.8690  174.2780  147.6380 O   0  0  0  0  0  1  0  0  0  0  0  0
  191.3250  177.4350  147.8460 O   0  0  0  0  0  0  0  0  0  0  0  0
  191.5660  177.3530  149.2180 C   0  0  0  0  0  2  0  0  0  0  0  0
  191.1910  178.6660  149.8760 C   0  0  0  0  0  1  0  0  0  0  0  0
  190.8880  170.9750  140.8140 C   0  0  0  0  0  2  0  0  0  0  0  0
  191.0630  172.4250  138.7910 C   0  0  0  0  0  2  0  0  0  0  0  0
  190.6840  172.6170  137.3450 C   0  0  0  0  0  3  0  0  0  0  0  0
  190.1080  171.6510  136.6120 C   0  0  0  0  0  3  0  0  0  0  0  0
  190.3140  171.2570  139.4330 C   0  0  1  0  0  3  0  0  0  0  0  0
  190.3790  170.0180  138.5290 C   0  0  1  0  0  3  0  0  0  0  0  0
  189.6910  170.3240  137.1960 C   0  0  0  0  0  2  0  0  0  0  0  0
  191.7030  169.6200  138.3090 O   0  0  0  0  0  0  0  0  0  0  0  0
  191.6030  168.3660  137.7050 C   0  0  0  0  0  2  0  0  0  0  0  0
  192.6200  168.2620  136.5870 C   0  0  0  0  0  1  0  0  0  0  0  0
  1 32  1  1  0  0  0
  1 28  1  0  0  0  0
  3 27  1  6  0  0  0
  3 14  1  0  0  0  0
  4  5  1  6  0  0  0
  4 17  1  0  0  0  0
  7 13  2  0  0  0  0
  7  9  1  0  0  0  0
  9 29  1  1  0  0  0
 11 21  1  0  0  0  0
 12  2  1  1  0  0  0
 14  8  1  6  0  0  0
 14 28  1  0  0  0  0
 15 25  1  0  0  0  0
 15  4  1  0  0  0  0
 16  2  1  1  0  0  0
 16  3  1  0  0  0  0
 16 23  1  0  0  0  0
 17  6  1  1  0  0  0
 17 26  1  0  0  0  0
 18 22  1  0  0  0  0
 19  6  1  6  0  0  0
 19 12  1  0  0  0  0
 19 16  1  0  0  0  0
 20 18  2  0  0  0  0
 21 31  1  0  0  0  0
 21  8  2  0  0  0  0
 22 29  2  0  0  0  0
 22 10  1  0  0  0  0
 23 10  1  1  0  0  0
 23  1  1  0  0  0  0
 24 18  1  0  0  0  0
 24  9  1  0  0  0  0
 25  7  1  0  0  0  0
 26 12  1  0  0  0  0
 27 11  1  0  0  0  0
 28 34  1  6  0  0  0
 31 30  3  0  0  0  0
 32 33  1  0  0  0  0
 34 35  1  0  0  0  0
 35 36  1  0  0  0  0
 37 24  1  0  0  0  0
 38 41  1  0  0  0  0
 39 38  1  0  0  0  0
 40 43  1  0  0  0  0
 40 39  2  0  0  0  0
 41 37  1  1  0  0  0
 42 44  1  6  0  0  0
 42 41  1  0  0  0  0
 43 42  1  0  0  0  0
 45 44  1  0  0  0  0
 46 45  1  0  0  0  0
M  END
>  <MODEL>
5

>  <REMARK>
 VINA RESULT:      -6.5      3.117      6.904
  Name = 
  8 active torsions:
  status: ('A' for Active; 'I' for Inactive)
    1  A    between atoms: C_2  and  C_21
    2  A    between atoms: C_6  and  O_15
    3  A    between atoms: O_15  and  C_43
    4  A    between atoms: C_20  and  C_28
    5  A    between atoms: C_28  and  N_36
    6  A    between atoms: C_29  and  O_45
    7  A    between atoms: C_33  and  C_38
    8  A    between atoms: C_40  and  O_45
                            x       y       z     vdW  Elec       q    Type
                         _______ _______ _______ _____ _____    ______ ____

>  <TORSDO>
F 8

$$$$
=
 OpenBabel11062422543D

 46 52  0  0  1  0  0  0  0  0999 V2000
  193.7380  173.3680  144.3980 C   0  0  2  0  0  3  0  0  0  0  0  0
  192.9030  176.2200  144.7560 C   0  0  0  0  0  2  0  0  0  0  0  0
  194.6330  175.9100  142.9740 C   0  0  2  0  0  3  0  0  0  0  0  0
  188.7740  175.5850  143.6360 C   0  0  1  0  0  3  0  0  0  0  0  0
  187.9310  176.1450  144.7680 C   0  0  0  0  0  1  0  0  0  0  0  0
  190.9310  175.9020  142.3890 C   0  0  0  0  0  2  0  0  0  0  0  0
  188.4920  173.1270  141.6410 C   0  0  0  0  0  0  0  0  0  0  0  0
  196.2270  174.0190  142.2630 C   0  0  0  0  0  3  0  0  0  0  0  0
  189.5860  172.3220  141.0190 C   0  0  1  0  0  3  0  0  0  0  0  0
  193.0590  173.4880  141.9530 C   0  0  0  0  0  2  0  0  0  0  0  0
  196.1340  176.0600  140.9190 C   0  0  0  0  0  2  0  0  0  0  0  0
  191.9510  177.1440  144.0270 C   0  0  1  0  0  3  0  0  0  0  0  0
  187.6370  172.5580  142.3720 O   0  0  0  0  0  0  0  0  0  0  0  0
  195.6550  174.8050  143.4090 C   0  0  2  0  0  3  0  0  0  0  0  0
  187.8640  175.3800  142.4280 C   0  0  0  0  0  2  0  0  0  0  0  0
  193.1710  175.6100  143.3880 C   0  0  2  0  0  0  0  0  0  0  0  0
  189.9260  176.5420  143.3040 C   0  0  2  0  0  3  0  0  0  0  0  0
  191.3370  173.4240  139.9900 C   0  0  0  0  0  0  0  0  0  0  0  0
  192.2030  176.5170  142.7260 N   0  0  1  0  0  0  0  0  0  0  0  0
  192.0390  174.0020  139.1180 O   0  0  0  0  0  0  0  0  0  0  0  0
  196.4790  174.6150  141.1000 C   0  0  0  0  0  0  0  0  0  0  0  0
  191.7550  173.1150  141.3330 C   0  0  0  0  0  0  0  0  0  0  0  0
  192.8630  174.0880  143.3530 C   0  0  2  0  0  3  0  0  0  0  0  0
  190.0230  172.9500  139.7690 N   0  0  0  0  0  0  0  0  0  0  0  0
  188.4860  174.5160  141.4870 O   0  0  0  0  0  0  0  0  0  0  0  0
  190.6320  176.8980  144.4560 O   0  0  0  0  0  0  0  0  0  0  0  0
  194.7390  176.3090  141.4850 C   0  0  0  0  0  2  0  0  0  0  0  0
  195.1900  173.8670  144.5340 C   0  0  1  0  0  3  0  0  0  0  0  0
  190.7880  172.4230  141.9240 C   0  0  0  0  0  3  0  0  0  0  0  0
  197.3910  173.2340  139.1040 N   0  0  0  0  0  0  0  0  0  0  0  0
  196.9840  173.8520  139.9950 C   0  0  0  0  0  0  0  0  0  0  0  0
  193.6150  171.8460  144.4200 C   0  0  0  0  0  2  0  0  0  0  0  0
  194.7290  171.2480  143.8280 O   0  0  0  0  0  1  0  0  0  0  0  0
  195.3580  174.4920  145.7700 O   0  0  0  0  0  0  0  0  0  0  0  0
  196.6580  174.1670  146.1610 C   0  0  0  0  0  2  0  0  0  0  0  0
  196.8280  172.6610  146.1530 C   0  0  0  0  0  1  0  0  0  0  0  0
  189.5080  172.6170  138.4470 C   0  0  0  0  0  2  0  0  0  0  0  0
  189.7560  170.1750  137.9940 C   0  0  0  0  0  2  0  0  0  0  0  0
  190.4440  169.1110  137.1780 C   0  0  0  0  0  3  0  0  0  0  0  0
  191.1920  169.3950  136.0990 C   0  0  0  0  0  3  0  0  0  0  0  0
  190.3700  171.5580  137.7730 C   0  0  1  0  0  3  0  0  0  0  0  0
  190.5370  171.8350  136.2730 C   0  0  1  0  0  3  0  0  0  0  0  0
  191.4980  170.8090  135.6690 C   0  0  0  0  0  2  0  0  0  0  0  0
  189.3050  171.7920  135.6090 O   0  0  0  0  0  0  0  0  0  0  0  0
  189.4570  172.6500  134.5190 C   0  0  0  0  0  2  0  0  0  0  0  0
  189.5340  174.0810  135.0090 C   0  0  0  0  0  1  0  0  0  0  0  0
  1 32  1  6  0  0  0
  1 28  1  0  0  0  0
  3 27  1  6  0  0  0
  3 16  1  0  0  0  0
  3 14  1  0  0  0  0
  4  5  1  1  0  0  0
  7 13  2  0  0  0  0
  9  7  1  0  0  0  0
  9 29  1  1  0  0  0
 11 21  1  0  0  0  0
 11 27  1  0  0  0  0
 12 26  1  0  0  0  0
 12  2  1  1  0  0  0
 14  8  1  6  0  0  0
 14 28  1  0  0  0  0
 15  4  1  0  0  0  0
 16  2  1  1  0  0  0
 17  6  1  6  0  0  0
 17  4  1  0  0  0  0
 17 26  1  0  0  0  0
 18 22  1  0  0  0  0
 19  6  1  1  0  0  0
 19 16  1  0  0  0  0
 19 12  1  0  0  0  0
 20 18  2  0  0  0  0
 21  8  2  0  0  0  0
 22 29  2  0  0  0  0
 22 10  1  0  0  0  0
 23 10  1  6  0  0  0
 23 16  1  0  0  0  0
 23  1  1  0  0  0  0
 24 18  1  0  0  0  0
 24  9  1  0  0  0  0
 25  7  1  0  0  0  0
 25 15  1  0  0  0  0
 28 34  1  1  0  0  0
 30 31  3  0  0  0  0
 31 21  1  0  0  0  0
 33 32  1  0  0  0  0
 34 35  1  0  0  0  0
 36 35  1  0  0  0  0
 37 24  1  0  0  0  0
 39 38  1  0  0  0  0
 40 39  2  0  0  0  0
 41 38  1  0  0  0  0
 41 37  1  6  0  0  0
 42 44  1  6  0  0  0
 42 41  1  0  0  0  0
 43 40  1  0  0  0  0
 43 42  1  0  0  0  0
 45 46  1  0  0  0  0
 45 44  1  0  0  0  0
M  END
>  <MODEL>
6

>  <REMARK>
 VINA RESULT:      -6.5      3.368      5.705
  Name = 
  8 active torsions:
  status: ('A' for Active; 'I' for Inactive)
    1  A    between atoms: C_2  and  C_21
    2  A    between atoms: C_6  and  O_15
    3  A    between atoms: O_15  and  C_43
    4  A    between atoms: C_20  and  C_28
    5  A    between atoms: C_28  and  N_36
    6  A    between atoms: C_29  and  O_45
    7  A    between atoms: C_33  and  C_38
    8  A    between atoms: C_40  and  O_45
                            x       y       z     vdW  Elec       q    Type
                         _______ _______ _______ _____ _____    ______ ____

>  <TORSDO>
F 8

$$$$
=
 OpenBabel11062422543D

 46 52  0  0  1  0  0  0  0  0999 V2000
  194.2040  171.8530  142.9630 C   0  0  2  0  0  3  0  0  0  0  0  0
  195.5480  174.5090  143.2710 C   0  0  0  0  0  2  0  0  0  0  0  0
  194.8430  174.0230  140.9200 C   0  0  2  0  0  3  0  0  0  0  0  0
  192.5670  176.1760  145.9240 C   0  0  1  0  0  3  0  0  0  0  0  0
  193.3120  176.6750  147.1490 C   0  0  0  0  0  1  0  0  0  0  0  0
  192.7660  175.8580  143.4420 C   0  0  0  0  0  2  0  0  0  0  0  0
  189.7190  174.8570  145.4230 C   0  0  0  0  0  0  0  0  0  0  0  0
  194.0640  171.9400  139.6240 C   0  0  0  0  0  3  0  0  0  0  0  0
  189.3360  173.8830  144.3570 C   0  0  1  0  0  3  0  0  0  0  0  0
  192.1600  173.0130  141.9980 C   0  0  0  0  0  2  0  0  0  0  0  0
  194.0700  174.1080  138.4920 C   0  0  0  0  0  2  0  0  0  0  0  0
  195.0580  175.9370  143.3920 C   0  0  1  0  0  3  0  0  0  0  0  0
  189.5890  174.5380  146.6360 O   0  0  0  0  0  0  0  0  0  0  0  0
  195.0560  172.5030  140.6030 C   0  0  2  0  0  3  0  0  0  0  0  0
  191.1680  176.7850  145.9450 C   0  0  0  0  0  2  0  0  0  0  0  0
  194.3480  174.3000  142.3610 C   0  0  2  0  0  0  0  0  0  0  0  0
  193.3200  176.5640  144.6450 C   0  0  2  0  0  3  0  0  0  0  0  0
  189.9150  174.3380  142.1660 C   0  0  0  0  0  0  0  0  0  0  0  0
  193.8910  175.6990  142.5370 N   0  0  1  0  0  0  0  0  0  0  0  0
  189.8770  174.7770  140.9860 O   0  0  0  0  0  0  0  0  0  0  0  0
  193.6210  172.6860  138.6140 C   0  0  0  0  0  0  0  0  0  0  0  0
  190.9340  173.4770  142.7090 C   0  0  0  0  0  0  0  0  0  0  0  0
  193.4110  173.1720  142.8750 C   0  0  2  0  0  3  0  0  0  0  0  0
  188.9280  174.5980  143.1450 N   0  0  0  0  0  0  0  0  0  0  0  0
  190.3090  176.0720  145.0650 O   0  0  0  0  0  0  0  0  0  0  0  0
  194.6640  176.1900  144.7210 O   0  0  0  0  0  0  0  0  0  0  0  0
  193.9960  174.7690  139.8650 C   0  0  0  0  0  2  0  0  0  0  0  0
  195.2020  171.5780  141.8210 C   0  0  1  0  0  3  0  0  0  0  0  0
  190.5890  173.1480  143.9480 C   0  0  0  0  0  3  0  0  0  0  0  0
  191.8530  171.7340  136.9740 N   0  0  0  0  0  0  0  0  0  0  0  0
  192.6420  172.1600  137.7070 C   0  0  0  0  0  0  0  0  0  0  0  0
  193.3910  170.6250  143.3680 C   0  0  0  0  0  2  0  0  0  0  0  0
  193.2520  169.7440  142.2930 O   0  0  0  0  0  1  0  0  0  0  0  0
  196.5060  171.6450  142.3120 O   0  0  0  0  0  0  0  0  0  0  0  0
  197.1730  170.5820  141.7010 C   0  0  0  0  0  2  0  0  0  0  0  0
  196.8110  169.2880  142.4010 C   0  0  0  0  0  1  0  0  0  0  0  0
  187.5540  174.9580  142.8150 C   0  0  0  0  0  2  0  0  0  0  0  0
  186.2070  176.8580  141.9180 C   0  0  0  0  0  2  0  0  0  0  0  0
  185.8310  178.3100  142.0600 C   0  0  0  0  0  3  0  0  0  0  0  0
  186.1620  179.0430  143.1350 C   0  0  0  0  0  3  0  0  0  0  0  0
  187.3620  176.4680  142.8410 C   0  0  1  0  0  3  0  0  0  0  0  0
  187.1050  176.9810  144.2640 C   0  0  1  0  0  3  0  0  0  0  0  0
  187.0300  178.5100  144.2490 C   0  0  0  0  0  2  0  0  0  0  0  0
  185.9240  176.4450  144.7910 O   0  0  0  0  0  0  0  0  0  0  0  0
  185.9440  176.7960  146.1420 C   0  0  0  0  0  2  0  0  0  0  0  0
  184.6220  177.4300  146.5190 C   0  0  0  0  0  1  0  0  0  0  0  0
  1 32  1  6  0  0  0
  3 27  1  6  0  0  0
  3 16  1  0  0  0  0
  4 15  1  0  0  0  0
  4  5  1  1  0  0  0
  7 13  2  0  0  0  0
  9 29  1  6  0  0  0
  9  7  1  0  0  0  0
 10 22  1  0  0  0  0
 11 21  1  0  0  0  0
 11 27  1  0  0  0  0
 12  2  1  1  0  0  0
 12 26  1  0  0  0  0
 14  8  1  1  0  0  0
 14  3  1  0  0  0  0
 14 28  1  0  0  0  0
 16 19  1  0  0  0  0
 16 23  1  0  0  0  0
 16  2  1  1  0  0  0
 17  6  1  6  0  0  0
 17 26  1  0  0  0  0
 17  4  1  0  0  0  0
 18 22  1  0  0  0  0
 18 24  1  0  0  0  0
 19 12  1  0  0  0  0
 19  6  1  1  0  0  0
 20 18  2  0  0  0  0
 21  8  2  0  0  0  0
 22 29  2  0  0  0  0
 23 10  1  6  0  0  0
 23  1  1  0  0  0  0
 24  9  1  0  0  0  0
 25  7  1  0  0  0  0
 25 15  1  0  0  0  0
 28 34  1  1  0  0  0
 28  1  1  0  0  0  0
 30 31  3  0  0  0  0
 31 21  1  0  0  0  0
 33 32  1  0  0  0  0
 35 34  1  0  0  0  0
 35 36  1  0  0  0  0
 37 24  1  0  0  0  0
 38 39  1  0  0  0  0
 38 41  1  0  0  0  0
 39 40  2  0  0  0  0
 40 43  1  0  0  0  0
 41 37  1  1  0  0  0
 41 42  1  0  0  0  0
 42 44  1  6  0  0  0
 43 42  1  0  0  0  0
 44 45  1  0  0  0  0
 45 46  1  0  0  0  0
M  END
>  <MODEL>
7

>  <REMARK>
 VINA RESULT:      -6.4      1.540      1.914
  Name = 
  8 active torsions:
  status: ('A' for Active; 'I' for Inactive)
    1  A    between atoms: C_2  and  C_21
    2  A    between atoms: C_6  and  O_15
    3  A    between atoms: O_15  and  C_43
    4  A    between atoms: C_20  and  C_28
    5  A    between atoms: C_28  and  N_36
    6  A    between atoms: C_29  and  O_45
    7  A    between atoms: C_33  and  C_38
    8  A    between atoms: C_40  and  O_45
                            x       y       z     vdW  Elec       q    Type
                         _______ _______ _______ _____ _____    ______ ____

>  <TORSDO>
F 8

$$$$
=
 OpenBabel11062422543D

 46 52  0  0  1  0  0  0  0  0999 V2000
  190.6060  175.4590  146.5500 C   0  0  2  0  0  3  0  0  0  0  0  0
  190.4080  177.8900  144.8150 C   0  0  0  0  0  2  0  0  0  0  0  0
  192.7390  177.0000  145.0090 C   0  0  2  0  0  3  0  0  0  0  0  0
  187.8380  176.0720  141.8490 C   0  0  1  0  0  3  0  0  0  0  0  0
  186.6330  176.9850  141.7070 C   0  0  0  0  0  1  0  0  0  0  0  0
  190.3040  176.0580  142.3200 C   0  0  0  0  0  2  0  0  0  0  0  0
  188.2910  172.9300  141.7100 C   0  0  0  0  0  0  0  0  0  0  0  0
  193.9470  175.3190  146.5390 C   0  0  0  0  0  3  0  0  0  0  0  0
  189.3150  172.1190  142.4350 C   0  0  1  0  0  3  0  0  0  0  0  0
  191.6260  174.1730  144.6110 C   0  0  0  0  0  2  0  0  0  0  0  0
  195.1700  176.3130  144.6690 C   0  0  0  0  0  2  0  0  0  0  0  0
  190.3500  178.1220  143.3200 C   0  0  1  0  0  3  0  0  0  0  0  0
  187.0660  172.6870  141.8840 O   0  0  0  0  0  0  0  0  0  0  0  0
  192.9900  176.4750  146.4650 C   0  0  2  0  0  3  0  0  0  0  0  0
  187.8480  175.1170  140.6590 C   0  0  0  0  0  2  0  0  0  0  0  0
  191.3130  176.7140  144.4770 C   0  0  2  0  0  0  0  0  0  0  0  0
  189.1300  176.8970  141.9070 C   0  0  2  0  0  3  0  0  0  0  0  0
  191.5220  172.8060  142.3880 C   0  0  0  0  0  0  0  0  0  0  0  0
  191.1970  176.9640  143.0200 N   0  0  1  0  0  0  0  0  0  0  0  0
  192.7200  172.9560  142.0290 O   0  0  0  0  0  0  0  0  0  0  0  0
  194.9890  175.2560  145.7130 C   0  0  0  0  0  0  0  0  0  0  0  0
  190.9390  173.3160  143.6020 C   0  0  0  0  0  0  0  0  0  0  0  0
  190.7540  175.3700  145.0180 C   0  0  2  0  0  3  0  0  0  0  0  0
  190.5580  172.0690  141.6600 N   0  0  0  0  0  0  0  0  0  0  0  0
  188.6990  174.0110  140.9240 O   0  0  0  0  0  0  0  0  0  0  0  0
  189.0340  177.9140  142.8600 O   0  0  0  0  0  0  0  0  0  0  0  0
  193.8270  176.5780  143.9960 C   0  0  0  0  0  2  0  0  0  0  0  0
  191.7330  176.1950  147.3030 C   0  0  1  0  0  3  0  0  0  0  0  0
  189.6880  172.8790  143.6840 C   0  0  0  0  0  3  0  0  0  0  0  0
  196.5910  173.2190  145.7960 N   0  0  0  0  0  0  0  0  0  0  0  0
  195.8760  174.1290  145.7580 C   0  0  0  0  0  0  0  0  0  0  0  0
  190.1520  174.1760  147.2410 C   0  0  0  0  0  2  0  0  0  0  0  0
  188.8230  174.2770  147.6550 O   0  0  0  0  0  1  0  0  0  0  0  0
  191.2410  177.3890  147.8310 O   0  0  0  0  0  0  0  0  0  0  0  0
  191.7200  177.4250  149.1420 C   0  0  0  0  0  2  0  0  0  0  0  0
  191.1910  178.6610  149.8400 C   0  0  0  0  0  1  0  0  0  0  0  0
  190.9070  171.0150  140.7160 C   0  0  0  0  0  2  0  0  0  0  0  0
  192.4450  170.4110  138.8450 C   0  0  0  0  0  2  0  0  0  0  0  0
  193.1180  170.8650  137.5750 C   0  0  0  0  0  3  0  0  0  0  0  0
  192.7920  172.0070  136.9490 C   0  0  0  0  0  3  0  0  0  0  0  0
  191.7440  171.5620  139.5690 C   0  0  1  0  0  3  0  0  0  0  0  0
  190.8920  172.3740  138.5830 C   0  0  1  0  0  3  0  0  0  0  0  0
  191.7980  172.9910  137.5150 C   0  0  0  0  0  2  0  0  0  0  0  0
  189.9120  171.5750  137.9820 O   0  0  0  0  0  0  0  0  0  0  0  0
  189.3930  172.3600  136.9530 C   0  0  0  0  0  2  0  0  0  0  0  0
  189.3170  171.5410  135.6810 C   0  0  0  0  0  1  0  0  0  0  0  0
  1 32  1  1  0  0  0
  1 28  1  0  0  0  0
  3 27  1  6  0  0  0
  3 14  1  0  0  0  0
  4  5  1  6  0  0  0
  4 17  1  0  0  0  0
  7 13  2  0  0  0  0
  7  9  1  0  0  0  0
  9 29  1  1  0  0  0
 11 21  1  0  0  0  0
 12  2  1  1  0  0  0
 14  8  1  6  0  0  0
 14 28  1  0  0  0  0
 15 25  1  0  0  0  0
 15  4  1  0  0  0  0
 16  2  1  1  0  0  0
 16  3  1  0  0  0  0
 16 23  1  0  0  0  0
 17  6  1  1  0  0  0
 17 26  1  0  0  0  0
 18 22  1  0  0  0  0
 19  6  1  6  0  0  0
 19 12  1  0  0  0  0
 19 16  1  0  0  0  0
 20 18  2  0  0  0  0
 21 31  1  0  0  0  0
 21  8  2  0  0  0  0
 22 29  2  0  0  0  0
 22 10  1  0  0  0  0
 23 10  1  1  0  0  0
 23  1  1  0  0  0  0
 24 18  1  0  0  0  0
 24  9  1  0  0  0  0
 25  7  1  0  0  0  0
 26 12  1  0  0  0  0
 27 11  1  0  0  0  0
 28 34  1  6  0  0  0
 31 30  3  0  0  0  0
 32 33  1  0  0  0  0
 34 35  1  0  0  0  0
 35 36  1  0  0  0  0
 37 24  1  0  0  0  0
 38 41  1  0  0  0  0
 39 38  1  0  0  0  0
 40 43  1  0  0  0  0
 40 39  2  0  0  0  0
 41 37  1  1  0  0  0
 42 44  1  6  0  0  0
 42 41  1  0  0  0  0
 43 42  1  0  0  0  0
 45 44  1  0  0  0  0
 46 45  1  0  0  0  0
M  END
>  <MODEL>
8

>  <REMARK>
 VINA RESULT:      -6.2      2.817      6.747
  Name = 
  8 active torsions:
  status: ('A' for Active; 'I' for Inactive)
    1  A    between atoms: C_2  and  C_21
    2  A    between atoms: C_6  and  O_15
    3  A    between atoms: O_15  and  C_43
    4  A    between atoms: C_20  and  C_28
    5  A    between atoms: C_28  and  N_36
    6  A    between atoms: C_29  and  O_45
    7  A    between atoms: C_33  and  C_38
    8  A    between atoms: C_40  and  O_45
                            x       y       z     vdW  Elec       q    Type
                         _______ _______ _______ _____ _____    ______ ____

>  <TORSDO>
F 8

$$$$
=
 OpenBabel11062422543D

 46 52  0  0  1  0  0  0  0  0999 V2000
  194.8480  174.8840  140.4520 C   0  0  2  0  0  3  0  0  0  0  0  0
  193.9610  172.4080  139.0240 C   0  0  0  0  0  2  0  0  0  0  0  0
  195.2060  171.9370  141.1430 C   0  0  2  0  0  3  0  0  0  0  0  0
  189.7280  173.2300  139.3590 C   0  0  1  0  0  3  0  0  0  0  0  0
  189.1630  173.1520  137.9520 C   0  0  0  0  0  1  0  0  0  0  0  0
  191.4830  172.2690  140.8760 C   0  0  0  0  0  2  0  0  0  0  0  0
  189.1030  174.9980  141.9250 C   0  0  0  0  0  0  0  0  0  0  0  0
  196.6820  173.2970  142.7530 C   0  0  0  0  0  3  0  0  0  0  0  0
  190.0530  175.4260  142.9960 C   0  0  1  0  0  3  0  0  0  0  0  0
  193.5740  174.1340  142.5180 C   0  0  0  0  0  2  0  0  0  0  0  0
  196.1360  170.9810  143.3160 C   0  0  0  0  0  2  0  0  0  0  0  0
  192.8040  171.4450  139.1910 C   0  0  1  0  0  3  0  0  0  0  0  0
  188.4930  175.8690  141.2490 O   0  0  0  0  0  0  0  0  0  0  0  0
  196.3680  172.9730  141.3200 C   0  0  2  0  0  3  0  0  0  0  0  0
  188.5590  173.1880  140.3390 C   0  0  0  0  0  2  0  0  0  0  0  0
  193.9140  172.5400  140.5390 C   0  0  2  0  0  0  0  0  0  0  0  0
  190.7020  172.0720  139.6090 C   0  0  2  0  0  3  0  0  0  0  0  0
  191.4240  173.8420  143.9720 C   0  0  0  0  0  0  0  0  0  0  0  0
  192.7600  171.6160  140.6460 N   0  0  1  0  0  0  0  0  0  0  0  0
  191.8500  172.9410  144.7430 O   0  0  0  0  0  0  0  0  0  0  0  0
  196.5990  172.3530  143.6890 C   0  0  0  0  0  0  0  0  0  0  0  0
  192.1810  174.4780  142.9260 C   0  0  0  0  0  0  0  0  0  0  0  0
  193.6980  174.0100  140.9930 C   0  0  2  0  0  3  0  0  0  0  0  0
  190.1270  174.4020  144.0420 N   0  0  0  0  0  0  0  0  0  0  0  0
  188.9760  173.6400  141.6200 O   0  0  0  0  0  0  0  0  0  0  0  0
  191.6510  171.9840  138.5870 O   0  0  0  0  0  0  0  0  0  0  0  0
  194.9140  171.1010  142.4100 C   0  0  0  0  0  2  0  0  0  0  0  0
  196.2550  174.2570  140.4840 C   0  0  1  0  0  3  0  0  0  0  0  0
  191.4350  175.4380  142.3920 C   0  0  0  0  0  3  0  0  0  0  0  0
  197.0640  172.9400  146.1710 N   0  0  0  0  0  0  0  0  0  0  0  0
  196.8580  172.6780  145.0630 C   0  0  0  0  0  0  0  0  0  0  0  0
  194.8240  176.3450  140.8940 C   0  0  0  0  0  2  0  0  0  0  0  0
  196.0980  176.7690  141.2790 O   0  0  0  0  0  1  0  0  0  0  0  0
  196.6890  174.0120  139.1810 O   0  0  0  0  0  0  0  0  0  0  0  0
  197.8950  174.7060  139.0680 C   0  0  0  0  0  2  0  0  0  0  0  0
  197.9410  175.4260  137.7360 C   0  0  0  0  0  1  0  0  0  0  0  0
  189.3190  174.3920  145.2550 C   0  0  0  0  0  2  0  0  0  0  0  0
  187.6370  175.7860  146.4630 C   0  0  0  0  0  2  0  0  0  0  0  0
  187.3280  177.1220  147.0890 C   0  0  0  0  0  3  0  0  0  0  0  0
  188.2650  178.0620  147.2920 C   0  0  0  0  0  3  0  0  0  0  0  0
  188.9490  175.8070  145.6780 C   0  0  1  0  0  3  0  0  0  0  0  0
  190.0620  176.4560  146.5130 C   0  0  1  0  0  3  0  0  0  0  0  0
  189.6890  177.9090  146.8180 C   0  0  0  0  0  2  0  0  0  0  0  0
  190.2760  175.7530  147.7050 O   0  0  0  0  0  0  0  0  0  0  0  0
  191.6050  176.0180  148.0420 C   0  0  0  0  0  2  0  0  0  0  0  0
  192.5040  175.6420  146.8830 C   0  0  0  0  0  1  0  0  0  0  0  0
  1 28  1  0  0  0  0
  1 32  1  1  0  0  0
  1 23  1  0  0  0  0
  3 14  1  0  0  0  0
  3 27  1  1  0  0  0
  4  5  1  6  0  0  0
  4 17  1  0  0  0  0
  4 15  1  0  0  0  0
  7  9  1  0  0  0  0
  8 21  2  0  0  0  0
  9 29  1  6  0  0  0
  9 24  1  0  0  0  0
 10 22  1  0  0  0  0
 11 21  1  0  0  0  0
 12  2  1  6  0  0  0
 12 19  1  0  0  0  0
 13  7  2  0  0  0  0
 14  8  1  1  0  0  0
 15 25  1  0  0  0  0
 16  2  1  6  0  0  0
 16 19  1  0  0  0  0
 16 23  1  0  0  0  0
 16  3  1  0  0  0  0
 17  6  1  1  0  0  0
 18 24  1  0  0  0  0
 18 20  2  0  0  0  0
 19  6  1  6  0  0  0
 21 31  1  0  0  0  0
 22 18  1  0  0  0  0
 23 10  1  1  0  0  0
 24 37  1  0  0  0  0
 25  7  1  0  0  0  0
 26 12  1  0  0  0  0
 26 17  1  0  0  0  0
 27 11  1  0  0  0  0
 28 34  1  6  0  0  0
 28 14  1  0  0  0  0
 29 22  2  0  0  0  0
 31 30  3  0  0  0  0
 32 33  1  0  0  0  0
 35 34  1  0  0  0  0
 36 35  1  0  0  0  0
 38 39  1  0  0  0  0
 39 40  2  0  0  0  0
 41 37  1  1  0  0  0
 41 38  1  0  0  0  0
 41 42  1  0  0  0  0
 42 43  1  0  0  0  0
 42 44  1  1  0  0  0
 43 40  1  0  0  0  0
 44 45  1  0  0  0  0
 46 45  1  0  0  0  0
M  END
>  <MODEL>
9

>  <REMARK>
 VINA RESULT:      -6.0      2.588      5.808
  Name = 
  8 active torsions:
  status: ('A' for Active; 'I' for Inactive)
    1  A    between atoms: C_2  and  C_21
    2  A    between atoms: C_6  and  O_15
    3  A    between atoms: O_15  and  C_43
    4  A    between atoms: C_20  and  C_28
    5  A    between atoms: C_28  and  N_36
    6  A    between atoms: C_29  and  O_45
    7  A    between atoms: C_33  and  C_38
    8  A    between atoms: C_40  and  O_45
                            x       y       z     vdW  Elec       q    Type
                         _______ _______ _______ _____ _____    ______ ____

>  <TORSDO>
F 8

$$$$
