=
 OpenBabel11062418203D

 49 55  0  0  1  0  0  0  0  0999 V2000
  190.3580  173.8010  137.1100 N   0  0  0  0  0  2  0  0  0  0  0  0
  191.7560  172.1120  137.4450 C   0  0  0  0  0  3  0  0  0  0  0  0
  191.3590  173.1970  136.6080 N   0  0  0  0  0  0  0  0  0  0  0  0
  188.6560  174.3980  140.1790 C   0  0  0  0  0  3  0  0  0  0  0  0
  190.9550  172.0650  138.5020 C   0  0  1  0  0  3  0  0  0  0  0  0
  189.9930  173.1470  138.3150 C   0  0  0  0  0  0  0  0  0  0  0  0
  189.3190  173.7510  139.2570 C   0  0  0  0  0  0  0  0  0  0  0  0
  189.3700  174.5750  143.5920 C   0  0  2  0  0  3  0  0  0  0  0  0
  190.3290  173.5940  142.9510 C   0  0  0  0  0  2  0  0  0  0  0  0
  188.3720  173.7950  141.5150 C   0  0  1  0  0  3  0  0  0  0  0  0
  189.4950  172.8490  141.9370 C   0  0  0  0  0  2  0  0  0  0  0  0
  188.3120  174.9030  142.5540 C   0  0  0  0  0  2  0  0  0  0  0  0
  190.0290  175.8280  144.2370 C   0  0  2  0  0  3  0  0  0  0  0  0
  188.4510  177.5190  144.9360 C   0  0  1  0  0  3  0  0  0  0  0  0
  189.9230  174.6000  146.4050 C   0  0  0  0  0  2  0  0  0  0  0  0
  188.7220  177.0080  142.5580 O   0  0  0  0  0  1  0  0  0  0  0  0
  189.0120  176.7680  146.1590 C   0  0  1  0  0  3  0  0  0  0  0  0
  188.0170  175.9380  146.9510 C   0  0  0  0  0  2  0  0  0  0  0  0
  190.0900  175.8840  145.7160 N   0  0  2  0  0  0  0  0  0  0  0  0
  188.8200  174.7590  147.4340 C   0  0  0  0  0  2  0  0  0  0  0  0
  189.3890  177.1420  143.7850 C   0  0  2  0  0  0  0  0  0  0  0  0
  186.9710  177.2440  144.6360 C   0  0  1  0  0  3  0  0  0  0  0  0
  186.1680  178.0070  145.5030 O   0  0  0  0  0  0  0  0  0  0  0  0
  185.0710  178.1500  143.3950 C   0  0  0  0  0  1  0  0  0  0  0  0
  186.3130  178.4890  144.1900 C   0  0  2  0  0  3  0  0  0  0  0  0
  191.7770  177.6020  143.0830 C   0  0  0  0  0  1  0  0  0  0  0  0
  190.4930  178.1920  143.6460 C   0  0  0  0  0  2  0  0  0  0  0  0
  190.2190  170.0770  139.5510 O   0  0  0  0  0  0  0  0  0  0  0  0
  191.0210  171.0470  139.5660 C   0  0  0  0  0  0  0  0  0  0  0  0
  191.9700  171.1740  140.7120 C   0  0  0  0  0  2  0  0  0  0  0  0
  192.9790  172.2830  140.4570 C   0  0  1  0  0  3  0  0  0  0  0  0
  194.1040  172.1790  141.4760 C   0  0  1  0  0  3  0  0  0  0  0  0
  194.3060  171.6830  140.0580 C   0  0  0  0  0  2  0  0  0  0  0  0
  194.8210  173.5190  141.6610 C   0  0  1  0  0  3  0  0  0  0  0  0
  195.0160  176.1760  142.7350 O   0  0  0  0  0  0  0  0  0  0  0  0
  195.5810  172.8790  143.8940 N   0  0  0  0  0  0  0  0  0  0  0  0
  195.6470  175.5590  144.9640 C   0  0  2  0  0  3  0  0  0  0  0  0
  195.2750  175.2360  143.5370 C   0  0  0  0  0  0  0  0  0  0  0  0
  195.9830  173.1120  145.2510 C   0  0  0  0  0  3  0  0  0  0  0  0
  195.2330  173.8320  143.0790 C   0  0  0  0  0  0  0  0  0  0  0  0
  196.0170  174.3410  145.7670 C   0  0  0  0  0  3  0  0  0  0  0  0
  193.4780  175.6740  146.2900 N   0  0  0  0  0  1  0  0  0  0  0  0
  194.6850  177.5900  145.7620 O   0  0  0  0  0  0  0  0  0  0  0  0
  194.5790  176.3380  145.6660 C   0  0  0  0  0  0  0  0  0  0  0  0
  195.9640  173.6210  140.7560 N   0  0  0  0  0  2  0  0  0  0  0  0
  195.1840  175.4540  139.5320 O   0  0  0  0  0  0  0  0  0  0  0  0
  196.0610  174.5590  139.6800 C   0  0  0  0  0  0  0  0  0  0  0  0
  197.3110  175.3770  137.6490 C   0  0  0  0  0  1  0  0  0  0  0  0
  197.1720  174.4830  138.7870 N   0  0  0  0  0  2  0  0  0  0  0  0
  1  6  1  0  0  0  0
  2  5  1  0  0  0  0
  3  1  1  0  0  0  0
  3  2  2  0  0  0  0
  5 29  1  6  0  0  0
  6  5  1  0  0  0  0
  6  7  2  0  0  0  0
  7  4  2  0  0  0  0
  8 12  1  6  0  0  0
  9  8  1  0  0  0  0
 10  4  1  6  0  0  0
 10 11  1  0  0  0  0
 10 12  1  0  0  0  0
 11  9  1  0  0  0  0
 13  8  1  1  0  0  0
 13 19  1  0  0  0  0
 14 22  1  6  0  0  0
 14 17  1  0  0  0  0
 15 20  1  0  0  0  0
 17 18  1  6  0  0  0
 18 20  1  0  0  0  0
 19 17  1  0  0  0  0
 19 15  1  1  0  0  0
 21 16  1  6  0  0  0
 21 13  1  0  0  0  0
 21 14  1  0  0  0  0
 22 23  1  1  0  0  0
 25 24  1  6  0  0  0
 25 22  1  0  0  0  0
 25 23  1  0  0  0  0
 26 27  1  0  0  0  0
 27 21  1  0  0  0  0
 28 29  2  0  0  0  0
 29 30  1  0  0  0  0
 31 30  1  1  0  0  0
 31 32  1  0  0  0  0
 32 34  1  6  0  0  0
 33 31  1  0  0  0  0
 33 32  1  0  0  0  0
 34 45  1  6  0  0  0
 34 40  1  0  0  0  0
 35 38  2  0  0  0  0
 36 39  1  0  0  0  0
 37 44  1  1  0  0  0
 37 41  1  0  0  0  0
 38 37  1  0  0  0  0
 39 41  2  0  0  0  0
 40 38  1  0  0  0  0
 40 36  2  0  0  0  0
 44 43  2  0  0  0  0
 44 42  1  0  0  0  0
 46 47  2  0  0  0  0
 47 45  1  0  0  0  0
 48 49  1  0  0  0  0
 49 47  1  0  0  0  0
M  END
>  <MODEL>
1

>  <REMARK>
 VINA RESULT:      -7.6      0.000      0.000
  Name = 
  11 active torsions:
  status: ('A' for Active; 'I' for Inactive)
    1  A    between atoms: C_1  and  C_5
    2  A    between atoms: C_2  and  C_10
    3  A    between atoms: C_7  and  C_19
    4  A    between atoms: N_12  and  C_31
    5  A    between atoms: C_17  and  C_28
    6  A    between atoms: C_19  and  C_30
    7  A    between atoms: C_29  and  C_31
    8  A    between atoms: C_30  and  C_37
    9  A    between atoms: C_31  and  C_46
   10  A    between atoms: C_33  and  C_38
   11  A    between atoms: C_34  and  C_49
                            x       y       z     vdW  Elec       q    Type
                         _______ _______ _______ _____ _____    ______ ____

>  <TORSDO>
F 11

$$$$
=
 OpenBabel11062418203D

 49 55  0  0  1  0  0  0  0  0999 V2000
  190.8630  169.3810  139.0140 N   0  0  0  0  0  2  0  0  0  0  0  0
  189.6170  171.2130  138.9250 C   0  0  0  0  0  3  0  0  0  0  0  0
  189.9570  169.9600  138.3350 N   0  0  0  0  0  0  0  0  0  0  0  0
  192.3130  169.2360  142.2610 C   0  0  0  0  0  3  0  0  0  0  0  0
  190.3550  171.3920  140.0140 C   0  0  1  0  0  3  0  0  0  0  0  0
  191.2170  170.2180  140.1020 C   0  0  0  0  0  0  0  0  0  0  0  0
  191.7720  169.7490  141.1880 C   0  0  0  0  0  0  0  0  0  0  0  0
  194.7170  171.0900  143.9850 C   0  0  2  0  0  3  0  0  0  0  0  0
  194.7520  169.6650  144.4970 C   0  0  0  0  0  2  0  0  0  0  0  0
  192.5740  170.0560  143.4820 C   0  0  1  0  0  3  0  0  0  0  0  0
  193.3050  169.2380  144.5440 C   0  0  0  0  0  2  0  0  0  0  0  0
  193.4830  171.2170  143.1110 C   0  0  0  0  0  2  0  0  0  0  0  0
  196.0250  171.5880  143.3060 C   0  0  2  0  0  3  0  0  0  0  0  0
  196.0290  173.9490  142.7950 C   0  0  1  0  0  3  0  0  0  0  0  0
  196.9350  171.9160  145.6040 C   0  0  0  0  0  2  0  0  0  0  0  0
  194.4730  172.4530  141.6420 O   0  0  0  0  0  1  0  0  0  0  0  0
  196.9370  173.6600  144.0070 C   0  0  1  0  0  3  0  0  0  0  0  0
  196.4950  174.2520  145.3330 C   0  0  0  0  0  2  0  0  0  0  0  0
  197.0520  172.2100  144.1720 N   0  0  2  0  0  0  0  0  0  0  0  0
  196.9280  173.2340  146.3560 C   0  0  0  0  0  2  0  0  0  0  0  0
  195.7690  172.5770  142.1670 C   0  0  2  0  0  0  0  0  0  0  0  0
  194.7470  174.7270  143.1250 C   0  0  1  0  0  3  0  0  0  0  0  0
  195.0460  176.0960  143.2400 O   0  0  0  0  0  0  0  0  0  0  0  0
  192.9780  176.0360  142.0620 C   0  0  0  0  0  1  0  0  0  0  0  0
  194.4490  175.6810  142.0370 C   0  0  2  0  0  3  0  0  0  0  0  0
  197.0940  173.5590  140.2480 C   0  0  0  0  0  1  0  0  0  0  0  0
  196.7890  172.3090  141.0580 C   0  0  0  0  0  2  0  0  0  0  0  0
  190.7870  173.6810  140.4260 O   0  0  0  0  0  0  0  0  0  0  0  0
  190.3240  172.5950  140.8650 C   0  0  0  0  0  0  0  0  0  0  0  0
  189.8240  172.5460  142.2710 C   0  0  0  0  0  2  0  0  0  0  0  0
  190.4830  173.6260  143.1160 C   0  0  1  0  0  3  0  0  0  0  0  0
  189.5010  174.0990  144.1770 C   0  0  1  0  0  3  0  0  0  0  0  0
  190.6230  173.1460  144.5400 C   0  0  0  0  0  2  0  0  0  0  0  0
  189.8410  175.5070  144.6710 C   0  0  1  0  0  3  0  0  0  0  0  0
  188.8440  177.8800  143.3970 O   0  0  0  0  0  0  0  0  0  0  0  0
  188.0590  175.9770  146.2770 N   0  0  0  0  0  0  0  0  0  0  0  0
  187.0170  178.2880  144.8950 C   0  0  2  0  0  3  0  0  0  0  0  0
  188.2180  177.5020  144.4250 C   0  0  0  0  0  0  0  0  0  0  0  0
  186.9370  176.6970  146.8060 C   0  0  0  0  0  3  0  0  0  0  0  0
  188.6640  176.3090  145.1740 C   0  0  0  0  0  0  0  0  0  0  0  0
  186.4370  177.7650  146.1820 C   0  0  0  0  0  3  0  0  0  0  0  0
  185.3050  177.2040  143.3560 N   0  0  0  0  0  1  0  0  0  0  0  0
  185.5810  179.5110  143.4370 O   0  0  0  0  0  0  0  0  0  0  0  0
  185.9530  178.3790  143.8470 C   0  0  0  0  0  0  0  0  0  0  0  0
  190.9010  175.4590  145.6770 N   0  0  0  0  0  2  0  0  0  0  0  0
  192.1140  177.2960  144.8880 O   0  0  0  0  0  0  0  0  0  0  0  0
  192.0350  176.3320  145.6970 C   0  0  0  0  0  0  0  0  0  0  0  0
  194.2660  176.9310  146.7070 C   0  0  0  0  0  1  0  0  0  0  0  0
  193.0680  176.1090  146.6580 N   0  0  0  0  0  2  0  0  0  0  0  0
  1  6  1  0  0  0  0
  2  5  1  0  0  0  0
  3  2  2  0  0  0  0
  3  1  1  0  0  0  0
  5  6  1  0  0  0  0
  5 29  1  6  0  0  0
  6  7  2  0  0  0  0
  7  4  2  0  0  0  0
  8 12  1  6  0  0  0
  8  9  1  0  0  0  0
  9 11  1  0  0  0  0
 10  4  1  6  0  0  0
 10 11  1  0  0  0  0
 12 10  1  0  0  0  0
 13  8  1  1  0  0  0
 13 19  1  0  0  0  0
 14 22  1  1  0  0  0
 14 17  1  0  0  0  0
 15 20  1  0  0  0  0
 17 19  1  0  0  0  0
 17 18  1  1  0  0  0
 18 20  1  0  0  0  0
 19 15  1  1  0  0  0
 21 16  1  6  0  0  0
 21 14  1  0  0  0  0
 21 13  1  0  0  0  0
 22 23  1  1  0  0  0
 25 24  1  1  0  0  0
 25 22  1  0  0  0  0
 25 23  1  0  0  0  0
 26 27  1  0  0  0  0
 27 21  1  0  0  0  0
 28 29  2  0  0  0  0
 29 30  1  0  0  0  0
 31 30  1  6  0  0  0
 31 32  1  0  0  0  0
 31 33  1  0  0  0  0
 32 33  1  0  0  0  0
 32 34  1  1  0  0  0
 34 40  1  0  0  0  0
 34 45  1  1  0  0  0
 35 38  2  0  0  0  0
 36 39  1  0  0  0  0
 37 44  1  6  0  0  0
 37 41  1  0  0  0  0
 38 37  1  0  0  0  0
 38 40  1  0  0  0  0
 40 36  2  0  0  0  0
 41 39  2  0  0  0  0
 42 44  1  0  0  0  0
 43 44  2  0  0  0  0
 45 47  1  0  0  0  0
 46 47  2  0  0  0  0
 47 49  1  0  0  0  0
 49 48  1  0  0  0  0
M  END
>  <MODEL>
2

>  <REMARK>
 VINA RESULT:      -7.6      2.211      7.262
  Name = 
  11 active torsions:
  status: ('A' for Active; 'I' for Inactive)
    1  A    between atoms: C_1  and  C_5
    2  A    between atoms: C_2  and  C_10
    3  A    between atoms: C_7  and  C_19
    4  A    between atoms: N_12  and  C_31
    5  A    between atoms: C_17  and  C_28
    6  A    between atoms: C_19  and  C_30
    7  A    between atoms: C_29  and  C_31
    8  A    between atoms: C_30  and  C_37
    9  A    between atoms: C_31  and  C_46
   10  A    between atoms: C_33  and  C_38
   11  A    between atoms: C_34  and  C_49
                            x       y       z     vdW  Elec       q    Type
                         _______ _______ _______ _____ _____    ______ ____

>  <TORSDO>
F 11

$$$$
=
 OpenBabel11062418203D

 49 55  0  0  1  0  0  0  0  0999 V2000
  191.7890  174.9180  147.8070 N   0  0  0  0  0  0  0  0  0  0  0  0
  190.6430  176.6870  147.1190 C   0  0  0  0  0  3  0  0  0  0  0  0
  190.8460  175.7070  148.1350 N   0  0  0  0  0  0  0  0  0  0  0  0
  194.6890  174.6630  145.7590 C   0  0  0  0  0  3  0  0  0  0  0  0
  191.5090  176.4770  146.1350 C   0  0  0  0  0  0  0  0  0  0  0  0
  192.2740  175.2980  146.5310 C   0  0  0  0  0  0  0  0  0  0  0  0
  193.4750  174.9860  146.1220 C   0  0  0  0  0  0  0  0  0  0  0  0
  195.8210  173.7280  142.5920 C   0  0  2  0  0  3  0  0  0  0  0  0
  196.9920  173.6940  143.5500 C   0  0  0  0  0  2  0  0  0  0  0  0
  195.2880  175.1600  144.4850 C   0  0  1  0  0  3  0  0  0  0  0  0
  196.7900  174.8910  144.4470 C   0  0  0  0  0  2  0  0  0  0  0  0
  194.6710  174.4000  143.3210 C   0  0  0  0  0  2  0  0  0  0  0  0
  195.4450  172.3630  141.9460 C   0  0  2  0  0  3  0  0  0  0  0  0
  193.0990  171.8110  142.1090 C   0  0  1  0  0  3  0  0  0  0  0  0
  195.1730  173.6050  139.8020 C   0  0  0  0  0  2  0  0  0  0  0  0
  194.4660  171.9400  144.1340 O   0  0  0  0  0  1  0  0  0  0  0  0
  193.4540  172.2340  140.6700 C   0  0  1  0  0  3  0  0  0  0  0  0
  192.8110  173.5150  140.1680 C   0  0  0  0  0  2  0  0  0  0  0  0
  194.9060  172.3830  140.5670 N   0  0  2  0  0  0  0  0  0  0  0  0
  193.8520  174.1220  139.2640 C   0  0  0  0  0  2  0  0  0  0  0  0
  194.4500  171.5580  142.7840 C   0  0  2  0  0  0  0  0  0  0  0  0
  192.2090  172.8050  142.8690 C   0  0  1  0  0  3  0  0  0  0  0  0
  190.9170  172.7950  142.3150 O   0  0  0  0  0  0  0  0  0  0  0  0
  190.5570  172.9040  144.6660 C   0  0  0  0  0  1  0  0  0  0  0  0
  191.0940  172.0830  143.5150 C   0  0  2  0  0  3  0  0  0  0  0  0
  196.2800  169.8240  143.0120 C   0  0  0  0  0  1  0  0  0  0  0  0
  194.8180  170.0760  142.6760 C   0  0  0  0  0  2  0  0  0  0  0  0
  192.6920  177.5450  144.3880 O   0  0  0  0  0  0  0  0  0  0  0  0
  191.5730  177.2560  144.8860 C   0  0  0  0  0  0  0  0  0  0  0  0
  190.3390  177.7800  144.2270 C   0  0  0  0  0  2  0  0  0  0  0  0
  189.5090  176.6420  143.6520 C   0  0  1  0  0  3  0  0  0  0  0  0
  188.9650  177.0560  142.2940 C   0  0  1  0  0  3  0  0  0  0  0  0
  190.1570  176.1240  142.3900 C   0  0  0  0  0  2  0  0  0  0  0  0
  187.7140  176.2570  141.9210 C   0  0  1  0  0  3  0  0  0  0  0  0
  186.1900  176.5290  144.3400 O   0  0  0  0  0  0  0  0  0  0  0  0
  185.8820  177.5670  140.9700 N   0  0  0  0  0  0  0  0  0  0  0  0
  184.4470  177.9130  143.4510 C   0  0  2  0  0  3  0  0  0  0  0  0
  185.7250  177.1190  143.3270 C   0  0  0  0  0  0  0  0  0  0  0  0
  184.6510  178.3030  141.0030 C   0  0  0  0  0  3  0  0  0  0  0  0
  186.4150  177.0210  142.0240 C   0  0  0  0  0  0  0  0  0  0  0  0
  183.9750  178.4790  142.1390 C   0  0  0  0  0  3  0  0  0  0  0  0
  183.9730  178.8410  145.7730 N   0  0  0  0  0  1  0  0  0  0  0  0
  185.2100  180.0400  144.2120 O   0  0  0  0  0  0  0  0  0  0  0  0
  184.5510  178.9990  144.4760 C   0  0  0  0  0  0  0  0  0  0  0  0
  187.8590  175.6620  140.5940 N   0  0  0  0  0  2  0  0  0  0  0  0
  188.0030  173.4380  141.3040 O   0  0  0  0  0  0  0  0  0  0  0  0
  188.0620  174.2650  140.3540 C   0  0  0  0  0  0  0  0  0  0  0  0
  188.5690  172.4200  138.7140 C   0  0  0  0  0  1  0  0  0  0  0  0
  188.3130  173.8170  139.0220 N   0  0  0  0  0  2  0  0  0  0  0  0
  1  3  2  0  0  0  0
  2  3  1  0  0  0  0
  4  7  2  0  0  0  0
  5  6  1  0  0  0  0
  5  2  2  0  0  0  0
  6  1  1  0  0  0  0
  7  6  2  0  0  0  0
  8 12  1  1  0  0  0
  8  9  1  0  0  0  0
  9 11  1  0  0  0  0
 10  4  1  1  0  0  0
 11 10  1  0  0  0  0
 12 10  1  0  0  0  0
 13  8  1  1  0  0  0
 13 21  1  0  0  0  0
 14 21  1  0  0  0  0
 14 22  1  1  0  0  0
 17 18  1  1  0  0  0
 17 14  1  0  0  0  0
 19 15  1  1  0  0  0
 19 17  1  0  0  0  0
 19 13  1  0  0  0  0
 20 15  1  0  0  0  0
 20 18  1  0  0  0  0
 21 16  1  1  0  0  0
 22 23  1  6  0  0  0
 22 25  1  0  0  0  0
 23 25  1  0  0  0  0
 25 24  1  1  0  0  0
 27 21  1  0  0  0  0
 27 26  1  0  0  0  0
 28 29  2  0  0  0  0
 29  5  1  0  0  0  0
 30 29  1  0  0  0  0
 31 30  1  6  0  0  0
 32 34  1  1  0  0  0
 32 33  1  0  0  0  0
 32 31  1  0  0  0  0
 33 31  1  0  0  0  0
 34 45  1  6  0  0  0
 34 40  1  0  0  0  0
 36 39  1  0  0  0  0
 36 40  2  0  0  0  0
 37 44  1  1  0  0  0
 38 37  1  0  0  0  0
 38 35  2  0  0  0  0
 39 41  2  0  0  0  0
 40 38  1  0  0  0  0
 41 37  1  0  0  0  0
 43 44  2  0  0  0  0
 44 42  1  0  0  0  0
 47 45  1  0  0  0  0
 47 46  2  0  0  0  0
 48 49  1  0  0  0  0
 49 47  1  0  0  0  0
M  END
>  <MODEL>
3

>  <REMARK>
 VINA RESULT:      -7.5      2.500      8.869
  Name = 
  11 active torsions:
  status: ('A' for Active; 'I' for Inactive)
    1  A    between atoms: C_1  and  C_5
    2  A    between atoms: C_2  and  C_10
    3  A    between atoms: C_7  and  C_19
    4  A    between atoms: N_12  and  C_31
    5  A    between atoms: C_17  and  C_28
    6  A    between atoms: C_19  and  C_30
    7  A    between atoms: C_29  and  C_31
    8  A    between atoms: C_30  and  C_37
    9  A    between atoms: C_31  and  C_46
   10  A    between atoms: C_33  and  C_38
   11  A    between atoms: C_34  and  C_49
                            x       y       z     vdW  Elec       q    Type
                         _______ _______ _______ _____ _____    ______ ____

>  <TORSDO>
F 11

$$$$
=
 OpenBabel11062418203D

 49 55  0  0  1  0  0  0  0  0999 V2000
  190.4130  171.6360  137.3700 N   0  0  0  0  0  2  0  0  0  0  0  0
  192.5210  171.7520  138.0480 C   0  0  0  0  0  3  0  0  0  0  0  0
  191.6140  171.6380  136.9520 N   0  0  0  0  0  0  0  0  0  0  0  0
  188.3590  172.6330  140.1010 C   0  0  0  0  0  3  0  0  0  0  0  0
  191.8280  171.8230  139.1770 C   0  0  1  0  0  3  0  0  0  0  0  0
  190.4260  171.7240  138.7850 C   0  0  0  0  0  0  0  0  0  0  0  0
  189.4020  172.1690  139.4630 C   0  0  0  0  0  0  0  0  0  0  0  0
  188.7570  175.0520  142.5870 C   0  0  2  0  0  3  0  0  0  0  0  0
  190.1070  174.4260  142.3060 C   0  0  0  0  0  2  0  0  0  0  0  0
  188.3800  172.8730  141.5750 C   0  0  1  0  0  3  0  0  0  0  0  0
  189.8130  172.9600  142.0940 C   0  0  0  0  0  2  0  0  0  0  0  0
  187.7190  174.2110  141.8660 C   0  0  0  0  0  2  0  0  0  0  0  0
  188.6520  176.5750  142.2870 C   0  0  2  0  0  3  0  0  0  0  0  0
  187.6220  177.8570  144.0560 C   0  0  1  0  0  3  0  0  0  0  0  0
  190.9440  176.7850  143.2460 C   0  0  0  0  0  2  0  0  0  0  0  0
  186.3050  176.2100  142.8140 O   0  0  0  0  0  1  0  0  0  0  0  0
  189.1440  178.1010  144.0310 C   0  0  1  0  0  3  0  0  0  0  0  0
  189.9210  177.6150  145.2420 C   0  0  0  0  0  2  0  0  0  0  0  0
  189.7040  177.4560  142.8430 N   0  0  2  0  0  0  0  0  0  0  0  0
  191.2480  177.1780  144.6790 C   0  0  0  0  0  2  0  0  0  0  0  0
  187.3150  177.1800  142.7170 C   0  0  2  0  0  0  0  0  0  0  0  0
  187.1180  177.0690  145.2730 C   0  0  1  0  0  3  0  0  0  0  0  0
  187.1100  177.9050  146.4030 O   0  0  0  0  0  0  0  0  0  0  0  0
  185.0930  176.6530  146.5760 C   0  0  0  0  0  1  0  0  0  0  0  0
  185.8710  177.6780  145.7800 C   0  0  2  0  0  3  0  0  0  0  0  0
  186.7330  177.6300  140.2960 C   0  0  0  0  0  1  0  0  0  0  0  0
  186.9060  178.2300  141.6820 C   0  0  0  0  0  2  0  0  0  0  0  0
  193.0880  172.9100  140.8590 O   0  0  0  0  0  0  0  0  0  0  0  0
  192.4180  171.8970  140.5260 C   0  0  0  0  0  0  0  0  0  0  0  0
  192.3050  170.7640  141.4920 C   0  0  0  0  0  2  0  0  0  0  0  0
  193.5670  170.6450  142.3330 C   0  0  1  0  0  3  0  0  0  0  0  0
  193.2200  170.8980  143.7930 C   0  0  1  0  0  3  0  0  0  0  0  0
  193.4350  169.4840  143.2900 C   0  0  0  0  0  2  0  0  0  0  0  0
  194.4440  171.3530  144.5910 C   0  0  1  0  0  3  0  0  0  0  0  0
  196.5220  173.2140  143.9070 O   0  0  0  0  0  0  0  0  0  0  0  0
  193.4880  173.2940  145.7290 N   0  0  0  0  0  0  0  0  0  0  0  0
  195.5400  175.1540  144.9150 C   0  0  2  0  0  3  0  0  0  0  0  0
  195.5510  173.6870  144.5590 C   0  0  0  0  0  0  0  0  0  0  0  0
  193.4300  174.6670  146.1390 C   0  0  0  0  0  3  0  0  0  0  0  0
  194.4420  172.8100  144.9880 C   0  0  0  0  0  0  0  0  0  0  0  0
  194.3650  175.5440  145.7710 C   0  0  0  0  0  3  0  0  0  0  0  0
  194.5250  176.0990  142.7810 N   0  0  0  0  0  1  0  0  0  0  0  0
  196.6220  176.7680  143.5330 O   0  0  0  0  0  0  0  0  0  0  0  0
  195.6140  176.0320  143.7060 C   0  0  0  0  0  0  0  0  0  0  0  0
  194.6430  170.4990  145.7610 N   0  0  0  0  0  2  0  0  0  0  0  0
  196.9760  170.3980  145.6360 O   0  0  0  0  0  0  0  0  0  0  0  0
  195.9150  170.0070  146.1940 C   0  0  0  0  0  0  0  0  0  0  0  0
  197.2240  168.5090  147.7430 C   0  0  0  0  0  1  0  0  0  0  0  0
  195.9700  169.0800  147.2800 N   0  0  0  0  0  2  0  0  0  0  0  0
  1  6  1  0  0  0  0
  2  5  1  0  0  0  0
  3  1  1  0  0  0  0
  3  2  2  0  0  0  0
  5 29  1  1  0  0  0
  6  5  1  0  0  0  0
  6  7  2  0  0  0  0
  7  4  2  0  0  0  0
  8 12  1  6  0  0  0
  9  8  1  0  0  0  0
 10  4  1  6  0  0  0
 10 12  1  0  0  0  0
 10 11  1  0  0  0  0
 11  9  1  0  0  0  0
 13  8  1  1  0  0  0
 13 21  1  0  0  0  0
 13 19  1  0  0  0  0
 14 22  1  1  0  0  0
 15 20  1  0  0  0  0
 17 14  1  0  0  0  0
 17 18  1  1  0  0  0
 19 15  1  1  0  0  0
 19 17  1  0  0  0  0
 20 18  1  0  0  0  0
 21 16  1  1  0  0  0
 21 14  1  0  0  0  0
 22 25  1  0  0  0  0
 22 23  1  1  0  0  0
 25 23  1  0  0  0  0
 25 24  1  1  0  0  0
 26 27  1  0  0  0  0
 27 21  1  0  0  0  0
 29 28  2  0  0  0  0
 29 30  1  0  0  0  0
 31 30  1  6  0  0  0
 31 33  1  0  0  0  0
 31 32  1  0  0  0  0
 32 34  1  1  0  0  0
 33 32  1  0  0  0  0
 34 40  1  0  0  0  0
 34 45  1  1  0  0  0
 35 38  2  0  0  0  0
 36 39  1  0  0  0  0
 37 44  1  6  0  0  0
 37 41  1  0  0  0  0
 38 37  1  0  0  0  0
 38 40  1  0  0  0  0
 40 36  2  0  0  0  0
 41 39  2  0  0  0  0
 42 44  1  0  0  0  0
 43 44  2  0  0  0  0
 45 47  1  0  0  0  0
 46 47  2  0  0  0  0
 47 49  1  0  0  0  0
 49 48  1  0  0  0  0
M  END
>  <MODEL>
4

>  <REMARK>
 VINA RESULT:      -7.5      2.429      3.853
  Name = 
  11 active torsions:
  status: ('A' for Active; 'I' for Inactive)
    1  A    between atoms: C_1  and  C_5
    2  A    between atoms: C_2  and  C_10
    3  A    between atoms: C_7  and  C_19
    4  A    between atoms: N_12  and  C_31
    5  A    between atoms: C_17  and  C_28
    6  A    between atoms: C_19  and  C_30
    7  A    between atoms: C_29  and  C_31
    8  A    between atoms: C_30  and  C_37
    9  A    between atoms: C_31  and  C_46
   10  A    between atoms: C_33  and  C_38
   11  A    between atoms: C_34  and  C_49
                            x       y       z     vdW  Elec       q    Type
                         _______ _______ _______ _____ _____    ______ ____

>  <TORSDO>
F 11

$$$$
=
 OpenBabel11062418203D

 49 55  0  0  1  0  0  0  0  0999 V2000
  190.8240  172.3600  138.3400 N   0  0  0  0  0  2  0  0  0  0  0  0
  188.7910  173.2300  138.5010 C   0  0  0  0  0  3  0  0  0  0  0  0
  189.7350  172.5180  137.7030 N   0  0  0  0  0  0  0  0  0  0  0  0
  192.1970  172.2470  141.6220 C   0  0  0  0  0  3  0  0  0  0  0  0
  189.3420  173.5110  139.6750 C   0  0  1  0  0  3  0  0  0  0  0  0
  190.6990  172.9790  139.6100 C   0  0  0  0  0  0  0  0  0  0  0  0
  191.4420  172.6330  140.6270 C   0  0  0  0  0  0  0  0  0  0  0  0
  193.8240  173.1280  144.5830 C   0  0  2  0  0  3  0  0  0  0  0  0
  193.3910  171.6810  144.6850 C   0  0  0  0  0  2  0  0  0  0  0  0
  192.0060  172.7730  143.0070 C   0  0  1  0  0  3  0  0  0  0  0  0
  192.0320  171.6390  144.0290 C   0  0  0  0  0  2  0  0  0  0  0  0
  193.1590  173.7030  143.3450 C   0  0  0  0  0  2  0  0  0  0  0  0
  195.3590  173.3720  144.6450 C   0  0  2  0  0  3  0  0  0  0  0  0
  196.2060  174.7640  142.8620 C   0  0  1  0  0  3  0  0  0  0  0  0
  194.8560  175.3050  146.1370 C   0  0  0  0  0  2  0  0  0  0  0  0
  195.2770  172.5590  142.3530 O   0  0  0  0  0  1  0  0  0  0  0  0
  196.1700  175.5500  144.1870 C   0  0  1  0  0  3  0  0  0  0  0  0
  195.2100  176.7250  144.2460 C   0  0  0  0  0  2  0  0  0  0  0  0
  195.8270  174.6290  145.2720 N   0  0  2  0  0  0  0  0  0  0  0  0
  194.7350  176.7440  145.6750 C   0  0  0  0  0  2  0  0  0  0  0  0
  196.0330  173.2990  143.2740 C   0  0  2  0  0  0  0  0  0  0  0  0
  195.1890  175.2310  141.8110 C   0  0  1  0  0  3  0  0  0  0  0  0
  195.6720  176.3870  141.1730 O   0  0  0  0  0  0  0  0  0  0  0  0
  194.7130  175.0950  139.4180 C   0  0  0  0  0  1  0  0  0  0  0  0
  195.8000  175.1780  140.4670 C   0  0  2  0  0  3  0  0  0  0  0  0
  197.4050  171.6050  144.5590 C   0  0  0  0  0  1  0  0  0  0  0  0
  197.4030  172.6400  143.4450 C   0  0  0  0  0  2  0  0  0  0  0  0
  188.1120  175.3660  140.4750 O   0  0  0  0  0  0  0  0  0  0  0  0
  188.6920  174.2830  140.7490 C   0  0  0  0  0  0  0  0  0  0  0  0
  188.7660  173.8530  142.1770 C   0  0  0  0  0  2  0  0  0  0  0  0
  189.3260  174.9670  143.0480 C   0  0  1  0  0  3  0  0  0  0  0  0
  188.2740  175.3830  144.0660 C   0  0  1  0  0  3  0  0  0  0  0  0
  189.4310  174.4930  144.4780 C   0  0  0  0  0  2  0  0  0  0  0  0
  188.5140  176.8080  144.5720 C   0  0  1  0  0  3  0  0  0  0  0  0
  187.6170  177.8220  142.0400 O   0  0  0  0  0  0  0  0  0  0  0  0
  186.7020  178.2010  145.4390 N   0  0  0  0  0  0  0  0  0  0  0  0
  185.7620  179.1000  142.8610 C   0  0  2  0  0  3  0  0  0  0  0  0
  186.9520  178.1900  143.0480 C   0  0  0  0  0  0  0  0  0  0  0  0
  185.5860  179.0980  145.3420 C   0  0  0  0  0  3  0  0  0  0  0  0
  187.3460  177.7500  144.4020 C   0  0  0  0  0  0  0  0  0  0  0  0
  185.1330  179.5220  144.1620 C   0  0  0  0  0  3  0  0  0  0  0  0
  184.9060  178.5110  140.5370 N   0  0  0  0  0  1  0  0  0  0  0  0
  183.7210  177.9360  142.4540 O   0  0  0  0  0  0  0  0  0  0  0  0
  184.7300  178.5050  141.9560 C   0  0  0  0  0  0  0  0  0  0  0  0
  188.9660  176.7910  145.9620 N   0  0  0  0  0  2  0  0  0  0  0  0
  191.2130  177.2720  145.5260 O   0  0  0  0  0  0  0  0  0  0  0  0
  190.3270  176.9660  146.3700 C   0  0  0  0  0  0  0  0  0  0  0  0
  192.0340  176.9290  148.2240 C   0  0  0  0  0  1  0  0  0  0  0  0
  190.6660  176.8080  147.7480 N   0  0  0  0  0  2  0  0  0  0  0  0
  1  6  1  0  0  0  0
  2  5  1  0  0  0  0
  3  1  1  0  0  0  0
  3  2  2  0  0  0  0
  5 29  1  6  0  0  0
  6  5  1  0  0  0  0
  6  7  2  0  0  0  0
  7  4  2  0  0  0  0
  8 12  1  6  0  0  0
  8  9  1  0  0  0  0
 10  4  1  6  0  0  0
 10 12  1  0  0  0  0
 10 11  1  0  0  0  0
 11  9  1  0  0  0  0
 13  8  1  6  0  0  0
 13 19  1  0  0  0  0
 14 22  1  6  0  0  0
 14 21  1  0  0  0  0
 14 17  1  0  0  0  0
 17 18  1  6  0  0  0
 17 19  1  0  0  0  0
 18 20  1  0  0  0  0
 19 15  1  6  0  0  0
 20 15  1  0  0  0  0
 21 16  1  6  0  0  0
 21 27  1  0  0  0  0
 21 13  1  0  0  0  0
 22 23  1  1  0  0  0
 25 24  1  6  0  0  0
 25 23  1  0  0  0  0
 25 22  1  0  0  0  0
 27 26  1  0  0  0  0
 28 29  2  0  0  0  0
 29 30  1  0  0  0  0
 31 30  1  6  0  0  0
 31 32  1  0  0  0  0
 31 33  1  0  0  0  0
 32 33  1  0  0  0  0
 32 34  1  1  0  0  0
 34 45  1  1  0  0  0
 35 38  2  0  0  0  0
 37 44  1  6  0  0  0
 37 38  1  0  0  0  0
 37 41  1  0  0  0  0
 38 40  1  0  0  0  0
 39 36  1  0  0  0  0
 40 34  1  0  0  0  0
 40 36  2  0  0  0  0
 41 39  2  0  0  0  0
 42 44  1  0  0  0  0
 44 43  2  0  0  0  0
 45 47  1  0  0  0  0
 46 47  2  0  0  0  0
 47 49  1  0  0  0  0
 49 48  1  0  0  0  0
M  END
>  <MODEL>
5

>  <REMARK>
 VINA RESULT:      -7.4      2.305      7.842
  Name = 
  11 active torsions:
  status: ('A' for Active; 'I' for Inactive)
    1  A    between atoms: C_1  and  C_5
    2  A    between atoms: C_2  and  C_10
    3  A    between atoms: C_7  and  C_19
    4  A    between atoms: N_12  and  C_31
    5  A    between atoms: C_17  and  C_28
    6  A    between atoms: C_19  and  C_30
    7  A    between atoms: C_29  and  C_31
    8  A    between atoms: C_30  and  C_37
    9  A    between atoms: C_31  and  C_46
   10  A    between atoms: C_33  and  C_38
   11  A    between atoms: C_34  and  C_49
                            x       y       z     vdW  Elec       q    Type
                         _______ _______ _______ _____ _____    ______ ____

>  <TORSDO>
F 11

$$$$
=
 OpenBabel11062418203D

 49 55  0  0  1  0  0  0  0  0999 V2000
  191.9230  177.5260  149.2210 N   0  0  0  0  0  0  0  0  0  0  0  0
  190.0100  178.3740  148.4860 C   0  0  0  0  0  3  0  0  0  0  0  0
  191.0200  178.3800  149.4940 N   0  0  0  0  0  0  0  0  0  0  0  0
  193.3840  175.7070  146.5330 C   0  0  0  0  0  3  0  0  0  0  0  0
  190.3250  177.4740  147.5630 C   0  0  0  0  0  0  0  0  0  0  0  0
  191.5720  176.8650  148.0170 C   0  0  0  0  0  0  0  0  0  0  0  0
  192.4600  176.2740  147.2640 C   0  0  0  0  0  0  0  0  0  0  0  0
  194.7010  173.9060  143.8480 C   0  0  2  0  0  3  0  0  0  0  0  0
  194.8690  175.3840  143.5640 C   0  0  0  0  0  2  0  0  0  0  0  0
  193.0800  175.1210  145.1940 C   0  0  1  0  0  3  0  0  0  0  0  0
  193.5990  176.0200  144.0740 C   0  0  0  0  0  2  0  0  0  0  0  0
  193.7990  173.7880  145.0640 C   0  0  0  0  0  2  0  0  0  0  0  0
  196.0230  173.0940  143.9630 C   0  0  2  0  0  3  0  0  0  0  0  0
  195.8240  170.7890  143.2660 C   0  0  1  0  0  3  0  0  0  0  0  0
  196.5670  173.9110  141.6710 C   0  0  0  0  0  2  0  0  0  0  0  0
  194.6230  171.5740  145.2490 O   0  0  0  0  0  1  0  0  0  0  0  0
  196.5850  171.6080  142.2050 C   0  0  1  0  0  3  0  0  0  0  0  0
  195.9010  171.7620  140.8580 C   0  0  0  0  0  2  0  0  0  0  0  0
  196.8440  172.9450  142.7390 N   0  0  2  0  0  0  0  0  0  0  0  0
  196.3060  173.1360  140.3930 C   0  0  0  0  0  2  0  0  0  0  0  0
  195.8120  171.6810  144.5120 C   0  0  2  0  0  0  0  0  0  0  0  0
  194.4280  170.3190  142.8350 C   0  0  1  0  0  3  0  0  0  0  0  0
  194.5490  169.1880  142.0080 O   0  0  0  0  0  0  0  0  0  0  0  0
  192.6910  168.7000  143.4150 C   0  0  0  0  0  1  0  0  0  0  0  0
  194.1810  168.9540  143.3450 C   0  0  2  0  0  3  0  0  0  0  0  0
  196.6220  170.3220  146.4870 C   0  0  0  0  0  1  0  0  0  0  0  0
  196.9980  171.3330  145.4140 C   0  0  0  0  0  2  0  0  0  0  0  0
  188.2790  176.8610  146.5460 O   0  0  0  0  0  0  0  0  0  0  0  0
  189.4960  177.1430  146.3900 C   0  0  0  0  0  0  0  0  0  0  0  0
  190.0810  177.0580  145.0190 C   0  0  0  0  0  2  0  0  0  0  0  0
  189.3200  176.0520  144.1690 C   0  0  1  0  0  3  0  0  0  0  0  0
  189.0140  176.6720  142.8140 C   0  0  1  0  0  3  0  0  0  0  0  0
  190.1460  175.6740  142.9630 C   0  0  0  0  0  2  0  0  0  0  0  0
  187.8150  175.9960  142.1430 C   0  0  1  0  0  3  0  0  0  0  0  0
  185.9470  176.4220  144.2820 O   0  0  0  0  0  0  0  0  0  0  0  0
  186.2660  177.4210  140.9010 N   0  0  0  0  0  0  0  0  0  0  0  0
  184.4800  177.9160  143.1150 C   0  0  2  0  0  3  0  0  0  0  0  0
  185.6970  177.0270  143.2040 C   0  0  0  0  0  0  0  0  0  0  0  0
  185.1050  178.2480  140.7310 C   0  0  0  0  0  3  0  0  0  0  0  0
  186.5790  176.8550  142.0300 C   0  0  0  0  0  0  0  0  0  0  0  0
  184.2700  178.4930  141.7400 C   0  0  0  0  0  3  0  0  0  0  0  0
  183.7230  178.9100  145.3320 N   0  0  0  0  0  1  0  0  0  0  0  0
  185.2600  180.0010  143.9710 O   0  0  0  0  0  0  0  0  0  0  0  0
  184.5000  179.0090  144.1370 C   0  0  0  0  0  0  0  0  0  0  0  0
  188.1910  175.4580  140.8370 N   0  0  0  0  0  2  0  0  0  0  0  0
  188.0150  173.1970  141.4090 O   0  0  0  0  0  0  0  0  0  0  0  0
  188.3350  174.0630  140.5500 C   0  0  0  0  0  0  0  0  0  0  0  0
  189.0350  172.2650  138.9270 C   0  0  0  0  0  1  0  0  0  0  0  0
  188.8260  173.6620  139.2700 N   0  0  0  0  0  2  0  0  0  0  0  0
  1  3  2  0  0  0  0
  2  3  1  0  0  0  0
  4  7  2  0  0  0  0
  5  6  1  0  0  0  0
  5  2  2  0  0  0  0
  6  1  1  0  0  0  0
  7  6  2  0  0  0  0
  8  9  1  1  0  0  0
  8 12  1  0  0  0  0
  9 11  1  0  0  0  0
 10  4  1  1  0  0  0
 11 10  1  0  0  0  0
 12 10  1  0  0  0  0
 13  8  1  6  0  0  0
 13 21  1  0  0  0  0
 14 22  1  6  0  0  0
 14 21  1  0  0  0  0
 17 18  1  6  0  0  0
 17 19  1  0  0  0  0
 17 14  1  0  0  0  0
 19 15  1  6  0  0  0
 19 13  1  0  0  0  0
 20 18  1  0  0  0  0
 20 15  1  0  0  0  0
 21 16  1  1  0  0  0
 21 27  1  0  0  0  0
 22 23  1  6  0  0  0
 22 25  1  0  0  0  0
 23 25  1  0  0  0  0
 25 24  1  6  0  0  0
 27 26  1  0  0  0  0
 29 28  2  0  0  0  0
 29  5  1  0  0  0  0
 30 29  1  0  0  0  0
 31 30  1  1  0  0  0
 32 34  1  6  0  0  0
 32 33  1  0  0  0  0
 32 31  1  0  0  0  0
 33 31  1  0  0  0  0
 34 45  1  6  0  0  0
 36 40  2  0  0  0  0
 37 38  1  0  0  0  0
 37 44  1  1  0  0  0
 38 35  2  0  0  0  0
 39 36  1  0  0  0  0
 39 41  2  0  0  0  0
 40 34  1  0  0  0  0
 40 38  1  0  0  0  0
 41 37  1  0  0  0  0
 43 44  2  0  0  0  0
 44 42  1  0  0  0  0
 47 45  1  0  0  0  0
 47 46  2  0  0  0  0
 48 49  1  0  0  0  0
 49 47  1  0  0  0  0
M  END
>  <MODEL>
6

>  <REMARK>
 VINA RESULT:      -7.2      2.847      9.550
  Name = 
  11 active torsions:
  status: ('A' for Active; 'I' for Inactive)
    1  A    between atoms: C_1  and  C_5
    2  A    between atoms: C_2  and  C_10
    3  A    between atoms: C_7  and  C_19
    4  A    between atoms: N_12  and  C_31
    5  A    between atoms: C_17  and  C_28
    6  A    between atoms: C_19  and  C_30
    7  A    between atoms: C_29  and  C_31
    8  A    between atoms: C_30  and  C_37
    9  A    between atoms: C_31  and  C_46
   10  A    between atoms: C_33  and  C_38
   11  A    between atoms: C_34  and  C_49
                            x       y       z     vdW  Elec       q    Type
                         _______ _______ _______ _____ _____    ______ ____

>  <TORSDO>
F 11

$$$$
=
 OpenBabel11062418203D

 49 55  0  0  1  0  0  0  0  0999 V2000
  195.6110  171.8230  145.8250 N   0  0  0  0  0  0  0  0  0  0  0  0
  195.4960  169.6660  145.3210 C   0  0  0  0  0  3  0  0  0  0  0  0
  196.2000  170.7080  145.9950 N   0  0  0  0  0  0  0  0  0  0  0  0
  192.4560  173.2700  145.0380 C   0  0  0  0  0  3  0  0  0  0  0  0
  194.4320  170.1820  144.7190 C   0  0  0  0  0  0  0  0  0  0  0  0
  194.4770  171.6140  145.0000 C   0  0  0  0  0  0  0  0  0  0  0  0
  193.4590  172.4320  144.9980 C   0  0  0  0  0  0  0  0  0  0  0  0
  189.6710  174.7720  143.5630 C   0  0  2  0  0  3  0  0  0  0  0  0
  189.3240  174.4170  144.9930 C   0  0  0  0  0  2  0  0  0  0  0  0
  191.1870  173.0150  144.2920 C   0  0  1  0  0  3  0  0  0  0  0  0
  189.9820  173.0790  145.2270 C   0  0  0  0  0  2  0  0  0  0  0  0
  191.0000  174.1070  143.2510 C   0  0  0  0  0  2  0  0  0  0  0  0
  189.6300  176.2890  143.2220 C   0  0  2  0  0  3  0  0  0  0  0  0
  188.1570  177.5760  144.6390 C   0  0  1  0  0  3  0  0  0  0  0  0
  191.5880  176.5460  144.7450 C   0  0  0  0  0  2  0  0  0  0  0  0
  187.2310  175.8940  143.1210 O   0  0  0  0  0  1  0  0  0  0  0  0
  189.6290  177.8430  145.0100 C   0  0  1  0  0  3  0  0  0  0  0  0
  190.0670  177.3840  146.3900 C   0  0  0  0  0  2  0  0  0  0  0  0
  190.4890  177.1930  144.0210 N   0  0  2  0  0  0  0  0  0  0  0  0
  191.5010  176.9620  146.2010 C   0  0  0  0  0  2  0  0  0  0  0  0
  188.2190  176.8780  143.2770 C   0  0  2  0  0  0  0  0  0  0  0  0
  187.3600  176.7940  145.6940 C   0  0  1  0  0  3  0  0  0  0  0  0
  187.1470  177.6090  146.8190 O   0  0  0  0  0  0  0  0  0  0  0  0
  185.0820  176.4650  146.5130 C   0  0  0  0  0  1  0  0  0  0  0  0
  186.0640  177.4600  145.9350 C   0  0  2  0  0  3  0  0  0  0  0  0
  187.6390  177.2760  140.8460 C   0  0  0  0  0  1  0  0  0  0  0  0
  188.0840  177.9100  142.1550 C   0  0  0  0  0  2  0  0  0  0  0  0
  192.6370  168.6710  144.4220 O   0  0  0  0  0  0  0  0  0  0  0  0
  193.4870  169.4240  143.8790 C   0  0  0  0  0  0  0  0  0  0  0  0
  193.5580  169.4660  142.3880 C   0  0  0  0  0  2  0  0  0  0  0  0
  193.1970  170.8500  141.8690 C   0  0  1  0  0  3  0  0  0  0  0  0
  194.4260  171.4830  141.2340 C   0  0  1  0  0  3  0  0  0  0  0  0
  193.3360  170.8840  140.3660 C   0  0  0  0  0  2  0  0  0  0  0  0
  194.3240  173.0100  141.2100 C   0  0  1  0  0  3  0  0  0  0  0  0
  193.9370  175.6660  142.2320 O   0  0  0  0  0  0  0  0  0  0  0  0
  196.4490  173.1770  142.4060 N   0  0  0  0  0  0  0  0  0  0  0  0
  195.9620  175.8010  143.5070 C   0  0  2  0  0  3  0  0  0  0  0  0
  195.0010  175.0870  142.5880 C   0  0  0  0  0  0  0  0  0  0  0  0
  197.4290  173.8090  143.2420 C   0  0  0  0  0  3  0  0  0  0  0  0
  195.3120  173.7290  142.0960 C   0  0  0  0  0  0  0  0  0  0  0  0
  197.2230  175.0190  143.7640 C   0  0  0  0  0  3  0  0  0  0  0  0
  195.2550  175.2750  145.8950 N   0  0  0  0  0  1  0  0  0  0  0  0
  194.8980  177.3710  144.9520 O   0  0  0  0  0  0  0  0  0  0  0  0
  195.3240  176.1950  144.8020 C   0  0  0  0  0  0  0  0  0  0  0  0
  194.3990  173.5100  139.8390 N   0  0  0  0  0  2  0  0  0  0  0  0
  192.1610  174.1620  139.6590 O   0  0  0  0  0  0  0  0  0  0  0  0
  193.2810  174.0110  139.1000 C   0  0  0  0  0  0  0  0  0  0  0  0
  192.3520  174.8340  136.9050 C   0  0  0  0  0  1  0  0  0  0  0  0
  193.4540  174.3580  137.7250 N   0  0  0  0  0  2  0  0  0  0  0  0
  1  3  2  0  0  0  0
  2  3  1  0  0  0  0
  5  6  1  0  0  0  0
  5  2  2  0  0  0  0
  6  1  1  0  0  0  0
  7  6  2  0  0  0  0
  7  4  2  0  0  0  0
  8 12  1  1  0  0  0
  8  9  1  0  0  0  0
  9 11  1  0  0  0  0
 10  4  1  1  0  0  0
 10 11  1  0  0  0  0
 12 10  1  0  0  0  0
 13 21  1  0  0  0  0
 13  8  1  1  0  0  0
 13 19  1  0  0  0  0
 14 17  1  0  0  0  0
 14 22  1  1  0  0  0
 15 20  1  0  0  0  0
 17 18  1  1  0  0  0
 19 15  1  1  0  0  0
 19 17  1  0  0  0  0
 20 18  1  0  0  0  0
 21 16  1  6  0  0  0
 21 14  1  0  0  0  0
 22 25  1  0  0  0  0
 22 23  1  1  0  0  0
 25 24  1  1  0  0  0
 25 23  1  0  0  0  0
 26 27  1  0  0  0  0
 27 21  1  0  0  0  0
 29 28  2  0  0  0  0
 29  5  1  0  0  0  0
 30 29  1  0  0  0  0
 31 30  1  1  0  0  0
 32 34  1  6  0  0  0
 32 31  1  0  0  0  0
 33 32  1  0  0  0  0
 33 31  1  0  0  0  0
 34 45  1  6  0  0  0
 34 40  1  0  0  0  0
 35 38  2  0  0  0  0
 36 39  1  0  0  0  0
 37 41  1  0  0  0  0
 37 44  1  1  0  0  0
 38 37  1  0  0  0  0
 39 41  2  0  0  0  0
 40 36  2  0  0  0  0
 40 38  1  0  0  0  0
 44 43  2  0  0  0  0
 44 42  1  0  0  0  0
 47 46  2  0  0  0  0
 47 45  1  0  0  0  0
 48 49  1  0  0  0  0
 49 47  1  0  0  0  0
M  END
>  <MODEL>
7

>  <REMARK>
 VINA RESULT:      -7.1      2.207      4.094
  Name = 
  11 active torsions:
  status: ('A' for Active; 'I' for Inactive)
    1  A    between atoms: C_1  and  C_5
    2  A    between atoms: C_2  and  C_10
    3  A    between atoms: C_7  and  C_19
    4  A    between atoms: N_12  and  C_31
    5  A    between atoms: C_17  and  C_28
    6  A    between atoms: C_19  and  C_30
    7  A    between atoms: C_29  and  C_31
    8  A    between atoms: C_30  and  C_37
    9  A    between atoms: C_31  and  C_46
   10  A    between atoms: C_33  and  C_38
   11  A    between atoms: C_34  and  C_49
                            x       y       z     vdW  Elec       q    Type
                         _______ _______ _______ _____ _____    ______ ____

>  <TORSDO>
F 11

$$$$
=
 OpenBabel11062418203D

 49 55  0  0  1  0  0  0  0  0999 V2000
  191.9400  177.4040  149.2310 N   0  0  0  0  0  0  0  0  0  0  0  0
  190.0890  178.3920  148.5140 C   0  0  0  0  0  3  0  0  0  0  0  0
  191.0950  178.3100  149.5220 N   0  0  0  0  0  0  0  0  0  0  0  0
  193.2800  175.5480  146.5060 C   0  0  0  0  0  3  0  0  0  0  0  0
  190.3440  177.4930  147.5730 C   0  0  0  0  0  0  0  0  0  0  0  0
  191.5470  176.7930  148.0140 C   0  0  0  0  0  0  0  0  0  0  0  0
  192.3950  176.1600  147.2480 C   0  0  0  0  0  0  0  0  0  0  0  0
  194.5360  173.8900  143.7010 C   0  0  2  0  0  3  0  0  0  0  0  0
  194.6630  175.3820  143.4740 C   0  0  0  0  0  2  0  0  0  0  0  0
  192.9390  175.0120  145.1540 C   0  0  1  0  0  3  0  0  0  0  0  0
  193.4000  175.9680  144.0560 C   0  0  0  0  0  2  0  0  0  0  0  0
  193.6810  173.7020  144.9420 C   0  0  0  0  0  2  0  0  0  0  0  0
  195.8770  173.1030  143.7350 C   0  0  2  0  0  3  0  0  0  0  0  0
  196.9080  172.8250  141.5680 C   0  0  1  0  0  3  0  0  0  0  0  0
  196.9950  175.2890  144.1690 C   0  0  0  0  0  2  0  0  0  0  0  0
  194.7690  171.7380  142.0510 O   0  0  0  0  0  1  0  0  0  0  0  0
  197.6700  173.8790  142.3950 C   0  0  1  0  0  3  0  0  0  0  0  0
  197.6360  175.3010  141.8650 C   0  0  0  0  0  2  0  0  0  0  0  0
  197.1320  173.8880  143.7560 N   0  0  2  0  0  0  0  0  0  0  0  0
  197.6340  176.1580  143.1030 C   0  0  0  0  0  2  0  0  0  0  0  0
  196.0150  172.1050  142.5830 C   0  0  2  0  0  0  0  0  0  0  0  0
  196.1400  173.3860  140.3630 C   0  0  1  0  0  3  0  0  0  0  0  0
  197.0380  173.6370  139.3100 O   0  0  0  0  0  0  0  0  0  0  0  0
  195.1260  172.6930  138.2510 C   0  0  0  0  0  1  0  0  0  0  0  0
  196.2680  172.4640  139.2160 C   0  0  2  0  0  3  0  0  0  0  0  0
  196.1500  170.3900  144.4390 C   0  0  0  0  0  1  0  0  0  0  0  0
  196.7240  170.8560  143.1100 C   0  0  0  0  0  2  0  0  0  0  0  0
  188.2640  177.0380  146.5430 O   0  0  0  0  0  0  0  0  0  0  0  0
  189.4970  177.2430  146.3930 C   0  0  0  0  0  0  0  0  0  0  0  0
  190.0760  177.1510  145.0190 C   0  0  0  0  0  2  0  0  0  0  0  0
  189.3220  176.1280  144.1830 C   0  0  1  0  0  3  0  0  0  0  0  0
  189.0080  176.7290  142.8220 C   0  0  1  0  0  3  0  0  0  0  0  0
  190.1490  175.7430  142.9800 C   0  0  0  0  0  2  0  0  0  0  0  0
  187.8140  176.0350  142.1620 C   0  0  1  0  0  3  0  0  0  0  0  0
  185.9380  176.4380  144.2990 O   0  0  0  0  0  0  0  0  0  0  0  0
  186.2490  177.4430  140.9190 N   0  0  0  0  0  0  0  0  0  0  0  0
  184.4560  177.9160  143.1320 C   0  0  2  0  0  3  0  0  0  0  0  0
  185.6830  177.0410  143.2210 C   0  0  0  0  0  0  0  0  0  0  0  0
  185.0790  178.2560  140.7480 C   0  0  0  0  0  3  0  0  0  0  0  0
  186.5670  176.8800  142.0480 C   0  0  0  0  0  0  0  0  0  0  0  0
  184.2400  178.4910  141.7570 C   0  0  0  0  0  3  0  0  0  0  0  0
  185.4360  180.0540  144.1050 N   0  0  0  0  0  1  0  0  0  0  0  0
  183.5600  179.0410  145.0340 O   0  0  0  0  0  0  0  0  0  0  0  0
  184.4620  179.0080  144.1540 C   0  0  0  0  0  0  0  0  0  0  0  0
  188.1900  175.4910  140.8580 N   0  0  0  0  0  2  0  0  0  0  0  0
  187.8820  173.2370  141.4010 O   0  0  0  0  0  0  0  0  0  0  0  0
  188.2650  174.0940  140.5580 C   0  0  0  0  0  0  0  0  0  0  0  0
  188.9060  172.2780  138.9300 C   0  0  0  0  0  1  0  0  0  0  0  0
  188.7630  173.6810  139.2850 N   0  0  0  0  0  2  0  0  0  0  0  0
  1  3  2  0  0  0  0
  2  3  1  0  0  0  0
  4  7  2  0  0  0  0
  5  6  1  0  0  0  0
  5  2  2  0  0  0  0
  6  1  1  0  0  0  0
  7  6  2  0  0  0  0
  8  9  1  1  0  0  0
  8 12  1  0  0  0  0
  9 11  1  0  0  0  0
 10  4  1  1  0  0  0
 11 10  1  0  0  0  0
 12 10  1  0  0  0  0
 13  8  1  6  0  0  0
 13 19  1  0  0  0  0
 14 22  1  6  0  0  0
 14 17  1  0  0  0  0
 14 21  1  0  0  0  0
 17 18  1  6  0  0  0
 17 19  1  0  0  0  0
 18 20  1  0  0  0  0
 19 15  1  6  0  0  0
 20 15  1  0  0  0  0
 21 16  1  6  0  0  0
 21 27  1  0  0  0  0
 21 13  1  0  0  0  0
 22 23  1  6  0  0  0
 25 24  1  6  0  0  0
 25 23  1  0  0  0  0
 25 22  1  0  0  0  0
 27 26  1  0  0  0  0
 29 28  2  0  0  0  0
 29  5  1  0  0  0  0
 30 29  1  0  0  0  0
 31 30  1  1  0  0  0
 32 34  1  6  0  0  0
 32 33  1  0  0  0  0
 32 31  1  0  0  0  0
 33 31  1  0  0  0  0
 34 45  1  6  0  0  0
 36 40  2  0  0  0  0
 37 38  1  0  0  0  0
 37 44  1  1  0  0  0
 38 35  2  0  0  0  0
 39 36  1  0  0  0  0
 39 41  2  0  0  0  0
 40 34  1  0  0  0  0
 40 38  1  0  0  0  0
 41 37  1  0  0  0  0
 42 44  1  0  0  0  0
 44 43  2  0  0  0  0
 47 45  1  0  0  0  0
 47 46  2  0  0  0  0
 48 49  1  0  0  0  0
 49 47  1  0  0  0  0
M  END
>  <MODEL>
8

>  <REMARK>
 VINA RESULT:      -7.0      2.690      9.559
  Name = 
  11 active torsions:
  status: ('A' for Active; 'I' for Inactive)
    1  A    between atoms: C_1  and  C_5
    2  A    between atoms: C_2  and  C_10
    3  A    between atoms: C_7  and  C_19
    4  A    between atoms: N_12  and  C_31
    5  A    between atoms: C_17  and  C_28
    6  A    between atoms: C_19  and  C_30
    7  A    between atoms: C_29  and  C_31
    8  A    between atoms: C_30  and  C_37
    9  A    between atoms: C_31  and  C_46
   10  A    between atoms: C_33  and  C_38
   11  A    between atoms: C_34  and  C_49
                            x       y       z     vdW  Elec       q    Type
                         _______ _______ _______ _____ _____    ______ ____

>  <TORSDO>
F 11

$$$$
=
 OpenBabel11062418203D

 49 55  0  0  1  0  0  0  0  0999 V2000
  194.5780  174.7760  145.8720 N   0  0  0  0  0  0  0  0  0  0  0  0
  193.5470  176.6650  146.4080 C   0  0  0  0  0  3  0  0  0  0  0  0
  194.7470  175.8950  146.4520 N   0  0  0  0  0  0  0  0  0  0  0  0
  192.5670  173.1150  143.4500 C   0  0  0  0  0  3  0  0  0  0  0  0
  192.6130  175.9730  145.7670 C   0  0  0  0  0  0  0  0  0  0  0  0
  193.2380  174.7020  145.4140 C   0  0  0  0  0  0  0  0  0  0  0  0
  192.8790  173.9110  144.4390 C   0  0  0  0  0  0  0  0  0  0  0  0
  190.7070  172.2380  140.6290 C   0  0  2  0  0  3  0  0  0  0  0  0
  191.1560  173.6760  140.4790 C   0  0  0  0  0  2  0  0  0  0  0  0
  191.2010  173.1070  142.8460 C   0  0  1  0  0  3  0  0  0  0  0  0
  191.0310  174.2630  141.8640 C   0  0  0  0  0  2  0  0  0  0  0  0
  191.0200  171.8210  142.0550 C   0  0  0  0  0  2  0  0  0  0  0  0
  191.2470  171.2540  139.5520 C   0  0  2  0  0  3  0  0  0  0  0  0
  191.3640  172.1950  137.3300 C   0  0  1  0  0  3  0  0  0  0  0  0
  193.5310  172.0330  140.1800 C   0  0  0  0  0  2  0  0  0  0  0  0
  189.1890  171.8580  138.4010 O   0  0  0  0  0  1  0  0  0  0  0  0
  192.7740  172.0800  137.9400 C   0  0  1  0  0  3  0  0  0  0  0  0
  193.4990  173.3870  138.2080 C   0  0  0  0  0  2  0  0  0  0  0  0
  192.6830  171.3440  139.2020 N   0  0  2  0  0  0  0  0  0  0  0  0
  194.3050  173.1150  139.4510 C   0  0  0  0  0  2  0  0  0  0  0  0
  190.4780  171.3300  138.2320 C   0  0  2  0  0  0  0  0  0  0  0  0
  190.8520  173.6330  137.1640 C   0  0  1  0  0  3  0  0  0  0  0  0
  191.3100  174.1560  135.9420 O   0  0  0  0  0  0  0  0  0  0  0  0
  189.0600  174.9140  136.1060 C   0  0  0  0  0  1  0  0  0  0  0  0
  189.9750  173.7170  135.9780 C   0  0  2  0  0  3  0  0  0  0  0  0
  190.0690  168.8820  138.7290 C   0  0  0  0  0  1  0  0  0  0  0  0
  190.3700  169.9160  137.6550 C   0  0  0  0  0  2  0  0  0  0  0  0
  190.2920  175.8680  146.2130 O   0  0  0  0  0  0  0  0  0  0  0  0
  191.2220  176.4170  145.5660 C   0  0  0  0  0  0  0  0  0  0  0  0
  190.8730  177.4590  144.5550 C   0  0  0  0  0  2  0  0  0  0  0  0
  189.7350  176.9860  143.6630 C   0  0  1  0  0  3  0  0  0  0  0  0
  188.7060  178.0980  143.5320 C   0  0  1  0  0  3  0  0  0  0  0  0
  189.6860  177.8240  142.4090 C   0  0  0  0  0  2  0  0  0  0  0  0
  187.3270  177.5480  143.1590 C   0  0  1  0  0  3  0  0  0  0  0  0
  187.0240  176.4370  145.7900 O   0  0  0  0  0  0  0  0  0  0  0  0
  185.2790  178.7440  143.7490 N   0  0  0  0  0  0  0  0  0  0  0  0
  185.0830  177.6910  146.4300 C   0  0  2  0  0  3  0  0  0  0  0  0
  186.1680  177.3010  145.4540 C   0  0  0  0  0  0  0  0  0  0  0  0
  184.1960  179.1320  144.6070 C   0  0  0  0  0  3  0  0  0  0  0  0
  186.2140  177.9150  144.1110 C   0  0  0  0  0  0  0  0  0  0  0  0
  184.0890  178.6610  145.8500 C   0  0  0  0  0  3  0  0  0  0  0  0
  186.0200  179.5970  147.8320 N   0  0  0  0  0  1  0  0  0  0  0  0
  185.7140  177.4690  148.7180 O   0  0  0  0  0  0  0  0  0  0  0  0
  185.6390  178.2240  147.7120 C   0  0  0  0  0  0  0  0  0  0  0  0
  186.9780  177.9190  141.7890 N   0  0  0  0  0  2  0  0  0  0  0  0
  187.0850  175.7650  140.8840 O   0  0  0  0  0  0  0  0  0  0  0  0
  186.9350  177.0020  140.6900 C   0  0  0  0  0  0  0  0  0  0  0  0
  186.6860  176.6340  138.2090 C   0  0  0  0  0  1  0  0  0  0  0  0
  186.7010  177.5040  139.3740 N   0  0  0  0  0  2  0  0  0  0  0  0
  1  3  2  0  0  0  0
  2  3  1  0  0  0  0
  4  7  2  0  0  0  0
  5  2  2  0  0  0  0
  6  5  1  0  0  0  0
  6  1  1  0  0  0  0
  7  6  2  0  0  0  0
  8  9  1  6  0  0  0
  8 12  1  0  0  0  0
  9 11  1  0  0  0  0
 10  4  1  6  0  0  0
 11 10  1  0  0  0  0
 12 10  1  0  0  0  0
 13  8  1  1  0  0  0
 14 22  1  1  0  0  0
 14 17  1  0  0  0  0
 14 21  1  0  0  0  0
 17 18  1  1  0  0  0
 17 19  1  0  0  0  0
 18 20  1  0  0  0  0
 19 13  1  0  0  0  0
 19 15  1  1  0  0  0
 20 15  1  0  0  0  0
 21 16  1  1  0  0  0
 21 13  1  0  0  0  0
 22 23  1  6  0  0  0
 23 25  1  0  0  0  0
 25 24  1  1  0  0  0
 25 22  1  0  0  0  0
 27 21  1  0  0  0  0
 27 26  1  0  0  0  0
 29  5  1  0  0  0  0
 29 28  2  0  0  0  0
 30 29  1  0  0  0  0
 31 30  1  1  0  0  0
 32 34  1  6  0  0  0
 32 31  1  0  0  0  0
 33 32  1  0  0  0  0
 33 31  1  0  0  0  0
 34 45  1  6  0  0  0
 34 40  1  0  0  0  0
 36 40  2  0  0  0  0
 36 39  1  0  0  0  0
 37 44  1  1  0  0  0
 38 35  2  0  0  0  0
 38 37  1  0  0  0  0
 39 41  2  0  0  0  0
 40 38  1  0  0  0  0
 41 37  1  0  0  0  0
 44 42  1  0  0  0  0
 44 43  2  0  0  0  0
 47 46  2  0  0  0  0
 47 45  1  0  0  0  0
 48 49  1  0  0  0  0
 49 47  1  0  0  0  0
M  END
>  <MODEL>
9

>  <REMARK>
 VINA RESULT:      -7.0      2.742      8.937
  Name = 
  11 active torsions:
  status: ('A' for Active; 'I' for Inactive)
    1  A    between atoms: C_1  and  C_5
    2  A    between atoms: C_2  and  C_10
    3  A    between atoms: C_7  and  C_19
    4  A    between atoms: N_12  and  C_31
    5  A    between atoms: C_17  and  C_28
    6  A    between atoms: C_19  and  C_30
    7  A    between atoms: C_29  and  C_31
    8  A    between atoms: C_30  and  C_37
    9  A    between atoms: C_31  and  C_46
   10  A    between atoms: C_33  and  C_38
   11  A    between atoms: C_34  and  C_49
                            x       y       z     vdW  Elec       q    Type
                         _______ _______ _______ _____ _____    ______ ____

>  <TORSDO>
F 11

$$$$
