=
 OpenBabel11072409243D

 39 43  0  0  1  0  0  0  0  0999 V2000
  191.2490  176.4790  145.5740 C   0  0  0  0  0  0  0  0  0  0  0  0
  191.1430  176.1600  147.9010 O   0  0  0  0  0  1  0  0  0  0  0  0
  190.1060  177.1800  145.1840 C   0  0  0  0  0  3  0  0  0  0  0  0
  193.1060  175.6230  146.7410 N   0  0  0  0  0  2  0  0  0  0  0  0
  189.5760  176.9460  143.9050 C   0  0  0  0  0  0  0  0  0  0  0  0
  191.8600  175.5950  144.7400 C   0  0  0  0  0  0  0  0  0  0  0  0
  191.3600  175.3300  143.4660 C   0  0  0  0  0  3  0  0  0  0  0  0
  193.0480  175.0150  145.4010 C   0  0  1  0  0  3  0  0  0  0  0  0
  191.9760  176.5620  146.8560 C   0  0  1  0  0  3  0  0  0  0  0  0
  190.2080  176.0140  143.0480 C   0  0  0  0  0  3  0  0  0  0  0  0
  196.0270  175.3080  143.1820 C   0  0  0  0  0  0  0  0  0  0  0  0
  194.9180  176.4640  144.7570 N   0  0  0  0  0  0  0  0  0  0  0  0
  196.8540  175.0560  142.2670 O   0  0  0  0  0  0  0  0  0  0  0  0
  194.3020  175.3270  144.6400 C   0  0  0  0  0  0  0  0  0  0  0  0
  196.0110  176.5300  143.8920 N   0  0  0  0  0  2  0  0  0  0  0  0
  194.9320  174.3990  143.6320 C   0  0  2  0  0  3  0  0  0  0  0  0
  194.5790  171.9120  144.2290 C   0  0  2  0  0  3  0  0  0  0  0  0
  196.8000  172.2560  146.2700 C   0  0  0  0  0  2  0  0  0  0  0  0
  193.2460  172.2790  144.4360 O   0  0  0  0  0  1  0  0  0  0  0  0
  196.4040  170.8680  145.7340 C   0  0  1  0  0  3  0  0  0  0  0  0
  195.9110  173.3950  145.7620 C   0  0  0  0  0  2  0  0  0  0  0  0
  194.9480  170.8110  145.2380 C   0  0  2  0  0  3  0  0  0  0  0  0
  194.6380  169.5510  144.7200 O   0  0  0  0  0  1  0  0  0  0  0  0
  195.5080  173.1440  144.3110 C   0  0  2  0  0  3  0  0  0  0  0  0
  197.7340  169.1670  144.6790 O   0  0  0  0  0  1  0  0  0  0  0  0
  197.9410  171.2740  143.8120 O   0  0  0  0  0  0  0  0  0  0  0  0
  197.3920  170.3780  144.7160 C   0  0  0  0  0  0  0  0  0  0  0  0
  187.5100  178.0830  144.3320 C   0  0  0  0  0  3  0  0  0  0  0  0
  188.4070  177.6670  143.4980 N   0  0  0  0  0  0  0  0  0  0  0  0
  186.3060  178.8200  143.8460 C   0  0  2  0  0  3  0  0  0  0  0  0
  185.0290  177.3900  145.3440 O   0  0  0  0  0  1  0  0  0  0  0  0
  183.8090  178.9780  144.0430 C   0  0  0  0  0  2  0  0  0  0  0  0
  185.1030  178.6760  144.7970 C   0  0  2  0  0  3  0  0  0  0  0  0
  184.9020  177.4720  142.3920 O   0  0  0  0  0  0  0  0  0  0  0  0
  183.6930  178.1110  142.7690 C   0  0  2  0  0  3  0  0  0  0  0  0
  185.9500  178.4140  142.4070 C   0  0  0  0  0  2  0  0  0  0  0  0
  183.0870  178.8830  141.6040 C   0  0  0  0  0  2  0  0  0  0  0  0
  182.0130  178.0610  140.9150 C   0  0  0  0  0  2  0  0  0  0  0  0
  180.6610  178.4190  141.4910 C   0  0  0  0  0  1  0  0  0  0  0  0
  1  9  1  0  0  0  0
  3  1  1  0  0  0  0
  4  9  1  0  0  0  0
  5  3  2  0  0  0  0
  6  8  1  0  0  0  0
  6  1  2  0  0  0  0
  7  6  1  0  0  0  0
  8 14  1  6  0  0  0
  8  4  1  0  0  0  0
  9  2  1  1  0  0  0
 10  7  2  0  0  0  0
 10  5  1  0  0  0  0
 11 15  1  0  0  0  0
 13 11  2  0  0  0  0
 14 12  2  0  0  0  0
 15 12  1  0  0  0  0
 16 11  1  1  0  0  0
 16 24  1  0  0  0  0
 16 14  1  0  0  0  0
 17 24  1  0  0  0  0
 17 19  1  1  0  0  0
 17 22  1  0  0  0  0
 20 27  1  6  0  0  0
 20 18  1  0  0  0  0
 21 18  1  0  0  0  0
 22 23  1  6  0  0  0
 22 20  1  0  0  0  0
 24 21  1  1  0  0  0
 25 27  1  0  0  0  0
 26 27  2  0  0  0  0
 29  5  1  0  0  0  0
 29 28  2  0  0  0  0
 30 28  1  1  0  0  0
 30 33  1  0  0  0  0
 32 33  1  0  0  0  0
 33 31  1  6  0  0  0
 34 36  1  0  0  0  0
 34 35  1  0  0  0  0
 35 37  1  6  0  0  0
 35 32  1  0  0  0  0
 36 30  1  0  0  0  0
 38 39  1  0  0  0  0
 38 37  1  0  0  0  0
M  END
>  <MODEL>
1

>  <REMARK>
 VINA RESULT:      -7.3      0.000      0.000
  Name = 
  7 active torsions:
  status: ('A' for Active; 'I' for Inactive)
    1  A    between atoms: C_3  and  C_8
    2  A    between atoms: C_3  and  C_38
    3  A    between atoms: C_9  and  C_11
    4  A    between atoms: C_14  and  C_37
    5  A    between atoms: N_18  and  C_21
    6  A    between atoms: C_25  and  C_27
    7  A    between atoms: C_29  and  C_36
                            x       y       z     vdW  Elec       q    Type
                         _______ _______ _______ _____ _____    ______ ____

>  <TORSDO>
F 7

$$$$
=
 OpenBabel11072409243D

 39 43  0  0  1  0  0  0  0  0999 V2000
  189.8800  175.8810  145.7120 C   0  0  0  0  0  0  0  0  0  0  0  0
  189.1770  174.8510  147.7050 O   0  0  0  0  0  1  0  0  0  0  0  0
  188.7810  176.5400  145.1590 C   0  0  0  0  0  3  0  0  0  0  0  0
  191.4560  174.9130  147.1690 N   0  0  0  0  0  2  0  0  0  0  0  0
  188.6980  176.6550  143.7610 C   0  0  0  0  0  0  0  0  0  0  0  0
  190.8690  175.3690  144.9320 C   0  0  0  0  0  0  0  0  0  0  0  0
  190.8200  175.4570  143.5410 C   0  0  0  0  0  3  0  0  0  0  0  0
  191.9090  174.7450  145.7770 C   0  0  1  0  0  3  0  0  0  0  0  0
  190.1770  175.6430  147.1390 C   0  0  1  0  0  3  0  0  0  0  0  0
  189.7230  176.1070  142.9550 C   0  0  0  0  0  3  0  0  0  0  0  0
  195.2160  176.1300  144.7640 C   0  0  0  0  0  0  0  0  0  0  0  0
  193.6550  176.3640  146.3620 N   0  0  0  0  0  0  0  0  0  0  0  0
  196.2430  176.3670  144.0750 O   0  0  0  0  0  0  0  0  0  0  0  0
  193.2390  175.4110  145.5850 C   0  0  0  0  0  0  0  0  0  0  0  0
  194.8840  176.8600  145.9290 N   0  0  0  0  0  2  0  0  0  0  0  0
  194.1870  175.0940  144.4560 C   0  0  2  0  0  3  0  0  0  0  0  0
  195.4610  173.1590  143.3160 C   0  0  2  0  0  3  0  0  0  0  0  0
  194.4470  171.3860  145.5620 C   0  0  0  0  0  2  0  0  0  0  0  0
  194.7210  173.5050  142.1820 O   0  0  0  0  0  1  0  0  0  0  0  0
  195.6800  171.0000  144.7230 C   0  0  1  0  0  3  0  0  0  0  0  0
  193.7470  172.6630  145.0880 C   0  0  0  0  0  2  0  0  0  0  0  0
  195.6700  171.6350  143.3200 C   0  0  2  0  0  3  0  0  0  0  0  0
  196.8220  171.2990  142.6050 O   0  0  0  0  0  1  0  0  0  0  0  0
  194.7760  173.6800  144.6000 C   0  0  2  0  0  3  0  0  0  0  0  0
  197.8770  170.4060  145.4910 O   0  0  0  0  0  0  0  0  0  0  0  0
  197.1010  172.4470  146.1760 O   0  0  0  0  0  1  0  0  0  0  0  0
  196.9510  171.2580  145.4770 C   0  0  0  0  0  0  0  0  0  0  0  0
  186.9840  178.3300  143.7690 C   0  0  0  0  0  3  0  0  0  0  0  0
  187.5750  177.3360  143.1890 N   0  0  0  0  0  0  0  0  0  0  0  0
  185.8090  178.9920  143.1270 C   0  0  2  0  0  3  0  0  0  0  0  0
  184.4630  177.8650  144.8110 O   0  0  0  0  0  1  0  0  0  0  0  0
  183.3120  179.2240  143.2210 C   0  0  0  0  0  2  0  0  0  0  0  0
  184.5790  179.0350  144.0530 C   0  0  2  0  0  3  0  0  0  0  0  0
  184.4150  177.4370  141.8870 O   0  0  0  0  0  0  0  0  0  0  0  0
  183.2100  178.1520  142.1120 C   0  0  2  0  0  3  0  0  0  0  0  0
  185.4820  178.3500  141.7710 C   0  0  0  0  0  2  0  0  0  0  0  0
  182.6520  178.7220  140.8140 C   0  0  0  0  0  2  0  0  0  0  0  0
  181.1680  178.4240  140.6910 C   0  0  0  0  0  2  0  0  0  0  0  0
  180.3890  179.7180  140.7750 C   0  0  0  0  0  1  0  0  0  0  0  0
  1  9  1  0  0  0  0
  3  1  1  0  0  0  0
  5  3  2  0  0  0  0
  6  1  2  0  0  0  0
  6  8  1  0  0  0  0
  7  6  1  0  0  0  0
  8 14  1  1  0  0  0
  8  4  1  0  0  0  0
  9  4  1  0  0  0  0
  9  2  1  6  0  0  0
 10  7  2  0  0  0  0
 10  5  1  0  0  0  0
 11 15  1  0  0  0  0
 13 11  2  0  0  0  0
 14 12  2  0  0  0  0
 15 12  1  0  0  0  0
 16 24  1  0  0  0  0
 16 11  1  1  0  0  0
 16 14  1  0  0  0  0
 17 19  1  6  0  0  0
 17 22  1  0  0  0  0
 17 24  1  0  0  0  0
 20 27  1  1  0  0  0
 20 18  1  0  0  0  0
 21 18  1  0  0  0  0
 22 23  1  1  0  0  0
 22 20  1  0  0  0  0
 24 21  1  6  0  0  0
 27 25  2  0  0  0  0
 27 26  1  0  0  0  0
 29  5  1  0  0  0  0
 29 28  2  0  0  0  0
 30 28  1  1  0  0  0
 30 33  1  0  0  0  0
 32 33  1  0  0  0  0
 33 31  1  6  0  0  0
 34 35  1  0  0  0  0
 35 37  1  6  0  0  0
 35 32  1  0  0  0  0
 36 34  1  0  0  0  0
 36 30  1  0  0  0  0
 38 39  1  0  0  0  0
 38 37  1  0  0  0  0
M  END
>  <MODEL>
2

>  <REMARK>
 VINA RESULT:      -7.2      1.429      1.685
  Name = 
  7 active torsions:
  status: ('A' for Active; 'I' for Inactive)
    1  A    between atoms: C_3  and  C_8
    2  A    between atoms: C_3  and  C_38
    3  A    between atoms: C_9  and  C_11
    4  A    between atoms: C_14  and  C_37
    5  A    between atoms: N_18  and  C_21
    6  A    between atoms: C_25  and  C_27
    7  A    between atoms: C_29  and  C_36
                            x       y       z     vdW  Elec       q    Type
                         _______ _______ _______ _____ _____    ______ ____

>  <TORSDO>
F 7

$$$$
=
 OpenBabel11072409243D

 39 43  0  0  1  0  0  0  0  0999 V2000
  186.0750  177.4250  142.5870 C   0  0  0  0  0  0  0  0  0  0  0  0
  187.0450  176.8040  140.5370 O   0  0  0  0  0  1  0  0  0  0  0  0
  184.7210  177.6770  142.3620 C   0  0  0  0  0  3  0  0  0  0  0  0
  188.2780  176.5940  142.5170 N   0  0  0  0  0  2  0  0  0  0  0  0
  184.0760  178.6420  143.1530 C   0  0  0  0  0  0  0  0  0  0  0  0
  186.7700  178.0780  143.5570 C   0  0  0  0  0  0  0  0  0  0  0  0
  186.1660  179.0470  144.3580 C   0  0  0  0  0  3  0  0  0  0  0  0
  188.1690  177.6050  143.5840 C   0  0  1  0  0  3  0  0  0  0  0  0
  186.9520  176.4650  141.8870 C   0  0  1  0  0  3  0  0  0  0  0  0
  184.8060  179.3280  144.1510 C   0  0  0  0  0  3  0  0  0  0  0  0
  189.5510  176.3590  146.8120 C   0  0  0  0  0  0  0  0  0  0  0  0
  187.6140  176.4580  145.6780 N   0  0  0  0  0  0  0  0  0  0  0  0
  190.3520  176.1650  147.7640 O   0  0  0  0  0  0  0  0  0  0  0  0
  188.5130  176.9920  144.9090 C   0  0  0  0  0  0  0  0  0  0  0  0
  188.1780  176.0270  146.8790 N   0  0  0  0  0  2  0  0  0  0  0  0
  189.8990  176.9880  145.5040 C   0  0  2  0  0  3  0  0  0  0  0  0
  191.8850  176.8660  143.8600 C   0  0  2  0  0  3  0  0  0  0  0  0
  191.0570  173.9950  143.3270 C   0  0  0  0  0  2  0  0  0  0  0  0
  191.3000  177.9860  143.2630 O   0  0  0  0  0  1  0  0  0  0  0  0
  192.4820  174.4940  143.0210 C   0  0  1  0  0  3  0  0  0  0  0  0
  190.1040  175.0920  143.8110 C   0  0  0  0  0  2  0  0  0  0  0  0
  192.5410  176.0110  142.7630 C   0  0  2  0  0  3  0  0  0  0  0  0
  193.8520  176.4330  142.5320 O   0  0  0  0  0  1  0  0  0  0  0  0
  190.8500  176.0850  144.7000 C   0  0  2  0  0  3  0  0  0  0  0  0
  193.0990  173.9250  145.2730 O   0  0  0  0  0  1  0  0  0  0  0  0
  194.7590  173.7430  143.7080 O   0  0  0  0  0  0  0  0  0  0  0  0
  193.4530  174.0370  144.0700 C   0  0  0  0  0  0  0  0  0  0  0  0
  182.0200  178.3850  141.9460 C   0  0  0  0  0  3  0  0  0  0  0  0
  182.6840  178.9000  142.9310 N   0  0  0  0  0  0  0  0  0  0  0  0
  180.5730  178.7010  141.7590 C   0  0  2  0  0  3  0  0  0  0  0  0
  180.7940  177.6480  139.5780 O   0  0  0  0  0  1  0  0  0  0  0  0
  178.6540  178.5370  140.1520 C   0  0  0  0  0  2  0  0  0  0  0  0
  179.9220  177.8500  140.6540 C   0  0  2  0  0  3  0  0  0  0  0  0
  180.2000  180.4860  140.1540 O   0  0  0  0  0  0  0  0  0  0  0  0
  178.9440  179.9920  139.7180 C   0  0  2  0  0  3  0  0  0  0  0  0
  180.3590  180.2050  141.5260 C   0  0  0  0  0  2  0  0  0  0  0  0
  177.8130  180.9400  140.0970 C   0  0  0  0  0  2  0  0  0  0  0  0
  177.6940  182.0660  139.0860 C   0  0  0  0  0  2  0  0  0  0  0  0
  178.2010  183.3510  139.7040 C   0  0  0  0  0  1  0  0  0  0  0  0
  1  6  1  0  0  0  0
  3  1  2  0  0  0  0
  3  5  1  0  0  0  0
  4  8  1  0  0  0  0
  5 10  2  0  0  0  0
  6  8  1  0  0  0  0
  6  7  2  0  0  0  0
  8 14  1  1  0  0  0
  9  2  1  6  0  0  0
  9  4  1  0  0  0  0
  9  1  1  0  0  0  0
 10  7  1  0  0  0  0
 11 15  1  0  0  0  0
 11 13  2  0  0  0  0
 12 15  1  0  0  0  0
 14 12  2  0  0  0  0
 16 14  1  6  0  0  0
 16 11  1  0  0  0  0
 17 19  1  6  0  0  0
 17 24  1  0  0  0  0
 18 21  1  0  0  0  0
 20 18  1  0  0  0  0
 20 27  1  1  0  0  0
 22 23  1  1  0  0  0
 22 20  1  0  0  0  0
 22 17  1  0  0  0  0
 24 21  1  6  0  0  0
 24 16  1  0  0  0  0
 26 27  2  0  0  0  0
 27 25  1  0  0  0  0
 28 29  2  0  0  0  0
 29  5  1  0  0  0  0
 30 28  1  6  0  0  0
 32 33  1  0  0  0  0
 33 31  1  6  0  0  0
 33 30  1  0  0  0  0
 34 36  1  0  0  0  0
 35 37  1  1  0  0  0
 35 32  1  0  0  0  0
 35 34  1  0  0  0  0
 36 30  1  0  0  0  0
 38 39  1  0  0  0  0
 38 37  1  0  0  0  0
M  END
>  <MODEL>
3

>  <REMARK>
 VINA RESULT:      -6.7      3.180      6.423
  Name = 
  7 active torsions:
  status: ('A' for Active; 'I' for Inactive)
    1  A    between atoms: C_3  and  C_8
    2  A    between atoms: C_3  and  C_38
    3  A    between atoms: C_9  and  C_11
    4  A    between atoms: C_14  and  C_37
    5  A    between atoms: N_18  and  C_21
    6  A    between atoms: C_25  and  C_27
    7  A    between atoms: C_29  and  C_36
                            x       y       z     vdW  Elec       q    Type
                         _______ _______ _______ _____ _____    ______ ____

>  <TORSDO>
F 7

$$$$
=
 OpenBabel11072409243D

 39 43  0  0  1  0  0  0  0  0999 V2000
  194.6050  175.8110  143.7420 C   0  0  0  0  0  0  0  0  0  0  0  0
  195.8900  176.8070  142.0430 O   0  0  0  0  0  1  0  0  0  0  0  0
  193.3490  176.4210  143.7430 C   0  0  0  0  0  3  0  0  0  0  0  0
  196.6920  174.9000  143.1410 N   0  0  0  0  0  2  0  0  0  0  0  0
  192.6560  176.5320  144.9600 C   0  0  0  0  0  0  0  0  0  0  0  0
  195.1560  175.3150  144.8820 C   0  0  0  0  0  0  0  0  0  0  0  0
  194.5030  175.4120  146.1100 C   0  0  0  0  0  3  0  0  0  0  0  0
  196.4740  174.7140  144.5870 C   0  0  1  0  0  3  0  0  0  0  0  0
  195.5060  175.5840  142.5950 C   0  0  1  0  0  3  0  0  0  0  0  0
  193.2410  176.0270  146.1440 C   0  0  0  0  0  3  0  0  0  0  0  0
  196.5020  170.9970  144.8380 C   0  0  0  0  0  0  0  0  0  0  0  0
  196.8080  172.8230  146.1100 N   0  0  0  0  0  0  0  0  0  0  0  0
  196.4890  169.7840  144.4990 O   0  0  0  0  0  0  0  0  0  0  0  0
  196.4960  173.2540  144.9270 C   0  0  0  0  0  0  0  0  0  0  0  0
  196.8240  171.4280  146.1460 N   0  0  0  0  0  2  0  0  0  0  0  0
  196.2250  172.1510  143.9340 C   0  0  2  0  0  3  0  0  0  0  0  0
  193.7490  172.2830  144.6510 C   0  0  2  0  0  3  0  0  0  0  0  0
  193.0660  171.1620  141.9130 C   0  0  0  0  0  2  0  0  0  0  0  0
  194.1530  171.5150  145.7450 O   0  0  0  0  0  1  0  0  0  0  0  0
  192.0290  171.9320  142.7520 C   0  0  1  0  0  3  0  0  0  0  0  0
  194.4010  170.9370  142.6300 C   0  0  0  0  0  2  0  0  0  0  0  0
  192.3180  171.8720  144.2630 C   0  0  2  0  0  3  0  0  0  0  0  0
  191.3830  172.6150  144.9870 O   0  0  0  0  0  1  0  0  0  0  0  0
  194.7540  172.1520  143.4840 C   0  0  2  0  0  3  0  0  0  0  0  0
  190.8770  174.0360  142.6160 O   0  0  0  0  0  1  0  0  0  0  0  0
  192.7660  173.8500  141.3380 O   0  0  0  0  0  0  0  0  0  0  0  0
  191.8500  173.3320  142.2420 C   0  0  0  0  0  0  0  0  0  0  0  0
  190.4520  176.8700  145.8400 C   0  0  0  0  0  3  0  0  0  0  0  0
  191.3640  177.1510  144.9660 N   0  0  0  0  0  0  0  0  0  0  0  0
  189.1190  177.5400  145.7870 C   0  0  2  0  0  3  0  0  0  0  0  0
  188.3090  175.6660  147.1090 O   0  0  0  0  0  1  0  0  0  0  0  0
  186.7190  177.3360  146.4920 C   0  0  0  0  0  2  0  0  0  0  0  0
  188.1650  177.0390  146.8870 C   0  0  2  0  0  3  0  0  0  0  0  0
  187.5420  176.3830  144.3460 O   0  0  0  0  0  0  0  0  0  0  0  0
  186.3970  176.7660  145.0920 C   0  0  2  0  0  3  0  0  0  0  0  0
  188.4940  177.4220  144.3890 C   0  0  0  0  0  2  0  0  0  0  0  0
  185.4970  177.6960  144.2870 C   0  0  0  0  0  2  0  0  0  0  0  0
  185.1800  178.9530  145.0770 C   0  0  0  0  0  2  0  0  0  0  0  0
  185.5650  180.1680  144.2620 C   0  0  0  0  0  1  0  0  0  0  0  0
  1  3  2  0  0  0  0
  1  6  1  0  0  0  0
  3  5  1  0  0  0  0
  4  8  1  0  0  0  0
  5 29  1  0  0  0  0
  5 10  2  0  0  0  0
  6  7  2  0  0  0  0
  7 10  1  0  0  0  0
  8  6  1  0  0  0  0
  8 14  1  6  0  0  0
  9  2  1  1  0  0  0
  9  4  1  0  0  0  0
  9  1  1  0  0  0  0
 11 15  1  0  0  0  0
 12 15  1  0  0  0  0
 13 11  2  0  0  0  0
 14 12  2  0  0  0  0
 16 11  1  1  0  0  0
 16 14  1  0  0  0  0
 17 19  1  1  0  0  0
 18 21  1  0  0  0  0
 18 20  1  0  0  0  0
 20 27  1  6  0  0  0
 20 22  1  0  0  0  0
 22 17  1  0  0  0  0
 22 23  1  1  0  0  0
 24 21  1  1  0  0  0
 24 16  1  0  0  0  0
 24 17  1  0  0  0  0
 26 27  2  0  0  0  0
 27 25  1  0  0  0  0
 29 28  2  0  0  0  0
 30 28  1  6  0  0  0
 30 33  1  0  0  0  0
 32 33  1  0  0  0  0
 33 31  1  6  0  0  0
 34 36  1  0  0  0  0
 34 35  1  0  0  0  0
 35 37  1  6  0  0  0
 35 32  1  0  0  0  0
 36 30  1  0  0  0  0
 37 38  1  0  0  0  0
 39 38  1  0  0  0  0
M  END
>  <MODEL>
4

>  <REMARK>
 VINA RESULT:      -6.7      2.262      4.568
  Name = 
  7 active torsions:
  status: ('A' for Active; 'I' for Inactive)
    1  A    between atoms: C_3  and  C_8
    2  A    between atoms: C_3  and  C_38
    3  A    between atoms: C_9  and  C_11
    4  A    between atoms: C_14  and  C_37
    5  A    between atoms: N_18  and  C_21
    6  A    between atoms: C_25  and  C_27
    7  A    between atoms: C_29  and  C_36
                            x       y       z     vdW  Elec       q    Type
                         _______ _______ _______ _____ _____    ______ ____

>  <TORSDO>
F 7

$$$$
=
 OpenBabel11072409243D

 39 43  0  0  1  0  0  0  0  0999 V2000
  193.1520  176.5650  144.9700 C   0  0  0  0  0  0  0  0  0  0  0  0
  193.7230  177.0800  147.1920 O   0  0  0  0  0  1  0  0  0  0  0  0
  192.0740  177.3730  144.6050 C   0  0  0  0  0  3  0  0  0  0  0  0
  195.1160  175.6850  145.9260 N   0  0  0  0  0  2  0  0  0  0  0  0
  191.1430  176.8760  143.6790 C   0  0  0  0  0  0  0  0  0  0  0  0
  193.3240  175.3250  144.4380 C   0  0  0  0  0  0  0  0  0  0  0  0
  192.4170  174.7930  143.5210 C   0  0  0  0  0  3  0  0  0  0  0  0
  194.5480  174.7030  144.9860 C   0  0  1  0  0  3  0  0  0  0  0  0
  194.2450  176.8730  145.9140 C   0  0  1  0  0  3  0  0  0  0  0  0
  191.3190  175.5800  143.1400 C   0  0  0  0  0  3  0  0  0  0  0  0
  196.5890  173.5660  142.0840 C   0  0  0  0  0  0  0  0  0  0  0  0
  196.5800  175.1410  143.6870 N   0  0  0  0  0  0  0  0  0  0  0  0
  196.9300  172.9450  141.0430 O   0  0  0  0  0  0  0  0  0  0  0  0
  195.5370  174.3990  143.9010 C   0  0  0  0  0  0  0  0  0  0  0  0
  197.2970  174.6850  142.5800 N   0  0  0  0  0  2  0  0  0  0  0  0
  195.3950  173.2580  142.9240 C   0  0  2  0  0  3  0  0  0  0  0  0
  195.4680  170.6910  142.6630 C   0  0  2  0  0  3  0  0  0  0  0  0
  195.0070  170.5370  145.6600 C   0  0  0  0  0  2  0  0  0  0  0  0
  194.4610  170.8820  141.7130 O   0  0  0  0  0  1  0  0  0  0  0  0
  195.6160  169.3600  144.8750 C   0  0  1  0  0  3  0  0  0  0  0  0
  194.5740  171.7130  144.7790 C   0  0  0  0  0  2  0  0  0  0  0  0
  195.2130  169.3590  143.3890 C   0  0  2  0  0  3  0  0  0  0  0  0
  195.8160  168.3040  142.7020 O   0  0  0  0  0  1  0  0  0  0  0  0
  195.5560  171.8980  143.6240 C   0  0  2  0  0  3  0  0  0  0  0  0
  197.6710  168.1690  145.2370 O   0  0  0  0  0  1  0  0  0  0  0  0
  197.8480  170.4470  145.1140 O   0  0  0  0  0  0  0  0  0  0  0  0
  197.1000  169.2800  145.0820 C   0  0  0  0  0  0  0  0  0  0  0  0
  189.0480  177.2730  142.5840 C   0  0  0  0  0  3  0  0  0  0  0  0
  190.0380  177.7050  143.2960 N   0  0  0  0  0  0  0  0  0  0  0  0
  187.9300  178.1880  142.2060 C   0  0  2  0  0  3  0  0  0  0  0  0
  186.8090  177.3770  144.2060 O   0  0  0  0  0  1  0  0  0  0  0  0
  185.6420  178.9750  142.8710 C   0  0  0  0  0  2  0  0  0  0  0  0
  186.9970  178.4980  143.3910 C   0  0  2  0  0  3  0  0  0  0  0  0
  185.9730  176.9990  141.3970 O   0  0  0  0  0  0  0  0  0  0  0  0
  185.0450  177.9640  141.8650 C   0  0  2  0  0  3  0  0  0  0  0  0
  187.1570  177.6490  140.9930 C   0  0  0  0  0  2  0  0  0  0  0  0
  184.3340  178.6570  140.7090 C   0  0  0  0  0  2  0  0  0  0  0  0
  183.1330  177.8470  140.2550 C   0  0  0  0  0  2  0  0  0  0  0  0
  181.8680  178.4870  140.7820 C   0  0  0  0  0  1  0  0  0  0  0  0
  1  9  1  0  0  0  0
  3  1  1  0  0  0  0
  5  3  2  0  0  0  0
  6  1  2  0  0  0  0
  6  8  1  0  0  0  0
  7  6  1  0  0  0  0
  8 14  1  6  0  0  0
  8  4  1  0  0  0  0
  9  4  1  0  0  0  0
  9  2  1  1  0  0  0
 10  7  2  0  0  0  0
 10  5  1  0  0  0  0
 11 15  1  0  0  0  0
 12 14  2  0  0  0  0
 13 11  2  0  0  0  0
 15 12  1  0  0  0  0
 16 11  1  6  0  0  0
 16 24  1  0  0  0  0
 16 14  1  0  0  0  0
 17 19  1  6  0  0  0
 17 22  1  0  0  0  0
 17 24  1  0  0  0  0
 20 27  1  6  0  0  0
 20 18  1  0  0  0  0
 21 18  1  0  0  0  0
 22 23  1  6  0  0  0
 22 20  1  0  0  0  0
 24 21  1  1  0  0  0
 27 26  2  0  0  0  0
 27 25  1  0  0  0  0
 28 29  2  0  0  0  0
 29  5  1  0  0  0  0
 30 28  1  1  0  0  0
 30 33  1  0  0  0  0
 32 33  1  0  0  0  0
 33 31  1  6  0  0  0
 34 35  1  0  0  0  0
 35 37  1  6  0  0  0
 35 32  1  0  0  0  0
 36 34  1  0  0  0  0
 36 30  1  0  0  0  0
 38 37  1  0  0  0  0
 38 39  1  0  0  0  0
M  END
>  <MODEL>
5

>  <REMARK>
 VINA RESULT:      -6.3      1.682      2.030
  Name = 
  7 active torsions:
  status: ('A' for Active; 'I' for Inactive)
    1  A    between atoms: C_3  and  C_8
    2  A    between atoms: C_3  and  C_38
    3  A    between atoms: C_9  and  C_11
    4  A    between atoms: C_14  and  C_37
    5  A    between atoms: N_18  and  C_21
    6  A    between atoms: C_25  and  C_27
    7  A    between atoms: C_29  and  C_36
                            x       y       z     vdW  Elec       q    Type
                         _______ _______ _______ _____ _____    ______ ____

>  <TORSDO>
F 7

$$$$
=
 OpenBabel11072409243D

 39 43  0  0  1  0  0  0  0  0999 V2000
  191.8220  172.6490  143.2930 C   0  0  0  0  0  0  0  0  0  0  0  0
  191.9780  170.5200  144.2770 O   0  0  0  0  0  1  0  0  0  0  0  0
  190.5230  173.1200  143.4950 C   0  0  0  0  0  3  0  0  0  0  0  0
  193.9120  171.5830  143.4910 N   0  0  0  0  0  2  0  0  0  0  0  0
  189.9570  173.9690  142.5290 C   0  0  0  0  0  0  0  0  0  0  0  0
  192.5470  173.0060  142.1990 C   0  0  0  0  0  0  0  0  0  0  0  0
  192.0170  173.8410  141.2150 C   0  0  0  0  0  3  0  0  0  0  0  0
  193.8840  172.3790  142.2510 C   0  0  1  0  0  3  0  0  0  0  0  0
  192.6130  171.7580  144.1640 C   0  0  1  0  0  3  0  0  0  0  0  0
  190.7110  174.3250  141.3860 C   0  0  0  0  0  3  0  0  0  0  0  0
  196.6310  174.8100  142.9040 C   0  0  0  0  0  0  0  0  0  0  0  0
  195.4920  173.8980  141.1950 N   0  0  0  0  0  0  0  0  0  0  0  0
  197.5150  175.4660  143.5160 O   0  0  0  0  0  0  0  0  0  0  0  0
  194.9690  173.4130  142.2800 C   0  0  0  0  0  0  0  0  0  0  0  0
  196.5270  174.7850  141.4940 N   0  0  0  0  0  2  0  0  0  0  0  0
  195.6000  173.9410  143.5440 C   0  0  2  0  0  3  0  0  0  0  0  0
  193.8230  175.8140  143.5040 C   0  0  2  0  0  3  0  0  0  0  0  0
  194.1890  176.0020  146.5120 C   0  0  0  0  0  2  0  0  0  0  0  0
  194.6600  176.4180  142.5630 O   0  0  0  0  0  1  0  0  0  0  0  0
  192.9180  176.5280  145.8190 C   0  0  1  0  0  3  0  0  0  0  0  0
  195.2580  175.4880  145.5420 C   0  0  0  0  0  2  0  0  0  0  0  0
  193.1560  176.9140  144.3470 C   0  0  2  0  0  3  0  0  0  0  0  0
  191.9750  177.3460  143.7400 O   0  0  0  0  0  1  0  0  0  0  0  0
  194.6020  174.7870  144.3560 C   0  0  2  0  0  3  0  0  0  0  0  0
  191.9590  174.4080  146.4180 O   0  0  0  0  0  1  0  0  0  0  0  0
  190.4830  176.0010  145.6950 O   0  0  0  0  0  0  0  0  0  0  0  0
  191.7690  175.5810  146.0010 C   0  0  0  0  0  0  0  0  0  0  0  0
  188.2910  175.6920  142.5190 C   0  0  0  0  0  3  0  0  0  0  0  0
  188.6270  174.4610  142.7340 N   0  0  0  0  0  0  0  0  0  0  0  0
  186.8900  176.1480  142.7630 C   0  0  2  0  0  3  0  0  0  0  0  0
  187.3610  177.9150  141.1600 O   0  0  0  0  0  1  0  0  0  0  0  0
  185.1920  177.8930  142.1560 C   0  0  0  0  0  2  0  0  0  0  0  0
  186.3630  177.0600  141.6390 C   0  0  2  0  0  3  0  0  0  0  0  0
  186.7820  178.2100  144.0430 O   0  0  0  0  0  0  0  0  0  0  0  0
  185.5790  178.6610  143.4410 C   0  0  2  0  0  3  0  0  0  0  0  0
  186.7530  176.8050  144.1450 C   0  0  0  0  0  2  0  0  0  0  0  0
  184.4370  178.7050  144.4480 C   0  0  0  0  0  2  0  0  0  0  0  0
  184.9300  179.1970  145.7970 C   0  0  0  0  0  2  0  0  0  0  0  0
  184.4430  178.2630  146.8810 C   0  0  0  0  0  1  0  0  0  0  0  0
  1  3  1  0  0  0  0
  1  9  1  0  0  0  0
  4  9  1  0  0  0  0
  5 29  1  0  0  0  0
  5  3  2  0  0  0  0
  6  8  1  0  0  0  0
  6  1  2  0  0  0  0
  7 10  2  0  0  0  0
  7  6  1  0  0  0  0
  8 14  1  1  0  0  0
  8  4  1  0  0  0  0
  9  2  1  6  0  0  0
 10  5  1  0  0  0  0
 11 13  2  0  0  0  0
 11 16  1  0  0  0  0
 12 15  1  0  0  0  0
 12 14  2  0  0  0  0
 15 11  1  0  0  0  0
 16 14  1  6  0  0  0
 16 24  1  0  0  0  0
 17 19  1  6  0  0  0
 17 22  1  0  0  0  0
 17 24  1  0  0  0  0
 20 27  1  6  0  0  0
 20 18  1  0  0  0  0
 21 18  1  0  0  0  0
 22 23  1  6  0  0  0
 22 20  1  0  0  0  0
 24 21  1  1  0  0  0
 26 27  2  0  0  0  0
 27 25  1  0  0  0  0
 28 29  2  0  0  0  0
 30 28  1  6  0  0  0
 30 36  1  0  0  0  0
 32 35  1  0  0  0  0
 33 31  1  1  0  0  0
 33 32  1  0  0  0  0
 33 30  1  0  0  0  0
 34 36  1  0  0  0  0
 35 34  1  0  0  0  0
 35 37  1  1  0  0  0
 37 38  1  0  0  0  0
 38 39  1  0  0  0  0
M  END
>  <MODEL>
6

>  <REMARK>
 VINA RESULT:      -6.3      2.706      4.660
  Name = 
  7 active torsions:
  status: ('A' for Active; 'I' for Inactive)
    1  A    between atoms: C_3  and  C_8
    2  A    between atoms: C_3  and  C_38
    3  A    between atoms: C_9  and  C_11
    4  A    between atoms: C_14  and  C_37
    5  A    between atoms: N_18  and  C_21
    6  A    between atoms: C_25  and  C_27
    7  A    between atoms: C_29  and  C_36
                            x       y       z     vdW  Elec       q    Type
                         _______ _______ _______ _____ _____    ______ ____

>  <TORSDO>
F 7

$$$$
=
 OpenBabel11072409243D

 39 43  0  0  1  0  0  0  0  0999 V2000
  193.7450  175.9300  143.1040 C   0  0  0  0  0  0  0  0  0  0  0  0
  194.8250  176.9130  141.2610 O   0  0  0  0  0  1  0  0  0  0  0  0
  192.3730  176.1510  142.9650 C   0  0  0  0  0  3  0  0  0  0  0  0
  196.0380  175.5470  142.7280 N   0  0  0  0  0  2  0  0  0  0  0  0
  191.5930  176.2870  144.1240 C   0  0  0  0  0  0  0  0  0  0  0  0
  194.3290  175.8290  144.3280 C   0  0  0  0  0  0  0  0  0  0  0  0
  193.5890  175.9660  145.5020 C   0  0  0  0  0  3  0  0  0  0  0  0
  195.7780  175.5800  144.1780 C   0  0  1  0  0  3  0  0  0  0  0  0
  194.7520  175.7560  142.0380 C   0  0  1  0  0  3  0  0  0  0  0  0
  192.2090  176.1960  145.3940 C   0  0  0  0  0  3  0  0  0  0  0  0
  196.8380  172.1460  145.1610 C   0  0  0  0  0  0  0  0  0  0  0  0
  196.4390  174.1630  146.0660 N   0  0  0  0  0  0  0  0  0  0  0  0
  197.2170  170.9480  145.0680 O   0  0  0  0  0  0  0  0  0  0  0  0
  196.1730  174.2740  144.8010 C   0  0  0  0  0  0  0  0  0  0  0  0
  196.8490  172.8660  146.3770 N   0  0  0  0  0  2  0  0  0  0  0  0
  196.3620  172.9920  144.0280 C   0  0  2  0  0  3  0  0  0  0  0  0
  193.8930  172.4320  144.5330 C   0  0  2  0  0  3  0  0  0  0  0  0
  193.9120  170.7930  141.9770 C   0  0  0  0  0  2  0  0  0  0  0  0
  194.3750  171.9860  145.7660 O   0  0  0  0  0  1  0  0  0  0  0  0
  192.5990  171.3020  142.5990 C   0  0  1  0  0  3  0  0  0  0  0  0
  195.1570  171.1000  142.8160 C   0  0  0  0  0  2  0  0  0  0  0  0
  192.7090  171.5420  144.1170 C   0  0  2  0  0  3  0  0  0  0  0  0
  191.5140  172.0430  144.6380 O   0  0  0  0  0  1  0  0  0  0  0  0
  195.0230  172.4680  143.4800 C   0  0  2  0  0  3  0  0  0  0  0  0
  190.9110  172.9310  142.0740 O   0  0  0  0  0  1  0  0  0  0  0  0
  192.8670  173.1080  140.9000 O   0  0  0  0  0  0  0  0  0  0  0  0
  192.0700  172.4920  141.8530 C   0  0  0  0  0  0  0  0  0  0  0  0
  189.4940  176.0590  142.9880 C   0  0  0  0  0  3  0  0  0  0  0  0
  190.1830  176.5070  143.9870 N   0  0  0  0  0  0  0  0  0  0  0  0
  188.0290  176.3320  142.8940 C   0  0  2  0  0  3  0  0  0  0  0  0
  188.6480  178.3210  141.6380 O   0  0  0  0  0  1  0  0  0  0  0  0
  186.3210  177.9490  142.0210 C   0  0  0  0  0  2  0  0  0  0  0  0
  187.6850  177.3130  141.7580 C   0  0  2  0  0  3  0  0  0  0  0  0
  187.3310  178.2000  144.2800 O   0  0  0  0  0  0  0  0  0  0  0  0
  186.2680  178.5920  143.4260 C   0  0  2  0  0  3  0  0  0  0  0  0
  187.4640  176.7980  144.2450 C   0  0  0  0  0  2  0  0  0  0  0  0
  184.9140  178.3920  144.0960 C   0  0  0  0  0  2  0  0  0  0  0  0
  184.8610  179.1230  145.4260 C   0  0  0  0  0  2  0  0  0  0  0  0
  184.4410  178.1590  146.5120 C   0  0  0  0  0  1  0  0  0  0  0  0
  1  6  1  0  0  0  0
  3  1  2  0  0  0  0
  3  5  1  0  0  0  0
  4  8  1  0  0  0  0
  5 10  2  0  0  0  0
  6  7  2  0  0  0  0
  8  6  1  0  0  0  0
  8 14  1  6  0  0  0
  9  2  1  6  0  0  0
  9  4  1  0  0  0  0
  9  1  1  0  0  0  0
 10  7  1  0  0  0  0
 11 15  1  0  0  0  0
 12 15  1  0  0  0  0
 13 11  2  0  0  0  0
 14 12  2  0  0  0  0
 16 14  1  1  0  0  0
 16 11  1  0  0  0  0
 17 19  1  1  0  0  0
 18 20  1  0  0  0  0
 18 21  1  0  0  0  0
 20 27  1  6  0  0  0
 20 22  1  0  0  0  0
 22 17  1  0  0  0  0
 22 23  1  6  0  0  0
 24 21  1  1  0  0  0
 24 16  1  0  0  0  0
 24 17  1  0  0  0  0
 26 27  2  0  0  0  0
 27 25  1  0  0  0  0
 28 29  2  0  0  0  0
 29  5  1  0  0  0  0
 30 28  1  1  0  0  0
 30 36  1  0  0  0  0
 32 35  1  0  0  0  0
 33 31  1  1  0  0  0
 33 32  1  0  0  0  0
 33 30  1  0  0  0  0
 35 37  1  1  0  0  0
 35 34  1  0  0  0  0
 36 34  1  0  0  0  0
 37 38  1  0  0  0  0
 38 39  1  0  0  0  0
M  END
>  <MODEL>
7

>  <REMARK>
 VINA RESULT:      -6.3      2.203      4.186
  Name = 
  7 active torsions:
  status: ('A' for Active; 'I' for Inactive)
    1  A    between atoms: C_3  and  C_8
    2  A    between atoms: C_3  and  C_38
    3  A    between atoms: C_9  and  C_11
    4  A    between atoms: C_14  and  C_37
    5  A    between atoms: N_18  and  C_21
    6  A    between atoms: C_25  and  C_27
    7  A    between atoms: C_29  and  C_36
                            x       y       z     vdW  Elec       q    Type
                         _______ _______ _______ _____ _____    ______ ____

>  <TORSDO>
F 7

$$$$
=
 OpenBabel11072409243D

 39 43  0  0  1  0  0  0  0  0999 V2000
  193.1960  176.4460  144.9000 C   0  0  0  0  0  0  0  0  0  0  0  0
  194.4770  177.1350  146.7470 O   0  0  0  0  0  1  0  0  0  0  0  0
  191.8890  176.8970  145.0930 C   0  0  0  0  0  3  0  0  0  0  0  0
  195.5370  176.1970  144.8810 N   0  0  0  0  0  2  0  0  0  0  0  0
  190.8300  176.1360  144.5700 C   0  0  0  0  0  0  0  0  0  0  0  0
  193.4610  175.3050  144.2090 C   0  0  0  0  0  0  0  0  0  0  0  0
  192.4370  174.5190  143.6820 C   0  0  0  0  0  3  0  0  0  0  0  0
  194.9200  175.0790  144.1450 C   0  0  1  0  0  3  0  0  0  0  0  0
  194.4530  177.0750  145.3530 C   0  0  1  0  0  3  0  0  0  0  0  0
  191.1120  174.9420  143.8660 C   0  0  0  0  0  3  0  0  0  0  0  0
  195.7700  174.5710  140.5540 C   0  0  0  0  0  0  0  0  0  0  0  0
  196.0580  176.0620  142.2090 N   0  0  0  0  0  0  0  0  0  0  0  0
  195.7810  174.0780  139.3950 O   0  0  0  0  0  0  0  0  0  0  0  0
  195.4070  175.0650  142.7270 C   0  0  0  0  0  0  0  0  0  0  0  0
  196.3330  175.8300  140.8610 N   0  0  0  0  0  2  0  0  0  0  0  0
  195.1450  173.9430  141.7540 C   0  0  2  0  0  3  0  0  0  0  0  0
  194.9720  171.4960  142.5580 C   0  0  2  0  0  3  0  0  0  0  0  0
  197.8890  171.7270  143.3660 C   0  0  0  0  0  2  0  0  0  0  0  0
  193.8970  171.9530  143.3250 O   0  0  0  0  0  1  0  0  0  0  0  0
  197.2230  170.3580  143.1280 C   0  0  1  0  0  3  0  0  0  0  0  0
  196.9260  172.9130  143.2610 C   0  0  0  0  0  2  0  0  0  0  0  0
  195.6990  170.3900  143.3420 C   0  0  2  0  0  3  0  0  0  0  0  0
  195.1250  169.1450  143.0760 O   0  0  0  0  0  1  0  0  0  0  0  0
  195.9000  172.6640  142.1580 C   0  0  2  0  0  3  0  0  0  0  0  0
  197.9410  168.5750  141.6860 O   0  0  0  0  0  1  0  0  0  0  0  0
  197.6400  170.6090  140.6810 O   0  0  0  0  0  0  0  0  0  0  0  0
  197.6190  169.7870  141.7980 C   0  0  0  0  0  0  0  0  0  0  0  0
  188.4700  176.0690  144.1590 C   0  0  0  0  0  3  0  0  0  0  0  0
  189.4870  176.5970  144.7600 N   0  0  0  0  0  0  0  0  0  0  0  0
  187.0940  176.6020  144.3870 C   0  0  2  0  0  3  0  0  0  0  0  0
  186.9700  176.8600  141.9720 O   0  0  0  0  0  1  0  0  0  0  0  0
  185.0700  177.5460  143.2430 C   0  0  0  0  0  2  0  0  0  0  0  0
  186.2250  176.5550  143.1160 C   0  0  2  0  0  3  0  0  0  0  0  0
  186.9390  178.9970  144.0130 O   0  0  0  0  0  0  0  0  0  0  0  0
  185.5860  178.9630  143.5840 C   0  0  2  0  0  3  0  0  0  0  0  0
  187.1390  178.0100  144.9990 C   0  0  0  0  0  2  0  0  0  0  0  0
  184.6740  179.6850  144.5670 C   0  0  0  0  0  2  0  0  0  0  0  0
  183.9400  178.6900  145.4480 C   0  0  0  0  0  2  0  0  0  0  0  0
  184.4240  178.8310  146.8740 C   0  0  0  0  0  1  0  0  0  0  0  0
  1  3  1  0  0  0  0
  1  9  1  0  0  0  0
  4  9  1  0  0  0  0
  5 29  1  0  0  0  0
  5  3  2  0  0  0  0
  6  1  2  0  0  0  0
  7 10  2  0  0  0  0
  7  6  1  0  0  0  0
  8 14  1  6  0  0  0
  8  6  1  0  0  0  0
  8  4  1  0  0  0  0
  9  2  1  1  0  0  0
 10  5  1  0  0  0  0
 11 15  1  0  0  0  0
 12 14  2  0  0  0  0
 13 11  2  0  0  0  0
 15 12  1  0  0  0  0
 16 11  1  6  0  0  0
 16 24  1  0  0  0  0
 16 14  1  0  0  0  0
 17 19  1  1  0  0  0
 17 22  1  0  0  0  0
 20 27  1  6  0  0  0
 20 22  1  0  0  0  0
 20 18  1  0  0  0  0
 21 18  1  0  0  0  0
 22 23  1  6  0  0  0
 24 17  1  0  0  0  0
 24 21  1  1  0  0  0
 25 27  1  0  0  0  0
 26 27  2  0  0  0  0
 28 29  2  0  0  0  0
 30 28  1  6  0  0  0
 30 36  1  0  0  0  0
 32 35  1  0  0  0  0
 33 31  1  6  0  0  0
 33 32  1  0  0  0  0
 33 30  1  0  0  0  0
 34 36  1  0  0  0  0
 35 34  1  0  0  0  0
 35 37  1  1  0  0  0
 37 38  1  0  0  0  0
 38 39  1  0  0  0  0
M  END
>  <MODEL>
8

>  <REMARK>
 VINA RESULT:      -6.2      2.168      2.843
  Name = 
  7 active torsions:
  status: ('A' for Active; 'I' for Inactive)
    1  A    between atoms: C_3  and  C_8
    2  A    between atoms: C_3  and  C_38
    3  A    between atoms: C_9  and  C_11
    4  A    between atoms: C_14  and  C_37
    5  A    between atoms: N_18  and  C_21
    6  A    between atoms: C_25  and  C_27
    7  A    between atoms: C_29  and  C_36
                            x       y       z     vdW  Elec       q    Type
                         _______ _______ _______ _____ _____    ______ ____

>  <TORSDO>
F 7

$$$$
=
 OpenBabel11072409243D

 39 43  0  0  1  0  0  0  0  0999 V2000
  195.0660  175.4320  143.7100 C   0  0  0  0  0  0  0  0  0  0  0  0
  196.3710  174.4130  145.3790 O   0  0  0  0  0  1  0  0  0  0  0  0
  194.0750  176.1860  144.3410 C   0  0  0  0  0  3  0  0  0  0  0  0
  197.0580  174.3130  143.1420 N   0  0  0  0  0  2  0  0  0  0  0  0
  192.8350  176.3400  143.6990 C   0  0  0  0  0  0  0  0  0  0  0  0
  194.8600  174.8640  142.4910 C   0  0  0  0  0  0  0  0  0  0  0  0
  193.6410  174.9880  141.8260 C   0  0  0  0  0  3  0  0  0  0  0  0
  196.0750  174.1430  142.0570 C   0  0  1  0  0  3  0  0  0  0  0  0
  196.4310  175.1390  144.1880 C   0  0  1  0  0  3  0  0  0  0  0  0
  192.6220  175.7340  142.4390 C   0  0  0  0  0  3  0  0  0  0  0  0
  196.9470  175.2900  138.6210 C   0  0  0  0  0  0  0  0  0  0  0  0
  197.5470  175.6130  140.7610 N   0  0  0  0  0  0  0  0  0  0  0  0
  196.8840  175.4600  137.3750 O   0  0  0  0  0  0  0  0  0  0  0  0
  196.6170  174.7080  140.7790 C   0  0  0  0  0  0  0  0  0  0  0  0
  197.8220  176.0220  139.4560 N   0  0  0  0  0  2  0  0  0  0  0  0
  196.1050  174.3410  139.4080 C   0  0  2  0  0  3  0  0  0  0  0  0
  195.2100  172.0040  138.7740 C   0  0  2  0  0  3  0  0  0  0  0  0
  197.9410  170.9280  139.5510 C   0  0  0  0  0  2  0  0  0  0  0  0
  194.1830  172.2880  139.6770 O   0  0  0  0  0  1  0  0  0  0  0  0
  196.9980  170.1410  138.6220 C   0  0  1  0  0  3  0  0  0  0  0  0
  197.3310  172.2180  140.1080 C   0  0  0  0  0  2  0  0  0  0  0  0
  195.5150  170.4970  138.8340 C   0  0  2  0  0  3  0  0  0  0  0  0
  194.6940  169.7980  137.9470 O   0  0  0  0  0  1  0  0  0  0  0  0
  196.4500  172.8840  139.0550 C   0  0  2  0  0  3  0  0  0  0  0  0
  197.3970  169.2530  136.4250 O   0  0  0  0  0  0  0  0  0  0  0  0
  197.8810  171.4710  136.7050 O   0  0  0  0  0  1  0  0  0  0  0  0
  197.4300  170.2520  137.1890 C   0  0  0  0  0  0  0  0  0  0  0  0
  190.6550  176.6400  144.6500 C   0  0  0  0  0  3  0  0  0  0  0  0
  191.8170  177.1190  144.3390 N   0  0  0  0  0  0  0  0  0  0  0  0
  189.6290  177.5050  145.3060 C   0  0  2  0  0  3  0  0  0  0  0  0
  188.8650  175.4770  146.4110 O   0  0  0  0  0  1  0  0  0  0  0  0
  187.6840  177.4950  146.8900 C   0  0  0  0  0  2  0  0  0  0  0  0
  189.0340  176.8570  146.5690 C   0  0  2  0  0  3  0  0  0  0  0  0
  187.3890  177.1210  144.4480 O   0  0  0  0  0  0  0  0  0  0  0  0
  186.7390  177.4420  145.6680 C   0  0  2  0  0  3  0  0  0  0  0  0
  188.5390  177.9250  144.3090 C   0  0  0  0  0  2  0  0  0  0  0  0
  185.9020  178.7090  145.5340 C   0  0  0  0  0  2  0  0  0  0  0  0
  184.4440  178.3650  145.2930 C   0  0  0  0  0  2  0  0  0  0  0  0
  184.0770  178.7080  143.8660 C   0  0  0  0  0  1  0  0  0  0  0  0
  1  9  1  0  0  0  0
  1  3  1  0  0  0  0
  4  9  1  0  0  0  0
  5 29  1  0  0  0  0
  5  3  2  0  0  0  0
  6  1  2  0  0  0  0
  7 10  2  0  0  0  0
  7  6  1  0  0  0  0
  8 14  1  6  0  0  0
  8  6  1  0  0  0  0
  8  4  1  0  0  0  0
  9  2  1  1  0  0  0
 10  5  1  0  0  0  0
 11 15  1  0  0  0  0
 12 14  2  0  0  0  0
 13 11  2  0  0  0  0
 15 12  1  0  0  0  0
 16 11  1  6  0  0  0
 16 14  1  0  0  0  0
 17 22  1  0  0  0  0
 17 24  1  0  0  0  0
 17 19  1  1  0  0  0
 18 21  1  0  0  0  0
 20 27  1  6  0  0  0
 20 22  1  0  0  0  0
 20 18  1  0  0  0  0
 22 23  1  6  0  0  0
 24 16  1  0  0  0  0
 24 21  1  1  0  0  0
 25 27  2  0  0  0  0
 26 27  1  0  0  0  0
 29 28  2  0  0  0  0
 30 28  1  6  0  0  0
 30 33  1  0  0  0  0
 33 31  1  6  0  0  0
 33 32  1  0  0  0  0
 34 35  1  0  0  0  0
 35 37  1  6  0  0  0
 35 32  1  0  0  0  0
 36 34  1  0  0  0  0
 36 30  1  0  0  0  0
 38 37  1  0  0  0  0
 39 38  1  0  0  0  0
M  END
>  <MODEL>
9

>  <REMARK>
 VINA RESULT:      -6.1      3.848      5.108
  Name = 
  7 active torsions:
  status: ('A' for Active; 'I' for Inactive)
    1  A    between atoms: C_3  and  C_8
    2  A    between atoms: C_3  and  C_38
    3  A    between atoms: C_9  and  C_11
    4  A    between atoms: C_14  and  C_37
    5  A    between atoms: N_18  and  C_21
    6  A    between atoms: C_25  and  C_27
    7  A    between atoms: C_29  and  C_36
                            x       y       z     vdW  Elec       q    Type
                         _______ _______ _______ _____ _____    ______ ____

>  <TORSDO>
F 7

$$$$
