=
 OpenBabel11062420083D

 35 40  0  0  1  0  0  0  0  0999 V2000
  186.3750  176.8830  142.3520 O   0  0  0  0  0  1  0  0  0  0  0  0
  191.1700  176.6600  146.7780 C   0  0  2  0  0  3  0  0  0  0  0  0
  187.2780  178.3180  145.1340 C   0  0  0  0  0  2  0  0  0  0  0  0
  187.7520  176.1020  144.1950 C   0  0  1  0  0  3  0  0  0  0  0  0
  189.7010  177.5420  144.9480 C   0  0  0  0  0  2  0  0  0  0  0  0
  190.4450  175.9000  141.9650 O   0  0  0  0  0  0  0  0  0  0  0  0
  193.0220  173.7470  143.9360 N   0  0  2  0  0  0  0  0  0  0  0  0
  191.2320  173.5580  142.3320 C   0  0  0  0  0  0  0  0  0  0  0  0
  192.6710  173.8920  142.5220 C   0  0  0  0  0  2  0  0  0  0  0  0
  189.7570  177.1140  146.4160 C   0  0  2  0  0  3  0  0  0  0  0  0
  190.7740  172.2330  142.4140 C   0  0  0  0  0  3  0  0  0  0  0  0
  188.2750  175.5490  141.7320 C   0  0  1  0  0  3  0  0  0  0  0  0
  188.5240  172.9430  142.0560 C   0  0  0  0  0  0  0  0  0  0  0  0
  195.1360  173.4310  143.1790 O   0  0  0  0  0  0  0  0  0  0  0  0
  191.5140  175.3580  146.0650 C   0  0  0  0  0  2  0  0  0  0  0  0
  186.3270  177.3260  145.7820 C   0  0  1  0  0  3  0  0  0  0  0  0
  193.8020  175.4130  146.6580 O   0  0  0  0  0  0  0  0  0  0  0  0
  188.9720  174.2630  141.9940 C   0  0  0  0  0  0  0  0  0  0  0  0
  192.9800  175.2780  145.7630 C   0  0  0  0  0  0  0  0  0  0  0  0
  193.4300  175.0480  144.3490 C   0  0  1  0  0  3  0  0  0  0  0  0
  187.2010  175.8420  142.7840 C   0  0  2  0  0  3  0  0  0  0  0  0
  189.2870  176.5600  141.7240 O   0  0  0  0  0  0  0  0  0  0  0  0
  190.2750  174.5480  142.1160 C   0  0  0  0  0  0  0  0  0  0  0  0
  188.2940  177.5180  144.3390 C   0  0  2  0  0  3  0  0  0  0  0  0
  195.3440  174.8370  143.5740 C   0  0  0  0  0  0  0  0  0  0  0  0
  186.6370  175.9520  145.2130 C   0  0  0  0  0  2  0  0  0  0  0  0
  194.4810  173.9790  144.2780 C   0  0  2  0  0  0  0  0  0  0  0  0
  191.2920  176.4350  148.2790 C   0  0  0  0  0  1  0  0  0  0  0  0
  195.9120  175.9500  143.4000 O   0  0  0  0  0  0  0  0  0  0  0  0
  187.1460  172.6260  141.9010 N   0  0  0  0  0  1  0  0  0  0  0  0
  189.4410  171.9540  142.2710 N   0  0  0  0  0  0  0  0  0  0  0  0
  189.3930  178.2010  147.2150 O   0  0  0  0  0  1  0  0  0  0  0  0
  186.5370  177.3110  147.1620 O   0  0  0  0  0  0  0  0  0  0  0  0
  184.3770  178.2700  146.9270 C   0  0  0  0  0  1  0  0  0  0  0  0
  185.6960  178.3050  147.6700 C   0  0  0  0  0  2  0  0  0  0  0  0
  2 28  1  1  0  0  0
  3 16  1  0  0  0  0
  4 24  1  0  0  0  0
  4 26  1  1  0  0  0
  5 10  1  0  0  0  0
  6 23  1  0  0  0  0
  7  9  1  6  0  0  0
  7 27  1  0  0  0  0
  7 20  1  0  0  0  0
  8 11  1  0  0  0  0
  8  9  1  0  0  0  0
 10  2  1  0  0  0  0
 10 32  1  1  0  0  0
 12 22  1  1  0  0  0
 12 18  1  0  0  0  0
 12 21  1  0  0  0  0
 13 31  1  0  0  0  0
 14 25  1  0  0  0  0
 15  2  1  0  0  0  0
 16 33  1  1  0  0  0
 18 13  2  0  0  0  0
 18 23  1  0  0  0  0
 19 15  1  0  0  0  0
 19 17  2  0  0  0  0
 20 19  1  1  0  0  0
 21  1  1  6  0  0  0
 21  4  1  0  0  0  0
 22  6  1  0  0  0  0
 23  8  2  0  0  0  0
 24  5  1  1  0  0  0
 24  3  1  0  0  0  0
 25 27  1  0  0  0  0
 26 16  1  0  0  0  0
 27 14  1  1  0  0  0
 27 20  1  0  0  0  0
 29 25  2  0  0  0  0
 30 13  1  0  0  0  0
 31 11  2  0  0  0  0
 33 35  1  0  0  0  0
 34 35  1  0  0  0  0
M  END
>  <MODEL>
1

>  <REMARK>
 VINA RESULT:      -7.9      0.000      0.000
  Name = 
  2 active torsions:
  status: ('A' for Active; 'I' for Inactive)
    1  A    between atoms: C_17  and  O_35
    2  A    between atoms: C_34  and  O_35
                            x       y       z     vdW  Elec       q    Type
                         _______ _______ _______ _____ _____    ______ ____

>  <TORSDO>
F 2

$$$$
=
 OpenBabel11062420083D

 35 40  0  0  1  0  0  0  0  0999 V2000
  194.8660  175.6830  145.9460 O   0  0  0  0  0  1  0  0  0  0  0  0
  190.9930  173.2740  141.2730 C   0  0  2  0  0  3  0  0  0  0  0  0
  195.0350  173.8530  143.2560 C   0  0  0  0  0  2  0  0  0  0  0  0
  193.2120  174.2880  144.8380 C   0  0  1  0  0  3  0  0  0  0  0  0
  192.7820  174.6510  142.3640 C   0  0  0  0  0  2  0  0  0  0  0  0
  191.3110  177.1730  144.2680 O   0  0  0  0  0  0  0  0  0  0  0  0
  187.8350  175.7200  143.2820 N   0  0  2  0  0  0  0  0  0  0  0  0
  189.0870  176.5050  145.1870 C   0  0  0  0  0  0  0  0  0  0  0  0
  188.2840  176.9140  144.0020 C   0  0  0  0  0  2  0  0  0  0  0  0
  192.3410  173.2340  141.9920 C   0  0  2  0  0  3  0  0  0  0  0  0
  188.4790  175.9290  146.3160 C   0  0  0  0  0  3  0  0  0  0  0  0
  192.6240  176.5480  145.9310 C   0  0  1  0  0  3  0  0  0  0  0  0
  190.6010  175.6650  147.3750 C   0  0  0  0  0  0  0  0  0  0  0  0
  186.1630  177.0470  142.5170 O   0  0  0  0  0  0  0  0  0  0  0  0
  189.8870  173.6980  142.2310 C   0  0  0  0  0  2  0  0  0  0  0  0
  194.9720  172.6840  144.2240 C   0  0  1  0  0  3  0  0  0  0  0  0
  188.2580  173.9630  140.5390 O   0  0  0  0  0  0  0  0  0  0  0  0
  191.2100  176.2170  146.2490 C   0  0  0  0  0  0  0  0  0  0  0  0
  188.8090  174.4530  141.5130 C   0  0  0  0  0  0  0  0  0  0  0  0
  188.4260  175.8240  141.9900 C   0  0  1  0  0  3  0  0  0  0  0  0
  193.5210  175.3050  145.9490 C   0  0  2  0  0  3  0  0  0  0  0  0
  192.6130  177.1650  144.6410 O   0  0  0  0  0  0  0  0  0  0  0  0
  190.4750  176.6280  145.2080 C   0  0  0  0  0  0  0  0  0  0  0  0
  193.8080  174.7120  143.5020 C   0  0  2  0  0  3  0  0  0  0  0  0
  186.9710  177.1260  141.2850 C   0  0  0  0  0  0  0  0  0  0  0  0
  193.8300  172.9480  145.1900 C   0  0  0  0  0  2  0  0  0  0  0  0
  186.9370  175.9720  142.0870 C   0  0  2  0  0  0  0  0  0  0  0  0
  190.6450  171.9030  140.7110 C   0  0  0  0  0  1  0  0  0  0  0  0
  187.3590  177.7670  140.2700 O   0  0  0  0  0  0  0  0  0  0  0  0
  191.3710  175.2500  148.4990 N   0  0  0  0  0  1  0  0  0  0  0  0
  189.2420  175.5290  147.3800 N   0  0  0  0  0  0  0  0  0  0  0  0
  193.3050  172.6700  141.1520 O   0  0  0  0  0  1  0  0  0  0  0  0
  194.7170  171.5060  143.5200 O   0  0  0  0  0  0  0  0  0  0  0  0
  192.9840  169.8820  143.5180 C   0  0  0  0  0  1  0  0  0  0  0  0
  193.8950  170.7500  144.3600 C   0  0  0  0  0  2  0  0  0  0  0  0
  2 28  1  1  0  0  0
  2 10  1  0  0  0  0
  2 15  1  0  0  0  0
  3 24  1  0  0  0  0
  3 16  1  0  0  0  0
  4 26  1  1  0  0  0
  4 21  1  0  0  0  0
  6 22  1  0  0  0  0
  6 23  1  0  0  0  0
  7  9  1  1  0  0  0
  8 23  2  0  0  0  0
  8 11  1  0  0  0  0
  9  8  1  0  0  0  0
 10 32  1  6  0  0  0
 10  5  1  0  0  0  0
 11 31  2  0  0  0  0
 12 22  1  6  0  0  0
 12 21  1  0  0  0  0
 12 18  1  0  0  0  0
 13 31  1  0  0  0  0
 13 30  1  0  0  0  0
 16 33  1  6  0  0  0
 16 26  1  0  0  0  0
 17 19  2  0  0  0  0
 18 13  2  0  0  0  0
 19 15  1  0  0  0  0
 20 19  1  6  0  0  0
 20 27  1  0  0  0  0
 20  7  1  0  0  0  0
 21  1  1  6  0  0  0
 23 18  1  0  0  0  0
 24  5  1  6  0  0  0
 24  4  1  0  0  0  0
 25 14  1  0  0  0  0
 27 25  1  1  0  0  0
 27 14  1  0  0  0  0
 27  7  1  0  0  0  0
 29 25  2  0  0  0  0
 33 35  1  0  0  0  0
 34 35  1  0  0  0  0
M  END
>  <MODEL>
2

>  <REMARK>
 VINA RESULT:      -7.9      2.352      7.523
  Name = 
  2 active torsions:
  status: ('A' for Active; 'I' for Inactive)
    1  A    between atoms: C_17  and  O_35
    2  A    between atoms: C_34  and  O_35
                            x       y       z     vdW  Elec       q    Type
                         _______ _______ _______ _____ _____    ______ ____

>  <TORSDO>
F 2

$$$$
=
 OpenBabel11062420083D

 35 40  0  0  1  0  0  0  0  0999 V2000
  195.0560  177.5280  145.3860 O   0  0  0  0  0  1  0  0  0  0  0  0
  193.6000  171.9720  142.2800 C   0  0  2  0  0  3  0  0  0  0  0  0
  196.5120  175.1530  143.6980 C   0  0  0  0  0  2  0  0  0  0  0  0
  194.4460  175.2050  145.0190 C   0  0  1  0  0  3  0  0  0  0  0  0
  194.3390  174.3420  142.6350 C   0  0  0  0  0  2  0  0  0  0  0  0
  191.5690  176.3270  143.3680 O   0  0  0  0  0  0  0  0  0  0  0  0
  189.3760  173.1140  143.2010 N   0  0  2  0  0  0  0  0  0  0  0  0
  189.7740  175.0640  144.5600 C   0  0  0  0  0  0  0  0  0  0  0  0
  189.0950  174.5450  143.3420 C   0  0  0  0  0  2  0  0  0  0  0  0
  194.6670  172.8710  142.9020 C   0  0  2  0  0  3  0  0  0  0  0  0
  189.3100  174.7430  145.8470 C   0  0  0  0  0  3  0  0  0  0  0  0
  192.7090  177.1080  145.0930 C   0  0  1  0  0  3  0  0  0  0  0  0
  191.0960  175.9730  146.8440 C   0  0  0  0  0  0  0  0  0  0  0  0
  187.4460  173.0510  142.0130 O   0  0  0  0  0  0  0  0  0  0  0  0
  192.2730  172.1290  143.0140 C   0  0  0  0  0  2  0  0  0  0  0  0
  196.8220  174.5700  145.0660 C   0  0  1  0  0  3  0  0  0  0  0  0
  191.0290  170.9000  141.4240 O   0  0  0  0  0  0  0  0  0  0  0  0
  191.5720  176.2780  145.5690 C   0  0  0  0  0  0  0  0  0  0  0  0
  191.1140  171.9240  142.0850 C   0  0  0  0  0  0  0  0  0  0  0  0
  190.0700  172.9950  141.9620 C   0  0  1  0  0  3  0  0  0  0  0  0
  194.0550  176.5760  145.5940 C   0  0  2  0  0  3  0  0  0  0  0  0
  192.6430  177.0980  143.6640 O   0  0  0  0  0  0  0  0  0  0  0  0
  190.9250  175.8470  144.4780 C   0  0  0  0  0  0  0  0  0  0  0  0
  195.0060  175.3220  143.6080 C   0  0  2  0  0  3  0  0  0  0  0  0
  188.3300  173.0410  140.8320 C   0  0  0  0  0  0  0  0  0  0  0  0
  195.5360  174.5870  145.8750 C   0  0  0  0  0  2  0  0  0  0  0  0
  188.6870  172.4210  142.0420 C   0  0  2  0  0  0  0  0  0  0  0  0
  194.0220  170.5110  142.3520 C   0  0  0  0  0  1  0  0  0  0  0  0
  188.5530  173.3490  139.6280 O   0  0  0  0  0  0  0  0  0  0  0  0
  191.7590  176.4490  148.0100 N   0  0  0  0  0  1  0  0  0  0  0  0
  189.9720  175.2050  146.9540 N   0  0  0  0  0  0  0  0  0  0  0  0
  195.9130  172.5800  142.3400 O   0  0  0  0  0  1  0  0  0  0  0  0
  197.2610  173.2530  144.9250 O   0  0  0  0  0  0  0  0  0  0  0  0
  196.6060  171.1290  145.7630 C   0  0  0  0  0  1  0  0  0  0  0  0
  196.8160  172.5960  146.0760 C   0  0  0  0  0  2  0  0  0  0  0  0
  2 28  1  1  0  0  0
  2 10  1  0  0  0  0
  2 15  1  0  0  0  0
  3 16  1  0  0  0  0
  4 21  1  0  0  0  0
  4 26  1  1  0  0  0
  5 10  1  0  0  0  0
  6 22  1  0  0  0  0
  6 23  1  0  0  0  0
  7  9  1  6  0  0  0
  8 11  1  0  0  0  0
  9  8  1  0  0  0  0
 10 32  1  6  0  0  0
 11 31  2  0  0  0  0
 12 22  1  6  0  0  0
 12 18  1  0  0  0  0
 12 21  1  0  0  0  0
 13 31  1  0  0  0  0
 13 30  1  0  0  0  0
 14 27  1  0  0  0  0
 16 33  1  6  0  0  0
 16 26  1  0  0  0  0
 17 19  2  0  0  0  0
 18 13  2  0  0  0  0
 19 15  1  0  0  0  0
 20 27  1  0  0  0  0
 20 19  1  1  0  0  0
 20  7  1  0  0  0  0
 21  1  1  6  0  0  0
 23  8  2  0  0  0  0
 23 18  1  0  0  0  0
 24  5  1  6  0  0  0
 24  3  1  0  0  0  0
 24  4  1  0  0  0  0
 25 14  1  0  0  0  0
 27 25  1  6  0  0  0
 27  7  1  0  0  0  0
 29 25  2  0  0  0  0
 33 35  1  0  0  0  0
 34 35  1  0  0  0  0
M  END
>  <MODEL>
3

>  <REMARK>
 VINA RESULT:      -7.7      2.885      7.549
  Name = 
  2 active torsions:
  status: ('A' for Active; 'I' for Inactive)
    1  A    between atoms: C_17  and  O_35
    2  A    between atoms: C_34  and  O_35
                            x       y       z     vdW  Elec       q    Type
                         _______ _______ _______ _____ _____    ______ ____

>  <TORSDO>
F 2

$$$$
=
 OpenBabel11062420083D

 35 40  0  0  1  0  0  0  0  0999 V2000
  191.0570  176.6590  147.6500 O   0  0  0  0  0  1  0  0  0  0  0  0
  189.5870  174.1000  141.8250 C   0  0  2  0  0  3  0  0  0  0  0  0
  188.4720  176.0850  145.7520 C   0  0  0  0  0  2  0  0  0  0  0  0
  190.8460  176.4280  145.2400 C   0  0  1  0  0  3  0  0  0  0  0  0
  189.6930  174.3650  144.3160 C   0  0  0  0  0  2  0  0  0  0  0  0
  192.9060  173.6030  145.4320 O   0  0  0  0  0  0  0  0  0  0  0  0
  193.9300  173.0420  141.7170 N   0  0  2  0  0  0  0  0  0  0  0  0
  194.6600  174.1370  143.7370 C   0  0  0  0  0  0  0  0  0  0  0  0
  194.5910  172.8410  143.0080 C   0  0  0  0  0  2  0  0  0  0  0  0
  189.1560  174.9600  143.0130 C   0  0  2  0  0  3  0  0  0  0  0  0
  195.5380  175.1560  143.3310 C   0  0  0  0  0  3  0  0  0  0  0  0
  192.8590  175.5030  146.5580 C   0  0  1  0  0  3  0  0  0  0  0  0
  194.7300  176.5970  145.0540 C   0  0  0  0  0  0  0  0  0  0  0  0
  195.0730  171.1970  141.0630 O   0  0  0  0  0  0  0  0  0  0  0  0
  191.0920  174.1990  141.6100 C   0  0  0  0  0  2  0  0  0  0  0  0
  188.6490  177.5310  145.3240 C   0  0  1  0  0  3  0  0  0  0  0  0
  191.1760  172.4450  140.0290 O   0  0  0  0  0  0  0  0  0  0  0  0
  193.8430  175.5950  145.4470 C   0  0  0  0  0  0  0  0  0  0  0  0
  191.6440  172.9220  141.0520 C   0  0  0  0  0  0  0  0  0  0  0  0
  192.7630  172.2260  141.7700 C   0  0  1  0  0  3  0  0  0  0  0  0
  191.7760  176.5820  146.4540 C   0  0  2  0  0  3  0  0  0  0  0  0
  192.2960  174.1910  146.4890 O   0  0  0  0  0  0  0  0  0  0  0  0
  193.8240  174.4140  144.8170 C   0  0  0  0  0  0  0  0  0  0  0  0
  189.7800  175.3660  145.4750 C   0  0  2  0  0  3  0  0  0  0  0  0
  193.7930  170.4930  141.2760 C   0  0  0  0  0  0  0  0  0  0  0  0
  190.1170  177.7350  144.9890 C   0  0  0  0  0  2  0  0  0  0  0  0
  193.8520  171.8220  140.8210 C   0  0  2  0  0  0  0  0  0  0  0  0
  188.8870  174.5560  140.5520 C   0  0  0  0  0  1  0  0  0  0  0  0
  193.1570  169.4530  141.6020 O   0  0  0  0  0  0  0  0  0  0  0  0
  194.7780  177.8460  145.7340 N   0  0  0  0  0  1  0  0  0  0  0  0
  195.5580  176.3540  143.9960 N   0  0  0  0  0  0  0  0  0  0  0  0
  187.7600  175.0030  143.0800 O   0  0  0  0  0  1  0  0  0  0  0  0
  187.8790  177.7800  144.1870 O   0  0  0  0  0  0  0  0  0  0  0  0
  185.9680  179.1900  144.2390 C   0  0  0  0  0  1  0  0  0  0  0  0
  186.5620  177.8590  144.6490 C   0  0  0  0  0  2  0  0  0  0  0  0
  2 28  1  6  0  0  0
  2 10  1  0  0  0  0
  4 26  1  1  0  0  0
  4 24  1  0  0  0  0
  4 21  1  0  0  0  0
  6 22  1  0  0  0  0
  7 20  1  0  0  0  0
  7  9  1  1  0  0  0
  8 23  1  0  0  0  0
  9  8  1  0  0  0  0
 10 32  1  1  0  0  0
 10  5  1  0  0  0  0
 11  8  2  0  0  0  0
 11 31  1  0  0  0  0
 12 18  1  6  0  0  0
 13 18  1  0  0  0  0
 13 30  1  0  0  0  0
 14 25  1  0  0  0  0
 15  2  1  0  0  0  0
 16 33  1  6  0  0  0
 16  3  1  0  0  0  0
 17 19  2  0  0  0  0
 19 15  1  0  0  0  0
 20 19  1  6  0  0  0
 21 12  1  0  0  0  0
 21  1  1  1  0  0  0
 22 12  1  0  0  0  0
 23  6  1  0  0  0  0
 23 18  2  0  0  0  0
 24  5  1  6  0  0  0
 24  3  1  0  0  0  0
 25 29  2  0  0  0  0
 26 16  1  0  0  0  0
 27 14  1  6  0  0  0
 27 25  1  0  0  0  0
 27  7  1  0  0  0  0
 27 20  1  0  0  0  0
 31 13  2  0  0  0  0
 33 35  1  0  0  0  0
 34 35  1  0  0  0  0
M  END
>  <MODEL>
4

>  <REMARK>
 VINA RESULT:      -7.6      2.412      5.332
  Name = 
  2 active torsions:
  status: ('A' for Active; 'I' for Inactive)
    1  A    between atoms: C_17  and  O_35
    2  A    between atoms: C_34  and  O_35
                            x       y       z     vdW  Elec       q    Type
                         _______ _______ _______ _____ _____    ______ ____

>  <TORSDO>
F 2

$$$$
=
 OpenBabel11062420083D

 35 40  0  0  1  0  0  0  0  0999 V2000
  191.9930  169.8630  142.8510 O   0  0  0  0  0  1  0  0  0  0  0  0
  192.2030  176.0360  144.9690 C   0  0  2  0  0  3  0  0  0  0  0  0
  193.7030  171.7530  144.8800 C   0  0  0  0  0  2  0  0  0  0  0  0
  192.3850  172.2610  142.8750 C   0  0  1  0  0  3  0  0  0  0  0  0
  191.8950  173.5480  145.0070 C   0  0  0  0  0  2  0  0  0  0  0  0
  188.9450  172.7160  143.3470 O   0  0  0  0  0  0  0  0  0  0  0  0
  188.4700  176.4980  142.5530 N   0  0  2  0  0  0  0  0  0  0  0  0
  188.3900  174.3230  141.5180 C   0  0  0  0  0  0  0  0  0  0  0  0
  187.6520  175.2980  142.3670 C   0  0  0  0  0  2  0  0  0  0  0  0
  192.9040  174.6850  144.8320 C   0  0  2  0  0  3  0  0  0  0  0  0
  188.5640  174.5410  140.1410 C   0  0  0  0  0  3  0  0  0  0  0  0
  190.1180  171.2250  142.2140 C   0  0  1  0  0  3  0  0  0  0  0  0
  189.8420  172.5350  139.9420 C   0  0  0  0  0  0  0  0  0  0  0  0
  186.4950  177.5520  142.9150 O   0  0  0  0  0  0  0  0  0  0  0  0
  191.2650  176.2750  143.7920 C   0  0  0  0  0  2  0  0  0  0  0  0
  194.6660  171.8830  143.7130 C   0  0  1  0  0  3  0  0  0  0  0  0
  190.2450  178.1830  144.7450 O   0  0  0  0  0  0  0  0  0  0  0  0
  189.6890  172.3250  141.3120 C   0  0  0  0  0  0  0  0  0  0  0  0
  190.0830  177.1000  144.2030 C   0  0  0  0  0  0  0  0  0  0  0  0
  188.6980  176.5750  143.9580 C   0  0  1  0  0  3  0  0  0  0  0  0
  191.6430  171.0720  142.2440 C   0  0  2  0  0  3  0  0  0  0  0  0
  189.6010  171.5420  143.5100 O   0  0  0  0  0  0  0  0  0  0  0  0
  188.9810  173.1830  142.0590 C   0  0  0  0  0  0  0  0  0  0  0  0
  192.3400  172.2130  144.3970 C   0  0  2  0  0  3  0  0  0  0  0  0
  186.8520  177.4450  144.3420 C   0  0  0  0  0  0  0  0  0  0  0  0
  193.8480  172.2170  142.4770 C   0  0  0  0  0  2  0  0  0  0  0  0
  187.8200  177.6210  143.3370 C   0  0  2  0  0  0  0  0  0  0  0  0
  193.2230  177.1660  145.0110 C   0  0  0  0  0  1  0  0  0  0  0  0
  186.5090  177.3170  145.5500 O   0  0  0  0  0  0  0  0  0  0  0  0
  190.5690  171.6170  139.1330 N   0  0  0  0  0  1  0  0  0  0  0  0
  189.2760  173.6470  139.3860 N   0  0  0  0  0  0  0  0  0  0  0  0
  193.8900  174.5650  145.8160 O   0  0  0  0  0  1  0  0  0  0  0  0
  195.5670  172.9190  143.9630 O   0  0  0  0  0  0  0  0  0  0  0  0
  196.0920  174.9940  142.9320 C   0  0  0  0  0  1  0  0  0  0  0  0
  195.7770  173.5280  142.7220 C   0  0  0  0  0  2  0  0  0  0  0  0
  2 28  1  6  0  0  0
  4 26  1  1  0  0  0
  4 24  1  0  0  0  0
  6 22  1  0  0  0  0
  7  9  1  1  0  0  0
  7 27  1  0  0  0  0
  7 20  1  0  0  0  0
  8 23  1  0  0  0  0
  8  9  1  0  0  0  0
 10  2  1  0  0  0  0
 10  5  1  0  0  0  0
 10 32  1  1  0  0  0
 11  8  2  0  0  0  0
 12 18  1  6  0  0  0
 12 21  1  0  0  0  0
 12 22  1  0  0  0  0
 13 18  1  0  0  0  0
 14 25  1  0  0  0  0
 15 19  1  0  0  0  0
 15  2  1  0  0  0  0
 16 33  1  1  0  0  0
 16  3  1  0  0  0  0
 18 23  2  0  0  0  0
 19 17  2  0  0  0  0
 20 19  1  6  0  0  0
 21  1  1  1  0  0  0
 21  4  1  0  0  0  0
 23  6  1  0  0  0  0
 24  3  1  1  0  0  0
 24  5  1  0  0  0  0
 25 29  2  0  0  0  0
 26 16  1  0  0  0  0
 27 14  1  6  0  0  0
 27 20  1  0  0  0  0
 27 25  1  0  0  0  0
 30 13  1  0  0  0  0
 31 13  2  0  0  0  0
 31 11  1  0  0  0  0
 35 34  1  0  0  0  0
 35 33  1  0  0  0  0
M  END
>  <MODEL>
5

>  <REMARK>
 VINA RESULT:      -7.4      2.263      6.704
  Name = 
  2 active torsions:
  status: ('A' for Active; 'I' for Inactive)
    1  A    between atoms: C_17  and  O_35
    2  A    between atoms: C_34  and  O_35
                            x       y       z     vdW  Elec       q    Type
                         _______ _______ _______ _____ _____    ______ ____

>  <TORSDO>
F 2

$$$$
=
 OpenBabel11062420083D

 35 40  0  0  1  0  0  0  0  0999 V2000
  190.1070  177.3550  146.3510 O   0  0  0  0  0  1  0  0  0  0  0  0
  189.6970  173.5930  141.0300 C   0  0  2  0  0  3  0  0  0  0  0  0
  188.0220  176.6340  143.9540 C   0  0  0  0  0  2  0  0  0  0  0  0
  190.4700  176.5440  144.0890 C   0  0  1  0  0  3  0  0  0  0  0  0
  189.2200  174.4700  143.3300 C   0  0  0  0  0  2  0  0  0  0  0  0
  191.8470  173.6320  145.4630 O   0  0  0  0  0  0  0  0  0  0  0  0
  193.6500  172.0220  142.4100 N   0  0  2  0  0  0  0  0  0  0  0  0
  194.0400  173.4990  144.2740 C   0  0  0  0  0  0  0  0  0  0  0  0
  193.9160  172.0780  143.8490 C   0  0  0  0  0  2  0  0  0  0  0  0
  189.1500  174.7740  141.8320 C   0  0  2  0  0  3  0  0  0  0  0  0
  195.1670  174.2670  143.9340 C   0  0  0  0  0  3  0  0  0  0  0  0
  191.8760  175.7490  146.0980 C   0  0  1  0  0  3  0  0  0  0  0  0
  194.2360  176.1860  145.0040 C   0  0  0  0  0  0  0  0  0  0  0  0
  194.5540  169.9460  142.5200 O   0  0  0  0  0  0  0  0  0  0  0  0
  191.1990  173.4500  141.2440 C   0  0  0  0  0  2  0  0  0  0  0  0
  188.5690  177.8910  143.2990 C   0  0  1  0  0  3  0  0  0  0  0  0
  191.3480  171.3530  140.1630 O   0  0  0  0  0  0  0  0  0  0  0  0
  193.1070  175.4340  145.3260 C   0  0  0  0  0  0  0  0  0  0  0  0
  191.6240  172.0150  141.1520 C   0  0  0  0  0  0  0  0  0  0  0  0
  192.3760  171.3950  142.2940 C   0  0  1  0  0  3  0  0  0  0  0  0
  191.0760  176.8890  145.4590 C   0  0  2  0  0  3  0  0  0  0  0  0
  191.1120  174.5410  146.1490 O   0  0  0  0  0  0  0  0  0  0  0  0
  193.0260  174.1420  144.9820 C   0  0  0  0  0  0  0  0  0  0  0  0
  189.2000  175.7150  144.2250 C   0  0  2  0  0  3  0  0  0  0  0  0
  193.1540  169.4810  142.4980 C   0  0  0  0  0  0  0  0  0  0  0  0
  190.0850  177.8230  143.3680 C   0  0  0  0  0  2  0  0  0  0  0  0
  193.5730  170.6320  141.8090 C   0  0  2  0  0  0  0  0  0  0  0  0
  189.4380  173.7910  139.5430 C   0  0  0  0  0  1  0  0  0  0  0  0
  192.2730  168.6440  142.8390 O   0  0  0  0  0  0  0  0  0  0  0  0
  194.3440  177.5520  145.3880 N   0  0  0  0  0  1  0  0  0  0  0  0
  195.2430  175.5820  144.3070 N   0  0  0  0  0  0  0  0  0  0  0  0
  187.8170  175.0010  141.4820 O   0  0  0  0  0  1  0  0  0  0  0  0
  188.1700  177.9340  141.9620 O   0  0  0  0  0  0  0  0  0  0  0  0
  186.1710  177.9160  140.6800 C   0  0  0  0  0  1  0  0  0  0  0  0
  186.8200  178.2910  141.9960 C   0  0  0  0  0  2  0  0  0  0  0  0
  2 28  1  6  0  0  0
  2 15  1  0  0  0  0
  2 10  1  0  0  0  0
  3 24  1  0  0  0  0
  4 26  1  1  0  0  0
  4 24  1  0  0  0  0
  4 21  1  0  0  0  0
  6 22  1  0  0  0  0
  7  9  1  1  0  0  0
  8 23  1  0  0  0  0
  9  8  1  0  0  0  0
 10 32  1  6  0  0  0
 10  5  1  0  0  0  0
 11  8  2  0  0  0  0
 11 31  1  0  0  0  0
 12 18  1  6  0  0  0
 12 22  1  0  0  0  0
 13 18  1  0  0  0  0
 13 30  1  0  0  0  0
 16 33  1  6  0  0  0
 16 26  1  0  0  0  0
 16  3  1  0  0  0  0
 17 19  2  0  0  0  0
 19 15  1  0  0  0  0
 20 19  1  6  0  0  0
 20  7  1  0  0  0  0
 21 12  1  0  0  0  0
 21  1  1  1  0  0  0
 23 18  2  0  0  0  0
 23  6  1  0  0  0  0
 24  5  1  6  0  0  0
 25 14  1  0  0  0  0
 25 29  2  0  0  0  0
 27 20  1  0  0  0  0
 27  7  1  0  0  0  0
 27 25  1  1  0  0  0
 27 14  1  0  0  0  0
 31 13  2  0  0  0  0
 33 35  1  0  0  0  0
 34 35  1  0  0  0  0
M  END
>  <MODEL>
6

>  <REMARK>
 VINA RESULT:      -7.2      2.616      5.513
  Name = 
  2 active torsions:
  status: ('A' for Active; 'I' for Inactive)
    1  A    between atoms: C_17  and  O_35
    2  A    between atoms: C_34  and  O_35
                            x       y       z     vdW  Elec       q    Type
                         _______ _______ _______ _____ _____    ______ ____

>  <TORSDO>
F 2

$$$$
=
 OpenBabel11062420083D

 35 40  0  0  1  0  0  0  0  0999 V2000
  191.1140  175.7050  148.0170 O   0  0  0  0  0  1  0  0  0  0  0  0
  187.8050  175.4900  142.3920 C   0  0  2  0  0  3  0  0  0  0  0  0
  188.0790  176.0560  146.8880 C   0  0  0  0  0  2  0  0  0  0  0  0
  190.2730  176.3530  145.8310 C   0  0  1  0  0  3  0  0  0  0  0  0
  188.5720  174.8530  144.6930 C   0  0  0  0  0  2  0  0  0  0  0  0
  191.7690  173.4750  144.5130 O   0  0  0  0  0  0  0  0  0  0  0  0
  191.7190  174.1690  140.6820 N   0  0  2  0  0  0  0  0  0  0  0  0
  193.1140  174.4190  142.6320 C   0  0  0  0  0  0  0  0  0  0  0  0
  192.6330  173.4720  141.5890 C   0  0  0  0  0  2  0  0  0  0  0  0
  187.8450  175.9110  143.8610 C   0  0  2  0  0  3  0  0  0  0  0  0
  194.0330  175.4360  142.3250 C   0  0  0  0  0  3  0  0  0  0  0  0
  192.3490  174.8560  146.1380 C   0  0  1  0  0  3  0  0  0  0  0  0
  193.9530  176.2440  144.5700 C   0  0  0  0  0  0  0  0  0  0  0  0
  192.3100  172.5800  139.1760 O   0  0  0  0  0  0  0  0  0  0  0  0
  189.2020  175.5280  141.7850 C   0  0  0  0  0  2  0  0  0  0  0  0
  188.4030  177.5400  146.9010 C   0  0  1  0  0  3  0  0  0  0  0  0
  188.5710  174.4410  139.7840 O   0  0  0  0  0  0  0  0  0  0  0  0
  193.0250  175.2480  144.8730 C   0  0  0  0  0  0  0  0  0  0  0  0
  189.3560  174.4860  140.7180 C   0  0  0  0  0  0  0  0  0  0  0  0
  190.4740  173.4900  140.8180 C   0  0  1  0  0  3  0  0  0  0  0  0
  191.4870  175.9910  146.7010 C   0  0  2  0  0  3  0  0  0  0  0  0
  191.5580  173.7040  145.8310 O   0  0  0  0  0  0  0  0  0  0  0  0
  192.6360  174.3690  143.9400 C   0  0  0  0  0  0  0  0  0  0  0  0
  189.1250  175.3720  146.0260 C   0  0  2  0  0  3  0  0  0  0  0  0
  191.0190  171.9590  139.5260 C   0  0  0  0  0  0  0  0  0  0  0  0
  189.7530  177.7220  146.2290 C   0  0  0  0  0  2  0  0  0  0  0  0
  191.2020  173.3530  139.5140 C   0  0  2  0  0  0  0  0  0  0  0  0
  186.9040  176.4210  141.5930 C   0  0  0  0  0  1  0  0  0  0  0  0
  190.3060  170.9290  139.6830 O   0  0  0  0  0  0  0  0  0  0  0  0
  194.3940  177.1650  145.5600 N   0  0  0  0  0  1  0  0  0  0  0  0
  194.4340  176.3180  143.2940 N   0  0  0  0  0  0  0  0  0  0  0  0
  186.5420  176.0470  144.3470 O   0  0  0  0  0  1  0  0  0  0  0  0
  187.4320  178.2380  146.1810 O   0  0  0  0  0  0  0  0  0  0  0  0
  185.0820  178.5790  146.2500 C   0  0  0  0  0  1  0  0  0  0  0  0
  186.3470  178.3590  147.0530 C   0  0  0  0  0  2  0  0  0  0  0  0
  2 28  1  6  0  0  0
  2 10  1  0  0  0  0
  3 16  1  0  0  0  0
  4 24  1  0  0  0  0
  4 26  1  1  0  0  0
  4 21  1  0  0  0  0
  6 22  1  0  0  0  0
  7 20  1  0  0  0  0
  7  9  1  1  0  0  0
  8 23  1  0  0  0  0
  9  8  1  0  0  0  0
 10 32  1  1  0  0  0
 10  5  1  0  0  0  0
 11  8  2  0  0  0  0
 11 31  1  0  0  0  0
 12 18  1  6  0  0  0
 12 21  1  0  0  0  0
 13 18  1  0  0  0  0
 13 30  1  0  0  0  0
 14 25  1  0  0  0  0
 15  2  1  0  0  0  0
 16 33  1  6  0  0  0
 17 19  2  0  0  0  0
 19 15  1  0  0  0  0
 20 19  1  6  0  0  0
 21  1  1  1  0  0  0
 22 12  1  0  0  0  0
 23  6  1  0  0  0  0
 23 18  2  0  0  0  0
 24  5  1  6  0  0  0
 24  3  1  0  0  0  0
 25 29  2  0  0  0  0
 26 16  1  0  0  0  0
 27 14  1  6  0  0  0
 27 25  1  0  0  0  0
 27  7  1  0  0  0  0
 27 20  1  0  0  0  0
 31 13  2  0  0  0  0
 33 35  1  0  0  0  0
 34 35  1  0  0  0  0
M  END
>  <MODEL>
7

>  <REMARK>
 VINA RESULT:      -7.1      2.310      5.193
  Name = 
  2 active torsions:
  status: ('A' for Active; 'I' for Inactive)
    1  A    between atoms: C_17  and  O_35
    2  A    between atoms: C_34  and  O_35
                            x       y       z     vdW  Elec       q    Type
                         _______ _______ _______ _____ _____    ______ ____

>  <TORSDO>
F 2

$$$$
=
 OpenBabel11062420083D

 35 40  0  0  1  0  0  0  0  0999 V2000
  187.7220  172.6660  141.0290 O   0  0  0  0  0  1  0  0  0  0  0  0
  194.2100  173.3970  140.9580 C   0  0  2  0  0  3  0  0  0  0  0  0
  190.3820  171.2650  139.7740 C   0  0  0  0  0  2  0  0  0  0  0  0
  189.9180  173.5620  140.4980 C   0  0  1  0  0  3  0  0  0  0  0  0
  191.9640  172.3870  141.4300 C   0  0  0  0  0  2  0  0  0  0  0  0
  190.3540  174.2380  143.9060 O   0  0  0  0  0  0  0  0  0  0  0  0
  193.4050  176.6580  143.9100 N   0  0  2  0  0  0  0  0  0  0  0  0
  190.9950  176.6520  143.8660 C   0  0  0  0  0  0  0  0  0  0  0  0
  192.2000  176.5210  144.7300 C   0  0  0  0  0  2  0  0  0  0  0  0
  192.9680  172.7600  140.3370 C   0  0  2  0  0  3  0  0  0  0  0  0
  190.6120  177.8940  143.3320 C   0  0  0  0  0  3  0  0  0  0  0  0
  188.5840  174.2830  142.5840 C   0  0  1  0  0  3  0  0  0  0  0  0
  188.7820  176.8820  142.1810 C   0  0  0  0  0  0  0  0  0  0  0  0
  194.4090  177.3050  145.8370 O   0  0  0  0  0  0  0  0  0  0  0  0
  193.8750  174.7630  141.5460 C   0  0  0  0  0  2  0  0  0  0  0  0
  190.0500  172.0830  138.5380 C   0  0  1  0  0  3  0  0  0  0  0  0
  195.9520  175.0130  142.6460 O   0  0  0  0  0  0  0  0  0  0  0  0
  189.1700  175.6450  142.6940 C   0  0  0  0  0  0  0  0  0  0  0  0
  194.7350  175.0650  142.7360 C   0  0  0  0  0  0  0  0  0  0  0  0
  194.0860  175.4140  144.0440 C   0  0  1  0  0  3  0  0  0  0  0  0
  188.5370  173.7960  141.1310 C   0  0  2  0  0  3  0  0  0  0  0  0
  189.3970  173.4280  143.3930 O   0  0  0  0  0  0  0  0  0  0  0  0
  190.2270  175.5450  143.5110 C   0  0  0  0  0  0  0  0  0  0  0  0
  190.5210  172.2340  140.9340 C   0  0  2  0  0  3  0  0  0  0  0  0
  194.9400  175.9280  145.8640 C   0  0  0  0  0  0  0  0  0  0  0  0
  189.7820  173.5090  138.9880 C   0  0  0  0  0  2  0  0  0  0  0  0
  194.7200  176.6240  144.6630 C   0  0  2  0  0  0  0  0  0  0  0  0
  195.3000  173.5770  139.9100 C   0  0  0  0  0  1  0  0  0  0  0  0
  195.3240  174.9160  146.5130 O   0  0  0  0  0  0  0  0  0  0  0  0
  187.6450  177.0040  141.3340 N   0  0  0  0  0  1  0  0  0  0  0  0
  189.5190  177.9840  142.5110 N   0  0  0  0  0  0  0  0  0  0  0  0
  193.3300  171.6000  139.6460 O   0  0  0  0  0  1  0  0  0  0  0  0
  191.1390  172.0730  137.6640 O   0  0  0  0  0  0  0  0  0  0  0  0
  189.6910  171.1660  136.0130 C   0  0  0  0  0  1  0  0  0  0  0  0
  190.9390  170.9570  136.8460 C   0  0  0  0  0  2  0  0  0  0  0  0
  2 28  1  6  0  0  0
  2 15  1  0  0  0  0
  4 26  1  6  0  0  0
  4 24  1  0  0  0  0
  4 21  1  0  0  0  0
  7 20  1  0  0  0  0
  7 27  1  0  0  0  0
  7  9  1  1  0  0  0
  8  9  1  0  0  0  0
 10 32  1  1  0  0  0
 10  2  1  0  0  0  0
 10  5  1  0  0  0  0
 11  8  2  0  0  0  0
 12 18  1  6  0  0  0
 12 22  1  0  0  0  0
 13 31  2  0  0  0  0
 13 18  1  0  0  0  0
 14 25  1  0  0  0  0
 15 19  1  0  0  0  0
 16 33  1  6  0  0  0
 16 26  1  0  0  0  0
 16  3  1  0  0  0  0
 17 19  2  0  0  0  0
 18 23  2  0  0  0  0
 20 19  1  6  0  0  0
 20 27  1  0  0  0  0
 21  1  1  1  0  0  0
 21 12  1  0  0  0  0
 22  6  1  0  0  0  0
 23  8  1  0  0  0  0
 23  6  1  0  0  0  0
 24  3  1  6  0  0  0
 24  5  1  0  0  0  0
 25 29  2  0  0  0  0
 27 14  1  6  0  0  0
 27 25  1  0  0  0  0
 30 13  1  0  0  0  0
 31 11  1  0  0  0  0
 34 35  1  0  0  0  0
 35 33  1  0  0  0  0
M  END
>  <MODEL>
8

>  <REMARK>
 VINA RESULT:      -7.0      3.239      6.585
  Name = 
  2 active torsions:
  status: ('A' for Active; 'I' for Inactive)
    1  A    between atoms: C_17  and  O_35
    2  A    between atoms: C_34  and  O_35
                            x       y       z     vdW  Elec       q    Type
                         _______ _______ _______ _____ _____    ______ ____

>  <TORSDO>
F 2

$$$$
=
 OpenBabel11062420083D

 35 40  0  0  1  0  0  0  0  0999 V2000
  190.8850  175.9650  146.0270 O   0  0  0  0  0  1  0  0  0  0  0  0
  195.3350  175.0020  141.3470 C   0  0  2  0  0  3  0  0  0  0  0  0
  193.9530  176.7740  145.2910 C   0  0  0  0  0  2  0  0  0  0  0  0
  192.5570  174.8610  144.6530 C   0  0  1  0  0  3  0  0  0  0  0  0
  193.6940  176.1970  142.8200 C   0  0  0  0  0  2  0  0  0  0  0  0
  190.4490  175.3220  141.8950 O   0  0  0  0  0  0  0  0  0  0  0  0
  191.9840  172.9230  139.2400 N   0  0  2  0  0  0  0  0  0  0  0  0
  190.3080  173.0060  140.9710 C   0  0  0  0  0  0  0  0  0  0  0  0
  190.6260  173.3670  139.5620 C   0  0  0  0  0  2  0  0  0  0  0  0
  195.0280  175.4480  142.7760 C   0  0  2  0  0  3  0  0  0  0  0  0
  190.0700  171.6730  141.3470 C   0  0  0  0  0  3  0  0  0  0  0  0
  190.0560  174.9140  144.0310 C   0  0  1  0  0  3  0  0  0  0  0  0
  189.7920  172.3210  143.6270 C   0  0  0  0  0  0  0  0  0  0  0  0
  191.2600  172.9050  137.0920 O   0  0  0  0  0  0  0  0  0  0  0  0
  194.3600  173.9190  140.9020 C   0  0  0  0  0  2  0  0  0  0  0  0
  194.3220  175.6100  146.1940 C   0  0  1  0  0  3  0  0  0  0  0  0
  195.0410  173.9640  138.6400 O   0  0  0  0  0  0  0  0  0  0  0  0
  190.0480  173.6430  143.2620 C   0  0  0  0  0  0  0  0  0  0  0  0
  194.1060  173.9910  139.4270 C   0  0  0  0  0  0  0  0  0  0  0  0
  192.6970  174.1150  138.9260 C   0  0  1  0  0  3  0  0  0  0  0  0
  191.1030  174.9000  145.1500 C   0  0  2  0  0  3  0  0  0  0  0  0
  190.3180  175.9550  143.0860 O   0  0  0  0  0  0  0  0  0  0  0  0
  190.2830  173.9640  141.9830 C   0  0  0  0  0  0  0  0  0  0  0  0
  193.0390  176.2340  144.2060 C   0  0  2  0  0  3  0  0  0  0  0  0
  191.9710  174.1930  136.9830 C   0  0  0  0  0  0  0  0  0  0  0  0
  193.4690  174.4210  145.7840 C   0  0  0  0  0  2  0  0  0  0  0  0
  192.4280  173.1510  137.8090 C   0  0  2  0  0  0  0  0  0  0  0  0
  196.7490  174.4480  141.2510 C   0  0  0  0  0  1  0  0  0  0  0  0
  192.0760  175.3470  136.4820 O   0  0  0  0  0  0  0  0  0  0  0  0
  189.5140  171.9720  144.9780 N   0  0  0  0  0  1  0  0  0  0  0  0
  189.8140  171.3610  142.6560 N   0  0  0  0  0  0  0  0  0  0  0  0
  196.0370  176.3030  143.2280 O   0  0  0  0  0  1  0  0  0  0  0  0
  195.6700  175.2910  146.0200 O   0  0  0  0  0  0  0  0  0  0  0  0
  197.1300  173.4490  145.6840 C   0  0  0  0  0  1  0  0  0  0  0  0
  195.7090  173.8950  145.9550 C   0  0  0  0  0  2  0  0  0  0  0  0
  2 28  1  1  0  0  0
  2 10  1  0  0  0  0
  3 16  1  0  0  0  0
  4 21  1  0  0  0  0
  4 26  1  1  0  0  0
  6 23  1  0  0  0  0
  6 22  1  0  0  0  0
  7  9  1  6  0  0  0
  8 11  2  0  0  0  0
  8 23  1  0  0  0  0
  9  8  1  0  0  0  0
 10  5  1  0  0  0  0
 10 32  1  6  0  0  0
 11 31  1  0  0  0  0
 12 22  1  6  0  0  0
 12 21  1  0  0  0  0
 13 30  1  0  0  0  0
 14 27  1  0  0  0  0
 15  2  1  0  0  0  0
 16 33  1  6  0  0  0
 17 19  2  0  0  0  0
 18 13  1  0  0  0  0
 18 12  1  0  0  0  0
 19 15  1  0  0  0  0
 20  7  1  0  0  0  0
 20 19  1  1  0  0  0
 21  1  1  6  0  0  0
 23 18  2  0  0  0  0
 24  5  1  6  0  0  0
 24  4  1  0  0  0  0
 24  3  1  0  0  0  0
 25 14  1  0  0  0  0
 26 16  1  0  0  0  0
 27 25  1  1  0  0  0
 27 20  1  0  0  0  0
 27  7  1  0  0  0  0
 29 25  2  0  0  0  0
 31 13  2  0  0  0  0
 34 35  1  0  0  0  0
 35 33  1  0  0  0  0
M  END
>  <MODEL>
9

>  <REMARK>
 VINA RESULT:      -7.0      3.090      6.335
  Name = 
  2 active torsions:
  status: ('A' for Active; 'I' for Inactive)
    1  A    between atoms: C_17  and  O_35
    2  A    between atoms: C_34  and  O_35
                            x       y       z     vdW  Elec       q    Type
                         _______ _______ _______ _____ _____    ______ ____

>  <TORSDO>
F 2

$$$$
