=
 OpenBabel11062418323D

 54 60  0  0  1  0  0  0  0  0999 V2000
  191.3950  171.7240  139.2420 C   0  0  1  0  0  3  0  0  0  0  0  0
  189.1830  175.0240  142.4370 C   0  0  1  0  0  3  0  0  0  0  0  0
  192.0760  174.7190  147.0940 O   0  0  0  0  0  1  0  0  0  0  0  0
  190.7450  174.9200  146.7270 C   0  0  2  0  0  3  0  0  0  0  0  0
  187.2420  176.2330  141.7440 C   0  0  2  0  0  3  0  0  0  0  0  0
  187.6900  176.8190  143.0830 C   0  0  2  0  0  3  0  0  0  0  0  0
  189.0450  172.5200  139.1360 C   0  0  0  0  0  2  0  0  0  0  0  0
  190.7070  172.9560  144.7020 O   0  0  0  0  0  0  0  0  0  0  0  0
  191.0200  174.0910  144.3740 C   0  0  0  0  0  0  0  0  0  0  0  0
  190.6540  175.2660  145.2320 C   0  0  1  0  0  3  0  0  0  0  0  0
  188.1260  174.2390  140.4150 C   0  0  0  0  0  2  0  0  0  0  0  0
  191.6430  172.7600  140.3650 C   0  0  1  0  0  3  0  0  0  0  0  0
  188.7930  176.4330  147.0110 C   0  0  0  0  0  2  0  0  0  0  0  0
  190.3280  173.3250  140.9870 C   0  0  1  0  0  3  0  0  0  0  0  0
  188.4340  175.4750  141.2270 C   0  0  2  0  0  3  0  0  0  0  0  0
  190.5580  174.5550  141.9320 C   0  0  2  0  0  3  0  0  0  0  0  0
  190.2470  172.1130  138.3020 C   0  0  2  0  0  3  0  0  0  0  0  0
  189.0800  176.2010  143.4040 C   0  0  1  0  0  3  0  0  0  0  0  0
  190.1410  176.0230  147.5920 C   0  0  0  0  0  2  0  0  0  0  0  0
  189.2500  175.7990  144.8910 C   0  0  2  0  0  3  0  0  0  0  0  0
  191.6240  174.3400  143.0220 C   0  0  1  0  0  3  0  0  0  0  0  0
  188.9790  176.9170  145.7040 O   0  0  0  0  0  0  0  0  0  0  0  0
  189.3900  173.7060  139.8990 N   0  0  1  0  0  0  0  0  0  0  0  0
  192.7700  170.8700  143.5510 C   0  0  0  0  0  2  0  0  0  0  0  0
  194.7350  171.8590  142.4320 C   0  0  0  0  0  3  0  0  0  0  0  0
  192.0550  170.9390  142.1980 C   0  0  0  0  0  2  0  0  0  0  0  0
  193.8200  172.4920  141.4630 C   0  0  0  0  0  3  0  0  0  0  0  0
  194.2540  171.0620  143.3910 C   0  0  0  0  0  3  0  0  0  0  0  0
  192.5370  172.1200  141.3890 C   0  0  0  0  0  0  0  0  0  0  0  0
  189.2880  169.9270  138.0390 F   0  0  0  0  0  0  0  0  0  0  0  0
  189.8630  170.9780  137.3430 C   0  0  0  0  0  0  0  0  0  0  0  0
  188.9560  171.4450  136.4080 F   0  0  0  0  0  0  0  0  0  0  0  0
  190.9840  170.5210  136.6720 F   0  0  0  0  0  0  0  0  0  0  0  0
  186.8440  177.3170  140.7860 C   0  0  0  0  0  0  0  0  0  0  0  0
  187.3900  177.4070  139.6960 O   0  0  0  0  0  0  0  0  0  0  0  0
  184.5610  178.2740  140.3730 C   0  0  1  0  0  3  0  0  0  0  0  0
  184.5630  177.2690  139.4190 F   0  0  0  0  0  0  0  0  0  0  0  0
  184.6470  177.6930  141.6500 O   0  0  0  0  0  0  0  0  0  0  0  0
  185.8130  178.3340  141.1840 C   0  0  1  0  0  3  0  0  0  0  0  0
  192.8530  172.7920  137.9510 C   0  0  0  0  0  1  0  0  0  0  0  0
  192.5700  171.5410  138.5060 O   0  0  0  0  0  0  0  0  0  0  0  0
  192.6440  175.4880  143.0480 C   0  0  2  0  0  3  0  0  0  0  0  0
  193.1260  175.8430  141.6480 C   0  0  0  0  0  1  0  0  0  0  0  0
  193.7340  177.0710  145.1540 O   0  0  0  0  0  0  0  0  0  0  0  0
  194.3010  175.9750  144.8930 C   0  0  0  0  0  0  0  0  0  0  0  0
  193.7910  175.1220  143.8690 N   0  0  0  0  0  2  0  0  0  0  0  0
  195.6580  174.0480  145.5940 C   0  0  0  0  0  1  0  0  0  0  0  0
  195.4920  175.5520  145.6760 C   0  0  0  0  0  2  0  0  0  0  0  0
  186.6040  176.5170  144.1170 C   0  0  0  0  0  2  0  0  0  0  0  0
  186.5910  178.8780  144.3650 O   0  0  0  0  0  0  0  0  0  0  0  0
  186.1080  177.7790  144.7450 C   0  0  0  0  0  0  0  0  0  0  0  0
  183.9690  178.7540  145.7790 C   0  0  0  0  0  1  0  0  0  0  0  0
  185.0960  176.8570  146.7180 N   0  0  0  0  0  2  0  0  0  0  0  0
  185.0700  177.7500  145.7850 C   0  0  0  0  0  0  0  0  0  0  0  0
  1 41  1  6  0  0  0
  1 12  1  0  0  0  0
  2 18  1  0  0  0  0
  4  3  1  0  0  0  0
  4 19  1  0  0  0  0
  5  6  1  0  0  0  0
  6 18  1  0  0  0  0
  6 49  1  0  0  0  0
  7 23  1  0  0  0  0
  9  8  2  0  0  0  0
  9 10  1  0  0  0  0
 10  4  1  0  0  0  0
 11 15  1  0  0  0  0
 12 14  1  0  0  0  0
 12 29  1  0  0  0  0
 13 19  1  0  0  0  0
 14 16  1  0  0  0  0
 15  5  1  0  0  0  0
 15  2  1  0  0  0  0
 16  2  1  0  0  0  0
 16 21  1  0  0  0  0
 17  7  1  0  0  0  0
 17  1  1  0  0  0  0
 18 20  1  0  0  0  0
 20 10  1  0  0  0  0
 20 22  1  0  0  0  0
 21 42  1  0  0  0  0
 21  9  1  0  0  0  0
 22 13  1  0  0  0  0
 23 11  1  0  0  0  0
 23 14  1  0  0  0  0
 25 28  2  0  0  0  0
 26 24  1  0  0  0  0
 27 25  1  0  0  0  0
 28 24  1  0  0  0  0
 29 27  2  0  0  0  0
 29 26  1  0  0  0  0
 31 30  1  0  0  0  0
 31 17  1  0  0  0  0
 32 31  1  0  0  0  0
 33 31  1  0  0  0  0
 34 39  1  0  0  0  0
 34  5  1  0  0  0  0
 35 34  2  0  0  0  0
 36 39  1  0  0  0  0
 36 38  1  0  0  0  0
 37 36  1  0  0  0  0
 39 38  1  0  0  0  0
 40 41  1  0  0  0  0
 42 46  1  0  0  0  0
 43 42  1  0  0  0  0
 45 44  2  0  0  0  0
 45 48  1  0  0  0  0
 46 45  1  0  0  0  0
 47 48  1  0  0  0  0
 49 51  1  0  0  0  0
 50 51  2  0  0  0  0
 51 54  1  0  0  0  0
 52 54  1  0  0  0  0
 54 53  2  0  0  0  0
M  END
>  <MODEL>
1

>  <REMARK>
 VINA RESULT:      -7.7      0.000      0.000
  Name = 
  11 active torsions:
  status: ('A' for Active; 'I' for Inactive)
    1  A    between atoms: C_2  and  O_32
    2  A    between atoms: C_5  and  C_12
    3  A    between atoms: C_5  and  C_53
    4  A    between atoms: C_11  and  N_39
    5  A    between atoms: C_11  and  C_49
    6  A    between atoms: C_13  and  C_18
    7  A    between atoms: C_18  and  C_37
    8  A    between atoms: C_21  and  C_44
    9  A    between atoms: C_29  and  C_38
   10  A    between atoms: C_34  and  C_40
   11  A    between atoms: C_37  and  C_45
                            x       y       z     vdW  Elec       q    Type
                         _______ _______ _______ _____ _____    ______ ____

>  <TORSDO>
F 11

$$$$
=
 OpenBabel11062418323D

 54 60  0  0  1  0  0  0  0  0999 V2000
  189.6880  175.9990  145.2720 C   0  0  1  0  0  3  0  0  0  0  0  0
  191.7940  174.2790  140.9600 C   0  0  1  0  0  3  0  0  0  0  0  0
  197.2130  174.8400  141.6500 O   0  0  0  0  0  1  0  0  0  0  0  0
  196.2990  174.9380  140.5990 C   0  0  2  0  0  3  0  0  0  0  0  0
  190.4000  173.5300  139.1690 C   0  0  2  0  0  3  0  0  0  0  0  0
  191.8410  173.1700  138.8060 C   0  0  2  0  0  3  0  0  0  0  0  0
  188.5930  175.8850  143.0460 C   0  0  0  0  0  2  0  0  0  0  0  0
  194.3200  176.3090  142.0690 O   0  0  0  0  0  0  0  0  0  0  0  0
  194.2680  175.0880  142.0660 C   0  0  0  0  0  0  0  0  0  0  0  0
  194.9620  174.2930  140.9990 C   0  0  1  0  0  3  0  0  0  0  0  0
  189.4550  174.8350  141.1520 C   0  0  0  0  0  2  0  0  0  0  0  0
  190.8850  175.2250  144.6680 C   0  0  1  0  0  3  0  0  0  0  0  0
  195.7910  174.1350  138.3020 C   0  0  0  0  0  2  0  0  0  0  0  0
  190.8860  175.2080  143.1070 C   0  0  1  0  0  3  0  0  0  0  0  0
  190.4190  173.7860  140.6520 C   0  0  2  0  0  3  0  0  0  0  0  0
  191.9320  174.2170  142.4900 C   0  0  2  0  0  3  0  0  0  0  0  0
  188.3660  175.7370  144.5400 C   0  0  2  0  0  3  0  0  0  0  0  0
  192.7050  173.4340  140.0710 C   0  0  1  0  0  3  0  0  0  0  0  0
  196.8850  174.2770  139.3540 C   0  0  0  0  0  2  0  0  0  0  0  0
  194.0660  174.1070  139.7610 C   0  0  2  0  0  3  0  0  0  0  0  0
  193.3660  174.3740  143.0320 C   0  0  1  0  0  3  0  0  0  0  0  0
  194.7580  173.3290  138.8120 O   0  0  0  0  0  0  0  0  0  0  0  0
  189.5270  174.8610  142.6150 N   0  0  1  0  0  0  0  0  0  0  0  0
  194.1010  177.3600  144.9780 C   0  0  0  0  0  2  0  0  0  0  0  0
  194.0110  175.7190  146.8190 C   0  0  0  0  0  3  0  0  0  0  0  0
  192.5800  177.2080  144.8650 C   0  0  0  0  0  2  0  0  0  0  0  0
  192.7900  175.1550  146.2110 C   0  0  0  0  0  3  0  0  0  0  0  0
  194.6090  176.7800  146.2700 C   0  0  0  0  0  3  0  0  0  0  0  0
  192.1440  175.8110  145.2390 C   0  0  0  0  0  0  0  0  0  0  0  0
  186.7000  176.2410  146.1950 F   0  0  0  0  0  0  0  0  0  0  0  0
  187.2450  176.6790  144.9990 C   0  0  0  0  0  0  0  0  0  0  0  0
  187.7520  177.9540  145.1780 F   0  0  0  0  0  0  0  0  0  0  0  0
  186.2490  176.7390  144.0390 F   0  0  0  0  0  0  0  0  0  0  0  0
  189.4610  172.4080  138.8350 C   0  0  0  0  0  0  0  0  0  0  0  0
  188.2860  172.4690  139.1660 O   0  0  0  0  0  0  0  0  0  0  0  0
  190.4730  170.1250  139.0810 C   0  0  1  0  0  3  0  0  0  0  0  0
  190.3420  170.4610  140.4190 F   0  0  0  0  0  0  0  0  0  0  0  0
  189.1950  170.0570  138.4990 O   0  0  0  0  0  0  0  0  0  0  0  0
  189.9750  171.1760  138.1450 C   0  0  1  0  0  3  0  0  0  0  0  0
  189.3050  174.2970  146.6470 C   0  0  0  0  0  1  0  0  0  0  0  0
  189.5550  175.6720  146.6250 O   0  0  0  0  0  0  0  0  0  0  0  0
  193.9500  173.0260  143.4800 C   0  0  2  0  0  3  0  0  0  0  0  0
  192.9160  172.1800  144.2100 C   0  0  0  0  0  1  0  0  0  0  0  0
  196.5350  171.8740  143.1280 O   0  0  0  0  0  0  0  0  0  0  0  0
  196.3560  172.6120  144.1350 C   0  0  0  0  0  0  0  0  0  0  0  0
  195.0940  173.2420  144.3560 N   0  0  0  0  0  2  0  0  0  0  0  0
  196.9550  173.5380  146.3330 C   0  0  0  0  0  1  0  0  0  0  0  0
  197.4750  172.8550  145.0830 C   0  0  0  0  0  2  0  0  0  0  0  0
  192.2370  173.9930  137.5790 C   0  0  0  0  0  2  0  0  0  0  0  0
  193.1140  172.3500  136.1070 O   0  0  0  0  0  0  0  0  0  0  0  0
  192.1770  173.1580  136.3420 C   0  0  0  0  0  0  0  0  0  0  0  0
  190.1920  174.4860  135.3980 C   0  0  0  0  0  1  0  0  0  0  0  0
  190.7700  172.3020  134.5950 N   0  0  0  0  0  2  0  0  0  0  0  0
  191.0440  173.2640  135.4110 C   0  0  0  0  0  0  0  0  0  0  0  0
  1 41  1  1  0  0  0
  2 16  1  0  0  0  0
  4 10  1  0  0  0  0
  4  3  1  0  0  0  0
  5 15  1  0  0  0  0
  6  5  1  0  0  0  0
  6 18  1  0  0  0  0
  7 17  1  0  0  0  0
  9  8  2  0  0  0  0
  9 21  1  0  0  0  0
 10  9  1  0  0  0  0
 11 23  1  0  0  0  0
 12 29  1  0  0  0  0
 12  1  1  0  0  0  0
 13 22  1  0  0  0  0
 13 19  1  0  0  0  0
 14 12  1  0  0  0  0
 15  2  1  0  0  0  0
 15 11  1  0  0  0  0
 16 21  1  0  0  0  0
 16 14  1  0  0  0  0
 17 31  1  0  0  0  0
 17  1  1  0  0  0  0
 18  2  1  0  0  0  0
 19  4  1  0  0  0  0
 20 18  1  0  0  0  0
 20 10  1  0  0  0  0
 21 42  1  0  0  0  0
 22 20  1  0  0  0  0
 23  7  1  0  0  0  0
 23 14  1  0  0  0  0
 24 28  1  0  0  0  0
 26 24  1  0  0  0  0
 26 29  1  0  0  0  0
 27 25  1  0  0  0  0
 28 25  2  0  0  0  0
 29 27  2  0  0  0  0
 31 32  1  0  0  0  0
 31 30  1  0  0  0  0
 33 31  1  0  0  0  0
 34 35  2  0  0  0  0
 34  5  1  0  0  0  0
 36 37  1  0  0  0  0
 38 36  1  0  0  0  0
 39 38  1  0  0  0  0
 39 34  1  0  0  0  0
 39 36  1  0  0  0  0
 41 40  1  0  0  0  0
 42 43  1  0  0  0  0
 42 46  1  0  0  0  0
 44 45  2  0  0  0  0
 45 46  1  0  0  0  0
 45 48  1  0  0  0  0
 48 47  1  0  0  0  0
 49  6  1  0  0  0  0
 50 51  2  0  0  0  0
 51 49  1  0  0  0  0
 52 54  1  0  0  0  0
 53 54  2  0  0  0  0
 54 51  1  0  0  0  0
M  END
>  <MODEL>
2

>  <REMARK>
 VINA RESULT:      -7.3      2.865      7.669
  Name = 
  11 active torsions:
  status: ('A' for Active; 'I' for Inactive)
    1  A    between atoms: C_2  and  O_32
    2  A    between atoms: C_5  and  C_12
    3  A    between atoms: C_5  and  C_53
    4  A    between atoms: C_11  and  N_39
    5  A    between atoms: C_11  and  C_49
    6  A    between atoms: C_13  and  C_18
    7  A    between atoms: C_18  and  C_37
    8  A    between atoms: C_21  and  C_44
    9  A    between atoms: C_29  and  C_38
   10  A    between atoms: C_34  and  C_40
   11  A    between atoms: C_37  and  C_45
                            x       y       z     vdW  Elec       q    Type
                         _______ _______ _______ _____ _____    ______ ____

>  <TORSDO>
F 11

$$$$
=
 OpenBabel11062418323D

 54 60  0  0  1  0  0  0  0  0999 V2000
  189.2890  175.9550  144.8040 C   0  0  1  0  0  3  0  0  0  0  0  0
  191.8790  173.9670  140.8900 C   0  0  1  0  0  3  0  0  0  0  0  0
  197.1710  174.2710  142.3280 O   0  0  0  0  0  1  0  0  0  0  0  0
  196.4200  174.3760  141.1560 C   0  0  2  0  0  3  0  0  0  0  0  0
  190.7110  173.2260  138.9420 C   0  0  2  0  0  3  0  0  0  0  0  0
  192.1660  172.7780  138.7980 C   0  0  2  0  0  3  0  0  0  0  0  0
  188.5130  175.8160  142.4490 C   0  0  0  0  0  2  0  0  0  0  0  0
  194.3350  175.9030  142.2870 O   0  0  0  0  0  0  0  0  0  0  0  0
  194.2150  174.6870  142.3130 C   0  0  0  0  0  0  0  0  0  0  0  0
  195.0060  173.8180  141.3800 C   0  0  1  0  0  3  0  0  0  0  0  0
  189.5720  174.6520  140.7300 C   0  0  0  0  0  2  0  0  0  0  0  0
  190.5120  175.0980  144.4000 C   0  0  1  0  0  3  0  0  0  0  0  0
  196.1960  173.5160  138.8340 C   0  0  0  0  0  2  0  0  0  0  0  0
  190.7320  175.0220  142.8570 C   0  0  1  0  0  3  0  0  0  0  0  0
  190.5360  173.5360  140.4040 C   0  0  2  0  0  3  0  0  0  0  0  0
  191.7970  173.9560  142.4260 C   0  0  2  0  0  3  0  0  0  0  0  0
  188.0700  175.7360  143.8990 C   0  0  2  0  0  3  0  0  0  0  0  0
  192.8570  173.0440  140.1660 C   0  0  1  0  0  3  0  0  0  0  0  0
  197.1370  173.6400  140.0270 C   0  0  0  0  0  2  0  0  0  0  0  0
  194.2840  173.6330  140.0320 C   0  0  2  0  0  3  0  0  0  0  0  0
  193.1460  174.0580  143.1610 C   0  0  1  0  0  3  0  0  0  0  0  0
  195.0580  172.7850  139.2160 O   0  0  0  0  0  0  0  0  0  0  0  0
  189.4380  174.7290  142.1870 N   0  0  1  0  0  0  0  0  0  0  0  0
  193.7580  177.0880  145.1090 C   0  0  0  0  0  2  0  0  0  0  0  0
  193.3390  175.4980  146.9490 C   0  0  0  0  0  3  0  0  0  0  0  0
  192.2610  177.0040  144.7920 C   0  0  0  0  0  2  0  0  0  0  0  0
  192.1860  174.9770  146.1900 C   0  0  0  0  0  3  0  0  0  0  0  0
  194.0570  176.5170  146.4690 C   0  0  0  0  0  3  0  0  0  0  0  0
  191.7100  175.6390  145.1280 C   0  0  0  0  0  0  0  0  0  0  0  0
  187.4750  178.0250  144.3130 F   0  0  0  0  0  0  0  0  0  0  0  0
  186.9510  176.7520  144.1650 C   0  0  0  0  0  0  0  0  0  0  0  0
  186.0620  176.7530  143.1050 F   0  0  0  0  0  0  0  0  0  0  0  0
  186.2570  176.4080  145.3130 F   0  0  0  0  0  0  0  0  0  0  0  0
  189.7660  172.1420  138.5110 C   0  0  0  0  0  0  0  0  0  0  0  0
  188.5610  172.2810  138.6590 O   0  0  0  0  0  0  0  0  0  0  0  0
  190.6160  169.8300  138.9880 C   0  0  1  0  0  3  0  0  0  0  0  0
  190.3280  170.2380  140.2800 F   0  0  0  0  0  0  0  0  0  0  0  0
  189.4240  169.7920  138.2430 O   0  0  0  0  0  0  0  0  0  0  0  0
  190.3010  170.8560  137.9490 C   0  0  1  0  0  3  0  0  0  0  0  0
  189.1390  176.8940  146.8110 C   0  0  0  0  0  1  0  0  0  0  0  0
  188.9480  175.6870  146.1340 O   0  0  0  0  0  0  0  0  0  0  0  0
  193.5850  172.7000  143.7280 C   0  0  2  0  0  3  0  0  0  0  0  0
  192.4150  171.9470  144.3480 C   0  0  0  0  0  1  0  0  0  0  0  0
  195.9960  171.1890  143.9120 O   0  0  0  0  0  0  0  0  0  0  0  0
  195.7940  172.0770  144.7850 C   0  0  0  0  0  0  0  0  0  0  0  0
  194.6200  172.8870  144.7350 N   0  0  0  0  0  2  0  0  0  0  0  0
  196.8580  173.7770  146.2080 C   0  0  0  0  0  1  0  0  0  0  0  0
  196.7990  172.3040  145.8560 C   0  0  0  0  0  2  0  0  0  0  0  0
  192.7770  173.5330  137.6170 C   0  0  0  0  0  2  0  0  0  0  0  0
  191.9330  172.7680  135.5330 O   0  0  0  0  0  0  0  0  0  0  0  0
  192.8340  172.6590  136.4060 C   0  0  0  0  0  0  0  0  0  0  0  0
  193.7570  170.2760  136.6660 C   0  0  0  0  0  1  0  0  0  0  0  0
  195.0400  172.0470  135.6820 N   0  0  0  0  0  2  0  0  0  0  0  0
  193.9240  171.6900  136.2240 C   0  0  0  0  0  0  0  0  0  0  0  0
  1 41  1  1  0  0  0
  2 16  1  0  0  0  0
  4 10  1  0  0  0  0
  4  3  1  0  0  0  0
  5 15  1  0  0  0  0
  6  5  1  0  0  0  0
  6 18  1  0  0  0  0
  7 17  1  0  0  0  0
  8  9  2  0  0  0  0
  9 21  1  0  0  0  0
 10  9  1  0  0  0  0
 11 23  1  0  0  0  0
 12  1  1  0  0  0  0
 12 29  1  0  0  0  0
 13 22  1  0  0  0  0
 13 19  1  0  0  0  0
 14 12  1  0  0  0  0
 15 11  1  0  0  0  0
 15  2  1  0  0  0  0
 16 14  1  0  0  0  0
 16 21  1  0  0  0  0
 17 31  1  0  0  0  0
 17  1  1  0  0  0  0
 18  2  1  0  0  0  0
 19  4  1  0  0  0  0
 20 18  1  0  0  0  0
 20 10  1  0  0  0  0
 21 42  1  0  0  0  0
 22 20  1  0  0  0  0
 23  7  1  0  0  0  0
 23 14  1  0  0  0  0
 24 28  1  0  0  0  0
 26 24  1  0  0  0  0
 26 29  1  0  0  0  0
 27 25  1  0  0  0  0
 28 25  2  0  0  0  0
 29 27  2  0  0  0  0
 31 30  1  0  0  0  0
 31 33  1  0  0  0  0
 32 31  1  0  0  0  0
 34 35  2  0  0  0  0
 34  5  1  0  0  0  0
 36 37  1  0  0  0  0
 38 36  1  0  0  0  0
 39 38  1  0  0  0  0
 39 34  1  0  0  0  0
 39 36  1  0  0  0  0
 41 40  1  0  0  0  0
 42 43  1  0  0  0  0
 42 46  1  0  0  0  0
 44 45  2  0  0  0  0
 45 48  1  0  0  0  0
 46 45  1  0  0  0  0
 48 47  1  0  0  0  0
 49  6  1  0  0  0  0
 50 51  2  0  0  0  0
 51 49  1  0  0  0  0
 53 54  2  0  0  0  0
 54 51  1  0  0  0  0
 54 52  1  0  0  0  0
M  END
>  <MODEL>
3

>  <REMARK>
 VINA RESULT:      -7.2      2.720      7.872
  Name = 
  11 active torsions:
  status: ('A' for Active; 'I' for Inactive)
    1  A    between atoms: C_2  and  O_32
    2  A    between atoms: C_5  and  C_12
    3  A    between atoms: C_5  and  C_53
    4  A    between atoms: C_11  and  N_39
    5  A    between atoms: C_11  and  C_49
    6  A    between atoms: C_13  and  C_18
    7  A    between atoms: C_18  and  C_37
    8  A    between atoms: C_21  and  C_44
    9  A    between atoms: C_29  and  C_38
   10  A    between atoms: C_34  and  C_40
   11  A    between atoms: C_37  and  C_45
                            x       y       z     vdW  Elec       q    Type
                         _______ _______ _______ _____ _____    ______ ____

>  <TORSDO>
F 11

$$$$
=
 OpenBabel11062418323D

 54 60  0  0  1  0  0  0  0  0999 V2000
  191.8910  171.0740  139.8610 C   0  0  1  0  0  3  0  0  0  0  0  0
  189.0150  174.6590  142.0680 C   0  0  1  0  0  3  0  0  0  0  0  0
  190.8380  175.0230  147.2360 O   0  0  0  0  0  1  0  0  0  0  0  0
  189.6150  175.1310  146.5710 C   0  0  2  0  0  3  0  0  0  0  0  0
  187.2600  175.7060  140.8310 C   0  0  2  0  0  3  0  0  0  0  0  0
  187.4030  176.4660  142.1500 C   0  0  2  0  0  3  0  0  0  0  0  0
  189.6130  171.7690  139.1580 C   0  0  0  0  0  2  0  0  0  0  0  0
  190.0310  172.9360  144.8490 O   0  0  0  0  0  0  0  0  0  0  0  0
  190.3980  174.0330  144.4550 C   0  0  0  0  0  0  0  0  0  0  0  0
  189.8470  175.2900  145.0600 C   0  0  1  0  0  3  0  0  0  0  0  0
  188.4260  173.5970  139.9840 C   0  0  0  0  0  2  0  0  0  0  0  0
  191.8830  172.2470  140.8710 C   0  0  1  0  0  3  0  0  0  0  0  0
  187.6360  176.5990  146.2390 C   0  0  0  0  0  2  0  0  0  0  0  0
  190.4600  172.8370  141.1230 C   0  0  1  0  0  3  0  0  0  0  0  0
  188.5410  174.9320  140.6800 C   0  0  2  0  0  3  0  0  0  0  0  0
  190.4710  174.1800  141.9320 C   0  0  2  0  0  3  0  0  0  0  0  0
  190.9690  171.3060  138.6570 C   0  0  2  0  0  3  0  0  0  0  0  0
  188.6970  175.9400  142.8350 C   0  0  1  0  0  3  0  0  0  0  0  0
  188.8310  176.3100  147.1410 C   0  0  0  0  0  2  0  0  0  0  0  0
  188.5450  175.7280  144.3630 C   0  0  2  0  0  3  0  0  0  0  0  0
  191.2780  174.1360  143.2420 C   0  0  1  0  0  3  0  0  0  0  0  0
  188.0960  176.9260  144.9520 O   0  0  0  0  0  0  0  0  0  0  0  0
  189.7750  173.0490  139.8200 N   0  0  1  0  0  0  0  0  0  0  0  0
  194.6480  171.2800  143.4040 C   0  0  0  0  0  2  0  0  0  0  0  0
  192.4510  170.5340  144.2460 C   0  0  0  0  0  3  0  0  0  0  0  0
  193.8920  172.3000  142.5460 C   0  0  0  0  0  2  0  0  0  0  0  0
  191.8490  170.9940  142.9800 C   0  0  0  0  0  3  0  0  0  0  0  0
  193.7570  170.7020  144.4710 C   0  0  0  0  0  3  0  0  0  0  0  0
  192.5400  171.7680  142.1340 C   0  0  0  0  0  0  0  0  0  0  0  0
  191.7500  170.0410  136.7710 F   0  0  0  0  0  0  0  0  0  0  0  0
  190.8110  170.0500  137.7900 C   0  0  0  0  0  0  0  0  0  0  0  0
  190.9850  168.9200  138.5700 F   0  0  0  0  0  0  0  0  0  0  0  0
  189.5410  170.0070  137.2400 F   0  0  0  0  0  0  0  0  0  0  0  0
  187.0690  176.6500  139.6810 C   0  0  0  0  0  0  0  0  0  0  0  0
  186.7320  177.8070  139.8840 O   0  0  0  0  0  0  0  0  0  0  0  0
  185.9500  176.0560  137.5150 C   0  0  1  0  0  3  0  0  0  0  0  0
  184.8410  176.4580  138.2420 F   0  0  0  0  0  0  0  0  0  0  0  0
  186.8160  177.1520  137.3580 O   0  0  0  0  0  0  0  0  0  0  0  0
  187.2340  176.1620  138.2700 C   0  0  1  0  0  3  0  0  0  0  0  0
  193.5840  172.0270  138.7840 C   0  0  0  0  0  1  0  0  0  0  0  0
  193.1990  170.8450  139.4220 O   0  0  0  0  0  0  0  0  0  0  0  0
  192.2600  175.3140  143.3400 C   0  0  2  0  0  3  0  0  0  0  0  0
  192.8210  175.6920  141.9750 C   0  0  0  0  0  1  0  0  0  0  0  0
  193.1800  176.9310  145.5010 O   0  0  0  0  0  0  0  0  0  0  0  0
  193.7860  175.8470  145.2810 C   0  0  0  0  0  0  0  0  0  0  0  0
  193.3600  174.9780  144.2320 N   0  0  0  0  0  2  0  0  0  0  0  0
  195.5910  174.2040  145.5880 C   0  0  0  0  0  1  0  0  0  0  0  0
  194.9350  175.4540  146.1400 C   0  0  0  0  0  2  0  0  0  0  0  0
  186.1220  176.2530  142.9580 C   0  0  0  0  0  2  0  0  0  0  0  0
  184.5550  177.6350  141.8300 O   0  0  0  0  0  0  0  0  0  0  0  0
  185.2400  177.4560  142.8720 C   0  0  0  0  0  0  0  0  0  0  0  0
  185.8470  179.7360  143.8870 C   0  0  0  0  0  1  0  0  0  0  0  0
  184.4960  178.1340  145.0520 N   0  0  0  0  0  2  0  0  0  0  0  0
  185.1600  178.4170  143.9810 C   0  0  0  0  0  0  0  0  0  0  0  0
  1 41  1  6  0  0  0
  1 12  1  0  0  0  0
  2 18  1  0  0  0  0
  4 19  1  0  0  0  0
  4  3  1  0  0  0  0
  5  6  1  0  0  0  0
  6 18  1  0  0  0  0
  6 49  1  0  0  0  0
  7 23  1  0  0  0  0
  9  8  2  0  0  0  0
  9 10  1  0  0  0  0
 10  4  1  0  0  0  0
 11 15  1  0  0  0  0
 12 14  1  0  0  0  0
 12 29  1  0  0  0  0
 13 19  1  0  0  0  0
 14 16  1  0  0  0  0
 15  5  1  0  0  0  0
 15  2  1  0  0  0  0
 16  2  1  0  0  0  0
 16 21  1  0  0  0  0
 17  7  1  0  0  0  0
 17  1  1  0  0  0  0
 18 20  1  0  0  0  0
 20 22  1  0  0  0  0
 20 10  1  0  0  0  0
 21 42  1  0  0  0  0
 21  9  1  0  0  0  0
 22 13  1  0  0  0  0
 23 11  1  0  0  0  0
 23 14  1  0  0  0  0
 24 28  1  0  0  0  0
 25 28  2  0  0  0  0
 26 24  1  0  0  0  0
 27 25  1  0  0  0  0
 29 26  1  0  0  0  0
 29 27  2  0  0  0  0
 30 31  1  0  0  0  0
 31 32  1  0  0  0  0
 31 17  1  0  0  0  0
 33 31  1  0  0  0  0
 34 35  2  0  0  0  0
 34  5  1  0  0  0  0
 36 37  1  0  0  0  0
 36 39  1  0  0  0  0
 38 36  1  0  0  0  0
 38 39  1  0  0  0  0
 39 34  1  0  0  0  0
 40 41  1  0  0  0  0
 42 46  1  0  0  0  0
 43 42  1  0  0  0  0
 45 44  2  0  0  0  0
 45 48  1  0  0  0  0
 46 45  1  0  0  0  0
 47 48  1  0  0  0  0
 50 51  2  0  0  0  0
 51 49  1  0  0  0  0
 51 54  1  0  0  0  0
 52 54  1  0  0  0  0
 54 53  2  0  0  0  0
M  END
>  <MODEL>
4

>  <REMARK>
 VINA RESULT:      -7.1      1.239      1.806
  Name = 
  11 active torsions:
  status: ('A' for Active; 'I' for Inactive)
    1  A    between atoms: C_2  and  O_32
    2  A    between atoms: C_5  and  C_12
    3  A    between atoms: C_5  and  C_53
    4  A    between atoms: C_11  and  N_39
    5  A    between atoms: C_11  and  C_49
    6  A    between atoms: C_13  and  C_18
    7  A    between atoms: C_18  and  C_37
    8  A    between atoms: C_21  and  C_44
    9  A    between atoms: C_29  and  C_38
   10  A    between atoms: C_34  and  C_40
   11  A    between atoms: C_37  and  C_45
                            x       y       z     vdW  Elec       q    Type
                         _______ _______ _______ _____ _____    ______ ____

>  <TORSDO>
F 11

$$$$
=
 OpenBabel11062418323D

 54 60  0  0  1  0  0  0  0  0999 V2000
  195.7320  172.2700  143.5830 C   0  0  1  0  0  3  0  0  0  0  0  0
  191.0810  173.9760  142.3820 C   0  0  1  0  0  3  0  0  0  0  0  0
  190.2330  172.3900  137.1930 O   0  0  0  0  0  1  0  0  0  0  0  0
  189.9020  173.4820  137.9980 C   0  0  2  0  0  3  0  0  0  0  0  0
  189.8320  175.2490  143.9720 C   0  0  2  0  0  3  0  0  0  0  0  0
  188.8980  174.9390  142.8020 C   0  0  2  0  0  3  0  0  0  0  0  0
  194.5470  174.1760  144.6470 C   0  0  0  0  0  2  0  0  0  0  0  0
  192.4240  173.6940  139.2440 O   0  0  0  0  0  0  0  0  0  0  0  0
  191.5920  172.9810  139.7840 C   0  0  0  0  0  0  0  0  0  0  0  0
  190.1310  173.1380  139.4780 C   0  0  1  0  0  3  0  0  0  0  0  0
  192.3200  174.7660  144.2960 C   0  0  0  0  0  2  0  0  0  0  0  0
  194.4310  171.9590  142.8060 C   0  0  1  0  0  3  0  0  0  0  0  0
  188.0100  174.8790  138.8020 C   0  0  0  0  0  2  0  0  0  0  0  0
  193.4040  173.1340  142.8220 C   0  0  1  0  0  3  0  0  0  0  0  0
  190.9670  174.2710  143.8410 C   0  0  2  0  0  3  0  0  0  0  0  0
  191.9910  172.7410  142.2700 C   0  0  2  0  0  3  0  0  0  0  0  0
  195.4860  173.0110  144.9040 C   0  0  2  0  0  3  0  0  0  0  0  0
  189.6350  173.9120  141.8960 C   0  0  1  0  0  3  0  0  0  0  0  0
  188.4520  173.8820  137.7370 C   0  0  0  0  0  2  0  0  0  0  0  0
  189.4760  174.1990  140.3810 C   0  0  2  0  0  3  0  0  0  0  0  0
  192.0060  172.0540  140.8910 C   0  0  1  0  0  3  0  0  0  0  0  0
  188.1050  174.2760  140.0690 O   0  0  0  0  0  0  0  0  0  0  0  0
  193.2670  173.6510  144.2090 N   0  0  1  0  0  0  0  0  0  0  0  0
  195.1630  172.1810  139.0100 C   0  0  0  0  0  2  0  0  0  0  0  0
  195.1520  169.8170  139.7170 C   0  0  0  0  0  3  0  0  0  0  0  0
  195.4550  172.5420  140.4700 C   0  0  0  0  0  2  0  0  0  0  0  0
  194.7470  170.2590  141.0660 C   0  0  0  0  0  3  0  0  0  0  0  0
  195.3900  170.7150  138.7570 C   0  0  0  0  0  3  0  0  0  0  0  0
  194.8170  171.5490  141.4130 C   0  0  0  0  0  0  0  0  0  0  0  0
  197.7750  173.6650  144.5870 F   0  0  0  0  0  0  0  0  0  0  0  0
  196.7860  173.5140  145.5450 C   0  0  0  0  0  0  0  0  0  0  0  0
  196.5620  174.7360  146.1550 F   0  0  0  0  0  0  0  0  0  0  0  0
  197.2190  172.6210  146.5100 F   0  0  0  0  0  0  0  0  0  0  0  0
  189.1290  175.0750  145.2860 C   0  0  0  0  0  0  0  0  0  0  0  0
  189.2790  174.0500  145.9340 O   0  0  0  0  0  0  0  0  0  0  0  0
  188.8220  177.1100  146.7230 C   0  0  1  0  0  3  0  0  0  0  0  0
  190.1710  176.8780  146.9410 F   0  0  0  0  0  0  0  0  0  0  0  0
  188.6240  177.4100  145.3640 O   0  0  0  0  0  0  0  0  0  0  0  0
  188.1890  176.1370  145.7840 C   0  0  1  0  0  3  0  0  0  0  0  0
  195.5990  170.3410  144.6750 C   0  0  0  0  0  1  0  0  0  0  0  0
  196.4270  171.0810  143.8280 O   0  0  0  0  0  0  0  0  0  0  0  0
  191.1810  170.7580  140.8980 C   0  0  2  0  0  3  0  0  0  0  0  0
  191.1970  170.0890  142.2660 C   0  0  0  0  0  1  0  0  0  0  0  0
  189.7100  169.7140  138.6900 O   0  0  0  0  0  0  0  0  0  0  0  0
  190.9000  169.3240  138.8360 C   0  0  0  0  0  0  0  0  0  0  0  0
  191.7010  169.8280  139.9050 N   0  0  0  0  0  2  0  0  0  0  0  0
  192.0000  169.0890  136.6490 C   0  0  0  0  0  1  0  0  0  0  0  0
  191.4860  168.3550  137.8720 C   0  0  0  0  0  2  0  0  0  0  0  0
  188.5480  176.2600  142.1160 C   0  0  0  0  0  2  0  0  0  0  0  0
  186.3600  175.7400  142.8770 O   0  0  0  0  0  0  0  0  0  0  0  0
  187.0900  176.5560  142.2550 C   0  0  0  0  0  0  0  0  0  0  0  0
  186.0780  177.8140  140.2570 C   0  0  0  0  0  1  0  0  0  0  0  0
  186.3620  178.8390  142.4060 N   0  0  0  0  0  2  0  0  0  0  0  0
  186.5080  177.7790  141.6840 C   0  0  0  0  0  0  0  0  0  0  0  0
  1 41  1  1  0  0  0
  1 17  1  0  0  0  0
  2 15  1  0  0  0  0
  3  4  1  0  0  0  0
  4 10  1  0  0  0  0
  5 34  1  0  0  0  0
  6  5  1  0  0  0  0
  7 17  1  0  0  0  0
  8  9  2  0  0  0  0
  9 21  1  0  0  0  0
 10  9  1  0  0  0  0
 10 20  1  0  0  0  0
 12 14  1  0  0  0  0
 12  1  1  0  0  0  0
 13 22  1  0  0  0  0
 14 23  1  0  0  0  0
 15  5  1  0  0  0  0
 15 11  1  0  0  0  0
 16  2  1  0  0  0  0
 16 14  1  0  0  0  0
 17 31  1  0  0  0  0
 18  2  1  0  0  0  0
 18  6  1  0  0  0  0
 19  4  1  0  0  0  0
 19 13  1  0  0  0  0
 20 18  1  0  0  0  0
 21 42  1  0  0  0  0
 21 16  1  0  0  0  0
 22 20  1  0  0  0  0
 23 11  1  0  0  0  0
 23  7  1  0  0  0  0
 24 26  1  0  0  0  0
 25 27  1  0  0  0  0
 26 29  1  0  0  0  0
 27 29  2  0  0  0  0
 28 24  1  0  0  0  0
 28 25  2  0  0  0  0
 29 12  1  0  0  0  0
 30 31  1  0  0  0  0
 31 32  1  0  0  0  0
 31 33  1  0  0  0  0
 34 39  1  0  0  0  0
 34 35  2  0  0  0  0
 36 37  1  0  0  0  0
 38 39  1  0  0  0  0
 38 36  1  0  0  0  0
 39 36  1  0  0  0  0
 41 40  1  0  0  0  0
 42 43  1  0  0  0  0
 44 45  2  0  0  0  0
 45 46  1  0  0  0  0
 46 42  1  0  0  0  0
 47 48  1  0  0  0  0
 48 45  1  0  0  0  0
 49 51  1  0  0  0  0
 49  6  1  0  0  0  0
 51 50  2  0  0  0  0
 52 54  1  0  0  0  0
 54 51  1  0  0  0  0
 54 53  2  0  0  0  0
M  END
>  <MODEL>
5

>  <REMARK>
 VINA RESULT:      -7.1      3.674      6.884
  Name = 
  11 active torsions:
  status: ('A' for Active; 'I' for Inactive)
    1  A    between atoms: C_2  and  O_32
    2  A    between atoms: C_5  and  C_12
    3  A    between atoms: C_5  and  C_53
    4  A    between atoms: C_11  and  N_39
    5  A    between atoms: C_11  and  C_49
    6  A    between atoms: C_13  and  C_18
    7  A    between atoms: C_18  and  C_37
    8  A    between atoms: C_21  and  C_44
    9  A    between atoms: C_29  and  C_38
   10  A    between atoms: C_34  and  C_40
   11  A    between atoms: C_37  and  C_45
                            x       y       z     vdW  Elec       q    Type
                         _______ _______ _______ _____ _____    ______ ____

>  <TORSDO>
F 11

$$$$
=
 OpenBabel11062418323D

 54 60  0  0  1  0  0  0  0  0999 V2000
  191.8920  171.8490  138.4140 C   0  0  1  0  0  3  0  0  0  0  0  0
  190.5310  174.7380  142.3880 C   0  0  1  0  0  3  0  0  0  0  0  0
  194.4430  173.9710  146.1650 O   0  0  0  0  0  1  0  0  0  0  0  0
  193.0650  174.1880  146.1480 C   0  0  2  0  0  3  0  0  0  0  0  0
  188.4930  175.9820  142.3130 C   0  0  2  0  0  3  0  0  0  0  0  0
  189.2510  176.4250  143.5650 C   0  0  2  0  0  3  0  0  0  0  0  0
  189.5910  172.6110  138.9570 C   0  0  0  0  0  2  0  0  0  0  0  0
  192.5290  172.4590  143.9840 O   0  0  0  0  0  0  0  0  0  0  0  0
  192.7660  173.6290  143.7200 C   0  0  0  0  0  0  0  0  0  0  0  0
  192.6250  174.6950  144.7650 C   0  0  1  0  0  3  0  0  0  0  0  0
  189.0180  174.1620  140.5990 C   0  0  0  0  0  2  0  0  0  0  0  0
  192.4090  172.7580  139.5540 C   0  0  1  0  0  3  0  0  0  0  0  0
  191.2500  175.6270  147.0520 C   0  0  0  0  0  2  0  0  0  0  0  0
  191.2840  173.2290  140.5290 C   0  0  1  0  0  3  0  0  0  0  0  0
  189.5210  175.3060  141.4470 C   0  0  2  0  0  3  0  0  0  0  0  0
  191.7430  174.3510  141.5230 C   0  0  2  0  0  3  0  0  0  0  0  0
  190.5570  172.3190  137.8220 C   0  0  2  0  0  3  0  0  0  0  0  0
  190.6720  175.7990  143.4770 C   0  0  1  0  0  3  0  0  0  0  0  0
  192.6940  175.1790  147.2480 C   0  0  0  0  0  2  0  0  0  0  0  0
  191.1850  175.2380  144.8270 C   0  0  2  0  0  3  0  0  0  0  0  0
  193.0350  174.0350  142.2990 C   0  0  1  0  0  3  0  0  0  0  0  0
  191.1250  176.2550  145.8000 O   0  0  0  0  0  0  0  0  0  0  0  0
  190.1180  173.7110  139.7430 N   0  0  1  0  0  0  0  0  0  0  0  0
  194.2570  170.6160  142.1980 C   0  0  0  0  0  2  0  0  0  0  0  0
  195.8970  171.6370  140.6610 C   0  0  0  0  0  3  0  0  0  0  0  0
  193.2140  170.8000  141.0910 C   0  0  0  0  0  2  0  0  0  0  0  0
  194.7850  172.3600  140.0130 C   0  0  0  0  0  3  0  0  0  0  0  0
  195.6530  170.7850  141.6600 C   0  0  0  0  0  3  0  0  0  0  0  0
  193.5140  172.0250  140.2600 C   0  0  0  0  0  0  0  0  0  0  0  0
  190.6800  171.2240  135.6880 F   0  0  0  0  0  0  0  0  0  0  0  0
  189.9460  171.2900  136.8610 C   0  0  0  0  0  0  0  0  0  0  0  0
  189.9410  170.0410  137.4580 F   0  0  0  0  0  0  0  0  0  0  0  0
  188.6390  171.6330  136.5620 F   0  0  0  0  0  0  0  0  0  0  0  0
  187.8890  177.1580  141.6030 C   0  0  0  0  0  0  0  0  0  0  0  0
  188.4840  178.2250  141.5620 O   0  0  0  0  0  0  0  0  0  0  0  0
  185.4880  177.8840  141.6640 C   0  0  1  0  0  3  0  0  0  0  0  0
  185.9810  178.6380  142.7170 F   0  0  0  0  0  0  0  0  0  0  0  0
  186.1150  178.2940  140.4750 O   0  0  0  0  0  0  0  0  0  0  0  0
  186.5230  177.0470  140.9880 C   0  0  1  0  0  3  0  0  0  0  0  0
  193.2050  170.4170  137.3390 C   0  0  0  0  0  1  0  0  0  0  0  0
  192.8570  171.7680  137.4050 O   0  0  0  0  0  0  0  0  0  0  0  0
  194.0430  175.1910  142.2100 C   0  0  2  0  0  3  0  0  0  0  0  0
  193.6090  176.2370  141.1930 C   0  0  0  0  0  1  0  0  0  0  0  0
  196.5310  176.2530  143.1120 O   0  0  0  0  0  0  0  0  0  0  0  0
  196.5660  175.2790  142.3110 C   0  0  0  0  0  0  0  0  0  0  0  0
  195.3580  174.6830  141.8420 N   0  0  0  0  0  2  0  0  0  0  0  0
  197.9410  174.6840  140.3610 C   0  0  0  0  0  1  0  0  0  0  0  0
  197.8760  174.7270  141.8750 C   0  0  0  0  0  2  0  0  0  0  0  0
  188.4380  175.9920  144.7860 C   0  0  0  0  0  2  0  0  0  0  0  0
  188.3170  178.2360  145.5520 O   0  0  0  0  0  0  0  0  0  0  0  0
  187.7000  177.1540  145.3660 C   0  0  0  0  0  0  0  0  0  0  0  0
  185.7600  177.6480  146.9760 C   0  0  0  0  0  1  0  0  0  0  0  0
  185.4500  176.4380  144.9290 N   0  0  0  0  0  2  0  0  0  0  0  0
  186.2750  177.0490  145.7120 C   0  0  0  0  0  0  0  0  0  0  0  0
  1 41  1  6  0  0  0
  1 12  1  0  0  0  0
  2 18  1  0  0  0  0
  4  3  1  0  0  0  0
  4 19  1  0  0  0  0
  5  6  1  0  0  0  0
  6 49  1  0  0  0  0
  7 23  1  0  0  0  0
  9  8  2  0  0  0  0
  9 10  1  0  0  0  0
 10 20  1  0  0  0  0
 10  4  1  0  0  0  0
 11 15  1  0  0  0  0
 12 29  1  0  0  0  0
 12 14  1  0  0  0  0
 13 19  1  0  0  0  0
 14 16  1  0  0  0  0
 15  5  1  0  0  0  0
 15  2  1  0  0  0  0
 16 21  1  0  0  0  0
 16  2  1  0  0  0  0
 17  1  1  0  0  0  0
 17  7  1  0  0  0  0
 18  6  1  0  0  0  0
 18 20  1  0  0  0  0
 20 22  1  0  0  0  0
 21  9  1  0  0  0  0
 22 13  1  0  0  0  0
 23 14  1  0  0  0  0
 23 11  1  0  0  0  0
 25 28  2  0  0  0  0
 26 24  1  0  0  0  0
 27 29  2  0  0  0  0
 27 25  1  0  0  0  0
 28 24  1  0  0  0  0
 29 26  1  0  0  0  0
 30 31  1  0  0  0  0
 31 32  1  0  0  0  0
 31 17  1  0  0  0  0
 33 31  1  0  0  0  0
 34  5  1  0  0  0  0
 35 34  2  0  0  0  0
 36 37  1  0  0  0  0
 38 39  1  0  0  0  0
 38 36  1  0  0  0  0
 39 34  1  0  0  0  0
 39 36  1  0  0  0  0
 40 41  1  0  0  0  0
 42 21  1  0  0  0  0
 43 42  1  0  0  0  0
 45 44  2  0  0  0  0
 46 42  1  0  0  0  0
 46 45  1  0  0  0  0
 47 48  1  0  0  0  0
 48 45  1  0  0  0  0
 49 51  1  0  0  0  0
 51 50  2  0  0  0  0
 51 54  1  0  0  0  0
 53 54  2  0  0  0  0
 54 52  1  0  0  0  0
M  END
>  <MODEL>
6

>  <REMARK>
 VINA RESULT:      -5.8      1.860      2.200
  Name = 
  11 active torsions:
  status: ('A' for Active; 'I' for Inactive)
    1  A    between atoms: C_2  and  O_32
    2  A    between atoms: C_5  and  C_12
    3  A    between atoms: C_5  and  C_53
    4  A    between atoms: C_11  and  N_39
    5  A    between atoms: C_11  and  C_49
    6  A    between atoms: C_13  and  C_18
    7  A    between atoms: C_18  and  C_37
    8  A    between atoms: C_21  and  C_44
    9  A    between atoms: C_29  and  C_38
   10  A    between atoms: C_34  and  C_40
   11  A    between atoms: C_37  and  C_45
                            x       y       z     vdW  Elec       q    Type
                         _______ _______ _______ _____ _____    ______ ____

>  <TORSDO>
F 11

$$$$
=
 OpenBabel11062418323D

 54 60  0  0  1  0  0  0  0  0999 V2000
  189.8120  175.9910  144.7640 C   0  0  1  0  0  3  0  0  0  0  0  0
  192.5030  173.5810  141.1670 C   0  0  1  0  0  3  0  0  0  0  0  0
  197.7710  174.3540  142.5130 O   0  0  0  0  0  1  0  0  0  0  0  0
  197.0170  174.2490  141.3430 C   0  0  2  0  0  3  0  0  0  0  0  0
  191.3760  172.5050  139.3560 C   0  0  2  0  0  3  0  0  0  0  0  0
  192.8510  172.1130  139.2710 C   0  0  2  0  0  3  0  0  0  0  0  0
  189.0470  175.4690  142.4590 C   0  0  0  0  0  2  0  0  0  0  0  0
  194.8580  175.8200  142.2510 O   0  0  0  0  0  0  0  0  0  0  0  0
  194.7980  174.6170  142.4550 C   0  0  0  0  0  0  0  0  0  0  0  0
  195.6330  173.6600  141.6550 C   0  0  1  0  0  3  0  0  0  0  0  0
  190.1650  174.1200  140.9220 C   0  0  0  0  0  2  0  0  0  0  0  0
  191.0770  175.1460  144.4820 C   0  0  1  0  0  3  0  0  0  0  0  0
  196.8400  173.0470  139.1740 C   0  0  0  0  0  2  0  0  0  0  0  0
  191.3030  174.8550  142.9650 C   0  0  1  0  0  3  0  0  0  0  0  0
  191.1830  173.0170  140.7580 C   0  0  2  0  0  3  0  0  0  0  0  0
  192.4200  173.7910  142.6880 C   0  0  2  0  0  3  0  0  0  0  0  0
  188.6070  175.5810  143.9080 C   0  0  2  0  0  3  0  0  0  0  0  0
  193.5260  172.6110  140.5800 C   0  0  1  0  0  3  0  0  0  0  0  0
  197.7720  173.3910  140.3300 C   0  0  0  0  0  2  0  0  0  0  0  0
  194.9220  173.2440  140.3530 C   0  0  2  0  0  3  0  0  0  0  0  0
  193.7620  174.0670  143.3920 C   0  0  1  0  0  3  0  0  0  0  0  0
  195.7380  172.3250  139.6660 O   0  0  0  0  0  0  0  0  0  0  0  0
  190.0260  174.4030  142.3530 N   0  0  1  0  0  0  0  0  0  0  0  0
  194.1630  177.4500  144.8940 C   0  0  0  0  0  2  0  0  0  0  0  0
  193.9320  176.0040  146.8820 C   0  0  0  0  0  3  0  0  0  0  0  0
  192.6700  177.2160  144.6410 C   0  0  0  0  0  2  0  0  0  0  0  0
  192.8060  175.3250  146.2140 C   0  0  0  0  0  3  0  0  0  0  0  0
  194.5480  177.0300  146.2870 C   0  0  0  0  0  3  0  0  0  0  0  0
  192.2460  175.8460  145.1150 C   0  0  0  0  0  0  0  0  0  0  0  0
  187.1740  176.8480  145.3600 F   0  0  0  0  0  0  0  0  0  0  0  0
  187.4380  176.5690  144.0290 C   0  0  0  0  0  0  0  0  0  0  0  0
  187.7550  177.7480  143.3780 F   0  0  0  0  0  0  0  0  0  0  0  0
  186.3030  176.0390  143.4400 F   0  0  0  0  0  0  0  0  0  0  0  0
  190.4870  171.3250  139.0940 C   0  0  0  0  0  0  0  0  0  0  0  0
  189.2790  171.4750  138.9870 O   0  0  0  0  0  0  0  0  0  0  0  0
  191.0570  169.2140  140.3270 C   0  0  1  0  0  3  0  0  0  0  0  0
  190.4780  169.9320  141.3600 F   0  0  0  0  0  0  0  0  0  0  0  0
  190.0890  168.9800  139.3350 O   0  0  0  0  0  0  0  0  0  0  0  0
  191.0710  169.9420  139.0230 C   0  0  1  0  0  3  0  0  0  0  0  0
  189.3110  174.5400  146.3690 C   0  0  0  0  0  1  0  0  0  0  0  0
  189.4840  175.9050  146.1200 O   0  0  0  0  0  0  0  0  0  0  0  0
  194.2660  172.8300  144.1500 C   0  0  2  0  0  3  0  0  0  0  0  0
  195.6050  173.0930  144.8260 C   0  0  0  0  0  1  0  0  0  0  0  0
  193.2300  170.2110  144.5930 O   0  0  0  0  0  0  0  0  0  0  0  0
  193.8820  170.4100  143.5320 C   0  0  0  0  0  0  0  0  0  0  0  0
  194.4050  171.7040  143.2360 N   0  0  0  0  0  2  0  0  0  0  0  0
  195.2710  169.5940  141.6740 C   0  0  0  0  0  1  0  0  0  0  0  0
  194.0830  169.2970  142.5670 C   0  0  0  0  0  2  0  0  0  0  0  0
  193.4250  172.7160  137.9880 C   0  0  0  0  0  2  0  0  0  0  0  0
  192.3310  171.9110  136.0410 O   0  0  0  0  0  0  0  0  0  0  0  0
  193.2850  171.7600  136.8480 C   0  0  0  0  0  0  0  0  0  0  0  0
  195.6760  170.9530  136.3700 C   0  0  0  0  0  1  0  0  0  0  0  0
  193.8610  169.4310  136.7390 N   0  0  0  0  0  2  0  0  0  0  0  0
  194.2440  170.6620  136.6600 C   0  0  0  0  0  0  0  0  0  0  0  0
  1 41  1  1  0  0  0
  2 16  1  0  0  0  0
  4 10  1  0  0  0  0
  4  3  1  0  0  0  0
  5 15  1  0  0  0  0
  6  5  1  0  0  0  0
  6 18  1  0  0  0  0
  7 17  1  0  0  0  0
  8  9  2  0  0  0  0
  9 21  1  0  0  0  0
 10  9  1  0  0  0  0
 11 23  1  0  0  0  0
 12  1  1  0  0  0  0
 12 29  1  0  0  0  0
 13 22  1  0  0  0  0
 13 19  1  0  0  0  0
 14 12  1  0  0  0  0
 15 11  1  0  0  0  0
 15  2  1  0  0  0  0
 16 14  1  0  0  0  0
 16 21  1  0  0  0  0
 17 31  1  0  0  0  0
 17  1  1  0  0  0  0
 18  2  1  0  0  0  0
 19  4  1  0  0  0  0
 20 18  1  0  0  0  0
 20 10  1  0  0  0  0
 21 42  1  0  0  0  0
 22 20  1  0  0  0  0
 23  7  1  0  0  0  0
 23 14  1  0  0  0  0
 24 28  1  0  0  0  0
 26 24  1  0  0  0  0
 26 29  1  0  0  0  0
 27 25  1  0  0  0  0
 28 25  2  0  0  0  0
 29 27  2  0  0  0  0
 31 30  1  0  0  0  0
 32 31  1  0  0  0  0
 33 31  1  0  0  0  0
 34  5  1  0  0  0  0
 35 34  2  0  0  0  0
 36 37  1  0  0  0  0
 38 36  1  0  0  0  0
 39 34  1  0  0  0  0
 39 38  1  0  0  0  0
 39 36  1  0  0  0  0
 41 40  1  0  0  0  0
 42 43  1  0  0  0  0
 45 44  2  0  0  0  0
 46 45  1  0  0  0  0
 46 42  1  0  0  0  0
 47 48  1  0  0  0  0
 48 45  1  0  0  0  0
 49  6  1  0  0  0  0
 50 51  2  0  0  0  0
 51 49  1  0  0  0  0
 52 54  1  0  0  0  0
 54 53  2  0  0  0  0
 54 51  1  0  0  0  0
M  END
>  <MODEL>
7

>  <REMARK>
 VINA RESULT:      -5.7      2.889      8.189
  Name = 
  11 active torsions:
  status: ('A' for Active; 'I' for Inactive)
    1  A    between atoms: C_2  and  O_32
    2  A    between atoms: C_5  and  C_12
    3  A    between atoms: C_5  and  C_53
    4  A    between atoms: C_11  and  N_39
    5  A    between atoms: C_11  and  C_49
    6  A    between atoms: C_13  and  C_18
    7  A    between atoms: C_18  and  C_37
    8  A    between atoms: C_21  and  C_44
    9  A    between atoms: C_29  and  C_38
   10  A    between atoms: C_34  and  C_40
   11  A    between atoms: C_37  and  C_45
                            x       y       z     vdW  Elec       q    Type
                         _______ _______ _______ _____ _____    ______ ____

>  <TORSDO>
F 11

$$$$
=
 OpenBabel11062418323D

 54 60  0  0  1  0  0  0  0  0999 V2000
  190.6650  175.5190  145.0960 C   0  0  1  0  0  3  0  0  0  0  0  0
  193.6380  171.9650  142.9720 C   0  0  1  0  0  3  0  0  0  0  0  0
  190.6790  169.8440  138.8610 O   0  0  0  0  0  1  0  0  0  0  0  0
  191.6160  169.3880  139.7900 C   0  0  2  0  0  3  0  0  0  0  0  0
  195.7980  171.5140  143.8900 C   0  0  2  0  0  3  0  0  0  0  0  0
  195.6940  170.7460  142.5730 C   0  0  2  0  0  3  0  0  0  0  0  0
  192.5360  174.3180  146.2020 C   0  0  0  0  0  2  0  0  0  0  0  0
  190.5660  170.8190  141.9830 O   0  0  0  0  0  0  0  0  0  0  0  0
  191.4250  171.3730  141.3130 C   0  0  0  0  0  0  0  0  0  0  0  0
  192.3450  170.5780  140.4340 C   0  0  1  0  0  3  0  0  0  0  0  0
  194.0690  172.9140  145.1480 C   0  0  0  0  0  2  0  0  0  0  0  0
  191.0880  174.8530  143.7650 C   0  0  1  0  0  3  0  0  0  0  0  0
  193.7700  168.1700  140.0320 C   0  0  0  0  0  2  0  0  0  0  0  0
  192.0520  173.6400  143.9600 C   0  0  1  0  0  3  0  0  0  0  0  0
  194.7100  172.5520  143.8290 C   0  0  2  0  0  3  0  0  0  0  0  0
  192.6910  173.1260  142.6240 C   0  0  2  0  0  3  0  0  0  0  0  0
  191.8170  175.6510  146.1010 C   0  0  2  0  0  3  0  0  0  0  0  0
  194.3970  171.2340  141.8670 C   0  0  1  0  0  3  0  0  0  0  0  0
  192.5960  168.4430  139.0990 C   0  0  0  0  0  2  0  0  0  0  0  0
  193.5840  170.0910  141.2080 C   0  0  2  0  0  3  0  0  0  0  0  0
  191.6840  172.8410  141.4950 C   0  0  1  0  0  3  0  0  0  0  0  0
  194.4210  169.3820  140.3240 O   0  0  0  0  0  0  0  0  0  0  0  0
  193.1300  174.0130  144.9130 N   0  0  1  0  0  0  0  0  0  0  0  0
  188.1730  172.7220  142.3650 C   0  0  0  0  0  2  0  0  0  0  0  0
  188.1800  174.9390  141.2790 C   0  0  0  0  0  3  0  0  0  0  0  0
  188.9500  173.3660  143.5190 C   0  0  0  0  0  2  0  0  0  0  0  0
  189.4230  175.2540  142.0090 C   0  0  0  0  0  3  0  0  0  0  0  0
  187.5640  173.7690  141.4710 C   0  0  0  0  0  3  0  0  0  0  0  0
  189.8370  174.4820  143.0210 C   0  0  0  0  0  0  0  0  0  0  0  0
  190.0090  176.4900  147.4410 F   0  0  0  0  0  0  0  0  0  0  0  0
  191.3360  176.0970  147.4890 C   0  0  0  0  0  0  0  0  0  0  0  0
  191.4620  175.0490  148.3840 F   0  0  0  0  0  0  0  0  0  0  0  0
  192.1070  177.1520  147.9440 F   0  0  0  0  0  0  0  0  0  0  0  0
  197.1440  172.1620  144.0340 C   0  0  0  0  0  0  0  0  0  0  0  0
  197.7390  172.5710  143.0480 O   0  0  0  0  0  0  0  0  0  0  0  0
  197.5720  173.5660  146.0690 C   0  0  1  0  0  3  0  0  0  0  0  0
  196.7800  174.4450  145.3490 F   0  0  0  0  0  0  0  0  0  0  0  0
  196.8160  172.4240  146.3870 O   0  0  0  0  0  0  0  0  0  0  0  0
  197.7940  172.2570  145.3850 C   0  0  1  0  0  3  0  0  0  0  0  0
  191.1700  177.5380  144.3210 C   0  0  0  0  0  1  0  0  0  0  0  0
  190.1160  176.7790  144.8350 O   0  0  0  0  0  0  0  0  0  0  0  0
  192.1010  173.5210  140.1820 C   0  0  2  0  0  3  0  0  0  0  0  0
  192.8420  174.8260  140.4360 C   0  0  0  0  0  1  0  0  0  0  0  0
  191.8140  172.8070  137.4360 O   0  0  0  0  0  0  0  0  0  0  0  0
  190.8610  173.4260  137.9820 C   0  0  0  0  0  0  0  0  0  0  0  0
  190.9290  173.7890  139.3610 N   0  0  0  0  0  2  0  0  0  0  0  0
  188.4020  173.3610  137.9710 C   0  0  0  0  0  1  0  0  0  0  0  0
  189.6430  173.7530  137.1940 C   0  0  0  0  0  2  0  0  0  0  0  0
  195.7210  169.2520  142.8960 C   0  0  0  0  0  2  0  0  0  0  0  0
  197.0020  168.8380  144.8510 O   0  0  0  0  0  0  0  0  0  0  0  0
  195.8560  169.0330  144.3680 C   0  0  0  0  0  0  0  0  0  0  0  0
  194.8260  169.3510  146.6990 C   0  0  0  0  0  1  0  0  0  0  0  0
  193.5010  168.8040  144.7770 N   0  0  0  0  0  2  0  0  0  0  0  0
  194.6780  169.0500  145.2470 C   0  0  0  0  0  0  0  0  0  0  0  0
  1 41  1  6  0  0  0
  1 17  1  0  0  0  0
  2 15  1  0  0  0  0
  3  4  1  0  0  0  0
  4 10  1  0  0  0  0
  5 34  1  0  0  0  0
  6 49  1  0  0  0  0
  6  5  1  0  0  0  0
  9 21  1  0  0  0  0
  9  8  2  0  0  0  0
 10 20  1  0  0  0  0
 10  9  1  0  0  0  0
 12 14  1  0  0  0  0
 12  1  1  0  0  0  0
 13 22  1  0  0  0  0
 14 23  1  0  0  0  0
 15  5  1  0  0  0  0
 15 11  1  0  0  0  0
 16  2  1  0  0  0  0
 16 14  1  0  0  0  0
 17  7  1  0  0  0  0
 17 31  1  0  0  0  0
 18  6  1  0  0  0  0
 18  2  1  0  0  0  0
 19  4  1  0  0  0  0
 19 13  1  0  0  0  0
 20 18  1  0  0  0  0
 21 16  1  0  0  0  0
 22 20  1  0  0  0  0
 23 11  1  0  0  0  0
 23  7  1  0  0  0  0
 24 26  1  0  0  0  0
 25 28  2  0  0  0  0
 25 27  1  0  0  0  0
 27 29  2  0  0  0  0
 28 24  1  0  0  0  0
 29 26  1  0  0  0  0
 29 12  1  0  0  0  0
 30 31  1  0  0  0  0
 31 33  1  0  0  0  0
 31 32  1  0  0  0  0
 34 39  1  0  0  0  0
 35 34  2  0  0  0  0
 36 38  1  0  0  0  0
 37 36  1  0  0  0  0
 39 36  1  0  0  0  0
 39 38  1  0  0  0  0
 40 41  1  0  0  0  0
 42 43  1  0  0  0  0
 42 21  1  0  0  0  0
 44 45  2  0  0  0  0
 45 46  1  0  0  0  0
 46 42  1  0  0  0  0
 48 47  1  0  0  0  0
 48 45  1  0  0  0  0
 49 51  1  0  0  0  0
 51 50  2  0  0  0  0
 51 54  1  0  0  0  0
 53 54  2  0  0  0  0
 54 52  1  0  0  0  0
M  END
>  <MODEL>
8

>  <REMARK>
 VINA RESULT:      -5.6      4.260      9.482
  Name = 
  11 active torsions:
  status: ('A' for Active; 'I' for Inactive)
    1  A    between atoms: C_2  and  O_32
    2  A    between atoms: C_5  and  C_12
    3  A    between atoms: C_5  and  C_53
    4  A    between atoms: C_11  and  N_39
    5  A    between atoms: C_11  and  C_49
    6  A    between atoms: C_13  and  C_18
    7  A    between atoms: C_18  and  C_37
    8  A    between atoms: C_21  and  C_44
    9  A    between atoms: C_29  and  C_38
   10  A    between atoms: C_34  and  C_40
   11  A    between atoms: C_37  and  C_45
                            x       y       z     vdW  Elec       q    Type
                         _______ _______ _______ _____ _____    ______ ____

>  <TORSDO>
F 11

$$$$
=
 OpenBabel11062418323D

 54 60  0  0  1  0  0  0  0  0999 V2000
  192.2590  171.3060  137.5180 C   0  0  1  0  0  3  0  0  0  0  0  0
  192.0020  173.7650  141.9770 C   0  0  1  0  0  3  0  0  0  0  0  0
  197.1060  173.6660  144.0010 O   0  0  0  0  0  1  0  0  0  0  0  0
  195.8040  173.6120  144.5020 C   0  0  2  0  0  3  0  0  0  0  0  0
  189.9020  174.5920  142.7610 C   0  0  2  0  0  3  0  0  0  0  0  0
  190.9840  175.1380  143.6940 C   0  0  2  0  0  3  0  0  0  0  0  0
  190.2310  171.5920  138.9230 C   0  0  0  0  0  2  0  0  0  0  0  0
  194.8060  171.8730  142.5180 O   0  0  0  0  0  0  0  0  0  0  0  0
  194.7250  173.0730  142.3020 C   0  0  0  0  0  0  0  0  0  0  0  0
  194.8030  174.0630  143.4260 C   0  0  1  0  0  3  0  0  0  0  0  0
  190.0550  172.9560  140.8050 C   0  0  0  0  0  2  0  0  0  0  0  0
  193.0000  172.2660  138.4790 C   0  0  1  0  0  3  0  0  0  0  0  0
  194.2390  174.6460  146.1340 C   0  0  0  0  0  2  0  0  0  0  0  0
  192.2550  172.4830  139.8340 C   0  0  1  0  0  3  0  0  0  0  0  0
  190.6340  174.1520  141.5220 C   0  0  2  0  0  3  0  0  0  0  0  0
  192.8530  173.6440  140.7010 C   0  0  2  0  0  3  0  0  0  0  0  0
  190.7410  171.5250  137.4950 C   0  0  2  0  0  3  0  0  0  0  0  0
  192.3550  174.8020  143.0400 C   0  0  1  0  0  3  0  0  0  0  0  0
  195.7060  174.4820  145.7530 C   0  0  0  0  0  2  0  0  0  0  0  0
  193.4200  174.3140  144.0540 C   0  0  2  0  0  3  0  0  0  0  0  0
  194.3740  173.5630  140.9260 C   0  0  1  0  0  3  0  0  0  0  0  0
  193.5540  175.2730  145.0780 O   0  0  0  0  0  0  0  0  0  0  0  0
  190.8170  172.7510  139.5700 N   0  0  1  0  0  0  0  0  0  0  0  0
  196.0520  170.5120  140.0930 C   0  0  0  0  0  2  0  0  0  0  0  0
  196.7750  171.7680  138.0950 C   0  0  0  0  0  3  0  0  0  0  0  0
  194.6450  170.4980  139.4860 C   0  0  0  0  0  2  0  0  0  0  0  0
  195.3980  172.2830  137.9630 C   0  0  0  0  0  3  0  0  0  0  0  0
  197.0810  170.9040  139.0670 C   0  0  0  0  0  3  0  0  0  0  0  0
  194.3950  171.7420  138.6650 C   0  0  0  0  0  0  0  0  0  0  0  0
  189.4500  170.9340  135.5570 F   0  0  0  0  0  0  0  0  0  0  0  0
  190.0010  170.4240  136.7220 C   0  0  0  0  0  0  0  0  0  0  0  0
  190.8850  169.4110  136.3940 F   0  0  0  0  0  0  0  0  0  0  0  0
  188.9950  169.8860  137.5050 F   0  0  0  0  0  0  0  0  0  0  0  0
  188.8870  175.6480  142.4330 C   0  0  0  0  0  0  0  0  0  0  0  0
  189.2390  176.8040  142.2520 O   0  0  0  0  0  0  0  0  0  0  0  0
  186.6160  175.9500  143.4570 C   0  0  1  0  0  3  0  0  0  0  0  0
  187.3520  176.7830  144.2850 F   0  0  0  0  0  0  0  0  0  0  0  0
  186.6560  176.4560  142.1460 O   0  0  0  0  0  0  0  0  0  0  0  0
  187.4270  175.2990  142.3850 C   0  0  1  0  0  3  0  0  0  0  0  0
  192.4090  172.7250  135.8170 C   0  0  0  0  0  1  0  0  0  0  0  0
  192.7790  171.4420  136.2270 O   0  0  0  0  0  0  0  0  0  0  0  0
  195.0650  174.8950  140.5940 C   0  0  2  0  0  3  0  0  0  0  0  0
  194.0550  176.0190  140.4030 C   0  0  0  0  0  1  0  0  0  0  0  0
  197.7150  175.8870  140.2460 O   0  0  0  0  0  0  0  0  0  0  0  0
  197.1770  175.3020  139.2670 C   0  0  0  0  0  0  0  0  0  0  0  0
  195.8620  174.7580  139.3830 N   0  0  0  0  0  2  0  0  0  0  0  0
  197.0180  175.4550  136.8180 C   0  0  0  0  0  1  0  0  0  0  0  0
  197.9260  175.1490  137.9920 C   0  0  0  0  0  2  0  0  0  0  0  0
  190.7690  174.5220  145.0770 C   0  0  0  0  0  2  0  0  0  0  0  0
  188.8590  175.0320  146.3920 O   0  0  0  0  0  0  0  0  0  0  0  0
  189.9630  175.4360  145.9410 C   0  0  0  0  0  0  0  0  0  0  0  0
  190.2210  177.9170  145.3290 C   0  0  0  0  0  1  0  0  0  0  0  0
  191.0690  177.0090  147.3790 N   0  0  0  0  0  2  0  0  0  0  0  0
  190.4450  176.7850  146.2710 C   0  0  0  0  0  0  0  0  0  0  0  0
  1 41  1  6  0  0  0
  1 12  1  0  0  0  0
  2 18  1  0  0  0  0
  3  4  1  0  0  0  0
  4 19  1  0  0  0  0
  5  6  1  0  0  0  0
  6 49  1  0  0  0  0
  7 23  1  0  0  0  0
  9  8  2  0  0  0  0
  9 10  1  0  0  0  0
 10 20  1  0  0  0  0
 10  4  1  0  0  0  0
 11 15  1  0  0  0  0
 12 29  1  0  0  0  0
 12 14  1  0  0  0  0
 14 16  1  0  0  0  0
 15  2  1  0  0  0  0
 15  5  1  0  0  0  0
 16 21  1  0  0  0  0
 16  2  1  0  0  0  0
 17  1  1  0  0  0  0
 17  7  1  0  0  0  0
 18  6  1  0  0  0  0
 18 20  1  0  0  0  0
 19 13  1  0  0  0  0
 20 22  1  0  0  0  0
 21  9  1  0  0  0  0
 22 13  1  0  0  0  0
 23 14  1  0  0  0  0
 23 11  1  0  0  0  0
 25 28  2  0  0  0  0
 26 24  1  0  0  0  0
 27 25  1  0  0  0  0
 27 29  2  0  0  0  0
 28 24  1  0  0  0  0
 29 26  1  0  0  0  0
 30 31  1  0  0  0  0
 31 17  1  0  0  0  0
 31 33  1  0  0  0  0
 32 31  1  0  0  0  0
 34  5  1  0  0  0  0
 35 34  2  0  0  0  0
 36 37  1  0  0  0  0
 38 39  1  0  0  0  0
 38 36  1  0  0  0  0
 39 34  1  0  0  0  0
 39 36  1  0  0  0  0
 40 41  1  0  0  0  0
 42 21  1  0  0  0  0
 43 42  1  0  0  0  0
 45 46  1  0  0  0  0
 45 44  2  0  0  0  0
 46 42  1  0  0  0  0
 47 48  1  0  0  0  0
 48 45  1  0  0  0  0
 49 51  1  0  0  0  0
 51 54  1  0  0  0  0
 51 50  2  0  0  0  0
 52 54  1  0  0  0  0
 54 53  2  0  0  0  0
M  END
>  <MODEL>
9

>  <REMARK>
 VINA RESULT:      -5.6      2.714      4.352
  Name = 
  11 active torsions:
  status: ('A' for Active; 'I' for Inactive)
    1  A    between atoms: C_2  and  O_32
    2  A    between atoms: C_5  and  C_12
    3  A    between atoms: C_5  and  C_53
    4  A    between atoms: C_11  and  N_39
    5  A    between atoms: C_11  and  C_49
    6  A    between atoms: C_13  and  C_18
    7  A    between atoms: C_18  and  C_37
    8  A    between atoms: C_21  and  C_44
    9  A    between atoms: C_29  and  C_38
   10  A    between atoms: C_34  and  C_40
   11  A    between atoms: C_37  and  C_45
                            x       y       z     vdW  Elec       q    Type
                         _______ _______ _______ _____ _____    ______ ____

>  <TORSDO>
F 11

$$$$
