=
 OpenBabel11072408313D

 56 63  0  0  1  0  0  0  0  0999 V2000
  192.1330  172.9890  144.2170 C   0  0  0  0  0  0  0  0  0  0  0  0
  191.9030  169.9180  142.0260 C   0  0  2  0  0  3  0  0  0  0  0  0
  191.0810  170.8740  139.7260 C   0  0  0  0  0  2  0  0  0  0  0  0
  191.8630  169.6530  139.2220 C   0  0  2  0  0  3  0  0  0  0  0  0
  192.2020  170.6130  143.3690 C   0  0  0  0  0  2  0  0  0  0  0  0
  192.7280  172.6980  145.3020 O   0  0  0  0  0  0  0  0  0  0  0  0
  193.2040  169.6960  141.2630 C   0  0  0  0  0  3  0  0  0  0  0  0
  190.4760  174.3760  142.9810 N   0  0  2  0  0  0  0  0  0  0  0  0
  191.5150  174.3590  144.0470 C   0  0  1  0  0  3  0  0  0  0  0  0
  191.3760  172.2450  141.9080 C   0  0  2  0  0  0  0  0  0  0  0  0
  192.1190  172.0390  143.1450 N   0  0  0  0  0  0  0  0  0  0  0  0
  190.3680  173.3690  141.9190 C   0  0  2  0  0  3  0  0  0  0  0  0
  190.9870  170.9110  141.2710 C   0  0  2  0  0  3  0  0  0  0  0  0
  191.6330  173.4470  141.0370 C   0  0  0  0  0  2  0  0  0  0  0  0
  193.1950  169.5770  139.9180 C   0  0  0  0  0  3  0  0  0  0  0  0
  187.6820  177.8910  143.1300 C   0  0  1  0  0  3  0  0  0  0  0  0
  189.5300  175.4620  142.9200 C   0  0  2  0  0  3  0  0  0  0  0  0
  187.7730  176.5290  142.5360 N   0  0  2  0  0  0  0  0  0  0  0  0
  188.2130  175.2490  142.7730 C   0  0  0  0  0  2  0  0  0  0  0  0
  189.9280  176.9570  142.6830 C   0  0  0  0  0  2  0  0  0  0  0  0
  188.6400  177.6690  142.1800 C   0  0  2  0  0  3  0  0  0  0  0  0
  186.1550  178.2790  141.2380 F   0  0  0  0  0  0  0  0  0  0  0  0
  186.5070  178.6950  142.5440 C   0  0  1  0  0  3  0  0  0  0  0  0
  184.7680  180.0070  144.2140 O   0  0  0  0  0  1  0  0  0  0  0  0
  184.9860  178.6460  143.5860 P   0  0  0  0  0  0  0  0  0  0  0  0
  183.6590  178.2570  142.5970 O   0  0  0  0  0  0  0  0  0  0  0  0
  185.1100  177.4570  144.8060 O   0  0  0  0  0  1  0  0  0  0  0  0
  191.0220  174.9150  145.3830 C   0  0  0  0  0  0  0  0  0  0  0  0
  190.1520  174.2800  146.0590 O   0  0  0  0  0  0  0  0  0  0  0  0
  191.5590  176.1590  145.8670 N   0  0  0  0  0  0  0  0  0  0  0  0
  192.7770  176.6040  145.7880 C   0  0  0  0  0  3  0  0  0  0  0  0
  193.9180  175.8630  145.1470 C   0  0  2  0  0  3  0  0  0  0  0  0
  194.9170  175.4030  146.1920 C   0  0  0  0  0  1  0  0  0  0  0  0
  194.5980  176.6440  144.0010 C   0  0  0  0  0  2  0  0  0  0  0  0
  195.6450  175.9490  143.2240 N   0  0  0  0  0  0  0  0  0  0  0  0
  196.8200  176.6180  143.3050 O   0  0  0  0  0  1  0  0  0  0  0  0
  196.4740  175.6630  140.9560 C   0  0  0  0  0  1  0  0  0  0  0  0
  195.2510  175.8700  141.8240 C   0  0  0  0  0  2  0  0  0  0  0  0
  191.9560  169.5510  137.6980 C   0  0  0  0  0  0  0  0  0  0  0  0
  192.6130  168.6070  137.1750 O   0  0  0  0  0  0  0  0  0  0  0  0
  190.3920  170.0540  135.9990 O   0  0  0  0  0  0  0  0  0  0  0  0
  191.2000  170.5010  136.8580 C   0  0  0  0  0  0  0  0  0  0  0  0
  191.5500  171.9860  136.8670 C   0  0  2  0  0  3  0  0  0  0  0  0
  191.2030  173.7250  135.2830 C   0  0  2  0  0  3  0  0  0  0  0  0
  190.0130  174.1690  134.9160 C   0  0  0  0  0  0  0  0  0  0  0  0
  189.0510  175.4350  134.5130 S   0  0  0  0  0  0  0  0  0  0  0  0
  190.5290  172.6930  134.5750 N   0  0  0  0  0  0  0  0  0  0  0  0
  190.5350  172.9280  136.1410 C   0  0  1  0  0  0  0  0  0  0  0  0
  189.1010  172.7790  136.8170 C   0  0  0  0  0  2  0  0  0  0  0  0
  189.0550  173.3870  138.1500 N   0  0  0  0  0  0  0  0  0  0  0  0
  188.2860  172.4820  138.9860 C   0  0  0  0  0  1  0  0  0  0  0  0
  188.2150  174.5570  137.9880 C   0  0  0  0  0  1  0  0  0  0  0  0
  193.0110  172.2060  136.4890 C   0  0  0  0  0  2  0  0  0  0  0  0
  193.9850  172.7130  137.9460 S   0  0  0  0  0  0  0  0  0  0  0  0
  194.6150  174.1950  137.1020 C   0  0  0  0  0  2  0  0  0  0  0  0
  193.9120  175.4300  137.6320 C   0  0  0  0  0  1  0  0  0  0  0  0
  1  6  2  0  0  0  0
  2  7  1  6  0  0  0
  2  5  1  0  0  0  0
  4 39  1  6  0  0  0
  4  3  1  0  0  0  0
  4 15  1  0  0  0  0
  8 17  1  6  0  0  0
  8  9  1  0  0  0  0
  9  1  1  0  0  0  0
  9 28  1  1  0  0  0
 10 14  1  6  0  0  0
 10 12  1  0  0  0  0
 10 11  1  0  0  0  0
 11  5  1  0  0  0  0
 11  1  1  0  0  0  0
 12 14  1  6  0  0  0
 12  8  1  0  0  0  0
 13  3  1  6  0  0  0
 13 10  1  0  0  0  0
 13  2  1  0  0  0  0
 15  7  2  0  0  0  0
 16 23  1  6  0  0  0
 17 20  1  6  0  0  0
 18 19  1  1  0  0  0
 18 16  1  0  0  0  0
 19 17  1  0  0  0  0
 21 18  1  0  0  0  0
 21 20  1  1  0  0  0
 21 16  1  0  0  0  0
 23 22  1  6  0  0  0
 23 25  1  0  0  0  0
 25 24  1  0  0  0  0
 25 27  1  0  0  0  0
 26 25  2  0  0  0  0
 28 30  1  0  0  0  0
 28 29  2  0  0  0  0
 31 30  2  0  0  0  0
 32 31  1  0  0  0  0
 32 33  1  1  0  0  0
 34 32  1  0  0  0  0
 35 36  1  0  0  0  0
 35 34  1  0  0  0  0
 37 38  1  0  0  0  0
 38 35  1  0  0  0  0
 40 39  2  0  0  0  0
 41 42  2  0  0  0  0
 42 43  1  0  0  0  0
 42 39  1  0  0  0  0
 43 53  1  6  0  0  0
 44 45  1  6  0  0  0
 44 48  1  0  0  0  0
 46 45  2  0  0  0  0
 47 45  1  0  0  0  0
 47 44  1  0  0  0  0
 47 48  1  0  0  0  0
 48 49  1  1  0  0  0
 48 43  1  0  0  0  0
 49 50  1  0  0  0  0
 50 51  1  0  0  0  0
 52 50  1  0  0  0  0
 53 54  1  0  0  0  0
 55 56  1  0  0  0  0
 55 54  1  0  0  0  0
M  END
>  <MODEL>
1

>  <REMARK>
 VINA RESULT:      -5.8      0.000      0.000
  Name = 
  18 active torsions:
  status: ('A' for Active; 'I' for Inactive)
    1  A    between atoms: C_5  and  N_27
    2  A    between atoms: C_5  and  C_36
    3  A    between atoms: P_6  and  C_55
    4  A    between atoms: C_8  and  C_39
    5  A    between atoms: C_10  and  C_55
    6  A    between atoms: N_12  and  C_18
    7  A    between atoms: N_12  and  C_26
    8  A    between atoms: C_13  and  C_18
    9  A    between atoms: C_13  and  C_47
   10  A    between atoms: S_14  and  C_15
   11  A    between atoms: S_14  and  C_33
   12  A    between atoms: N_19  and  C_48
   13  A    between atoms: C_21  and  N_30
   14  A    between atoms: C_25  and  C_33
   15  A    between atoms: C_25  and  C_35
   16  A    between atoms: C_25  and  C_42
   17  A    between atoms: C_35  and  C_39
   18  A    between atoms: C_42  and  C_48
                            x       y       z     vdW  Elec       q    Type
                         _______ _______ _______ _____ _____    ______ ____

>  <TORSDO>
F 18

$$$$
=
 OpenBabel11072408313D

 56 63  0  0  1  0  0  0  0  0999 V2000
  194.1430  174.4280  144.7730 C   0  0  0  0  0  0  0  0  0  0  0  0
  195.2300  170.9460  143.7840 C   0  0  2  0  0  3  0  0  0  0  0  0
  193.9470  170.5260  141.5350 C   0  0  0  0  0  2  0  0  0  0  0  0
  195.1730  169.6350  141.2910 C   0  0  2  0  0  3  0  0  0  0  0  0
  195.2460  172.1580  144.7350 C   0  0  0  0  0  2  0  0  0  0  0  0
  194.8600  174.8430  145.7380 O   0  0  0  0  0  0  0  0  0  0  0  0
  196.4480  170.9960  142.8680 C   0  0  0  0  0  3  0  0  0  0  0  0
  191.9760  174.4360  143.5480 N   0  0  2  0  0  0  0  0  0  0  0  0
  192.9600  175.2500  144.3110 C   0  0  1  0  0  3  0  0  0  0  0  0
  193.6940  172.6190  143.0450 C   0  0  2  0  0  0  0  0  0  0  0  0
  194.5110  173.2230  144.0900 N   0  0  0  0  0  0  0  0  0  0  0  0
  192.2860  173.1490  142.9140 C   0  0  2  0  0  3  0  0  0  0  0  0
  193.9250  171.1110  142.9680 C   0  0  2  0  0  3  0  0  0  0  0  0
  193.3300  173.3880  141.8010 C   0  0  0  0  0  2  0  0  0  0  0  0
  196.4270  170.3780  141.6680 C   0  0  0  0  0  3  0  0  0  0  0  0
  187.9150  176.3080  143.1190 C   0  0  1  0  0  3  0  0  0  0  0  0
  190.6370  174.9320  143.3500 C   0  0  2  0  0  3  0  0  0  0  0  0
  188.5570  174.9660  143.1380 N   0  0  2  0  0  0  0  0  0  0  0  0
  189.5570  174.2280  143.7250 C   0  0  0  0  0  2  0  0  0  0  0  0
  190.2780  176.1310  142.4110 C   0  0  0  0  0  2  0  0  0  0  0  0
  188.7620  175.9890  142.0940 C   0  0  2  0  0  3  0  0  0  0  0  0
  185.5640  175.8590  143.6970 F   0  0  0  0  0  0  0  0  0  0  0  0
  186.4480  176.2360  142.6570 C   0  0  1  0  0  3  0  0  0  0  0  0
  186.6180  178.9710  142.4900 O   0  0  0  0  0  1  0  0  0  0  0  0
  185.8270  177.8100  141.9240 P   0  0  0  0  0  0  0  0  0  0  0  0
  186.0390  177.7470  140.2380 O   0  0  0  0  0  0  0  0  0  0  0  0
  184.1640  178.0290  142.2440 O   0  0  0  0  0  1  0  0  0  0  0  0
  192.3370  176.0240  145.4740 C   0  0  0  0  0  0  0  0  0  0  0  0
  192.3670  177.2950  145.4870 O   0  0  0  0  0  0  0  0  0  0  0  0
  191.7120  175.2960  146.5460 N   0  0  0  0  0  0  0  0  0  0  0  0
  190.5700  175.5220  147.1240 C   0  0  0  0  0  3  0  0  0  0  0  0
  189.6390  176.6470  146.7680 C   0  0  2  0  0  3  0  0  0  0  0  0
  189.8760  177.8480  147.6650 C   0  0  0  0  0  1  0  0  0  0  0  0
  188.1510  176.2340  146.7360 C   0  0  0  0  0  2  0  0  0  0  0  0
  187.1460  177.2600  147.0820 N   0  0  0  0  0  0  0  0  0  0  0  0
  186.0190  176.6800  147.5600 O   0  0  0  0  0  1  0  0  0  0  0  0
  185.4770  178.7360  146.1070 C   0  0  0  0  0  1  0  0  0  0  0  0
  186.8030  178.0350  145.8970 C   0  0  0  0  0  2  0  0  0  0  0  0
  195.2250  169.0040  139.8970 C   0  0  0  0  0  0  0  0  0  0  0  0
  196.1840  168.2400  139.5940 O   0  0  0  0  0  0  0  0  0  0  0  0
  193.4020  168.2390  138.6040 O   0  0  0  0  0  0  0  0  0  0  0  0
  194.1070  169.2220  138.9590 C   0  0  0  0  0  0  0  0  0  0  0  0
  193.9430  170.5640  138.2520 C   0  0  2  0  0  3  0  0  0  0  0  0
  193.1020  170.9680  136.0650 C   0  0  2  0  0  3  0  0  0  0  0  0
  191.8260  170.8740  135.7300 C   0  0  0  0  0  0  0  0  0  0  0  0
  190.5520  171.4570  134.8780 S   0  0  0  0  0  0  0  0  0  0  0  0
  192.7020  169.6080  136.1690 N   0  0  0  0  0  0  0  0  0  0  0  0
  192.6940  170.6940  137.3200 C   0  0  1  0  0  0  0  0  0  0  0  0
  191.3710  170.6780  138.2080 C   0  0  0  0  0  2  0  0  0  0  0  0
  191.4100  171.6860  139.2720 N   0  0  0  0  0  0  0  0  0  0  0  0
  190.3480  171.3410  140.2000 C   0  0  0  0  0  1  0  0  0  0  0  0
  190.9700  172.9100  138.6310 C   0  0  0  0  0  1  0  0  0  0  0  0
  195.2590  171.0170  137.6260 C   0  0  0  0  0  2  0  0  0  0  0  0
  195.8980  172.5030  138.4710 S   0  0  0  0  0  0  0  0  0  0  0  0
  196.4150  173.2630  136.9040 C   0  0  0  0  0  2  0  0  0  0  0  0
  196.7640  172.1840  135.8950 C   0  0  0  0  0  1  0  0  0  0  0  0
  1  6  2  0  0  0  0
  2  7  1  6  0  0  0
  2  5  1  0  0  0  0
  4 39  1  6  0  0  0
  4  3  1  0  0  0  0
  4 15  1  0  0  0  0
  8 17  1  6  0  0  0
  8  9  1  0  0  0  0
  9  1  1  0  0  0  0
  9 28  1  1  0  0  0
 10 14  1  6  0  0  0
 10 11  1  0  0  0  0
 11  5  1  0  0  0  0
 11  1  1  0  0  0  0
 12 14  1  6  0  0  0
 12 10  1  0  0  0  0
 12  8  1  0  0  0  0
 13  3  1  6  0  0  0
 13 10  1  0  0  0  0
 13  2  1  0  0  0  0
 15  7  2  0  0  0  0
 16 23  1  6  0  0  0
 16 18  1  0  0  0  0
 17 20  1  6  0  0  0
 17 19  1  0  0  0  0
 18 19  1  1  0  0  0
 21 20  1  1  0  0  0
 21 16  1  0  0  0  0
 21 18  1  0  0  0  0
 23 22  1  1  0  0  0
 25 27  1  0  0  0  0
 25 24  1  0  0  0  0
 25 23  1  0  0  0  0
 26 25  2  0  0  0  0
 28 29  2  0  0  0  0
 28 30  1  0  0  0  0
 30 31  2  0  0  0  0
 32 31  1  0  0  0  0
 32 33  1  1  0  0  0
 34 32  1  0  0  0  0
 34 35  1  0  0  0  0
 35 36  1  0  0  0  0
 38 37  1  0  0  0  0
 38 35  1  0  0  0  0
 40 39  2  0  0  0  0
 41 42  2  0  0  0  0
 42 39  1  0  0  0  0
 43 53  1  6  0  0  0
 43 42  1  0  0  0  0
 44 45  1  6  0  0  0
 44 47  1  0  0  0  0
 44 48  1  0  0  0  0
 45 47  1  0  0  0  0
 46 45  2  0  0  0  0
 47 48  1  0  0  0  0
 48 49  1  1  0  0  0
 48 43  1  0  0  0  0
 49 50  1  0  0  0  0
 50 51  1  0  0  0  0
 52 50  1  0  0  0  0
 53 54  1  0  0  0  0
 55 54  1  0  0  0  0
 56 55  1  0  0  0  0
M  END
>  <MODEL>
2

>  <REMARK>
 VINA RESULT:      -5.8      2.531      4.300
  Name = 
  18 active torsions:
  status: ('A' for Active; 'I' for Inactive)
    1  A    between atoms: C_5  and  N_27
    2  A    between atoms: C_5  and  C_36
    3  A    between atoms: P_6  and  C_55
    4  A    between atoms: C_8  and  C_39
    5  A    between atoms: C_10  and  C_55
    6  A    between atoms: N_12  and  C_18
    7  A    between atoms: N_12  and  C_26
    8  A    between atoms: C_13  and  C_18
    9  A    between atoms: C_13  and  C_47
   10  A    between atoms: S_14  and  C_15
   11  A    between atoms: S_14  and  C_33
   12  A    between atoms: N_19  and  C_48
   13  A    between atoms: C_21  and  N_30
   14  A    between atoms: C_25  and  C_33
   15  A    between atoms: C_25  and  C_35
   16  A    between atoms: C_25  and  C_42
   17  A    between atoms: C_35  and  C_39
   18  A    between atoms: C_42  and  C_48
                            x       y       z     vdW  Elec       q    Type
                         _______ _______ _______ _____ _____    ______ ____

>  <TORSDO>
F 18

$$$$
=
 OpenBabel11072408313D

 56 63  0  0  1  0  0  0  0  0999 V2000
  192.2060  172.9200  144.2090 C   0  0  0  0  0  0  0  0  0  0  0  0
  191.7350  169.6870  142.3090 C   0  0  2  0  0  3  0  0  0  0  0  0
  190.7560  170.4730  140.0060 C   0  0  0  0  0  2  0  0  0  0  0  0
  191.4680  169.1930  139.5480 C   0  0  2  0  0  3  0  0  0  0  0  0
  192.1540  170.4810  143.5610 C   0  0  0  0  0  2  0  0  0  0  0  0
  192.8780  172.7020  145.2660 O   0  0  0  0  0  0  0  0  0  0  0  0
  192.9660  169.3650  141.4700 C   0  0  0  0  0  3  0  0  0  0  0  0
  190.4890  174.2490  142.9900 N   0  0  2  0  0  0  0  0  0  0  0  0
  191.6080  174.2890  143.9710 C   0  0  1  0  0  3  0  0  0  0  0  0
  191.2530  172.0100  142.0360 C   0  0  2  0  0  0  0  0  0  0  0  0
  192.0860  171.8860  143.2240 N   0  0  0  0  0  0  0  0  0  0  0  0
  190.2750  173.1610  142.0280 C   0  0  2  0  0  3  0  0  0  0  0  0
  190.7850  170.6410  141.5450 C   0  0  2  0  0  3  0  0  0  0  0  0
  191.4680  173.1290  141.0490 C   0  0  0  0  0  2  0  0  0  0  0  0
  192.8480  169.1350  140.1440 C   0  0  0  0  0  3  0  0  0  0  0  0
  187.7830  177.8330  143.0670 C   0  0  1  0  0  3  0  0  0  0  0  0
  189.5660  175.3530  142.9100 C   0  0  2  0  0  3  0  0  0  0  0  0
  187.8200  176.4430  142.5390 N   0  0  2  0  0  0  0  0  0  0  0  0
  188.2400  175.1650  142.8230 C   0  0  0  0  0  2  0  0  0  0  0  0
  189.9890  176.8240  142.5850 C   0  0  0  0  0  2  0  0  0  0  0  0
  188.6980  177.5420  142.0950 C   0  0  2  0  0  3  0  0  0  0  0  0
  186.3090  178.2830  141.1470 F   0  0  0  0  0  0  0  0  0  0  0  0
  186.6050  178.6360  142.4860 C   0  0  1  0  0  3  0  0  0  0  0  0
  183.9160  178.0860  142.5550 O   0  0  0  0  0  0  0  0  0  0  0  0
  185.0530  178.4880  143.4710 P   0  0  0  0  0  0  0  0  0  0  0  0
  185.2740  177.2930  144.6600 O   0  0  0  0  0  1  0  0  0  0  0  0
  184.6740  179.9570  144.2550 O   0  0  0  0  0  1  0  0  0  0  0  0
  191.2350  174.9670  145.2900 C   0  0  0  0  0  0  0  0  0  0  0  0
  190.4030  174.4180  146.0790 O   0  0  0  0  0  0  0  0  0  0  0  0
  191.8400  176.2290  145.6260 N   0  0  0  0  0  0  0  0  0  0  0  0
  193.0850  176.5840  145.5270 C   0  0  0  0  0  3  0  0  0  0  0  0
  194.1900  175.6980  145.0210 C   0  0  2  0  0  3  0  0  0  0  0  0
  195.1510  175.3410  146.1400 C   0  0  0  0  0  1  0  0  0  0  0  0
  194.9250  176.2680  143.7870 C   0  0  0  0  0  2  0  0  0  0  0  0
  194.4810  175.8120  142.4540 N   0  0  0  0  0  0  0  0  0  0  0  0
  194.7440  174.4930  142.2900 O   0  0  0  0  0  1  0  0  0  0  0  0
  195.6720  175.6100  140.3430 C   0  0  0  0  0  1  0  0  0  0  0  0
  195.1820  176.5580  141.4170 C   0  0  0  0  0  2  0  0  0  0  0  0
  191.4380  168.9630  138.0350 C   0  0  0  0  0  0  0  0  0  0  0  0
  190.3430  168.6890  137.4680 O   0  0  0  0  0  0  0  0  0  0  0  0
  193.6190  168.3350  137.3790 O   0  0  0  0  0  0  0  0  0  0  0  0
  192.6710  169.1550  137.2470 C   0  0  0  0  0  0  0  0  0  0  0  0
  192.8900  170.4430  136.4590 C   0  0  2  0  0  3  0  0  0  0  0  0
  194.6790  169.9360  134.9770 C   0  0  2  0  0  3  0  0  0  0  0  0
  195.8290  170.5880  134.9500 C   0  0  0  0  0  0  0  0  0  0  0  0
  197.4600  170.5480  134.7930 S   0  0  0  0  0  0  0  0  0  0  0  0
  194.4390  171.2640  134.5310 N   0  0  0  0  0  0  0  0  0  0  0  0
  194.3620  170.7300  136.0190 C   0  0  1  0  0  0  0  0  0  0  0  0
  195.0510  171.6960  137.0830 C   0  0  0  0  0  2  0  0  0  0  0  0
  195.2660  171.0300  138.3720 N   0  0  0  0  0  0  0  0  0  0  0  0
  194.9930  172.0240  139.3950 C   0  0  0  0  0  1  0  0  0  0  0  0
  196.6980  170.8080  138.4330 C   0  0  0  0  0  1  0  0  0  0  0  0
  192.1800  171.6190  137.1230 C   0  0  0  0  0  2  0  0  0  0  0  0
  190.9690  172.3700  135.9830 S   0  0  0  0  0  0  0  0  0  0  0  0
  191.7030  174.0220  136.1730 C   0  0  0  0  0  2  0  0  0  0  0  0
  192.3370  174.1510  137.5450 C   0  0  0  0  0  1  0  0  0  0  0  0
  1  6  2  0  0  0  0
  2  7  1  6  0  0  0
  2  5  1  0  0  0  0
  4 39  1  6  0  0  0
  4  3  1  0  0  0  0
  4 15  1  0  0  0  0
  8 17  1  6  0  0  0
  8  9  1  0  0  0  0
  9  1  1  0  0  0  0
  9 28  1  1  0  0  0
 10 14  1  6  0  0  0
 10 11  1  0  0  0  0
 11  5  1  0  0  0  0
 11  1  1  0  0  0  0
 12 14  1  6  0  0  0
 12 10  1  0  0  0  0
 12  8  1  0  0  0  0
 13  3  1  6  0  0  0
 13 10  1  0  0  0  0
 13  2  1  0  0  0  0
 15  7  2  0  0  0  0
 16 23  1  6  0  0  0
 17 20  1  6  0  0  0
 18 19  1  1  0  0  0
 18 16  1  0  0  0  0
 19 17  1  0  0  0  0
 21 18  1  0  0  0  0
 21 20  1  1  0  0  0
 21 16  1  0  0  0  0
 23 22  1  6  0  0  0
 23 25  1  0  0  0  0
 24 25  2  0  0  0  0
 25 27  1  0  0  0  0
 25 26  1  0  0  0  0
 28 30  1  0  0  0  0
 28 29  2  0  0  0  0
 31 30  2  0  0  0  0
 32 31  1  0  0  0  0
 32 33  1  1  0  0  0
 34 32  1  0  0  0  0
 35 34  1  0  0  0  0
 36 35  1  0  0  0  0
 37 38  1  0  0  0  0
 38 35  1  0  0  0  0
 40 39  2  0  0  0  0
 42 41  2  0  0  0  0
 42 39  1  0  0  0  0
 43 53  1  1  0  0  0
 43 42  1  0  0  0  0
 44 45  1  1  0  0  0
 44 48  1  0  0  0  0
 46 45  2  0  0  0  0
 47 45  1  0  0  0  0
 47 44  1  0  0  0  0
 47 48  1  0  0  0  0
 48 43  1  0  0  0  0
 48 49  1  1  0  0  0
 49 50  1  0  0  0  0
 50 52  1  0  0  0  0
 50 51  1  0  0  0  0
 54 55  1  0  0  0  0
 54 53  1  0  0  0  0
 55 56  1  0  0  0  0
M  END
>  <MODEL>
3

>  <REMARK>
 VINA RESULT:      -5.5      1.798      3.028
  Name = 
  18 active torsions:
  status: ('A' for Active; 'I' for Inactive)
    1  A    between atoms: C_5  and  N_27
    2  A    between atoms: C_5  and  C_36
    3  A    between atoms: P_6  and  C_55
    4  A    between atoms: C_8  and  C_39
    5  A    between atoms: C_10  and  C_55
    6  A    between atoms: N_12  and  C_18
    7  A    between atoms: N_12  and  C_26
    8  A    between atoms: C_13  and  C_18
    9  A    between atoms: C_13  and  C_47
   10  A    between atoms: S_14  and  C_15
   11  A    between atoms: S_14  and  C_33
   12  A    between atoms: N_19  and  C_48
   13  A    between atoms: C_21  and  N_30
   14  A    between atoms: C_25  and  C_33
   15  A    between atoms: C_25  and  C_35
   16  A    between atoms: C_25  and  C_42
   17  A    between atoms: C_35  and  C_39
   18  A    between atoms: C_42  and  C_48
                            x       y       z     vdW  Elec       q    Type
                         _______ _______ _______ _____ _____    ______ ____

>  <TORSDO>
F 18

$$$$
=
 OpenBabel11072408313D

 56 63  0  0  1  0  0  0  0  0999 V2000
  193.0410  173.6510  144.9360 C   0  0  0  0  0  0  0  0  0  0  0  0
  193.2040  170.2600  143.2760 C   0  0  2  0  0  3  0  0  0  0  0  0
  192.4340  170.7500  140.8170 C   0  0  0  0  0  2  0  0  0  0  0  0
  193.3460  169.5440  140.5550 C   0  0  2  0  0  3  0  0  0  0  0  0
  193.3650  171.1870  144.4970 C   0  0  0  0  0  2  0  0  0  0  0  0
  193.5970  173.5960  146.0780 O   0  0  0  0  0  0  0  0  0  0  0  0
  194.5600  170.0420  142.6150 C   0  0  0  0  0  3  0  0  0  0  0  0
  191.3440  174.6580  143.4190 N   0  0  2  0  0  0  0  0  0  0  0  0
  192.3180  174.9110  144.5150 C   0  0  1  0  0  3  0  0  0  0  0  0
  192.4840  172.4760  142.7530 C   0  0  2  0  0  0  0  0  0  0  0  0
  193.1710  172.5440  144.0360 N   0  0  0  0  0  0  0  0  0  0  0  0
  191.3840  173.4870  142.5340 C   0  0  2  0  0  3  0  0  0  0  0  0
  192.2500  171.0270  142.3290 C   0  0  2  0  0  3  0  0  0  0  0  0
  192.6860  173.5420  141.7060 C   0  0  0  0  0  2  0  0  0  0  0  0
  194.6380  169.7070  141.3100 C   0  0  0  0  0  3  0  0  0  0  0  0
  188.2110  177.8350  142.8970 C   0  0  1  0  0  3  0  0  0  0  0  0
  190.3120  175.6250  143.1390 C   0  0  2  0  0  3  0  0  0  0  0  0
  188.5390  176.4660  142.4160 N   0  0  2  0  0  0  0  0  0  0  0  0
  189.0660  175.2570  142.8020 C   0  0  0  0  0  2  0  0  0  0  0  0
  190.5850  177.1420  142.8710 C   0  0  0  0  0  2  0  0  0  0  0  0
  189.3290  177.6790  142.1270 C   0  0  2  0  0  3  0  0  0  0  0  0
  187.1580  178.1850  140.7000 F   0  0  0  0  0  0  0  0  0  0  0  0
  187.0700  178.4720  142.0830 C   0  0  1  0  0  3  0  0  0  0  0  0
  184.4630  177.8720  141.4680 O   0  0  0  0  0  0  0  0  0  0  0  0
  185.3890  177.9830  142.6610 P   0  0  0  0  0  0  0  0  0  0  0  0
  185.4960  176.4740  143.4380 O   0  0  0  0  0  1  0  0  0  0  0  0
  184.7640  179.1140  143.7770 O   0  0  0  0  0  1  0  0  0  0  0  0
  191.7030  175.6260  145.7200 C   0  0  0  0  0  0  0  0  0  0  0  0
  192.1250  176.7740  146.0670 O   0  0  0  0  0  0  0  0  0  0  0  0
  190.6410  174.9840  146.4490 N   0  0  0  0  0  0  0  0  0  0  0  0
  189.4960  175.4760  146.8160 C   0  0  0  0  0  3  0  0  0  0  0  0
  189.0400  176.8820  146.5390 C   0  0  2  0  0  3  0  0  0  0  0  0
  189.5320  177.8300  147.6170 C   0  0  0  0  0  1  0  0  0  0  0  0
  187.5180  177.0060  146.3100 C   0  0  0  0  0  2  0  0  0  0  0  0
  186.6590  177.1950  147.4980 N   0  0  0  0  0  0  0  0  0  0  0  0
  186.2320  175.9990  147.9710 O   0  0  0  0  0  1  0  0  0  0  0  0
  185.8990  179.4450  146.9740 C   0  0  0  0  0  1  0  0  0  0  0  0
  185.4950  177.9960  147.1430 C   0  0  0  0  0  2  0  0  0  0  0  0
  193.5340  169.2070  139.0740 C   0  0  0  0  0  0  0  0  0  0  0  0
  194.6290  168.7160  138.6810 O   0  0  0  0  0  0  0  0  0  0  0  0
  191.4010  168.6130  138.2490 O   0  0  0  0  0  0  0  0  0  0  0  0
  192.4010  169.3720  138.1420 C   0  0  0  0  0  0  0  0  0  0  0  0
  192.5280  170.2880  136.9280 C   0  0  2  0  0  3  0  0  0  0  0  0
  190.7920  171.6060  135.9770 C   0  0  2  0  0  3  0  0  0  0  0  0
  190.3490  172.7380  136.4970 C   0  0  0  0  0  0  0  0  0  0  0  0
  189.8090  174.2690  136.2700 S   0  0  0  0  0  0  0  0  0  0  0  0
  190.1520  171.3210  137.2150 N   0  0  0  0  0  0  0  0  0  0  0  0
  191.6920  171.6080  136.9810 C   0  0  1  0  0  0  0  0  0  0  0  0
  192.3300  172.5930  138.0590 C   0  0  0  0  0  2  0  0  0  0  0  0
  193.5970  173.1680  137.5960 N   0  0  0  0  0  0  0  0  0  0  0  0
  194.6180  172.7050  138.5190 C   0  0  0  0  0  1  0  0  0  0  0  0
  193.4690  174.5890  137.8550 C   0  0  0  0  0  1  0  0  0  0  0  0
  192.3960  169.4980  135.6300 C   0  0  0  0  0  2  0  0  0  0  0  0
  193.6680  168.1930  135.5360 S   0  0  0  0  0  0  0  0  0  0  0  0
  194.8200  169.2760  134.6390 C   0  0  0  0  0  2  0  0  0  0  0  0
  195.7990  169.9080  135.6100 C   0  0  0  0  0  1  0  0  0  0  0  0
  1  6  2  0  0  0  0
  2  7  1  6  0  0  0
  2  5  1  0  0  0  0
  4 39  1  6  0  0  0
  4  3  1  0  0  0  0
  4 15  1  0  0  0  0
  8 17  1  6  0  0  0
  8  9  1  0  0  0  0
  9  1  1  0  0  0  0
  9 28  1  1  0  0  0
 10 14  1  6  0  0  0
 10 11  1  0  0  0  0
 11  5  1  0  0  0  0
 11  1  1  0  0  0  0
 12 14  1  6  0  0  0
 12 10  1  0  0  0  0
 12  8  1  0  0  0  0
 13  3  1  6  0  0  0
 13 10  1  0  0  0  0
 13  2  1  0  0  0  0
 15  7  2  0  0  0  0
 16 23  1  6  0  0  0
 17 19  1  6  0  0  0
 18 19  1  1  0  0  0
 18 16  1  0  0  0  0
 20 17  1  0  0  0  0
 21 18  1  0  0  0  0
 21 20  1  1  0  0  0
 21 16  1  0  0  0  0
 23 22  1  6  0  0  0
 23 25  1  0  0  0  0
 24 25  2  0  0  0  0
 25 26  1  0  0  0  0
 25 27  1  0  0  0  0
 28 29  2  0  0  0  0
 28 30  1  0  0  0  0
 30 31  2  0  0  0  0
 32 31  1  0  0  0  0
 32 33  1  1  0  0  0
 34 32  1  0  0  0  0
 34 35  1  0  0  0  0
 35 36  1  0  0  0  0
 37 38  1  0  0  0  0
 38 35  1  0  0  0  0
 40 39  2  0  0  0  0
 42 41  2  0  0  0  0
 42 39  1  0  0  0  0
 43 53  1  6  0  0  0
 43 48  1  0  0  0  0
 43 42  1  0  0  0  0
 44 45  1  1  0  0  0
 44 48  1  0  0  0  0
 44 47  1  0  0  0  0
 45 47  1  0  0  0  0
 46 45  2  0  0  0  0
 48 47  1  0  0  0  0
 48 49  1  1  0  0  0
 50 52  1  0  0  0  0
 50 49  1  0  0  0  0
 50 51  1  0  0  0  0
 54 53  1  0  0  0  0
 55 54  1  0  0  0  0
 55 56  1  0  0  0  0
M  END
>  <MODEL>
4

>  <REMARK>
 VINA RESULT:      -5.4      2.255      4.221
  Name = 
  18 active torsions:
  status: ('A' for Active; 'I' for Inactive)
    1  A    between atoms: C_5  and  N_27
    2  A    between atoms: C_5  and  C_36
    3  A    between atoms: P_6  and  C_55
    4  A    between atoms: C_8  and  C_39
    5  A    between atoms: C_10  and  C_55
    6  A    between atoms: N_12  and  C_18
    7  A    between atoms: N_12  and  C_26
    8  A    between atoms: C_13  and  C_18
    9  A    between atoms: C_13  and  C_47
   10  A    between atoms: S_14  and  C_15
   11  A    between atoms: S_14  and  C_33
   12  A    between atoms: N_19  and  C_48
   13  A    between atoms: C_21  and  N_30
   14  A    between atoms: C_25  and  C_33
   15  A    between atoms: C_25  and  C_35
   16  A    between atoms: C_25  and  C_42
   17  A    between atoms: C_35  and  C_39
   18  A    between atoms: C_42  and  C_48
                            x       y       z     vdW  Elec       q    Type
                         _______ _______ _______ _____ _____    ______ ____

>  <TORSDO>
F 18

$$$$
=
 OpenBabel11072408313D

 56 63  0  0  1  0  0  0  0  0999 V2000
  192.8000  173.5110  144.7580 C   0  0  0  0  0  0  0  0  0  0  0  0
  192.5900  170.1130  143.1160 C   0  0  2  0  0  3  0  0  0  0  0  0
  191.6130  170.6460  140.7410 C   0  0  0  0  0  2  0  0  0  0  0  0
  192.4190  169.3850  140.4000 C   0  0  2  0  0  3  0  0  0  0  0  0
  192.9260  171.0310  144.3080 C   0  0  0  0  0  2  0  0  0  0  0  0
  193.4610  173.4240  145.8410 O   0  0  0  0  0  0  0  0  0  0  0  0
  193.8580  169.8110  142.3270 C   0  0  0  0  0  3  0  0  0  0  0  0
  191.0260  174.6180  143.4070 N   0  0  2  0  0  0  0  0  0  0  0  0
  192.1170  174.8120  144.4000 C   0  0  1  0  0  3  0  0  0  0  0  0
  191.9600  172.3690  142.6490 C   0  0  2  0  0  0  0  0  0  0  0  0
  192.7720  172.3960  143.8580 N   0  0  0  0  0  0  0  0  0  0  0  0
  190.9070  173.4460  142.5320 C   0  0  2  0  0  3  0  0  0  0  0  0
  191.5960  170.9360  142.2620 C   0  0  2  0  0  3  0  0  0  0  0  0
  192.1220  173.4180  141.5790 C   0  0  0  0  0  2  0  0  0  0  0  0
  193.7870  169.4700  141.0230 C   0  0  0  0  0  3  0  0  0  0  0  0
  188.0500  177.9750  143.1770 C   0  0  1  0  0  3  0  0  0  0  0  0
  190.0330  175.6470  143.2220 C   0  0  2  0  0  3  0  0  0  0  0  0
  188.2610  176.5990  142.6520 N   0  0  2  0  0  0  0  0  0  0  0  0
  188.7460  175.3550  142.9780 C   0  0  0  0  0  2  0  0  0  0  0  0
  190.3710  177.1510  142.9550 C   0  0  0  0  0  2  0  0  0  0  0  0
  189.0940  177.7710  142.3180 C   0  0  2  0  0  3  0  0  0  0  0  0
  187.0000  178.6450  141.0530 F   0  0  0  0  0  0  0  0  0  0  0  0
  186.8880  178.6900  142.4630 C   0  0  1  0  0  3  0  0  0  0  0  0
  185.3940  176.8570  143.8580 O   0  0  0  0  0  1  0  0  0  0  0  0
  185.2260  178.0360  142.9230 P   0  0  0  0  0  0  0  0  0  0  0  0
  184.3550  179.2660  143.7110 O   0  0  0  0  0  1  0  0  0  0  0  0
  184.3430  177.5590  141.5410 O   0  0  0  0  0  0  0  0  0  0  0  0
  191.6690  175.5650  145.6540 C   0  0  0  0  0  0  0  0  0  0  0  0
  192.2480  176.6450  145.9940 O   0  0  0  0  0  0  0  0  0  0  0  0
  190.5830  175.0390  146.4380 N   0  0  0  0  0  0  0  0  0  0  0  0
  189.5260  175.6540  146.8780 C   0  0  0  0  0  3  0  0  0  0  0  0
  189.2230  177.1080  146.6440 C   0  0  2  0  0  3  0  0  0  0  0  0
  189.7750  177.9620  147.7700 C   0  0  0  0  0  1  0  0  0  0  0  0
  187.7280  177.3950  146.3800 C   0  0  0  0  0  2  0  0  0  0  0  0
  186.8830  177.7470  147.5400 N   0  0  0  0  0  0  0  0  0  0  0  0
  186.1380  176.6830  147.9250 O   0  0  0  0  0  1  0  0  0  0  0  0
  184.6030  178.2920  146.8900 C   0  0  0  0  0  1  0  0  0  0  0  0
  185.9850  178.8370  147.1840 C   0  0  0  0  0  2  0  0  0  0  0  0
  192.4390  169.0350  138.9100 C   0  0  0  0  0  0  0  0  0  0  0  0
  191.6390  168.1660  138.4630 O   0  0  0  0  0  0  0  0  0  0  0  0
  194.1510  169.1480  137.2850 O   0  0  0  0  0  0  0  0  0  0  0  0
  193.3290  169.7830  138.0000 C   0  0  0  0  0  0  0  0  0  0  0  0
  193.4170  171.3040  138.0850 C   0  0  2  0  0  3  0  0  0  0  0  0
  193.2390  172.2120  135.8940 C   0  0  2  0  0  3  0  0  0  0  0  0
  192.1470  172.7810  135.4120 C   0  0  0  0  0  0  0  0  0  0  0  0
  191.4660  173.9700  134.5130 S   0  0  0  0  0  0  0  0  0  0  0  0
  192.2260  171.2220  135.7680 N   0  0  0  0  0  0  0  0  0  0  0  0
  192.5520  172.0930  137.0480 C   0  0  1  0  0  0  0  0  0  0  0  0
  191.2590  172.6740  137.7750 C   0  0  0  0  0  2  0  0  0  0  0  0
  190.0220  172.0990  137.2390 N   0  0  0  0  0  0  0  0  0  0  0  0
  189.0250  173.1550  137.2880 C   0  0  0  0  0  1  0  0  0  0  0  0
  189.6030  171.1380  138.2400 C   0  0  0  0  0  1  0  0  0  0  0  0
  194.8670  171.7640  138.1910 C   0  0  0  0  0  2  0  0  0  0  0  0
  195.1340  172.7060  139.7310 S   0  0  0  0  0  0  0  0  0  0  0  0
  195.1400  174.2940  138.8460 C   0  0  0  0  0  2  0  0  0  0  0  0
  196.2030  175.2070  139.4270 C   0  0  0  0  0  1  0  0  0  0  0  0
  1  6  2  0  0  0  0
  2  7  1  6  0  0  0
  2  5  1  0  0  0  0
  4 39  1  6  0  0  0
  4  3  1  0  0  0  0
  4 15  1  0  0  0  0
  8 17  1  6  0  0  0
  8  9  1  0  0  0  0
  9  1  1  0  0  0  0
  9 28  1  1  0  0  0
 10 14  1  6  0  0  0
 10 11  1  0  0  0  0
 11  5  1  0  0  0  0
 11  1  1  0  0  0  0
 12 14  1  6  0  0  0
 12 10  1  0  0  0  0
 12  8  1  0  0  0  0
 13  3  1  6  0  0  0
 13 10  1  0  0  0  0
 13  2  1  0  0  0  0
 15  7  2  0  0  0  0
 16 23  1  6  0  0  0
 17 20  1  6  0  0  0
 18 19  1  1  0  0  0
 18 16  1  0  0  0  0
 19 17  1  0  0  0  0
 21 18  1  0  0  0  0
 21 20  1  1  0  0  0
 21 16  1  0  0  0  0
 23 22  1  6  0  0  0
 23 25  1  0  0  0  0
 25 26  1  0  0  0  0
 25 24  1  0  0  0  0
 27 25  2  0  0  0  0
 28 29  2  0  0  0  0
 28 30  1  0  0  0  0
 30 31  2  0  0  0  0
 32 31  1  0  0  0  0
 32 33  1  1  0  0  0
 34 32  1  0  0  0  0
 34 35  1  0  0  0  0
 35 36  1  0  0  0  0
 37 38  1  0  0  0  0
 38 35  1  0  0  0  0
 40 39  2  0  0  0  0
 41 42  2  0  0  0  0
 42 43  1  0  0  0  0
 42 39  1  0  0  0  0
 43 53  1  6  0  0  0
 44 45  1  6  0  0  0
 44 48  1  0  0  0  0
 45 47  1  0  0  0  0
 46 45  2  0  0  0  0
 47 44  1  0  0  0  0
 47 48  1  0  0  0  0
 48 49  1  1  0  0  0
 48 43  1  0  0  0  0
 50 51  1  0  0  0  0
 50 49  1  0  0  0  0
 50 52  1  0  0  0  0
 53 54  1  0  0  0  0
 55 56  1  0  0  0  0
 55 54  1  0  0  0  0
M  END
>  <MODEL>
5

>  <REMARK>
 VINA RESULT:      -5.2      1.946      3.881
  Name = 
  18 active torsions:
  status: ('A' for Active; 'I' for Inactive)
    1  A    between atoms: C_5  and  N_27
    2  A    between atoms: C_5  and  C_36
    3  A    between atoms: P_6  and  C_55
    4  A    between atoms: C_8  and  C_39
    5  A    between atoms: C_10  and  C_55
    6  A    between atoms: N_12  and  C_18
    7  A    between atoms: N_12  and  C_26
    8  A    between atoms: C_13  and  C_18
    9  A    between atoms: C_13  and  C_47
   10  A    between atoms: S_14  and  C_15
   11  A    between atoms: S_14  and  C_33
   12  A    between atoms: N_19  and  C_48
   13  A    between atoms: C_21  and  N_30
   14  A    between atoms: C_25  and  C_33
   15  A    between atoms: C_25  and  C_35
   16  A    between atoms: C_25  and  C_42
   17  A    between atoms: C_35  and  C_39
   18  A    between atoms: C_42  and  C_48
                            x       y       z     vdW  Elec       q    Type
                         _______ _______ _______ _____ _____    ______ ____

>  <TORSDO>
F 18

$$$$
=
 OpenBabel11072408313D

 56 63  0  0  1  0  0  0  0  0999 V2000
  189.8490  176.0850  143.5680 C   0  0  0  0  0  0  0  0  0  0  0  0
  192.2840  174.8080  146.1610 C   0  0  2  0  0  3  0  0  0  0  0  0
  194.1960  173.7350  144.7220 C   0  0  0  0  0  2  0  0  0  0  0  0
  195.0130  174.1400  145.9580 C   0  0  2  0  0  3  0  0  0  0  0  0
  190.9730  175.5080  145.7530 C   0  0  0  0  0  2  0  0  0  0  0  0
  188.9760  176.8210  144.1260 O   0  0  0  0  0  0  0  0  0  0  0  0
  193.3500  175.8540  146.4690 C   0  0  0  0  0  3  0  0  0  0  0  0
  190.4890  174.5160  141.7440 N   0  0  2  0  0  0  0  0  0  0  0  0
  189.7040  175.7270  142.1050 C   0  0  1  0  0  3  0  0  0  0  0  0
  191.9920  174.7370  143.7920 C   0  0  2  0  0  0  0  0  0  0  0  0
  190.9970  175.6640  144.3160 N   0  0  0  0  0  0  0  0  0  0  0  0
  191.6120  173.9950  142.5330 C   0  0  2  0  0  3  0  0  0  0  0  0
  192.6790  173.9710  144.9210 C   0  0  2  0  0  3  0  0  0  0  0  0
  192.7470  175.0420  142.5240 C   0  0  0  0  0  2  0  0  0  0  0  0
  194.6600  175.5450  146.3650 C   0  0  0  0  0  3  0  0  0  0  0  0
  189.5340  171.9940  138.1520 C   0  0  1  0  0  3  0  0  0  0  0  0
  190.1960  173.8110  140.5210 C   0  0  2  0  0  3  0  0  0  0  0  0
  190.2340  173.2580  138.5040 N   0  0  2  0  0  0  0  0  0  0  0  0
  191.0190  173.8560  139.4610 C   0  0  0  0  0  2  0  0  0  0  0  0
  188.7920  173.2170  140.1690 C   0  0  0  0  0  2  0  0  0  0  0  0
  188.7810  173.0310  138.6240 C   0  0  2  0  0  3  0  0  0  0  0  0
  188.7840  172.9840  136.0260 F   0  0  0  0  0  0  0  0  0  0  0  0
  189.3590  171.8400  136.6300 C   0  0  1  0  0  3  0  0  0  0  0  0
  191.2580  172.5900  134.7940 O   0  0  0  0  0  0  0  0  0  0  0  0
  190.9290  171.4550  135.7410 P   0  0  0  0  0  0  0  0  0  0  0  0
  192.1760  171.2890  136.8850 O   0  0  0  0  0  1  0  0  0  0  0  0
  190.8040  169.9910  134.8710 O   0  0  0  0  0  1  0  0  0  0  0  0
  188.2320  175.6400  141.7010 C   0  0  0  0  0  0  0  0  0  0  0  0
  187.4570  174.8140  142.2780 O   0  0  0  0  0  0  0  0  0  0  0  0
  187.7360  176.5060  140.6640 N   0  0  0  0  0  0  0  0  0  0  0  0
  186.6960  177.2840  140.6840 C   0  0  0  0  0  3  0  0  0  0  0  0
  185.7600  177.4320  141.8520 C   0  0  2  0  0  3  0  0  0  0  0  0
  184.3940  177.9040  141.3920 C   0  0  0  0  0  1  0  0  0  0  0  0
  186.3230  178.3120  142.9900 C   0  0  0  0  0  2  0  0  0  0  0  0
  185.3660  178.8460  143.9810 N   0  0  0  0  0  0  0  0  0  0  0  0
  185.6150  180.1550  144.2240 O   0  0  0  0  0  1  0  0  0  0  0  0
  185.1060  179.0040  146.3940 C   0  0  0  0  0  1  0  0  0  0  0  0
  185.4890  178.1110  145.2330 C   0  0  0  0  0  2  0  0  0  0  0  0
  196.5180  173.8960  145.8250 C   0  0  0  0  0  0  0  0  0  0  0  0
  197.2620  174.0200  146.8380 O   0  0  0  0  0  0  0  0  0  0  0  0
  197.9030  174.1470  143.9270 O   0  0  0  0  0  0  0  0  0  0  0  0
  197.0670  173.4270  144.5370 C   0  0  0  0  0  0  0  0  0  0  0  0
  196.4700  172.2080  143.8420 C   0  0  2  0  0  3  0  0  0  0  0  0
  197.7900  170.9040  145.3290 C   0  0  2  0  0  3  0  0  0  0  0  0
  197.4650  169.6910  145.7430 C   0  0  0  0  0  0  0  0  0  0  0  0
  197.9330  168.1660  146.1230 S   0  0  0  0  0  0  0  0  0  0  0  0
  196.6280  170.9950  146.1440 N   0  0  0  0  0  0  0  0  0  0  0  0
  196.6790  170.8390  144.5690 C   0  0  1  0  0  0  0  0  0  0  0  0
  195.6400  169.7750  143.9970 C   0  0  0  0  0  2  0  0  0  0  0  0
  194.3590  170.3920  143.6410 N   0  0  0  0  0  0  0  0  0  0  0  0
  193.4120  169.9880  144.6650 C   0  0  0  0  0  1  0  0  0  0  0  0
  193.9380  169.6950  142.4420 C   0  0  0  0  0  1  0  0  0  0  0  0
  196.8140  172.2010  142.3550 C   0  0  0  0  0  2  0  0  0  0  0  0
  195.4670  172.9510  141.3780 S   0  0  0  0  0  0  0  0  0  0  0  0
  196.4300  174.4610  141.0710 C   0  0  0  0  0  2  0  0  0  0  0  0
  197.5140  174.1840  140.0470 C   0  0  0  0  0  1  0  0  0  0  0  0
  1  6  2  0  0  0  0
  1 11  1  0  0  0  0
  2  5  1  6  0  0  0
  2  7  1  0  0  0  0
  3  4  1  0  0  0  0
  4 39  1  6  0  0  0
  4 15  1  0  0  0  0
  8 17  1  6  0  0  0
  8  9  1  0  0  0  0
  8 12  1  0  0  0  0
  9 28  1  1  0  0  0
  9  1  1  0  0  0  0
 10 14  1  6  0  0  0
 10 11  1  0  0  0  0
 10 13  1  0  0  0  0
 11  5  1  0  0  0  0
 12 14  1  6  0  0  0
 12 10  1  0  0  0  0
 13  3  1  6  0  0  0
 13  2  1  0  0  0  0
 15  7  2  0  0  0  0
 16 23  1  6  0  0  0
 16 18  1  0  0  0  0
 16 21  1  0  0  0  0
 17 19  1  6  0  0  0
 18 21  1  0  0  0  0
 18 19  1  1  0  0  0
 20 17  1  0  0  0  0
 21 20  1  1  0  0  0
 23 22  1  6  0  0  0
 24 25  2  0  0  0  0
 25 23  1  0  0  0  0
 25 26  1  0  0  0  0
 27 25  1  0  0  0  0
 28 29  2  0  0  0  0
 30 31  2  0  0  0  0
 30 28  1  0  0  0  0
 31 32  1  0  0  0  0
 32 33  1  6  0  0  0
 32 34  1  0  0  0  0
 34 35  1  0  0  0  0
 35 36  1  0  0  0  0
 35 38  1  0  0  0  0
 38 37  1  0  0  0  0
 39 40  2  0  0  0  0
 41 42  2  0  0  0  0
 42 39  1  0  0  0  0
 43 53  1  6  0  0  0
 43 42  1  0  0  0  0
 43 48  1  0  0  0  0
 44 45  1  1  0  0  0
 44 47  1  0  0  0  0
 45 46  2  0  0  0  0
 45 47  1  0  0  0  0
 48 49  1  6  0  0  0
 48 44  1  0  0  0  0
 48 47  1  0  0  0  0
 50 49  1  0  0  0  0
 50 51  1  0  0  0  0
 52 50  1  0  0  0  0
 54 53  1  0  0  0  0
 55 54  1  0  0  0  0
 56 55  1  0  0  0  0
M  END
>  <MODEL>
6

>  <REMARK>
 VINA RESULT:      -5.0      3.522      8.775
  Name = 
  18 active torsions:
  status: ('A' for Active; 'I' for Inactive)
    1  A    between atoms: C_5  and  N_27
    2  A    between atoms: C_5  and  C_36
    3  A    between atoms: P_6  and  C_55
    4  A    between atoms: C_8  and  C_39
    5  A    between atoms: C_10  and  C_55
    6  A    between atoms: N_12  and  C_18
    7  A    between atoms: N_12  and  C_26
    8  A    between atoms: C_13  and  C_18
    9  A    between atoms: C_13  and  C_47
   10  A    between atoms: S_14  and  C_15
   11  A    between atoms: S_14  and  C_33
   12  A    between atoms: N_19  and  C_48
   13  A    between atoms: C_21  and  N_30
   14  A    between atoms: C_25  and  C_33
   15  A    between atoms: C_25  and  C_35
   16  A    between atoms: C_25  and  C_42
   17  A    between atoms: C_35  and  C_39
   18  A    between atoms: C_42  and  C_48
                            x       y       z     vdW  Elec       q    Type
                         _______ _______ _______ _____ _____    ______ ____

>  <TORSDO>
F 18

$$$$
=
 OpenBabel11072408313D

 56 63  0  0  1  0  0  0  0  0999 V2000
  194.9520  175.8050  144.0890 C   0  0  0  0  0  0  0  0  0  0  0  0
  196.7960  174.1720  141.2220 C   0  0  2  0  0  3  0  0  0  0  0  0
  195.4980  175.0170  139.1060 C   0  0  0  0  0  2  0  0  0  0  0  0
  196.8860  174.8180  138.4820 C   0  0  2  0  0  3  0  0  0  0  0  0
  196.5800  174.4420  142.7240 C   0  0  0  0  0  2  0  0  0  0  0  0
  195.6110  175.6520  145.1650 O   0  0  0  0  0  0  0  0  0  0  0  0
  197.8940  175.0870  140.6900 C   0  0  0  0  0  3  0  0  0  0  0  0
  192.7670  176.0900  142.9290 N   0  0  2  0  0  0  0  0  0  0  0  0
  193.5710  176.4200  144.1380 C   0  0  1  0  0  3  0  0  0  0  0  0
  194.8420  175.5010  141.5680 C   0  0  2  0  0  0  0  0  0  0  0  0
  195.5570  175.4580  142.8370 N   0  0  0  0  0  0  0  0  0  0  0  0
  193.3410  175.6390  141.6560 C   0  0  2  0  0  3  0  0  0  0  0  0
  195.4350  174.5110  140.5680 C   0  0  2  0  0  3  0  0  0  0  0  0
  194.2090  176.7770  141.0770 C   0  0  0  0  0  2  0  0  0  0  0  0
  197.9390  175.4090  139.3800 C   0  0  0  0  0  3  0  0  0  0  0  0
  188.3400  176.6950  143.3860 C   0  0  1  0  0  3  0  0  0  0  0  0
  191.3370  176.2620  142.9520 C   0  0  2  0  0  3  0  0  0  0  0  0
  189.3120  176.0180  142.4860 N   0  0  2  0  0  0  0  0  0  0  0  0
  190.5020  175.3300  142.4640 C   0  0  0  0  0  2  0  0  0  0  0  0
  190.6240  177.6290  143.2170 C   0  0  0  0  0  2  0  0  0  0  0  0
  189.1830  177.4790  142.6490 C   0  0  2  0  0  3  0  0  0  0  0  0
  186.3190  175.4290  142.7750 F   0  0  0  0  0  0  0  0  0  0  0  0
  186.9200  176.7100  142.7900 C   0  0  1  0  0  3  0  0  0  0  0  0
  184.9430  177.0980  144.6540 O   0  0  0  0  0  1  0  0  0  0  0  0
  185.7710  177.8690  143.6480 P   0  0  0  0  0  0  0  0  0  0  0  0
  186.6900  179.0510  144.4550 O   0  0  0  0  0  1  0  0  0  0  0  0
  184.7440  178.6600  142.5360 O   0  0  0  0  0  0  0  0  0  0  0  0
  192.8610  176.0840  145.4500 C   0  0  0  0  0  0  0  0  0  0  0  0
  192.1090  176.9430  146.0100 O   0  0  0  0  0  0  0  0  0  0  0  0
  193.0490  174.7830  146.0360 N   0  0  0  0  0  0  0  0  0  0  0  0
  192.3170  173.7190  145.9040 C   0  0  0  0  0  3  0  0  0  0  0  0
  191.0650  173.6390  145.0750 C   0  0  2  0  0  3  0  0  0  0  0  0
  189.8710  174.1610  145.8500 C   0  0  0  0  0  1  0  0  0  0  0  0
  190.8030  172.2370  144.4830 C   0  0  0  0  0  2  0  0  0  0  0  0
  191.3700  171.9380  143.1520 N   0  0  0  0  0  0  0  0  0  0  0  0
  190.4000  171.9590  142.2060 O   0  0  0  0  0  1  0  0  0  0  0  0
  192.9900  170.5210  144.2850 C   0  0  0  0  0  1  0  0  0  0  0  0
  191.9800  170.6150  143.1600 C   0  0  0  0  0  2  0  0  0  0  0  0
  196.9920  175.2720  137.0240 C   0  0  0  0  0  0  0  0  0  0  0  0
  197.6490  176.3130  136.7420 O   0  0  0  0  0  0  0  0  0  0  0  0
  196.9780  174.3770  134.8370 O   0  0  0  0  0  0  0  0  0  0  0  0
  196.4040  174.4380  135.9580 C   0  0  0  0  0  0  0  0  0  0  0  0
  195.0110  173.8390  136.1270 C   0  0  2  0  0  3  0  0  0  0  0  0
  195.4080  171.7700  135.0250 C   0  0  2  0  0  3  0  0  0  0  0  0
  195.2490  170.5840  135.5910 C   0  0  0  0  0  0  0  0  0  0  0  0
  194.7590  169.0250  135.4650 S   0  0  0  0  0  0  0  0  0  0  0  0
  196.3770  171.6210  136.0550 N   0  0  0  0  0  0  0  0  0  0  0  0
  194.9430  172.2780  136.1840 C   0  0  1  0  0  0  0  0  0  0  0  0
  194.1490  171.8330  137.4920 C   0  0  0  0  0  2  0  0  0  0  0  0
  192.8070  172.4190  137.5470 N   0  0  0  0  0  0  0  0  0  0  0  0
  192.5510  172.7240  138.9440 C   0  0  0  0  0  1  0  0  0  0  0  0
  191.9150  171.3210  137.2310 C   0  0  0  0  0  1  0  0  0  0  0  0
  194.0160  174.4880  135.1700 C   0  0  0  0  0  2  0  0  0  0  0  0
  193.0890  175.8190  136.0070 S   0  0  0  0  0  0  0  0  0  0  0  0
  193.3240  176.9610  134.6130 C   0  0  0  0  0  2  0  0  0  0  0  0
  194.4390  177.9410  134.9280 C   0  0  0  0  0  1  0  0  0  0  0  0
  1  9  1  0  0  0  0
  1  6  2  0  0  0  0
  2  7  1  6  0  0  0
  2  5  1  0  0  0  0
  4 39  1  6  0  0  0
  4  3  1  0  0  0  0
  4 15  1  0  0  0  0
  5 11  1  0  0  0  0
  8 17  1  6  0  0  0
  8  9  1  0  0  0  0
  9 28  1  1  0  0  0
 10 14  1  6  0  0  0
 10 12  1  0  0  0  0
 10 11  1  0  0  0  0
 11  1  1  0  0  0  0
 12 14  1  6  0  0  0
 12  8  1  0  0  0  0
 13  3  1  6  0  0  0
 13  2  1  0  0  0  0
 13 10  1  0  0  0  0
 15  7  2  0  0  0  0
 16 23  1  6  0  0  0
 17 19  1  6  0  0  0
 17 20  1  0  0  0  0
 18 19  1  1  0  0  0
 18 21  1  0  0  0  0
 18 16  1  0  0  0  0
 21 20  1  1  0  0  0
 21 16  1  0  0  0  0
 23 22  1  1  0  0  0
 23 25  1  0  0  0  0
 25 26  1  0  0  0  0
 25 24  1  0  0  0  0
 27 25  2  0  0  0  0
 28 29  2  0  0  0  0
 28 30  1  0  0  0  0
 31 30  2  0  0  0  0
 32 33  1  1  0  0  0
 32 31  1  0  0  0  0
 34 32  1  0  0  0  0
 35 38  1  0  0  0  0
 35 34  1  0  0  0  0
 36 35  1  0  0  0  0
 38 37  1  0  0  0  0
 40 39  2  0  0  0  0
 41 42  2  0  0  0  0
 42 43  1  0  0  0  0
 42 39  1  0  0  0  0
 43 53  1  6  0  0  0
 43 48  1  0  0  0  0
 44 45  1  1  0  0  0
 44 47  1  0  0  0  0
 44 48  1  0  0  0  0
 45 47  1  0  0  0  0
 46 45  2  0  0  0  0
 47 48  1  0  0  0  0
 48 49  1  1  0  0  0
 49 50  1  0  0  0  0
 50 51  1  0  0  0  0
 52 50  1  0  0  0  0
 53 54  1  0  0  0  0
 55 56  1  0  0  0  0
 55 54  1  0  0  0  0
M  END
>  <MODEL>
7

>  <REMARK>
 VINA RESULT:      -5.0      2.618      4.971
  Name = 
  18 active torsions:
  status: ('A' for Active; 'I' for Inactive)
    1  A    between atoms: C_5  and  N_27
    2  A    between atoms: C_5  and  C_36
    3  A    between atoms: P_6  and  C_55
    4  A    between atoms: C_8  and  C_39
    5  A    between atoms: C_10  and  C_55
    6  A    between atoms: N_12  and  C_18
    7  A    between atoms: N_12  and  C_26
    8  A    between atoms: C_13  and  C_18
    9  A    between atoms: C_13  and  C_47
   10  A    between atoms: S_14  and  C_15
   11  A    between atoms: S_14  and  C_33
   12  A    between atoms: N_19  and  C_48
   13  A    between atoms: C_21  and  N_30
   14  A    between atoms: C_25  and  C_33
   15  A    between atoms: C_25  and  C_35
   16  A    between atoms: C_25  and  C_42
   17  A    between atoms: C_35  and  C_39
   18  A    between atoms: C_42  and  C_48
                            x       y       z     vdW  Elec       q    Type
                         _______ _______ _______ _____ _____    ______ ____

>  <TORSDO>
F 18

$$$$
=
 OpenBabel11072408313D

 56 63  0  0  1  0  0  0  0  0999 V2000
  189.2200  173.7930  139.8360 C   0  0  0  0  0  0  0  0  0  0  0  0
  192.3630  173.5720  137.7490 C   0  0  2  0  0  3  0  0  0  0  0  0
  194.2650  173.3380  139.5390 C   0  0  0  0  0  2  0  0  0  0  0  0
  194.9270  172.5870  138.3750 C   0  0  2  0  0  3  0  0  0  0  0  0
  190.8360  173.7150  137.8990 C   0  0  0  0  0  2  0  0  0  0  0  0
  188.1990  173.6920  139.0850 O   0  0  0  0  0  0  0  0  0  0  0  0
  192.7160  172.1200  137.4480 C   0  0  0  0  0  3  0  0  0  0  0  0
  190.2850  174.6680  141.9090 N   0  0  2  0  0  0  0  0  0  0  0  0
  189.0420  174.1190  141.3030 C   0  0  1  0  0  3  0  0  0  0  0  0
  191.7510  173.7130  140.0530 C   0  0  2  0  0  0  0  0  0  0  0  0
  190.5200  173.5230  139.2970 N   0  0  0  0  0  0  0  0  0  0  0  0
  191.6260  174.4970  141.3380 C   0  0  2  0  0  3  0  0  0  0  0  0
  192.9290  174.0000  139.1240 C   0  0  2  0  0  3  0  0  0  0  0  0
  191.9800  172.9940  141.3580 C   0  0  0  0  0  2  0  0  0  0  0  0
  193.9390  171.6370  137.7530 C   0  0  0  0  0  3  0  0  0  0  0  0
  189.7090  176.7340  145.8560 C   0  0  1  0  0  3  0  0  0  0  0  0
  190.2190  175.3740  143.1640 C   0  0  2  0  0  3  0  0  0  0  0  0
  190.5430  176.8320  144.6280 N   0  0  2  0  0  0  0  0  0  0  0  0
  190.5190  176.6790  143.2620 C   0  0  0  0  0  2  0  0  0  0  0  0
  190.1290  174.6710  144.5590 C   0  0  0  0  0  2  0  0  0  0  0  0
  190.5960  175.7260  145.6020 C   0  0  2  0  0  3  0  0  0  0  0  0
  189.1980  178.1270  147.8210 F   0  0  0  0  0  0  0  0  0  0  0  0
  190.2300  177.6510  146.9780 C   0  0  1  0  0  3  0  0  0  0  0  0
  192.8580  176.9470  147.3480 O   0  0  0  0  0  0  0  0  0  0  0  0
  191.5140  176.8600  148.0400 P   0  0  0  0  0  0  0  0  0  0  0  0
  191.5840  177.6920  149.5220 O   0  0  0  0  0  1  0  0  0  0  0  0
  191.1320  175.2270  148.3630 O   0  0  0  0  0  1  0  0  0  0  0  0
  187.8150  175.0040  141.5280 C   0  0  0  0  0  0  0  0  0  0  0  0
  186.8920  174.6290  142.3180 O   0  0  0  0  0  0  0  0  0  0  0  0
  187.7220  176.2640  140.8390 N   0  0  0  0  0  0  0  0  0  0  0  0
  186.9920  177.2980  141.1320 C   0  0  0  0  0  3  0  0  0  0  0  0
  186.0520  177.3780  142.3030 C   0  0  2  0  0  3  0  0  0  0  0  0
  184.6940  177.8960  141.8700 C   0  0  0  0  0  1  0  0  0  0  0  0
  186.6200  178.1710  143.5000 C   0  0  0  0  0  2  0  0  0  0  0  0
  185.6570  178.8590  144.3850 N   0  0  0  0  0  0  0  0  0  0  0  0
  185.7260  180.2010  144.2120 O   0  0  0  0  0  1  0  0  0  0  0  0
  184.7540  177.9230  146.4410 C   0  0  0  0  0  1  0  0  0  0  0  0
  185.9600  178.5540  145.7770 C   0  0  0  0  0  2  0  0  0  0  0  0
  196.2690  171.9410  138.7250 C   0  0  0  0  0  0  0  0  0  0  0  0
  197.0470  171.5780  137.7970 O   0  0  0  0  0  0  0  0  0  0  0  0
  197.6370  172.5380  140.5560 O   0  0  0  0  0  0  0  0  0  0  0  0
  196.6780  171.8350  140.1390 C   0  0  0  0  0  0  0  0  0  0  0  0
  196.1070  170.7330  141.0270 C   0  0  2  0  0  3  0  0  0  0  0  0
  196.4310  169.5780  143.0790 C   0  0  2  0  0  3  0  0  0  0  0  0
  196.8950  170.1390  144.1830 C   0  0  0  0  0  0  0  0  0  0  0  0
  196.8390  170.2790  145.8160 S   0  0  0  0  0  0  0  0  0  0  0  0
  197.7840  169.9580  142.8650 N   0  0  0  0  0  0  0  0  0  0  0  0
  196.4910  170.8120  142.5400 C   0  0  1  0  0  0  0  0  0  0  0  0
  196.6060  172.3400  142.9760 C   0  0  0  0  0  2  0  0  0  0  0  0
  195.2970  172.9230  143.2890 N   0  0  0  0  0  0  0  0  0  0  0  0
  195.1800  174.1230  142.4800 C   0  0  0  0  0  1  0  0  0  0  0  0
  195.4260  173.3970  144.6530 C   0  0  0  0  0  1  0  0  0  0  0  0
  196.2970  169.3610  140.3880 C   0  0  0  0  0  2  0  0  0  0  0  0
  194.7150  168.7300  139.7320 S   0  0  0  0  0  0  0  0  0  0  0  0
  193.7470  169.6980  140.9280 C   0  0  0  0  0  2  0  0  0  0  0  0
  192.2700  169.6070  140.5930 C   0  0  0  0  0  1  0  0  0  0  0  0
  1  9  1  0  0  0  0
  2  7  1  1  0  0  0
  2  5  1  0  0  0  0
  2 13  1  0  0  0  0
  4 39  1  1  0  0  0
  4  3  1  0  0  0  0
  5 11  1  0  0  0  0
  6  1  2  0  0  0  0
  7 15  2  0  0  0  0
  8 17  1  1  0  0  0
  9 28  1  6  0  0  0
  9  8  1  0  0  0  0
 10 12  1  0  0  0  0
 10 14  1  1  0  0  0
 11  1  1  0  0  0  0
 11 10  1  0  0  0  0
 12 14  1  1  0  0  0
 12  8  1  0  0  0  0
 13  3  1  1  0  0  0
 13 10  1  0  0  0  0
 15  4  1  0  0  0  0
 16 23  1  1  0  0  0
 17 19  1  1  0  0  0
 17 20  1  0  0  0  0
 18 19  1  6  0  0  0
 18 21  1  0  0  0  0
 18 16  1  0  0  0  0
 21 20  1  6  0  0  0
 21 16  1  0  0  0  0
 23 22  1  1  0  0  0
 23 25  1  0  0  0  0
 24 25  2  0  0  0  0
 25 27  1  0  0  0  0
 25 26  1  0  0  0  0
 28 29  2  0  0  0  0
 30 31  2  0  0  0  0
 30 28  1  0  0  0  0
 31 32  1  0  0  0  0
 32 33  1  6  0  0  0
 32 34  1  0  0  0  0
 34 35  1  0  0  0  0
 35 38  1  0  0  0  0
 36 35  1  0  0  0  0
 38 37  1  0  0  0  0
 39 42  1  0  0  0  0
 40 39  2  0  0  0  0
 42 41  2  0  0  0  0
 42 43  1  0  0  0  0
 43 53  1  6  0  0  0
 43 48  1  0  0  0  0
 44 45  1  1  0  0  0
 45 46  2  0  0  0  0
 47 44  1  0  0  0  0
 47 45  1  0  0  0  0
 48 47  1  0  0  0  0
 48 49  1  1  0  0  0
 48 44  1  0  0  0  0
 49 50  1  0  0  0  0
 50 52  1  0  0  0  0
 51 50  1  0  0  0  0
 54 53  1  0  0  0  0
 54 55  1  0  0  0  0
 56 55  1  0  0  0  0
M  END
>  <MODEL>
8

>  <REMARK>
 VINA RESULT:      -4.9      3.410      7.373
  Name = 
  18 active torsions:
  status: ('A' for Active; 'I' for Inactive)
    1  A    between atoms: C_5  and  N_27
    2  A    between atoms: C_5  and  C_36
    3  A    between atoms: P_6  and  C_55
    4  A    between atoms: C_8  and  C_39
    5  A    between atoms: C_10  and  C_55
    6  A    between atoms: N_12  and  C_18
    7  A    between atoms: N_12  and  C_26
    8  A    between atoms: C_13  and  C_18
    9  A    between atoms: C_13  and  C_47
   10  A    between atoms: S_14  and  C_15
   11  A    between atoms: S_14  and  C_33
   12  A    between atoms: N_19  and  C_48
   13  A    between atoms: C_21  and  N_30
   14  A    between atoms: C_25  and  C_33
   15  A    between atoms: C_25  and  C_35
   16  A    between atoms: C_25  and  C_42
   17  A    between atoms: C_35  and  C_39
   18  A    between atoms: C_42  and  C_48
                            x       y       z     vdW  Elec       q    Type
                         _______ _______ _______ _____ _____    ______ ____

>  <TORSDO>
F 18

$$$$
=
 OpenBabel11072408313D

 56 63  0  0  1  0  0  0  0  0999 V2000
  190.5430  177.0290  145.9670 C   0  0  0  0  0  0  0  0  0  0  0  0
  193.4120  174.6000  146.3640 C   0  0  2  0  0  3  0  0  0  0  0  0
  194.3230  174.3320  143.9190 C   0  0  0  0  0  2  0  0  0  0  0  0
  195.6190  174.0650  144.6970 C   0  0  2  0  0  3  0  0  0  0  0  0
  192.2470  175.4360  146.9310 C   0  0  0  0  0  2  0  0  0  0  0  0
  190.1470  177.4150  147.1120 O   0  0  0  0  0  0  0  0  0  0  0  0
  194.7270  175.3420  146.5790 C   0  0  0  0  0  3  0  0  0  0  0  0
  190.0540  176.5420  143.5760 N   0  0  2  0  0  0  0  0  0  0  0  0
  189.7720  177.4360  144.7310 C   0  0  1  0  0  3  0  0  0  0  0  0
  192.2310  175.7040  144.6060 C   0  0  2  0  0  0  0  0  0  0  0  0
  191.7560  176.2740  145.8600 N   0  0  0  0  0  0  0  0  0  0  0  0
  191.2370  175.6800  143.4690 C   0  0  2  0  0  3  0  0  0  0  0  0
  193.0970  174.4700  144.8550 C   0  0  2  0  0  3  0  0  0  0  0  0
  192.4930  176.5760  143.4050 C   0  0  0  0  0  2  0  0  0  0  0  0
  195.7870  175.0980  145.7790 C   0  0  0  0  0  3  0  0  0  0  0  0
  187.4800  176.2060  139.9090 C   0  0  1  0  0  3  0  0  0  0  0  0
  189.1610  176.5310  142.4440 C   0  0  2  0  0  3  0  0  0  0  0  0
  187.8740  177.2040  140.9390 N   0  0  2  0  0  0  0  0  0  0  0  0
  188.9230  177.6340  141.7170 C   0  0  0  0  0  2  0  0  0  0  0  0
  188.1430  175.3810  142.1440 C   0  0  0  0  0  2  0  0  0  0  0  0
  187.0720  175.9920  141.1960 C   0  0  2  0  0  3  0  0  0  0  0  0
  186.1210  178.1070  139.1330 F   0  0  0  0  0  0  0  0  0  0  0  0
  186.3120  176.7070  139.0410 C   0  0  1  0  0  3  0  0  0  0  0  0
  187.2850  174.9960  137.1270 O   0  0  0  0  0  1  0  0  0  0  0  0
  186.4780  176.2710  137.2560 P   0  0  0  0  0  0  0  0  0  0  0  0
  184.9250  176.0280  136.6080 O   0  0  0  0  0  1  0  0  0  0  0  0
  187.2320  177.5270  136.3790 O   0  0  0  0  0  0  0  0  0  0  0  0
  188.2800  177.5860  145.0340 C   0  0  0  0  0  0  0  0  0  0  0  0
  187.6500  178.6210  144.6510 O   0  0  0  0  0  0  0  0  0  0  0  0
  187.6010  176.5390  145.7510 N   0  0  0  0  0  0  0  0  0  0  0  0
  186.5630  176.6270  146.5270 C   0  0  0  0  0  3  0  0  0  0  0  0
  185.8390  177.9060  146.8450 C   0  0  2  0  0  3  0  0  0  0  0  0
  185.7940  178.1420  148.3430 C   0  0  0  0  0  1  0  0  0  0  0  0
  184.4380  178.0010  146.2020 C   0  0  0  0  0  2  0  0  0  0  0  0
  184.3170  178.7390  144.9280 N   0  0  0  0  0  0  0  0  0  0  0  0
  183.0570  179.2120  144.7710 O   0  0  0  0  0  1  0  0  0  0  0  0
  184.9160  178.6710  142.5720 C   0  0  0  0  0  1  0  0  0  0  0  0
  184.6230  177.8540  143.8120 C   0  0  0  0  0  2  0  0  0  0  0  0
  196.8570  173.8880  143.8150 C   0  0  0  0  0  0  0  0  0  0  0  0
  197.8760  174.6060  144.0200 O   0  0  0  0  0  0  0  0  0  0  0  0
  197.4010  171.7080  143.0870 O   0  0  0  0  0  0  0  0  0  0  0  0
  196.8780  172.8180  142.7990 C   0  0  0  0  0  0  0  0  0  0  0  0
  196.4830  173.1160  141.3560 C   0  0  2  0  0  3  0  0  0  0  0  0
  195.9910  171.8000  139.4380 C   0  0  2  0  0  3  0  0  0  0  0  0
  195.0200  170.9040  139.3810 C   0  0  0  0  0  0  0  0  0  0  0  0
  193.8160  170.1930  138.5250 S   0  0  0  0  0  0  0  0  0  0  0  0
  196.3040  170.7300  140.3220 N   0  0  0  0  0  0  0  0  0  0  0  0
  195.5390  172.0700  140.6790 C   0  0  1  0  0  0  0  0  0  0  0  0
  194.2540  171.8500  141.5950 C   0  0  0  0  0  2  0  0  0  0  0  0
  193.0070  172.0480  140.8500 N   0  0  0  0  0  0  0  0  0  0  0  0
  192.6270  173.4350  141.0490 C   0  0  0  0  0  1  0  0  0  0  0  0
  192.0200  171.2770  141.5810 C   0  0  0  0  0  1  0  0  0  0  0  0
  197.7010  173.5110  140.5250 C   0  0  0  0  0  2  0  0  0  0  0  0
  197.9360  175.3210  140.5460 S   0  0  0  0  0  0  0  0  0  0  0  0
  196.1540  175.6290  140.3600 C   0  0  0  0  0  2  0  0  0  0  0  0
  195.6900  176.6290  141.4020 C   0  0  0  0  0  1  0  0  0  0  0  0
  1  6  2  0  0  0  0
  2  7  1  6  0  0  0
  2  5  1  0  0  0  0
  3  4  1  0  0  0  0
  4 39  1  6  0  0  0
  4 15  1  0  0  0  0
  8 17  1  6  0  0  0
  8  9  1  0  0  0  0
  9 28  1  1  0  0  0
  9  1  1  0  0  0  0
 10 14  1  6  0  0  0
 10 13  1  0  0  0  0
 10 11  1  0  0  0  0
 11  1  1  0  0  0  0
 11  5  1  0  0  0  0
 12 14  1  6  0  0  0
 12  8  1  0  0  0  0
 12 10  1  0  0  0  0
 13  3  1  6  0  0  0
 13  2  1  0  0  0  0
 15  7  2  0  0  0  0
 16 23  1  6  0  0  0
 16 18  1  0  0  0  0
 16 21  1  0  0  0  0
 17 19  1  1  0  0  0
 18 21  1  0  0  0  0
 18 19  1  1  0  0  0
 20 17  1  0  0  0  0
 21 20  1  1  0  0  0
 23 22  1  6  0  0  0
 24 25  1  0  0  0  0
 25 23  1  0  0  0  0
 26 25  1  0  0  0  0
 27 25  2  0  0  0  0
 28 30  1  0  0  0  0
 29 28  2  0  0  0  0
 30 31  2  0  0  0  0
 31 32  1  0  0  0  0
 32 33  1  1  0  0  0
 34 32  1  0  0  0  0
 35 34  1  0  0  0  0
 36 35  1  0  0  0  0
 37 38  1  0  0  0  0
 38 35  1  0  0  0  0
 39 40  2  0  0  0  0
 42 41  2  0  0  0  0
 42 39  1  0  0  0  0
 43 53  1  6  0  0  0
 43 42  1  0  0  0  0
 44 45  1  6  0  0  0
 44 47  1  0  0  0  0
 44 48  1  0  0  0  0
 45 47  1  0  0  0  0
 46 45  2  0  0  0  0
 47 48  1  0  0  0  0
 48 43  1  0  0  0  0
 48 49  1  1  0  0  0
 50 51  1  0  0  0  0
 50 52  1  0  0  0  0
 50 49  1  0  0  0  0
 53 54  1  0  0  0  0
 55 54  1  0  0  0  0
 55 56  1  0  0  0  0
M  END
>  <MODEL>
9

>  <REMARK>
 VINA RESULT:      -4.9      3.542      6.952
  Name = 
  18 active torsions:
  status: ('A' for Active; 'I' for Inactive)
    1  A    between atoms: C_5  and  N_27
    2  A    between atoms: C_5  and  C_36
    3  A    between atoms: P_6  and  C_55
    4  A    between atoms: C_8  and  C_39
    5  A    between atoms: C_10  and  C_55
    6  A    between atoms: N_12  and  C_18
    7  A    between atoms: N_12  and  C_26
    8  A    between atoms: C_13  and  C_18
    9  A    between atoms: C_13  and  C_47
   10  A    between atoms: S_14  and  C_15
   11  A    between atoms: S_14  and  C_33
   12  A    between atoms: N_19  and  C_48
   13  A    between atoms: C_21  and  N_30
   14  A    between atoms: C_25  and  C_33
   15  A    between atoms: C_25  and  C_35
   16  A    between atoms: C_25  and  C_42
   17  A    between atoms: C_35  and  C_39
   18  A    between atoms: C_42  and  C_48
                            x       y       z     vdW  Elec       q    Type
                         _______ _______ _______ _____ _____    ______ ____

>  <TORSDO>
F 18

$$$$
