=
 OpenBabel11062421513D

 37 42  0  0  1  0  0  0  0  0999 V2000
  193.2750  176.1170  145.6470 C   0  0  2  0  0  3  0  0  0  0  0  0
  193.9760  175.7720  142.0490 C   0  0  1  0  0  3  0  0  0  0  0  0
  195.3400  176.0210  142.6690 C   0  0  2  0  0  3  0  0  0  0  0  0
  188.8500  177.6400  144.3850 N   0  0  2  0  0  0  0  0  0  0  0  0
  197.5950  174.9770  142.2490 C   0  0  0  0  0  1  0  0  0  0  0  0
  191.1120  177.2350  143.7380 C   0  0  1  0  0  3  0  0  0  0  0  0
  193.9480  174.3370  141.5460 C   0  0  0  0  0  2  0  0  0  0  0  0
  191.8620  176.6780  142.6780 O   0  0  0  0  0  0  0  0  0  0  0  0
  195.3930  173.8640  141.5170 C   0  0  2  0  0  3  0  0  0  0  0  0
  189.7600  177.6670  143.2430 C   0  0  0  0  0  2  0  0  0  0  0  0
  191.8070  176.4610  146.0050 C   0  0  1  0  0  3  0  0  0  0  0  0
  190.8060  176.2580  144.8530 C   0  0  1  0  0  3  0  0  0  0  0  0
  189.3790  176.5960  145.2660 C   0  0  0  0  0  2  0  0  0  0  0  0
  196.1220  174.7290  142.5420 C   0  0  2  0  0  3  0  0  0  0  0  0
  192.9780  175.9490  143.1590 C   0  0  2  0  0  3  0  0  0  0  0  0
  194.1890  176.6470  146.7460 C   0  0  0  0  0  1  0  0  0  0  0  0
  193.7480  176.6440  144.2800 C   0  0  2  0  0  3  0  0  0  0  0  0
  195.1630  176.3470  144.0800 N   0  0  0  0  0  2  0  0  0  0  0  0
  195.4400  171.3770  137.2870 O   0  0  0  0  0  1  0  0  0  0  0  0
  196.7650  172.2200  139.8150 S   0  0  0  0  0  0  0  0  0  0  0  0
  194.5230  175.4570  139.0590 O   0  0  0  0  0  1  0  0  0  0  0  0
  195.5730  173.9700  137.6960 O   0  0  0  0  0  0  0  0  0  0  0  0
  194.9890  174.1460  138.9600 C   0  0  1  0  0  3  0  0  0  0  0  0
  195.9900  173.8390  140.0950 C   0  0  1  0  0  3  0  0  0  0  0  0
  197.7820  172.5040  136.8840 O   0  0  0  0  0  0  0  0  0  0  0  0
  196.3510  172.4760  137.7840 P   0  0  2  0  0  0  0  0  0  0  0  0
  187.4730  177.2660  143.9880 C   0  0  1  0  0  3  0  0  0  0  0  0
  186.0050  177.1820  141.8690 C   0  0  0  0  0  2  0  0  0  0  0  0
  185.8040  179.1050  143.3250 N   0  0  0  0  0  0  0  0  0  0  0  0
  185.5920  178.5860  142.1570 C   0  0  0  0  0  3  0  0  0  0  0  0
  186.5210  178.3990  144.3430 C   0  0  0  0  0  0  0  0  0  0  0  0
  187.3740  176.8920  142.4800 C   0  0  2  0  0  3  0  0  0  0  0  0
  186.3670  178.7400  145.5450 O   0  0  0  0  0  0  0  0  0  0  0  0
  187.8800  174.2900  142.1300 C   0  0  0  0  0  3  0  0  0  0  0  0
  187.6530  175.4630  142.2880 C   0  0  0  0  0  0  0  0  0  0  0  0
  191.1780  176.2320  148.2850 O   0  0  0  0  0  0  0  0  0  0  0  0
  191.3850  175.6750  147.2180 C   0  0  0  0  0  3  0  0  0  0  0  0
  1 11  1  0  0  0  0
  1 16  1  1  0  0  0
  2  7  1  1  0  0  0
  2  3  1  0  0  0  0
  2 15  1  0  0  0  0
  3 18  1  1  0  0  0
  4 10  1  6  0  0  0
  4 13  1  0  0  0  0
  6 10  1  6  0  0  0
  6 12  1  0  0  0  0
  8  6  1  0  0  0  0
  9  7  1  6  0  0  0
  9 14  1  0  0  0  0
 11 37  1  1  0  0  0
 12 13  1  1  0  0  0
 12 11  1  0  0  0  0
 14  5  1  6  0  0  0
 14  3  1  0  0  0  0
 15  8  1  6  0  0  0
 15 17  1  0  0  0  0
 17 18  1  6  0  0  0
 17  1  1  0  0  0  0
 19 26  1  0  0  0  0
 22 26  1  0  0  0  0
 22 23  1  0  0  0  0
 23 21  1  1  0  0  0
 23 24  1  0  0  0  0
 24 20  1  6  0  0  0
 24  9  1  0  0  0  0
 26 25  2  6  0  0  0
 26 20  1  0  0  0  0
 27 31  1  6  0  0  0
 27  4  1  0  0  0  0
 28 30  1  0  0  0  0
 28 32  1  0  0  0  0
 29 31  1  0  0  0  0
 30 29  2  0  0  0  0
 31 33  2  0  0  0  0
 32 35  1  1  0  0  0
 32 27  1  0  0  0  0
 34 35  3  0  0  0  0
 37 36  2  0  0  0  0
M  END
>  <MODEL>
1

>  <REMARK>
 VINA RESULT:      -7.7      0.000      0.000
  Name = 
  4 active torsions:
  status: ('A' for Active; 'I' for Inactive)
    1  A    between atoms: C_6  and  N_9
    2  A    between atoms: C_13  and  C_32
    3  A    between atoms: C_17  and  C_23
    4  A    between atoms: C_20  and  C_35
                            x       y       z     vdW  Elec       q    Type
                         _______ _______ _______ _____ _____    ______ ____

>  <TORSDO>
F 4

$$$$
=
 OpenBabel11062421513D

 37 42  0  0  1  0  0  0  0  0999 V2000
  192.7850  175.9440  144.4850 C   0  0  2  0  0  3  0  0  0  0  0  0
  191.6710  174.3940  141.3360 C   0  0  1  0  0  3  0  0  0  0  0  0
  193.1670  174.5770  141.1490 C   0  0  2  0  0  3  0  0  0  0  0  0
  188.3080  177.7590  144.8840 N   0  0  2  0  0  0  0  0  0  0  0  0
  194.9370  173.0760  140.1660 C   0  0  0  0  0  1  0  0  0  0  0  0
  189.9800  176.7850  143.4850 C   0  0  1  0  0  3  0  0  0  0  0  0
  191.3950  172.9020  141.4410 C   0  0  0  0  0  2  0  0  0  0  0  0
  190.1250  175.8060  142.4760 O   0  0  0  0  0  0  0  0  0  0  0  0
  192.6450  172.1970  140.9410 C   0  0  2  0  0  3  0  0  0  0  0  0
  188.5590  177.2750  143.5290 C   0  0  0  0  0  2  0  0  0  0  0  0
  191.6700  176.6340  145.3130 C   0  0  1  0  0  3  0  0  0  0  0  0
  190.2380  176.2660  144.8830 C   0  0  1  0  0  3  0  0  0  0  0  0
  189.1870  176.9600  145.7410 C   0  0  0  0  0  2  0  0  0  0  0  0
  193.7830  173.1930  141.1520 C   0  0  2  0  0  3  0  0  0  0  0  0
  191.3290  175.0760  142.6310 C   0  0  2  0  0  3  0  0  0  0  0  0
  194.1170  176.6160  144.7930 C   0  0  0  0  0  1  0  0  0  0  0  0
  192.5480  175.9340  142.9630 C   0  0  2  0  0  3  0  0  0  0  0  0
  193.6920  175.3470  142.2720 N   0  0  0  0  0  2  0  0  0  0  0  0
  189.5780  169.8050  137.9480 O   0  0  0  0  0  1  0  0  0  0  0  0
  192.0350  169.8770  139.6260 S   0  0  0  0  0  0  0  0  0  0  0  0
  191.9020  173.6840  138.3770 O   0  0  0  0  0  1  0  0  0  0  0  0
  191.2820  171.7290  137.3950 O   0  0  0  0  0  0  0  0  0  0  0  0
  191.4700  172.3810  138.6230 C   0  0  1  0  0  3  0  0  0  0  0  0
  192.4870  171.6330  139.5130 C   0  0  1  0  0  3  0  0  0  0  0  0
  191.7400  169.1050  136.6220 O   0  0  0  0  0  0  0  0  0  0  0  0
  191.0520  170.1070  137.7990 P   0  0  2  0  0  0  0  0  0  0  0  0
  186.9070  177.5290  145.3040 C   0  0  1  0  0  3  0  0  0  0  0  0
  184.8330  178.8880  146.0150 C   0  0  0  0  0  2  0  0  0  0  0  0
  186.2350  177.9500  147.7500 N   0  0  0  0  0  0  0  0  0  0  0  0
  185.3190  178.8050  147.4230 C   0  0  0  0  0  3  0  0  0  0  0  0
  186.8800  177.1280  146.7720 C   0  0  0  0  0  0  0  0  0  0  0  0
  186.0000  178.7680  145.0380 C   0  0  2  0  0  3  0  0  0  0  0  0
  187.4460  176.0670  147.1450 O   0  0  0  0  0  0  0  0  0  0  0  0
  184.9800  178.6600  142.5690 C   0  0  0  0  0  3  0  0  0  0  0  0
  185.4400  178.7090  143.6820 C   0  0  0  0  0  0  0  0  0  0  0  0
  191.9180  175.1960  147.1880 O   0  0  0  0  0  0  0  0  0  0  0  0
  191.8760  176.3450  146.7760 C   0  0  0  0  0  3  0  0  0  0  0  0
  1 16  1  6  0  0  0
  1 11  1  0  0  0  0
  2  7  1  1  0  0  0
  2 15  1  0  0  0  0
  3 14  1  0  0  0  0
  3  2  1  0  0  0  0
  3 18  1  1  0  0  0
  4 10  1  6  0  0  0
  4 27  1  0  0  0  0
  4 13  1  0  0  0  0
  6 10  1  1  0  0  0
  6 12  1  0  0  0  0
  8  6  1  0  0  0  0
  9 14  1  0  0  0  0
  9  7  1  6  0  0  0
 11 37  1  1  0  0  0
 12 11  1  0  0  0  0
 12 13  1  1  0  0  0
 14  5  1  6  0  0  0
 15  8  1  6  0  0  0
 15 17  1  0  0  0  0
 17 18  1  6  0  0  0
 17  1  1  0  0  0  0
 22 26  1  0  0  0  0
 22 23  1  0  0  0  0
 23 21  1  6  0  0  0
 23 24  1  0  0  0  0
 24 20  1  1  0  0  0
 24  9  1  0  0  0  0
 26 25  2  6  0  0  0
 26 19  1  0  0  0  0
 26 20  1  0  0  0  0
 27 31  1  1  0  0  0
 28 30  1  0  0  0  0
 30 29  2  0  0  0  0
 31 33  2  0  0  0  0
 31 29  1  0  0  0  0
 32 35  1  6  0  0  0
 32 27  1  0  0  0  0
 32 28  1  0  0  0  0
 34 35  3  0  0  0  0
 37 36  2  0  0  0  0
M  END
>  <MODEL>
2

>  <REMARK>
 VINA RESULT:      -7.1      2.758      3.506
  Name = 
  4 active torsions:
  status: ('A' for Active; 'I' for Inactive)
    1  A    between atoms: C_6  and  N_9
    2  A    between atoms: C_13  and  C_32
    3  A    between atoms: C_17  and  C_23
    4  A    between atoms: C_20  and  C_35
                            x       y       z     vdW  Elec       q    Type
                         _______ _______ _______ _____ _____    ______ ____

>  <TORSDO>
F 4

$$$$
=
 OpenBabel11062421513D

 37 42  0  0  1  0  0  0  0  0999 V2000
  191.9390  176.4110  146.9870 C   0  0  2  0  0  3  0  0  0  0  0  0
  189.0880  175.8690  144.7200 C   0  0  1  0  0  3  0  0  0  0  0  0
  188.4420  176.1770  146.0600 C   0  0  2  0  0  3  0  0  0  0  0  0
  194.4850  173.4850  144.0800 N   0  0  2  0  0  0  0  0  0  0  0  0
  186.4620  177.6060  146.6850 C   0  0  0  0  0  1  0  0  0  0  0  0
  192.3450  174.2620  144.7980 C   0  0  1  0  0  3  0  0  0  0  0  0
  188.8050  177.0370  143.7880 C   0  0  0  0  0  2  0  0  0  0  0  0
  191.0960  174.6650  144.2730 O   0  0  0  0  0  0  0  0  0  0  0  0
  187.6890  177.8420  144.4350 C   0  0  2  0  0  3  0  0  0  0  0  0
  193.0530  173.3670  143.8200 C   0  0  0  0  0  2  0  0  0  0  0  0
  193.2870  175.8140  146.5090 C   0  0  1  0  0  3  0  0  0  0  0  0
  193.3110  175.4040  145.0250 C   0  0  1  0  0  3  0  0  0  0  0  0
  194.6630  174.8400  144.6080 C   0  0  0  0  0  2  0  0  0  0  0  0
  187.7800  177.5340  145.9270 C   0  0  2  0  0  3  0  0  0  0  0  0
  190.5640  175.7670  144.9860 C   0  0  2  0  0  3  0  0  0  0  0  0
  191.9410  176.4810  148.5100 C   0  0  0  0  0  1  0  0  0  0  0  0
  190.6880  175.6530  146.5040 C   0  0  2  0  0  3  0  0  0  0  0  0
  189.4820  176.2390  147.0810 N   0  0  0  0  0  2  0  0  0  0  0  0
  184.9360  178.9710  140.5320 O   0  0  0  0  0  0  0  0  0  0  0  0
  185.5490  179.2200  143.4330 S   0  0  0  0  0  0  0  0  0  0  0  0
  186.7640  175.4600  142.7600 O   0  0  0  0  0  1  0  0  0  0  0  0
  185.0890  176.7100  141.8650 O   0  0  0  0  0  0  0  0  0  0  0  0
  186.3490  176.7610  142.4800 C   0  0  1  0  0  3  0  0  0  0  0  0
  186.3160  177.6090  143.7710 C   0  0  1  0  0  3  0  0  0  0  0  0
  182.8810  178.3770  142.0630 O   0  0  0  0  0  1  0  0  0  0  0  0
  184.5560  178.3110  141.8380 P   0  0  2  0  0  0  0  0  0  0  0  0
  195.2870  173.3540  142.8430 C   0  0  1  0  0  3  0  0  0  0  0  0
  194.9300  173.1550  140.2960 C   0  0  0  0  0  2  0  0  0  0  0  0
  195.2840  171.1240  141.5630 N   0  0  0  0  0  0  0  0  0  0  0  0
  194.8660  171.6740  140.4680 C   0  0  0  0  0  3  0  0  0  0  0  0
  195.7270  171.9060  142.6770 C   0  0  0  0  0  0  0  0  0  0  0  0
  194.5190  173.8610  141.5860 C   0  0  2  0  0  3  0  0  0  0  0  0
  196.4770  171.3740  143.5370 O   0  0  0  0  0  0  0  0  0  0  0  0
  194.9280  176.4800  141.2400 C   0  0  0  0  0  3  0  0  0  0  0  0
  194.7440  175.2990  141.3950 C   0  0  0  0  0  0  0  0  0  0  0  0
  194.5740  177.7730  146.1240 O   0  0  0  0  0  0  0  0  0  0  0  0
  194.4020  176.7790  146.8120 C   0  0  0  0  0  3  0  0  0  0  0  0
  1 16  1  1  0  0  0
  2  7  1  6  0  0  0
  2 15  1  0  0  0  0
  2  3  1  0  0  0  0
  3 18  1  1  0  0  0
  4 10  1  6  0  0  0
  4 13  1  0  0  0  0
  6 10  1  6  0  0  0
  6 12  1  0  0  0  0
  8  6  1  0  0  0  0
  9  7  1  6  0  0  0
  9 14  1  0  0  0  0
 11 37  1  6  0  0  0
 11  1  1  0  0  0  0
 12 13  1  1  0  0  0
 12 11  1  0  0  0  0
 14  3  1  0  0  0  0
 14  5  1  6  0  0  0
 15  8  1  6  0  0  0
 15 17  1  0  0  0  0
 17  1  1  0  0  0  0
 17 18  1  1  0  0  0
 22 23  1  0  0  0  0
 23 21  1  1  0  0  0
 23 24  1  0  0  0  0
 24 20  1  6  0  0  0
 24  9  1  0  0  0  0
 26 19  2  6  0  0  0
 26 22  1  0  0  0  0
 26 25  1  0  0  0  0
 26 20  1  0  0  0  0
 27 31  1  6  0  0  0
 27  4  1  0  0  0  0
 28 30  1  0  0  0  0
 28 32  1  0  0  0  0
 29 31  1  0  0  0  0
 30 29  2  0  0  0  0
 31 33  2  0  0  0  0
 32 35  1  6  0  0  0
 32 27  1  0  0  0  0
 34 35  3  0  0  0  0
 36 37  2  0  0  0  0
M  END
>  <MODEL>
3

>  <REMARK>
 VINA RESULT:      -7.1      4.350      8.834
  Name = 
  4 active torsions:
  status: ('A' for Active; 'I' for Inactive)
    1  A    between atoms: C_6  and  N_9
    2  A    between atoms: C_13  and  C_32
    3  A    between atoms: C_17  and  C_23
    4  A    between atoms: C_20  and  C_35
                            x       y       z     vdW  Elec       q    Type
                         _______ _______ _______ _____ _____    ______ ____

>  <TORSDO>
F 4

$$$$
=
 OpenBabel11062421513D

 37 42  0  0  1  0  0  0  0  0999 V2000
  192.0300  176.3320  146.7290 C   0  0  2  0  0  3  0  0  0  0  0  0
  189.1140  175.9510  144.5140 C   0  0  1  0  0  3  0  0  0  0  0  0
  188.5100  176.0800  145.9010 C   0  0  2  0  0  3  0  0  0  0  0  0
  194.5560  173.8510  143.4170 N   0  0  2  0  0  0  0  0  0  0  0  0
  186.5120  177.3560  146.7550 C   0  0  0  0  0  1  0  0  0  0  0  0
  192.4210  174.4630  144.2940 C   0  0  1  0  0  3  0  0  0  0  0  0
  188.7590  177.2070  143.7330 C   0  0  0  0  0  2  0  0  0  0  0  0
  191.1410  174.8780  143.8620 O   0  0  0  0  0  0  0  0  0  0  0  0
  187.6440  177.8920  144.5060 C   0  0  2  0  0  3  0  0  0  0  0  0
  193.1190  173.7120  143.1940 C   0  0  0  0  0  2  0  0  0  0  0  0
  193.3780  175.8420  146.1390 C   0  0  1  0  0  3  0  0  0  0  0  0
  193.3590  175.6060  144.6170 C   0  0  1  0  0  3  0  0  0  0  0  0
  194.7110  175.1420  144.0920 C   0  0  0  0  0  2  0  0  0  0  0  0
  187.8010  177.4180  145.9490 C   0  0  2  0  0  3  0  0  0  0  0  0
  190.6010  175.8720  144.7150 C   0  0  2  0  0  3  0  0  0  0  0  0
  192.0890  176.2270  148.2480 C   0  0  0  0  0  1  0  0  0  0  0  0
  190.7870  175.5900  146.2050 C   0  0  2  0  0  3  0  0  0  0  0  0
  189.5860  176.0620  146.8870 N   0  0  0  0  0  2  0  0  0  0  0  0
  184.8650  179.0310  140.6250 O   0  0  0  0  0  0  0  0  0  0  0  0
  185.5290  179.3140  143.5120 S   0  0  0  0  0  0  0  0  0  0  0  0
  186.6250  175.5080  142.8890 O   0  0  0  0  0  1  0  0  0  0  0  0
  184.9720  176.7910  141.9960 O   0  0  0  0  0  0  0  0  0  0  0  0
  186.2430  176.8160  142.5920 C   0  0  1  0  0  3  0  0  0  0  0  0
  186.2540  177.6870  143.8670 C   0  0  1  0  0  3  0  0  0  0  0  0
  182.8170  178.5250  142.1970 O   0  0  0  0  0  1  0  0  0  0  0  0
  184.4860  178.4060  141.9480 P   0  0  2  0  0  0  0  0  0  0  0  0
  195.3130  173.8920  142.1460 C   0  0  1  0  0  3  0  0  0  0  0  0
  197.5810  174.7330  141.2490 C   0  0  0  0  0  2  0  0  0  0  0  0
  195.6350  176.1380  140.9360 N   0  0  0  0  0  0  0  0  0  0  0  0
  196.9260  176.0410  140.9560 C   0  0  0  0  0  3  0  0  0  0  0  0
  194.7930  175.0340  141.2850 C   0  0  0  0  0  0  0  0  0  0  0  0
  196.8490  174.0100  142.3780 C   0  0  2  0  0  3  0  0  0  0  0  0
  193.6000  175.0260  140.8820 O   0  0  0  0  0  0  0  0  0  0  0  0
  197.9410  171.5820  142.6240 C   0  0  0  0  0  3  0  0  0  0  0  0
  197.4490  172.6770  142.5140 C   0  0  0  0  0  0  0  0  0  0  0  0
  194.5700  177.8890  145.9580 O   0  0  0  0  0  0  0  0  0  0  0  0
  194.4730  176.8050  146.5130 C   0  0  0  0  0  3  0  0  0  0  0  0
  1 16  1  1  0  0  0
  2  7  1  6  0  0  0
  2 15  1  0  0  0  0
  2  3  1  0  0  0  0
  3 14  1  0  0  0  0
  3 18  1  1  0  0  0
  4 10  1  6  0  0  0
  4 13  1  0  0  0  0
  6 10  1  6  0  0  0
  6 12  1  0  0  0  0
  8  6  1  0  0  0  0
  9  7  1  6  0  0  0
  9 14  1  0  0  0  0
 11 37  1  6  0  0  0
 11  1  1  0  0  0  0
 12 13  1  1  0  0  0
 12 11  1  0  0  0  0
 14  5  1  6  0  0  0
 15  8  1  6  0  0  0
 15 17  1  0  0  0  0
 17  1  1  0  0  0  0
 17 18  1  1  0  0  0
 22 23  1  0  0  0  0
 23 21  1  1  0  0  0
 23 24  1  0  0  0  0
 24 20  1  6  0  0  0
 24  9  1  0  0  0  0
 26 19  2  6  0  0  0
 26 22  1  0  0  0  0
 26 25  1  0  0  0  0
 26 20  1  0  0  0  0
 27 31  1  6  0  0  0
 27 32  1  0  0  0  0
 27  4  1  0  0  0  0
 28 32  1  0  0  0  0
 29 30  2  0  0  0  0
 29 31  1  0  0  0  0
 30 28  1  0  0  0  0
 32 35  1  6  0  0  0
 33 31  2  0  0  0  0
 35 34  3  0  0  0  0
 36 37  2  0  0  0  0
M  END
>  <MODEL>
4

>  <REMARK>
 VINA RESULT:      -7.0      4.090      8.889
  Name = 
  4 active torsions:
  status: ('A' for Active; 'I' for Inactive)
    1  A    between atoms: C_6  and  N_9
    2  A    between atoms: C_13  and  C_32
    3  A    between atoms: C_17  and  C_23
    4  A    between atoms: C_20  and  C_35
                            x       y       z     vdW  Elec       q    Type
                         _______ _______ _______ _____ _____    ______ ____

>  <TORSDO>
F 4

$$$$
=
 OpenBabel11062421513D

 37 42  0  0  1  0  0  0  0  0999 V2000
  190.9590  175.9100  146.6300 C   0  0  2  0  0  3  0  0  0  0  0  0
  193.0850  175.3150  143.6830 C   0  0  1  0  0  3  0  0  0  0  0  0
  194.0740  175.5740  144.8070 C   0  0  2  0  0  3  0  0  0  0  0  0
  187.5470  177.4450  143.5470 N   0  0  2  0  0  0  0  0  0  0  0  0
  196.2450  174.4550  145.4280 C   0  0  0  0  0  1  0  0  0  0  0  0
  189.8500  176.9490  143.9340 C   0  0  1  0  0  3  0  0  0  0  0  0
  193.2030  173.8520  143.2870 C   0  0  0  0  0  2  0  0  0  0  0  0
  190.9480  176.3070  143.3180 O   0  0  0  0  0  0  0  0  0  0  0  0
  194.5020  173.3460  143.8930 C   0  0  2  0  0  3  0  0  0  0  0  0
  188.8520  177.3780  142.8950 C   0  0  0  0  0  2  0  0  0  0  0  0
  189.4930  176.3090  146.3190 C   0  0  1  0  0  3  0  0  0  0  0  0
  189.0590  176.0540  144.8630 C   0  0  1  0  0  3  0  0  0  0  0  0
  187.6080  176.4490  144.6200 C   0  0  0  0  0  2  0  0  0  0  0  0
  194.7750  174.2600  145.0850 C   0  0  2  0  0  3  0  0  0  0  0  0
  191.7240  175.5870  144.2590 C   0  0  2  0  0  3  0  0  0  0  0  0
  191.3520  176.4900  147.9830 C   0  0  0  0  0  1  0  0  0  0  0  0
  191.9860  176.3360  145.5640 C   0  0  2  0  0  3  0  0  0  0  0  0
  193.3380  175.9950  145.9940 N   0  0  0  0  0  2  0  0  0  0  0  0
  195.4760  172.3150  139.1950 O   0  0  0  0  0  0  0  0  0  0  0  0
  195.5330  171.5780  142.0780 S   0  0  0  0  0  0  0  0  0  0  0  0
  195.9280  175.5590  142.3420 O   0  0  0  0  0  1  0  0  0  0  0  0
  196.6340  174.0500  140.7940 O   0  0  0  0  0  0  0  0  0  0  0  0
  195.6630  174.3140  141.7720 C   0  0  1  0  0  3  0  0  0  0  0  0
  195.6380  173.2160  142.8570 C   0  0  1  0  0  3  0  0  0  0  0  0
  197.8880  171.6930  140.0410 O   0  0  0  0  0  1  0  0  0  0  0  0
  196.4040  172.4300  140.3820 P   0  0  2  0  0  0  0  0  0  0  0  0
  186.4470  177.0760  142.6270 C   0  0  1  0  0  3  0  0  0  0  0  0
  185.7010  177.5200  140.1990 C   0  0  0  0  0  2  0  0  0  0  0  0
  184.7080  178.8490  141.9610 N   0  0  0  0  0  0  0  0  0  0  0  0
  184.9500  178.7090  140.6970 C   0  0  0  0  0  3  0  0  0  0  0  0
  185.2270  177.9330  142.9320 C   0  0  0  0  0  0  0  0  0  0  0  0
  186.8640  177.1940  141.1310 C   0  0  2  0  0  3  0  0  0  0  0  0
  184.6680  177.8560  144.0570 O   0  0  0  0  0  0  0  0  0  0  0  0
  187.9600  174.9060  140.2870 C   0  0  0  0  0  3  0  0  0  0  0  0
  187.4660  175.9370  140.6690 C   0  0  0  0  0  0  0  0  0  0  0  0
  188.7530  174.4490  147.5990 O   0  0  0  0  0  0  0  0  0  0  0  0
  188.5660  175.6130  147.2790 C   0  0  0  0  0  3  0  0  0  0  0  0
  1 16  1  1  0  0  0
  2  7  1  1  0  0  0
  2 15  1  0  0  0  0
  2  3  1  0  0  0  0
  3 14  1  0  0  0  0
  3 18  1  1  0  0  0
  4 10  1  6  0  0  0
  4 13  1  0  0  0  0
  6 10  1  6  0  0  0
  6 12  1  0  0  0  0
  8  6  1  0  0  0  0
  9  7  1  6  0  0  0
  9 14  1  0  0  0  0
 11  1  1  0  0  0  0
 11 37  1  1  0  0  0
 12 13  1  1  0  0  0
 12 11  1  0  0  0  0
 14  5  1  6  0  0  0
 15  8  1  6  0  0  0
 15 17  1  0  0  0  0
 17 18  1  1  0  0  0
 17  1  1  0  0  0  0
 22 23  1  0  0  0  0
 23 21  1  1  0  0  0
 23 24  1  0  0  0  0
 24 20  1  6  0  0  0
 24  9  1  0  0  0  0
 25 26  1  0  0  0  0
 26 19  2  6  0  0  0
 26 22  1  0  0  0  0
 26 20  1  0  0  0  0
 27 31  1  6  0  0  0
 27  4  1  0  0  0  0
 28 30  1  0  0  0  0
 28 32  1  0  0  0  0
 29 31  1  0  0  0  0
 30 29  2  0  0  0  0
 31 33  2  0  0  0  0
 32 35  1  6  0  0  0
 32 27  1  0  0  0  0
 34 35  3  0  0  0  0
 37 36  2  0  0  0  0
M  END
>  <MODEL>
5

>  <REMARK>
 VINA RESULT:      -6.9      1.944      2.368
  Name = 
  4 active torsions:
  status: ('A' for Active; 'I' for Inactive)
    1  A    between atoms: C_6  and  N_9
    2  A    between atoms: C_13  and  C_32
    3  A    between atoms: C_17  and  C_23
    4  A    between atoms: C_20  and  C_35
                            x       y       z     vdW  Elec       q    Type
                         _______ _______ _______ _____ _____    ______ ____

>  <TORSDO>
F 4

$$$$
=
 OpenBabel11062421513D

 37 42  0  0  1  0  0  0  0  0999 V2000
  189.3610  172.9340  139.4560 C   0  0  2  0  0  3  0  0  0  0  0  0
  191.3640  172.3310  142.4850 C   0  0  1  0  0  3  0  0  0  0  0  0
  191.4840  171.0370  141.7000 C   0  0  2  0  0  3  0  0  0  0  0  0
  186.7710  176.0690  142.0940 N   0  0  2  0  0  0  0  0  0  0  0  0
  193.4450  169.5220  141.2410 C   0  0  0  0  0  1  0  0  0  0  0  0
  188.3020  174.2380  142.0550 C   0  0  1  0  0  3  0  0  0  0  0  0
  192.7260  173.0100  142.4750 C   0  0  0  0  0  2  0  0  0  0  0  0
  189.4920  173.7950  142.6760 O   0  0  0  0  0  0  0  0  0  0  0  0
  193.7260  171.9570  142.0260 C   0  0  2  0  0  3  0  0  0  0  0  0
  187.5810  175.2060  142.9510 C   0  0  0  0  0  2  0  0  0  0  0  0
  188.3240  174.0820  139.5650 C   0  0  1  0  0  3  0  0  0  0  0  0
  188.5300  175.0130  140.7750 C   0  0  1  0  0  3  0  0  0  0  0  0
  187.4950  176.1290  140.8220 C   0  0  0  0  0  2  0  0  0  0  0  0
  192.9170  170.9500  141.2140 C   0  0  2  0  0  3  0  0  0  0  0  0
  190.3620  173.1730  141.7470 C   0  0  2  0  0  3  0  0  0  0  0  0
  188.8720  171.9250  138.4240 C   0  0  0  0  0  1  0  0  0  0  0  0
  189.6710  172.2130  140.7810 C   0  0  2  0  0  3  0  0  0  0  0  0
  190.5830  171.0970  140.5540 N   0  0  0  0  0  2  0  0  0  0  0  0
  196.3040  173.1720  146.0220 O   0  0  0  0  0  1  0  0  0  0  0  0
  196.1800  172.2070  143.2090 S   0  0  0  0  0  0  0  0  0  0  0  0
  192.7460  170.7110  144.6380 O   0  0  0  0  0  1  0  0  0  0  0  0
  194.7730  171.0770  145.6000 O   0  0  0  0  0  0  0  0  0  0  0  0
  193.9000  171.4910  144.5830 C   0  0  1  0  0  3  0  0  0  0  0  0
  194.5610  171.3840  143.1910 C   0  0  1  0  0  3  0  0  0  0  0  0
  197.5380  170.8750  145.6760 O   0  0  0  0  0  0  0  0  0  0  0  0
  196.2280  171.8640  145.2680 P   0  0  2  0  0  0  0  0  0  0  0  0
  186.6590  177.4420  142.6360 C   0  0  1  0  0  3  0  0  0  0  0  0
  186.3150  178.6260  144.9020 C   0  0  0  0  0  2  0  0  0  0  0  0
  184.3830  178.2870  143.4840 N   0  0  0  0  0  0  0  0  0  0  0  0
  184.8440  178.5490  144.6660 C   0  0  0  0  0  3  0  0  0  0  0  0
  185.2520  177.9680  142.3920 C   0  0  0  0  0  0  0  0  0  0  0  0
  187.0370  177.5130  144.1460 C   0  0  2  0  0  3  0  0  0  0  0  0
  184.8290  178.1130  141.2140 O   0  0  0  0  0  0  0  0  0  0  0  0
  189.6650  177.9160  144.4270 C   0  0  0  0  0  3  0  0  0  0  0  0
  188.4800  177.7350  144.3010 C   0  0  0  0  0  0  0  0  0  0  0  0
  187.3090  174.9150  137.5850 O   0  0  0  0  0  0  0  0  0  0  0  0
  188.3090  174.8730  138.2840 C   0  0  0  0  0  3  0  0  0  0  0  0
  1 16  1  6  0  0  0
  1 11  1  0  0  0  0
  1 17  1  0  0  0  0
  2  7  1  6  0  0  0
  3 18  1  6  0  0  0
  3  2  1  0  0  0  0
  4 13  1  6  0  0  0
  4 27  1  0  0  0  0
  4 10  1  0  0  0  0
  6  8  1  0  0  0  0
  6 10  1  1  0  0  0
  9  7  1  1  0  0  0
  9 24  1  0  0  0  0
 11 37  1  6  0  0  0
 11 12  1  0  0  0  0
 12 13  1  6  0  0  0
 12  6  1  0  0  0  0
 14  5  1  1  0  0  0
 14  3  1  0  0  0  0
 14  9  1  0  0  0  0
 15  2  1  0  0  0  0
 15  8  1  1  0  0  0
 17 18  1  6  0  0  0
 17 15  1  0  0  0  0
 20 26  1  0  0  0  0
 23 21  1  6  0  0  0
 23 22  1  0  0  0  0
 24 20  1  1  0  0  0
 24 23  1  0  0  0  0
 26 22  1  0  0  0  0
 26 25  2  1  0  0  0
 26 19  1  0  0  0  0
 27 31  1  1  0  0  0
 27 32  1  0  0  0  0
 29 30  2  0  0  0  0
 30 28  1  0  0  0  0
 31 29  1  0  0  0  0
 32 35  1  6  0  0  0
 32 28  1  0  0  0  0
 33 31  2  0  0  0  0
 35 34  3  0  0  0  0
 36 37  2  0  0  0  0
M  END
>  <MODEL>
6

>  <REMARK>
 VINA RESULT:      -6.7      4.279      6.013
  Name = 
  4 active torsions:
  status: ('A' for Active; 'I' for Inactive)
    1  A    between atoms: C_6  and  N_9
    2  A    between atoms: C_13  and  C_32
    3  A    between atoms: C_17  and  C_23
    4  A    between atoms: C_20  and  C_35
                            x       y       z     vdW  Elec       q    Type
                         _______ _______ _______ _____ _____    ______ ____

>  <TORSDO>
F 4

$$$$
=
 OpenBabel11062421513D

 37 42  0  0  1  0  0  0  0  0999 V2000
  192.8870  176.3790  145.9810 C   0  0  2  0  0  3  0  0  0  0  0  0
  193.0830  175.7010  142.3670 C   0  0  1  0  0  3  0  0  0  0  0  0
  194.5230  175.9630  142.7730 C   0  0  2  0  0  3  0  0  0  0  0  0
  188.3580  177.9150  145.1940 N   0  0  2  0  0  0  0  0  0  0  0  0
  196.6810  174.8210  142.1490 C   0  0  0  0  0  1  0  0  0  0  0  0
  190.5030  177.3900  144.2870 C   0  0  1  0  0  3  0  0  0  0  0  0
  192.9620  174.2290  142.0030 C   0  0  0  0  0  2  0  0  0  0  0  0
  191.0910  176.7200  143.1910 O   0  0  0  0  0  0  0  0  0  0  0  0
  194.3800  173.7130  141.8240 C   0  0  2  0  0  3  0  0  0  0  0  0
  189.1030  177.8170  143.9420 C   0  0  0  0  0  2  0  0  0  0  0  0
  191.4880  176.7960  146.5010 C   0  0  1  0  0  3  0  0  0  0  0  0
  190.3350  176.5230  145.5170 C   0  0  1  0  0  3  0  0  0  0  0  0
  188.9850  176.9370  146.0860 C   0  0  0  0  0  2  0  0  0  0  0  0
  195.2580  174.6430  142.6580 C   0  0  2  0  0  3  0  0  0  0  0  0
  192.2500  176.0040  143.5810 C   0  0  2  0  0  3  0  0  0  0  0  0
  193.9520  176.9760  146.8940 C   0  0  0  0  0  1  0  0  0  0  0  0
  193.1780  176.7710  144.5200 C   0  0  2  0  0  3  0  0  0  0  0  0
  194.5470  176.4160  144.1590 N   0  0  0  0  0  2  0  0  0  0  0  0
  197.4480  175.3150  138.3440 O   0  0  0  0  0  1  0  0  0  0  0  0
  194.7250  175.1760  139.5380 S   0  0  0  0  0  0  0  0  0  0  0  0
  196.1450  171.5670  140.5530 O   0  0  0  0  0  1  0  0  0  0  0  0
  196.4990  172.8970  138.7420 O   0  0  0  0  0  0  0  0  0  0  0  0
  196.1520  172.8860  140.1020 C   0  0  1  0  0  3  0  0  0  0  0  0
  194.7770  173.5480  140.3410 C   0  0  1  0  0  3  0  0  0  0  0  0
  195.6280  174.4790  136.6380 O   0  0  0  0  0  0  0  0  0  0  0  0
  196.1960  174.4760  138.2320 P   0  0  2  0  0  0  0  0  0  0  0  0
  186.9340  177.5490  145.0220 C   0  0  1  0  0  3  0  0  0  0  0  0
  184.6490  178.6960  144.6750 C   0  0  0  0  0  2  0  0  0  0  0  0
  185.2650  178.0300  146.9190 N   0  0  0  0  0  0  0  0  0  0  0  0
  184.5050  178.7520  146.1590 C   0  0  0  0  0  3  0  0  0  0  0  0
  186.3260  177.2330  146.3820 C   0  0  0  0  0  0  0  0  0  0  0  0
  186.1240  178.6550  144.2830 C   0  0  2  0  0  3  0  0  0  0  0  0
  186.7680  176.2680  147.0600 O   0  0  0  0  0  0  0  0  0  0  0  0
  186.2460  178.2870  141.6380 C   0  0  0  0  0  3  0  0  0  0  0  0
  186.1920  178.4530  142.8300 C   0  0  0  0  0  0  0  0  0  0  0  0
  191.2260  174.9150  147.9280 O   0  0  0  0  0  0  0  0  0  0  0  0
  191.2230  176.1320  147.8260 C   0  0  0  0  0  3  0  0  0  0  0  0
  1 11  1  0  0  0  0
  1 16  1  1  0  0  0
  2  7  1  1  0  0  0
  2  3  1  0  0  0  0
  2 15  1  0  0  0  0
  3 18  1  1  0  0  0
  4 10  1  6  0  0  0
  4 13  1  0  0  0  0
  6 10  1  6  0  0  0
  6 12  1  0  0  0  0
  8  6  1  0  0  0  0
  9  7  1  6  0  0  0
  9 14  1  0  0  0  0
 11 37  1  1  0  0  0
 12 13  1  1  0  0  0
 12 11  1  0  0  0  0
 14  5  1  6  0  0  0
 14  3  1  0  0  0  0
 15  8  1  6  0  0  0
 15 17  1  0  0  0  0
 17 18  1  6  0  0  0
 17  1  1  0  0  0  0
 22 23  1  0  0  0  0
 23 24  1  0  0  0  0
 23 21  1  6  0  0  0
 24 20  1  1  0  0  0
 24  9  1  0  0  0  0
 26 25  2  6  0  0  0
 26 19  1  0  0  0  0
 26 22  1  0  0  0  0
 26 20  1  0  0  0  0
 27  4  1  0  0  0  0
 27 31  1  1  0  0  0
 28 30  1  0  0  0  0
 30 29  2  0  0  0  0
 31 29  1  0  0  0  0
 31 33  2  0  0  0  0
 32 35  1  6  0  0  0
 32 28  1  0  0  0  0
 32 27  1  0  0  0  0
 34 35  3  0  0  0  0
 37 36  2  0  0  0  0
M  END
>  <MODEL>
7

>  <REMARK>
 VINA RESULT:      -6.5      1.730      2.257
  Name = 
  4 active torsions:
  status: ('A' for Active; 'I' for Inactive)
    1  A    between atoms: C_6  and  N_9
    2  A    between atoms: C_13  and  C_32
    3  A    between atoms: C_17  and  C_23
    4  A    between atoms: C_20  and  C_35
                            x       y       z     vdW  Elec       q    Type
                         _______ _______ _______ _____ _____    ______ ____

>  <TORSDO>
F 4

$$$$
=
 OpenBabel11062421513D

 37 42  0  0  1  0  0  0  0  0999 V2000
  193.9810  176.2850  144.4450 C   0  0  2  0  0  3  0  0  0  0  0  0
  190.4910  175.7630  143.3930 C   0  0  1  0  0  3  0  0  0  0  0  0
  190.3900  176.0490  144.8810 C   0  0  2  0  0  3  0  0  0  0  0  0
  195.2600  173.4110  140.7570 N   0  0  2  0  0  0  0  0  0  0  0  0
  188.7870  177.4610  146.2180 C   0  0  0  0  0  1  0  0  0  0  0  0
  193.5420  174.1680  142.2310 C   0  0  1  0  0  3  0  0  0  0  0  0
  189.8830  176.9420  142.6500 C   0  0  0  0  0  2  0  0  0  0  0  0
  192.1880  174.5730  142.2140 O   0  0  0  0  0  0  0  0  0  0  0  0
  189.0900  177.7340  143.6770 C   0  0  2  0  0  3  0  0  0  0  0  0
  193.8330  173.2900  141.0460 C   0  0  0  0  0  2  0  0  0  0  0  0
  195.0540  175.7000  143.4910 C   0  0  1  0  0  3  0  0  0  0  0  0
  194.5240  175.3110  142.0980 C   0  0  1  0  0  3  0  0  0  0  0  0
  195.6240  174.7590  141.2000 C   0  0  0  0  0  2  0  0  0  0  0  0
  189.7290  177.4050  145.0240 C   0  0  2  0  0  3  0  0  0  0  0  0
  191.9600  175.6630  143.0900 C   0  0  2  0  0  3  0  0  0  0  0  0
  194.5500  176.3330  145.8580 C   0  0  0  0  0  1  0  0  0  0  0  0
  192.6390  175.5280  144.4510 C   0  0  2  0  0  3  0  0  0  0  0  0
  191.7350  176.1010  145.4430 N   0  0  0  0  0  2  0  0  0  0  0  0
  185.1850  178.3870  140.7760 O   0  0  0  0  0  0  0  0  0  0  0  0
  186.7620  179.0900  143.2000 S   0  0  0  0  0  0  0  0  0  0  0  0
  187.6000  175.1810  142.9020 O   0  0  0  0  0  1  0  0  0  0  0  0
  185.7430  176.3910  142.3930 O   0  0  0  0  0  0  0  0  0  0  0  0
  187.1390  176.4430  142.5300 C   0  0  1  0  0  3  0  0  0  0  0  0
  187.5670  177.5040  143.5680 C   0  0  1  0  0  3  0  0  0  0  0  0
  183.7700  178.2470  142.9900 O   0  0  0  0  0  1  0  0  0  0  0  0
  185.2640  178.0010  142.2360 P   0  0  2  0  0  0  0  0  0  0  0  0
  195.5440  173.3010  139.3080 C   0  0  1  0  0  3  0  0  0  0  0  0
  197.5440  173.4810  137.6900 C   0  0  0  0  0  2  0  0  0  0  0  0
  196.1200  175.4180  137.9670 N   0  0  0  0  0  0  0  0  0  0  0  0
  197.2570  174.9400  137.5710 C   0  0  0  0  0  3  0  0  0  0  0  0
  195.1440  174.5960  138.6160 C   0  0  0  0  0  0  0  0  0  0  0  0
  197.0320  172.9420  139.0240 C   0  0  2  0  0  3  0  0  0  0  0  0
  193.9410  174.9690  138.6230 O   0  0  0  0  0  0  0  0  0  0  0  0
  197.3630  170.2890  139.0030 C   0  0  0  0  0  3  0  0  0  0  0  0
  197.2130  171.4850  139.0130 C   0  0  0  0  0  0  0  0  0  0  0  0
  197.3550  176.2930  143.5350 O   0  0  0  0  0  0  0  0  0  0  0  0
  196.2030  176.6650  143.3710 C   0  0  0  0  0  3  0  0  0  0  0  0
  1 17  1  0  0  0  0
  1 16  1  1  0  0  0
  2  7  1  6  0  0  0
  2  3  1  0  0  0  0
  3 14  1  0  0  0  0
  3 18  1  6  0  0  0
  4 10  1  6  0  0  0
  4 13  1  0  0  0  0
  6 10  1  6  0  0  0
  8  6  1  0  0  0  0
  9  7  1  6  0  0  0
  9 14  1  0  0  0  0
 11 37  1  6  0  0  0
 11  1  1  0  0  0  0
 12 13  1  6  0  0  0
 12  6  1  0  0  0  0
 12 11  1  0  0  0  0
 14  5  1  1  0  0  0
 15  8  1  6  0  0  0
 15  2  1  0  0  0  0
 15 17  1  0  0  0  0
 17 18  1  1  0  0  0
 22 23  1  0  0  0  0
 23 21  1  1  0  0  0
 23 24  1  0  0  0  0
 24 20  1  6  0  0  0
 24  9  1  0  0  0  0
 26 19  2  6  0  0  0
 26 22  1  0  0  0  0
 26 25  1  0  0  0  0
 26 20  1  0  0  0  0
 27 31  1  6  0  0  0
 27  4  1  0  0  0  0
 28 32  1  0  0  0  0
 29 31  1  0  0  0  0
 30 28  1  0  0  0  0
 30 29  2  0  0  0  0
 31 33  2  0  0  0  0
 32 35  1  6  0  0  0
 32 27  1  0  0  0  0
 34 35  3  0  0  0  0
 37 36  2  0  0  0  0
M  END
>  <MODEL>
8

>  <REMARK>
 VINA RESULT:      -6.4      3.936      8.921
  Name = 
  4 active torsions:
  status: ('A' for Active; 'I' for Inactive)
    1  A    between atoms: C_6  and  N_9
    2  A    between atoms: C_13  and  C_32
    3  A    between atoms: C_17  and  C_23
    4  A    between atoms: C_20  and  C_35
                            x       y       z     vdW  Elec       q    Type
                         _______ _______ _______ _____ _____    ______ ____

>  <TORSDO>
F 4

$$$$
=
 OpenBabel11062421513D

 37 42  0  0  1  0  0  0  0  0999 V2000
  192.4550  175.9990  145.7860 C   0  0  2  0  0  3  0  0  0  0  0  0
  189.3320  176.1060  143.8370 C   0  0  1  0  0  3  0  0  0  0  0  0
  188.8830  175.7150  145.2340 C   0  0  2  0  0  3  0  0  0  0  0  0
  194.7240  174.9890  141.6230 N   0  0  2  0  0  0  0  0  0  0  0  0
  186.9260  176.4520  146.6400 C   0  0  0  0  0  1  0  0  0  0  0  0
  192.6720  175.0820  142.8390 C   0  0  1  0  0  3  0  0  0  0  0  0
  188.8210  177.5110  143.5600 C   0  0  0  0  0  2  0  0  0  0  0  0
  191.3300  175.4970  142.6860 O   0  0  0  0  0  0  0  0  0  0  0  0
  187.7640  177.7990  144.6140 C   0  0  2  0  0  3  0  0  0  0  0  0
  193.2820  174.8010  141.4930 C   0  0  0  0  0  2  0  0  0  0  0  0
  193.7520  175.8560  144.9490 C   0  0  1  0  0  3  0  0  0  0  0  0
  193.5740  176.1340  143.4450 C   0  0  1  0  0  3  0  0  0  0  0  0
  194.8820  175.9940  142.6780 C   0  0  0  0  0  2  0  0  0  0  0  0
  188.1100  176.8930  145.7920 C   0  0  2  0  0  3  0  0  0  0  0  0
  190.8350  176.1000  143.8690 C   0  0  2  0  0  3  0  0  0  0  0  0
  192.6910  175.4050  147.1690 C   0  0  0  0  0  1  0  0  0  0  0  0
  191.2030  175.3620  145.1530 C   0  0  2  0  0  3  0  0  0  0  0  0
  190.0630  175.4710  146.0570 N   0  0  0  0  0  2  0  0  0  0  0  0
  184.8480  179.0410  140.8670 O   0  0  0  0  0  0  0  0  0  0  0  0
  185.7140  179.3600  143.6960 S   0  0  0  0  0  0  0  0  0  0  0  0
  186.4530  175.4580  143.1510 O   0  0  0  0  0  1  0  0  0  0  0  0
  184.8580  176.8450  142.3130 O   0  0  0  0  0  0  0  0  0  0  0  0
  186.1620  176.7830  142.8290 C   0  0  1  0  0  3  0  0  0  0  0  0
  186.3240  177.6910  144.0680 C   0  0  1  0  0  3  0  0  0  0  0  0
  182.8690  178.7590  142.5770 O   0  0  0  0  0  1  0  0  0  0  0  0
  184.5030  178.4930  142.2330 P   0  0  2  0  0  0  0  0  0  0  0  0
  195.3300  175.5150  140.3790 C   0  0  1  0  0  3  0  0  0  0  0  0
  196.5120  174.6400  138.2600 C   0  0  0  0  0  2  0  0  0  0  0  0
  197.8830  175.4430  140.0850 N   0  0  0  0  0  0  0  0  0  0  0  0
  197.8060  174.7510  138.9930 C   0  0  0  0  0  3  0  0  0  0  0  0
  196.7260  176.0410  140.6800 C   0  0  0  0  0  0  0  0  0  0  0  0
  195.3570  174.4520  139.2410 C   0  0  2  0  0  3  0  0  0  0  0  0
  196.8790  177.0040  141.4770 O   0  0  0  0  0  0  0  0  0  0  0  0
  193.0820  174.5360  137.8380 C   0  0  0  0  0  3  0  0  0  0  0  0
  194.1080  174.4980  138.4700 C   0  0  0  0  0  0  0  0  0  0  0  0
  194.6110  177.9170  145.7620 O   0  0  0  0  0  0  0  0  0  0  0  0
  194.8260  176.7370  145.5280 C   0  0  0  0  0  3  0  0  0  0  0  0
  1 16  1  1  0  0  0
  2  7  1  1  0  0  0
  2 15  1  0  0  0  0
  2  3  1  0  0  0  0
  3 14  1  0  0  0  0
  3 18  1  1  0  0  0
  4 10  1  6  0  0  0
  4 13  1  0  0  0  0
  6 10  1  6  0  0  0
  6 12  1  0  0  0  0
  8  6  1  0  0  0  0
  9  7  1  6  0  0  0
  9 14  1  0  0  0  0
 11 37  1  1  0  0  0
 11  1  1  0  0  0  0
 12 13  1  6  0  0  0
 12 11  1  0  0  0  0
 14  5  1  6  0  0  0
 15  8  1  6  0  0  0
 15 17  1  0  0  0  0
 17  1  1  0  0  0  0
 17 18  1  1  0  0  0
 22 23  1  0  0  0  0
 23 21  1  1  0  0  0
 23 24  1  0  0  0  0
 24 20  1  6  0  0  0
 24  9  1  0  0  0  0
 26 19  2  6  0  0  0
 26 22  1  0  0  0  0
 26 25  1  0  0  0  0
 26 20  1  0  0  0  0
 27 31  1  1  0  0  0
 27  4  1  0  0  0  0
 28 30  1  0  0  0  0
 28 32  1  0  0  0  0
 29 31  1  0  0  0  0
 30 29  2  0  0  0  0
 31 33  2  0  0  0  0
 32 35  1  6  0  0  0
 32 27  1  0  0  0  0
 34 35  3  0  0  0  0
 37 36  2  0  0  0  0
M  END
>  <MODEL>
9

>  <REMARK>
 VINA RESULT:      -6.4      4.220      8.902
  Name = 
  4 active torsions:
  status: ('A' for Active; 'I' for Inactive)
    1  A    between atoms: C_6  and  N_9
    2  A    between atoms: C_13  and  C_32
    3  A    between atoms: C_17  and  C_23
    4  A    between atoms: C_20  and  C_35
                            x       y       z     vdW  Elec       q    Type
                         _______ _______ _______ _____ _____    ______ ____

>  <TORSDO>
F 4

$$$$
