=
 OpenBabel11062420483D

 45 48  0  0  1  0  0  0  0  0999 V2000
  195.5050  172.7890  141.4500 C   0  0  2  0  0  3  0  0  0  0  0  0
  189.3530  177.6860  146.0970 C   0  0  0  0  0  2  0  0  0  0  0  0
  188.6930  175.4170  142.0370 C   0  0  1  0  0  3  0  0  0  0  0  0
  194.2810  172.1140  141.3100 O   0  0  0  0  0  0  0  0  0  0  0  0
  188.6350  176.3520  145.9130 C   0  0  0  0  0  2  0  0  0  0  0  0
  191.0070  174.5490  145.2570 C   0  0  0  0  0  2  0  0  0  0  0  0
  189.8930  177.7740  147.4130 O   0  0  0  0  0  0  0  0  0  0  0  0
  194.1700  176.2980  145.8750 C   0  0  0  0  0  2  0  0  0  0  0  0
  189.1100  175.6060  144.6560 C   0  0  2  0  0  3  0  0  0  0  0  0
  188.9480  172.2580  143.3820 C   0  0  0  0  0  1  0  0  0  0  0  0
  189.3220  176.7760  142.3250 C   0  0  0  0  0  2  0  0  0  0  0  0
  191.3220  174.9020  146.7110 C   0  0  0  0  0  2  0  0  0  0  0  0
  190.9230  172.0410  140.9930 C   0  0  2  0  0  3  0  0  0  0  0  0
  191.4060  177.1560  149.0220 O   0  0  0  0  0  0  0  0  0  0  0  0
  193.7370  172.5110  140.0780 C   0  0  0  0  0  2  0  0  0  0  0  0
  190.5100  175.6550  144.5560 O   0  0  0  0  0  0  0  0  0  0  0  0
  194.4220  174.5580  144.0730 C   0  0  1  0  0  3  0  0  0  0  0  0
  194.8070  173.1620  143.7940 N   0  0  0  0  0  0  0  0  0  0  0  0
  193.4050  174.8400  140.5520 O   0  0  0  0  0  1  0  0  0  0  0  0
  192.7350  173.6610  140.2200 C   0  0  2  0  0  3  0  0  0  0  0  0
  189.7310  174.3010  142.1130 C   0  0  2  0  0  3  0  0  0  0  0  0
  196.5990  172.0840  140.6640 C   0  0  0  0  0  1  0  0  0  0  0  0
  193.3620  176.3100  147.1600 C   0  0  0  0  0  2  0  0  0  0  0  0
  194.6480  174.8910  145.5480 C   0  0  0  0  0  2  0  0  0  0  0  0
  191.0620  177.1110  147.8100 C   0  0  0  0  0  0  0  0  0  0  0  0
  190.6390  174.4330  141.0510 O   0  0  0  0  0  0  0  0  0  0  0  0
  191.5930  173.4140  141.2100 C   0  0  1  0  0  3  0  0  0  0  0  0
  195.9270  172.8250  142.9170 C   0  0  0  0  0  2  0  0  0  0  0  0
  189.0030  172.9490  142.0290 C   0  0  1  0  0  3  0  0  0  0  0  0
  188.4270  176.1280  143.3670 C   0  0  1  0  0  0  0  0  0  0  0  0
  189.5020  172.0910  141.0130 O   0  0  0  0  0  0  0  0  0  0  0  0
  191.8750  176.3150  146.8290 C   0  0  2  0  0  3  0  0  0  0  0  0
  195.1630  175.5540  143.1810 C   0  0  0  0  0  1  0  0  0  0  0  0
  185.5230  179.9860  143.8050 O   0  0  0  0  0  1  0  0  0  0  0  0
  186.0510  175.8940  143.3390 O   0  0  0  0  0  0  0  0  0  0  0  0
  184.3890  178.0080  143.6100 O   0  0  0  0  0  0  0  0  0  0  0  0
  186.8440  178.0850  143.5970 N   0  0  0  0  0  2  0  0  0  0  0  0
  185.5720  178.7350  143.6750 C   0  0  0  0  0  0  0  0  0  0  0  0
  187.0360  176.6740  143.4440 C   0  0  0  0  0  0  0  0  0  0  0  0
  194.0860  172.0460  144.3390 C   0  0  0  0  0  3  0  0  0  0  0  0
  194.6090  171.2120  145.2280 C   0  0  0  0  0  2  0  0  0  0  0  0
  191.4660  171.0070  141.9740 C   0  0  0  0  0  2  0  0  0  0  0  0
  191.0920  169.5990  141.5450 C   0  0  0  0  0  2  0  0  0  0  0  0
  191.3160  169.4380  140.1780 O   0  0  0  0  0  0  0  0  0  0  0  0
  190.5930  168.2950  139.8370 C   0  0  0  0  0  1  0  0  0  0  0  0
  1 22  1  6  0  0  0
  1 28  1  0  0  0  0
  2  7  1  0  0  0  0
  3 21  1  0  0  0  0
  3 11  1  6  0  0  0
  3 30  1  0  0  0  0
  4  1  1  0  0  0  0
  5  2  1  0  0  0  0
  6 12  1  0  0  0  0
  7 25  1  0  0  0  0
  8 23  1  0  0  0  0
  9  5  1  1  0  0  0
 11 30  1  0  0  0  0
 13 31  1  0  0  0  0
 13 27  1  0  0  0  0
 13 42  1  1  0  0  0
 15 20  1  0  0  0  0
 15  4  1  0  0  0  0
 16  9  1  0  0  0  0
 16  6  1  0  0  0  0
 17 33  1  6  0  0  0
 17 24  1  0  0  0  0
 18 17  1  0  0  0  0
 18 40  1  0  0  0  0
 20 19  1  1  0  0  0
 20 27  1  0  0  0  0
 21 26  1  6  0  0  0
 24  8  1  0  0  0  0
 25 14  2  0  0  0  0
 27 26  1  6  0  0  0
 28 18  1  0  0  0  0
 29 21  1  0  0  0  0
 29 10  1  1  0  0  0
 30 39  1  1  0  0  0
 30  9  1  0  0  0  0
 31 29  1  0  0  0  0
 32 12  1  1  0  0  0
 32 23  1  0  0  0  0
 32 25  1  0  0  0  0
 35 39  2  0  0  0  0
 36 38  2  0  0  0  0
 37 38  1  0  0  0  0
 38 34  1  0  0  0  0
 39 37  1  0  0  0  0
 40 41  2  0  0  0  0
 43 42  1  0  0  0  0
 44 43  1  0  0  0  0
 45 44  1  0  0  0  0
M  END
>  <MODEL>
1

>  <REMARK>
 VINA RESULT:      -8.4      0.000      0.000
  Name = 
  5 active torsions:
  status: ('A' for Active; 'I' for Inactive)
    1  A    between atoms: C_10  and  C_19
    2  A    between atoms: C_10  and  C_24
    3  A    between atoms: O_14  and  C_24
    4  A    between atoms: N_25  and  C_26
    5  A    between atoms: C_41  and  C_42
                            x       y       z     vdW  Elec       q    Type
                         _______ _______ _______ _____ _____    ______ ____

>  <TORSDO>
F 5

$$$$
=
 OpenBabel11062420483D

 45 48  0  0  1  0  0  0  0  0999 V2000
  196.3960  170.6940  143.9080 C   0  0  2  0  0  3  0  0  0  0  0  0
  188.0840  173.9930  142.0560 C   0  0  0  0  0  2  0  0  0  0  0  0
  191.1720  175.6710  145.1720 C   0  0  1  0  0  3  0  0  0  0  0  0
  196.5060  172.0930  143.9800 O   0  0  0  0  0  0  0  0  0  0  0  0
  188.9680  175.2240  141.8790 C   0  0  0  0  0  2  0  0  0  0  0  0
  191.6930  173.8870  141.5620 C   0  0  0  0  0  2  0  0  0  0  0  0
  187.7580  173.4370  140.7840 O   0  0  0  0  0  0  0  0  0  0  0  0
  191.3150  170.2650  141.1390 C   0  0  0  0  0  2  0  0  0  0  0  0
  190.2420  175.1510  142.7360 C   0  0  2  0  0  3  0  0  0  0  0  0
  193.4340  176.7820  142.8250 C   0  0  0  0  0  1  0  0  0  0  0  0
  190.1920  174.5070  145.2720 C   0  0  0  0  0  2  0  0  0  0  0  0
  191.0040  173.4160  140.2820 C   0  0  0  0  0  2  0  0  0  0  0  0
  195.2930  175.1560  144.7110 C   0  0  2  0  0  3  0  0  0  0  0  0
  188.3200  172.3050  138.8700 O   0  0  0  0  0  0  0  0  0  0  0  0
  196.3930  172.4400  145.3360 C   0  0  0  0  0  2  0  0  0  0  0  0
  190.8150  173.8710  142.6550 O   0  0  0  0  0  0  0  0  0  0  0  0
  193.5230  170.8370  142.2030 C   0  0  1  0  0  3  0  0  0  0  0  0
  194.9510  171.1040  141.9430 N   0  0  0  0  0  0  0  0  0  0  0  0
  194.1370  171.7150  145.7190 O   0  0  0  0  0  1  0  0  0  0  0  0
  194.9660  172.8380  145.7260 C   0  0  2  0  0  3  0  0  0  0  0  0
  192.5080  175.2200  144.5860 C   0  0  2  0  0  3  0  0  0  0  0  0
  197.7220  170.0350  144.2560 C   0  0  0  0  0  1  0  0  0  0  0  0
  190.5080  170.9570  140.0560 C   0  0  0  0  0  2  0  0  0  0  0  0
  192.8070  170.4540  140.9080 C   0  0  0  0  0  2  0  0  0  0  0  0
  188.6530  172.6630  140.0320 C   0  0  0  0  0  0  0  0  0  0  0  0
  193.1550  174.3710  145.4960 O   0  0  0  0  0  0  0  0  0  0  0  0
  194.3440  173.9510  144.8760 C   0  0  1  0  0  3  0  0  0  0  0  0
  196.0120  170.2640  142.4940 C   0  0  0  0  0  2  0  0  0  0  0  0
  193.3670  176.4650  144.3110 C   0  0  1  0  0  3  0  0  0  0  0  0
  189.9880  175.5690  144.2050 C   0  0  1  0  0  0  0  0  0  0  0  0
  194.6570  176.4130  144.9020 O   0  0  0  0  0  0  0  0  0  0  0  0
  190.0080  172.3010  140.5690 C   0  0  2  0  0  3  0  0  0  0  0  0
  193.3190  169.7590  143.2670 C   0  0  0  0  0  1  0  0  0  0  0  0
  185.6420  176.5590  146.1140 O   0  0  0  0  0  1  0  0  0  0  0  0
  189.1160  177.7920  144.2050 O   0  0  0  0  0  0  0  0  0  0  0  0
  186.6870  178.3910  145.2270 O   0  0  0  0  0  0  0  0  0  0  0  0
  187.7310  176.1680  145.1730 N   0  0  0  0  0  2  0  0  0  0  0  0
  186.6480  177.0340  145.5250 C   0  0  0  0  0  0  0  0  0  0  0  0
  188.9290  176.5830  144.5070 C   0  0  0  0  0  0  0  0  0  0  0  0
  195.3900  172.2250  141.1600 C   0  0  0  0  0  3  0  0  0  0  0  0
  196.5080  172.2150  140.4460 C   0  0  0  0  0  2  0  0  0  0  0  0
  196.0280  175.0920  143.3750 C   0  0  0  0  0  2  0  0  0  0  0  0
  197.0730  176.1910  143.2740 C   0  0  0  0  0  2  0  0  0  0  0  0
  196.8520  176.9580  142.1300 O   0  0  0  0  0  0  0  0  0  0  0  0
  196.6900  176.0220  141.1090 C   0  0  0  0  0  1  0  0  0  0  0  0
  1  4  1  0  0  0  0
  1 22  1  6  0  0  0
  3 11  1  1  0  0  0
  4 15  1  0  0  0  0
  5  2  1  0  0  0  0
  6 16  1  0  0  0  0
  7  2  1  0  0  0  0
  9  5  1  6  0  0  0
  9 30  1  0  0  0  0
 12 32  1  0  0  0  0
 12  6  1  0  0  0  0
 13 42  1  6  0  0  0
 13 27  1  0  0  0  0
 13 31  1  0  0  0  0
 14 25  2  0  0  0  0
 15 20  1  0  0  0  0
 16  9  1  0  0  0  0
 17 33  1  1  0  0  0
 18 17  1  0  0  0  0
 18 28  1  0  0  0  0
 20 19  1  6  0  0  0
 21  3  1  0  0  0  0
 21 26  1  1  0  0  0
 23  8  1  0  0  0  0
 24  8  1  0  0  0  0
 24 17  1  0  0  0  0
 25 32  1  0  0  0  0
 25  7  1  0  0  0  0
 27 26  1  1  0  0  0
 27 20  1  0  0  0  0
 28  1  1  0  0  0  0
 29 10  1  6  0  0  0
 29 21  1  0  0  0  0
 29 31  1  0  0  0  0
 30 39  1  1  0  0  0
 30  3  1  0  0  0  0
 30 11  1  0  0  0  0
 32 23  1  6  0  0  0
 35 39  2  0  0  0  0
 36 38  2  0  0  0  0
 37 38  1  0  0  0  0
 38 34  1  0  0  0  0
 39 37  1  0  0  0  0
 40 18  1  0  0  0  0
 41 40  2  0  0  0  0
 43 42  1  0  0  0  0
 44 43  1  0  0  0  0
 45 44  1  0  0  0  0
M  END
>  <MODEL>
2

>  <REMARK>
 VINA RESULT:      -7.4      2.213      5.908
  Name = 
  5 active torsions:
  status: ('A' for Active; 'I' for Inactive)
    1  A    between atoms: C_10  and  C_19
    2  A    between atoms: C_10  and  C_24
    3  A    between atoms: O_14  and  C_24
    4  A    between atoms: N_25  and  C_26
    5  A    between atoms: C_41  and  C_42
                            x       y       z     vdW  Elec       q    Type
                         _______ _______ _______ _____ _____    ______ ____

>  <TORSDO>
F 5

$$$$
=
 OpenBabel11062420483D

 45 48  0  0  1  0  0  0  0  0999 V2000
  193.6760  171.0630  142.0370 C   0  0  2  0  0  3  0  0  0  0  0  0
  186.9010  176.8940  143.9080 C   0  0  0  0  0  2  0  0  0  0  0  0
  190.5500  175.8080  146.6580 C   0  0  1  0  0  3  0  0  0  0  0  0
  194.2620  172.1290  142.7390 O   0  0  0  0  0  0  0  0  0  0  0  0
  188.1410  177.7510  144.1430 C   0  0  0  0  0  2  0  0  0  0  0  0
  190.2220  176.1160  142.6240 C   0  0  0  0  0  2  0  0  0  0  0  0
  186.3330  177.1950  142.6360 O   0  0  0  0  0  0  0  0  0  0  0  0
  188.6040  173.5020  140.6260 C   0  0  0  0  0  2  0  0  0  0  0  0
  189.3600  176.9070  144.5500 C   0  0  2  0  0  3  0  0  0  0  0  0
  192.9170  177.3420  144.6830 C   0  0  0  0  0  1  0  0  0  0  0  0
  189.2390  175.0710  146.4100 C   0  0  0  0  0  2  0  0  0  0  0  0
  189.3400  176.5860  141.4670 C   0  0  0  0  0  2  0  0  0  0  0  0
  194.2130  174.5470  145.0920 C   0  0  2  0  0  3  0  0  0  0  0  0
  186.3620  177.1320  140.3440 O   0  0  0  0  0  0  0  0  0  0  0  0
  194.3520  171.7300  144.0820 C   0  0  0  0  0  2  0  0  0  0  0  0
  189.4560  175.7620  143.7430 O   0  0  0  0  0  0  0  0  0  0  0  0
  190.9330  172.8270  141.3040 C   0  0  1  0  0  3  0  0  0  0  0  0
  192.3480  172.8040  140.8880 N   0  0  0  0  0  0  0  0  0  0  0  0
  192.0110  171.5360  144.5720 O   0  0  0  0  0  1  0  0  0  0  0  0
  193.1730  172.2240  144.9250 C   0  0  2  0  0  3  0  0  0  0  0  0
  191.6150  175.3980  145.6440 C   0  0  2  0  0  3  0  0  0  0  0  0
  194.7140  169.9970  141.7200 C   0  0  0  0  0  1  0  0  0  0  0  0
  188.0210  174.8420  140.2160 C   0  0  0  0  0  2  0  0  0  0  0  0
  190.0550  173.3830  140.1820 C   0  0  0  0  0  2  0  0  0  0  0  0
  186.8640  176.7260  141.4260 C   0  0  0  0  0  0  0  0  0  0  0  0
  191.9840  174.0630  145.8670 O   0  0  0  0  0  0  0  0  0  0  0  0
  192.9210  173.7340  144.8730 C   0  0  1  0  0  3  0  0  0  0  0  0
  193.0870  171.5550  140.7170 C   0  0  0  0  0  2  0  0  0  0  0  0
  192.8310  176.3250  145.8090 C   0  0  1  0  0  3  0  0  0  0  0  0
  189.3500  176.5440  146.0560 C   0  0  1  0  0  0  0  0  0  0  0  0
  194.0570  175.6330  145.9960 O   0  0  0  0  0  0  0  0  0  0  0  0
  188.0420  175.7940  141.4040 C   0  0  2  0  0  3  0  0  0  0  0  0
  190.4330  171.4500  141.7410 C   0  0  0  0  0  1  0  0  0  0  0  0
  185.3080  178.4000  147.9860 O   0  0  0  0  0  0  0  0  0  0  0  0
  189.4490  178.1710  147.8000 O   0  0  0  0  0  0  0  0  0  0  0  0
  187.2270  179.2600  148.8880 O   0  0  0  0  0  1  0  0  0  0  0  0
  187.2920  177.5660  147.1100 N   0  0  0  0  0  2  0  0  0  0  0  0
  186.5660  178.4160  148.0020 C   0  0  0  0  0  0  0  0  0  0  0  0
  188.7200  177.4860  147.0340 C   0  0  0  0  0  0  0  0  0  0  0  0
  193.0980  174.0060  140.6570 C   0  0  0  0  0  3  0  0  0  0  0  0
  194.0010  174.1210  139.6920 C   0  0  0  0  0  2  0  0  0  0  0  0
  194.8040  175.0020  143.7600 C   0  0  0  0  0  2  0  0  0  0  0  0
  196.2380  175.4730  143.9330 C   0  0  0  0  0  2  0  0  0  0  0  0
  196.3760  176.7750  143.4500 O   0  0  0  0  0  0  0  0  0  0  0  0
  196.3990  176.6320  142.0630 C   0  0  0  0  0  1  0  0  0  0  0  0
  1 22  1  6  0  0  0
  1  4  1  0  0  0  0
  2  5  1  0  0  0  0
  3 11  1  6  0  0  0
  4 15  1  0  0  0  0
  6 16  1  0  0  0  0
  7  2  1  0  0  0  0
  9  5  1  6  0  0  0
  9 30  1  0  0  0  0
 12  6  1  0  0  0  0
 13 42  1  6  0  0  0
 13 31  1  0  0  0  0
 14 25  2  0  0  0  0
 15 20  1  0  0  0  0
 16  9  1  0  0  0  0
 17 33  1  6  0  0  0
 18 17  1  0  0  0  0
 20 19  1  6  0  0  0
 21 29  1  0  0  0  0
 21 26  1  1  0  0  0
 21  3  1  0  0  0  0
 23  8  1  0  0  0  0
 24  8  1  0  0  0  0
 24 17  1  0  0  0  0
 25  7  1  0  0  0  0
 27 20  1  0  0  0  0
 27 13  1  0  0  0  0
 27 26  1  1  0  0  0
 28 18  1  0  0  0  0
 28  1  1  0  0  0  0
 29 10  1  6  0  0  0
 29 31  1  0  0  0  0
 30 11  1  0  0  0  0
 30  3  1  0  0  0  0
 30 39  1  1  0  0  0
 32 23  1  6  0  0  0
 32 25  1  0  0  0  0
 32 12  1  0  0  0  0
 34 38  2  0  0  0  0
 37 38  1  0  0  0  0
 38 36  1  0  0  0  0
 39 37  1  0  0  0  0
 39 35  2  0  0  0  0
 40 18  1  0  0  0  0
 41 40  2  0  0  0  0
 42 43  1  0  0  0  0
 44 43  1  0  0  0  0
 45 44  1  0  0  0  0
M  END
>  <MODEL>
3

>  <REMARK>
 VINA RESULT:      -7.2      2.170      5.706
  Name = 
  5 active torsions:
  status: ('A' for Active; 'I' for Inactive)
    1  A    between atoms: C_10  and  C_19
    2  A    between atoms: C_10  and  C_24
    3  A    between atoms: O_14  and  C_24
    4  A    between atoms: N_25  and  C_26
    5  A    between atoms: C_41  and  C_42
                            x       y       z     vdW  Elec       q    Type
                         _______ _______ _______ _____ _____    ______ ____

>  <TORSDO>
F 5

$$$$
=
 OpenBabel11062420483D

 45 48  0  0  1  0  0  0  0  0999 V2000
  196.4260  170.9570  143.9840 C   0  0  2  0  0  3  0  0  0  0  0  0
  188.4440  172.7760  139.9340 C   0  0  0  0  0  2  0  0  0  0  0  0
  190.1060  174.6590  143.9040 C   0  0  1  0  0  3  0  0  0  0  0  0
  196.2050  172.3340  144.1560 O   0  0  0  0  0  0  0  0  0  0  0  0
  189.0540  174.1660  140.0890 C   0  0  0  0  0  2  0  0  0  0  0  0
  191.9820  173.4240  140.5220 C   0  0  0  0  0  2  0  0  0  0  0  0
  188.6140  172.3130  138.5970 O   0  0  0  0  0  0  0  0  0  0  0  0
  192.5320  169.8670  139.8220 C   0  0  0  0  0  2  0  0  0  0  0  0
  190.0250  174.2450  141.2790 C   0  0  2  0  0  3  0  0  0  0  0  0
  192.6330  176.4410  142.3880 C   0  0  0  0  0  1  0  0  0  0  0  0
  189.4140  173.3250  143.6510 C   0  0  0  0  0  2  0  0  0  0  0  0
  191.7950  172.9740  139.0730 C   0  0  0  0  0  2  0  0  0  0  0  0
  194.2030  175.0040  144.6520 C   0  0  2  0  0  3  0  0  0  0  0  0
  189.9150  171.5320  136.8790 O   0  0  0  0  0  0  0  0  0  0  0  0
  195.6480  172.4990  145.4340 C   0  0  0  0  0  2  0  0  0  0  0  0
  190.8620  173.1170  141.3050 O   0  0  0  0  0  0  0  0  0  0  0  0
  194.1800  170.7320  141.5180 C   0  0  1  0  0  3  0  0  0  0  0  0
  195.5300  171.2970  141.7030 N   0  0  0  0  0  0  0  0  0  0  0  0
  193.5880  171.3140  145.0990 O   0  0  0  0  0  1  0  0  0  0  0  0
  194.1180  172.5680  145.4060 C   0  0  2  0  0  3  0  0  0  0  0  0
  191.6170  174.5430  143.7150 C   0  0  2  0  0  3  0  0  0  0  0  0
  197.7130  170.5310  144.6730 C   0  0  0  0  0  1  0  0  0  0  0  0
  191.9270  170.5070  138.5860 C   0  0  0  0  0  2  0  0  0  0  0  0
  193.9510  170.3650  140.0510 C   0  0  0  0  0  2  0  0  0  0  0  0
  189.8270  171.8150  138.1040 C   0  0  0  0  0  0  0  0  0  0  0  0
  192.1550  173.7380  144.7310 O   0  0  0  0  0  0  0  0  0  0  0  0
  193.5310  173.6270  144.4690 C   0  0  1  0  0  3  0  0  0  0  0  0
  196.5520  170.6210  142.5000 C   0  0  0  0  0  2  0  0  0  0  0  0
  192.2270  175.9530  143.7690 C   0  0  1  0  0  3  0  0  0  0  0  0
  189.2890  174.4400  142.6280 C   0  0  1  0  0  0  0  0  0  0  0  0
  193.2820  176.0850  144.7110 O   0  0  0  0  0  0  0  0  0  0  0  0
  191.0260  171.6630  138.9970 C   0  0  2  0  0  3  0  0  0  0  0  0
  193.9270  169.5230  142.4170 C   0  0  0  0  0  1  0  0  0  0  0  0
  186.9750  178.6940  142.3860 O   0  0  0  0  0  0  0  0  0  0  0  0
  186.9080  174.5600  142.7630 O   0  0  0  0  0  0  0  0  0  0  0  0
  185.5730  176.9080  142.6650 O   0  0  0  0  0  1  0  0  0  0  0  0
  188.0070  176.6160  142.5180 N   0  0  0  0  0  2  0  0  0  0  0  0
  186.8450  177.4500  142.5190 C   0  0  0  0  0  0  0  0  0  0  0  0
  187.9940  175.1900  142.6550 C   0  0  0  0  0  0  0  0  0  0  0  0
  195.9150  172.5620  141.1430 C   0  0  0  0  0  3  0  0  0  0  0  0
  197.1460  172.8220  140.7240 C   0  0  0  0  0  2  0  0  0  0  0  0
  195.2760  175.2330  143.5910 C   0  0  0  0  0  2  0  0  0  0  0  0
  196.1040  176.4650  143.9100 C   0  0  0  0  0  2  0  0  0  0  0  0
  196.9170  176.7910  142.8240 O   0  0  0  0  0  0  0  0  0  0  0  0
  196.2050  176.3470  141.7100 C   0  0  0  0  0  1  0  0  0  0  0  0
  1  4  1  0  0  0  0
  1 22  1  1  0  0  0
  2  5  1  0  0  0  0
  3 11  1  1  0  0  0
  4 15  1  0  0  0  0
  6 16  1  0  0  0  0
  7  2  1  0  0  0  0
  8 24  1  0  0  0  0
  9  5  1  6  0  0  0
  9 16  1  0  0  0  0
  9 30  1  0  0  0  0
 12  6  1  0  0  0  0
 13 42  1  6  0  0  0
 13 31  1  0  0  0  0
 14 25  2  0  0  0  0
 17 18  1  0  0  0  0
 17 33  1  1  0  0  0
 18 28  1  0  0  0  0
 20 19  1  6  0  0  0
 20 15  1  0  0  0  0
 21 29  1  0  0  0  0
 21  3  1  0  0  0  0
 21 26  1  1  0  0  0
 23  8  1  0  0  0  0
 24 17  1  0  0  0  0
 25  7  1  0  0  0  0
 25 32  1  0  0  0  0
 27 13  1  0  0  0  0
 27 26  1  1  0  0  0
 27 20  1  0  0  0  0
 28  1  1  0  0  0  0
 29 10  1  6  0  0  0
 29 31  1  0  0  0  0
 30 39  1  6  0  0  0
 30 11  1  0  0  0  0
 30  3  1  0  0  0  0
 32 23  1  6  0  0  0
 32 12  1  0  0  0  0
 34 38  2  0  0  0  0
 37 38  1  0  0  0  0
 37 39  1  0  0  0  0
 38 36  1  0  0  0  0
 39 35  2  0  0  0  0
 40 18  1  0  0  0  0
 41 40  2  0  0  0  0
 42 43  1  0  0  0  0
 44 43  1  0  0  0  0
 45 44  1  0  0  0  0
M  END
>  <MODEL>
4

>  <REMARK>
 VINA RESULT:      -7.0      2.357      6.211
  Name = 
  5 active torsions:
  status: ('A' for Active; 'I' for Inactive)
    1  A    between atoms: C_10  and  C_19
    2  A    between atoms: C_10  and  C_24
    3  A    between atoms: O_14  and  C_24
    4  A    between atoms: N_25  and  C_26
    5  A    between atoms: C_41  and  C_42
                            x       y       z     vdW  Elec       q    Type
                         _______ _______ _______ _____ _____    ______ ____

>  <TORSDO>
F 5

$$$$
=
 OpenBabel11062420483D

 45 48  0  0  1  0  0  0  0  0999 V2000
  191.3560  175.5510  146.5340 C   0  0  2  0  0  3  0  0  0  0  0  0
  191.9950  174.2740  137.5130 C   0  0  0  0  0  2  0  0  0  0  0  0
  195.5300  174.6250  140.5860 C   0  0  1  0  0  3  0  0  0  0  0  0
  192.4360  174.6740  146.3390 O   0  0  0  0  0  0  0  0  0  0  0  0
  192.8310  173.1230  138.0640 C   0  0  0  0  0  2  0  0  0  0  0  0
  191.8090  173.0420  140.9380 C   0  0  0  0  0  2  0  0  0  0  0  0
  190.7050  173.8030  137.1310 O   0  0  0  0  0  0  0  0  0  0  0  0
  188.8460  175.1680  141.3160 C   0  0  0  0  0  2  0  0  0  0  0  0
  193.4390  173.4520  139.4370 C   0  0  2  0  0  3  0  0  0  0  0  0
  194.8930  171.6300  142.1610 C   0  0  0  0  0  1  0  0  0  0  0  0
  194.6850  175.7030  139.9170 C   0  0  0  0  0  2  0  0  0  0  0  0
  190.5520  172.6050  140.1850 C   0  0  0  0  0  2  0  0  0  0  0  0
  195.0980  173.5450  144.6000 C   0  0  2  0  0  3  0  0  0  0  0  0
  188.6140  173.0090  137.6330 O   0  0  0  0  0  0  0  0  0  0  0  0
  193.6030  175.4540  146.3590 C   0  0  0  0  0  2  0  0  0  0  0  0
  192.4830  174.0670  140.2620 O   0  0  0  0  0  0  0  0  0  0  0  0
  190.1250  174.9860  143.4770 C   0  0  1  0  0  3  0  0  0  0  0  0
  190.2330  174.2530  144.7520 N   0  0  0  0  0  0  0  0  0  0  0  0
  193.1910  176.7880  144.4060 O   0  0  0  0  0  1  0  0  0  0  0  0
  194.0690  175.8520  144.9550 C   0  0  2  0  0  3  0  0  0  0  0  0
  194.8860  174.1440  141.8840 C   0  0  2  0  0  3  0  0  0  0  0  0
  191.1920  175.8780  148.0100 C   0  0  0  0  0  1  0  0  0  0  0  0
  188.5670  174.1560  140.2200 C   0  0  0  0  0  2  0  0  0  0  0  0
  188.9210  174.4900  142.6760 C   0  0  0  0  0  2  0  0  0  0  0  0
  189.6850  173.5260  138.0500 C   0  0  0  0  0  0  0  0  0  0  0  0
  194.9220  175.1750  142.8340 O   0  0  0  0  0  0  0  0  0  0  0  0
  194.2690  174.6880  143.9800 C   0  0  1  0  0  3  0  0  0  0  0  0
  190.0580  174.9130  146.0450 C   0  0  0  0  0  2  0  0  0  0  0  0
  195.6640  172.9190  142.3920 C   0  0  1  0  0  3  0  0  0  0  0  0
  194.7260  174.3060  139.3220 C   0  0  1  0  0  0  0  0  0  0  0  0
  196.1080  173.0400  143.7360 O   0  0  0  0  0  0  0  0  0  0  0  0
  189.8680  173.7910  139.5180 C   0  0  2  0  0  3  0  0  0  0  0  0
  190.0440  176.4990  143.6820 C   0  0  0  0  0  1  0  0  0  0  0  0
  196.9060  176.3460  135.5020 O   0  0  0  0  0  0  0  0  0  0  0  0
  196.1140  173.0240  137.8630 O   0  0  0  0  0  0  0  0  0  0  0  0
  197.3260  174.1050  135.7030 O   0  0  0  0  0  1  0  0  0  0  0  0
  195.8920  175.2900  137.3070 N   0  0  0  0  0  2  0  0  0  0  0  0
  196.7210  175.2780  136.1410 C   0  0  0  0  0  0  0  0  0  0  0  0
  195.6070  174.1480  138.1220 C   0  0  0  0  0  0  0  0  0  0  0  0
  190.5500  172.8540  144.8070 C   0  0  0  0  0  3  0  0  0  0  0  0
  189.6370  171.9130  145.0090 C   0  0  0  0  0  2  0  0  0  0  0  0
  194.1910  172.4330  145.1190 C   0  0  0  0  0  2  0  0  0  0  0  0
  195.0040  171.3220  145.7620 C   0  0  0  0  0  2  0  0  0  0  0  0
  194.3920  170.0890  145.5360 O   0  0  0  0  0  0  0  0  0  0  0  0
  194.9340  169.2470  146.5070 C   0  0  0  0  0  1  0  0  0  0  0  0
  1 22  1  1  0  0  0
  2  5  1  0  0  0  0
  3 11  1  1  0  0  0
  3 21  1  0  0  0  0
  4 15  1  0  0  0  0
  4  1  1  0  0  0  0
  7  2  1  0  0  0  0
  7 25  1  0  0  0  0
  8 24  1  0  0  0  0
  9  5  1  6  0  0  0
  9 16  1  0  0  0  0
 12  6  1  0  0  0  0
 13 42  1  6  0  0  0
 14 25  2  0  0  0  0
 16  6  1  0  0  0  0
 17 33  1  1  0  0  0
 17 18  1  0  0  0  0
 18 40  1  0  0  0  0
 18 28  1  0  0  0  0
 20 19  1  6  0  0  0
 20 15  1  0  0  0  0
 21 29  1  0  0  0  0
 21 26  1  1  0  0  0
 23  8  1  0  0  0  0
 24 17  1  0  0  0  0
 25 32  1  0  0  0  0
 27 26  1  6  0  0  0
 27 13  1  0  0  0  0
 27 20  1  0  0  0  0
 28  1  1  0  0  0  0
 29 10  1  1  0  0  0
 29 31  1  0  0  0  0
 30 39  1  6  0  0  0
 30  9  1  0  0  0  0
 30 11  1  0  0  0  0
 30  3  1  0  0  0  0
 31 13  1  0  0  0  0
 32 12  1  1  0  0  0
 32 23  1  0  0  0  0
 34 38  2  0  0  0  0
 35 39  2  0  0  0  0
 36 38  1  0  0  0  0
 37 39  1  0  0  0  0
 38 37  1  0  0  0  0
 40 41  2  0  0  0  0
 42 43  1  0  0  0  0
 44 43  1  0  0  0  0
 44 45  1  0  0  0  0
M  END
>  <MODEL>
5

>  <REMARK>
 VINA RESULT:      -6.9      3.175      8.087
  Name = 
  5 active torsions:
  status: ('A' for Active; 'I' for Inactive)
    1  A    between atoms: C_10  and  C_19
    2  A    between atoms: C_10  and  C_24
    3  A    between atoms: O_14  and  C_24
    4  A    between atoms: N_25  and  C_26
    5  A    between atoms: C_41  and  C_42
                            x       y       z     vdW  Elec       q    Type
                         _______ _______ _______ _____ _____    ______ ____

>  <TORSDO>
F 5

$$$$
=
 OpenBabel11062420483D

 45 48  0  0  1  0  0  0  0  0999 V2000
  191.4160  175.1790  145.9990 C   0  0  2  0  0  3  0  0  0  0  0  0
  195.5470  172.3150  138.3740 C   0  0  0  0  0  2  0  0  0  0  0  0
  191.4350  170.8380  140.0990 C   0  0  1  0  0  3  0  0  0  0  0  0
  190.3940  174.9570  145.0610 O   0  0  0  0  0  0  0  0  0  0  0  0
  194.1620  172.7040  137.8660 C   0  0  0  0  0  2  0  0  0  0  0  0
  193.2260  174.4810  140.1630 C   0  0  0  0  0  2  0  0  0  0  0  0
  196.4850  173.3450  138.0730 O   0  0  0  0  0  0  0  0  0  0  0  0
  196.0010  175.2150  142.4430 C   0  0  0  0  0  2  0  0  0  0  0  0
  193.0870  172.5820  138.9590 C   0  0  2  0  0  3  0  0  0  0  0  0
  189.7520  173.7800  139.4970 C   0  0  0  0  0  1  0  0  0  0  0  0
  192.8640  170.4600  140.4740 C   0  0  0  0  0  2  0  0  0  0  0  0
  194.3650  175.3320  139.6030 C   0  0  0  0  0  2  0  0  0  0  0  0
  189.0180  173.2820  142.4750 C   0  0  2  0  0  3  0  0  0  0  0  0
  197.3590  175.4410  138.3950 O   0  0  0  0  0  0  0  0  0  0  0  0
  189.8770  173.6770  145.3180 C   0  0  0  0  0  2  0  0  0  0  0  0
  193.5550  173.1190  140.1690 O   0  0  0  0  0  0  0  0  0  0  0  0
  193.7910  175.2620  143.6470 C   0  0  1  0  0  3  0  0  0  0  0  0
  192.6860  176.1280  144.1000 N   0  0  0  0  0  0  0  0  0  0  0  0
  191.8310  172.3780  144.8120 O   0  0  0  0  0  1  0  0  0  0  0  0
  190.5070  172.5980  144.4310 C   0  0  2  0  0  3  0  0  0  0  0  0
  190.9580  172.0510  140.8930 C   0  0  2  0  0  3  0  0  0  0  0  0
  190.8310  175.6100  147.3350 C   0  0  0  0  0  1  0  0  0  0  0  0
  196.4000  175.6630  141.0490 C   0  0  0  0  0  2  0  0  0  0  0  0
  194.8950  176.0990  143.0010 C   0  0  0  0  0  2  0  0  0  0  0  0
  196.5750  174.5400  138.8000 C   0  0  0  0  0  0  0  0  0  0  0  0
  190.8210  171.7010  142.2450 O   0  0  0  0  0  0  0  0  0  0  0  0
  190.4350  172.8680  142.9250 C   0  0  1  0  0  3  0  0  0  0  0  0
  192.3510  176.2840  145.5150 C   0  0  0  0  0  2  0  0  0  0  0  0
  189.6070  172.5110  140.3200 C   0  0  1  0  0  3  0  0  0  0  0  0
  192.5910  171.1250  139.1360 C   0  0  1  0  0  0  0  0  0  0  0  0
  188.5800  172.6220  141.2950 O   0  0  0  0  0  0  0  0  0  0  0  0
  195.7220  174.7770  140.0140 C   0  0  2  0  0  3  0  0  0  0  0  0
  194.3600  174.4070  144.7790 C   0  0  0  0  0  1  0  0  0  0  0  0
  190.8980  170.1110  134.7070 O   0  0  0  0  0  0  0  0  0  0  0  0
  193.3200  169.1850  137.9500 O   0  0  0  0  0  0  0  0  0  0  0  0
  192.3840  168.5580  135.4930 O   0  0  0  0  0  1  0  0  0  0  0  0
  191.7530  170.5210  136.8290 N   0  0  0  0  0  2  0  0  0  0  0  0
  191.6560  169.7330  135.6390 C   0  0  0  0  0  0  0  0  0  0  0  0
  192.5800  170.2050  137.9560 C   0  0  0  0  0  0  0  0  0  0  0  0
  191.8480  176.8450  143.1810 C   0  0  0  0  0  3  0  0  0  0  0  0
  191.3060  178.0220  143.4650 C   0  0  0  0  0  2  0  0  0  0  0  0
  188.9060  174.7980  142.3500 C   0  0  0  0  0  2  0  0  0  0  0  0
  187.4530  175.2400  142.3480 C   0  0  0  0  0  2  0  0  0  0  0  0
  187.2360  176.1720  141.3320 O   0  0  0  0  0  0  0  0  0  0  0  0
  188.1120  177.2170  141.6250 C   0  0  0  0  0  1  0  0  0  0  0  0
  1 22  1  1  0  0  0
  3 11  1  1  0  0  0
  3 21  1  0  0  0  0
  4 15  1  0  0  0  0
  4  1  1  0  0  0  0
  5  2  1  0  0  0  0
  6 16  1  0  0  0  0
  7  2  1  0  0  0  0
  7 25  1  0  0  0  0
  8 24  1  0  0  0  0
  9  5  1  6  0  0  0
  9 30  1  0  0  0  0
  9 16  1  0  0  0  0
 12  6  1  0  0  0  0
 13 42  1  6  0  0  0
 13 27  1  0  0  0  0
 14 25  2  0  0  0  0
 17 18  1  0  0  0  0
 17 33  1  1  0  0  0
 18 28  1  0  0  0  0
 20 19  1  1  0  0  0
 20 15  1  0  0  0  0
 21 26  1  1  0  0  0
 23  8  1  0  0  0  0
 24 17  1  0  0  0  0
 25 32  1  0  0  0  0
 27 26  1  6  0  0  0
 27 20  1  0  0  0  0
 28  1  1  0  0  0  0
 29 10  1  1  0  0  0
 29 21  1  0  0  0  0
 29 31  1  0  0  0  0
 30 39  1  6  0  0  0
 30  3  1  0  0  0  0
 30 11  1  0  0  0  0
 31 13  1  0  0  0  0
 32 12  1  6  0  0  0
 32 23  1  0  0  0  0
 34 38  2  0  0  0  0
 35 39  2  0  0  0  0
 36 38  1  0  0  0  0
 37 39  1  0  0  0  0
 38 37  1  0  0  0  0
 40 41  2  0  0  0  0
 40 18  1  0  0  0  0
 43 42  1  0  0  0  0
 44 45  1  0  0  0  0
 44 43  1  0  0  0  0
M  END
>  <MODEL>
6

>  <REMARK>
 VINA RESULT:      -6.9      2.720      7.839
  Name = 
  5 active torsions:
  status: ('A' for Active; 'I' for Inactive)
    1  A    between atoms: C_10  and  C_19
    2  A    between atoms: C_10  and  C_24
    3  A    between atoms: O_14  and  C_24
    4  A    between atoms: N_25  and  C_26
    5  A    between atoms: C_41  and  C_42
                            x       y       z     vdW  Elec       q    Type
                         _______ _______ _______ _____ _____    ______ ____

>  <TORSDO>
F 5

$$$$
=
 OpenBabel11062420483D

 45 48  0  0  1  0  0  0  0  0999 V2000
  194.9370  172.7140  136.8530 C   0  0  2  0  0  3  0  0  0  0  0  0
  193.8940  175.0190  145.6280 C   0  0  0  0  0  2  0  0  0  0  0  0
  190.5030  174.0280  142.5320 C   0  0  1  0  0  3  0  0  0  0  0  0
  193.8650  171.9450  137.3340 O   0  0  0  0  0  0  0  0  0  0  0  0
  193.1040  173.7170  145.5390 C   0  0  0  0  0  2  0  0  0  0  0  0
  194.2630  172.5610  142.9630 C   0  0  0  0  0  2  0  0  0  0  0  0
  195.1710  174.7780  146.2110 O   0  0  0  0  0  0  0  0  0  0  0  0
  197.2030  174.4740  141.8970 C   0  0  0  0  0  2  0  0  0  0  0  0
  192.5570  173.4660  144.1240 C   0  0  2  0  0  3  0  0  0  0  0  0
  191.2650  170.6810  142.2730 C   0  0  0  0  0  1  0  0  0  0  0  0
  191.2970  175.3090  142.7600 C   0  0  0  0  0  2  0  0  0  0  0  0
  195.4900  172.4950  143.8730 C   0  0  0  0  0  2  0  0  0  0  0  0
  191.1430  171.4900  139.2750 C   0  0  2  0  0  3  0  0  0  0  0  0
  197.2980  173.9230  146.1360 O   0  0  0  0  0  0  0  0  0  0  0  0
  192.6870  172.6170  136.9680 C   0  0  0  0  0  2  0  0  0  0  0  0
  193.5400  173.7450  143.1610 O   0  0  0  0  0  0  0  0  0  0  0  0
  196.0320  173.4230  139.9320 C   0  0  1  0  0  3  0  0  0  0  0  0
  195.9970  172.2490  139.0390 N   0  0  0  0  0  0  0  0  0  0  0  0
  192.9830  174.6170  138.2620 O   0  0  0  0  0  1  0  0  0  0  0  0
  192.1480  173.5120  138.0880 C   0  0  2  0  0  3  0  0  0  0  0  0
  191.2160  173.1030  141.5500 C   0  0  2  0  0  3  0  0  0  0  0  0
  195.1660  172.4480  135.3730 C   0  0  0  0  0  1  0  0  0  0  0  0
  197.4470  173.9760  143.3100 C   0  0  0  0  0  2  0  0  0  0  0  0
  197.2050  173.3190  140.9070 C   0  0  0  0  0  2  0  0  0  0  0  0
  196.2390  174.2010  145.5100 C   0  0  0  0  0  0  0  0  0  0  0  0
  191.2070  173.6830  140.2720 O   0  0  0  0  0  0  0  0  0  0  0  0
  191.9220  172.8120  139.4320 C   0  0  1  0  0  3  0  0  0  0  0  0
  196.2220  172.3610  137.5990 C   0  0  0  0  0  2  0  0  0  0  0  0
  190.4830  171.7520  141.5300 C   0  0  1  0  0  3  0  0  0  0  0  0
  191.2510  174.2530  143.8500 C   0  0  1  0  0  0  0  0  0  0  0  0
  190.1020  171.3260  140.2290 O   0  0  0  0  0  0  0  0  0  0  0  0
  196.1210  173.8680  144.0500 C   0  0  2  0  0  3  0  0  0  0  0  0
  196.0970  174.7390  139.1570 C   0  0  0  0  0  1  0  0  0  0  0  0
  189.1650  177.5350  146.7450 O   0  0  0  0  0  0  0  0  0  0  0  0
  189.6860  173.6000  145.5310 O   0  0  0  0  0  0  0  0  0  0  0  0
  188.5200  175.3850  147.1900 O   0  0  0  0  0  1  0  0  0  0  0  0
  190.1260  175.8980  145.4040 N   0  0  0  0  0  2  0  0  0  0  0  0
  189.2590  176.3120  146.4640 C   0  0  0  0  0  0  0  0  0  0  0  0
  190.3170  174.5430  144.9830 C   0  0  0  0  0  0  0  0  0  0  0  0
  195.7070  170.9280  139.5220 C   0  0  0  0  0  3  0  0  0  0  0  0
  196.2380  169.8330  138.9950 C   0  0  0  0  0  2  0  0  0  0  0  0
  192.0920  170.2950  139.2640 C   0  0  0  0  0  2  0  0  0  0  0  0
  191.5110  169.1450  138.4590 C   0  0  0  0  0  2  0  0  0  0  0  0
  190.7230  169.6380  137.4190 O   0  0  0  0  0  0  0  0  0  0  0  0
  191.3390  169.1660  136.2600 C   0  0  0  0  0  1  0  0  0  0  0  0
  1 22  1  6  0  0  0
  1  4  1  0  0  0  0
  1 28  1  0  0  0  0
  2  7  1  0  0  0  0
  3 11  1  6  0  0  0
  3 30  1  0  0  0  0
  5  2  1  0  0  0  0
  6 16  1  0  0  0  0
  6 12  1  0  0  0  0
  8 23  1  0  0  0  0
  9  5  1  1  0  0  0
 11 30  1  0  0  0  0
 12 32  1  0  0  0  0
 13 42  1  1  0  0  0
 13 27  1  0  0  0  0
 13 31  1  0  0  0  0
 15  4  1  0  0  0  0
 15 20  1  0  0  0  0
 16  9  1  0  0  0  0
 17 33  1  6  0  0  0
 17 24  1  0  0  0  0
 18 40  1  0  0  0  0
 18 17  1  0  0  0  0
 20 19  1  1  0  0  0
 20 27  1  0  0  0  0
 21 26  1  6  0  0  0
 21  3  1  0  0  0  0
 24  8  1  0  0  0  0
 25 14  2  0  0  0  0
 25  7  1  0  0  0  0
 27 26  1  1  0  0  0
 28 18  1  0  0  0  0
 29 21  1  0  0  0  0
 29 10  1  6  0  0  0
 30  9  1  0  0  0  0
 30 39  1  1  0  0  0
 31 29  1  0  0  0  0
 32 23  1  1  0  0  0
 32 25  1  0  0  0  0
 37 38  1  0  0  0  0
 38 34  2  0  0  0  0
 38 36  1  0  0  0  0
 39 37  1  0  0  0  0
 39 35  2  0  0  0  0
 41 40  2  0  0  0  0
 43 42  1  0  0  0  0
 44 43  1  0  0  0  0
 45 44  1  0  0  0  0
M  END
>  <MODEL>
7

>  <REMARK>
 VINA RESULT:      -6.2      2.627      4.450
  Name = 
  5 active torsions:
  status: ('A' for Active; 'I' for Inactive)
    1  A    between atoms: C_10  and  C_19
    2  A    between atoms: C_10  and  C_24
    3  A    between atoms: O_14  and  C_24
    4  A    between atoms: N_25  and  C_26
    5  A    between atoms: C_41  and  C_42
                            x       y       z     vdW  Elec       q    Type
                         _______ _______ _______ _____ _____    ______ ____

>  <TORSDO>
F 5

$$$$
=
 OpenBabel11062420483D

 45 48  0  0  1  0  0  0  0  0999 V2000
  189.7370  176.3750  144.6540 C   0  0  2  0  0  3  0  0  0  0  0  0
  192.5400  172.7390  136.7590 C   0  0  0  0  0  2  0  0  0  0  0  0
  195.1270  175.1550  139.8470 C   0  0  1  0  0  3  0  0  0  0  0  0
  191.0360  175.8930  144.8860 O   0  0  0  0  0  0  0  0  0  0  0  0
  193.5350  172.1550  137.7580 C   0  0  0  0  0  2  0  0  0  0  0  0
  192.0120  172.6040  140.3630 C   0  0  0  0  0  2  0  0  0  0  0  0
  191.5410  171.7730  136.4420 O   0  0  0  0  0  0  0  0  0  0  0  0
  188.5590  173.6290  139.6810 C   0  0  0  0  0  2  0  0  0  0  0  0
  193.7320  173.0640  138.9820 C   0  0  2  0  0  3  0  0  0  0  0  0
  195.0510  172.7390  142.2990 C   0  0  0  0  0  1  0  0  0  0  0  0
  194.1680  175.6350  138.7640 C   0  0  0  0  0  2  0  0  0  0  0  0
  191.1100  171.5680  139.6910 C   0  0  0  0  0  2  0  0  0  0  0  0
  194.2050  175.2510  143.9220 C   0  0  2  0  0  3  0  0  0  0  0  0
  189.7010  170.5160  136.9820 O   0  0  0  0  0  0  0  0  0  0  0  0
  191.9060  176.9860  144.7460 C   0  0  0  0  0  2  0  0  0  0  0  0
  192.4930  173.5420  139.4410 O   0  0  0  0  0  0  0  0  0  0  0  0
  189.3660  174.5420  141.8830 C   0  0  1  0  0  3  0  0  0  0  0  0
  189.4130  174.3060  143.3390 N   0  0  0  0  0  0  0  0  0  0  0  0
  191.5440  177.4540  142.4200 O   0  0  0  0  0  1  0  0  0  0  0  0
  192.5190  177.0760  143.3450 C   0  0  2  0  0  3  0  0  0  0  0  0
  194.3930  174.9000  141.1610 C   0  0  2  0  0  3  0  0  0  0  0  0
  189.1890  177.0560  145.9000 C   0  0  0  0  0  1  0  0  0  0  0  0
  188.8060  172.3020  138.9870 C   0  0  0  0  0  2  0  0  0  0  0  0
  188.5410  173.4560  141.1920 C   0  0  0  0  0  2  0  0  0  0  0  0
  190.4740  171.4610  137.2950 C   0  0  0  0  0  0  0  0  0  0  0  0
  193.9420  176.1180  141.6900 O   0  0  0  0  0  0  0  0  0  0  0  0
  193.2320  175.8090  142.8630 C   0  0  1  0  0  3  0  0  0  0  0  0
  188.7990  175.2250  144.2950 C   0  0  0  0  0  2  0  0  0  0  0  0
  195.3640  174.2180  142.1400 C   0  0  1  0  0  3  0  0  0  0  0  0
  194.7210  174.2220  138.7020 C   0  0  1  0  0  0  0  0  0  0  0  0
  195.4710  174.8780  143.3930 O   0  0  0  0  0  0  0  0  0  0  0  0
  190.2720  172.1990  138.5880 C   0  0  2  0  0  3  0  0  0  0  0  0
  188.8230  175.9280  141.5370 C   0  0  0  0  0  1  0  0  0  0  0  0
  196.8340  175.4660  134.5190 O   0  0  0  0  0  0  0  0  0  0  0  0
  196.7410  173.1730  137.9790 O   0  0  0  0  0  0  0  0  0  0  0  0
  197.9400  173.8070  135.6410 O   0  0  0  0  0  1  0  0  0  0  0  0
  195.8820  174.8060  136.5340 N   0  0  0  0  0  2  0  0  0  0  0  0
  196.8930  174.7140  135.5260 C   0  0  0  0  0  0  0  0  0  0  0  0
  195.8370  174.0140  137.7260 C   0  0  0  0  0  0  0  0  0  0  0  0
  190.0930  173.1770  143.9100 C   0  0  0  0  0  3  0  0  0  0  0  0
  189.7020  172.5910  145.0340 C   0  0  0  0  0  2  0  0  0  0  0  0
  193.5620  174.1110  144.7060 C   0  0  0  0  0  2  0  0  0  0  0  0
  194.3750  173.7730  145.9440 C   0  0  0  0  0  2  0  0  0  0  0  0
  195.1870  172.6660  145.6960 O   0  0  0  0  0  0  0  0  0  0  0  0
  194.3160  171.5780  145.7360 C   0  0  0  0  0  1  0  0  0  0  0  0
  1  4  1  0  0  0  0
  1 22  1  1  0  0  0
  2  5  1  0  0  0  0
  3 11  1  6  0  0  0
  3 21  1  0  0  0  0
  7  2  1  0  0  0  0
  7 25  1  0  0  0  0
  8 24  1  0  0  0  0
  9  5  1  6  0  0  0
  9 16  1  0  0  0  0
 12  6  1  0  0  0  0
 13 42  1  6  0  0  0
 14 25  2  0  0  0  0
 15  4  1  0  0  0  0
 16  6  1  0  0  0  0
 17 33  1  1  0  0  0
 17 18  1  0  0  0  0
 18 40  1  0  0  0  0
 18 28  1  0  0  0  0
 20 19  1  6  0  0  0
 20 15  1  0  0  0  0
 21 26  1  1  0  0  0
 21 29  1  0  0  0  0
 23  8  1  0  0  0  0
 24 17  1  0  0  0  0
 25 32  1  0  0  0  0
 27 26  1  6  0  0  0
 27 20  1  0  0  0  0
 27 13  1  0  0  0  0
 28  1  1  0  0  0  0
 29 10  1  1  0  0  0
 29 31  1  0  0  0  0
 30 39  1  6  0  0  0
 30 11  1  0  0  0  0
 30  9  1  0  0  0  0
 30  3  1  0  0  0  0
 31 13  1  0  0  0  0
 32 23  1  1  0  0  0
 32 12  1  0  0  0  0
 34 38  2  0  0  0  0
 37 39  1  0  0  0  0
 38 36  1  0  0  0  0
 38 37  1  0  0  0  0
 39 35  2  0  0  0  0
 40 41  2  0  0  0  0
 42 43  1  0  0  0  0
 44 45  1  0  0  0  0
 44 43  1  0  0  0  0
M  END
>  <MODEL>
8

>  <REMARK>
 VINA RESULT:      -6.0      3.121      8.670
  Name = 
  5 active torsions:
  status: ('A' for Active; 'I' for Inactive)
    1  A    between atoms: C_10  and  C_19
    2  A    between atoms: C_10  and  C_24
    3  A    between atoms: O_14  and  C_24
    4  A    between atoms: N_25  and  C_26
    5  A    between atoms: C_41  and  C_42
                            x       y       z     vdW  Elec       q    Type
                         _______ _______ _______ _____ _____    ______ ____

>  <TORSDO>
F 5

$$$$
=
 OpenBabel11062420483D

 45 48  0  0  1  0  0  0  0  0999 V2000
  191.0760  176.2090  146.3430 C   0  0  2  0  0  3  0  0  0  0  0  0
  194.8710  171.3180  139.6280 C   0  0  0  0  0  2  0  0  0  0  0  0
  190.3810  171.2410  141.0050 C   0  0  1  0  0  3  0  0  0  0  0  0
  190.1150  176.1370  145.3200 O   0  0  0  0  0  0  0  0  0  0  0  0
  193.6960  171.9870  138.9190 C   0  0  0  0  0  2  0  0  0  0  0  0
  193.1020  174.2500  140.8770 C   0  0  0  0  0  2  0  0  0  0  0  0
  196.0800  172.0100  139.3280 O   0  0  0  0  0  0  0  0  0  0  0  0
  195.7710  174.5310  143.3750 C   0  0  0  0  0  2  0  0  0  0  0  0
  192.5420  172.3070  139.8830 C   0  0  2  0  0  3  0  0  0  0  0  0
  189.6400  174.4110  139.8840 C   0  0  0  0  0  1  0  0  0  0  0  0
  191.6100  170.5530  141.5870 C   0  0  0  0  0  2  0  0  0  0  0  0
  194.4770  174.6810  140.3650 C   0  0  0  0  0  2  0  0  0  0  0  0
  188.5490  174.5450  142.7910 C   0  0  2  0  0  3  0  0  0  0  0  0
  197.4720  173.8220  139.5170 O   0  0  0  0  0  0  0  0  0  0  0  0
  189.2420  175.0900  145.6540 C   0  0  0  0  0  2  0  0  0  0  0  0
  193.0380  172.8640  141.0730 O   0  0  0  0  0  0  0  0  0  0  0  0
  193.5680  175.3300  144.2950 C   0  0  1  0  0  3  0  0  0  0  0  0
  192.7150  176.5130  144.5150 N   0  0  0  0  0  0  0  0  0  0  0  0
  190.7930  173.2610  145.5310 O   0  0  0  0  0  1  0  0  0  0  0  0
  189.6190  173.7700  144.9740 C   0  0  2  0  0  3  0  0  0  0  0  0
  190.1950  172.6350  141.5980 C   0  0  2  0  0  3  0  0  0  0  0  0
  190.5240  176.9620  147.5440 C   0  0  0  0  0  1  0  0  0  0  0  0
  196.3950  174.6580  141.9980 C   0  0  0  0  0  2  0  0  0  0  0  0
  194.9120  175.7450  143.6960 C   0  0  0  0  0  2  0  0  0  0  0  0
  196.4380  173.2270  139.9230 C   0  0  0  0  0  0  0  0  0  0  0  0
  189.8530  172.5260  142.9540 O   0  0  0  0  0  0  0  0  0  0  0  0
  189.7510  173.8370  143.4490 C   0  0  1  0  0  3  0  0  0  0  0  0
  192.3190  176.9470  145.8540 C   0  0  0  0  0  2  0  0  0  0  0  0
  189.0790  173.3530  140.8210 C   0  0  1  0  0  3  0  0  0  0  0  0
  191.6470  171.0740  140.1610 C   0  0  1  0  0  0  0  0  0  0  0  0
  188.0450  173.8680  141.6480 O   0  0  0  0  0  0  0  0  0  0  0  0
  195.5860  173.8490  140.9930 C   0  0  2  0  0  3  0  0  0  0  0  0
  193.7800  174.5210  145.5740 C   0  0  0  0  0  1  0  0  0  0  0  0
  190.5400  170.0160  135.5600 O   0  0  0  0  0  0  0  0  0  0  0  0
  191.7240  168.8260  139.3580 O   0  0  0  0  0  0  0  0  0  0  0  0
  191.0860  168.1800  136.8120 O   0  0  0  0  0  1  0  0  0  0  0  0
  191.0790  170.4370  137.7820 N   0  0  0  0  0  2  0  0  0  0  0  0
  190.8900  169.5490  136.6760 C   0  0  0  0  0  0  0  0  0  0  0  0
  191.4790  170.0340  139.0970 C   0  0  0  0  0  0  0  0  0  0  0  0
  192.1900  177.2910  143.4290 C   0  0  0  0  0  3  0  0  0  0  0  0
  191.5260  178.4260  143.6070 C   0  0  0  0  0  2  0  0  0  0  0  0
  188.8750  176.0040  142.4860 C   0  0  0  0  0  2  0  0  0  0  0  0
  187.7090  176.9100  142.8440 C   0  0  0  0  0  2  0  0  0  0  0  0
  186.6430  176.1510  143.3270 O   0  0  0  0  0  0  0  0  0  0  0  0
  185.5060  176.8500  142.9250 C   0  0  0  0  0  1  0  0  0  0  0  0
  1 22  1  1  0  0  0
  3 11  1  1  0  0  0
  3 21  1  0  0  0  0
  4 15  1  0  0  0  0
  4  1  1  0  0  0  0
  5  2  1  0  0  0  0
  6 16  1  0  0  0  0
  7  2  1  0  0  0  0
  7 25  1  0  0  0  0
  8 24  1  0  0  0  0
  9  5  1  6  0  0  0
  9 30  1  0  0  0  0
  9 16  1  0  0  0  0
 12  6  1  0  0  0  0
 13 42  1  6  0  0  0
 13 27  1  0  0  0  0
 14 25  2  0  0  0  0
 17 18  1  0  0  0  0
 17 33  1  1  0  0  0
 18 28  1  0  0  0  0
 20 19  1  1  0  0  0
 20 15  1  0  0  0  0
 21 26  1  1  0  0  0
 23  8  1  0  0  0  0
 24 17  1  0  0  0  0
 25 32  1  0  0  0  0
 27 26  1  6  0  0  0
 27 20  1  0  0  0  0
 28  1  1  0  0  0  0
 29 10  1  1  0  0  0
 29 21  1  0  0  0  0
 29 31  1  0  0  0  0
 30 39  1  6  0  0  0
 30  3  1  0  0  0  0
 30 11  1  0  0  0  0
 31 13  1  0  0  0  0
 32 12  1  6  0  0  0
 32 23  1  0  0  0  0
 34 38  2  0  0  0  0
 37 39  1  0  0  0  0
 38 36  1  0  0  0  0
 38 37  1  0  0  0  0
 39 35  2  0  0  0  0
 40 41  2  0  0  0  0
 40 18  1  0  0  0  0
 42 43  1  0  0  0  0
 43 44  1  0  0  0  0
 45 44  1  0  0  0  0
M  END
>  <MODEL>
9

>  <REMARK>
 VINA RESULT:      -5.8      2.291      7.643
  Name = 
  5 active torsions:
  status: ('A' for Active; 'I' for Inactive)
    1  A    between atoms: C_10  and  C_19
    2  A    between atoms: C_10  and  C_24
    3  A    between atoms: O_14  and  C_24
    4  A    between atoms: N_25  and  C_26
    5  A    between atoms: C_41  and  C_42
                            x       y       z     vdW  Elec       q    Type
                         _______ _______ _______ _____ _____    ______ ____

>  <TORSDO>
F 5

$$$$
