=
 OpenBabel11062418573D

 33 36  0  0  1  0  0  0  0  0999 V2000
  188.4080  174.2490  139.1270 C   0  0  0  0  0  2  0  0  0  0  0  0
  189.1540  173.8220  140.3540 C   0  0  2  0  0  3  0  0  0  0  0  0
  189.2850  172.3850  140.2480 N   0  0  0  0  0  0  0  0  0  0  0  0
  188.2610  173.0450  138.3310 N   0  0  0  0  0  2  0  0  0  0  0  0
  189.1450  172.0940  138.8780 N   0  0  0  0  0  2  0  0  0  0  0  0
  187.5510  173.4330  142.0520 O   0  0  0  0  0  0  0  0  0  0  0  0
  188.4340  174.2170  141.6140 C   0  0  0  0  0  0  0  0  0  0  0  0
  187.6700  176.1990  142.9240 C   0  0  0  0  0  3  0  0  0  0  0  0
  190.0280  175.9540  142.4920 C   0  0  0  0  0  3  0  0  0  0  0  0
  190.2580  177.1370  143.1920 C   0  0  0  0  0  3  0  0  0  0  0  0
  189.2150  177.8200  143.7350 N   0  0  0  0  0  0  0  0  0  0  0  0
  188.7220  175.4720  142.3510 C   0  0  0  0  0  0  0  0  0  0  0  0
  187.9270  177.3890  143.6150 C   0  0  0  0  0  0  0  0  0  0  0  0
  186.8950  176.9320  146.3390 O   0  0  0  0  0  1  0  0  0  0  0  0
  186.4650  178.0020  145.6250 N   0  0  0  0  0  0  0  0  0  0  0  0
  186.8410  178.1720  144.2450 C   0  0  0  0  0  0  0  0  0  0  0  0
  186.2290  179.0210  143.5410 O   0  0  0  0  0  0  0  0  0  0  0  0
  185.9540  179.2750  147.6460 C   0  0  0  0  0  1  0  0  0  0  0  0
  184.1280  178.3120  146.2640 C   0  0  0  0  0  1  0  0  0  0  0  0
  185.5140  178.9250  146.2370 C   0  0  0  0  0  3  0  0  0  0  0  0
  190.6500  172.0500  140.6190 C   0  0  0  0  0  2  0  0  0  0  0  0
  190.6390  171.1740  141.8600 C   0  0  0  0  0  2  0  0  0  0  0  0
  191.7370  171.6010  142.8200 C   0  0  2  0  0  3  0  0  0  0  0  0
  191.9270  170.6090  143.7850 O   0  0  0  0  0  1  0  0  0  0  0  0
  189.4890  174.3070  146.3900 C   0  0  0  0  0  3  0  0  0  0  0  0
  191.4080  172.9400  143.4820 C   0  0  1  0  0  3  0  0  0  0  0  0
  190.2110  172.8470  144.4390 C   0  0  0  0  0  2  0  0  0  0  0  0
  192.1240  175.2810  146.5020 C   0  0  0  0  0  3  0  0  0  0  0  0
  192.8660  173.6110  144.3680 S   0  0  0  0  0  0  0  0  0  0  0  0
  191.1580  175.7620  147.3960 C   0  0  0  0  0  3  0  0  0  0  0  0
  190.4630  173.8420  145.5030 C   0  0  0  0  0  0  0  0  0  0  0  0
  189.8430  175.2730  147.3420 C   0  0  0  0  0  3  0  0  0  0  0  0
  191.7590  174.3090  145.5680 C   0  0  0  0  0  0  0  0  0  0  0  0
  1  2  1  0  0  0  0
  2  7  1  1  0  0  0
  3  2  1  0  0  0  0
  3 21  1  0  0  0  0
  4  5  1  0  0  0  0
  4  1  1  0  0  0  0
  5  3  1  0  0  0  0
  7  6  2  0  0  0  0
  7 12  1  0  0  0  0
  8 13  1  0  0  0  0
  9 10  2  0  0  0  0
 10 11  1  0  0  0  0
 12  9  1  0  0  0  0
 12  8  2  0  0  0  0
 13 11  2  0  0  0  0
 13 16  1  0  0  0  0
 15 20  1  0  0  0  0
 15 14  1  0  0  0  0
 16 15  1  0  0  0  0
 17 16  2  0  0  0  0
 20 19  1  0  0  0  0
 20 18  1  0  0  0  0
 21 22  1  0  0  0  0
 22 23  1  0  0  0  0
 23 24  1  1  0  0  0
 25 32  1  0  0  0  0
 26 23  1  1  0  0  0
 26 29  1  0  0  0  0
 26 27  1  0  0  0  0
 27 31  1  0  0  0  0
 28 30  1  0  0  0  0
 29 33  1  0  0  0  0
 31 33  1  0  0  0  0
 31 25  2  0  0  0  0
 32 30  2  0  0  0  0
 33 28  2  0  0  0  0
M  END
>  <MODEL>
1

>  <REMARK>
 VINA RESULT:      -7.1      0.000      0.000
  Name = 
  8 active torsions:
  status: ('A' for Active; 'I' for Inactive)
    1  A    between atoms: N_4  and  C_23
    2  A    between atoms: C_7  and  C_8
    3  A    between atoms: C_8  and  C_11
    4  A    between atoms: C_10  and  C_29
    5  A    between atoms: C_11  and  C_17
    6  A    between atoms: C_17  and  N_24
    7  A    between atoms: C_22  and  C_33
    8  A    between atoms: C_27  and  C_33
                            x       y       z     vdW  Elec       q    Type
                         _______ _______ _______ _____ _____    ______ ____

>  <TORSDO>
F 8

$$$$
=
 OpenBabel11062418573D

 33 36  0  0  1  0  0  0  0  0999 V2000
  184.6490  177.3290  146.4420 C   0  0  0  0  0  2  0  0  0  0  0  0
  185.7610  177.2820  145.4390 C   0  0  2  0  0  3  0  0  0  0  0  0
  186.7310  178.2570  145.8890 N   0  0  0  0  0  0  0  0  0  0  0  0
  185.1040  178.2430  147.4730 N   0  0  0  0  0  2  0  0  0  0  0  0
  186.4840  178.4270  147.2640 N   0  0  0  0  0  2  0  0  0  0  0  0
  184.1850  178.2080  143.9330 O   0  0  0  0  0  0  0  0  0  0  0  0
  185.2770  177.5900  144.0490 C   0  0  0  0  0  0  0  0  0  0  0  0
  187.0770  176.2820  142.9190 C   0  0  0  0  0  3  0  0  0  0  0  0
  185.7000  177.7310  141.5730 C   0  0  0  0  0  3  0  0  0  0  0  0
  186.4250  177.3400  140.4480 C   0  0  0  0  0  3  0  0  0  0  0  0
  187.4430  176.4470  140.5710 N   0  0  0  0  0  0  0  0  0  0  0  0
  186.0230  177.2000  142.8270 C   0  0  0  0  0  0  0  0  0  0  0  0
  187.7940  175.9120  141.7740 C   0  0  0  0  0  0  0  0  0  0  0  0
  187.4450  172.9850  141.7400 O   0  0  0  0  0  1  0  0  0  0  0  0
  188.6910  173.5160  141.6770 N   0  0  0  0  0  0  0  0  0  0  0  0
  188.9020  174.9330  141.8340 C   0  0  0  0  0  0  0  0  0  0  0  0
  190.0720  175.3620  142.0270 O   0  0  0  0  0  0  0  0  0  0  0  0
  189.9160  172.0390  140.1650 C   0  0  0  0  0  1  0  0  0  0  0  0
  189.7360  171.5030  142.5840 C   0  0  0  0  0  1  0  0  0  0  0  0
  189.8380  172.6200  141.5640 C   0  0  0  0  0  3  0  0  0  0  0  0
  188.0440  177.6470  145.7610 C   0  0  0  0  0  2  0  0  0  0  0  0
  188.3010  176.7400  146.9520 C   0  0  0  0  0  2  0  0  0  0  0  0
  188.8300  175.3930  146.4870 C   0  0  2  0  0  3  0  0  0  0  0  0
  188.9180  174.5230  147.5760 O   0  0  0  0  0  1  0  0  0  0  0  0
  193.7800  176.1620  146.6480 C   0  0  0  0  0  3  0  0  0  0  0  0
  190.1890  175.5350  145.8000 C   0  0  1  0  0  3  0  0  0  0  0  0
  191.2390  176.2000  146.7010 C   0  0  0  0  0  2  0  0  0  0  0  0
  193.6100  173.8320  145.0860 C   0  0  0  0  0  3  0  0  0  0  0  0
  190.8050  173.9090  145.2170 S   0  0  0  0  0  0  0  0  0  0  0  0
  194.8620  174.3690  145.4130 C   0  0  0  0  0  3  0  0  0  0  0  0
  192.5400  175.6150  146.3100 C   0  0  0  0  0  0  0  0  0  0  0  0
  194.9470  175.5310  146.1960 C   0  0  0  0  0  3  0  0  0  0  0  0
  192.4570  174.4640  145.5550 C   0  0  0  0  0  0  0  0  0  0  0  0
  1  4  1  0  0  0  0
  2  7  1  6  0  0  0
  2  3  1  0  0  0  0
  2  1  1  0  0  0  0
  3  5  1  0  0  0  0
  5  4  1  0  0  0  0
  6  7  2  0  0  0  0
  9 12  2  0  0  0  0
 10 11  2  0  0  0  0
 10  9  1  0  0  0  0
 11 13  1  0  0  0  0
 12  8  1  0  0  0  0
 12  7  1  0  0  0  0
 13 16  1  0  0  0  0
 13  8  2  0  0  0  0
 15 14  1  0  0  0  0
 15 16  1  0  0  0  0
 16 17  2  0  0  0  0
 18 20  1  0  0  0  0
 20 15  1  0  0  0  0
 20 19  1  0  0  0  0
 21  3  1  0  0  0  0
 21 22  1  0  0  0  0
 23 22  1  0  0  0  0
 23 24  1  1  0  0  0
 26 23  1  1  0  0  0
 26 27  1  0  0  0  0
 28 30  2  0  0  0  0
 28 33  1  0  0  0  0
 29 33  1  0  0  0  0
 29 26  1  0  0  0  0
 30 32  1  0  0  0  0
 31 25  1  0  0  0  0
 31 27  1  0  0  0  0
 32 25  2  0  0  0  0
 33 31  2  0  0  0  0
M  END
>  <MODEL>
2

>  <REMARK>
 VINA RESULT:      -7.1      2.160      6.337
  Name = 
  8 active torsions:
  status: ('A' for Active; 'I' for Inactive)
    1  A    between atoms: N_4  and  C_23
    2  A    between atoms: C_7  and  C_8
    3  A    between atoms: C_8  and  C_11
    4  A    between atoms: C_10  and  C_29
    5  A    between atoms: C_11  and  C_17
    6  A    between atoms: C_17  and  N_24
    7  A    between atoms: C_22  and  C_33
    8  A    between atoms: C_27  and  C_33
                            x       y       z     vdW  Elec       q    Type
                         _______ _______ _______ _____ _____    ______ ____

>  <TORSDO>
F 8

$$$$
=
 OpenBabel11062418573D

 33 36  0  0  1  0  0  0  0  0999 V2000
  193.6880  174.9930  142.9630 C   0  0  0  0  0  2  0  0  0  0  0  0
  192.3390  175.2890  143.5410 C   0  0  2  0  0  3  0  0  0  0  0  0
  192.5460  175.4090  144.9680 N   0  0  0  0  0  0  0  0  0  0  0  0
  194.6100  175.0790  144.0800 N   0  0  0  0  0  2  0  0  0  0  0  0
  193.9110  175.7120  145.1270 N   0  0  0  0  0  2  0  0  0  0  0  0
  191.4690  173.1020  143.8030 O   0  0  0  0  0  0  0  0  0  0  0  0
  191.3400  174.2110  143.2190 C   0  0  0  0  0  0  0  0  0  0  0  0
  189.4190  175.5410  142.3420 C   0  0  0  0  0  3  0  0  0  0  0  0
  189.9600  173.4590  141.2550 C   0  0  0  0  0  3  0  0  0  0  0  0
  188.9060  173.6730  140.3680 C   0  0  0  0  0  3  0  0  0  0  0  0
  188.1390  174.7910  140.4790 N   0  0  0  0  0  0  0  0  0  0  0  0
  190.2270  174.4000  142.2560 C   0  0  0  0  0  0  0  0  0  0  0  0
  188.3610  175.7270  141.4450 C   0  0  0  0  0  0  0  0  0  0  0  0
  185.9490  175.9840  143.1210 O   0  0  0  0  0  1  0  0  0  0  0  0
  186.4110  177.0580  142.4340 N   0  0  0  0  0  0  0  0  0  0  0  0
  187.4980  176.9280  141.4980 C   0  0  0  0  0  0  0  0  0  0  0  0
  187.7340  177.8710  140.6940 O   0  0  0  0  0  0  0  0  0  0  0  0
  186.3040  179.1430  143.7020 C   0  0  0  0  0  1  0  0  0  0  0  0
  184.2350  178.1040  142.8040 C   0  0  0  0  0  1  0  0  0  0  0  0
  185.7140  178.3340  142.5630 C   0  0  0  0  0  3  0  0  0  0  0  0
  191.7940  176.5700  145.4150 C   0  0  0  0  0  2  0  0  0  0  0  0
  191.6230  176.5160  146.9230 C   0  0  0  0  0  2  0  0  0  0  0  0
  190.2700  175.9230  147.2810 C   0  0  2  0  0  3  0  0  0  0  0  0
  190.1990  174.6060  146.8220 O   0  0  0  0  0  1  0  0  0  0  0  0
  185.4070  176.6370  146.2970 C   0  0  0  0  0  3  0  0  0  0  0  0
  189.1260  176.7580  146.7020 C   0  0  1  0  0  3  0  0  0  0  0  0
  187.8430  175.9390  146.4980 C   0  0  0  0  0  2  0  0  0  0  0  0
  186.1080  179.0650  147.5290 C   0  0  0  0  0  3  0  0  0  0  0  0
  188.7760  178.2160  147.7580 S   0  0  0  0  0  0  0  0  0  0  0  0
  184.7850  178.8350  147.1290 C   0  0  0  0  0  3  0  0  0  0  0  0
  186.7230  176.8840  146.6980 C   0  0  0  0  0  0  0  0  0  0  0  0
  184.4340  177.6220  146.5180 C   0  0  0  0  0  3  0  0  0  0  0  0
  187.0630  178.0690  147.3150 C   0  0  0  0  0  0  0  0  0  0  0  0
  1  2  1  0  0  0  0
  1  4  1  0  0  0  0
  2  7  1  1  0  0  0
  2  3  1  0  0  0  0
  3  5  1  0  0  0  0
  3 21  1  0  0  0  0
  4  5  1  0  0  0  0
  7  6  2  0  0  0  0
  9 12  2  0  0  0  0
 10 11  2  0  0  0  0
 10  9  1  0  0  0  0
 11 13  1  0  0  0  0
 12  8  1  0  0  0  0
 12  7  1  0  0  0  0
 13 16  1  0  0  0  0
 13  8  2  0  0  0  0
 15 20  1  0  0  0  0
 15 14  1  0  0  0  0
 16 15  1  0  0  0  0
 17 16  2  0  0  0  0
 20 19  1  0  0  0  0
 20 18  1  0  0  0  0
 21 22  1  0  0  0  0
 22 23  1  0  0  0  0
 23 24  1  6  0  0  0
 25 32  2  0  0  0  0
 25 31  1  0  0  0  0
 26 23  1  1  0  0  0
 26 29  1  0  0  0  0
 27 31  1  0  0  0  0
 27 26  1  0  0  0  0
 30 28  2  0  0  0  0
 31 33  2  0  0  0  0
 32 30  1  0  0  0  0
 33 28  1  0  0  0  0
 33 29  1  0  0  0  0
M  END
>  <MODEL>
3

>  <REMARK>
 VINA RESULT:      -6.8      2.818      5.314
  Name = 
  8 active torsions:
  status: ('A' for Active; 'I' for Inactive)
    1  A    between atoms: N_4  and  C_23
    2  A    between atoms: C_7  and  C_8
    3  A    between atoms: C_8  and  C_11
    4  A    between atoms: C_10  and  C_29
    5  A    between atoms: C_11  and  C_17
    6  A    between atoms: C_17  and  N_24
    7  A    between atoms: C_22  and  C_33
    8  A    between atoms: C_27  and  C_33
                            x       y       z     vdW  Elec       q    Type
                         _______ _______ _______ _____ _____    ______ ____

>  <TORSDO>
F 8

$$$$
=
 OpenBabel11062418573D

 33 36  0  0  1  0  0  0  0  0999 V2000
  190.0630  171.6180  142.0950 C   0  0  0  0  0  2  0  0  0  0  0  0
  189.3220  172.7630  142.7150 C   0  0  2  0  0  3  0  0  0  0  0  0
  189.4250  173.8500  141.7660 N   0  0  0  0  0  0  0  0  0  0  0  0
  190.4450  172.0810  140.7740 N   0  0  0  0  0  2  0  0  0  0  0  0
  189.6910  173.2440  140.5240 N   0  0  0  0  0  2  0  0  0  0  0  0
  189.6680  172.3760  145.0250 O   0  0  0  0  0  0  0  0  0  0  0  0
  189.8930  173.1450  144.0520 C   0  0  0  0  0  0  0  0  0  0  0  0
  191.9720  174.4770  143.6900 C   0  0  0  0  0  3  0  0  0  0  0  0
  190.2210  175.4340  145.0400 C   0  0  0  0  0  3  0  0  0  0  0  0
  191.0100  176.5710  145.2190 C   0  0  0  0  0  3  0  0  0  0  0  0
  192.2410  176.6420  144.6450 N   0  0  0  0  0  0  0  0  0  0  0  0
  190.7010  174.3710  144.2680 C   0  0  0  0  0  0  0  0  0  0  0  0
  192.7470  175.6250  143.8920 C   0  0  0  0  0  0  0  0  0  0  0  0
  195.2920  175.4010  145.3650 O   0  0  0  0  0  1  0  0  0  0  0  0
  195.3020  175.5220  144.0140 N   0  0  0  0  0  0  0  0  0  0  0  0
  194.0870  175.7750  143.2820 C   0  0  0  0  0  0  0  0  0  0  0  0
  194.1600  176.1360  142.0760 O   0  0  0  0  0  0  0  0  0  0  0  0
  197.5710  174.6180  144.0380 C   0  0  0  0  0  1  0  0  0  0  0  0
  197.1360  176.9160  143.2040 C   0  0  0  0  0  1  0  0  0  0  0  0
  196.5820  175.5100  143.3120 C   0  0  0  0  0  3  0  0  0  0  0  0
  188.1100  174.4630  141.6700 C   0  0  0  0  0  2  0  0  0  0  0  0
  188.2300  175.9610  141.8870 C   0  0  0  0  0  2  0  0  0  0  0  0
  186.8720  176.6280  141.7400 C   0  0  2  0  0  3  0  0  0  0  0  0
  187.0420  177.9530  141.3320 O   0  0  0  0  0  1  0  0  0  0  0  0
  186.5010  177.2420  146.7000 C   0  0  0  0  0  3  0  0  0  0  0  0
  186.0760  176.5640  143.0450 C   0  0  1  0  0  3  0  0  0  0  0  0
  186.9760  176.5990  144.2880 C   0  0  0  0  0  2  0  0  0  0  0  0
  184.2370  178.6280  145.7780 C   0  0  0  0  0  3  0  0  0  0  0  0
  184.8410  177.9170  143.1280 S   0  0  0  0  0  0  0  0  0  0  0  0
  184.5320  178.5960  147.1470 C   0  0  0  0  0  3  0  0  0  0  0  0
  186.1900  177.2800  145.3390 C   0  0  0  0  0  0  0  0  0  0  0  0
  185.6640  177.9070  147.6070 C   0  0  0  0  0  3  0  0  0  0  0  0
  185.0870  177.9720  144.8850 C   0  0  0  0  0  0  0  0  0  0  0  0
  1  2  1  0  0  0  0
  2  7  1  1  0  0  0
  3  2  1  0  0  0  0
  4  1  1  0  0  0  0
  5  4  1  0  0  0  0
  5  3  1  0  0  0  0
  7 12  1  0  0  0  0
  7  6  2  0  0  0  0
  8 13  2  0  0  0  0
  8 12  1  0  0  0  0
  9 10  1  0  0  0  0
 11 10  2  0  0  0  0
 12  9  2  0  0  0  0
 13 11  1  0  0  0  0
 15 14  1  0  0  0  0
 16 13  1  0  0  0  0
 16 15  1  0  0  0  0
 17 16  2  0  0  0  0
 19 20  1  0  0  0  0
 20 15  1  0  0  0  0
 20 18  1  0  0  0  0
 21  3  1  0  0  0  0
 21 22  1  0  0  0  0
 23 24  1  1  0  0  0
 23 22  1  0  0  0  0
 25 32  1  0  0  0  0
 26 23  1  6  0  0  0
 26 29  1  0  0  0  0
 26 27  1  0  0  0  0
 27 31  1  0  0  0  0
 28 30  1  0  0  0  0
 29 33  1  0  0  0  0
 30 32  2  0  0  0  0
 31 25  2  0  0  0  0
 33 31  1  0  0  0  0
 33 28  2  0  0  0  0
M  END
>  <MODEL>
4

>  <REMARK>
 VINA RESULT:      -6.7      3.469      6.785
  Name = 
  8 active torsions:
  status: ('A' for Active; 'I' for Inactive)
    1  A    between atoms: N_4  and  C_23
    2  A    between atoms: C_7  and  C_8
    3  A    between atoms: C_8  and  C_11
    4  A    between atoms: C_10  and  C_29
    5  A    between atoms: C_11  and  C_17
    6  A    between atoms: C_17  and  N_24
    7  A    between atoms: C_22  and  C_33
    8  A    between atoms: C_27  and  C_33
                            x       y       z     vdW  Elec       q    Type
                         _______ _______ _______ _____ _____    ______ ____

>  <TORSDO>
F 8

$$$$
=
 OpenBabel11062418573D

 33 36  0  0  1  0  0  0  0  0999 V2000
  185.0570  177.7810  146.5230 C   0  0  0  0  0  2  0  0  0  0  0  0
  186.2880  177.4470  145.7370 C   0  0  2  0  0  3  0  0  0  0  0  0
  187.4010  177.8400  146.5730 N   0  0  0  0  0  0  0  0  0  0  0  0
  185.5400  178.2350  147.8140 N   0  0  0  0  0  2  0  0  0  0  0  0
  186.8960  177.8620  147.8870 N   0  0  0  0  0  2  0  0  0  0  0  0
  185.9830  179.3720  144.3920 O   0  0  0  0  0  0  0  0  0  0  0  0
  186.3180  178.1570  144.4120 C   0  0  0  0  0  0  0  0  0  0  0  0
  187.3070  176.2230  143.1840 C   0  0  0  0  0  3  0  0  0  0  0  0
  186.5340  178.1130  141.9060 C   0  0  0  0  0  3  0  0  0  0  0  0
  186.9270  177.4580  140.7390 C   0  0  0  0  0  3  0  0  0  0  0  0
  187.4930  176.2240  140.8100 N   0  0  0  0  0  0  0  0  0  0  0  0
  186.7230  177.4950  143.1470 C   0  0  0  0  0  0  0  0  0  0  0  0
  187.7010  175.5900  141.9980 C   0  0  0  0  0  0  0  0  0  0  0  0
  190.5960  175.0530  141.8530 O   0  0  0  0  0  1  0  0  0  0  0  0
  189.7310  174.0320  142.0680 N   0  0  0  0  0  0  0  0  0  0  0  0
  188.3070  174.2400  142.0020 C   0  0  0  0  0  0  0  0  0  0  0  0
  187.5410  173.2400  141.9490 O   0  0  0  0  0  0  0  0  0  0  0  0
  190.3900  172.3670  143.7290 C   0  0  0  0  0  1  0  0  0  0  0  0
  191.6070  172.5480  141.5720 C   0  0  0  0  0  1  0  0  0  0  0  0
  190.2580  172.6830  142.2520 C   0  0  0  0  0  3  0  0  0  0  0  0
  188.3840  176.7710  146.5100 C   0  0  0  0  0  2  0  0  0  0  0  0
  189.7720  177.3650  146.3420 C   0  0  0  0  0  2  0  0  0  0  0  0
  190.7270  176.7780  147.3670 C   0  0  2  0  0  3  0  0  0  0  0  0
  190.9650  177.7120  148.3770 O   0  0  0  0  0  1  0  0  0  0  0  0
  193.7900  173.2310  145.5880 C   0  0  0  0  0  3  0  0  0  0  0  0
  192.0420  176.3420  146.7170 C   0  0  1  0  0  3  0  0  0  0  0  0
  192.3170  174.8410  146.8910 C   0  0  0  0  0  2  0  0  0  0  0  0
  193.7320  175.0640  143.4580 C   0  0  0  0  0  3  0  0  0  0  0  0
  192.0710  176.7800  144.9360 S   0  0  0  0  0  0  0  0  0  0  0  0
  194.4620  173.8730  143.3410 C   0  0  0  0  0  3  0  0  0  0  0  0
  193.0700  174.4240  145.6890 C   0  0  0  0  0  0  0  0  0  0  0  0
  194.4880  172.9560  144.4040 C   0  0  0  0  0  3  0  0  0  0  0  0
  193.0310  175.3160  144.6380 C   0  0  0  0  0  0  0  0  0  0  0  0
  1  4  1  0  0  0  0
  2  7  1  6  0  0  0
  2  1  1  0  0  0  0
  2  3  1  0  0  0  0
  3  5  1  0  0  0  0
  4  5  1  0  0  0  0
  6  7  2  0  0  0  0
  9 12  2  0  0  0  0
 10 11  2  0  0  0  0
 10  9  1  0  0  0  0
 11 13  1  0  0  0  0
 12  8  1  0  0  0  0
 12  7  1  0  0  0  0
 13 16  1  0  0  0  0
 13  8  2  0  0  0  0
 14 15  1  0  0  0  0
 15 20  1  0  0  0  0
 16 15  1  0  0  0  0
 17 16  2  0  0  0  0
 19 20  1  0  0  0  0
 20 18  1  0  0  0  0
 21  3  1  0  0  0  0
 22 21  1  0  0  0  0
 22 23  1  0  0  0  0
 23 24  1  1  0  0  0
 25 31  1  0  0  0  0
 26 27  1  0  0  0  0
 26 23  1  6  0  0  0
 28 33  1  0  0  0  0
 29 26  1  0  0  0  0
 30 28  2  0  0  0  0
 30 32  1  0  0  0  0
 31 27  1  0  0  0  0
 32 25  2  0  0  0  0
 33 29  1  0  0  0  0
 33 31  2  0  0  0  0
M  END
>  <MODEL>
5

>  <REMARK>
 VINA RESULT:      -6.7      2.232      6.485
  Name = 
  8 active torsions:
  status: ('A' for Active; 'I' for Inactive)
    1  A    between atoms: N_4  and  C_23
    2  A    between atoms: C_7  and  C_8
    3  A    between atoms: C_8  and  C_11
    4  A    between atoms: C_10  and  C_29
    5  A    between atoms: C_11  and  C_17
    6  A    between atoms: C_17  and  N_24
    7  A    between atoms: C_22  and  C_33
    8  A    between atoms: C_27  and  C_33
                            x       y       z     vdW  Elec       q    Type
                         _______ _______ _______ _____ _____    ______ ____

>  <TORSDO>
F 8

$$$$
=
 OpenBabel11062418573D

 33 36  0  0  1  0  0  0  0  0999 V2000
  189.0160  172.3640  138.5770 C   0  0  0  0  0  2  0  0  0  0  0  0
  188.9530  172.7090  140.0330 C   0  0  2  0  0  3  0  0  0  0  0  0
  188.7700  174.1440  140.0840 N   0  0  0  0  0  0  0  0  0  0  0  0
  188.7450  173.6070  137.8780 N   0  0  0  0  0  2  0  0  0  0  0  0
  188.2270  174.5000  138.8360 N   0  0  0  0  0  2  0  0  0  0  0  0
  190.4650  171.0560  140.8000 O   0  0  0  0  0  0  0  0  0  0  0  0
  190.1970  172.2860  140.7650 C   0  0  0  0  0  0  0  0  0  0  0  0
  190.9090  173.5690  142.7840 C   0  0  0  0  0  3  0  0  0  0  0  0
  192.1700  173.8460  140.7490 C   0  0  0  0  0  3  0  0  0  0  0  0
  193.0050  174.7440  141.4140 C   0  0  0  0  0  3  0  0  0  0  0  0
  192.7840  175.0360  142.7240 N   0  0  0  0  0  0  0  0  0  0  0  0
  191.1070  173.2470  141.4350 C   0  0  0  0  0  0  0  0  0  0  0  0
  191.7560  174.4800  143.4250 C   0  0  0  0  0  0  0  0  0  0  0  0
  190.2310  176.8040  144.4080 O   0  0  0  0  0  1  0  0  0  0  0  0
  190.7160  175.8950  145.2890 N   0  0  0  0  0  0  0  0  0  0  0  0
  191.5830  174.8300  144.8530 C   0  0  0  0  0  0  0  0  0  0  0  0
  192.2190  174.1630  145.7140 O   0  0  0  0  0  0  0  0  0  0  0  0
  189.4250  175.0560  147.1850 C   0  0  0  0  0  1  0  0  0  0  0  0
  189.9420  177.4770  146.9800 C   0  0  0  0  0  1  0  0  0  0  0  0
  190.4470  176.0730  146.7120 C   0  0  0  0  0  3  0  0  0  0  0  0
  187.7520  174.4110  141.0870 C   0  0  0  0  0  2  0  0  0  0  0  0
  188.0500  175.7330  141.7730 C   0  0  0  0  0  2  0  0  0  0  0  0
  186.8460  176.6560  141.6880 C   0  0  2  0  0  3  0  0  0  0  0  0
  187.2730  177.9630  141.4440 O   0  0  0  0  0  1  0  0  0  0  0  0
  186.3520  177.1220  146.6540 C   0  0  0  0  0  3  0  0  0  0  0  0
  186.0050  176.5950  142.9650 C   0  0  1  0  0  3  0  0  0  0  0  0
  186.8660  176.5350  144.2350 C   0  0  0  0  0  2  0  0  0  0  0  0
  184.2020  178.6690  145.7140 C   0  0  0  0  0  3  0  0  0  0  0  0
  184.8490  178.0150  143.0600 S   0  0  0  0  0  0  0  0  0  0  0  0
  184.4510  178.5730  147.0900 C   0  0  0  0  0  3  0  0  0  0  0  0
  186.0870  177.2250  145.2860 C   0  0  0  0  0  0  0  0  0  0  0  0
  185.5260  177.8040  147.5590 C   0  0  0  0  0  3  0  0  0  0  0  0
  185.0410  177.9960  144.8250 C   0  0  0  0  0  0  0  0  0  0  0  0
  1  2  1  0  0  0  0
  2  3  1  0  0  0  0
  2  7  1  1  0  0  0
  3 21  1  0  0  0  0
  4  1  1  0  0  0  0
  4  5  1  0  0  0  0
  5  3  1  0  0  0  0
  7  6  2  0  0  0  0
  7 12  1  0  0  0  0
  8 13  1  0  0  0  0
  9 10  2  0  0  0  0
  9 12  1  0  0  0  0
 10 11  1  0  0  0  0
 11 13  2  0  0  0  0
 12  8  2  0  0  0  0
 13 16  1  0  0  0  0
 14 15  1  0  0  0  0
 15 20  1  0  0  0  0
 16 15  1  0  0  0  0
 16 17  2  0  0  0  0
 20 19  1  0  0  0  0
 20 18  1  0  0  0  0
 21 22  1  0  0  0  0
 23 24  1  1  0  0  0
 23 22  1  0  0  0  0
 25 32  1  0  0  0  0
 26 23  1  6  0  0  0
 26 29  1  0  0  0  0
 26 27  1  0  0  0  0
 27 31  1  0  0  0  0
 28 30  1  0  0  0  0
 29 33  1  0  0  0  0
 30 32  2  0  0  0  0
 31 25  2  0  0  0  0
 33 31  1  0  0  0  0
 33 28  2  0  0  0  0
M  END
>  <MODEL>
6

>  <REMARK>
 VINA RESULT:      -6.7      2.627      5.401
  Name = 
  8 active torsions:
  status: ('A' for Active; 'I' for Inactive)
    1  A    between atoms: N_4  and  C_23
    2  A    between atoms: C_7  and  C_8
    3  A    between atoms: C_8  and  C_11
    4  A    between atoms: C_10  and  C_29
    5  A    between atoms: C_11  and  C_17
    6  A    between atoms: C_17  and  N_24
    7  A    between atoms: C_22  and  C_33
    8  A    between atoms: C_27  and  C_33
                            x       y       z     vdW  Elec       q    Type
                         _______ _______ _______ _____ _____    ______ ____

>  <TORSDO>
F 8

$$$$
=
 OpenBabel11062418573D

 33 36  0  0  1  0  0  0  0  0999 V2000
  190.2280  171.9560  140.3190 C   0  0  0  0  0  2  0  0  0  0  0  0
  190.4210  173.2900  140.9720 C   0  0  2  0  0  3  0  0  0  0  0  0
  189.4250  174.1590  140.3800 N   0  0  0  0  0  0  0  0  0  0  0  0
  189.0540  172.1080  139.4780 N   0  0  0  0  0  2  0  0  0  0  0  0
  188.4260  173.3030  139.8810 N   0  0  0  0  0  2  0  0  0  0  0  0
  192.3240  173.6820  139.6190 O   0  0  0  0  0  0  0  0  0  0  0  0
  191.8110  173.8230  140.7610 C   0  0  0  0  0  0  0  0  0  0  0  0
  192.0660  174.5810  143.1250 C   0  0  0  0  0  3  0  0  0  0  0  0
  193.8430  175.0650  141.5710 C   0  0  0  0  0  3  0  0  0  0  0  0
  194.5440  175.6920  142.6000 C   0  0  0  0  0  3  0  0  0  0  0  0
  194.0080  175.7550  143.8490 N   0  0  0  0  0  0  0  0  0  0  0  0
  192.5890  174.5000  141.8280 C   0  0  0  0  0  0  0  0  0  0  0  0
  192.7870  175.2240  144.1390 C   0  0  0  0  0  0  0  0  0  0  0  0
  190.7860  177.1860  145.0570 O   0  0  0  0  0  1  0  0  0  0  0  0
  191.1940  176.1980  145.8900 N   0  0  0  0  0  0  0  0  0  0  0  0
  192.2700  175.3140  145.5220 C   0  0  0  0  0  0  0  0  0  0  0  0
  192.7940  174.5820  146.4060 O   0  0  0  0  0  0  0  0  0  0  0  0
  189.4340  175.1490  147.2210 C   0  0  0  0  0  1  0  0  0  0  0  0
  190.1540  177.4790  147.6910 C   0  0  0  0  0  1  0  0  0  0  0  0
  190.6070  176.1100  147.2240 C   0  0  0  0  0  3  0  0  0  0  0  0
  188.8300  174.9280  141.4610 C   0  0  0  0  0  2  0  0  0  0  0  0
  187.7680  175.8560  140.8990 C   0  0  0  0  0  2  0  0  0  0  0  0
  187.6480  177.1050  141.7570 C   0  0  2  0  0  3  0  0  0  0  0  0
  188.9140  177.4910  142.2020 O   0  0  0  0  0  1  0  0  0  0  0  0
  186.5930  177.3790  146.6490 C   0  0  0  0  0  3  0  0  0  0  0  0
  186.7080  176.8780  142.9420 C   0  0  1  0  0  3  0  0  0  0  0  0
  187.4360  176.9360  144.2930 C   0  0  0  0  0  2  0  0  0  0  0  0
  184.3180  178.5670  145.5020 C   0  0  0  0  0  3  0  0  0  0  0  0
  185.3260  178.0840  142.9240 S   0  0  0  0  0  0  0  0  0  0  0  0
  184.4410  178.4850  146.8950 C   0  0  0  0  0  3  0  0  0  0  0  0
  186.4520  177.4650  145.2620 C   0  0  0  0  0  0  0  0  0  0  0  0
  185.5780  177.8950  147.4680 C   0  0  0  0  0  3  0  0  0  0  0  0
  185.3420  178.0600  144.7000 C   0  0  0  0  0  0  0  0  0  0  0  0
  1  2  1  0  0  0  0
  2  7  1  6  0  0  0
  3  2  1  0  0  0  0
  3 21  1  0  0  0  0
  4  5  1  0  0  0  0
  4  1  1  0  0  0  0
  5  3  1  0  0  0  0
  6  7  2  0  0  0  0
  7 12  1  0  0  0  0
  8 13  1  0  0  0  0
  9 12  1  0  0  0  0
  9 10  2  0  0  0  0
 10 11  1  0  0  0  0
 11 13  2  0  0  0  0
 12  8  2  0  0  0  0
 13 16  1  0  0  0  0
 14 15  1  0  0  0  0
 15 20  1  0  0  0  0
 16 15  1  0  0  0  0
 16 17  2  0  0  0  0
 18 20  1  0  0  0  0
 20 19  1  0  0  0  0
 22 21  1  0  0  0  0
 22 23  1  0  0  0  0
 23 24  1  1  0  0  0
 25 32  1  0  0  0  0
 26 23  1  6  0  0  0
 26 27  1  0  0  0  0
 27 31  1  0  0  0  0
 28 30  1  0  0  0  0
 29 26  1  0  0  0  0
 29 33  1  0  0  0  0
 30 32  2  0  0  0  0
 31 25  2  0  0  0  0
 33 31  1  0  0  0  0
 33 28  2  0  0  0  0
M  END
>  <MODEL>
7

>  <REMARK>
 VINA RESULT:      -6.6      2.907      5.490
  Name = 
  8 active torsions:
  status: ('A' for Active; 'I' for Inactive)
    1  A    between atoms: N_4  and  C_23
    2  A    between atoms: C_7  and  C_8
    3  A    between atoms: C_8  and  C_11
    4  A    between atoms: C_10  and  C_29
    5  A    between atoms: C_11  and  C_17
    6  A    between atoms: C_17  and  N_24
    7  A    between atoms: C_22  and  C_33
    8  A    between atoms: C_27  and  C_33
                            x       y       z     vdW  Elec       q    Type
                         _______ _______ _______ _____ _____    ______ ____

>  <TORSDO>
F 8

$$$$
=
 OpenBabel11062418573D

 33 36  0  0  1  0  0  0  0  0999 V2000
  194.9660  175.1740  143.5180 C   0  0  0  0  0  2  0  0  0  0  0  0
  193.5040  175.0890  143.8300 C   0  0  2  0  0  3  0  0  0  0  0  0
  193.3010  175.9490  144.9760 N   0  0  0  0  0  0  0  0  0  0  0  0
  195.4940  176.1710  144.4310 N   0  0  0  0  0  2  0  0  0  0  0  0
  194.3820  176.8490  144.9690 N   0  0  0  0  0  2  0  0  0  0  0  0
  193.8720  172.9390  144.7490 O   0  0  0  0  0  0  0  0  0  0  0  0
  193.0720  173.6780  144.1170 C   0  0  0  0  0  0  0  0  0  0  0  0
  191.4390  173.0680  142.3310 C   0  0  0  0  0  3  0  0  0  0  0  0
  190.8240  172.6710  144.6270 C   0  0  0  0  0  3  0  0  0  0  0  0
  189.6010  172.1630  144.1890 C   0  0  0  0  0  3  0  0  0  0  0  0
  189.3200  172.1170  142.8590 N   0  0  0  0  0  0  0  0  0  0  0  0
  191.7590  173.1310  143.6930 C   0  0  0  0  0  0  0  0  0  0  0  0
  190.2000  172.5620  141.9180 C   0  0  0  0  0  0  0  0  0  0  0  0
  188.7630  174.6500  140.4130 O   0  0  0  0  0  1  0  0  0  0  0  0
  189.2580  173.5690  139.7620 N   0  0  0  0  0  0  0  0  0  0  0  0
  189.8370  172.4670  140.4870 C   0  0  0  0  0  0  0  0  0  0  0  0
  190.0500  171.3790  139.8850 O   0  0  0  0  0  0  0  0  0  0  0  0
  190.3900  173.8200  137.6120 C   0  0  0  0  0  1  0  0  0  0  0  0
  187.9890  174.4100  137.8510 C   0  0  0  0  0  1  0  0  0  0  0  0
  189.0900  173.4770  138.3150 C   0  0  0  0  0  3  0  0  0  0  0  0
  192.0970  176.7230  144.7240 C   0  0  0  0  0  2  0  0  0  0  0  0
  191.0410  176.3740  145.7590 C   0  0  0  0  0  2  0  0  0  0  0  0
  189.6990  176.1360  145.0870 C   0  0  2  0  0  3  0  0  0  0  0  0
  189.8640  176.1230  143.7010 O   0  0  0  0  0  1  0  0  0  0  0  0
  185.7300  179.0330  144.0990 C   0  0  0  0  0  3  0  0  0  0  0  0
  188.6760  177.1970  145.4980 C   0  0  1  0  0  3  0  0  0  0  0  0
  187.9530  177.8170  144.2930 C   0  0  0  0  0  2  0  0  0  0  0  0
  184.9890  177.8540  146.5410 C   0  0  0  0  0  3  0  0  0  0  0  0
  187.4500  176.5070  146.6750 S   0  0  0  0  0  0  0  0  0  0  0  0
  184.1080  178.7240  145.8840 C   0  0  0  0  0  3  0  0  0  0  0  0
  186.5970  178.1670  144.7690 C   0  0  0  0  0  0  0  0  0  0  0  0
  184.4760  179.3090  144.6630 C   0  0  0  0  0  3  0  0  0  0  0  0
  186.2280  177.5780  145.9600 C   0  0  0  0  0  0  0  0  0  0  0  0
  1  2  1  0  0  0  0
  1  4  1  0  0  0  0
  2  7  1  1  0  0  0
  2  3  1  0  0  0  0
  4  5  1  0  0  0  0
  5  3  1  0  0  0  0
  7  6  2  0  0  0  0
  8 12  1  0  0  0  0
 10  9  1  0  0  0  0
 11 10  2  0  0  0  0
 12  7  1  0  0  0  0
 12  9  2  0  0  0  0
 13  8  2  0  0  0  0
 13 11  1  0  0  0  0
 15 14  1  0  0  0  0
 15 16  1  0  0  0  0
 16 13  1  0  0  0  0
 17 16  2  0  0  0  0
 18 20  1  0  0  0  0
 19 20  1  0  0  0  0
 20 15  1  0  0  0  0
 21  3  1  0  0  0  0
 21 22  1  0  0  0  0
 23 24  1  6  0  0  0
 23 22  1  0  0  0  0
 25 32  2  0  0  0  0
 25 31  1  0  0  0  0
 26 23  1  6  0  0  0
 26 29  1  0  0  0  0
 27 31  1  0  0  0  0
 27 26  1  0  0  0  0
 30 28  2  0  0  0  0
 31 33  2  0  0  0  0
 32 30  1  0  0  0  0
 33 28  1  0  0  0  0
 33 29  1  0  0  0  0
M  END
>  <MODEL>
8

>  <REMARK>
 VINA RESULT:      -6.6      2.809      7.174
  Name = 
  8 active torsions:
  status: ('A' for Active; 'I' for Inactive)
    1  A    between atoms: N_4  and  C_23
    2  A    between atoms: C_7  and  C_8
    3  A    between atoms: C_8  and  C_11
    4  A    between atoms: C_10  and  C_29
    5  A    between atoms: C_11  and  C_17
    6  A    between atoms: C_17  and  N_24
    7  A    between atoms: C_22  and  C_33
    8  A    between atoms: C_27  and  C_33
                            x       y       z     vdW  Elec       q    Type
                         _______ _______ _______ _____ _____    ______ ____

>  <TORSDO>
F 8

$$$$
=
 OpenBabel11062418573D

 33 36  0  0  1  0  0  0  0  0999 V2000
  189.6780  175.4730  145.4290 C   0  0  0  0  0  2  0  0  0  0  0  0
  190.0120  176.1470  144.1340 C   0  0  2  0  0  3  0  0  0  0  0  0
  190.3250  175.0780  143.2100 N   0  0  0  0  0  0  0  0  0  0  0  0
  189.7020  174.0520  145.1380 N   0  0  0  0  0  2  0  0  0  0  0  0
  189.6990  173.9320  143.7340 N   0  0  0  0  0  2  0  0  0  0  0  0
  190.9830  178.2960  143.9190 O   0  0  0  0  0  0  0  0  0  0  0  0
  191.1650  177.1030  144.2790 C   0  0  0  0  0  0  0  0  0  0  0  0
  193.5910  176.6100  143.9660 C   0  0  0  0  0  3  0  0  0  0  0  0
  192.6600  176.4080  146.1790 C   0  0  0  0  0  3  0  0  0  0  0  0
  193.9170  176.0350  146.6510 C   0  0  0  0  0  3  0  0  0  0  0  0
  194.9700  175.9550  145.7940 N   0  0  0  0  0  0  0  0  0  0  0  0
  192.4860  176.7010  144.8220 C   0  0  0  0  0  0  0  0  0  0  0  0
  194.8420  176.2250  144.4640 C   0  0  0  0  0  0  0  0  0  0  0  0
  195.7320  173.7700  143.0960 O   0  0  0  0  0  1  0  0  0  0  0  0
  196.3490  174.9490  142.8350 N   0  0  0  0  0  0  0  0  0  0  0  0
  196.0320  176.1340  143.5900 C   0  0  0  0  0  0  0  0  0  0  0  0
  196.7910  177.1380  143.5050 O   0  0  0  0  0  0  0  0  0  0  0  0
  196.9700  175.6810  140.5890 C   0  0  0  0  0  1  0  0  0  0  0  0
  197.8880  173.5730  141.5300 C   0  0  0  0  0  1  0  0  0  0  0  0
  197.4290  174.9810  141.8540 C   0  0  0  0  0  3  0  0  0  0  0  0
  189.6640  175.3900  141.9530 C   0  0  0  0  0  2  0  0  0  0  0  0
  188.1650  175.1930  142.1040 C   0  0  0  0  0  2  0  0  0  0  0  0
  187.4140  176.3790  141.5230 C   0  0  2  0  0  3  0  0  0  0  0  0
  188.3050  177.4260  141.2830 O   0  0  0  0  0  1  0  0  0  0  0  0
  185.3720  176.7950  146.0820 C   0  0  0  0  0  3  0  0  0  0  0  0
  186.2870  176.8340  142.4530 C   0  0  1  0  0  3  0  0  0  0  0  0
  186.3380  176.1430  143.8240 C   0  0  0  0  0  2  0  0  0  0  0  0
  185.1990  179.4340  145.1300 C   0  0  0  0  0  3  0  0  0  0  0  0
  186.3090  178.6550  142.6700 S   0  0  0  0  0  0  0  0  0  0  0  0
  184.7630  179.1240  146.4250 C   0  0  0  0  0  3  0  0  0  0  0  0
  185.7980  177.1210  144.7920 C   0  0  0  0  0  0  0  0  0  0  0  0
  184.8530  177.8070  146.9020 C   0  0  0  0  0  3  0  0  0  0  0  0
  185.7260  178.4190  144.3300 C   0  0  0  0  0  0  0  0  0  0  0  0
  2  7  1  1  0  0  0
  2  1  1  0  0  0  0
  3  5  1  0  0  0  0
  3  2  1  0  0  0  0
  4  1  1  0  0  0  0
  5  4  1  0  0  0  0
  6  7  2  0  0  0  0
  7 12  1  0  0  0  0
  8 13  2  0  0  0  0
  8 12  1  0  0  0  0
  9 10  1  0  0  0  0
 11 10  2  0  0  0  0
 12  9  2  0  0  0  0
 13 11  1  0  0  0  0
 15 14  1  0  0  0  0
 15 16  1  0  0  0  0
 16 13  1  0  0  0  0
 17 16  2  0  0  0  0
 18 20  1  0  0  0  0
 19 20  1  0  0  0  0
 20 15  1  0  0  0  0
 21 22  1  0  0  0  0
 21  3  1  0  0  0  0
 23 24  1  1  0  0  0
 23 22  1  0  0  0  0
 25 32  1  0  0  0  0
 26 23  1  6  0  0  0
 26 29  1  0  0  0  0
 26 27  1  0  0  0  0
 27 31  1  0  0  0  0
 28 30  1  0  0  0  0
 29 33  1  0  0  0  0
 30 32  2  0  0  0  0
 31 25  2  0  0  0  0
 33 31  1  0  0  0  0
 33 28  2  0  0  0  0
M  END
>  <MODEL>
9

>  <REMARK>
 VINA RESULT:      -6.6      4.103      7.738
  Name = 
  8 active torsions:
  status: ('A' for Active; 'I' for Inactive)
    1  A    between atoms: N_4  and  C_23
    2  A    between atoms: C_7  and  C_8
    3  A    between atoms: C_8  and  C_11
    4  A    between atoms: C_10  and  C_29
    5  A    between atoms: C_11  and  C_17
    6  A    between atoms: C_17  and  N_24
    7  A    between atoms: C_22  and  C_33
    8  A    between atoms: C_27  and  C_33
                            x       y       z     vdW  Elec       q    Type
                         _______ _______ _______ _____ _____    ______ ____

>  <TORSDO>
F 8

$$$$
