=
 OpenBabel11072409043D

 47 51  0  0  1  0  0  0  0  0999 V2000
  192.2770  176.3420  144.3530 C   0  0  0  0  0  2  0  0  0  0  0  0
  193.2800  175.6730  145.2860 C   0  0  0  0  0  0  0  0  0  0  0  0
  192.6840  174.9150  146.4600 C   0  0  0  0  0  2  0  0  0  0  0  0
  193.3290  176.2720  146.6830 C   0  0  0  0  0  2  0  0  0  0  0  0
  195.9800  175.7780  141.6550 C   0  0  0  0  0  0  0  0  0  0  0  0
  194.5820  175.0990  144.6880 C   0  0  1  0  0  3  0  0  0  0  0  0
  195.1610  174.5200  141.5530 C   0  0  1  0  0  3  0  0  0  0  0  0
  194.0210  174.6110  142.3650 O   0  0  0  0  0  0  0  0  0  0  0  0
  193.4710  173.0550  143.9630 O   0  0  0  0  0  1  0  0  0  0  0  0
  194.3960  174.0310  143.5820 C   0  0  2  0  0  3  0  0  0  0  0  0
  196.7320  175.6000  144.2620 C   0  0  0  0  0  2  0  0  0  0  0  0
  195.5840  176.8240  141.1580 O   0  0  0  0  0  0  0  0  0  0  0  0
  197.5060  175.7710  142.6060 S   0  0  0  0  0  0  0  0  0  0  0  0
  195.4380  176.1370  144.2820 O   0  0  0  0  0  0  0  0  0  0  0  0
  194.7880  174.2070  140.1290 C   0  0  0  0  0  0  0  0  0  0  0  0
  193.7130  173.4180  136.1870 F   0  0  0  0  0  0  0  0  0  0  0  0
  193.5070  174.5380  139.6550 C   0  0  0  0  0  3  0  0  0  0  0  0
  195.3510  173.3430  137.9240 C   0  0  0  0  0  0  0  0  0  0  0  0
  196.2280  172.7490  137.0780 F   0  0  0  0  0  0  0  0  0  0  0  0
  193.1490  174.2690  138.3330 C   0  0  0  0  0  3  0  0  0  0  0  0
  194.0680  173.6720  137.4690 C   0  0  0  0  0  0  0  0  0  0  0  0
  195.7170  173.6040  139.2560 C   0  0  0  0  0  0  0  0  0  0  0  0
  197.1900  171.9110  140.0020 O   0  0  0  0  0  1  0  0  0  0  0  0
  197.1040  173.2760  139.7130 C   0  0  0  0  0  2  0  0  0  0  0  0
  189.7180  176.0530  144.3830 C   0  0  2  0  0  3  0  0  0  0  0  0
  191.0830  175.4320  144.0550 C   0  0  1  0  0  3  0  0  0  0  0  0
  190.2140  176.0060  142.9520 C   0  0  1  0  0  3  0  0  0  0  0  0
  189.4860  174.8890  142.2250 C   0  0  0  0  0  2  0  0  0  0  0  0
  191.4350  171.8500  140.9900 N   0  0  0  0  0  1  0  0  0  0  0  0
  190.4620  172.6180  141.6880 C   0  0  0  0  0  0  0  0  0  0  0  0
  189.6350  172.0430  142.4420 O   0  0  0  0  0  0  0  0  0  0  0  0
  190.4350  174.0380  141.5210 N   0  0  0  0  0  2  0  0  0  0  0  0
  189.7450  177.4940  144.8690 C   0  0  0  0  0  2  0  0  0  0  0  0
  189.3760  177.5360  146.3360 C   0  0  0  0  0  2  0  0  0  0  0  0
  188.2900  176.5050  146.6150 C   0  0  0  0  0  2  0  0  0  0  0  0
  186.8910  177.1140  146.5290 C   0  0  2  0  0  3  0  0  0  0  0  0
  186.2500  177.0470  147.7830 O   0  0  0  0  0  0  0  0  0  0  0  0
  184.3460  178.2900  147.2580 O   0  0  0  0  0  1  0  0  0  0  0  0
  186.3830  179.4880  147.7360 C   0  0  0  0  0  1  0  0  0  0  0  0
  185.5340  178.2490  147.9990 C   0  0  2  0  0  3  0  0  0  0  0  0
  186.0360  176.4170  145.4700 C   0  0  0  0  0  2  0  0  0  0  0  0
  186.1450  177.0810  144.1320 C   0  0  0  0  0  0  0  0  0  0  0  0
  186.4590  176.8940  141.7290 C   0  0  0  0  0  3  0  0  0  0  0  0
  186.4660  178.2890  141.6230 C   0  0  0  0  0  3  0  0  0  0  0  0
  186.1610  178.4790  144.0230 C   0  0  0  0  0  3  0  0  0  0  0  0
  186.3150  179.0810  142.7660 C   0  0  0  0  0  3  0  0  0  0  0  0
  186.2990  176.2920  142.9820 C   0  0  0  0  0  3  0  0  0  0  0  0
  1  2  1  0  0  0  0
  2  3  1  0  0  0  0
  2  4  1  0  0  0  0
  3  4  1  0  0  0  0
  5 13  1  0  0  0  0
  6  2  1  6  0  0  0
  7 15  1  6  0  0  0
  7  5  1  0  0  0  0
  7  8  1  0  0  0  0
  8 10  1  0  0  0  0
 10  9  1  1  0  0  0
 10  6  1  0  0  0  0
 11 14  1  0  0  0  0
 12  5  2  0  0  0  0
 13 11  1  0  0  0  0
 14  6  1  0  0  0  0
 16 21  1  0  0  0  0
 17 15  1  0  0  0  0
 18 22  1  0  0  0  0
 19 18  1  0  0  0  0
 20 17  2  0  0  0  0
 21 18  2  0  0  0  0
 21 20  1  0  0  0  0
 22 24  1  0  0  0  0
 22 15  2  0  0  0  0
 24 23  1  0  0  0  0
 25 33  1  1  0  0  0
 26  1  1  1  0  0  0
 26 25  1  0  0  0  0
 27 28  1  6  0  0  0
 27 26  1  0  0  0  0
 27 25  1  0  0  0  0
 29 30  1  0  0  0  0
 30 31  2  0  0  0  0
 32 30  1  0  0  0  0
 32 28  1  0  0  0  0
 33 34  1  0  0  0  0
 34 35  1  0  0  0  0
 36 41  1  6  0  0  0
 36 35  1  0  0  0  0
 36 37  1  0  0  0  0
 37 40  1  0  0  0  0
 38 40  1  0  0  0  0
 40 39  1  6  0  0  0
 42 41  1  0  0  0  0
 43 47  1  0  0  0  0
 44 43  2  0  0  0  0
 44 46  1  0  0  0  0
 45 42  1  0  0  0  0
 46 45  2  0  0  0  0
 47 42  2  0  0  0  0
M  END
>  <MODEL>
1

>  <REMARK>
 VINA RESULT:      -6.7      0.000      0.000
  Name = 
  15 active torsions:
  status: ('A' for Active; 'I' for Inactive)
    1  A    between atoms: C_2  and  C_22
    2  A    between atoms: C_3  and  N_20
    3  A    between atoms: C_3  and  C_45
    4  A    between atoms: C_4  and  C_9
    5  A    between atoms: C_6  and  C_19
    6  A    between atoms: C_6  and  C_25
    7  A    between atoms: C_9  and  C_12
    8  A    between atoms: C_10  and  C_44
    9  A    between atoms: C_12  and  C_38
   10  A    between atoms: C_19  and  C_32
   11  A    between atoms: C_21  and  O_36
   12  A    between atoms: C_25  and  O_36
   13  A    between atoms: C_25  and  C_44
   14  A    between atoms: C_32  and  C_35
   15  A    between atoms: C_46  and  C_47
                            x       y       z     vdW  Elec       q    Type
                         _______ _______ _______ _____ _____    ______ ____

>  <TORSDO>
F 15

$$$$
=
 OpenBabel11072409043D

 47 51  0  0  1  0  0  0  0  0999 V2000
  192.8460  176.3720  143.9040 C   0  0  0  0  0  2  0  0  0  0  0  0
  194.1290  176.0170  144.6470 C   0  0  0  0  0  0  0  0  0  0  0  0
  193.9440  175.4460  146.0440 C   0  0  0  0  0  2  0  0  0  0  0  0
  194.4030  176.8830  145.8670 C   0  0  0  0  0  2  0  0  0  0  0  0
  195.5700  175.0330  140.4710 C   0  0  0  0  0  0  0  0  0  0  0  0
  195.3310  175.4830  143.8410 C   0  0  1  0  0  3  0  0  0  0  0  0
  195.1910  173.7290  141.1200 C   0  0  1  0  0  3  0  0  0  0  0  0
  194.3450  173.9550  142.2160 O   0  0  0  0  0  0  0  0  0  0  0  0
  194.7650  173.1650  144.3310 O   0  0  0  0  0  1  0  0  0  0  0  0
  195.1980  174.0300  143.3230 C   0  0  2  0  0  3  0  0  0  0  0  0
  197.0160  176.1260  142.4970 C   0  0  0  0  0  2  0  0  0  0  0  0
  194.7470  175.6760  139.8330 O   0  0  0  0  0  0  0  0  0  0  0  0
  197.2180  175.7050  140.7220 S   0  0  0  0  0  0  0  0  0  0  0  0
  195.6750  176.3810  142.8150 O   0  0  0  0  0  0  0  0  0  0  0  0
  194.5630  172.7750  140.1400 C   0  0  0  0  0  0  0  0  0  0  0  0
  192.7710  170.2000  137.4060 F   0  0  0  0  0  0  0  0  0  0  0  0
  193.1670  172.7440  139.9930 C   0  0  0  0  0  3  0  0  0  0  0  0
  194.7540  171.0600  138.4240 C   0  0  0  0  0  0  0  0  0  0  0  0
  195.5090  170.2250  137.6680 F   0  0  0  0  0  0  0  0  0  0  0  0
  192.5680  171.8770  139.0780 C   0  0  0  0  0  3  0  0  0  0  0  0
  193.3600  171.0350  138.2950 C   0  0  0  0  0  0  0  0  0  0  0  0
  195.3630  171.9250  139.3480 C   0  0  0  0  0  0  0  0  0  0  0  0
  197.3760  172.7150  138.3890 O   0  0  0  0  0  1  0  0  0  0  0  0
  196.8560  171.9600  139.4450 C   0  0  0  0  0  2  0  0  0  0  0  0
  190.3280  175.8370  143.8330 C   0  0  2  0  0  3  0  0  0  0  0  0
  191.7450  175.3360  144.1410 C   0  0  1  0  0  3  0  0  0  0  0  0
  191.0590  174.9520  142.8440 C   0  0  1  0  0  3  0  0  0  0  0  0
  190.4960  173.5470  142.9450 C   0  0  0  0  0  2  0  0  0  0  0  0
  188.4460  172.8230  139.8090 N   0  0  0  0  0  1  0  0  0  0  0  0
  188.7930  173.3470  141.0850 C   0  0  0  0  0  0  0  0  0  0  0  0
  187.9650  174.0510  141.7180 O   0  0  0  0  0  0  0  0  0  0  0  0
  190.0850  173.0680  141.6330 N   0  0  0  0  0  2  0  0  0  0  0  0
  190.2320  177.2440  143.2620 C   0  0  0  0  0  2  0  0  0  0  0  0
  188.8010  177.7290  143.3590 C   0  0  0  0  0  2  0  0  0  0  0  0
  187.9470  176.6550  144.0180 C   0  0  0  0  0  2  0  0  0  0  0  0
  186.8850  177.2570  144.9380 C   0  0  2  0  0  3  0  0  0  0  0  0
  186.1710  178.2690  144.2650 O   0  0  0  0  0  0  0  0  0  0  0  0
  184.1250  178.1210  143.1520 O   0  0  0  0  0  1  0  0  0  0  0  0
  184.1170  178.8870  145.4390 C   0  0  0  0  0  1  0  0  0  0  0  0
  184.7850  178.0120  144.3830 C   0  0  2  0  0  3  0  0  0  0  0  0
  187.5010  177.8180  146.2200 C   0  0  0  0  0  2  0  0  0  0  0  0
  188.5670  176.9240  146.7720 C   0  0  0  0  0  0  0  0  0  0  0  0
  190.8590  176.6270  147.5240 C   0  0  0  0  0  3  0  0  0  0  0  0
  190.6240  175.2590  147.6990 C   0  0  0  0  0  3  0  0  0  0  0  0
  188.3370  175.5510  146.9400 C   0  0  0  0  0  3  0  0  0  0  0  0
  189.3650  174.7210  147.4100 C   0  0  0  0  0  3  0  0  0  0  0  0
  189.8320  177.4570  147.0610 C   0  0  0  0  0  3  0  0  0  0  0  0
  1  2  1  0  0  0  0
  2  4  1  0  0  0  0
  2  3  1  0  0  0  0
  4  3  1  0  0  0  0
  5 13  1  0  0  0  0
  5  7  1  0  0  0  0
  6  2  1  6  0  0  0
  7 15  1  6  0  0  0
  7  8  1  0  0  0  0
  8 10  1  0  0  0  0
 10  6  1  0  0  0  0
 10  9  1  1  0  0  0
 11 14  1  0  0  0  0
 12  5  2  0  0  0  0
 13 11  1  0  0  0  0
 14  6  1  0  0  0  0
 16 21  1  0  0  0  0
 17 15  1  0  0  0  0
 18 22  1  0  0  0  0
 19 18  1  0  0  0  0
 20 17  2  0  0  0  0
 21 18  2  0  0  0  0
 21 20  1  0  0  0  0
 22 24  1  0  0  0  0
 22 15  2  0  0  0  0
 23 24  1  0  0  0  0
 25 33  1  6  0  0  0
 25 26  1  0  0  0  0
 26  1  1  6  0  0  0
 27 28  1  1  0  0  0
 27 25  1  0  0  0  0
 27 26  1  0  0  0  0
 29 30  1  0  0  0  0
 30 32  1  0  0  0  0
 30 31  2  0  0  0  0
 32 28  1  0  0  0  0
 33 34  1  0  0  0  0
 34 35  1  0  0  0  0
 36 35  1  6  0  0  0
 36 41  1  0  0  0  0
 37 40  1  0  0  0  0
 37 36  1  0  0  0  0
 38 40  1  0  0  0  0
 40 39  1  1  0  0  0
 41 42  1  0  0  0  0
 42 45  2  0  0  0  0
 42 47  1  0  0  0  0
 43 44  1  0  0  0  0
 45 46  1  0  0  0  0
 46 44  2  0  0  0  0
 47 43  2  0  0  0  0
M  END
>  <MODEL>
2

>  <REMARK>
 VINA RESULT:      -6.6      1.895      3.002
  Name = 
  15 active torsions:
  status: ('A' for Active; 'I' for Inactive)
    1  A    between atoms: C_2  and  C_22
    2  A    between atoms: C_3  and  N_20
    3  A    between atoms: C_3  and  C_45
    4  A    between atoms: C_4  and  C_9
    5  A    between atoms: C_6  and  C_19
    6  A    between atoms: C_6  and  C_25
    7  A    between atoms: C_9  and  C_12
    8  A    between atoms: C_10  and  C_44
    9  A    between atoms: C_12  and  C_38
   10  A    between atoms: C_19  and  C_32
   11  A    between atoms: C_21  and  O_36
   12  A    between atoms: C_25  and  O_36
   13  A    between atoms: C_25  and  C_44
   14  A    between atoms: C_32  and  C_35
   15  A    between atoms: C_46  and  C_47
                            x       y       z     vdW  Elec       q    Type
                         _______ _______ _______ _____ _____    ______ ____

>  <TORSDO>
F 15

$$$$
=
 OpenBabel11072409043D

 47 51  0  0  1  0  0  0  0  0999 V2000
  190.3350  171.8430  142.3000 C   0  0  0  0  0  2  0  0  0  0  0  0
  190.3470  172.9560  143.3420 C   0  0  0  0  0  0  0  0  0  0  0  0
  191.1730  172.6820  144.5880 C   0  0  0  0  0  2  0  0  0  0  0  0
  189.6590  172.5940  144.6490 C   0  0  0  0  0  2  0  0  0  0  0  0
  189.5700  177.2050  144.6950 C   0  0  0  0  0  0  0  0  0  0  0  0
  190.2900  174.4210  142.8630 C   0  0  1  0  0  3  0  0  0  0  0  0
  188.3240  176.7350  143.9950 C   0  0  1  0  0  3  0  0  0  0  0  0
  188.2960  175.3340  143.9320 O   0  0  0  0  0  0  0  0  0  0  0  0
  188.0370  174.1550  141.9780 O   0  0  0  0  0  1  0  0  0  0  0  0
  188.8710  175.0160  142.6950 C   0  0  2  0  0  3  0  0  0  0  0  0
  191.4250  176.3620  142.8940 C   0  0  0  0  0  2  0  0  0  0  0  0
  189.7090  177.0450  145.9000 O   0  0  0  0  0  0  0  0  0  0  0  0
  190.9150  177.9130  143.7340 S   0  0  0  0  0  0  0  0  0  0  0  0
  191.1120  175.2340  143.6640 O   0  0  0  0  0  0  0  0  0  0  0  0
  187.0780  177.2710  144.6470 C   0  0  0  0  0  0  0  0  0  0  0  0
  183.6740  178.7540  146.5270 F   0  0  0  0  0  0  0  0  0  0  0  0
  186.6730  176.7720  145.8960 C   0  0  0  0  0  3  0  0  0  0  0  0
  185.1750  178.7880  144.6680 C   0  0  0  0  0  0  0  0  0  0  0  0
  184.4280  179.7540  144.0780 F   0  0  0  0  0  0  0  0  0  0  0  0
  185.5300  177.2690  146.5230 C   0  0  0  0  0  3  0  0  0  0  0  0
  184.7800  178.2740  145.9100 C   0  0  0  0  0  0  0  0  0  0  0  0
  186.3210  178.2880  144.0280 C   0  0  0  0  0  0  0  0  0  0  0  0
  186.1310  178.1770  141.6730 O   0  0  0  0  0  1  0  0  0  0  0  0
  186.7440  178.8750  142.7180 C   0  0  0  0  0  2  0  0  0  0  0  0
  192.3270  171.9560  140.6720 C   0  0  2  0  0  3  0  0  0  0  0  0
  190.8630  172.3240  140.9470 C   0  0  1  0  0  3  0  0  0  0  0  0
  191.2060  171.1560  140.0410 C   0  0  1  0  0  3  0  0  0  0  0  0
  191.0780  171.5670  138.5860 C   0  0  0  0  0  2  0  0  0  0  0  0
  188.4720  174.1590  137.5600 N   0  0  0  0  0  1  0  0  0  0  0  0
  189.7380  173.5320  137.7230 C   0  0  0  0  0  0  0  0  0  0  0  0
  190.7770  174.1040  137.3050 O   0  0  0  0  0  0  0  0  0  0  0  0
  189.8140  172.2540  138.3600 N   0  0  0  0  0  2  0  0  0  0  0  0
  193.0070  171.1040  141.7330 C   0  0  0  0  0  2  0  0  0  0  0  0
  194.1240  171.9000  142.3750 C   0  0  0  0  0  2  0  0  0  0  0  0
  194.5660  173.0060  141.4280 C   0  0  0  0  0  2  0  0  0  0  0  0
  195.1620  174.1960  142.1800 C   0  0  2  0  0  3  0  0  0  0  0  0
  196.3490  174.6260  141.5530 O   0  0  0  0  0  0  0  0  0  0  0  0
  194.8530  176.3410  141.0380 O   0  0  0  0  0  1  0  0  0  0  0  0
  196.0280  175.2820  139.2190 C   0  0  0  0  0  1  0  0  0  0  0  0
  196.0480  175.7030  140.6850 C   0  0  2  0  0  3  0  0  0  0  0  0
  195.4400  173.8570  143.6450 C   0  0  0  0  0  2  0  0  0  0  0  0
  194.7490  174.7990  144.5820 C   0  0  0  0  0  0  0  0  0  0  0  0
  194.4350  177.0620  145.4100 C   0  0  0  0  0  3  0  0  0  0  0  0
  193.5620  176.5800  146.3920 C   0  0  0  0  0  3  0  0  0  0  0  0
  193.8810  174.3180  145.5730 C   0  0  0  0  0  3  0  0  0  0  0  0
  193.2840  175.2110  146.4730 C   0  0  0  0  0  3  0  0  0  0  0  0
  195.0260  176.1720  144.5070 C   0  0  0  0  0  3  0  0  0  0  0  0
  1  2  1  0  0  0  0
  2  3  1  0  0  0  0
  2  4  1  0  0  0  0
  3  4  1  0  0  0  0
  5 12  2  0  0  0  0
  6  2  1  1  0  0  0
  6 14  1  0  0  0  0
  7 15  1  1  0  0  0
  7  5  1  0  0  0  0
  8  7  1  0  0  0  0
 10  9  1  1  0  0  0
 10  6  1  0  0  0  0
 10  8  1  0  0  0  0
 11 14  1  0  0  0  0
 11 13  1  0  0  0  0
 13  5  1  0  0  0  0
 15 17  1  0  0  0  0
 17 20  2  0  0  0  0
 18 21  2  0  0  0  0
 19 18  1  0  0  0  0
 21 20  1  0  0  0  0
 21 16  1  0  0  0  0
 22 15  2  0  0  0  0
 22 18  1  0  0  0  0
 23 24  1  0  0  0  0
 24 22  1  0  0  0  0
 25 26  1  0  0  0  0
 25 33  1  1  0  0  0
 26  1  1  1  0  0  0
 27 28  1  6  0  0  0
 27 25  1  0  0  0  0
 27 26  1  0  0  0  0
 29 30  1  0  0  0  0
 30 32  1  0  0  0  0
 31 30  2  0  0  0  0
 32 28  1  0  0  0  0
 33 34  1  0  0  0  0
 35 34  1  0  0  0  0
 36 35  1  6  0  0  0
 36 41  1  0  0  0  0
 37 36  1  0  0  0  0
 40 39  1  6  0  0  0
 40 38  1  0  0  0  0
 40 37  1  0  0  0  0
 41 42  1  0  0  0  0
 42 45  1  0  0  0  0
 43 44  2  0  0  0  0
 44 46  1  0  0  0  0
 45 46  2  0  0  0  0
 47 42  2  0  0  0  0
 47 43  1  0  0  0  0
M  END
>  <MODEL>
3

>  <REMARK>
 VINA RESULT:      -6.5      3.932      8.994
  Name = 
  15 active torsions:
  status: ('A' for Active; 'I' for Inactive)
    1  A    between atoms: C_2  and  C_22
    2  A    between atoms: C_3  and  N_20
    3  A    between atoms: C_3  and  C_45
    4  A    between atoms: C_4  and  C_9
    5  A    between atoms: C_6  and  C_19
    6  A    between atoms: C_6  and  C_25
    7  A    between atoms: C_9  and  C_12
    8  A    between atoms: C_10  and  C_44
    9  A    between atoms: C_12  and  C_38
   10  A    between atoms: C_19  and  C_32
   11  A    between atoms: C_21  and  O_36
   12  A    between atoms: C_25  and  O_36
   13  A    between atoms: C_25  and  C_44
   14  A    between atoms: C_32  and  C_35
   15  A    between atoms: C_46  and  C_47
                            x       y       z     vdW  Elec       q    Type
                         _______ _______ _______ _____ _____    ______ ____

>  <TORSDO>
F 15

$$$$
=
 OpenBabel11072409043D

 47 51  0  0  1  0  0  0  0  0999 V2000
  191.0250  172.1910  142.4600 C   0  0  0  0  0  2  0  0  0  0  0  0
  190.6900  173.2900  143.4630 C   0  0  0  0  0  0  0  0  0  0  0  0
  191.3170  173.1390  144.8390 C   0  0  0  0  0  2  0  0  0  0  0  0
  189.8450  172.8260  144.6390 C   0  0  0  0  0  2  0  0  0  0  0  0
  189.5440  177.4870  144.7140 C   0  0  0  0  0  0  0  0  0  0  0  0
  190.5020  174.7320  142.9480 C   0  0  1  0  0  3  0  0  0  0  0  0
  188.3420  176.8900  144.0330 C   0  0  1  0  0  3  0  0  0  0  0  0
  188.4380  175.4910  144.0050 O   0  0  0  0  0  0  0  0  0  0  0  0
  188.2770  174.2450  142.0830 O   0  0  0  0  0  1  0  0  0  0  0  0
  189.0340  175.1940  142.7730 C   0  0  2  0  0  3  0  0  0  0  0  0
  191.4600  176.7660  142.9230 C   0  0  0  0  0  2  0  0  0  0  0  0
  189.7010  177.3710  145.9220 O   0  0  0  0  0  0  0  0  0  0  0  0
  190.8180  178.2860  143.7270 S   0  0  0  0  0  0  0  0  0  0  0  0
  191.2510  175.6350  143.7230 O   0  0  0  0  0  0  0  0  0  0  0  0
  187.0550  177.3300  144.6790 C   0  0  0  0  0  0  0  0  0  0  0  0
  183.5390  178.5480  146.5420 F   0  0  0  0  0  0  0  0  0  0  0  0
  186.6660  176.7740  145.9080 C   0  0  0  0  0  3  0  0  0  0  0  0
  185.0610  178.7250  144.7090 C   0  0  0  0  0  0  0  0  0  0  0  0
  184.2630  179.6570  144.1320 F   0  0  0  0  0  0  0  0  0  0  0  0
  185.4840  177.1820  146.5300 C   0  0  0  0  0  3  0  0  0  0  0  0
  184.6820  178.1550  145.9310 C   0  0  0  0  0  0  0  0  0  0  0  0
  186.2450  178.3140  144.0740 C   0  0  0  0  0  0  0  0  0  0  0  0
  185.9050  178.4140  141.7360 O   0  0  0  0  0  1  0  0  0  0  0  0
  186.6490  178.9610  142.7860 C   0  0  0  0  0  2  0  0  0  0  0  0
  192.7990  172.8230  140.7040 C   0  0  2  0  0  3  0  0  0  0  0  0
  191.3100  172.7580  141.0680 C   0  0  1  0  0  3  0  0  0  0  0  0
  191.9260  171.7100  140.1600 C   0  0  1  0  0  3  0  0  0  0  0  0
  191.6000  172.0160  138.7100 C   0  0  0  0  0  2  0  0  0  0  0  0
  188.6070  174.1560  137.6970 N   0  0  0  0  0  1  0  0  0  0  0  0
  189.4990  173.0500  137.7510 C   0  0  0  0  0  0  0  0  0  0  0  0
  189.2840  172.0380  137.0350 O   0  0  0  0  0  0  0  0  0  0  0  0
  190.6310  173.1000  138.6250 N   0  0  0  0  0  2  0  0  0  0  0  0
  193.7580  172.2430  141.7320 C   0  0  0  0  0  2  0  0  0  0  0  0
  195.1570  172.7540  141.4590 C   0  0  0  0  0  2  0  0  0  0  0  0
  195.7680  173.2740  142.7530 C   0  0  0  0  0  2  0  0  0  0  0  0
  194.7190  173.9120  143.6620 C   0  0  2  0  0  3  0  0  0  0  0  0
  194.5810  175.2830  143.3640 O   0  0  0  0  0  0  0  0  0  0  0  0
  194.7090  176.9730  144.9690 O   0  0  0  0  0  1  0  0  0  0  0  0
  196.5820  176.6840  143.4780 C   0  0  0  0  0  1  0  0  0  0  0  0
  195.4250  176.0280  144.2230 C   0  0  2  0  0  3  0  0  0  0  0  0
  195.0670  173.7320  145.1400 C   0  0  0  0  0  2  0  0  0  0  0  0
  195.3970  172.3100  145.4730 C   0  0  0  0  0  0  0  0  0  0  0  0
  194.6500  170.0330  145.8730 C   0  0  0  0  0  3  0  0  0  0  0  0
  195.9580  169.6620  146.2010 C   0  0  0  0  0  3  0  0  0  0  0  0
  196.7060  171.9370  145.8120 C   0  0  0  0  0  3  0  0  0  0  0  0
  196.9860  170.6110  146.1690 C   0  0  0  0  0  3  0  0  0  0  0  0
  194.3710  171.3550  145.5090 C   0  0  0  0  0  3  0  0  0  0  0  0
  1  2  1  0  0  0  0
  2  4  1  0  0  0  0
  2  3  1  0  0  0  0
  4  3  1  0  0  0  0
  5 12  2  0  0  0  0
  6  2  1  1  0  0  0
  6 14  1  0  0  0  0
  7 15  1  1  0  0  0
  7  5  1  0  0  0  0
  8  7  1  0  0  0  0
 10  9  1  1  0  0  0
 10  6  1  0  0  0  0
 10  8  1  0  0  0  0
 11 14  1  0  0  0  0
 11 13  1  0  0  0  0
 13  5  1  0  0  0  0
 15 17  1  0  0  0  0
 17 20  2  0  0  0  0
 18 21  2  0  0  0  0
 19 18  1  0  0  0  0
 21 20  1  0  0  0  0
 21 16  1  0  0  0  0
 22 15  2  0  0  0  0
 22 18  1  0  0  0  0
 23 24  1  0  0  0  0
 24 22  1  0  0  0  0
 25 26  1  0  0  0  0
 25 33  1  1  0  0  0
 26  1  1  1  0  0  0
 27 28  1  6  0  0  0
 27 25  1  0  0  0  0
 27 26  1  0  0  0  0
 29 30  1  0  0  0  0
 30 32  1  0  0  0  0
 31 30  2  0  0  0  0
 32 28  1  0  0  0  0
 34 33  1  0  0  0  0
 34 35  1  0  0  0  0
 36 35  1  6  0  0  0
 36 41  1  0  0  0  0
 37 36  1  0  0  0  0
 37 40  1  0  0  0  0
 40 39  1  6  0  0  0
 40 38  1  0  0  0  0
 41 42  1  0  0  0  0
 42 47  2  0  0  0  0
 42 45  1  0  0  0  0
 43 44  2  0  0  0  0
 45 46  2  0  0  0  0
 46 44  1  0  0  0  0
 47 43  1  0  0  0  0
M  END
>  <MODEL>
4

>  <REMARK>
 VINA RESULT:      -6.5      4.174      9.193
  Name = 
  15 active torsions:
  status: ('A' for Active; 'I' for Inactive)
    1  A    between atoms: C_2  and  C_22
    2  A    between atoms: C_3  and  N_20
    3  A    between atoms: C_3  and  C_45
    4  A    between atoms: C_4  and  C_9
    5  A    between atoms: C_6  and  C_19
    6  A    between atoms: C_6  and  C_25
    7  A    between atoms: C_9  and  C_12
    8  A    between atoms: C_10  and  C_44
    9  A    between atoms: C_12  and  C_38
   10  A    between atoms: C_19  and  C_32
   11  A    between atoms: C_21  and  O_36
   12  A    between atoms: C_25  and  O_36
   13  A    between atoms: C_25  and  C_44
   14  A    between atoms: C_32  and  C_35
   15  A    between atoms: C_46  and  C_47
                            x       y       z     vdW  Elec       q    Type
                         _______ _______ _______ _____ _____    ______ ____

>  <TORSDO>
F 15

$$$$
=
 OpenBabel11072409043D

 47 51  0  0  1  0  0  0  0  0999 V2000
  194.0900  173.0890  145.5320 C   0  0  0  0  0  2  0  0  0  0  0  0
  195.3210  172.3340  145.0420 C   0  0  0  0  0  0  0  0  0  0  0  0
  195.9440  171.3720  146.0390 C   0  0  0  0  0  2  0  0  0  0  0  0
  196.6090  172.7080  145.7600 C   0  0  0  0  0  2  0  0  0  0  0  0
  193.8400  173.3810  140.8950 C   0  0  0  0  0  0  0  0  0  0  0  0
  195.4010  171.9300  143.5550 C   0  0  1  0  0  3  0  0  0  0  0  0
  193.0310  172.2020  141.3630 C   0  0  1  0  0  3  0  0  0  0  0  0
  193.1000  172.0830  142.7580 O   0  0  0  0  0  0  0  0  0  0  0  0
  193.7480  170.1620  143.8390 O   0  0  0  0  0  1  0  0  0  0  0  0
  194.1580  171.1960  142.9940 C   0  0  2  0  0  3  0  0  0  0  0  0
  196.3210  172.5090  141.5860 C   0  0  0  0  0  2  0  0  0  0  0  0
  193.4640  174.5250  141.1140 O   0  0  0  0  0  0  0  0  0  0  0  0
  195.4290  173.1080  140.0980 S   0  0  0  0  0  0  0  0  0  0  0  0
  195.7670  173.0320  142.7620 O   0  0  0  0  0  0  0  0  0  0  0  0
  191.6020  172.2820  140.8980 C   0  0  0  0  0  0  0  0  0  0  0  0
  187.6460  172.5880  139.6410 F   0  0  0  0  0  0  0  0  0  0  0  0
  190.6470  172.9450  141.6870 C   0  0  0  0  0  3  0  0  0  0  0  0
  189.8760  171.8290  139.2420 C   0  0  0  0  0  0  0  0  0  0  0  0
  189.4820  171.2780  138.0680 F   0  0  0  0  0  0  0  0  0  0  0  0
  189.3200  173.0440  141.2650 C   0  0  0  0  0  3  0  0  0  0  0  0
  188.9350  172.4850  140.0450 C   0  0  0  0  0  0  0  0  0  0  0  0
  191.2110  171.7190  139.6640 C   0  0  0  0  0  0  0  0  0  0  0  0
  192.6420  171.9400  137.7940 O   0  0  0  0  0  1  0  0  0  0  0  0
  192.2090  171.0440  138.7760 C   0  0  0  0  0  2  0  0  0  0  0  0
  193.0410  175.4390  145.6270 C   0  0  2  0  0  3  0  0  0  0  0  0
  193.9770  174.4720  144.8880 C   0  0  1  0  0  3  0  0  0  0  0  0
  194.5430  175.5500  145.7940 C   0  0  1  0  0  3  0  0  0  0  0  0
  195.0350  176.7230  144.9670 C   0  0  0  0  0  2  0  0  0  0  0  0
  196.4210  176.2310  141.4460 N   0  0  0  0  0  1  0  0  0  0  0  0
  196.3600  176.6110  142.8150 C   0  0  0  0  0  0  0  0  0  0  0  0
  197.3460  177.1820  143.3490 O   0  0  0  0  0  0  0  0  0  0  0  0
  195.1770  176.3370  143.5700 N   0  0  0  0  0  2  0  0  0  0  0  0
  192.4360  174.9160  146.9210 C   0  0  0  0  0  2  0  0  0  0  0  0
  191.1020  175.5900  147.1600 C   0  0  0  0  0  2  0  0  0  0  0  0
  190.1190  175.1640  146.0770 C   0  0  0  0  0  2  0  0  0  0  0  0
  189.2760  176.3370  145.5800 C   0  0  2  0  0  3  0  0  0  0  0  0
  190.0220  177.1340  144.6880 O   0  0  0  0  0  0  0  0  0  0  0  0
  191.0430  176.3440  142.7430 O   0  0  0  0  0  1  0  0  0  0  0  0
  189.0050  177.6110  142.5160 C   0  0  0  0  0  1  0  0  0  0  0  0
  189.8300  176.6540  143.3700 C   0  0  2  0  0  3  0  0  0  0  0  0
  188.7620  177.1940  146.7370 C   0  0  0  0  0  2  0  0  0  0  0  0
  187.2900  177.4530  146.6360 C   0  0  0  0  0  0  0  0  0  0  0  0
  185.2130  177.2350  145.3940 C   0  0  0  0  0  3  0  0  0  0  0  0
  184.5570  178.0130  146.3540 C   0  0  0  0  0  3  0  0  0  0  0  0
  186.6320  178.2400  147.5920 C   0  0  0  0  0  3  0  0  0  0  0  0
  185.2640  178.5130  147.4530 C   0  0  0  0  0  3  0  0  0  0  0  0
  186.5770  176.9560  145.5360 C   0  0  0  0  0  3  0  0  0  0  0  0
  2  1  1  0  0  0  0
  2  4  1  0  0  0  0
  2  3  1  0  0  0  0
  4  3  1  0  0  0  0
  5 12  2  0  0  0  0
  5  7  1  0  0  0  0
  6  2  1  1  0  0  0
  7 15  1  1  0  0  0
  7  8  1  0  0  0  0
  8 10  1  0  0  0  0
 10  6  1  0  0  0  0
 10  9  1  1  0  0  0
 11 14  1  0  0  0  0
 13  5  1  0  0  0  0
 13 11  1  0  0  0  0
 14  6  1  0  0  0  0
 15 17  1  0  0  0  0
 16 21  1  0  0  0  0
 18 22  1  0  0  0  0
 18 21  2  0  0  0  0
 19 18  1  0  0  0  0
 20 17  2  0  0  0  0
 21 20  1  0  0  0  0
 22 15  2  0  0  0  0
 23 24  1  0  0  0  0
 24 22  1  0  0  0  0
 25 27  1  0  0  0  0
 25 33  1  1  0  0  0
 26  1  1  1  0  0  0
 26 25  1  0  0  0  0
 26 27  1  0  0  0  0
 27 28  1  6  0  0  0
 29 30  1  0  0  0  0
 30 31  2  0  0  0  0
 30 32  1  0  0  0  0
 32 28  1  0  0  0  0
 33 34  1  0  0  0  0
 35 34  1  0  0  0  0
 36 35  1  1  0  0  0
 36 41  1  0  0  0  0
 37 36  1  0  0  0  0
 38 40  1  0  0  0  0
 40 39  1  6  0  0  0
 40 37  1  0  0  0  0
 42 41  1  0  0  0  0
 42 45  1  0  0  0  0
 43 47  1  0  0  0  0
 43 44  2  0  0  0  0
 44 46  1  0  0  0  0
 46 45  2  0  0  0  0
 47 42  2  0  0  0  0
M  END
>  <MODEL>
5

>  <REMARK>
 VINA RESULT:      -6.4      2.878      4.863
  Name = 
  15 active torsions:
  status: ('A' for Active; 'I' for Inactive)
    1  A    between atoms: C_2  and  C_22
    2  A    between atoms: C_3  and  N_20
    3  A    between atoms: C_3  and  C_45
    4  A    between atoms: C_4  and  C_9
    5  A    between atoms: C_6  and  C_19
    6  A    between atoms: C_6  and  C_25
    7  A    between atoms: C_9  and  C_12
    8  A    between atoms: C_10  and  C_44
    9  A    between atoms: C_12  and  C_38
   10  A    between atoms: C_19  and  C_32
   11  A    between atoms: C_21  and  O_36
   12  A    between atoms: C_25  and  O_36
   13  A    between atoms: C_25  and  C_44
   14  A    between atoms: C_32  and  C_35
   15  A    between atoms: C_46  and  C_47
                            x       y       z     vdW  Elec       q    Type
                         _______ _______ _______ _____ _____    ______ ____

>  <TORSDO>
F 15

$$$$
=
 OpenBabel11072409043D

 47 51  0  0  1  0  0  0  0  0999 V2000
  192.3740  173.7240  142.3980 C   0  0  0  0  0  2  0  0  0  0  0  0
  191.2750  172.7220  142.0630 C   0  0  0  0  0  0  0  0  0  0  0  0
  191.4080  171.3560  142.7160 C   0  0  0  0  0  2  0  0  0  0  0  0
  191.7460  171.5290  141.2460 C   0  0  0  0  0  2  0  0  0  0  0  0
  188.6330  176.3830  142.3830 C   0  0  0  0  0  0  0  0  0  0  0  0
  189.8390  173.2410  141.8430 C   0  0  1  0  0  3  0  0  0  0  0  0
  188.3370  175.5250  143.5830 C   0  0  1  0  0  3  0  0  0  0  0  0
  189.3810  174.6160  143.8060 O   0  0  0  0  0  0  0  0  0  0  0  0
  189.0770  172.3460  143.9780 O   0  0  0  0  0  1  0  0  0  0  0  0
  189.0000  173.4520  143.1280 C   0  0  2  0  0  3  0  0  0  0  0  0
  188.5700  174.4700  140.4520 C   0  0  0  0  0  2  0  0  0  0  0  0
  189.5060  177.2400  142.4270 O   0  0  0  0  0  0  0  0  0  0  0  0
  187.7690  176.0760  140.8360 S   0  0  0  0  0  0  0  0  0  0  0  0
  189.8460  174.3830  141.0230 O   0  0  0  0  0  0  0  0  0  0  0  0
  188.0680  176.3510  144.8120 C   0  0  0  0  0  0  0  0  0  0  0  0
  187.4040  178.6730  148.2010 F   0  0  0  0  0  0  0  0  0  0  0  0
  189.0900  176.5530  145.7540 C   0  0  0  0  0  3  0  0  0  0  0  0
  186.5870  177.7330  146.1630 C   0  0  0  0  0  0  0  0  0  0  0  0
  185.3740  178.2970  146.3840 F   0  0  0  0  0  0  0  0  0  0  0  0
  188.8640  177.3300  146.8910 C   0  0  0  0  0  3  0  0  0  0  0  0
  187.6140  177.9180  147.0960 C   0  0  0  0  0  0  0  0  0  0  0  0
  186.8050  176.9460  145.0190 C   0  0  0  0  0  0  0  0  0  0  0  0
  185.5850  177.9630  143.2670 O   0  0  0  0  0  1  0  0  0  0  0  0
  185.7060  176.7890  144.0160 C   0  0  0  0  0  2  0  0  0  0  0  0
  193.7880  175.6230  141.3820 C   0  0  2  0  0  3  0  0  0  0  0  0
  192.9910  174.3340  141.1370 C   0  0  1  0  0  3  0  0  0  0  0  0
  194.5070  174.3020  141.1940 C   0  0  1  0  0  3  0  0  0  0  0  0
  195.0830  174.2610  139.7910 C   0  0  0  0  0  2  0  0  0  0  0  0
  193.4450  175.9280  136.7740 N   0  0  0  0  0  1  0  0  0  0  0  0
  194.0890  174.9370  137.5640 C   0  0  0  0  0  0  0  0  0  0  0  0
  194.3780  173.8230  137.0560 O   0  0  0  0  0  0  0  0  0  0  0  0
  194.3990  175.2180  138.9320 N   0  0  0  0  0  2  0  0  0  0  0  0
  193.9170  176.0550  142.8350 C   0  0  0  0  0  2  0  0  0  0  0  0
  195.3760  176.3030  143.1560 C   0  0  0  0  0  2  0  0  0  0  0  0
  195.5300  176.5530  144.6500 C   0  0  0  0  0  2  0  0  0  0  0  0
  194.8980  175.4380  145.4820 C   0  0  2  0  0  3  0  0  0  0  0  0
  194.3660  175.9610  146.6790 O   0  0  0  0  0  0  0  0  0  0  0  0
  192.4050  176.7920  147.6320 O   0  0  0  0  0  1  0  0  0  0  0  0
  192.2250  174.9180  146.1260 C   0  0  0  0  0  1  0  0  0  0  0  0
  192.9800  176.1870  146.5070 C   0  0  2  0  0  3  0  0  0  0  0  0
  195.9030  174.3300  145.8000 C   0  0  0  0  0  2  0  0  0  0  0  0
  195.5440  173.0370  145.1350 C   0  0  0  0  0  0  0  0  0  0  0  0
  195.8110  171.5060  143.2660 C   0  0  0  0  0  3  0  0  0  0  0  0
  194.8190  170.6790  143.8030 C   0  0  0  0  0  3  0  0  0  0  0  0
  194.5430  172.2100  145.6650 C   0  0  0  0  0  3  0  0  0  0  0  0
  194.1870  171.0280  145.0010 C   0  0  0  0  0  3  0  0  0  0  0  0
  196.1730  172.6830  143.9320 C   0  0  0  0  0  3  0  0  0  0  0  0
  2  1  1  0  0  0  0
  2  3  1  0  0  0  0
  4  2  1  0  0  0  0
  4  3  1  0  0  0  0
  5 12  2  0  0  0  0
  5  7  1  0  0  0  0
  6  2  1  1  0  0  0
  6 10  1  0  0  0  0
  7  8  1  0  0  0  0
  7 15  1  1  0  0  0
 10  8  1  0  0  0  0
 10  9  1  1  0  0  0
 11 13  1  0  0  0  0
 11 14  1  0  0  0  0
 13  5  1  0  0  0  0
 14  6  1  0  0  0  0
 15 22  2  0  0  0  0
 15 17  1  0  0  0  0
 17 20  2  0  0  0  0
 18 19  1  0  0  0  0
 18 21  2  0  0  0  0
 20 21  1  0  0  0  0
 21 16  1  0  0  0  0
 22 18  1  0  0  0  0
 23 24  1  0  0  0  0
 24 22  1  0  0  0  0
 25 33  1  1  0  0  0
 26 27  1  0  0  0  0
 26 25  1  0  0  0  0
 26  1  1  1  0  0  0
 27 28  1  6  0  0  0
 27 25  1  0  0  0  0
 29 30  1  0  0  0  0
 30 32  1  0  0  0  0
 31 30  2  0  0  0  0
 32 28  1  0  0  0  0
 33 34  1  0  0  0  0
 34 35  1  0  0  0  0
 36 35  1  1  0  0  0
 36 41  1  0  0  0  0
 36 37  1  0  0  0  0
 40 39  1  1  0  0  0
 40 37  1  0  0  0  0
 40 38  1  0  0  0  0
 42 45  1  0  0  0  0
 42 41  1  0  0  0  0
 43 44  2  0  0  0  0
 43 47  1  0  0  0  0
 44 46  1  0  0  0  0
 46 45  2  0  0  0  0
 47 42  2  0  0  0  0
M  END
>  <MODEL>
6

>  <REMARK>
 VINA RESULT:      -6.3      4.133      8.723
  Name = 
  15 active torsions:
  status: ('A' for Active; 'I' for Inactive)
    1  A    between atoms: C_2  and  C_22
    2  A    between atoms: C_3  and  N_20
    3  A    between atoms: C_3  and  C_45
    4  A    between atoms: C_4  and  C_9
    5  A    between atoms: C_6  and  C_19
    6  A    between atoms: C_6  and  C_25
    7  A    between atoms: C_9  and  C_12
    8  A    between atoms: C_10  and  C_44
    9  A    between atoms: C_12  and  C_38
   10  A    between atoms: C_19  and  C_32
   11  A    between atoms: C_21  and  O_36
   12  A    between atoms: C_25  and  O_36
   13  A    between atoms: C_25  and  C_44
   14  A    between atoms: C_32  and  C_35
   15  A    between atoms: C_46  and  C_47
                            x       y       z     vdW  Elec       q    Type
                         _______ _______ _______ _____ _____    ______ ____

>  <TORSDO>
F 15

$$$$
=
 OpenBabel11072409043D

 47 51  0  0  1  0  0  0  0  0999 V2000
  190.5660  172.1890  142.5380 C   0  0  0  0  0  2  0  0  0  0  0  0
  190.5950  173.3250  143.5550 C   0  0  0  0  0  0  0  0  0  0  0  0
  191.5080  173.1150  144.7510 C   0  0  0  0  0  2  0  0  0  0  0  0
  190.0060  172.9650  144.9100 C   0  0  0  0  0  2  0  0  0  0  0  0
  189.4980  177.5290  144.8240 C   0  0  0  0  0  0  0  0  0  0  0  0
  190.4440  174.7750  143.0510 C   0  0  1  0  0  3  0  0  0  0  0  0
  188.3000  176.9620  144.1110 C   0  0  1  0  0  3  0  0  0  0  0  0
  188.3720  175.5620  144.0700 O   0  0  0  0  0  0  0  0  0  0  0  0
  188.2310  174.3380  142.1310 O   0  0  0  0  0  1  0  0  0  0  0  0
  188.9900  175.2660  142.8490 C   0  0  2  0  0  3  0  0  0  0  0  0
  191.4400  176.7920  143.0690 C   0  0  0  0  0  2  0  0  0  0  0  0
  189.6250  177.3980  146.0340 O   0  0  0  0  0  0  0  0  0  0  0  0
  190.8080  178.3150  143.8740 S   0  0  0  0  0  0  0  0  0  0  0  0
  191.1930  175.6560  143.8520 O   0  0  0  0  0  0  0  0  0  0  0  0
  187.0080  177.4190  144.7320 C   0  0  0  0  0  0  0  0  0  0  0  0
  183.4740  178.6850  146.5290 F   0  0  0  0  0  0  0  0  0  0  0  0
  186.5990  176.8850  145.9650 C   0  0  0  0  0  3  0  0  0  0  0  0
  185.0210  178.8240  144.7130 C   0  0  0  0  0  0  0  0  0  0  0  0
  184.2350  179.7510  144.1110 F   0  0  0  0  0  0  0  0  0  0  0  0
  185.4120  177.3090  146.5640 C   0  0  0  0  0  3  0  0  0  0  0  0
  184.6230  178.2760  145.9390 C   0  0  0  0  0  0  0  0  0  0  0  0
  186.2110  178.3970  144.1010 C   0  0  0  0  0  0  0  0  0  0  0  0
  186.0350  178.3420  141.7430 O   0  0  0  0  0  1  0  0  0  0  0  0
  186.6350  179.0200  142.8080 C   0  0  0  0  0  2  0  0  0  0  0  0
  192.7040  170.9540  141.8030 C   0  0  2  0  0  3  0  0  0  0  0  0
  191.8100  172.1920  141.6460 C   0  0  1  0  0  3  0  0  0  0  0  0
  191.7590  171.0700  140.6250 C   0  0  1  0  0  3  0  0  0  0  0  0
  192.5640  171.4460  139.3950 C   0  0  0  0  0  2  0  0  0  0  0  0
  190.1280  172.6920  136.7350 N   0  0  0  0  0  1  0  0  0  0  0  0
  190.9750  172.7000  137.8770 C   0  0  0  0  0  0  0  0  0  0  0  0
  191.0820  173.7460  138.5690 O   0  0  0  0  0  0  0  0  0  0  0  0
  191.7010  171.5180  138.2240 N   0  0  0  0  0  2  0  0  0  0  0  0
  192.1880  169.8790  142.7480 C   0  0  0  0  0  2  0  0  0  0  0  0
  193.3390  169.3380  143.5690 C   0  0  0  0  0  2  0  0  0  0  0  0
  193.8040  170.4040  144.5520 C   0  0  0  0  0  2  0  0  0  0  0  0
  195.2290  170.1450  145.0400 C   0  0  2  0  0  3  0  0  0  0  0  0
  195.2840  170.2100  146.4470 O   0  0  0  0  0  0  0  0  0  0  0  0
  194.5450  168.6240  147.9920 O   0  0  0  0  0  1  0  0  0  0  0  0
  196.8850  168.6320  147.4110 C   0  0  0  0  0  1  0  0  0  0  0  0
  195.4530  168.9020  146.9620 C   0  0  2  0  0  3  0  0  0  0  0  0
  196.2220  171.1370  144.4340 C   0  0  0  0  0  2  0  0  0  0  0  0
  195.7030  172.5420  144.4600 C   0  0  0  0  0  0  0  0  0  0  0  0
  195.1740  174.5480  145.7250 C   0  0  0  0  0  3  0  0  0  0  0  0
  194.6350  175.1310  144.5730 C   0  0  0  0  0  3  0  0  0  0  0  0
  195.1540  173.1260  143.3090 C   0  0  0  0  0  3  0  0  0  0  0  0
  194.6270  174.4230  143.3660 C   0  0  0  0  0  3  0  0  0  0  0  0
  195.7060  173.2550  145.6670 C   0  0  0  0  0  3  0  0  0  0  0  0
  1  2  1  0  0  0  0
  2  3  1  0  0  0  0
  2  4  1  0  0  0  0
  3  4  1  0  0  0  0
  5 12  2  0  0  0  0
  6  2  1  1  0  0  0
  6 14  1  0  0  0  0
  7 15  1  1  0  0  0
  7  5  1  0  0  0  0
  8  7  1  0  0  0  0
 10  9  1  1  0  0  0
 10  6  1  0  0  0  0
 10  8  1  0  0  0  0
 11 14  1  0  0  0  0
 11 13  1  0  0  0  0
 13  5  1  0  0  0  0
 15 17  1  0  0  0  0
 17 20  2  0  0  0  0
 18 21  2  0  0  0  0
 19 18  1  0  0  0  0
 21 16  1  0  0  0  0
 21 20  1  0  0  0  0
 22 18  1  0  0  0  0
 22 15  2  0  0  0  0
 23 24  1  0  0  0  0
 24 22  1  0  0  0  0
 25 33  1  1  0  0  0
 26 25  1  0  0  0  0
 26  1  1  1  0  0  0
 27 28  1  6  0  0  0
 27 26  1  0  0  0  0
 27 25  1  0  0  0  0
 29 30  1  0  0  0  0
 30 32  1  0  0  0  0
 30 31  2  0  0  0  0
 32 28  1  0  0  0  0
 33 34  1  0  0  0  0
 34 35  1  0  0  0  0
 35 36  1  0  0  0  0
 36 41  1  6  0  0  0
 36 37  1  0  0  0  0
 37 40  1  0  0  0  0
 40 39  1  1  0  0  0
 40 38  1  0  0  0  0
 41 42  1  0  0  0  0
 42 47  1  0  0  0  0
 44 43  1  0  0  0  0
 45 46  1  0  0  0  0
 45 42  2  0  0  0  0
 46 44  2  0  0  0  0
 47 43  2  0  0  0  0
M  END
>  <MODEL>
7

>  <REMARK>
 VINA RESULT:      -6.2      4.429      9.359
  Name = 
  15 active torsions:
  status: ('A' for Active; 'I' for Inactive)
    1  A    between atoms: C_2  and  C_22
    2  A    between atoms: C_3  and  N_20
    3  A    between atoms: C_3  and  C_45
    4  A    between atoms: C_4  and  C_9
    5  A    between atoms: C_6  and  C_19
    6  A    between atoms: C_6  and  C_25
    7  A    between atoms: C_9  and  C_12
    8  A    between atoms: C_10  and  C_44
    9  A    between atoms: C_12  and  C_38
   10  A    between atoms: C_19  and  C_32
   11  A    between atoms: C_21  and  O_36
   12  A    between atoms: C_25  and  O_36
   13  A    between atoms: C_25  and  C_44
   14  A    between atoms: C_32  and  C_35
   15  A    between atoms: C_46  and  C_47
                            x       y       z     vdW  Elec       q    Type
                         _______ _______ _______ _____ _____    ______ ____

>  <TORSDO>
F 15

$$$$
=
 OpenBabel11072409043D

 47 51  0  0  1  0  0  0  0  0999 V2000
  193.1400  173.0590  145.2160 C   0  0  0  0  0  2  0  0  0  0  0  0
  194.3040  172.1640  144.8040 C   0  0  0  0  0  0  0  0  0  0  0  0
  194.5810  170.9820  145.7190 C   0  0  0  0  0  2  0  0  0  0  0  0
  195.4870  172.1990  145.7590 C   0  0  0  0  0  2  0  0  0  0  0  0
  193.6510  173.9310  140.6890 C   0  0  0  0  0  0  0  0  0  0  0  0
  194.5790  171.9490  143.3020 C   0  0  1  0  0  3  0  0  0  0  0  0
  192.6470  172.8220  140.8520 C   0  0  1  0  0  3  0  0  0  0  0  0
  192.4730  172.5140  142.2090 O   0  0  0  0  0  0  0  0  0  0  0  0
  192.7130  170.4000  143.0730 O   0  0  0  0  0  1  0  0  0  0  0  0
  193.3700  171.4690  142.4610 C   0  0  2  0  0  3  0  0  0  0  0  0
  195.8690  172.6490  141.5980 C   0  0  0  0  0  2  0  0  0  0  0  0
  193.3760  175.0770  141.0190 O   0  0  0  0  0  0  0  0  0  0  0  0
  195.3070  173.5510  140.1020 S   0  0  0  0  0  0  0  0  0  0  0  0
  195.1930  173.0850  142.7450 O   0  0  0  0  0  0  0  0  0  0  0  0
  191.3320  173.1550  140.2000 C   0  0  0  0  0  0  0  0  0  0  0  0
  187.6950  174.1530  138.4400 F   0  0  0  0  0  0  0  0  0  0  0  0
  190.3260  173.7920  140.9450 C   0  0  0  0  0  3  0  0  0  0  0  0
  189.8760  173.1970  138.2500 C   0  0  0  0  0  0  0  0  0  0  0  0
  189.6360  172.8990  136.9490 F   0  0  0  0  0  0  0  0  0  0  0  0
  189.1060  174.1230  140.3530 C   0  0  0  0  0  3  0  0  0  0  0  0
  188.8800  173.8250  139.0080 C   0  0  0  0  0  0  0  0  0  0  0  0
  191.1040  172.8540  138.8410 C   0  0  0  0  0  0  0  0  0  0  0  0
  191.8440  170.8730  137.7830 O   0  0  0  0  0  1  0  0  0  0  0  0
  192.1670  172.2150  138.0040 C   0  0  0  0  0  2  0  0  0  0  0  0
  192.7380  175.5670  145.6420 C   0  0  2  0  0  3  0  0  0  0  0  0
  193.3200  174.4930  144.7130 C   0  0  1  0  0  3  0  0  0  0  0  0
  194.2280  175.2900  145.6320 C   0  0  1  0  0  3  0  0  0  0  0  0
  194.9190  176.3950  144.8540 C   0  0  0  0  0  2  0  0  0  0  0  0
  197.8820  175.6550  142.5660 N   0  0  0  0  0  1  0  0  0  0  0  0
  196.6240  176.1580  143.0000 C   0  0  0  0  0  0  0  0  0  0  0  0
  195.8950  176.7950  142.1980 O   0  0  0  0  0  0  0  0  0  0  0  0
  196.2050  175.9340  144.3500 N   0  0  0  0  0  2  0  0  0  0  0  0
  192.1500  175.0620  146.9520 C   0  0  0  0  0  2  0  0  0  0  0  0
  190.9040  175.8560  147.2810 C   0  0  0  0  0  2  0  0  0  0  0  0
  189.6830  175.1320  146.7290 C   0  0  0  0  0  2  0  0  0  0  0  0
  188.9370  175.9770  145.6980 C   0  0  2  0  0  3  0  0  0  0  0  0
  187.6000  176.1740  146.1010 O   0  0  0  0  0  0  0  0  0  0  0  0
  186.9870  177.7490  147.7110 O   0  0  0  0  0  1  0  0  0  0  0  0
  186.4500  178.2180  145.4080 C   0  0  0  0  0  1  0  0  0  0  0  0
  187.4040  177.5460  146.3890 C   0  0  2  0  0  3  0  0  0  0  0  0
  188.9730  175.3360  144.3100 C   0  0  0  0  0  2  0  0  0  0  0  0
  188.4170  176.2440  143.2560 C   0  0  0  0  0  0  0  0  0  0  0  0
  186.6640  176.7510  141.6510 C   0  0  0  0  0  3  0  0  0  0  0  0
  187.3970  177.8550  141.2010 C   0  0  0  0  0  3  0  0  0  0  0  0
  189.1530  177.3450  142.7960 C   0  0  0  0  0  3  0  0  0  0  0  0
  188.6380  178.1530  141.7730 C   0  0  0  0  0  3  0  0  0  0  0  0
  187.1740  175.9480  142.6770 C   0  0  0  0  0  3  0  0  0  0  0  0
  2  1  1  0  0  0  0
  2  3  1  0  0  0  0
  2  4  1  0  0  0  0
  3  4  1  0  0  0  0
  5  7  1  0  0  0  0
  5 12  2  0  0  0  0
  6  2  1  1  0  0  0
  7 15  1  1  0  0  0
  7  8  1  0  0  0  0
  8 10  1  0  0  0  0
 10  9  1  1  0  0  0
 10  6  1  0  0  0  0
 11 14  1  0  0  0  0
 13  5  1  0  0  0  0
 13 11  1  0  0  0  0
 14  6  1  0  0  0  0
 15 17  1  0  0  0  0
 16 21  1  0  0  0  0
 18 22  1  0  0  0  0
 18 21  2  0  0  0  0
 19 18  1  0  0  0  0
 20 17  2  0  0  0  0
 21 20  1  0  0  0  0
 22 15  2  0  0  0  0
 23 24  1  0  0  0  0
 24 22  1  0  0  0  0
 25 33  1  1  0  0  0
 26  1  1  1  0  0  0
 26 27  1  0  0  0  0
 26 25  1  0  0  0  0
 27 28  1  6  0  0  0
 27 25  1  0  0  0  0
 29 30  1  0  0  0  0
 30 32  1  0  0  0  0
 31 30  2  0  0  0  0
 32 28  1  0  0  0  0
 33 34  1  0  0  0  0
 35 34  1  0  0  0  0
 36 41  1  6  0  0  0
 36 37  1  0  0  0  0
 36 35  1  0  0  0  0
 37 40  1  0  0  0  0
 40 39  1  6  0  0  0
 40 38  1  0  0  0  0
 42 41  1  0  0  0  0
 43 47  1  0  0  0  0
 44 43  2  0  0  0  0
 44 46  1  0  0  0  0
 45 42  1  0  0  0  0
 46 45  2  0  0  0  0
 47 42  2  0  0  0  0
M  END
>  <MODEL>
8

>  <REMARK>
 VINA RESULT:      -6.2      2.802      4.242
  Name = 
  15 active torsions:
  status: ('A' for Active; 'I' for Inactive)
    1  A    between atoms: C_2  and  C_22
    2  A    between atoms: C_3  and  N_20
    3  A    between atoms: C_3  and  C_45
    4  A    between atoms: C_4  and  C_9
    5  A    between atoms: C_6  and  C_19
    6  A    between atoms: C_6  and  C_25
    7  A    between atoms: C_9  and  C_12
    8  A    between atoms: C_10  and  C_44
    9  A    between atoms: C_12  and  C_38
   10  A    between atoms: C_19  and  C_32
   11  A    between atoms: C_21  and  O_36
   12  A    between atoms: C_25  and  O_36
   13  A    between atoms: C_25  and  C_44
   14  A    between atoms: C_32  and  C_35
   15  A    between atoms: C_46  and  C_47
                            x       y       z     vdW  Elec       q    Type
                         _______ _______ _______ _____ _____    ______ ____

>  <TORSDO>
F 15

$$$$
=
 OpenBabel11072409043D

 47 51  0  0  1  0  0  0  0  0999 V2000
  188.9540  172.5160  141.6300 C   0  0  0  0  0  2  0  0  0  0  0  0
  189.5650  172.5000  140.2330 C   0  0  0  0  0  0  0  0  0  0  0  0
  189.2350  173.6960  139.3560 C   0  0  0  0  0  2  0  0  0  0  0  0
  188.5490  172.3650  139.1100 C   0  0  0  0  0  2  0  0  0  0  0  0
  193.0250  170.5660  142.4180 C   0  0  0  0  0  0  0  0  0  0  0  0
  190.9600  171.8710  140.0400 C   0  0  1  0  0  3  0  0  0  0  0  0
  193.4260  171.9900  142.1390 C   0  0  1  0  0  3  0  0  0  0  0  0
  192.2940  172.7740  141.8720 O   0  0  0  0  0  0  0  0  0  0  0  0
  192.0490  174.0490  139.9770 O   0  0  0  0  0  1  0  0  0  0  0  0
  192.1570  172.7500  140.4790 C   0  0  2  0  0  3  0  0  0  0  0  0
  192.0450  169.9020  139.9700 C   0  0  0  0  0  2  0  0  0  0  0  0
  192.4490  170.2710  143.4560 O   0  0  0  0  0  0  0  0  0  0  0  0
  193.3020  169.3040  141.1670 S   0  0  0  0  0  0  0  0  0  0  0  0
  191.0070  170.5880  140.6150 O   0  0  0  0  0  0  0  0  0  0  0  0
  194.2360  172.5760  143.2640 C   0  0  0  0  0  0  0  0  0  0  0  0
  196.4180  174.1650  146.4320 F   0  0  0  0  0  0  0  0  0  0  0  0
  193.5860  173.2040  144.3390 C   0  0  0  0  0  3  0  0  0  0  0  0
  196.3760  173.0160  144.3370 C   0  0  0  0  0  0  0  0  0  0  0  0
  197.7300  172.9480  144.3430 F   0  0  0  0  0  0  0  0  0  0  0  0
  194.3200  173.7390  145.3980 C   0  0  0  0  0  3  0  0  0  0  0  0
  195.7130  173.6470  145.3970 C   0  0  0  0  0  0  0  0  0  0  0  0
  195.6440  172.4820  143.2640 C   0  0  0  0  0  0  0  0  0  0  0  0
  196.6510  170.4670  142.5420 O   0  0  0  0  0  1  0  0  0  0  0  0
  196.3690  171.7820  142.1580 C   0  0  0  0  0  2  0  0  0  0  0  0
  188.8500  174.3260  143.4600 C   0  0  2  0  0  3  0  0  0  0  0  0
  188.4800  173.9160  142.0280 C   0  0  1  0  0  3  0  0  0  0  0  0
  189.6530  174.8440  142.2830 C   0  0  1  0  0  3  0  0  0  0  0  0
  189.2490  176.2830  142.0190 C   0  0  0  0  0  2  0  0  0  0  0  0
  185.9800  177.5380  140.5030 N   0  0  0  0  0  1  0  0  0  0  0  0
  187.2580  177.5630  141.1260 C   0  0  0  0  0  0  0  0  0  0  0  0
  187.7690  178.6630  141.4610 O   0  0  0  0  0  0  0  0  0  0  0  0
  187.9510  176.3340  141.3610 N   0  0  0  0  0  2  0  0  0  0  0  0
  189.6960  173.3290  144.2370 C   0  0  0  0  0  2  0  0  0  0  0  0
  189.6880  173.7000  145.7040 C   0  0  0  0  0  2  0  0  0  0  0  0
  190.7220  174.7890  145.9570 C   0  0  0  0  0  2  0  0  0  0  0  0
  190.1190  176.1870  145.8350 C   0  0  2  0  0  3  0  0  0  0  0  0
  191.1370  177.1630  145.8550 O   0  0  0  0  0  0  0  0  0  0  0  0
  193.2120  177.0820  144.7910 O   0  0  0  0  0  1  0  0  0  0  0  0
  191.4340  178.2990  143.7100 C   0  0  0  0  0  1  0  0  0  0  0  0
  191.8240  177.1370  144.6170 C   0  0  2  0  0  3  0  0  0  0  0  0
  189.1080  176.4670  146.9480 C   0  0  0  0  0  2  0  0  0  0  0  0
  187.7960  176.9450  146.4090 C   0  0  0  0  0  0  0  0  0  0  0  0
  185.3910  177.1800  146.6750 C   0  0  0  0  0  3  0  0  0  0  0  0
  185.3030  177.7260  145.3900 C   0  0  0  0  0  3  0  0  0  0  0  0
  187.7020  177.4850  145.1180 C   0  0  0  0  0  3  0  0  0  0  0  0
  186.4560  177.8800  144.6130 C   0  0  0  0  0  3  0  0  0  0  0  0
  186.6360  176.7900  147.1830 C   0  0  0  0  0  3  0  0  0  0  0  0
  2  1  1  0  0  0  0
  3  2  1  0  0  0  0
  4  3  1  0  0  0  0
  4  2  1  0  0  0  0
  5 12  2  0  0  0  0
  6  2  1  1  0  0  0
  6 10  1  0  0  0  0
  6 14  1  0  0  0  0
  7  5  1  0  0  0  0
  7 15  1  1  0  0  0
  8  7  1  0  0  0  0
 10  9  1  1  0  0  0
 10  8  1  0  0  0  0
 11 14  1  0  0  0  0
 11 13  1  0  0  0  0
 13  5  1  0  0  0  0
 15 17  1  0  0  0  0
 17 20  2  0  0  0  0
 18 19  1  0  0  0  0
 18 21  2  0  0  0  0
 21 20  1  0  0  0  0
 21 16  1  0  0  0  0
 22 15  2  0  0  0  0
 22 18  1  0  0  0  0
 24 23  1  0  0  0  0
 24 22  1  0  0  0  0
 25 33  1  1  0  0  0
 26  1  1  1  0  0  0
 26 27  1  0  0  0  0
 26 25  1  0  0  0  0
 27 28  1  6  0  0  0
 27 25  1  0  0  0  0
 29 30  1  0  0  0  0
 30 32  1  0  0  0  0
 30 31  2  0  0  0  0
 32 28  1  0  0  0  0
 33 34  1  0  0  0  0
 34 35  1  0  0  0  0
 36 37  1  0  0  0  0
 36 35  1  1  0  0  0
 36 41  1  0  0  0  0
 40 39  1  1  0  0  0
 40 38  1  0  0  0  0
 40 37  1  0  0  0  0
 42 41  1  0  0  0  0
 42 47  1  0  0  0  0
 43 47  2  0  0  0  0
 44 43  1  0  0  0  0
 45 42  2  0  0  0  0
 46 45  1  0  0  0  0
 46 44  2  0  0  0  0
M  END
>  <MODEL>
9

>  <REMARK>
 VINA RESULT:      -6.2      3.376      5.763
  Name = 
  15 active torsions:
  status: ('A' for Active; 'I' for Inactive)
    1  A    between atoms: C_2  and  C_22
    2  A    between atoms: C_3  and  N_20
    3  A    between atoms: C_3  and  C_45
    4  A    between atoms: C_4  and  C_9
    5  A    between atoms: C_6  and  C_19
    6  A    between atoms: C_6  and  C_25
    7  A    between atoms: C_9  and  C_12
    8  A    between atoms: C_10  and  C_44
    9  A    between atoms: C_12  and  C_38
   10  A    between atoms: C_19  and  C_32
   11  A    between atoms: C_21  and  O_36
   12  A    between atoms: C_25  and  O_36
   13  A    between atoms: C_25  and  C_44
   14  A    between atoms: C_32  and  C_35
   15  A    between atoms: C_46  and  C_47
                            x       y       z     vdW  Elec       q    Type
                         _______ _______ _______ _____ _____    ______ ____

>  <TORSDO>
F 15

$$$$
