=
 OpenBabel11062419423D

 30 35  0  0  1  0  0  0  0  0999 V2000
  186.7500  178.6280  142.4670 C   0  0  2  0  0  3  0  0  0  0  0  0
  189.2220  176.5370  146.6640 C   0  0  1  0  0  3  0  0  0  0  0  0
  188.5580  177.7640  146.5730 O   0  0  0  0  0  0  0  0  0  0  0  0
  190.4650  175.3580  145.0160 C   0  0  0  0  0  0  0  0  0  0  0  0
  189.2980  175.9020  145.3200 C   0  0  0  0  0  0  0  0  0  0  0  0
  188.2090  175.8310  144.4440 O   0  0  0  0  0  0  0  0  0  0  0  0
  186.1550  178.7210  143.7570 O   0  0  0  0  0  0  0  0  0  0  0  0
  187.5320  176.9620  143.9660 C   0  0  0  0  0  0  0  0  0  0  0  0
  187.2670  177.6050  147.1240 C   0  0  1  0  0  3  0  0  0  0  0  0
  186.6860  177.7670  144.6250 C   0  0  0  0  0  0  0  0  0  0  0  0
  191.5270  175.5230  146.0450 C   0  0  0  0  0  2  0  0  0  0  0  0
  187.5850  176.6160  141.5130 C   0  0  1  0  0  3  0  0  0  0  0  0
  186.6400  177.2990  140.1520 S   0  0  0  0  0  0  0  0  0  0  0  0
  185.7430  178.3280  141.3710 C   0  0  0  0  0  2  0  0  0  0  0  0
  186.2490  177.7200  146.0760 C   0  0  1  0  0  0  0  0  0  0  0  0
  186.5470  176.4130  146.6140 N   0  0  2  0  0  0  0  0  0  0  0  0
  187.5490  177.3960  142.5790 C   0  0  1  0  0  3  0  0  0  0  0  0
  185.1960  176.7930  146.2880 N   0  0  0  0  0  2  0  0  0  0  0  0
  190.9330  176.7750  147.2310 S   0  0  0  0  0  0  0  0  0  0  0  0
  188.5160  172.9280  140.7730 C   0  0  0  0  0  1  0  0  0  0  0  0
  188.2540  174.3670  140.5150 C   0  0  0  0  0  0  0  0  0  0  0  0
  187.9380  175.2290  141.6120 N   0  0  0  0  0  2  0  0  0  0  0  0
  188.3420  174.8120  139.3400 O   0  0  0  0  0  0  0  0  0  0  0  0
  190.6720  174.6020  143.7370 C   0  0  2  0  0  3  0  0  0  0  0  0
  189.8440  171.7920  143.7510 O   0  0  0  0  0  0  0  0  0  0  0  0
  191.5160  173.4240  143.9360 N   0  0  0  0  0  2  0  0  0  0  0  0
  192.0460  170.9640  144.0690 C   0  0  0  0  0  1  0  0  0  0  0  0
  191.0640  172.0660  143.9050 C   0  0  0  0  0  0  0  0  0  0  0  0
  191.1800  175.4910  142.6090 C   0  0  0  0  0  2  0  0  0  0  0  0
  191.6290  174.7020  141.5500 O   0  0  0  0  0  1  0  0  0  0  0  0
  1 14  1  6  0  0  0
  1 17  1  0  0  0  0
  1  7  1  0  0  0  0
  2  5  1  6  0  0  0
  2 19  1  0  0  0  0
  3  2  1  0  0  0  0
  4  5  2  0  0  0  0
  4 11  1  0  0  0  0
  6  5  1  0  0  0  0
  7 10  1  0  0  0  0
  8  6  1  0  0  0  0
  8 10  2  0  0  0  0
  9  3  1  6  0  0  0
 11 19  1  0  0  0  0
 12 22  1  1  0  0  0
 12 17  1  0  0  0  0
 13 14  1  0  0  0  0
 13 12  1  0  0  0  0
 15 10  1  6  0  0  0
 15 18  1  0  0  0  0
 15 16  1  0  0  0  0
 15  9  1  0  0  0  0
 16 18  1  1  0  0  0
 16  9  1  0  0  0  0
 17  8  1  1  0  0  0
 21 20  1  0  0  0  0
 21 22  1  0  0  0  0
 23 21  2  0  0  0  0
 24 29  1  6  0  0  0
 24 26  1  0  0  0  0
 24  4  1  0  0  0  0
 25 28  2  0  0  0  0
 28 26  1  0  0  0  0
 28 27  1  0  0  0  0
 30 29  1  0  0  0  0
M  END
>  <MODEL>
1

>  <REMARK>
 VINA RESULT:      -6.9      0.000      0.000
  Name = 
  4 active torsions:
  status: ('A' for Active; 'I' for Inactive)
    1  A    between atoms: C_3  and  CA_9
    2  A    between atoms: N_5  and  CA_9
    3  A    between atoms: C_8  and  CA_9
    4  A    between atoms: N_17  and  C_20
                            x       y       z     vdW  Elec       q    Type
                         _______ _______ _______ _____ _____    ______ ____

>  <TORSDO>
F 4

$$$$
=
 OpenBabel11062419423D

 30 35  0  0  1  0  0  0  0  0999 V2000
  193.5090  173.7950  142.5710 C   0  0  2  0  0  3  0  0  0  0  0  0
  188.3790  174.8510  141.7580 C   0  0  1  0  0  3  0  0  0  0  0  0
  189.2930  174.2670  140.8760 O   0  0  0  0  0  0  0  0  0  0  0  0
  188.7250  176.5100  143.4240 C   0  0  0  0  0  0  0  0  0  0  0  0
  189.0850  175.3160  142.9830 C   0  0  0  0  0  0  0  0  0  0  0  0
  190.0300  174.5400  143.6640 O   0  0  0  0  0  0  0  0  0  0  0  0
  192.6880  172.8410  141.9070 O   0  0  0  0  0  0  0  0  0  0  0  0
  191.2030  174.0590  143.0670 C   0  0  0  0  0  0  0  0  0  0  0  0
  189.1060  172.8670  140.9130 C   0  0  1  0  0  3  0  0  0  0  0  0
  191.3380  173.0680  142.1730 C   0  0  0  0  0  0  0  0  0  0  0  0
  187.7170  177.2160  142.5880 C   0  0  0  0  0  2  0  0  0  0  0  0
  192.9560  174.8420  144.6340 C   0  0  1  0  0  3  0  0  0  0  0  0
  194.6600  174.3630  144.9150 S   0  0  0  0  0  0  0  0  0  0  0  0
  194.4830  173.1590  143.5470 C   0  0  0  0  0  2  0  0  0  0  0  0
  190.2710  172.2150  141.5170 C   0  0  1  0  0  0  0  0  0  0  0  0
  189.0520  172.3130  142.2870 N   0  0  2  0  0  0  0  0  0  0  0  0
  192.5400  174.5010  143.4270 C   0  0  1  0  0  3  0  0  0  0  0  0
  189.8720  171.1300  142.3410 N   0  0  0  0  0  2  0  0  0  0  0  0
  187.6090  176.3170  141.0060 S   0  0  0  0  0  0  0  0  0  0  0  0
  191.2360  176.1270  147.8590 C   0  0  0  0  0  1  0  0  0  0  0  0
  192.2620  176.0080  146.7920 C   0  0  0  0  0  0  0  0  0  0  0  0
  192.0300  175.1230  145.6920 N   0  0  0  0  0  2  0  0  0  0  0  0
  193.3080  176.7050  146.8590 O   0  0  0  0  0  0  0  0  0  0  0  0
  189.2780  177.0790  144.6970 C   0  0  2  0  0  3  0  0  0  0  0  0
  187.9810  175.6280  146.8860 O   0  0  0  0  0  0  0  0  0  0  0  0
  188.2170  177.5600  145.5810 N   0  0  0  0  0  2  0  0  0  0  0  0
  186.6000  177.4560  147.5100 C   0  0  0  0  0  1  0  0  0  0  0  0
  187.6360  176.8180  146.6570 C   0  0  0  0  0  0  0  0  0  0  0  0
  190.3450  178.1370  144.4490 C   0  0  0  0  0  2  0  0  0  0  0  0
  191.1680  177.7420  143.3940 O   0  0  0  0  0  1  0  0  0  0  0  0
  1 17  1  0  0  0  0
  1 14  1  1  0  0  0
  2  3  1  6  0  0  0
  2  5  1  0  0  0  0
  4 24  1  0  0  0  0
  5  4  2  0  0  0  0
  5  6  1  0  0  0  0
  7 10  1  0  0  0  0
  7  1  1  0  0  0  0
  8  6  1  0  0  0  0
  9  3  1  1  0  0  0
  9 15  1  0  0  0  0
  9 16  1  0  0  0  0
 10  8  2  0  0  0  0
 11  4  1  0  0  0  0
 12 13  1  0  0  0  0
 12 22  1  1  0  0  0
 14 13  1  0  0  0  0
 15 10  1  1  0  0  0
 15 16  1  0  0  0  0
 15 18  1  0  0  0  0
 16 18  1  6  0  0  0
 17  8  1  1  0  0  0
 17 12  1  0  0  0  0
 19  2  1  0  0  0  0
 19 11  1  0  0  0  0
 21 23  2  0  0  0  0
 21 20  1  0  0  0  0
 22 21  1  0  0  0  0
 24 29  1  6  0  0  0
 24 26  1  0  0  0  0
 26 28  1  0  0  0  0
 28 25  2  0  0  0  0
 28 27  1  0  0  0  0
 30 29  1  0  0  0  0
M  END
>  <MODEL>
2

>  <REMARK>
 VINA RESULT:      -6.7      2.413      6.773
  Name = 
  4 active torsions:
  status: ('A' for Active; 'I' for Inactive)
    1  A    between atoms: C_3  and  CA_9
    2  A    between atoms: N_5  and  CA_9
    3  A    between atoms: C_8  and  CA_9
    4  A    between atoms: N_17  and  C_20
                            x       y       z     vdW  Elec       q    Type
                         _______ _______ _______ _____ _____    ______ ____

>  <TORSDO>
F 4

$$$$
=
 OpenBabel11062419423D

 30 35  0  0  1  0  0  0  0  0999 V2000
  187.6930  178.1530  142.6930 C   0  0  2  0  0  3  0  0  0  0  0  0
  191.0770  176.1630  146.2550 C   0  0  1  0  0  3  0  0  0  0  0  0
  190.4050  177.3890  146.2900 O   0  0  0  0  0  0  0  0  0  0  0  0
  191.9090  174.9410  144.3950 C   0  0  0  0  0  0  0  0  0  0  0  0
  190.8420  175.4950  144.9470 C   0  0  0  0  0  0  0  0  0  0  0  0
  189.5800  175.4040  144.3480 O   0  0  0  0  0  0  0  0  0  0  0  0
  187.4120  178.2800  144.0830 O   0  0  0  0  0  0  0  0  0  0  0  0
  188.8060  176.5240  144.0120 C   0  0  0  0  0  0  0  0  0  0  0  0
  189.2770  177.2470  147.1290 C   0  0  1  0  0  3  0  0  0  0  0  0
  188.1330  177.3470  144.8280 C   0  0  0  0  0  0  0  0  0  0  0  0
  193.1800  175.1290  145.1450 C   0  0  0  0  0  2  0  0  0  0  0  0
  188.2920  176.1160  141.6220 C   0  0  1  0  0  3  0  0  0  0  0  0
  187.0550  176.7660  140.5000 S   0  0  0  0  0  0  0  0  0  0  0  0
  186.4610  177.8280  141.8680 C   0  0  0  0  0  2  0  0  0  0  0  0
  188.0440  177.3380  146.3410 C   0  0  1  0  0  0  0  0  0  0  0  0
  188.4630  176.0440  146.8290 N   0  0  2  0  0  0  0  0  0  0  0  0
  188.5010  176.9230  142.6480 C   0  0  1  0  0  3  0  0  0  0  0  0
  187.0720  176.4190  146.8150 N   0  0  0  0  0  2  0  0  0  0  0  0
  192.8720  176.4120  146.4040 S   0  0  0  0  0  0  0  0  0  0  0  0
  189.1930  172.4490  140.7540 C   0  0  0  0  0  1  0  0  0  0  0  0
  188.9010  173.8900  140.5400 C   0  0  0  0  0  0  0  0  0  0  0  0
  188.6630  174.7320  141.6720 N   0  0  0  0  0  2  0  0  0  0  0  0
  188.8930  174.3530  139.3690 O   0  0  0  0  0  0  0  0  0  0  0  0
  191.8170  174.1520  143.1220 C   0  0  2  0  0  3  0  0  0  0  0  0
  190.5080  171.8340  144.3430 O   0  0  0  0  0  0  0  0  0  0  0  0
  192.3590  172.8030  143.2810 N   0  0  0  0  0  2  0  0  0  0  0  0
  192.3200  170.3630  143.9100 C   0  0  0  0  0  1  0  0  0  0  0  0
  191.6640  171.6950  143.8620 C   0  0  0  0  0  0  0  0  0  0  0  0
  192.4330  174.8830  141.9360 C   0  0  0  0  0  2  0  0  0  0  0  0
  192.3530  174.0860  140.7940 O   0  0  0  0  0  1  0  0  0  0  0  0
  1 14  1  6  0  0  0
  1  7  1  0  0  0  0
  2  5  1  6  0  0  0
  2  3  1  0  0  0  0
  2 19  1  0  0  0  0
  4  5  2  0  0  0  0
  4 11  1  0  0  0  0
  6  5  1  0  0  0  0
  7 10  1  0  0  0  0
  8  6  1  0  0  0  0
  8 10  2  0  0  0  0
  9  3  1  6  0  0  0
 11 19  1  0  0  0  0
 12 22  1  1  0  0  0
 12 17  1  0  0  0  0
 13 12  1  0  0  0  0
 13 14  1  0  0  0  0
 15 10  1  6  0  0  0
 15 18  1  0  0  0  0
 15 16  1  0  0  0  0
 15  9  1  0  0  0  0
 16 18  1  1  0  0  0
 16  9  1  0  0  0  0
 17  1  1  0  0  0  0
 17  8  1  1  0  0  0
 21 20  1  0  0  0  0
 21 22  1  0  0  0  0
 23 21  2  0  0  0  0
 24 29  1  6  0  0  0
 24 26  1  0  0  0  0
 24  4  1  0  0  0  0
 26 28  1  0  0  0  0
 28 27  1  0  0  0  0
 28 25  2  0  0  0  0
 30 29  1  0  0  0  0
M  END
>  <MODEL>
3

>  <REMARK>
 VINA RESULT:      -6.4      1.215      1.423
  Name = 
  4 active torsions:
  status: ('A' for Active; 'I' for Inactive)
    1  A    between atoms: C_3  and  CA_9
    2  A    between atoms: N_5  and  CA_9
    3  A    between atoms: C_8  and  CA_9
    4  A    between atoms: N_17  and  C_20
                            x       y       z     vdW  Elec       q    Type
                         _______ _______ _______ _____ _____    ______ ____

>  <TORSDO>
F 4

$$$$
=
 OpenBabel11062419423D

 30 35  0  0  1  0  0  0  0  0999 V2000
  194.4090  175.8520  143.2650 C   0  0  2  0  0  3  0  0  0  0  0  0
  189.8560  173.7690  141.5240 C   0  0  1  0  0  3  0  0  0  0  0  0
  191.1210  173.7000  140.9330 O   0  0  0  0  0  0  0  0  0  0  0  0
  188.8720  175.5110  142.8050 C   0  0  0  0  0  0  0  0  0  0  0  0
  189.8960  174.6810  142.6990 C   0  0  0  0  0  0  0  0  0  0  0  0
  190.9100  174.6460  143.6630 O   0  0  0  0  0  0  0  0  0  0  0  0
  194.3950  174.5360  142.7240 O   0  0  0  0  0  0  0  0  0  0  0  0
  192.2650  174.8380  143.3600 C   0  0  0  0  0  0  0  0  0  0  0  0
  191.6900  172.4480  141.2580 C   0  0  1  0  0  3  0  0  0  0  0  0
  193.1080  173.9990  142.7400 C   0  0  0  0  0  0  0  0  0  0  0  0
  187.8790  175.4370  141.6990 C   0  0  0  0  0  2  0  0  0  0  0  0
  192.9120  176.6330  144.9400 C   0  0  1  0  0  3  0  0  0  0  0  0
  194.4890  177.2210  145.5580 S   0  0  0  0  0  0  0  0  0  0  0  0
  195.3030  175.9810  144.4850 C   0  0  0  0  0  2  0  0  0  0  0  0
  192.8380  172.6290  142.1510 C   0  0  1  0  0  0  0  0  0  0  0  0
  191.6050  172.1150  142.7000 N   0  0  2  0  0  0  0  0  0  0  0  0
  193.0410  175.9870  143.7950 C   0  0  1  0  0  3  0  0  0  0  0  0
  192.8810  171.6050  143.1330 N   0  0  0  0  0  2  0  0  0  0  0  0
  188.6420  174.4610  140.3610 S   0  0  0  0  0  0  0  0  0  0  0  0
  190.2990  175.3850  147.5140 C   0  0  0  0  0  1  0  0  0  0  0  0
  191.5980  175.4900  146.8010 C   0  0  0  0  0  0  0  0  0  0  0  0
  191.7530  176.4660  145.7680 N   0  0  0  0  0  2  0  0  0  0  0  0
  192.5500  174.7370  147.1350 O   0  0  0  0  0  0  0  0  0  0  0  0
  188.7200  176.4290  143.9830 C   0  0  2  0  0  3  0  0  0  0  0  0
  187.8140  177.4530  146.5730 O   0  0  0  0  0  0  0  0  0  0  0  0
  187.3690  176.3780  144.5380 N   0  0  0  0  0  2  0  0  0  0  0  0
  185.5470  176.8440  146.2160 C   0  0  0  0  0  1  0  0  0  0  0  0
  186.9720  176.9210  145.8020 C   0  0  0  0  0  0  0  0  0  0  0  0
  189.1620  177.8530  143.6720 C   0  0  0  0  0  2  0  0  0  0  0  0
  190.2010  177.8350  142.7410 O   0  0  0  0  0  1  0  0  0  0  0  0
  1 17  1  0  0  0  0
  1 14  1  1  0  0  0
  2 19  1  6  0  0  0
  2  5  1  0  0  0  0
  3  2  1  0  0  0  0
  4 24  1  0  0  0  0
  5  4  2  0  0  0  0
  5  6  1  0  0  0  0
  7 10  1  0  0  0  0
  7  1  1  0  0  0  0
  8  6  1  0  0  0  0
  9  3  1  1  0  0  0
  9 15  1  0  0  0  0
  9 16  1  0  0  0  0
 10  8  2  0  0  0  0
 11  4  1  0  0  0  0
 12 13  1  0  0  0  0
 12 22  1  1  0  0  0
 14 13  1  0  0  0  0
 15 16  1  0  0  0  0
 15 10  1  1  0  0  0
 15 18  1  0  0  0  0
 16 18  1  6  0  0  0
 17  8  1  1  0  0  0
 17 12  1  0  0  0  0
 19 11  1  0  0  0  0
 21 23  2  0  0  0  0
 21 20  1  0  0  0  0
 22 21  1  0  0  0  0
 24 29  1  6  0  0  0
 24 26  1  0  0  0  0
 26 28  1  0  0  0  0
 28 27  1  0  0  0  0
 28 25  2  0  0  0  0
 30 29  1  0  0  0  0
M  END
>  <MODEL>
4

>  <REMARK>
 VINA RESULT:      -6.4      2.510      7.028
  Name = 
  4 active torsions:
  status: ('A' for Active; 'I' for Inactive)
    1  A    between atoms: C_3  and  CA_9
    2  A    between atoms: N_5  and  CA_9
    3  A    between atoms: C_8  and  CA_9
    4  A    between atoms: N_17  and  C_20
                            x       y       z     vdW  Elec       q    Type
                         _______ _______ _______ _____ _____    ______ ____

>  <TORSDO>
F 4

$$$$
=
 OpenBabel11062419423D

 30 35  0  0  1  0  0  0  0  0999 V2000
  188.6560  176.1020  143.0070 C   0  0  2  0  0  3  0  0  0  0  0  0
  192.6390  175.9880  146.5030 C   0  0  1  0  0  3  0  0  0  0  0  0
  191.5370  176.8490  146.4740 O   0  0  0  0  0  0  0  0  0  0  0  0
  193.8410  175.0000  144.7070 C   0  0  0  0  0  0  0  0  0  0  0  0
  192.6560  175.1460  145.2760 C   0  0  0  0  0  0  0  0  0  0  0  0
  191.5190  174.5060  144.7710 O   0  0  0  0  0  0  0  0  0  0  0  0
  188.3830  176.2550  144.3950 O   0  0  0  0  0  0  0  0  0  0  0  0
  190.3570  175.1890  144.3890 C   0  0  0  0  0  0  0  0  0  0  0  0
  190.5790  176.3660  147.3930 C   0  0  1  0  0  3  0  0  0  0  0  0
  189.4320  175.7640  145.1720 C   0  0  0  0  0  0  0  0  0  0  0  0
  194.9510  175.7500  145.3540 C   0  0  0  0  0  2  0  0  0  0  0  0
  189.9870  174.3610  142.0830 C   0  0  1  0  0  3  0  0  0  0  0  0
  188.5660  174.3510  140.9900 S   0  0  0  0  0  0  0  0  0  0  0  0
  187.6340  175.2340  142.2950 C   0  0  0  0  0  2  0  0  0  0  0  0
  189.3920  175.8820  146.6820 C   0  0  1  0  0  0  0  0  0  0  0  0
  190.3020  174.9160  147.2540 N   0  0  2  0  0  0  0  0  0  0  0  0
  189.8840  175.2890  143.0180 C   0  0  1  0  0  3  0  0  0  0  0  0
  188.8760  174.7120  147.2970 N   0  0  0  0  0  2  0  0  0  0  0  0
  194.1910  176.9350  146.5130 S   0  0  0  0  0  0  0  0  0  0  0  0
  191.5890  170.9340  142.9190 C   0  0  0  0  0  1  0  0  0  0  0  0
  190.5300  171.9610  142.7480 C   0  0  0  0  0  0  0  0  0  0  0  0
  190.8780  173.2470  142.2290 N   0  0  0  0  0  2  0  0  0  0  0  0
  189.3380  171.6750  143.0370 O   0  0  0  0  0  0  0  0  0  0  0  0
  194.0380  174.1070  143.5170 C   0  0  2  0  0  3  0  0  0  0  0  0
  193.8690  171.8600  145.3880 O   0  0  0  0  0  0  0  0  0  0  0  0
  195.0480  173.0810  143.7720 N   0  0  0  0  0  2  0  0  0  0  0  0
  195.9950  170.9830  144.7970 C   0  0  0  0  0  1  0  0  0  0  0  0
  194.9040  171.9840  144.6790 C   0  0  0  0  0  0  0  0  0  0  0  0
  194.3220  174.8900  142.2410 C   0  0  0  0  0  2  0  0  0  0  0  0
  193.2990  175.8110  142.0140 O   0  0  0  0  0  1  0  0  0  0  0  0
  1 14  1  6  0  0  0
  1 17  1  0  0  0  0
  1  7  1  0  0  0  0
  2  5  1  6  0  0  0
  2 19  1  0  0  0  0
  3  2  1  0  0  0  0
  4  5  2  0  0  0  0
  4 11  1  0  0  0  0
  6  5  1  0  0  0  0
  7 10  1  0  0  0  0
  8  6  1  0  0  0  0
  8 10  2  0  0  0  0
  9  3  1  6  0  0  0
 11 19  1  0  0  0  0
 12 22  1  1  0  0  0
 12 17  1  0  0  0  0
 13 12  1  0  0  0  0
 13 14  1  0  0  0  0
 15 10  1  6  0  0  0
 15 16  1  0  0  0  0
 15 18  1  0  0  0  0
 15  9  1  0  0  0  0
 16 18  1  1  0  0  0
 16  9  1  0  0  0  0
 17  8  1  1  0  0  0
 21 20  1  0  0  0  0
 21 23  2  0  0  0  0
 22 21  1  0  0  0  0
 24 29  1  6  0  0  0
 24 26  1  0  0  0  0
 24  4  1  0  0  0  0
 26 28  1  0  0  0  0
 28 27  1  0  0  0  0
 28 25  2  0  0  0  0
 30 29  1  0  0  0  0
M  END
>  <MODEL>
5

>  <REMARK>
 VINA RESULT:      -6.4      2.573      3.639
  Name = 
  4 active torsions:
  status: ('A' for Active; 'I' for Inactive)
    1  A    between atoms: C_3  and  CA_9
    2  A    between atoms: N_5  and  CA_9
    3  A    between atoms: C_8  and  CA_9
    4  A    between atoms: N_17  and  C_20
                            x       y       z     vdW  Elec       q    Type
                         _______ _______ _______ _____ _____    ______ ____

>  <TORSDO>
F 4

$$$$
=
 OpenBabel11062419423D

 30 35  0  0  1  0  0  0  0  0999 V2000
  186.2280  176.7850  145.5250 C   0  0  2  0  0  3  0  0  0  0  0  0
  188.7430  174.9450  141.2370 C   0  0  1  0  0  3  0  0  0  0  0  0
  187.3740  175.1790  141.4050 O   0  0  0  0  0  0  0  0  0  0  0  0
  190.3640  174.2260  142.8180 C   0  0  0  0  0  0  0  0  0  0  0  0
  189.4510  175.1380  142.5310 C   0  0  0  0  0  0  0  0  0  0  0  0
  189.2170  176.2280  143.3780 O   0  0  0  0  0  0  0  0  0  0  0  0
  185.8640  177.2610  144.2350 O   0  0  0  0  0  0  0  0  0  0  0  0
  187.9600  176.5220  143.9240 C   0  0  0  0  0  0  0  0  0  0  0  0
  187.0670  176.4260  140.8170 C   0  0  1  0  0  3  0  0  0  0  0  0
  186.8820  177.0310  143.3090 C   0  0  0  0  0  0  0  0  0  0  0  0
  190.4910  173.1240  141.8260 C   0  0  0  0  0  2  0  0  0  0  0  0
  188.4590  176.6910  146.3450 C   0  0  1  0  0  3  0  0  0  0  0  0
  187.5920  177.4210  147.7340 S   0  0  0  0  0  0  0  0  0  0  0  0
  186.2510  177.8810  146.5760 C   0  0  0  0  0  2  0  0  0  0  0  0
  186.6920  177.3960  141.8500 C   0  0  1  0  0  0  0  0  0  0  0  0
  187.9880  177.5160  141.2220 N   0  0  2  0  0  0  0  0  0  0  0  0
  187.6440  176.4250  145.3390 C   0  0  1  0  0  3  0  0  0  0  0  0
  187.2080  178.6830  141.5480 N   0  0  0  0  0  2  0  0  0  0  0  0
  189.0410  173.2270  140.7250 S   0  0  0  0  0  0  0  0  0  0  0  0
  192.3120  176.5090  146.7060 C   0  0  0  0  0  1  0  0  0  0  0  0
  190.8810  176.2290  146.9900 C   0  0  0  0  0  0  0  0  0  0  0  0
  189.8750  176.8030  146.1510 N   0  0  0  0  0  2  0  0  0  0  0  0
  190.5780  175.4710  147.9480 O   0  0  0  0  0  0  0  0  0  0  0  0
  191.2260  174.3310  144.0410 C   0  0  2  0  0  3  0  0  0  0  0  0
  192.5730  176.7810  143.1680 O   0  0  0  0  0  0  0  0  0  0  0  0
  192.6370  174.4990  143.6960 N   0  0  0  0  0  2  0  0  0  0  0  0
  194.7130  175.7630  143.0310 C   0  0  0  0  0  1  0  0  0  0  0  0
  193.2530  175.7290  143.3010 C   0  0  0  0  0  0  0  0  0  0  0  0
  191.0040  173.1790  145.0130 C   0  0  0  0  0  2  0  0  0  0  0  0
  189.6910  173.2040  145.4840 O   0  0  0  0  0  1  0  0  0  0  0  0
  1 14  1  1  0  0  0
  2 19  1  1  0  0  0
  2  3  1  0  0  0  0
  2  5  1  0  0  0  0
  4 24  1  0  0  0  0
  5  4  2  0  0  0  0
  5  6  1  0  0  0  0
  6  8  1  0  0  0  0
  7  1  1  0  0  0  0
  9 16  1  0  0  0  0
  9  3  1  1  0  0  0
  9 15  1  0  0  0  0
 10  8  2  0  0  0  0
 10  7  1  0  0  0  0
 11  4  1  0  0  0  0
 12 22  1  6  0  0  0
 12 13  1  0  0  0  0
 14 13  1  0  0  0  0
 15 18  1  6  0  0  0
 15 10  1  0  0  0  0
 16 18  1  6  0  0  0
 16 15  1  0  0  0  0
 17  8  1  6  0  0  0
 17  1  1  0  0  0  0
 17 12  1  0  0  0  0
 19 11  1  0  0  0  0
 20 21  1  0  0  0  0
 21 23  2  0  0  0  0
 22 21  1  0  0  0  0
 24 29  1  1  0  0  0
 25 28  2  0  0  0  0
 26 24  1  0  0  0  0
 27 28  1  0  0  0  0
 28 26  1  0  0  0  0
 29 30  1  0  0  0  0
M  END
>  <MODEL>
6

>  <REMARK>
 VINA RESULT:      -6.2      2.197      5.049
  Name = 
  4 active torsions:
  status: ('A' for Active; 'I' for Inactive)
    1  A    between atoms: C_3  and  CA_9
    2  A    between atoms: N_5  and  CA_9
    3  A    between atoms: C_8  and  CA_9
    4  A    between atoms: N_17  and  C_20
                            x       y       z     vdW  Elec       q    Type
                         _______ _______ _______ _____ _____    ______ ____

>  <TORSDO>
F 4

$$$$
=
 OpenBabel11062419423D

 30 35  0  0  1  0  0  0  0  0999 V2000
  194.8280  175.4140  140.8290 C   0  0  2  0  0  3  0  0  0  0  0  0
  189.6920  174.1760  141.2590 C   0  0  1  0  0  3  0  0  0  0  0  0
  190.5060  174.1100  140.1240 O   0  0  0  0  0  0  0  0  0  0  0  0
  189.7440  175.7050  143.0770 C   0  0  0  0  0  0  0  0  0  0  0  0
  190.4330  174.8200  142.3760 C   0  0  0  0  0  0  0  0  0  0  0  0
  191.7520  174.4920  142.7110 O   0  0  0  0  0  0  0  0  0  0  0  0
  194.3270  174.2440  140.1920 O   0  0  0  0  0  0  0  0  0  0  0  0
  192.8250  174.6110  141.8170 C   0  0  0  0  0  0  0  0  0  0  0  0
  190.9220  172.7690  139.9600 C   0  0  1  0  0  3  0  0  0  0  0  0
  193.1190  173.8410  140.7600 C   0  0  0  0  0  0  0  0  0  0  0  0
  188.3590  175.9540  142.5940 C   0  0  0  0  0  2  0  0  0  0  0  0
  194.4420  175.9750  143.1080 C   0  0  1  0  0  3  0  0  0  0  0  0
  196.2030  176.2710  142.9540 S   0  0  0  0  0  0  0  0  0  0  0  0
  196.1900  175.2040  141.4660 C   0  0  0  0  0  2  0  0  0  0  0  0
  192.3640  172.6530  140.1980 C   0  0  1  0  0  0  0  0  0  0  0  0
  191.4520  172.1570  141.2030 N   0  0  2  0  0  0  0  0  0  0  0  0
  193.9090  175.5680  141.9690 C   0  0  1  0  0  3  0  0  0  0  0  0
  192.6670  171.4500  140.8890 N   0  0  0  0  0  2  0  0  0  0  0  0
  188.2270  175.2050  140.9370 S   0  0  0  0  0  0  0  0  0  0  0  0
  193.2090  176.1830  146.7750 C   0  0  0  0  0  1  0  0  0  0  0  0
  193.8810  176.5950  145.5160 C   0  0  0  0  0  0  0  0  0  0  0  0
  193.7850  175.7530  144.3630 N   0  0  0  0  0  2  0  0  0  0  0  0
  194.5020  177.6890  145.4750 O   0  0  0  0  0  0  0  0  0  0  0  0
  190.3220  176.3730  144.2900 C   0  0  2  0  0  3  0  0  0  0  0  0
  190.4050  173.8180  145.7210 O   0  0  0  0  0  0  0  0  0  0  0  0
  189.5960  176.0070  145.5060 N   0  0  0  0  0  2  0  0  0  0  0  0
  188.9380  174.5370  147.4430 C   0  0  0  0  0  1  0  0  0  0  0  0
  189.6950  174.7500  146.1830 C   0  0  0  0  0  0  0  0  0  0  0  0
  190.4440  177.8820  144.1230 C   0  0  0  0  0  2  0  0  0  0  0  0
  191.5220  178.1810  143.2900 O   0  0  0  0  0  1  0  0  0  0  0  0
  1 14  1  1  0  0  0
  1 17  1  0  0  0  0
  2  3  1  6  0  0  0
  2  5  1  0  0  0  0
  4 24  1  0  0  0  0
  5  6  1  0  0  0  0
  5  4  2  0  0  0  0
  7 10  1  0  0  0  0
  7  1  1  0  0  0  0
  8  6  1  0  0  0  0
  9  3  1  1  0  0  0
  9 15  1  0  0  0  0
  9 16  1  0  0  0  0
 10  8  2  0  0  0  0
 11  4  1  0  0  0  0
 12 22  1  1  0  0  0
 13 12  1  0  0  0  0
 14 13  1  0  0  0  0
 15 10  1  1  0  0  0
 15 18  1  0  0  0  0
 15 16  1  0  0  0  0
 16 18  1  6  0  0  0
 17  8  1  1  0  0  0
 17 12  1  0  0  0  0
 19  2  1  0  0  0  0
 19 11  1  0  0  0  0
 21 20  1  0  0  0  0
 22 21  1  0  0  0  0
 23 21  2  0  0  0  0
 24 29  1  6  0  0  0
 24 26  1  0  0  0  0
 25 28  2  0  0  0  0
 26 28  1  0  0  0  0
 28 27  1  0  0  0  0
 30 29  1  0  0  0  0
M  END
>  <MODEL>
7

>  <REMARK>
 VINA RESULT:      -6.1      3.215      7.124
  Name = 
  4 active torsions:
  status: ('A' for Active; 'I' for Inactive)
    1  A    between atoms: C_3  and  CA_9
    2  A    between atoms: N_5  and  CA_9
    3  A    between atoms: C_8  and  CA_9
    4  A    between atoms: N_17  and  C_20
                            x       y       z     vdW  Elec       q    Type
                         _______ _______ _______ _____ _____    ______ ____

>  <TORSDO>
F 4

$$$$
=
 OpenBabel11062419423D

 30 35  0  0  1  0  0  0  0  0999 V2000
  188.6230  176.4160  146.2910 C   0  0  2  0  0  3  0  0  0  0  0  0
  189.1980  174.5410  141.3670 C   0  0  1  0  0  3  0  0  0  0  0  0
  188.0140  174.7360  142.0860 O   0  0  0  0  0  0  0  0  0  0  0  0
  191.3570  173.9150  142.1360 C   0  0  0  0  0  0  0  0  0  0  0  0
  190.3710  174.7910  142.2460 C   0  0  0  0  0  0  0  0  0  0  0  0
  190.4680  175.8950  143.1000 O   0  0  0  0  0  0  0  0  0  0  0  0
  187.7370  176.8460  145.2630 O   0  0  0  0  0  0  0  0  0  0  0  0
  189.5410  176.1640  144.1160 C   0  0  0  0  0  0  0  0  0  0  0  0
  187.4410  175.9570  141.6650 C   0  0  1  0  0  3  0  0  0  0  0  0
  188.2860  176.6230  144.0010 C   0  0  0  0  0  0  0  0  0  0  0  0
  191.1030  172.7910  141.1950 C   0  0  0  0  0  2  0  0  0  0  0  0
  190.9950  176.4140  146.1080 C   0  0  1  0  0  3  0  0  0  0  0  0
  190.7550  177.1540  147.7230 S   0  0  0  0  0  0  0  0  0  0  0  0
  189.0370  177.5410  147.2230 C   0  0  0  0  0  2  0  0  0  0  0  0
  187.4920  176.9420  142.7490 C   0  0  1  0  0  0  0  0  0  0  0  0
  188.4040  177.0850  141.6380 N   0  0  2  0  0  0  0  0  0  0  0  0
  189.8460  176.0960  145.5360 C   0  0  1  0  0  3  0  0  0  0  0  0
  187.7850  178.2360  142.2450 N   0  0  0  0  0  2  0  0  0  0  0  0
  189.3240  172.8190  140.7960 S   0  0  0  0  0  0  0  0  0  0  0  0
  194.6730  176.5280  144.8980 C   0  0  0  0  0  1  0  0  0  0  0  0
  193.5160  176.2300  145.7800 C   0  0  0  0  0  0  0  0  0  0  0  0
  192.1960  176.5650  145.3400 N   0  0  0  0  0  2  0  0  0  0  0  0
  193.7110  175.6650  146.8880 O   0  0  0  0  0  0  0  0  0  0  0  0
  192.6450  174.0800  142.8880 C   0  0  2  0  0  3  0  0  0  0  0  0
  193.8180  176.4440  141.6180 O   0  0  0  0  0  0  0  0  0  0  0  0
  193.7950  174.1300  141.9870 N   0  0  0  0  0  2  0  0  0  0  0  0
  195.5560  175.2250  140.5550 C   0  0  0  0  0  1  0  0  0  0  0  0
  194.3470  175.3200  141.4140 C   0  0  0  0  0  0  0  0  0  0  0  0
  192.8170  173.0380  143.9860 C   0  0  0  0  0  2  0  0  0  0  0  0
  191.7770  173.1450  144.9080 O   0  0  0  0  0  1  0  0  0  0  0  0
  1 14  1  1  0  0  0
  2 19  1  1  0  0  0
  2  3  1  0  0  0  0
  2  5  1  0  0  0  0
  4  5  2  0  0  0  0
  4 24  1  0  0  0  0
  5  6  1  0  0  0  0
  6  8  1  0  0  0  0
  7  1  1  0  0  0  0
  9  3  1  1  0  0  0
  9 15  1  0  0  0  0
 10  8  2  0  0  0  0
 10  7  1  0  0  0  0
 11  4  1  0  0  0  0
 12 22  1  6  0  0  0
 12 13  1  0  0  0  0
 14 13  1  0  0  0  0
 15 18  1  1  0  0  0
 15 10  1  0  0  0  0
 16  9  1  0  0  0  0
 16 18  1  6  0  0  0
 16 15  1  0  0  0  0
 17  8  1  6  0  0  0
 17 12  1  0  0  0  0
 17  1  1  0  0  0  0
 19 11  1  0  0  0  0
 20 21  1  0  0  0  0
 21 23  2  0  0  0  0
 22 21  1  0  0  0  0
 24 29  1  1  0  0  0
 26 24  1  0  0  0  0
 27 28  1  0  0  0  0
 28 25  2  0  0  0  0
 28 26  1  0  0  0  0
 29 30  1  0  0  0  0
M  END
>  <MODEL>
8

>  <REMARK>
 VINA RESULT:      -6.1      2.592      5.443
  Name = 
  4 active torsions:
  status: ('A' for Active; 'I' for Inactive)
    1  A    between atoms: C_3  and  CA_9
    2  A    between atoms: N_5  and  CA_9
    3  A    between atoms: C_8  and  CA_9
    4  A    between atoms: N_17  and  C_20
                            x       y       z     vdW  Elec       q    Type
                         _______ _______ _______ _____ _____    ______ ____

>  <TORSDO>
F 4

$$$$
=
 OpenBabel11062419423D

 30 35  0  0  1  0  0  0  0  0999 V2000
  192.8100  174.8370  144.3550 C   0  0  2  0  0  3  0  0  0  0  0  0
  188.6620  173.9860  141.1660 C   0  0  1  0  0  3  0  0  0  0  0  0
  189.9560  173.4660  141.0600 O   0  0  0  0  0  0  0  0  0  0  0  0
  187.9370  176.0970  141.9790 C   0  0  0  0  0  0  0  0  0  0  0  0
  188.6100  174.9940  142.2590 C   0  0  0  0  0  0  0  0  0  0  0  0
  189.1830  174.7890  143.5190 O   0  0  0  0  0  0  0  0  0  0  0  0
  192.5470  173.5240  143.8730 O   0  0  0  0  0  0  0  0  0  0  0  0
  190.5470  174.5270  143.7100 C   0  0  0  0  0  0  0  0  0  0  0  0
  189.9480  172.1570  141.5920 C   0  0  1  0  0  3  0  0  0  0  0  0
  191.2250  173.4010  143.4460 C   0  0  0  0  0  0  0  0  0  0  0  0
  187.3930  176.1740  140.5950 C   0  0  0  0  0  2  0  0  0  0  0  0
  191.1880  176.2450  145.3770 C   0  0  1  0  0  3  0  0  0  0  0  0
  192.5760  176.4150  146.4990 S   0  0  0  0  0  0  0  0  0  0  0  0
  193.2460  174.8570  145.8090 C   0  0  0  0  0  2  0  0  0  0  0  0
  190.7330  172.1070  142.8290 C   0  0  1  0  0  0  0  0  0  0  0  0
  189.2920  172.0610  142.9190 N   0  0  2  0  0  0  0  0  0  0  0  0
  191.4670  175.4420  144.3650 C   0  0  1  0  0  3  0  0  0  0  0  0
  190.1170  171.2580  143.7850 N   0  0  0  0  0  2  0  0  0  0  0  0
  188.1900  174.8450  139.6340 S   0  0  0  0  0  0  0  0  0  0  0  0
  187.6320  176.2020  146.9150 C   0  0  0  0  0  1  0  0  0  0  0  0
  189.0540  175.8250  146.7060 C   0  0  0  0  0  0  0  0  0  0  0  0
  189.8350  176.5420  145.7460 N   0  0  0  0  0  2  0  0  0  0  0  0
  189.5560  174.9000  147.3960 O   0  0  0  0  0  0  0  0  0  0  0  0
  187.7160  177.1680  143.0070 C   0  0  2  0  0  3  0  0  0  0  0  0
  186.3230  178.6570  145.1090 O   0  0  0  0  0  0  0  0  0  0  0  0
  186.3380  177.6590  142.9890 N   0  0  0  0  0  2  0  0  0  0  0  0
  184.3190  178.8920  143.8570 C   0  0  0  0  0  1  0  0  0  0  0  0
  185.7130  178.4090  144.0350 C   0  0  0  0  0  0  0  0  0  0  0  0
  188.7320  178.2980  142.8990 C   0  0  0  0  0  2  0  0  0  0  0  0
  189.9330  177.8080  142.3870 O   0  0  0  0  0  1  0  0  0  0  0  0
  1 17  1  0  0  0  0
  1 14  1  1  0  0  0
  2 19  1  6  0  0  0
  2  5  1  0  0  0  0
  3  2  1  0  0  0  0
  4  5  2  0  0  0  0
  4 24  1  0  0  0  0
  5  6  1  0  0  0  0
  6  8  1  0  0  0  0
  7  1  1  0  0  0  0
  9  3  1  1  0  0  0
  9 15  1  0  0  0  0
  9 16  1  0  0  0  0
 10  8  2  0  0  0  0
 10  7  1  0  0  0  0
 11  4  1  0  0  0  0
 12 22  1  1  0  0  0
 12 13  1  0  0  0  0
 14 13  1  0  0  0  0
 15 16  1  0  0  0  0
 15 10  1  1  0  0  0
 15 18  1  0  0  0  0
 16 18  1  6  0  0  0
 17  8  1  1  0  0  0
 17 12  1  0  0  0  0
 19 11  1  0  0  0  0
 21 20  1  0  0  0  0
 21 23  2  0  0  0  0
 22 21  1  0  0  0  0
 24 29  1  6  0  0  0
 26 24  1  0  0  0  0
 26 28  1  0  0  0  0
 27 28  1  0  0  0  0
 28 25  2  0  0  0  0
 30 29  1  0  0  0  0
M  END
>  <MODEL>
9

>  <REMARK>
 VINA RESULT:      -5.9      2.035      6.779
  Name = 
  4 active torsions:
  status: ('A' for Active; 'I' for Inactive)
    1  A    between atoms: C_3  and  CA_9
    2  A    between atoms: N_5  and  CA_9
    3  A    between atoms: C_8  and  CA_9
    4  A    between atoms: N_17  and  C_20
                            x       y       z     vdW  Elec       q    Type
                         _______ _______ _______ _____ _____    ______ ____

>  <TORSDO>
F 4

$$$$
