=
 OpenBabel11062421083D

 27 30  0  0  1  0  0  0  0  0999 V2000
  189.3120  174.1120  145.6240 O   0  0  0  0  0  0  0  0  0  0  0  0
  191.4840  171.4300  142.9410 N   0  0  0  0  0  2  0  0  0  0  0  0
  191.9770  176.4640  143.0870 C   0  0  0  0  0  2  0  0  0  0  0  0
  190.8700  175.6590  143.7450 C   0  0  0  0  0  0  0  0  0  0  0  0
  189.7780  177.9250  144.3040 C   0  0  0  0  0  2  0  0  0  0  0  0
  192.2870  173.6930  143.4950 C   0  0  0  0  0  3  0  0  0  0  0  0
  190.0710  171.6240  143.2090 C   0  0  0  0  0  2  0  0  0  0  0  0
  191.0290  174.3280  143.9690 C   0  0  0  0  0  0  0  0  0  0  0  0
  191.1700  178.3990  143.8930 C   0  0  0  0  0  2  0  0  0  0  0  0
  190.0320  173.5420  144.7610 C   0  0  0  0  0  0  0  0  0  0  0  0
  191.5470  177.7490  142.7110 O   0  0  0  0  0  0  0  0  0  0  0  0
  189.8980  172.0610  144.6450 C   0  0  0  0  0  2  0  0  0  0  0  0
  189.6040  176.4020  144.1390 C   0  0  1  0  0  3  0  0  0  0  0  0
  192.4910  172.4380  143.0760 C   0  0  0  0  0  3  0  0  0  0  0  0
  188.4240  176.0310  143.2290 C   0  0  2  0  0  3  0  0  0  0  0  0
  188.2060  174.2440  141.6140 O   0  0  0  0  0  1  0  0  0  0  0  0
  188.8390  175.4620  141.8680 C   0  0  0  0  0  2  0  0  0  0  0  0
  187.4260  177.1800  143.1080 C   0  0  0  0  0  2  0  0  0  0  0  0
  185.0280  177.4380  142.6960 N   0  0  0  0  0  0  0  0  0  0  0  0
  186.0290  176.7630  143.5520 C   0  0  2  0  0  3  0  0  0  0  0  0
  184.7020  178.0940  144.8890 C   0  0  0  0  0  0  0  0  0  0  0  0
  184.7580  178.3670  147.2670 C   0  0  0  0  0  3  0  0  0  0  0  0
  186.3360  176.8720  146.1510 C   0  0  0  0  0  3  0  0  0  0  0  0
  185.8350  177.4580  147.3280 C   0  0  0  0  0  3  0  0  0  0  0  0
  184.1740  178.6920  146.0300 C   0  0  0  0  0  3  0  0  0  0  0  0
  185.7430  177.2300  144.9390 C   0  0  0  0  0  0  0  0  0  0  0  0
  184.2590  178.2420  143.5640 N   0  0  0  0  0  0  0  0  0  0  0  0
  2 14  1  0  0  0  0
  2  7  1  0  0  0  0
  3  4  1  0  0  0  0
  4  8  2  0  0  0  0
  4 13  1  0  0  0  0
  6  8  1  0  0  0  0
  7 12  1  0  0  0  0
  8 10  1  0  0  0  0
  9  5  1  0  0  0  0
 10  1  2  0  0  0  0
 11  3  1  0  0  0  0
 11  9  1  0  0  0  0
 12 10  1  0  0  0  0
 13 15  1  6  0  0  0
 13  5  1  0  0  0  0
 14  6  2  0  0  0  0
 15 17  1  6  0  0  0
 16 17  1  0  0  0  0
 18 15  1  0  0  0  0
 19 20  1  0  0  0  0
 19 27  2  0  0  0  0
 20 18  1  6  0  0  0
 20 26  1  0  0  0  0
 21 26  2  0  0  0  0
 21 25  1  0  0  0  0
 22 24  1  0  0  0  0
 23 24  2  0  0  0  0
 25 22  2  0  0  0  0
 26 23  1  0  0  0  0
 27 21  1  0  0  0  0
M  END
>  <MODEL>
1

>  <REMARK>
 VINA RESULT:      -7.5      0.000      0.000
  Name = 
  4 active torsions:
  status: ('A' for Active; 'I' for Inactive)
    1  A    between atoms: C_2  and  C_14
    2  A    between atoms: C_2  and  C_20
    3  A    between atoms: C_2  and  C_26
    4  A    between atoms: C_5  and  C_20
                            x       y       z     vdW  Elec       q    Type
                         _______ _______ _______ _____ _____    ______ ____

>  <TORSDO>
F 4

$$$$
=
 OpenBabel11062421083D

 27 30  0  0  1  0  0  0  0  0999 V2000
  187.4560  174.1460  142.3650 O   0  0  0  0  0  0  0  0  0  0  0  0
  190.4880  172.4250  139.7280 N   0  0  0  0  0  2  0  0  0  0  0  0
  191.1870  173.6700  144.5830 C   0  0  0  0  0  2  0  0  0  0  0  0
  190.0070  174.0820  143.7200 C   0  0  0  0  0  0  0  0  0  0  0  0
  189.2900  175.5700  145.6970 C   0  0  0  0  0  2  0  0  0  0  0  0
  190.6350  172.2970  142.1840 C   0  0  0  0  0  3  0  0  0  0  0  0
  189.6340  173.5930  139.6170 C   0  0  0  0  0  2  0  0  0  0  0  0
  189.7220  173.4030  142.5780 C   0  0  0  0  0  0  0  0  0  0  0  0
  190.3420  174.7050  146.3880 C   0  0  0  0  0  2  0  0  0  0  0  0
  188.4760  173.6750  141.7950 C   0  0  0  0  0  0  0  0  0  0  0  0
  191.4790  174.6250  145.5740 O   0  0  0  0  0  0  0  0  0  0  0  0
  188.3400  173.3280  140.3500 C   0  0  0  0  0  2  0  0  0  0  0  0
  189.1740  175.2620  144.1910 C   0  0  1  0  0  3  0  0  0  0  0  0
  190.9470  171.8570  140.9590 C   0  0  0  0  0  3  0  0  0  0  0  0
  189.3980  176.5000  143.3100 C   0  0  2  0  0  3  0  0  0  0  0  0
  191.2290  177.9480  143.9420 O   0  0  0  0  0  1  0  0  0  0  0  0
  190.8720  176.8760  143.1220 C   0  0  0  0  0  2  0  0  0  0  0  0
  188.5430  177.6780  143.7700 C   0  0  0  0  0  2  0  0  0  0  0  0
  186.7510  178.6790  142.4370 N   0  0  0  0  0  0  0  0  0  0  0  0
  187.0950  177.5370  143.3140 C   0  0  2  0  0  3  0  0  0  0  0  0
  185.3670  178.7120  144.2880 C   0  0  0  0  0  0  0  0  0  0  0  0
  184.1790  178.2370  146.3120 C   0  0  0  0  0  3  0  0  0  0  0  0
  185.9910  176.7790  145.5650 C   0  0  0  0  0  3  0  0  0  0  0  0
  184.9890  177.0990  146.4990 C   0  0  0  0  0  3  0  0  0  0  0  0
  184.3620  179.0610  145.1870 C   0  0  0  0  0  3  0  0  0  0  0  0
  186.1560  177.6280  144.4680 C   0  0  0  0  0  0  0  0  0  0  0  0
  185.7030  179.3620  143.0880 N   0  0  0  0  0  0  0  0  0  0  0  0
  2 14  1  0  0  0  0
  3 11  1  0  0  0  0
  4 13  1  0  0  0  0
  4  3  1  0  0  0  0
  5  9  1  0  0  0  0
  6  8  1  0  0  0  0
  7  2  1  0  0  0  0
  7 12  1  0  0  0  0
  8  4  2  0  0  0  0
 10  1  2  0  0  0  0
 10  8  1  0  0  0  0
 11  9  1  0  0  0  0
 12 10  1  0  0  0  0
 13 15  1  6  0  0  0
 13  5  1  0  0  0  0
 14  6  2  0  0  0  0
 15 17  1  1  0  0  0
 15 18  1  0  0  0  0
 17 16  1  0  0  0  0
 19 27  2  0  0  0  0
 19 20  1  0  0  0  0
 20 18  1  1  0  0  0
 20 26  1  0  0  0  0
 21 26  2  0  0  0  0
 21 25  1  0  0  0  0
 22 24  1  0  0  0  0
 23 24  2  0  0  0  0
 25 22  2  0  0  0  0
 26 23  1  0  0  0  0
 27 21  1  0  0  0  0
M  END
>  <MODEL>
2

>  <REMARK>
 VINA RESULT:      -7.5      1.713      2.800
  Name = 
  4 active torsions:
  status: ('A' for Active; 'I' for Inactive)
    1  A    between atoms: C_2  and  C_14
    2  A    between atoms: C_2  and  C_20
    3  A    between atoms: C_2  and  C_26
    4  A    between atoms: C_5  and  C_20
                            x       y       z     vdW  Elec       q    Type
                         _______ _______ _______ _____ _____    ______ ____

>  <TORSDO>
F 4

$$$$
=
 OpenBabel11062421083D

 27 30  0  0  1  0  0  0  0  0999 V2000
  191.8380  177.5740  144.1850 O   0  0  0  0  0  0  0  0  0  0  0  0
  194.9270  175.0940  146.0360 N   0  0  0  0  0  2  0  0  0  0  0  0
  190.8770  173.3630  143.5440 C   0  0  0  0  0  2  0  0  0  0  0  0
  191.0840  174.7890  144.0230 C   0  0  0  0  0  0  0  0  0  0  0  0
  188.6560  175.2190  143.2750 C   0  0  0  0  0  2  0  0  0  0  0  0
  193.4540  174.2650  144.2430 C   0  0  0  0  0  3  0  0  0  0  0  0
  194.0800  176.1570  146.5450 C   0  0  0  0  0  2  0  0  0  0  0  0
  192.3300  175.2360  144.3320 C   0  0  0  0  0  0  0  0  0  0  0  0
  188.9030  173.8720  142.5990 C   0  0  0  0  0  2  0  0  0  0  0  0
  192.5920  176.6750  144.6460 C   0  0  0  0  0  0  0  0  0  0  0  0
  189.5170  173.0060  143.5130 O   0  0  0  0  0  0  0  0  0  0  0  0
  193.7810  177.1270  145.4260 C   0  0  0  0  0  2  0  0  0  0  0  0
  189.8550  175.6770  144.1290 C   0  0  1  0  0  3  0  0  0  0  0  0
  194.5840  174.2180  144.9570 C   0  0  0  0  0  3  0  0  0  0  0  0
  189.4770  175.9460  145.5940 C   0  0  2  0  0  3  0  0  0  0  0  0
  189.0920  174.5560  147.5350 O   0  0  0  0  0  1  0  0  0  0  0  0
  190.0460  174.9240  146.5840 C   0  0  0  0  0  2  0  0  0  0  0  0
  187.9730  176.1510  145.7550 C   0  0  0  0  0  2  0  0  0  0  0  0
  187.0810  177.6210  147.4970 N   0  0  0  0  0  0  0  0  0  0  0  0
  187.6360  177.5910  146.1250 C   0  0  2  0  0  3  0  0  0  0  0  0
  185.4900  178.4280  146.0260 C   0  0  0  0  0  0  0  0  0  0  0  0
  184.2760  179.2320  144.1250 C   0  0  0  0  0  3  0  0  0  0  0  0
  186.5540  178.3870  143.8760 C   0  0  0  0  0  3  0  0  0  0  0  0
  185.3890  178.9380  143.3120 C   0  0  0  0  0  3  0  0  0  0  0  0
  184.3200  178.9790  145.5080 C   0  0  0  0  0  3  0  0  0  0  0  0
  186.5580  178.1330  145.2490 C   0  0  0  0  0  0  0  0  0  0  0  0
  185.7700  178.1280  147.3690 N   0  0  0  0  0  0  0  0  0  0  0  0
  1 10  2  0  0  0  0
  2  7  1  0  0  0  0
  3  4  1  0  0  0  0
  4 13  1  0  0  0  0
  4  8  2  0  0  0  0
  5 13  1  0  0  0  0
  6  8  1  0  0  0  0
  6 14  2  0  0  0  0
  8 10  1  0  0  0  0
  9  5  1  0  0  0  0
  9 11  1  0  0  0  0
 10 12  1  0  0  0  0
 11  3  1  0  0  0  0
 12  7  1  0  0  0  0
 13 15  1  1  0  0  0
 14  2  1  0  0  0  0
 15 18  1  6  0  0  0
 15 17  1  0  0  0  0
 17 16  1  0  0  0  0
 20 18  1  6  0  0  0
 20 19  1  0  0  0  0
 21 27  1  0  0  0  0
 22 25  2  0  0  0  0
 23 26  1  0  0  0  0
 24 23  2  0  0  0  0
 24 22  1  0  0  0  0
 25 21  1  0  0  0  0
 26 21  2  0  0  0  0
 26 20  1  0  0  0  0
 27 19  2  0  0  0  0
M  END
>  <MODEL>
3

>  <REMARK>
 VINA RESULT:      -7.3      2.431      3.959
  Name = 
  4 active torsions:
  status: ('A' for Active; 'I' for Inactive)
    1  A    between atoms: C_2  and  C_14
    2  A    between atoms: C_2  and  C_20
    3  A    between atoms: C_2  and  C_26
    4  A    between atoms: C_5  and  C_20
                            x       y       z     vdW  Elec       q    Type
                         _______ _______ _______ _____ _____    ______ ____

>  <TORSDO>
F 4

$$$$
=
 OpenBabel11062421083D

 27 30  0  0  1  0  0  0  0  0999 V2000
  189.3930  173.7380  144.3860 O   0  0  0  0  0  0  0  0  0  0  0  0
  193.1310  172.2930  142.6390 N   0  0  0  0  0  2  0  0  0  0  0  0
  192.7560  175.3180  146.6790 C   0  0  0  0  0  2  0  0  0  0  0  0
  191.6370  174.9910  145.7050 C   0  0  0  0  0  0  0  0  0  0  0  0
  190.2470  176.7570  146.9650 C   0  0  0  0  0  2  0  0  0  0  0  0
  192.9710  173.0910  144.9650 C   0  0  0  0  0  3  0  0  0  0  0  0
  191.9930  173.0000  142.0830 C   0  0  0  0  0  2  0  0  0  0  0  0
  191.7260  173.9010  144.8990 C   0  0  0  0  0  0  0  0  0  0  0  0
  191.4030  176.5840  147.9480 C   0  0  0  0  0  2  0  0  0  0  0  0
  190.5750  173.4570  144.0510 C   0  0  0  0  0  0  0  0  0  0  0  0
  192.6130  176.5990  147.2420 O   0  0  0  0  0  0  0  0  0  0  0  0
  190.7480  172.6020  142.8410 C   0  0  0  0  0  2  0  0  0  0  0  0
  190.4350  175.9200  145.6840 C   0  0  1  0  0  3  0  0  0  0  0  0
  193.5640  172.3770  144.0010 C   0  0  0  0  0  3  0  0  0  0  0  0
  190.4000  176.7700  144.4050 C   0  0  2  0  0  3  0  0  0  0  0  0
  192.1830  176.8960  142.7760 O   0  0  0  0  0  1  0  0  0  0  0  0
  191.7540  177.3720  144.0170 C   0  0  0  0  0  2  0  0  0  0  0  0
  189.2840  177.8110  144.4540 C   0  0  0  0  0  2  0  0  0  0  0  0
  187.6230  178.1190  142.6830 N   0  0  0  0  0  0  0  0  0  0  0  0
  187.9900  177.2800  143.8460 C   0  0  2  0  0  3  0  0  0  0  0  0
  185.9380  178.2460  144.2600 C   0  0  0  0  0  0  0  0  0  0  0  0
  184.4970  177.9630  146.1520 C   0  0  0  0  0  3  0  0  0  0  0  0
  186.6370  176.7910  146.0350 C   0  0  0  0  0  3  0  0  0  0  0  0
  185.4420  177.0820  146.7170 C   0  0  0  0  0  3  0  0  0  0  0  0
  184.7400  178.5560  144.9000 C   0  0  0  0  0  3  0  0  0  0  0  0
  186.8540  177.4100  144.8030 C   0  0  0  0  0  0  0  0  0  0  0  0
  186.3720  178.6890  143.0000 N   0  0  0  0  0  0  0  0  0  0  0  0
  2 14  1  0  0  0  0
  3 11  1  0  0  0  0
  4  3  1  0  0  0  0
  5  9  1  0  0  0  0
  7  2  1  0  0  0  0
  7 12  1  0  0  0  0
  8  6  1  0  0  0  0
  8  4  2  0  0  0  0
 10  1  2  0  0  0  0
 10  8  1  0  0  0  0
 11  9  1  0  0  0  0
 12 10  1  0  0  0  0
 13 15  1  6  0  0  0
 13  4  1  0  0  0  0
 13  5  1  0  0  0  0
 14  6  2  0  0  0  0
 15 17  1  1  0  0  0
 15 18  1  0  0  0  0
 16 17  1  0  0  0  0
 19 27  2  0  0  0  0
 19 20  1  0  0  0  0
 20 18  1  1  0  0  0
 20 26  1  0  0  0  0
 21 26  2  0  0  0  0
 21 25  1  0  0  0  0
 22 24  1  0  0  0  0
 23 24  2  0  0  0  0
 25 22  2  0  0  0  0
 26 23  1  0  0  0  0
 27 21  1  0  0  0  0
M  END
>  <MODEL>
4

>  <REMARK>
 VINA RESULT:      -7.3      1.922      2.539
  Name = 
  4 active torsions:
  status: ('A' for Active; 'I' for Inactive)
    1  A    between atoms: C_2  and  C_14
    2  A    between atoms: C_2  and  C_20
    3  A    between atoms: C_2  and  C_26
    4  A    between atoms: C_5  and  C_20
                            x       y       z     vdW  Elec       q    Type
                         _______ _______ _______ _____ _____    ______ ____

>  <TORSDO>
F 4

$$$$
=
 OpenBabel11062421083D

 27 30  0  0  1  0  0  0  0  0999 V2000
  189.5610  173.6450  144.7590 O   0  0  0  0  0  0  0  0  0  0  0  0
  190.9350  173.3860  140.6160 N   0  0  0  0  0  2  0  0  0  0  0  0
  193.4030  175.6860  144.3880 C   0  0  0  0  0  2  0  0  0  0  0  0
  191.9560  175.2250  144.4220 C   0  0  0  0  0  0  0  0  0  0  0  0
  191.8000  176.4240  146.6970 C   0  0  0  0  0  2  0  0  0  0  0  0
  192.4640  173.8160  142.5000 C   0  0  0  0  0  3  0  0  0  0  0  0
  189.7030  173.8610  141.2180 C   0  0  0  0  0  2  0  0  0  0  0  0
  191.5090  174.3020  143.5320 C   0  0  0  0  0  0  0  0  0  0  0  0
  193.3150  176.4120  146.5120 C   0  0  0  0  0  2  0  0  0  0  0  0
  190.1410  173.7050  143.6420 C   0  0  0  0  0  0  0  0  0  0  0  0
  193.6220  176.8100  145.2040 O   0  0  0  0  0  0  0  0  0  0  0  0
  189.4390  173.0790  142.4830 C   0  0  0  0  0  2  0  0  0  0  0  0
  191.0550  175.8300  145.4860 C   0  0  1  0  0  3  0  0  0  0  0  0
  192.2170  173.3970  141.2530 C   0  0  0  0  0  3  0  0  0  0  0  0
  190.0340  176.8030  144.8760 C   0  0  2  0  0  3  0  0  0  0  0  0
  190.6990  177.9810  142.8710 O   0  0  0  0  0  1  0  0  0  0  0  0
  190.6600  178.0610  144.2640 C   0  0  0  0  0  2  0  0  0  0  0  0
  188.9070  177.1200  145.8550 C   0  0  0  0  0  2  0  0  0  0  0  0
  187.5270  176.3300  143.9950 N   0  0  0  0  0  0  0  0  0  0  0  0
  187.6110  176.4150  145.4710 C   0  0  2  0  0  3  0  0  0  0  0  0
  185.7340  177.5610  144.7780 C   0  0  0  0  0  0  0  0  0  0  0  0
  184.0740  178.6670  146.1020 C   0  0  0  0  0  3  0  0  0  0  0  0
  185.9680  177.5490  147.1660 C   0  0  0  0  0  3  0  0  0  0  0  0
  184.7790  178.2940  147.2650 C   0  0  0  0  0  3  0  0  0  0  0  0
  184.5510  178.2940  144.8330 C   0  0  0  0  0  3  0  0  0  0  0  0
  186.4220  177.2110  145.8900 C   0  0  0  0  0  0  0  0  0  0  0  0
  186.3720  177.0550  143.6340 N   0  0  0  0  0  0  0  0  0  0  0  0
  2  7  1  0  0  0  0
  2 14  1  0  0  0  0
  3  4  1  0  0  0  0
  3 11  1  0  0  0  0
  4 13  1  0  0  0  0
  6  8  1  0  0  0  0
  7 12  1  0  0  0  0
  8 10  1  0  0  0  0
  8  4  2  0  0  0  0
  9  5  1  0  0  0  0
 10  1  2  0  0  0  0
 11  9  1  0  0  0  0
 12 10  1  0  0  0  0
 13 15  1  6  0  0  0
 13  5  1  0  0  0  0
 14  6  2  0  0  0  0
 15 17  1  1  0  0  0
 15 18  1  0  0  0  0
 16 17  1  0  0  0  0
 19 20  1  0  0  0  0
 20 18  1  6  0  0  0
 20 26  1  0  0  0  0
 21 25  2  0  0  0  0
 21 26  1  0  0  0  0
 22 24  2  0  0  0  0
 23 24  1  0  0  0  0
 25 22  1  0  0  0  0
 26 23  2  0  0  0  0
 27 19  2  0  0  0  0
 27 21  1  0  0  0  0
M  END
>  <MODEL>
5

>  <REMARK>
 VINA RESULT:      -7.2      1.821      2.482
  Name = 
  4 active torsions:
  status: ('A' for Active; 'I' for Inactive)
    1  A    between atoms: C_2  and  C_14
    2  A    between atoms: C_2  and  C_20
    3  A    between atoms: C_2  and  C_26
    4  A    between atoms: C_5  and  C_20
                            x       y       z     vdW  Elec       q    Type
                         _______ _______ _______ _____ _____    ______ ____

>  <TORSDO>
F 4

$$$$
=
 OpenBabel11062421083D

 27 30  0  0  1  0  0  0  0  0999 V2000
  187.7880  176.0350  146.8080 O   0  0  0  0  0  0  0  0  0  0  0  0
  184.6160  179.0410  146.7060 N   0  0  0  0  0  2  0  0  0  0  0  0
  186.5540  176.6830  142.6700 C   0  0  0  0  0  2  0  0  0  0  0  0
  187.1490  176.6900  144.0670 C   0  0  0  0  0  0  0  0  0  0  0  0
  189.1780  175.4860  143.0310 C   0  0  0  0  0  2  0  0  0  0  0  0
  184.9730  177.4230  144.8830 C   0  0  0  0  0  3  0  0  0  0  0  0
  185.9520  179.0380  147.2710 C   0  0  0  0  0  2  0  0  0  0  0  0
  186.3810  177.0170  145.1390 C   0  0  0  0  0  0  0  0  0  0  0  0
  188.1750  175.3390  141.8890 C   0  0  0  0  0  2  0  0  0  0  0  0
  186.8870  176.8740  146.5400 C   0  0  0  0  0  0  0  0  0  0  0  0
  187.5400  176.5690  141.6730 O   0  0  0  0  0  0  0  0  0  0  0  0
  186.3070  177.6300  147.6880 C   0  0  0  0  0  2  0  0  0  0  0  0
  188.6140  176.3110  144.2050 C   0  0  1  0  0  3  0  0  0  0  0  0
  184.2030  178.2740  145.5700 C   0  0  0  0  0  3  0  0  0  0  0  0
  189.4830  177.5300  144.5500 C   0  0  2  0  0  3  0  0  0  0  0  0
  191.1910  179.0410  143.7430 O   0  0  0  0  0  1  0  0  0  0  0  0
  190.1870  178.1580  143.3420 C   0  0  0  0  0  2  0  0  0  0  0  0
  190.4410  177.2290  145.7000 C   0  0  0  0  0  2  0  0  0  0  0  0
  190.9880  175.1800  146.9220 N   0  0  0  0  0  0  0  0  0  0  0  0
  191.0290  175.8270  145.5910 C   0  0  2  0  0  3  0  0  0  0  0  0
  193.1890  175.3340  146.2320 C   0  0  0  0  0  0  0  0  0  0  0  0
  195.2290  175.6680  145.0250 C   0  0  0  0  0  3  0  0  0  0  0  0
  193.0880  176.3260  144.0500 C   0  0  0  0  0  3  0  0  0  0  0  0
  194.4880  176.2230  143.9610 C   0  0  0  0  0  3  0  0  0  0  0  0
  194.5750  175.2100  146.1820 C   0  0  0  0  0  3  0  0  0  0  0  0
  192.4730  175.8770  145.2200 C   0  0  0  0  0  0  0  0  0  0  0  0
  192.3310  174.9160  147.2630 N   0  0  0  0  0  0  0  0  0  0  0  0
  2  7  1  0  0  0  0
  3  4  1  0  0  0  0
  4 13  1  0  0  0  0
  4  8  2  0  0  0  0
  5 13  1  0  0  0  0
  6  8  1  0  0  0  0
  6 14  2  0  0  0  0
  7 12  1  0  0  0  0
  8 10  1  0  0  0  0
  9  5  1  0  0  0  0
 10  1  2  0  0  0  0
 10 12  1  0  0  0  0
 11  9  1  0  0  0  0
 11  3  1  0  0  0  0
 13 15  1  6  0  0  0
 14  2  1  0  0  0  0
 15 17  1  6  0  0  0
 15 18  1  0  0  0  0
 17 16  1  0  0  0  0
 19 27  2  0  0  0  0
 20 18  1  1  0  0  0
 20 19  1  0  0  0  0
 21 27  1  0  0  0  0
 22 25  2  0  0  0  0
 23 26  1  0  0  0  0
 24 23  2  0  0  0  0
 24 22  1  0  0  0  0
 25 21  1  0  0  0  0
 26 20  1  0  0  0  0
 26 21  2  0  0  0  0
M  END
>  <MODEL>
6

>  <REMARK>
 VINA RESULT:      -7.2      2.431      7.075
  Name = 
  4 active torsions:
  status: ('A' for Active; 'I' for Inactive)
    1  A    between atoms: C_2  and  C_14
    2  A    between atoms: C_2  and  C_20
    3  A    between atoms: C_2  and  C_26
    4  A    between atoms: C_5  and  C_20
                            x       y       z     vdW  Elec       q    Type
                         _______ _______ _______ _____ _____    ______ ____

>  <TORSDO>
F 4

$$$$
=
 OpenBabel11062421083D

 27 30  0  0  1  0  0  0  0  0999 V2000
  192.1310  177.1130  143.6370 O   0  0  0  0  0  0  0  0  0  0  0  0
  195.0450  175.5030  146.4720 N   0  0  0  0  0  2  0  0  0  0  0  0
  191.1560  172.9430  144.4910 C   0  0  0  0  0  2  0  0  0  0  0  0
  191.3500  174.4480  144.4370 C   0  0  0  0  0  0  0  0  0  0  0  0
  188.9870  174.5510  143.4130 C   0  0  0  0  0  2  0  0  0  0  0  0
  193.6900  174.0670  144.9990 C   0  0  0  0  0  3  0  0  0  0  0  0
  194.1800  176.6680  146.5020 C   0  0  0  0  0  2  0  0  0  0  0  0
  192.5770  174.9910  144.6520 C   0  0  0  0  0  0  0  0  0  0  0  0
  189.2620  173.0540  143.2880 C   0  0  0  0  0  2  0  0  0  0  0  0
  192.8370  176.4500  144.4440 C   0  0  0  0  0  0  0  0  0  0  0  0
  189.7960  172.5820  144.4940 O   0  0  0  0  0  0  0  0  0  0  0  0
  193.9750  177.1660  145.0910 C   0  0  0  0  0  2  0  0  0  0  0  0
  190.1300  175.3000  144.1280 C   0  0  1  0  0  3  0  0  0  0  0  0
  194.7670  174.2930  145.7600 C   0  0  0  0  0  3  0  0  0  0  0  0
  189.6530  176.0750  145.3660 C   0  0  2  0  0  3  0  0  0  0  0  0
  189.6670  174.9150  147.4890 O   0  0  0  0  0  1  0  0  0  0  0  0
  188.8790  175.2220  146.3770 C   0  0  0  0  0  2  0  0  0  0  0  0
  188.9080  177.3500  144.9770 C   0  0  0  0  0  2  0  0  0  0  0  0
  187.6680  177.8240  142.9220 N   0  0  0  0  0  0  0  0  0  0  0  0
  187.6450  177.0440  144.1800 C   0  0  2  0  0  3  0  0  0  0  0  0
  185.8210  178.4540  144.1600 C   0  0  0  0  0  0  0  0  0  0  0  0
  184.0660  178.6660  145.7750 C   0  0  0  0  0  3  0  0  0  0  0  0
  185.8810  177.0670  146.1160 C   0  0  0  0  0  3  0  0  0  0  0  0
  184.6860  177.6660  146.5530 C   0  0  0  0  0  3  0  0  0  0  0  0
  184.6350  179.0690  144.5540 C   0  0  0  0  0  3  0  0  0  0  0  0
  186.4270  177.5030  144.9070 C   0  0  0  0  0  0  0  0  0  0  0  0
  186.5410  178.6710  142.9740 N   0  0  0  0  0  0  0  0  0  0  0  0
  1 10  2  0  0  0  0
  2  7  1  0  0  0  0
  3 11  1  0  0  0  0
  4  3  1  0  0  0  0
  4  8  2  0  0  0  0
  5 13  1  0  0  0  0
  6 14  2  0  0  0  0
  8  6  1  0  0  0  0
  9  5  1  0  0  0  0
  9 11  1  0  0  0  0
 10  8  1  0  0  0  0
 10 12  1  0  0  0  0
 12  7  1  0  0  0  0
 13  4  1  0  0  0  0
 13 15  1  1  0  0  0
 14  2  1  0  0  0  0
 15 18  1  6  0  0  0
 15 17  1  0  0  0  0
 17 16  1  0  0  0  0
 19 27  2  0  0  0  0
 19 20  1  0  0  0  0
 20 26  1  0  0  0  0
 20 18  1  1  0  0  0
 21 25  2  0  0  0  0
 21 26  1  0  0  0  0
 22 24  2  0  0  0  0
 23 24  1  0  0  0  0
 25 22  1  0  0  0  0
 26 23  2  0  0  0  0
 27 21  1  0  0  0  0
M  END
>  <MODEL>
7

>  <REMARK>
 VINA RESULT:      -7.1      2.222      3.805
  Name = 
  4 active torsions:
  status: ('A' for Active; 'I' for Inactive)
    1  A    between atoms: C_2  and  C_14
    2  A    between atoms: C_2  and  C_20
    3  A    between atoms: C_2  and  C_26
    4  A    between atoms: C_5  and  C_20
                            x       y       z     vdW  Elec       q    Type
                         _______ _______ _______ _____ _____    ______ ____

>  <TORSDO>
F 4

$$$$
=
 OpenBabel11062421083D

 27 30  0  0  1  0  0  0  0  0999 V2000
  188.9920  173.2050  143.0810 O   0  0  0  0  0  0  0  0  0  0  0  0
  189.8780  173.2830  138.8000 N   0  0  0  0  0  2  0  0  0  0  0  0
  192.5280  175.6730  142.3890 C   0  0  0  0  0  2  0  0  0  0  0  0
  191.1520  175.0540  142.5620 C   0  0  0  0  0  0  0  0  0  0  0  0
  191.1450  176.1270  144.9050 C   0  0  0  0  0  2  0  0  0  0  0  0
  191.5690  173.7960  140.5180 C   0  0  0  0  0  3  0  0  0  0  0  0
  188.6850  173.5920  139.5650 C   0  0  0  0  0  2  0  0  0  0  0  0
  190.7000  174.1270  141.6780 C   0  0  0  0  0  0  0  0  0  0  0  0
  192.6210  176.2900  144.5470 C   0  0  0  0  0  2  0  0  0  0  0  0
  189.4250  173.3780  141.9100 C   0  0  0  0  0  0  0  0  0  0  0  0
  192.7240  176.7770  143.2370 O   0  0  0  0  0  0  0  0  0  0  0  0
  188.6580  172.7300  140.8060 C   0  0  0  0  0  2  0  0  0  0  0  0
  190.3260  175.5070  143.7550 C   0  0  1  0  0  3  0  0  0  0  0  0
  191.2190  173.4070  139.2860 C   0  0  0  0  0  3  0  0  0  0  0  0
  189.1440  176.3880  143.3220 C   0  0  2  0  0  3  0  0  0  0  0  0
  188.9560  178.4010  141.9960 O   0  0  0  0  0  1  0  0  0  0  0  0
  189.4930  177.8720  143.1710 C   0  0  0  0  0  2  0  0  0  0  0  0
  187.9200  176.1560  144.2050 C   0  0  0  0  0  2  0  0  0  0  0  0
  187.8540  176.4990  146.6270 N   0  0  0  0  0  0  0  0  0  0  0  0
  187.8240  177.1920  145.3190 C   0  0  2  0  0  3  0  0  0  0  0  0
  185.8530  177.6400  146.4290 C   0  0  0  0  0  0  0  0  0  0  0  0
  184.0290  179.0340  145.7500 C   0  0  0  0  0  3  0  0  0  0  0  0
  185.9840  178.7600  144.3110 C   0  0  0  0  0  3  0  0  0  0  0  0
  184.7190  179.3240  144.5550 C   0  0  0  0  0  3  0  0  0  0  0  0
  184.6010  178.1820  146.7110 C   0  0  0  0  0  3  0  0  0  0  0  0
  186.5150  177.9040  145.2780 C   0  0  0  0  0  0  0  0  0  0  0  0
  186.6240  176.7990  147.2490 N   0  0  0  0  0  0  0  0  0  0  0  0
  2 14  1  0  0  0  0
  2  7  1  0  0  0  0
  3  4  1  0  0  0  0
  3 11  1  0  0  0  0
  4 13  1  0  0  0  0
  6  8  1  0  0  0  0
  7 12  1  0  0  0  0
  8 10  1  0  0  0  0
  8  4  2  0  0  0  0
  9  5  1  0  0  0  0
 10  1  2  0  0  0  0
 11  9  1  0  0  0  0
 12 10  1  0  0  0  0
 13 15  1  6  0  0  0
 13  5  1  0  0  0  0
 14  6  2  0  0  0  0
 15 17  1  1  0  0  0
 15 18  1  0  0  0  0
 16 17  1  0  0  0  0
 19 27  2  0  0  0  0
 20 18  1  6  0  0  0
 20 19  1  0  0  0  0
 21 25  1  0  0  0  0
 21 27  1  0  0  0  0
 22 25  2  0  0  0  0
 23 24  2  0  0  0  0
 23 26  1  0  0  0  0
 24 22  1  0  0  0  0
 26 20  1  0  0  0  0
 26 21  2  0  0  0  0
M  END
>  <MODEL>
8

>  <REMARK>
 VINA RESULT:      -7.1      2.409      2.958
  Name = 
  4 active torsions:
  status: ('A' for Active; 'I' for Inactive)
    1  A    between atoms: C_2  and  C_14
    2  A    between atoms: C_2  and  C_20
    3  A    between atoms: C_2  and  C_26
    4  A    between atoms: C_5  and  C_20
                            x       y       z     vdW  Elec       q    Type
                         _______ _______ _______ _____ _____    ______ ____

>  <TORSDO>
F 4

$$$$
=
 OpenBabel11062421083D

 27 30  0  0  1  0  0  0  0  0999 V2000
  191.4990  175.7800  142.2310 O   0  0  0  0  0  0  0  0  0  0  0  0
  190.3600  172.0930  144.2880 N   0  0  0  0  0  2  0  0  0  0  0  0
  187.1600  175.3220  142.0650 C   0  0  0  0  0  2  0  0  0  0  0  0
  188.6200  175.5940  142.3840 C   0  0  0  0  0  0  0  0  0  0  0  0
  188.1620  178.0160  141.6340 C   0  0  0  0  0  2  0  0  0  0  0  0
  188.9140  173.1870  142.6200 C   0  0  0  0  0  3  0  0  0  0  0  0
  191.1420  173.2460  144.6930 C   0  0  0  0  0  2  0  0  0  0  0  0
  189.4740  174.5640  142.6220 C   0  0  0  0  0  0  0  0  0  0  0  0
  186.9020  177.3360  141.1040 C   0  0  0  0  0  2  0  0  0  0  0  0
  190.9460  174.7860  142.7740 C   0  0  0  0  0  0  0  0  0  0  0  0
  186.3820  176.4940  142.0960 O   0  0  0  0  0  0  0  0  0  0  0  0
  191.8370  173.8210  143.4810 C   0  0  0  0  0  2  0  0  0  0  0  0
  189.0700  177.0450  142.4140 C   0  0  1  0  0  3  0  0  0  0  0  0
  189.3090  172.1150  143.3160 C   0  0  0  0  0  3  0  0  0  0  0  0
  189.3590  177.5180  143.8470 C   0  0  2  0  0  3  0  0  0  0  0  0
  191.2510  179.0250  143.8850 O   0  0  0  0  0  1  0  0  0  0  0  0
  190.8480  177.7150  144.1510 C   0  0  0  0  0  2  0  0  0  0  0  0
  188.6570  176.6400  144.8790 C   0  0  0  0  0  2  0  0  0  0  0  0
  187.8770  176.5900  147.1980 N   0  0  0  0  0  0  0  0  0  0  0  0
  188.0790  177.4670  146.0230 C   0  0  2  0  0  3  0  0  0  0  0  0
  185.8340  177.4570  146.5490 C   0  0  0  0  0  0  0  0  0  0  0  0
  184.0440  178.6710  145.5220 C   0  0  0  0  0  3  0  0  0  0  0  0
  186.3320  178.8990  144.6980 C   0  0  0  0  0  3  0  0  0  0  0  0
  184.9690  179.2360  144.6210 C   0  0  0  0  0  3  0  0  0  0  0  0
  184.4770  177.7680  146.5090 C   0  0  0  0  0  3  0  0  0  0  0  0
  186.7250  177.9870  145.6790 C   0  0  0  0  0  0  0  0  0  0  0  0
  186.4910  176.6160  147.4620 N   0  0  0  0  0  0  0  0  0  0  0  0
  1 10  2  0  0  0  0
  2  7  1  0  0  0  0
  3 11  1  0  0  0  0
  3  4  1  0  0  0  0
  4 13  1  0  0  0  0
  4  8  2  0  0  0  0
  5 13  1  0  0  0  0
  6  8  1  0  0  0  0
  6 14  2  0  0  0  0
  8 10  1  0  0  0  0
  9  5  1  0  0  0  0
  9 11  1  0  0  0  0
 10 12  1  0  0  0  0
 12  7  1  0  0  0  0
 13 15  1  1  0  0  0
 14  2  1  0  0  0  0
 15 17  1  1  0  0  0
 15 18  1  0  0  0  0
 16 17  1  0  0  0  0
 19 27  2  0  0  0  0
 20 18  1  6  0  0  0
 20 19  1  0  0  0  0
 21 27  1  0  0  0  0
 22 25  2  0  0  0  0
 23 26  1  0  0  0  0
 24 23  2  0  0  0  0
 24 22  1  0  0  0  0
 25 21  1  0  0  0  0
 26 20  1  0  0  0  0
 26 21  2  0  0  0  0
M  END
>  <MODEL>
9

>  <REMARK>
 VINA RESULT:      -6.9      2.064      3.460
  Name = 
  4 active torsions:
  status: ('A' for Active; 'I' for Inactive)
    1  A    between atoms: C_2  and  C_14
    2  A    between atoms: C_2  and  C_20
    3  A    between atoms: C_2  and  C_26
    4  A    between atoms: C_5  and  C_20
                            x       y       z     vdW  Elec       q    Type
                         _______ _______ _______ _____ _____    ______ ____

>  <TORSDO>
F 4

$$$$
