=
 OpenBabel11062420363D

 32 36  0  0  1  0  0  0  0  0999 V2000
  187.2530  177.8170  146.0500 C   0  0  1  0  0  3  0  0  0  0  0  0
  188.2010  175.6450  146.9990 C   0  0  0  0  0  3  0  0  0  0  0  0
  190.5370  176.3200  146.5900 C   0  0  0  0  0  0  0  0  0  0  0  0
  189.6750  177.2790  146.2060 N   0  0  0  0  0  0  0  0  0  0  0  0
  191.9540  176.4610  146.4670 N   0  0  0  0  0  2  0  0  0  0  0  0
  188.3850  176.9110  146.4300 C   0  0  0  0  0  0  0  0  0  0  0  0
  189.7360  174.9890  147.2240 S   0  0  0  0  0  0  0  0  0  0  0  0
  192.8880  175.3930  146.7990 C   0  0  0  0  0  2  0  0  0  0  0  0
  193.8540  174.1280  144.5550 S   0  0  0  0  0  0  0  0  0  0  0  0
  194.0560  176.5770  144.8860 C   0  0  2  0  0  3  0  0  0  0  0  0
  193.8630  175.7120  143.6570 C   0  0  0  0  0  2  0  0  0  0  0  0
  195.2780  175.2240  146.4990 F   0  0  0  0  0  0  0  0  0  0  0  0
  195.3070  177.1920  144.8280 O   0  0  0  0  0  1  0  0  0  0  0  0
  194.0710  175.3920  145.8400 C   0  0  1  0  0  0  0  0  0  0  0  0
  187.3340  176.8430  142.3830 C   0  0  0  0  0  0  0  0  0  0  0  0
  186.5370  177.8440  141.8100 C   0  0  0  0  0  3  0  0  0  0  0  0
  186.1980  178.8450  143.9870 C   0  0  0  0  0  3  0  0  0  0  0  0
  185.9710  178.8420  142.6090 C   0  0  0  0  0  3  0  0  0  0  0  0
  187.5590  176.8560  143.7680 C   0  0  0  0  0  3  0  0  0  0  0  0
  186.9940  177.8490  144.5730 C   0  0  0  0  0  0  0  0  0  0  0  0
  188.8280  173.8040  140.9500 C   0  0  2  0  0  3  0  0  0  0  0  0
  187.6980  175.7570  140.1900 N   0  0  0  0  0  2  0  0  0  0  0  0
  188.2470  174.5290  139.7920 C   0  0  0  0  0  0  0  0  0  0  0  0
  189.9410  175.1580  142.5140 C   0  0  0  0  0  2  0  0  0  0  0  0
  188.6070  174.7040  142.1050 N   0  0  1  0  0  0  0  0  0  0  0  0
  190.3000  173.6730  140.7930 C   0  0  0  0  0  3  0  0  0  0  0  0
  187.9200  175.8180  141.5660 N   0  0  0  0  0  0  0  0  0  0  0  0
  190.9230  174.4320  141.6720 C   0  0  0  0  0  3  0  0  0  0  0  0
  188.2200  174.1090  138.6040 O   0  0  0  0  0  0  0  0  0  0  0  0
  186.0140  177.5910  146.8640 C   0  0  0  0  0  0  0  0  0  0  0  0
  185.9120  178.1290  147.9970 O   0  0  0  0  0  0  0  0  0  0  0  0
  184.9650  176.7550  146.3840 N   0  0  0  0  0  1  0  0  0  0  0  0
  1  6  1  0  0  0  0
  1 30  1  1  0  0  0
  2  7  1  0  0  0  0
  3  7  1  0  0  0  0
  4  6  1  0  0  0  0
  4  3  2  0  0  0  0
  5  3  1  0  0  0  0
  5  8  1  0  0  0  0
  6  2  2  0  0  0  0
  9 14  1  0  0  0  0
 10 13  1  6  0  0  0
 10 14  1  0  0  0  0
 11  9  1  0  0  0  0
 11 10  1  0  0  0  0
 14 12  1  1  0  0  0
 14  8  1  0  0  0  0
 15 19  1  0  0  0  0
 16 15  2  0  0  0  0
 16 18  1  0  0  0  0
 17 20  1  0  0  0  0
 18 17  2  0  0  0  0
 19 20  2  0  0  0  0
 20  1  1  0  0  0  0
 21 26  1  6  0  0  0
 21 25  1  0  0  0  0
 22 27  1  0  0  0  0
 23 22  1  0  0  0  0
 23 21  1  0  0  0  0
 25 24  1  6  0  0  0
 26 28  2  0  0  0  0
 27 25  1  0  0  0  0
 27 15  1  0  0  0  0
 28 24  1  0  0  0  0
 29 23  2  0  0  0  0
 30 31  2  0  0  0  0
 32 30  1  0  0  0  0
M  END
>  <MODEL>
1

>  <REMARK>
 VINA RESULT:      -7.7      0.000      0.000
  Name = 
  6 active torsions:
  status: ('A' for Active; 'I' for Inactive)
    1  A    between atoms: C_3  and  N_24
    2  A    between atoms: N_11  and  C_16
    3  A    between atoms: C_12  and  C_28
    4  A    between atoms: C_16  and  C_29
    5  A    between atoms: C_19  and  C_28
    6  A    between atoms: C_28  and  C_32
                            x       y       z     vdW  Elec       q    Type
                         _______ _______ _______ _____ _____    ______ ____

>  <TORSDO>
F 6

$$$$
=
 OpenBabel11062420363D

 32 36  0  0  1  0  0  0  0  0999 V2000
  192.2150  176.4180  145.1860 C   0  0  1  0  0  3  0  0  0  0  0  0
  193.5430  176.0140  143.0430 C   0  0  0  0  0  3  0  0  0  0  0  0
  191.7240  174.7230  141.9900 C   0  0  0  0  0  0  0  0  0  0  0  0
  191.3750  175.1540  143.2170 N   0  0  0  0  0  0  0  0  0  0  0  0
  190.8480  173.9560  141.1630 N   0  0  0  0  0  2  0  0  0  0  0  0
  192.3750  175.8660  143.8000 C   0  0  0  0  0  0  0  0  0  0  0  0
  193.2770  175.2140  141.5850 S   0  0  0  0  0  0  0  0  0  0  0  0
  191.2500  173.4140  139.8720 C   0  0  0  0  0  2  0  0  0  0  0  0
  189.5660  171.7260  138.5000 S   0  0  0  0  0  0  0  0  0  0  0  0
  188.7700  173.8250  139.5500 C   0  0  2  0  0  3  0  0  0  0  0  0
  188.1290  172.4700  139.3330 C   0  0  0  0  0  2  0  0  0  0  0  0
  190.3700  174.1310  137.7400 F   0  0  0  0  0  0  0  0  0  0  0  0
  188.1000  174.7820  138.7860 O   0  0  0  0  0  1  0  0  0  0  0  0
  190.0820  173.4200  138.8950 C   0  0  1  0  0  0  0  0  0  0  0  0
  188.5010  176.7290  145.8990 C   0  0  0  0  0  0  0  0  0  0  0  0
  188.3060  175.6930  146.8230 C   0  0  0  0  0  3  0  0  0  0  0  0
  190.6520  175.1170  146.6980 C   0  0  0  0  0  3  0  0  0  0  0  0
  189.3780  174.8900  147.2220 C   0  0  0  0  0  3  0  0  0  0  0  0
  189.7850  176.9530  145.3810 C   0  0  0  0  0  3  0  0  0  0  0  0
  190.8610  176.1510  145.7740 C   0  0  0  0  0  0  0  0  0  0  0  0
  185.7690  179.1670  145.5630 C   0  0  2  0  0  3  0  0  0  0  0  0
  187.1620  177.8530  144.1480 N   0  0  0  0  0  2  0  0  0  0  0  0
  186.1630  178.8380  144.1690 C   0  0  0  0  0  0  0  0  0  0  0  0
  185.6710  177.3350  147.0290 C   0  0  0  0  0  2  0  0  0  0  0  0
  186.6030  178.2820  146.4070 N   0  0  1  0  0  0  0  0  0  0  0  0
  184.3560  178.7760  145.8070 C   0  0  0  0  0  3  0  0  0  0  0  0
  187.4030  177.5600  145.4900 N   0  0  0  0  0  0  0  0  0  0  0  0
  184.3020  177.7490  146.6310 C   0  0  0  0  0  3  0  0  0  0  0  0
  185.6910  179.3720  143.1300 O   0  0  0  0  0  0  0  0  0  0  0  0
  193.3430  176.0530  146.1030 C   0  0  0  0  0  0  0  0  0  0  0  0
  193.7400  174.8610  146.1500 O   0  0  0  0  0  0  0  0  0  0  0  0
  193.9510  177.0330  146.9410 N   0  0  0  0  0  1  0  0  0  0  0  0
  1 20  1  0  0  0  0
  1 30  1  1  0  0  0
  2  6  2  0  0  0  0
  3  4  2  0  0  0  0
  4  6  1  0  0  0  0
  5  3  1  0  0  0  0
  6  1  1  0  0  0  0
  7  3  1  0  0  0  0
  7  2  1  0  0  0  0
  8  5  1  0  0  0  0
  9 14  1  0  0  0  0
  9 11  1  0  0  0  0
 10 13  1  6  0  0  0
 11 10  1  0  0  0  0
 14 12  1  6  0  0  0
 14 10  1  0  0  0  0
 14  8  1  0  0  0  0
 15 16  1  0  0  0  0
 16 18  2  0  0  0  0
 17 18  1  0  0  0  0
 19 20  1  0  0  0  0
 19 15  2  0  0  0  0
 20 17  2  0  0  0  0
 21 26  1  6  0  0  0
 21 25  1  0  0  0  0
 22 23  1  0  0  0  0
 22 27  1  0  0  0  0
 23 21  1  0  0  0  0
 25 24  1  6  0  0  0
 26 28  2  0  0  0  0
 27 15  1  0  0  0  0
 27 25  1  0  0  0  0
 28 24  1  0  0  0  0
 29 23  2  0  0  0  0
 30 31  2  0  0  0  0
 30 32  1  0  0  0  0
M  END
>  <MODEL>
2

>  <REMARK>
 VINA RESULT:      -7.6      2.999      6.934
  Name = 
  6 active torsions:
  status: ('A' for Active; 'I' for Inactive)
    1  A    between atoms: C_3  and  N_24
    2  A    between atoms: N_11  and  C_16
    3  A    between atoms: C_12  and  C_28
    4  A    between atoms: C_16  and  C_29
    5  A    between atoms: C_19  and  C_28
    6  A    between atoms: C_28  and  C_32
                            x       y       z     vdW  Elec       q    Type
                         _______ _______ _______ _____ _____    ______ ____

>  <TORSDO>
F 6

$$$$
=
 OpenBabel11062420363D

 32 36  0  0  1  0  0  0  0  0999 V2000
  191.9490  176.5420  146.4040 C   0  0  1  0  0  3  0  0  0  0  0  0
  194.3980  176.1870  145.7790 C   0  0  0  0  0  3  0  0  0  0  0  0
  194.1860  173.7300  145.7630 C   0  0  0  0  0  0  0  0  0  0  0  0
  193.0150  174.3220  146.0590 N   0  0  0  0  0  0  0  0  0  0  0  0
  194.3360  172.3110  145.6840 N   0  0  0  0  0  2  0  0  0  0  0  0
  193.1280  175.6770  146.0680 C   0  0  0  0  0  0  0  0  0  0  0  0
  195.3980  174.8600  145.4970 S   0  0  0  0  0  0  0  0  0  0  0  0
  195.6190  171.6620  145.4500 C   0  0  0  0  0  2  0  0  0  0  0  0
  195.5170  169.1020  144.4480 S   0  0  0  0  0  0  0  0  0  0  0  0
  196.9180  169.7040  146.4030 C   0  0  2  0  0  3  0  0  0  0  0  0
  197.0900  168.7070  145.2750 C   0  0  0  0  0  2  0  0  0  0  0  0
  194.5200  169.9490  146.7490 F   0  0  0  0  0  0  0  0  0  0  0  0
  196.7700  169.0190  147.6100 O   0  0  0  0  0  1  0  0  0  0  0  0
  195.5760  170.2040  145.8890 C   0  0  1  0  0  0  0  0  0  0  0  0
  188.6670  177.2140  144.6210 C   0  0  0  0  0  0  0  0  0  0  0  0
  188.8770  176.5660  143.3950 C   0  0  0  0  0  3  0  0  0  0  0  0
  191.0870  175.8900  144.1110 C   0  0  0  0  0  3  0  0  0  0  0  0
  190.0830  175.9060  143.1410 C   0  0  0  0  0  3  0  0  0  0  0  0
  189.6800  177.1890  145.5910 C   0  0  0  0  0  3  0  0  0  0  0  0
  190.8890  176.5330  145.3420 C   0  0  0  0  0  0  0  0  0  0  0  0
  185.7540  178.9520  146.0390 C   0  0  2  0  0  3  0  0  0  0  0  0
  186.7760  178.6420  143.9110 N   0  0  0  0  0  2  0  0  0  0  0  0
  185.7450  179.3030  144.5950 C   0  0  0  0  0  0  0  0  0  0  0  0
  186.2570  176.7080  146.5140 C   0  0  0  0  0  2  0  0  0  0  0  0
  186.8760  177.9970  146.1850 N   0  0  1  0  0  0  0  0  0  0  0  0
  184.5170  178.2100  146.3980 C   0  0  0  0  0  3  0  0  0  0  0  0
  187.4280  177.8900  144.8870 N   0  0  0  0  0  0  0  0  0  0  0  0
  184.8010  176.9520  146.6670 C   0  0  0  0  0  3  0  0  0  0  0  0
  184.9420  180.1000  144.0410 O   0  0  0  0  0  0  0  0  0  0  0  0
  191.4090  176.2990  147.7820 C   0  0  0  0  0  0  0  0  0  0  0  0
  190.8400  175.2070  148.0390 O   0  0  0  0  0  0  0  0  0  0  0  0
  191.5080  177.2980  148.7930 N   0  0  0  0  0  1  0  0  0  0  0  0
  1 30  1  1  0  0  0
  2  6  2  0  0  0  0
  3  4  2  0  0  0  0
  4  6  1  0  0  0  0
  5  3  1  0  0  0  0
  6  1  1  0  0  0  0
  7  3  1  0  0  0  0
  7  2  1  0  0  0  0
  8  5  1  0  0  0  0
  8 14  1  0  0  0  0
  9 11  1  0  0  0  0
  9 14  1  0  0  0  0
 10 13  1  1  0  0  0
 11 10  1  0  0  0  0
 14 10  1  0  0  0  0
 14 12  1  1  0  0  0
 15 27  1  0  0  0  0
 15 19  1  0  0  0  0
 16 15  2  0  0  0  0
 17 20  1  0  0  0  0
 18 16  1  0  0  0  0
 18 17  2  0  0  0  0
 20 19  2  0  0  0  0
 20  1  1  0  0  0  0
 21 25  1  0  0  0  0
 21 26  1  6  0  0  0
 22 23  1  0  0  0  0
 22 27  1  0  0  0  0
 23 21  1  0  0  0  0
 24 28  1  0  0  0  0
 25 24  1  6  0  0  0
 26 28  2  0  0  0  0
 27 25  1  0  0  0  0
 29 23  2  0  0  0  0
 30 31  2  0  0  0  0
 30 32  1  0  0  0  0
M  END
>  <MODEL>
3

>  <REMARK>
 VINA RESULT:      -7.5      3.636      6.000
  Name = 
  6 active torsions:
  status: ('A' for Active; 'I' for Inactive)
    1  A    between atoms: C_3  and  N_24
    2  A    between atoms: N_11  and  C_16
    3  A    between atoms: C_12  and  C_28
    4  A    between atoms: C_16  and  C_29
    5  A    between atoms: C_19  and  C_28
    6  A    between atoms: C_28  and  C_32
                            x       y       z     vdW  Elec       q    Type
                         _______ _______ _______ _____ _____    ______ ____

>  <TORSDO>
F 6

$$$$
=
 OpenBabel11062420363D

 32 36  0  0  1  0  0  0  0  0999 V2000
  190.5120  175.8940  145.9980 C   0  0  1  0  0  3  0  0  0  0  0  0
  192.9370  176.3230  146.6720 C   0  0  0  0  0  3  0  0  0  0  0  0
  193.8300  174.7530  144.9920 C   0  0  0  0  0  0  0  0  0  0  0  0
  192.4870  174.8200  144.9360 N   0  0  0  0  0  0  0  0  0  0  0  0
  194.5990  173.9200  144.1210 N   0  0  0  0  0  2  0  0  0  0  0  0
  191.9910  175.6850  145.8610 C   0  0  0  0  0  0  0  0  0  0  0  0
  194.4490  175.7640  146.1800 S   0  0  0  0  0  0  0  0  0  0  0  0
  196.0440  173.7780  144.2330 C   0  0  0  0  0  2  0  0  0  0  0  0
  197.9390  173.8060  142.2390 S   0  0  0  0  0  0  0  0  0  0  0  0
  195.8680  175.1630  142.1170 C   0  0  2  0  0  3  0  0  0  0  0  0
  196.7090  174.4640  141.0690 C   0  0  0  0  0  2  0  0  0  0  0  0
  197.3800  175.7660  143.9280 F   0  0  0  0  0  0  0  0  0  0  0  0
  195.9440  176.5440  141.9280 O   0  0  0  0  0  1  0  0  0  0  0  0
  196.7560  174.7180  143.2700 C   0  0  1  0  0  0  0  0  0  0  0  0
  187.9710  177.7390  143.8680 C   0  0  0  0  0  0  0  0  0  0  0  0
  188.7490  178.1080  142.7610 C   0  0  0  0  0  3  0  0  0  0  0  0
  190.6840  177.0390  143.7430 C   0  0  0  0  0  3  0  0  0  0  0  0
  190.1010  177.7590  142.6990 C   0  0  0  0  0  3  0  0  0  0  0  0
  188.5650  177.0130  144.9110 C   0  0  0  0  0  3  0  0  0  0  0  0
  189.9170  176.6620  144.8550 C   0  0  0  0  0  0  0  0  0  0  0  0
  184.6770  179.2840  144.3980 C   0  0  2  0  0  3  0  0  0  0  0  0
  185.6570  177.6240  143.0010 N   0  0  0  0  0  2  0  0  0  0  0  0
  184.4810  178.3410  143.2670 C   0  0  0  0  0  0  0  0  0  0  0  0
  186.0010  178.4670  146.1570 C   0  0  0  0  0  2  0  0  0  0  0  0
  186.0790  179.0730  144.8230 N   0  0  1  0  0  0  0  0  0  0  0  0
  183.8220  178.8950  145.5500 C   0  0  0  0  0  3  0  0  0  0  0  0
  186.5810  178.0930  143.9340 N   0  0  0  0  0  0  0  0  0  0  0  0
  184.5660  178.4380  146.5370 C   0  0  0  0  0  3  0  0  0  0  0  0
  183.4170  178.2020  142.6070 O   0  0  0  0  0  0  0  0  0  0  0  0
  189.7640  174.6360  146.3220 C   0  0  0  0  0  0  0  0  0  0  0  0
  189.7320  173.7020  145.4800 O   0  0  0  0  0  0  0  0  0  0  0  0
  189.0650  174.4970  147.5560 N   0  0  0  0  0  1  0  0  0  0  0  0
  1 30  1  6  0  0  0
  3  7  1  0  0  0  0
  4  3  2  0  0  0  0
  4  6  1  0  0  0  0
  5  8  1  0  0  0  0
  5  3  1  0  0  0  0
  6  1  1  0  0  0  0
  6  2  2  0  0  0  0
  7  2  1  0  0  0  0
  9 14  1  0  0  0  0
 10 13  1  6  0  0  0
 10 14  1  0  0  0  0
 11 10  1  0  0  0  0
 11  9  1  0  0  0  0
 14 12  1  1  0  0  0
 14  8  1  0  0  0  0
 15 27  1  0  0  0  0
 15 19  1  0  0  0  0
 16 15  2  0  0  0  0
 17 20  1  0  0  0  0
 18 16  1  0  0  0  0
 18 17  2  0  0  0  0
 20 19  2  0  0  0  0
 20  1  1  0  0  0  0
 21 25  1  0  0  0  0
 21 26  1  1  0  0  0
 22 23  1  0  0  0  0
 22 27  1  0  0  0  0
 23 21  1  0  0  0  0
 24 28  1  0  0  0  0
 25 24  1  1  0  0  0
 26 28  2  0  0  0  0
 27 25  1  0  0  0  0
 29 23  2  0  0  0  0
 30 32  1  0  0  0  0
 31 30  2  0  0  0  0
M  END
>  <MODEL>
4

>  <REMARK>
 VINA RESULT:      -7.5      3.153      5.033
  Name = 
  6 active torsions:
  status: ('A' for Active; 'I' for Inactive)
    1  A    between atoms: C_3  and  N_24
    2  A    between atoms: N_11  and  C_16
    3  A    between atoms: C_12  and  C_28
    4  A    between atoms: C_16  and  C_29
    5  A    between atoms: C_19  and  C_28
    6  A    between atoms: C_28  and  C_32
                            x       y       z     vdW  Elec       q    Type
                         _______ _______ _______ _____ _____    ______ ____

>  <TORSDO>
F 6

$$$$
=
 OpenBabel11062420363D

 32 36  0  0  1  0  0  0  0  0999 V2000
  188.2500  173.8220  141.6630 C   0  0  1  0  0  3  0  0  0  0  0  0
  189.3740  172.3270  143.4010 C   0  0  0  0  0  3  0  0  0  0  0  0
  191.0120  174.0580  144.0370 C   0  0  0  0  0  0  0  0  0  0  0  0
  190.1720  174.5040  143.0850 N   0  0  0  0  0  0  0  0  0  0  0  0
  192.0540  174.8660  144.5870 N   0  0  0  0  0  2  0  0  0  0  0  0
  189.2670  173.5520  142.7320 C   0  0  0  0  0  0  0  0  0  0  0  0
  190.6610  172.4770  144.4780 S   0  0  0  0  0  0  0  0  0  0  0  0
  193.0210  174.3630  145.5540 C   0  0  0  0  0  2  0  0  0  0  0  0
  195.6550  174.5230  144.7770 S   0  0  0  0  0  0  0  0  0  0  0  0
  194.1300  176.4760  144.6990 C   0  0  2  0  0  3  0  0  0  0  0  0
  195.2920  176.0360  143.8330 C   0  0  0  0  0  2  0  0  0  0  0  0
  194.5640  175.6070  146.9320 F   0  0  0  0  0  0  0  0  0  0  0  0
  194.4660  177.6560  145.3630 O   0  0  0  0  0  1  0  0  0  0  0  0
  194.2380  175.2750  145.6270 C   0  0  1  0  0  0  0  0  0  0  0  0
  186.6880  177.0360  142.9400 C   0  0  0  0  0  0  0  0  0  0  0  0
  186.7530  177.8500  141.8000 C   0  0  0  0  0  3  0  0  0  0  0  0
  187.7890  176.0540  140.5540 C   0  0  0  0  0  3  0  0  0  0  0  0
  187.3020  177.3610  140.6110 C   0  0  0  0  0  3  0  0  0  0  0  0
  187.1770  175.7230  142.8720 C   0  0  0  0  0  3  0  0  0  0  0  0
  187.7290  175.2280  141.6860 C   0  0  0  0  0  0  0  0  0  0  0  0
  185.9560  178.5950  146.1880 C   0  0  2  0  0  3  0  0  0  0  0  0
  184.7610  177.8140  144.2830 N   0  0  0  0  0  2  0  0  0  0  0  0
  184.6360  178.4650  145.5190 C   0  0  0  0  0  0  0  0  0  0  0  0
  187.3770  176.7400  145.9550 C   0  0  0  0  0  2  0  0  0  0  0  0
  186.9110  177.9460  145.2620 N   0  0  1  0  0  0  0  0  0  0  0  0
  185.9790  177.8010  147.4440 C   0  0  0  0  0  3  0  0  0  0  0  0
  186.1220  177.5340  144.1620 N   0  0  0  0  0  0  0  0  0  0  0  0
  186.7780  176.7610  147.3130 C   0  0  0  0  0  3  0  0  0  0  0  0
  183.5410  178.8930  145.9710 O   0  0  0  0  0  0  0  0  0  0  0  0
  188.6880  173.3740  140.3010 C   0  0  0  0  0  0  0  0  0  0  0  0
  187.8790  172.7570  139.5620 O   0  0  0  0  0  0  0  0  0  0  0  0
  190.0170  173.6140  139.8440 N   0  0  0  0  0  1  0  0  0  0  0  0
  1 30  1  6  0  0  0
  1 20  1  0  0  0  0
  1  6  1  0  0  0  0
  2  7  1  0  0  0  0
  3  7  1  0  0  0  0
  3  5  1  0  0  0  0
  4  3  2  0  0  0  0
  5  8  1  0  0  0  0
  6  4  1  0  0  0  0
  6  2  2  0  0  0  0
  8 14  1  0  0  0  0
  9 14  1  0  0  0  0
 10 13  1  1  0  0  0
 10 14  1  0  0  0  0
 11 10  1  0  0  0  0
 11  9  1  0  0  0  0
 14 12  1  1  0  0  0
 15 27  1  0  0  0  0
 16 15  2  0  0  0  0
 17 18  2  0  0  0  0
 17 20  1  0  0  0  0
 18 16  1  0  0  0  0
 19 15  1  0  0  0  0
 20 19  2  0  0  0  0
 21 26  1  1  0  0  0
 22 23  1  0  0  0  0
 23 29  2  0  0  0  0
 23 21  1  0  0  0  0
 24 28  1  0  0  0  0
 25 24  1  1  0  0  0
 25 21  1  0  0  0  0
 27 22  1  0  0  0  0
 27 25  1  0  0  0  0
 28 26  2  0  0  0  0
 31 30  2  0  0  0  0
 32 30  1  0  0  0  0
M  END
>  <MODEL>
5

>  <REMARK>
 VINA RESULT:      -7.3      1.961      5.265
  Name = 
  6 active torsions:
  status: ('A' for Active; 'I' for Inactive)
    1  A    between atoms: C_3  and  N_24
    2  A    between atoms: N_11  and  C_16
    3  A    between atoms: C_12  and  C_28
    4  A    between atoms: C_16  and  C_29
    5  A    between atoms: C_19  and  C_28
    6  A    between atoms: C_28  and  C_32
                            x       y       z     vdW  Elec       q    Type
                         _______ _______ _______ _____ _____    ______ ____

>  <TORSDO>
F 6

$$$$
=
 OpenBabel11062420363D

 32 36  0  0  1  0  0  0  0  0999 V2000
  185.4150  177.6280  143.9130 C   0  0  1  0  0  3  0  0  0  0  0  0
  184.8580  177.8500  141.4310 C   0  0  0  0  0  3  0  0  0  0  0  0
  182.5440  178.5810  141.8700 C   0  0  0  0  0  0  0  0  0  0  0  0
  183.2150  178.3620  143.0150 N   0  0  0  0  0  0  0  0  0  0  0  0
  181.1840  179.0180  141.8430 N   0  0  0  0  0  2  0  0  0  0  0  0
  184.4920  177.9590  142.7770 C   0  0  0  0  0  0  0  0  0  0  0  0
  183.5070  178.2900  140.5260 S   0  0  0  0  0  0  0  0  0  0  0  0
  180.4260  179.1740  140.6090 C   0  0  0  0  0  2  0  0  0  0  0  0
  178.1400  178.3700  139.3060 S   0  0  0  0  0  0  0  0  0  0  0  0
  178.7040  177.5940  141.5920 C   0  0  2  0  0  3  0  0  0  0  0  0
  177.9970  176.9390  140.4230 C   0  0  0  0  0  2  0  0  0  0  0  0
  178.2930  179.9860  141.3970 F   0  0  0  0  0  0  0  0  0  0  0  0
  177.7990  177.7770  142.6390 O   0  0  0  0  0  1  0  0  0  0  0  0
  178.9470  178.8970  140.8440 C   0  0  1  0  0  0  0  0  0  0  0  0
  189.1370  176.8920  143.9650 C   0  0  0  0  0  0  0  0  0  0  0  0
  189.5730  177.5730  142.8200 C   0  0  0  0  0  3  0  0  0  0  0  0
  187.3110  178.3030  142.3710 C   0  0  0  0  0  3  0  0  0  0  0  0
  188.6630  178.2760  142.0250 C   0  0  0  0  0  3  0  0  0  0  0  0
  187.7770  176.9280  144.3070 C   0  0  0  0  0  3  0  0  0  0  0  0
  186.8620  177.6270  143.5150 C   0  0  0  0  0  0  0  0  0  0  0  0
  190.9000  174.9170  146.5170 C   0  0  2  0  0  3  0  0  0  0  0  0
  191.2210  175.5910  144.2560 N   0  0  0  0  0  2  0  0  0  0  0  0
  191.7470  174.8170  145.3010 C   0  0  0  0  0  0  0  0  0  0  0  0
  190.0180  177.0530  146.9400 C   0  0  0  0  0  2  0  0  0  0  0  0
  189.8090  175.8420  146.1380 N   0  0  1  0  0  0  0  0  0  0  0  0
  191.6510  175.5790  147.6170 C   0  0  0  0  0  3  0  0  0  0  0  0
  190.0700  176.1720  144.7870 N   0  0  0  0  0  0  0  0  0  0  0  0
  191.1540  176.7750  147.8540 C   0  0  0  0  0  3  0  0  0  0  0  0
  192.7910  174.1190  145.1930 O   0  0  0  0  0  0  0  0  0  0  0  0
  185.1410  178.4280  145.1510 C   0  0  0  0  0  0  0  0  0  0  0  0
  184.4990  177.9030  146.0960 O   0  0  0  0  0  0  0  0  0  0  0  0
  185.5730  179.7820  145.2580 N   0  0  0  0  0  1  0  0  0  0  0  0
  1 30  1  1  0  0  0
  2  6  2  0  0  0  0
  3  4  2  0  0  0  0
  5  3  1  0  0  0  0
  6  4  1  0  0  0  0
  6  1  1  0  0  0  0
  7  2  1  0  0  0  0
  7  3  1  0  0  0  0
  8 14  1  0  0  0  0
  8  5  1  0  0  0  0
  9 11  1  0  0  0  0
  9 14  1  0  0  0  0
 10 13  1  1  0  0  0
 11 10  1  0  0  0  0
 14 12  1  1  0  0  0
 14 10  1  0  0  0  0
 15 19  1  0  0  0  0
 15 27  1  0  0  0  0
 16 15  2  0  0  0  0
 17 20  1  0  0  0  0
 18 17  2  0  0  0  0
 18 16  1  0  0  0  0
 20  1  1  0  0  0  0
 20 19  2  0  0  0  0
 21 26  1  1  0  0  0
 22 27  1  0  0  0  0
 22 23  1  0  0  0  0
 23 21  1  0  0  0  0
 24 28  1  0  0  0  0
 25 21  1  0  0  0  0
 25 24  1  1  0  0  0
 26 28  2  0  0  0  0
 27 25  1  0  0  0  0
 29 23  2  0  0  0  0
 30 32  1  0  0  0  0
 30 31  2  0  0  0  0
M  END
>  <MODEL>
6

>  <REMARK>
 VINA RESULT:      -7.3      5.862      9.304
  Name = 
  6 active torsions:
  status: ('A' for Active; 'I' for Inactive)
    1  A    between atoms: C_3  and  N_24
    2  A    between atoms: N_11  and  C_16
    3  A    between atoms: C_12  and  C_28
    4  A    between atoms: C_16  and  C_29
    5  A    between atoms: C_19  and  C_28
    6  A    between atoms: C_28  and  C_32
                            x       y       z     vdW  Elec       q    Type
                         _______ _______ _______ _____ _____    ______ ____

>  <TORSDO>
F 6

$$$$
=
 OpenBabel11062420363D

 32 36  0  0  1  0  0  0  0  0999 V2000
  191.1500  176.6450  145.9990 C   0  0  1  0  0  3  0  0  0  0  0  0
  193.3070  177.0720  144.7030 C   0  0  0  0  0  3  0  0  0  0  0  0
  194.3570  174.9810  145.4820 C   0  0  0  0  0  0  0  0  0  0  0  0
  193.1130  175.1190  145.9750 N   0  0  0  0  0  0  0  0  0  0  0  0
  195.1830  173.8520  145.7750 N   0  0  0  0  0  2  0  0  0  0  0  0
  192.5300  176.2710  145.5480 C   0  0  0  0  0  0  0  0  0  0  0  0
  194.7760  176.2730  144.4970 S   0  0  0  0  0  0  0  0  0  0  0  0
  196.5600  173.7380  145.3150 C   0  0  0  0  0  2  0  0  0  0  0  0
  197.7890  171.3900  144.5780 S   0  0  0  0  0  0  0  0  0  0  0  0
  195.4250  171.8810  144.0160 C   0  0  2  0  0  3  0  0  0  0  0  0
  196.1640  170.6020  144.3510 C   0  0  0  0  0  2  0  0  0  0  0  0
  197.0520  173.3680  142.9800 F   0  0  0  0  0  0  0  0  0  0  0  0
  194.9950  171.8340  142.6890 O   0  0  0  0  0  1  0  0  0  0  0  0
  196.6650  172.7520  144.1600 C   0  0  1  0  0  0  0  0  0  0  0  0
  187.8430  176.6000  144.1380 C   0  0  0  0  0  0  0  0  0  0  0  0
  188.0540  175.5620  143.2190 C   0  0  0  0  0  3  0  0  0  0  0  0
  190.2800  175.2120  144.0980 C   0  0  0  0  0  3  0  0  0  0  0  0
  189.2680  174.8700  143.1990 C   0  0  0  0  0  3  0  0  0  0  0  0
  188.8640  176.9340  145.0400 C   0  0  0  0  0  3  0  0  0  0  0  0
  190.0820  176.2470  145.0240 C   0  0  0  0  0  0  0  0  0  0  0  0
  185.0540  178.9490  144.6110 C   0  0  2  0  0  3  0  0  0  0  0  0
  185.6350  177.1480  143.1660 N   0  0  0  0  0  2  0  0  0  0  0  0
  184.6790  178.1420  143.4210 C   0  0  0  0  0  0  0  0  0  0  0  0
  186.0110  177.7310  146.3770 C   0  0  0  0  0  2  0  0  0  0  0  0
  186.3230  178.3510  145.0840 N   0  0  1  0  0  0  0  0  0  0  0  0
  184.0630  178.7550  145.7010 C   0  0  0  0  0  3  0  0  0  0  0  0
  186.5960  177.3110  144.1630 N   0  0  0  0  0  0  0  0  0  0  0  0
  184.6010  178.0730  146.6920 C   0  0  0  0  0  3  0  0  0  0  0  0
  183.6560  178.3220  142.7090 O   0  0  0  0  0  0  0  0  0  0  0  0
  190.8530  176.2250  147.4080 C   0  0  0  0  0  0  0  0  0  0  0  0
  191.2950  176.9120  148.3640 O   0  0  0  0  0  0  0  0  0  0  0  0
  190.1020  175.0440  147.6760 N   0  0  0  0  0  1  0  0  0  0  0  0
  1 30  1  1  0  0  0
  2  6  2  0  0  0  0
  3  5  1  0  0  0  0
  3  4  2  0  0  0  0
  6  4  1  0  0  0  0
  6  1  1  0  0  0  0
  7  2  1  0  0  0  0
  7  3  1  0  0  0  0
  8  5  1  0  0  0  0
 10 13  1  6  0  0  0
 10 14  1  0  0  0  0
 10 11  1  0  0  0  0
 11  9  1  0  0  0  0
 14 12  1  6  0  0  0
 14  9  1  0  0  0  0
 14  8  1  0  0  0  0
 15 27  1  0  0  0  0
 15 19  1  0  0  0  0
 16 15  2  0  0  0  0
 17 20  1  0  0  0  0
 18 16  1  0  0  0  0
 18 17  2  0  0  0  0
 20 19  2  0  0  0  0
 20  1  1  0  0  0  0
 21 25  1  0  0  0  0
 21 26  1  1  0  0  0
 22 23  1  0  0  0  0
 22 27  1  0  0  0  0
 23 21  1  0  0  0  0
 24 28  1  0  0  0  0
 25 24  1  1  0  0  0
 26 28  2  0  0  0  0
 27 25  1  0  0  0  0
 29 23  2  0  0  0  0
 30 32  1  0  0  0  0
 30 31  2  0  0  0  0
M  END
>  <MODEL>
7

>  <REMARK>
 VINA RESULT:      -7.2      3.051      5.303
  Name = 
  6 active torsions:
  status: ('A' for Active; 'I' for Inactive)
    1  A    between atoms: C_3  and  N_24
    2  A    between atoms: N_11  and  C_16
    3  A    between atoms: C_12  and  C_28
    4  A    between atoms: C_16  and  C_29
    5  A    between atoms: C_19  and  C_28
    6  A    between atoms: C_28  and  C_32
                            x       y       z     vdW  Elec       q    Type
                         _______ _______ _______ _____ _____    ______ ____

>  <TORSDO>
F 6

$$$$
=
 OpenBabel11062420363D

 32 36  0  0  1  0  0  0  0  0999 V2000
  190.3820  173.4040  144.2620 C   0  0  1  0  0  3  0  0  0  0  0  0
  192.7200  172.4480  144.6300 C   0  0  0  0  0  3  0  0  0  0  0  0
  193.8000  174.6620  144.5040 C   0  0  0  0  0  0  0  0  0  0  0  0
  192.4660  174.7570  144.3590 N   0  0  0  0  0  0  0  0  0  0  0  0
  194.6640  175.8000  144.4760 N   0  0  0  0  0  2  0  0  0  0  0  0
  191.8670  173.5380  144.4280 C   0  0  0  0  0  0  0  0  0  0  0  0
  194.2830  173.0700  144.7290 S   0  0  0  0  0  0  0  0  0  0  0  0
  196.1150  175.6950  144.5450 C   0  0  0  0  0  2  0  0  0  0  0  0
  197.8920  174.7730  142.6580 S   0  0  0  0  0  0  0  0  0  0  0  0
  195.7860  175.9260  142.0420 C   0  0  2  0  0  3  0  0  0  0  0  0
  196.5830  174.8120  141.3950 C   0  0  0  0  0  2  0  0  0  0  0  0
  197.3840  177.3000  143.2620 F   0  0  0  0  0  0  0  0  0  0  0  0
  195.8180  177.0560  141.2230 O   0  0  0  0  0  1  0  0  0  0  0  0
  196.7490  176.0690  143.2120 C   0  0  1  0  0  0  0  0  0  0  0  0
  188.0290  176.2370  145.1800 C   0  0  0  0  0  0  0  0  0  0  0  0
  188.1170  176.2300  146.5800 C   0  0  0  0  0  3  0  0  0  0  0  0
  189.6820  174.3880  146.4910 C   0  0  0  0  0  3  0  0  0  0  0  0
  188.9400  175.3090  147.2330 C   0  0  0  0  0  3  0  0  0  0  0  0
  188.7810  175.3100  144.4430 C   0  0  0  0  0  3  0  0  0  0  0  0
  189.6050  174.3840  145.0910 C   0  0  0  0  0  0  0  0  0  0  0  0
  186.0510  179.1240  144.0540 C   0  0  2  0  0  3  0  0  0  0  0  0
  187.0020  177.1500  143.1230 N   0  0  0  0  0  2  0  0  0  0  0  0
  186.3070  178.3320  142.8250 C   0  0  0  0  0  0  0  0  0  0  0  0
  185.4970  177.8600  145.9550 C   0  0  0  0  0  2  0  0  0  0  0  0
  186.6350  178.3160  145.1490 N   0  0  1  0  0  0  0  0  0  0  0  0
  184.5910  179.2060  144.3220 C   0  0  0  0  0  3  0  0  0  0  0  0
  187.1870  177.1840  144.5050 N   0  0  0  0  0  0  0  0  0  0  0  0
  184.2820  178.4980  145.3890 C   0  0  0  0  0  3  0  0  0  0  0  0
  185.9730  178.6660  141.6570 O   0  0  0  0  0  0  0  0  0  0  0  0
  189.9480  173.3650  142.8280 C   0  0  0  0  0  0  0  0  0  0  0  0
  190.5280  174.0970  141.9860 O   0  0  0  0  0  0  0  0  0  0  0  0
  188.8700  172.5300  142.4120 N   0  0  0  0  0  1  0  0  0  0  0  0
  1 30  1  6  0  0  0
  1  6  1  0  0  0  0
  1 20  1  0  0  0  0
  2  7  1  0  0  0  0
  3  7  1  0  0  0  0
  4  6  1  0  0  0  0
  4  3  2  0  0  0  0
  5  3  1  0  0  0  0
  5  8  1  0  0  0  0
  6  2  2  0  0  0  0
  9 14  1  0  0  0  0
 10 13  1  6  0  0  0
 10 14  1  0  0  0  0
 11 10  1  0  0  0  0
 11  9  1  0  0  0  0
 14 12  1  1  0  0  0
 14  8  1  0  0  0  0
 15 16  1  0  0  0  0
 16 18  2  0  0  0  0
 17 18  1  0  0  0  0
 19 20  1  0  0  0  0
 19 15  2  0  0  0  0
 20 17  2  0  0  0  0
 21 26  1  1  0  0  0
 21 25  1  0  0  0  0
 22 27  1  0  0  0  0
 23 22  1  0  0  0  0
 23 21  1  0  0  0  0
 25 24  1  1  0  0  0
 26 28  2  0  0  0  0
 27 25  1  0  0  0  0
 27 15  1  0  0  0  0
 28 24  1  0  0  0  0
 29 23  2  0  0  0  0
 31 30  2  0  0  0  0
 32 30  1  0  0  0  0
M  END
>  <MODEL>
8

>  <REMARK>
 VINA RESULT:      -7.2      2.771      5.420
  Name = 
  6 active torsions:
  status: ('A' for Active; 'I' for Inactive)
    1  A    between atoms: C_3  and  N_24
    2  A    between atoms: N_11  and  C_16
    3  A    between atoms: C_12  and  C_28
    4  A    between atoms: C_16  and  C_29
    5  A    between atoms: C_19  and  C_28
    6  A    between atoms: C_28  and  C_32
                            x       y       z     vdW  Elec       q    Type
                         _______ _______ _______ _____ _____    ______ ____

>  <TORSDO>
F 6

$$$$
=
 OpenBabel11062420363D

 32 36  0  0  1  0  0  0  0  0999 V2000
  189.2960  174.0200  142.9920 C   0  0  1  0  0  3  0  0  0  0  0  0
  191.4890  173.0940  142.0690 C   0  0  0  0  0  3  0  0  0  0  0  0
  192.6620  173.3300  144.2260 C   0  0  0  0  0  0  0  0  0  0  0  0
  191.3810  173.7320  144.3170 N   0  0  0  0  0  0  0  0  0  0  0  0
  193.5610  173.3590  145.3360 N   0  0  0  0  0  2  0  0  0  0  0  0
  190.7300  173.6030  143.1290 C   0  0  0  0  0  0  0  0  0  0  0  0
  193.0320  172.7970  142.6780 S   0  0  0  0  0  0  0  0  0  0  0  0
  194.9700  173.0080  145.2230 C   0  0  0  0  0  2  0  0  0  0  0  0
  197.5880  173.8300  145.0270 S   0  0  0  0  0  0  0  0  0  0  0  0
  195.7110  175.1520  144.0910 C   0  0  2  0  0  3  0  0  0  0  0  0
  197.1460  174.9380  143.6520 C   0  0  0  0  0  2  0  0  0  0  0  0
  195.6880  174.9180  146.5150 F   0  0  0  0  0  0  0  0  0  0  0  0
  195.5350  176.4840  144.4670 O   0  0  0  0  0  1  0  0  0  0  0  0
  195.8460  174.2510  145.3100 C   0  0  1  0  0  0  0  0  0  0  0  0
  187.6360  177.4150  143.3370 C   0  0  0  0  0  0  0  0  0  0  0  0
  188.7050  178.2790  143.0590 C   0  0  0  0  0  3  0  0  0  0  0  0
  190.1730  176.3840  142.7300 C   0  0  0  0  0  3  0  0  0  0  0  0
  189.9690  177.7650  142.7570 C   0  0  0  0  0  3  0  0  0  0  0  0
  187.8490  176.0290  143.3040 C   0  0  0  0  0  3  0  0  0  0  0  0
  189.1120  175.5090  143.0050 C   0  0  0  0  0  0  0  0  0  0  0  0
  184.7050  179.2940  144.5210 C   0  0  2  0  0  3  0  0  0  0  0  0
  185.2420  177.7380  142.8000 N   0  0  0  0  0  2  0  0  0  0  0  0
  184.2310  178.5600  143.3190 C   0  0  0  0  0  0  0  0  0  0  0  0
  186.0940  178.0580  145.9560 C   0  0  0  0  0  2  0  0  0  0  0  0
  186.1000  178.8360  144.7130 N   0  0  1  0  0  0  0  0  0  0  0  0
  183.9490  178.8580  145.7240 C   0  0  0  0  0  3  0  0  0  0  0  0
  186.3340  177.9380  143.6440 N   0  0  0  0  0  0  0  0  0  0  0  0
  184.7290  178.1670  146.5290 C   0  0  0  0  0  3  0  0  0  0  0  0
  183.0860  178.6630  142.8050 O   0  0  0  0  0  0  0  0  0  0  0  0
  188.5890  173.3440  141.8560 C   0  0  0  0  0  0  0  0  0  0  0  0
  187.9390  172.2890  142.0730 O   0  0  0  0  0  0  0  0  0  0  0  0
  188.6660  173.8650  140.5320 N   0  0  0  0  0  1  0  0  0  0  0  0
  1 30  1  6  0  0  0
  1 20  1  0  0  0  0
  1  6  1  0  0  0  0
  2  7  1  0  0  0  0
  2  6  2  0  0  0  0
  3  4  2  0  0  0  0
  3  5  1  0  0  0  0
  6  4  1  0  0  0  0
  7  3  1  0  0  0  0
  8 14  1  0  0  0  0
  8  5  1  0  0  0  0
  9 14  1  0  0  0  0
 10 13  1  1  0  0  0
 10 14  1  0  0  0  0
 11 10  1  0  0  0  0
 11  9  1  0  0  0  0
 14 12  1  1  0  0  0
 15 27  1  0  0  0  0
 16 15  2  0  0  0  0
 17 18  2  0  0  0  0
 17 20  1  0  0  0  0
 18 16  1  0  0  0  0
 19 15  1  0  0  0  0
 20 19  2  0  0  0  0
 21 25  1  0  0  0  0
 21 26  1  1  0  0  0
 22 23  1  0  0  0  0
 22 27  1  0  0  0  0
 23 21  1  0  0  0  0
 24 28  1  0  0  0  0
 25 24  1  1  0  0  0
 26 28  2  0  0  0  0
 27 25  1  0  0  0  0
 29 23  2  0  0  0  0
 30 31  2  0  0  0  0
 32 30  1  0  0  0  0
M  END
>  <MODEL>
9

>  <REMARK>
 VINA RESULT:      -7.2      2.702      5.319
  Name = 
  6 active torsions:
  status: ('A' for Active; 'I' for Inactive)
    1  A    between atoms: C_3  and  N_24
    2  A    between atoms: N_11  and  C_16
    3  A    between atoms: C_12  and  C_28
    4  A    between atoms: C_16  and  C_29
    5  A    between atoms: C_19  and  C_28
    6  A    between atoms: C_28  and  C_32
                            x       y       z     vdW  Elec       q    Type
                         _______ _______ _______ _____ _____    ______ ____

>  <TORSDO>
F 6

$$$$
