=
 OpenBabel11072408263D

 34 37  0  0  1  0  0  0  0  0999 V2000
  195.9570  173.9530  143.3910 C   0  0  0  0  0  3  0  0  0  0  0  0
  194.8990  174.1430  142.3890 C   0  0  0  0  0  3  0  0  0  0  0  0
  193.9540  176.0160  143.7280 C   0  0  1  0  0  3  0  0  0  0  0  0
  195.1680  175.8500  144.6020 C   0  0  0  0  0  0  0  0  0  0  0  0
  193.9800  175.1100  142.5160 C   0  0  0  0  0  0  0  0  0  0  0  0
  196.0700  174.7560  144.4030 N   0  0  0  0  0  0  0  0  0  0  0  0
  195.3810  176.6690  145.5340 O   0  0  0  0  0  0  0  0  0  0  0  0
  191.8190  177.8600  144.1660 O   0  0  0  0  0  0  0  0  0  0  0  0
  192.7570  175.7520  144.5150 N   0  0  0  0  0  2  0  0  0  0  0  0
  191.7030  176.7080  144.6680 C   0  0  0  0  0  0  0  0  0  0  0  0
  189.3830  175.0430  147.1410 C   0  0  0  0  0  3  0  0  0  0  0  0
  190.4890  176.3540  145.4220 C   0  0  0  0  0  0  0  0  0  0  0  0
  189.2710  176.9870  145.1380 C   0  0  0  0  0  3  0  0  0  0  0  0
  190.5370  175.3810  146.4290 C   0  0  0  0  0  3  0  0  0  0  0  0
  188.1730  175.6770  146.8510 C   0  0  0  0  0  3  0  0  0  0  0  0
  188.1080  176.6550  145.8490 C   0  0  0  0  0  0  0  0  0  0  0  0
  186.8350  177.3330  145.5500 C   0  0  0  0  0  0  0  0  0  0  0  0
  185.6040  176.8050  146.0400 N   0  0  0  0  0  1  0  0  0  0  0  0
  186.8210  178.3870  144.8610 O   0  0  0  0  0  0  0  0  0  0  0  0
  192.9720  175.2910  141.5130 N   0  0  0  0  0  2  0  0  0  0  0  0
  192.1030  174.2280  141.0190 C   0  0  0  0  0  2  0  0  0  0  0  0
  189.6500  171.9250  145.0150 Cl  0  0  0  0  0  0  0  0  0  0  0  0
  188.6540  174.7840  142.3620 C   0  0  0  0  0  0  0  0  0  0  0  0
  189.7860  174.8780  141.6120 N   0  0  0  0  0  0  0  0  0  0  0  0
  190.8810  174.1110  141.8690 C   0  0  0  0  0  0  0  0  0  0  0  0
  189.7040  173.0730  143.6950 C   0  0  0  0  0  0  0  0  0  0  0  0
  188.5950  173.8740  143.4200 C   0  0  0  0  0  3  0  0  0  0  0  0
  187.5220  175.6080  142.0800 N   0  0  0  0  0  2  0  0  0  0  0  0
  190.8550  173.1880  142.9160 C   0  0  0  0  0  3  0  0  0  0  0  0
  186.2570  177.1880  140.9130 N   0  0  0  0  0  2  0  0  0  0  0  0
  188.0500  177.8770  141.5600 C   0  0  0  0  0  0  0  0  0  0  0  0
  187.5260  176.6160  141.0300 C   0  0  1  0  0  3  0  0  0  0  0  0
  186.6910  178.4350  141.4050 N   0  0  0  0  0  2  0  0  0  0  0  0
  189.1610  178.3030  141.9670 O   0  0  0  0  0  0  0  0  0  0  0  0
  1  6  2  0  0  0  0
  2  5  2  0  0  0  0
  2  1  1  0  0  0  0
  3  9  1  1  0  0  0
  3  4  1  0  0  0  0
  4  7  2  0  0  0  0
  5  3  1  0  0  0  0
  6  4  1  0  0  0  0
  8 10  2  0  0  0  0
  9 10  1  0  0  0  0
 10 12  1  0  0  0  0
 12 14  1  0  0  0  0
 13 12  2  0  0  0  0
 13 16  1  0  0  0  0
 14 11  2  0  0  0  0
 15 11  1  0  0  0  0
 16 15  2  0  0  0  0
 17 16  1  0  0  0  0
 17 18  1  0  0  0  0
 19 17  2  0  0  0  0
 20  5  1  0  0  0  0
 21 20  1  0  0  0  0
 21 25  1  0  0  0  0
 23 27  1  0  0  0  0
 24 25  1  0  0  0  0
 24 23  2  0  0  0  0
 25 29  2  0  0  0  0
 26 22  1  0  0  0  0
 27 26  2  0  0  0  0
 28 23  1  0  0  0  0
 29 26  1  0  0  0  0
 30 32  1  0  0  0  0
 30 33  1  0  0  0  0
 31 34  2  0  0  0  0
 32 31  1  0  0  0  0
 32 28  1  1  0  0  0
 33 31  1  0  0  0  0
M  END
>  <MODEL>
1

>  <REMARK>
 VINA RESULT:      -6.9      0.000      0.000
  Name = 
  7 active torsions:
  status: ('A' for Active; 'I' for Inactive)
    1  A    between atoms: C_7  and  N_23
    2  A    between atoms: N_8  and  C_12
    3  A    between atoms: N_8  and  C_30
    4  A    between atoms: C_10  and  C_25
    5  A    between atoms: C_12  and  C_18
    6  A    between atoms: C_14  and  N_17
    7  A    between atoms: C_16  and  C_29
                            x       y       z     vdW  Elec       q    Type
                         _______ _______ _______ _____ _____    ______ ____

>  <TORSDO>
F 7

$$$$
=
 OpenBabel11072408263D

 34 37  0  0  1  0  0  0  0  0999 V2000
  185.3180  179.5610  144.9910 C   0  0  0  0  0  3  0  0  0  0  0  0
  185.5410  178.4910  144.0080 C   0  0  0  0  0  3  0  0  0  0  0  0
  186.4910  177.0380  145.7920 C   0  0  1  0  0  3  0  0  0  0  0  0
  186.0680  178.1260  146.7420 C   0  0  0  0  0  0  0  0  0  0  0  0
  186.0570  177.3080  144.3670 C   0  0  0  0  0  0  0  0  0  0  0  0
  185.5600  179.3710  146.2510 N   0  0  0  0  0  0  0  0  0  0  0  0
  186.1840  177.9490  147.9830 O   0  0  0  0  0  0  0  0  0  0  0  0
  187.9050  175.1980  147.4540 O   0  0  0  0  0  0  0  0  0  0  0  0
  187.9390  176.8900  145.8470 N   0  0  0  0  0  2  0  0  0  0  0  0
  188.5880  175.9210  146.6770 C   0  0  0  0  0  0  0  0  0  0  0  0
  192.2630  176.5110  147.3250 C   0  0  0  0  0  3  0  0  0  0  0  0
  190.0530  175.7770  146.6360 C   0  0  0  0  0  0  0  0  0  0  0  0
  190.6420  174.7670  145.8630 C   0  0  0  0  0  3  0  0  0  0  0  0
  190.8730  176.6460  147.3680 C   0  0  0  0  0  3  0  0  0  0  0  0
  192.8420  175.5040  146.5500 C   0  0  0  0  0  3  0  0  0  0  0  0
  192.0370  174.6230  145.8160 C   0  0  0  0  0  0  0  0  0  0  0  0
  192.6470  173.5530  145.0080 C   0  0  0  0  0  0  0  0  0  0  0  0
  193.9520  173.7180  144.4580 N   0  0  0  0  0  1  0  0  0  0  0  0
  192.0220  172.4800  144.7960 O   0  0  0  0  0  0  0  0  0  0  0  0
  186.2430  176.2720  143.3950 N   0  0  0  0  0  2  0  0  0  0  0  0
  186.9400  176.4490  142.1250 C   0  0  0  0  0  2  0  0  0  0  0  0
  191.5490  178.4240  143.5890 Cl  0  0  0  0  0  0  0  0  0  0  0  0
  190.3430  174.8910  142.0840 C   0  0  0  0  0  0  0  0  0  0  0  0
  189.0020  175.0870  141.9460 N   0  0  0  0  0  0  0  0  0  0  0  0
  188.4100  176.2610  142.3010 C   0  0  0  0  0  0  0  0  0  0  0  0
  190.5600  177.1280  142.9540 C   0  0  0  0  0  0  0  0  0  0  0  0
  191.1460  175.9150  142.5910 C   0  0  0  0  0  3  0  0  0  0  0  0
  190.9390  173.6470  141.7150 N   0  0  0  0  0  2  0  0  0  0  0  0
  189.1840  177.3070  142.8070 C   0  0  0  0  0  3  0  0  0  0  0  0
  191.0160  171.4850  140.8340 N   0  0  0  0  0  2  0  0  0  0  0  0
  189.7060  171.7080  142.3640 C   0  0  0  0  0  0  0  0  0  0  0  0
  190.1620  172.5160  141.2300 C   0  0  1  0  0  3  0  0  0  0  0  0
  190.6190  170.6470  141.8950 N   0  0  0  0  0  2  0  0  0  0  0  0
  188.8990  171.8490  143.3180 O   0  0  0  0  0  0  0  0  0  0  0  0
  1  6  2  0  0  0  0
  2  5  2  0  0  0  0
  2  1  1  0  0  0  0
  3  9  1  6  0  0  0
  3  4  1  0  0  0  0
  4  7  2  0  0  0  0
  5  3  1  0  0  0  0
  6  4  1  0  0  0  0
  9 10  1  0  0  0  0
 10  8  2  0  0  0  0
 11 14  1  0  0  0  0
 12 10  1  0  0  0  0
 12 14  2  0  0  0  0
 13 12  1  0  0  0  0
 15 11  2  0  0  0  0
 16 13  2  0  0  0  0
 16 15  1  0  0  0  0
 17 16  1  0  0  0  0
 18 17  1  0  0  0  0
 19 17  2  0  0  0  0
 20  5  1  0  0  0  0
 21 25  1  0  0  0  0
 21 20  1  0  0  0  0
 23 27  1  0  0  0  0
 24 23  2  0  0  0  0
 24 25  1  0  0  0  0
 25 29  2  0  0  0  0
 26 22  1  0  0  0  0
 27 26  2  0  0  0  0
 28 23  1  0  0  0  0
 29 26  1  0  0  0  0
 30 32  1  0  0  0  0
 30 33  1  0  0  0  0
 31 34  2  0  0  0  0
 32 28  1  1  0  0  0
 32 31  1  0  0  0  0
 33 31  1  0  0  0  0
M  END
>  <MODEL>
2

>  <REMARK>
 VINA RESULT:      -6.9      2.941      6.615
  Name = 
  7 active torsions:
  status: ('A' for Active; 'I' for Inactive)
    1  A    between atoms: C_7  and  N_23
    2  A    between atoms: N_8  and  C_12
    3  A    between atoms: N_8  and  C_30
    4  A    between atoms: C_10  and  C_25
    5  A    between atoms: C_12  and  C_18
    6  A    between atoms: C_14  and  N_17
    7  A    between atoms: C_16  and  C_29
                            x       y       z     vdW  Elec       q    Type
                         _______ _______ _______ _____ _____    ______ ____

>  <TORSDO>
F 7

$$$$
=
 OpenBabel11072408263D

 34 37  0  0  1  0  0  0  0  0999 V2000
  185.4860  179.6670  143.8600 C   0  0  0  0  0  3  0  0  0  0  0  0
  185.7450  178.4730  143.0430 C   0  0  0  0  0  3  0  0  0  0  0  0
  186.4920  177.2360  145.0690 C   0  0  1  0  0  3  0  0  0  0  0  0
  186.0360  178.4490  145.8360 C   0  0  0  0  0  0  0  0  0  0  0  0
  186.1840  177.3320  143.5910 C   0  0  0  0  0  0  0  0  0  0  0  0
  185.6190  179.6350  145.1500 N   0  0  0  0  0  0  0  0  0  0  0  0
  186.0460  178.4300  147.0940 O   0  0  0  0  0  0  0  0  0  0  0  0
  187.6960  175.6660  147.1270 O   0  0  0  0  0  0  0  0  0  0  0  0
  187.9230  177.0550  145.2650 N   0  0  0  0  0  2  0  0  0  0  0  0
  188.4650  176.2230  146.2970 C   0  0  0  0  0  0  0  0  0  0  0  0
  191.8700  175.3240  147.6650 C   0  0  0  0  0  3  0  0  0  0  0  0
  189.9210  176.0280  146.3990 C   0  0  0  0  0  0  0  0  0  0  0  0
  190.7570  176.3680  145.3250 C   0  0  0  0  0  3  0  0  0  0  0  0
  190.4880  175.5030  147.5680 C   0  0  0  0  0  3  0  0  0  0  0  0
  192.6950  175.6670  146.5920 C   0  0  0  0  0  3  0  0  0  0  0  0
  192.1450  176.1890  145.4140 C   0  0  0  0  0  0  0  0  0  0  0  0
  193.0130  176.5410  144.2770 C   0  0  0  0  0  0  0  0  0  0  0  0
  192.4660  176.6960  142.9700 N   0  0  0  0  0  1  0  0  0  0  0  0
  194.2500  176.7110  144.4500 O   0  0  0  0  0  0  0  0  0  0  0  0
  186.4070  176.1740  142.7760 N   0  0  0  0  0  2  0  0  0  0  0  0
  187.2960  176.1390  141.6200 C   0  0  0  0  0  2  0  0  0  0  0  0
  190.0130  172.8520  144.6370 Cl  0  0  0  0  0  0  0  0  0  0  0  0
  189.6460  173.3870  140.6640 C   0  0  0  0  0  0  0  0  0  0  0  0
  188.7660  174.4250  140.6000 N   0  0  0  0  0  0  0  0  0  0  0  0
  188.2470  174.9930  141.7230 C   0  0  0  0  0  0  0  0  0  0  0  0
  189.5270  173.4610  143.0700 C   0  0  0  0  0  0  0  0  0  0  0  0
  190.0420  172.8880  141.9070 C   0  0  0  0  0  3  0  0  0  0  0  0
  190.1680  172.7990  139.4710 N   0  0  0  0  0  2  0  0  0  0  0  0
  188.6250  174.5220  142.9820 C   0  0  0  0  0  3  0  0  0  0  0  0
  190.7570  174.0270  137.5730 N   0  0  0  0  0  2  0  0  0  0  0  0
  190.0530  172.1700  137.1710 C   0  0  0  0  0  0  0  0  0  0  0  0
  189.7620  173.2290  138.1410 C   0  0  1  0  0  3  0  0  0  0  0  0
  191.0850  173.0600  136.6030 N   0  0  0  0  0  2  0  0  0  0  0  0
  189.6210  171.0140  136.9260 O   0  0  0  0  0  0  0  0  0  0  0  0
  1  6  2  0  0  0  0
  2  5  2  0  0  0  0
  2  1  1  0  0  0  0
  3  9  1  6  0  0  0
  3  4  1  0  0  0  0
  4  7  2  0  0  0  0
  5  3  1  0  0  0  0
  6  4  1  0  0  0  0
  9 10  1  0  0  0  0
 10 12  1  0  0  0  0
 10  8  2  0  0  0  0
 12 14  2  0  0  0  0
 13 16  2  0  0  0  0
 13 12  1  0  0  0  0
 14 11  1  0  0  0  0
 15 11  2  0  0  0  0
 16 15  1  0  0  0  0
 17 19  2  0  0  0  0
 17 16  1  0  0  0  0
 18 17  1  0  0  0  0
 20  5  1  0  0  0  0
 21 25  1  0  0  0  0
 21 20  1  0  0  0  0
 23 27  1  0  0  0  0
 24 23  2  0  0  0  0
 24 25  1  0  0  0  0
 25 29  2  0  0  0  0
 26 22  1  0  0  0  0
 27 26  2  0  0  0  0
 28 23  1  0  0  0  0
 29 26  1  0  0  0  0
 30 32  1  0  0  0  0
 31 32  1  0  0  0  0
 32 28  1  1  0  0  0
 33 31  1  0  0  0  0
 33 30  1  0  0  0  0
 34 31  2  0  0  0  0
M  END
>  <MODEL>
3

>  <REMARK>
 VINA RESULT:      -6.5      2.788      6.322
  Name = 
  7 active torsions:
  status: ('A' for Active; 'I' for Inactive)
    1  A    between atoms: C_7  and  N_23
    2  A    between atoms: N_8  and  C_12
    3  A    between atoms: N_8  and  C_30
    4  A    between atoms: C_10  and  C_25
    5  A    between atoms: C_12  and  C_18
    6  A    between atoms: C_14  and  N_17
    7  A    between atoms: C_16  and  C_29
                            x       y       z     vdW  Elec       q    Type
                         _______ _______ _______ _____ _____    ______ ____

>  <TORSDO>
F 7

$$$$
=
 OpenBabel11072408263D

 34 37  0  0  1  0  0  0  0  0999 V2000
  185.6000  177.3960  146.9110 C   0  0  0  0  0  3  0  0  0  0  0  0
  187.0690  177.4240  146.9440 C   0  0  0  0  0  3  0  0  0  0  0  0
  187.1330  177.5070  144.4580 C   0  0  1  0  0  3  0  0  0  0  0  0
  185.6360  177.6450  144.5400 C   0  0  0  0  0  0  0  0  0  0  0  0
  187.7930  177.5030  145.8200 C   0  0  0  0  0  0  0  0  0  0  0  0
  184.9550  177.5070  145.7910 N   0  0  0  0  0  0  0  0  0  0  0  0
  184.9730  177.8600  143.4910 O   0  0  0  0  0  0  0  0  0  0  0  0
  189.0750  177.2700  142.3790 O   0  0  0  0  0  0  0  0  0  0  0  0
  187.4630  176.2800  143.7460 N   0  0  0  0  0  2  0  0  0  0  0  0
  188.4760  176.2190  142.7350 C   0  0  0  0  0  0  0  0  0  0  0  0
  188.1660  172.6920  141.4160 C   0  0  0  0  0  3  0  0  0  0  0  0
  188.8070  174.9330  142.1000 C   0  0  0  0  0  0  0  0  0  0  0  0
  190.0880  174.7130  141.5750 C   0  0  0  0  0  3  0  0  0  0  0  0
  187.8480  173.9140  142.0140 C   0  0  0  0  0  3  0  0  0  0  0  0
  189.4450  172.4810  140.8960 C   0  0  0  0  0  3  0  0  0  0  0  0
  190.4150  173.4910  140.9700 C   0  0  0  0  0  0  0  0  0  0  0  0
  191.7610  173.2730  140.4130 C   0  0  0  0  0  0  0  0  0  0  0  0
  192.8890  173.9460  140.9660 N   0  0  0  0  0  1  0  0  0  0  0  0
  191.9290  172.4860  139.4440 O   0  0  0  0  0  0  0  0  0  0  0  0
  189.2240  177.5520  145.8800 N   0  0  0  0  0  2  0  0  0  0  0  0
  190.0420  176.7030  146.7390 C   0  0  0  0  0  2  0  0  0  0  0  0
  189.3550  171.9200  144.7520 Cl  0  0  0  0  0  0  0  0  0  0  0  0
  192.4070  174.5440  144.7990 C   0  0  0  0  0  0  0  0  0  0  0  0
  191.8720  175.5850  145.4960 N   0  0  0  0  0  0  0  0  0  0  0  0
  190.5950  175.5510  145.9650 C   0  0  0  0  0  0  0  0  0  0  0  0
  190.3310  173.3440  145.0390 C   0  0  0  0  0  0  0  0  0  0  0  0
  191.6410  173.4010  144.5600 C   0  0  0  0  0  3  0  0  0  0  0  0
  193.7460  174.6080  144.3070 N   0  0  0  0  0  2  0  0  0  0  0  0
  189.8020  174.4220  145.7480 C   0  0  0  0  0  3  0  0  0  0  0  0
  195.7980  175.4270  145.0680 N   0  0  0  0  0  2  0  0  0  0  0  0
  195.2880  176.0670  143.2140 C   0  0  0  0  0  0  0  0  0  0  0  0
  194.5880  175.7850  144.4690 C   0  0  1  0  0  3  0  0  0  0  0  0
  196.5400  175.6880  143.9000 N   0  0  0  0  0  2  0  0  0  0  0  0
  194.9710  176.4580  142.0610 O   0  0  0  0  0  0  0  0  0  0  0  0
  1  2  1  0  0  0  0
  3  9  1  1  0  0  0
  3  4  1  0  0  0  0
  3  5  1  0  0  0  0
  4  6  1  0  0  0  0
  5 20  1  0  0  0  0
  5  2  2  0  0  0  0
  6  1  2  0  0  0  0
  7  4  2  0  0  0  0
  8 10  2  0  0  0  0
 10  9  1  0  0  0  0
 11 14  1  0  0  0  0
 12 10  1  0  0  0  0
 13 12  1  0  0  0  0
 14 12  2  0  0  0  0
 15 16  1  0  0  0  0
 15 11  2  0  0  0  0
 16 13  2  0  0  0  0
 17 18  1  0  0  0  0
 17 16  1  0  0  0  0
 19 17  2  0  0  0  0
 20 21  1  0  0  0  0
 22 26  1  0  0  0  0
 23 24  2  0  0  0  0
 24 25  1  0  0  0  0
 25 21  1  0  0  0  0
 26 29  1  0  0  0  0
 27 23  1  0  0  0  0
 27 26  2  0  0  0  0
 28 23  1  0  0  0  0
 29 25  2  0  0  0  0
 31 33  1  0  0  0  0
 31 32  1  0  0  0  0
 32 28  1  6  0  0  0
 32 30  1  0  0  0  0
 33 30  1  0  0  0  0
 34 31  2  0  0  0  0
M  END
>  <MODEL>
4

>  <REMARK>
 VINA RESULT:      -6.5      2.029      7.168
  Name = 
  7 active torsions:
  status: ('A' for Active; 'I' for Inactive)
    1  A    between atoms: C_7  and  N_23
    2  A    between atoms: N_8  and  C_12
    3  A    between atoms: N_8  and  C_30
    4  A    between atoms: C_10  and  C_25
    5  A    between atoms: C_12  and  C_18
    6  A    between atoms: C_14  and  N_17
    7  A    between atoms: C_16  and  C_29
                            x       y       z     vdW  Elec       q    Type
                         _______ _______ _______ _____ _____    ______ ____

>  <TORSDO>
F 7

$$$$
=
 OpenBabel11072408263D

 34 37  0  0  1  0  0  0  0  0999 V2000
  187.8470  173.2090  141.8570 C   0  0  0  0  0  3  0  0  0  0  0  0
  187.7960  174.6370  142.2000 C   0  0  0  0  0  3  0  0  0  0  0  0
  190.2470  174.8260  141.8140 C   0  0  1  0  0  3  0  0  0  0  0  0
  190.1620  173.4070  141.3190 C   0  0  0  0  0  0  0  0  0  0  0  0
  188.8930  175.4060  142.1590 C   0  0  0  0  0  0  0  0  0  0  0  0
  188.9470  172.6600  141.4450 N   0  0  0  0  0  0  0  0  0  0  0  0
  191.1770  172.8630  140.8120 O   0  0  0  0  0  0  0  0  0  0  0  0
  192.9260  175.8120  141.8420 O   0  0  0  0  0  0  0  0  0  0  0  0
  191.1170  174.8760  142.9810 N   0  0  0  0  0  2  0  0  0  0  0  0
  192.4420  175.4170  142.9380 C   0  0  0  0  0  0  0  0  0  0  0  0
  193.5250  176.2650  146.4560 C   0  0  0  0  0  3  0  0  0  0  0  0
  193.2460  175.4990  144.1690 C   0  0  0  0  0  0  0  0  0  0  0  0
  194.5080  174.8920  144.2310 C   0  0  0  0  0  3  0  0  0  0  0  0
  192.7590  176.1840  145.2910 C   0  0  0  0  0  3  0  0  0  0  0  0
  194.7830  175.6590  146.5090 C   0  0  0  0  0  3  0  0  0  0  0  0
  195.2820  174.9660  145.3980 C   0  0  0  0  0  0  0  0  0  0  0  0
  196.6030  174.3170  145.4560 C   0  0  0  0  0  0  0  0  0  0  0  0
  197.4650  174.3290  144.3200 N   0  0  0  0  0  1  0  0  0  0  0  0
  196.9870  173.7480  146.5120 O   0  0  0  0  0  0  0  0  0  0  0  0
  188.8130  176.8010  142.4750 N   0  0  0  0  0  2  0  0  0  0  0  0
  188.1600  177.8000  141.6360 C   0  0  0  0  0  2  0  0  0  0  0  0
  183.0790  178.2570  140.5130 Cl  0  0  0  0  0  0  0  0  0  0  0  0
  185.2660  178.5840  143.8760 C   0  0  0  0  0  0  0  0  0  0  0  0
  186.5240  178.3350  143.4190 N   0  0  0  0  0  0  0  0  0  0  0  0
  186.7670  178.0540  142.1090 C   0  0  0  0  0  0  0  0  0  0  0  0
  184.4160  178.2850  141.6410 C   0  0  0  0  0  0  0  0  0  0  0  0
  184.1870  178.5640  142.9890 C   0  0  0  0  0  3  0  0  0  0  0  0
  185.0340  178.8650  145.2570 N   0  0  0  0  0  2  0  0  0  0  0  0
  185.7130  178.0310  141.1930 C   0  0  0  0  0  3  0  0  0  0  0  0
  185.5840  179.1890  147.5050 N   0  0  0  0  0  2  0  0  0  0  0  0
  186.3260  177.4790  146.7100 C   0  0  0  0  0  0  0  0  0  0  0  0
  186.0980  178.8510  146.2510 C   0  0  1  0  0  3  0  0  0  0  0  0
  185.7840  177.8930  148.0190 N   0  0  0  0  0  2  0  0  0  0  0  0
  186.7800  176.4150  146.2150 O   0  0  0  0  0  0  0  0  0  0  0  0
  1  2  1  0  0  0  0
  3  5  1  0  0  0  0
  3  9  1  1  0  0  0
  4  6  1  0  0  0  0
  4  3  1  0  0  0  0
  5  2  2  0  0  0  0
  5 20  1  0  0  0  0
  6  1  2  0  0  0  0
  7  4  2  0  0  0  0
  8 10  2  0  0  0  0
 10  9  1  0  0  0  0
 10 12  1  0  0  0  0
 11 15  1  0  0  0  0
 12 13  2  0  0  0  0
 12 14  1  0  0  0  0
 13 16  1  0  0  0  0
 14 11  2  0  0  0  0
 16 17  1  0  0  0  0
 16 15  2  0  0  0  0
 17 19  2  0  0  0  0
 18 17  1  0  0  0  0
 21 25  1  0  0  0  0
 21 20  1  0  0  0  0
 22 26  1  0  0  0  0
 23 28  1  0  0  0  0
 24 23  2  0  0  0  0
 25 24  1  0  0  0  0
 26 27  2  0  0  0  0
 27 23  1  0  0  0  0
 29 26  1  0  0  0  0
 29 25  2  0  0  0  0
 30 33  1  0  0  0  0
 31 33  1  0  0  0  0
 32 28  1  6  0  0  0
 32 31  1  0  0  0  0
 32 30  1  0  0  0  0
 34 31  2  0  0  0  0
M  END
>  <MODEL>
5

>  <REMARK>
 VINA RESULT:      -6.4      2.876      6.640
  Name = 
  7 active torsions:
  status: ('A' for Active; 'I' for Inactive)
    1  A    between atoms: C_7  and  N_23
    2  A    between atoms: N_8  and  C_12
    3  A    between atoms: N_8  and  C_30
    4  A    between atoms: C_10  and  C_25
    5  A    between atoms: C_12  and  C_18
    6  A    between atoms: C_14  and  N_17
    7  A    between atoms: C_16  and  C_29
                            x       y       z     vdW  Elec       q    Type
                         _______ _______ _______ _____ _____    ______ ____

>  <TORSDO>
F 7

$$$$
=
 OpenBabel11072408263D

 34 37  0  0  1  0  0  0  0  0999 V2000
  195.0990  174.3080  145.3890 C   0  0  0  0  0  3  0  0  0  0  0  0
  194.1830  174.0920  144.2610 C   0  0  0  0  0  3  0  0  0  0  0  0
  193.0400  176.2440  144.7650 C   0  0  1  0  0  3  0  0  0  0  0  0
  194.1280  176.4500  145.7850 C   0  0  0  0  0  0  0  0  0  0  0  0
  193.2420  174.9910  143.9420 C   0  0  0  0  0  0  0  0  0  0  0  0
  195.0640  175.4070  146.0770 N   0  0  0  0  0  0  0  0  0  0  0  0
  194.2010  177.5430  146.4050 O   0  0  0  0  0  0  0  0  0  0  0  0
  190.7740  177.8700  144.1580 O   0  0  0  0  0  0  0  0  0  0  0  0
  191.7520  176.1870  145.4440 N   0  0  0  0  0  2  0  0  0  0  0  0
  190.6400  177.0060  145.0670 C   0  0  0  0  0  0  0  0  0  0  0  0
  187.9160  175.6650  147.3140 C   0  0  0  0  0  3  0  0  0  0  0  0
  189.3450  176.8510  145.7500 C   0  0  0  0  0  0  0  0  0  0  0  0
  188.2950  177.7420  145.4850 C   0  0  0  0  0  3  0  0  0  0  0  0
  189.1460  175.8130  146.6700 C   0  0  0  0  0  3  0  0  0  0  0  0
  186.8740  176.5560  147.0430 C   0  0  0  0  0  3  0  0  0  0  0  0
  187.0570  177.6020  146.1290 C   0  0  0  0  0  0  0  0  0  0  0  0
  185.9630  178.5490  145.8510 C   0  0  0  0  0  0  0  0  0  0  0  0
  184.7520  178.4930  146.6010 N   0  0  0  0  0  1  0  0  0  0  0  0
  186.0880  179.4190  144.9490 O   0  0  0  0  0  0  0  0  0  0  0  0
  192.3760  174.7690  142.8220 N   0  0  0  0  0  2  0  0  0  0  0  0
  192.1150  173.4610  142.2290 C   0  0  0  0  0  2  0  0  0  0  0  0
  189.3280  171.4450  138.2970 Cl  0  0  0  0  0  0  0  0  0  0  0  0
  188.8190  174.5400  140.8200 C   0  0  0  0  0  0  0  0  0  0  0  0
  189.9450  174.4690  141.5830 N   0  0  0  0  0  0  0  0  0  0  0  0
  190.8840  173.5030  141.3850 C   0  0  0  0  0  0  0  0  0  0  0  0
  189.5670  172.6180  139.5740 C   0  0  0  0  0  0  0  0  0  0  0  0
  188.6130  173.6110  139.7980 C   0  0  0  0  0  3  0  0  0  0  0  0
  187.8430  175.5550  141.0550 N   0  0  0  0  0  2  0  0  0  0  0  0
  190.7120  172.5610  140.3690 C   0  0  0  0  0  3  0  0  0  0  0  0
  188.4550  177.7330  141.6380 N   0  0  0  0  0  2  0  0  0  0  0  0
  186.6600  177.1530  142.3780 C   0  0  0  0  0  0  0  0  0  0  0  0
  187.9610  176.5250  142.1340 C   0  0  1  0  0  3  0  0  0  0  0  0
  187.2370  178.4070  141.8540 N   0  0  0  0  0  2  0  0  0  0  0  0
  185.5440  176.7910  142.8300 O   0  0  0  0  0  0  0  0  0  0  0  0
  1  6  2  0  0  0  0
  2  1  1  0  0  0  0
  3  9  1  1  0  0  0
  3  4  1  0  0  0  0
  4  6  1  0  0  0  0
  4  7  2  0  0  0  0
  5  2  2  0  0  0  0
  5  3  1  0  0  0  0
  8 10  2  0  0  0  0
 10  9  1  0  0  0  0
 10 12  1  0  0  0  0
 12 14  1  0  0  0  0
 13 12  2  0  0  0  0
 13 16  1  0  0  0  0
 14 11  2  0  0  0  0
 15 11  1  0  0  0  0
 16 15  2  0  0  0  0
 17 16  1  0  0  0  0
 17 18  1  0  0  0  0
 19 17  2  0  0  0  0
 20  5  1  0  0  0  0
 21 20  1  0  0  0  0
 22 26  1  0  0  0  0
 23 28  1  0  0  0  0
 23 24  2  0  0  0  0
 25 24  1  0  0  0  0
 25 21  1  0  0  0  0
 26 27  2  0  0  0  0
 26 29  1  0  0  0  0
 27 23  1  0  0  0  0
 29 25  2  0  0  0  0
 30 33  1  0  0  0  0
 30 32  1  0  0  0  0
 31 34  2  0  0  0  0
 32 28  1  6  0  0  0
 32 31  1  0  0  0  0
 33 31  1  0  0  0  0
M  END
>  <MODEL>
6

>  <REMARK>
 VINA RESULT:      -6.4      1.961      2.215
  Name = 
  7 active torsions:
  status: ('A' for Active; 'I' for Inactive)
    1  A    between atoms: C_7  and  N_23
    2  A    between atoms: N_8  and  C_12
    3  A    between atoms: N_8  and  C_30
    4  A    between atoms: C_10  and  C_25
    5  A    between atoms: C_12  and  C_18
    6  A    between atoms: C_14  and  N_17
    7  A    between atoms: C_16  and  C_29
                            x       y       z     vdW  Elec       q    Type
                         _______ _______ _______ _____ _____    ______ ____

>  <TORSDO>
F 7

$$$$
=
 OpenBabel11072408263D

 34 37  0  0  1  0  0  0  0  0999 V2000
  194.9010  174.3160  145.3090 C   0  0  0  0  0  3  0  0  0  0  0  0
  194.1500  174.4200  144.0500 C   0  0  0  0  0  3  0  0  0  0  0  0
  193.0960  176.5310  144.8410 C   0  0  1  0  0  3  0  0  0  0  0  0
  194.0320  176.4220  146.0150 C   0  0  0  0  0  0  0  0  0  0  0  0
  193.3310  175.4530  143.8060 C   0  0  0  0  0  0  0  0  0  0  0  0
  194.8400  175.2550  146.2020 N   0  0  0  0  0  0  0  0  0  0  0  0
  194.0880  177.3570  146.8560 O   0  0  0  0  0  0  0  0  0  0  0  0
  190.9710  178.2410  143.9990 O   0  0  0  0  0  0  0  0  0  0  0  0
  191.7210  176.4670  145.3170 N   0  0  0  0  0  2  0  0  0  0  0  0
  190.6900  177.3320  144.8270 C   0  0  0  0  0  0  0  0  0  0  0  0
  187.7050  176.1820  146.8350 C   0  0  0  0  0  3  0  0  0  0  0  0
  189.3060  177.1710  145.3010 C   0  0  0  0  0  0  0  0  0  0  0  0
  188.2580  177.8520  144.6650 C   0  0  0  0  0  3  0  0  0  0  0  0
  189.0190  176.3370  146.3900 C   0  0  0  0  0  3  0  0  0  0  0  0
  186.6660  176.8620  146.1950 C   0  0  0  0  0  3  0  0  0  0  0  0
  186.9350  177.7030  145.1070 C   0  0  0  0  0  0  0  0  0  0  0  0
  185.8420  178.4290  144.4380 C   0  0  0  0  0  0  0  0  0  0  0  0
  185.0170  177.7700  143.4800 N   0  0  0  0  0  1  0  0  0  0  0  0
  185.6220  179.6400  144.7090 O   0  0  0  0  0  0  0  0  0  0  0  0
  192.6280  175.5430  142.5610 N   0  0  0  0  0  2  0  0  0  0  0  0
  192.5800  174.4800  141.5620 C   0  0  0  0  0  2  0  0  0  0  0  0
  187.4830  175.2190  142.4370 Cl  0  0  0  0  0  0  0  0  0  0  0  0
  189.6110  172.7990  140.0240 C   0  0  0  0  0  0  0  0  0  0  0  0
  190.8900  173.1550  140.3260 N   0  0  0  0  0  0  0  0  0  0  0  0
  191.1660  174.1240  141.2420 C   0  0  0  0  0  0  0  0  0  0  0  0
  188.8060  174.4190  141.6160 C   0  0  0  0  0  0  0  0  0  0  0  0
  188.5440  173.4290  140.6690 C   0  0  0  0  0  3  0  0  0  0  0  0
  189.3460  171.7880  139.0510 N   0  0  0  0  0  2  0  0  0  0  0  0
  190.1240  174.7700  141.9090 C   0  0  0  0  0  3  0  0  0  0  0  0
  190.5930  169.8300  138.7860 N   0  0  0  0  0  2  0  0  0  0  0  0
  189.8530  170.5800  137.0550 C   0  0  0  0  0  0  0  0  0  0  0  0
  190.4020  171.1250  138.2990 C   0  0  1  0  0  3  0  0  0  0  0  0
  190.0870  169.2340  137.6140 N   0  0  0  0  0  2  0  0  0  0  0  0
  189.3870  171.0460  135.9830 O   0  0  0  0  0  0  0  0  0  0  0  0
  1  6  2  0  0  0  0
  2  1  1  0  0  0  0
  3  9  1  1  0  0  0
  3  4  1  0  0  0  0
  4  6  1  0  0  0  0
  4  7  2  0  0  0  0
  5  2  2  0  0  0  0
  5  3  1  0  0  0  0
  8 10  2  0  0  0  0
 10 12  1  0  0  0  0
 10  9  1  0  0  0  0
 12 14  2  0  0  0  0
 13 16  2  0  0  0  0
 13 12  1  0  0  0  0
 14 11  1  0  0  0  0
 15 11  2  0  0  0  0
 16 15  1  0  0  0  0
 17 19  2  0  0  0  0
 17 16  1  0  0  0  0
 18 17  1  0  0  0  0
 20  5  1  0  0  0  0
 21 20  1  0  0  0  0
 23 24  2  0  0  0  0
 23 27  1  0  0  0  0
 24 25  1  0  0  0  0
 25 21  1  0  0  0  0
 25 29  2  0  0  0  0
 26 29  1  0  0  0  0
 26 22  1  0  0  0  0
 27 26  2  0  0  0  0
 28 23  1  0  0  0  0
 31 33  1  0  0  0  0
 31 32  1  0  0  0  0
 32 30  1  0  0  0  0
 32 28  1  1  0  0  0
 33 30  1  0  0  0  0
 34 31  2  0  0  0  0
M  END
>  <MODEL>
7

>  <REMARK>
 VINA RESULT:      -6.2      3.108      4.017
  Name = 
  7 active torsions:
  status: ('A' for Active; 'I' for Inactive)
    1  A    between atoms: C_7  and  N_23
    2  A    between atoms: N_8  and  C_12
    3  A    between atoms: N_8  and  C_30
    4  A    between atoms: C_10  and  C_25
    5  A    between atoms: C_12  and  C_18
    6  A    between atoms: C_14  and  N_17
    7  A    between atoms: C_16  and  C_29
                            x       y       z     vdW  Elec       q    Type
                         _______ _______ _______ _____ _____    ______ ____

>  <TORSDO>
F 7

$$$$
=
 OpenBabel11072408263D

 34 37  0  0  1  0  0  0  0  0999 V2000
  191.3020  172.4950  138.3110 C   0  0  0  0  0  3  0  0  0  0  0  0
  191.1830  171.8450  139.6230 C   0  0  0  0  0  3  0  0  0  0  0  0
  189.1600  173.2050  140.1240 C   0  0  1  0  0  3  0  0  0  0  0  0
  189.2720  173.6840  138.7020 C   0  0  0  0  0  0  0  0  0  0  0  0
  190.1820  172.1410  140.4630 C   0  0  0  0  0  0  0  0  0  0  0  0
  190.4050  173.3370  137.8990 N   0  0  0  0  0  0  0  0  0  0  0  0
  188.3700  174.4190  138.2200 O   0  0  0  0  0  0  0  0  0  0  0  0
  187.2530  174.0270  142.0830 O   0  0  0  0  0  0  0  0  0  0  0  0
  189.3100  174.3390  141.0260 N   0  0  0  0  0  2  0  0  0  0  0  0
  188.3310  174.6790  142.0130 C   0  0  0  0  0  0  0  0  0  0  0  0
  189.8630  177.7500  143.5930 C   0  0  0  0  0  3  0  0  0  0  0  0
  188.5750  175.7980  142.9390 C   0  0  0  0  0  0  0  0  0  0  0  0
  187.7520  175.9800  144.0600 C   0  0  0  0  0  3  0  0  0  0  0  0
  189.6300  176.6920  142.7110 C   0  0  0  0  0  3  0  0  0  0  0  0
  189.0400  177.9240  144.7080 C   0  0  0  0  0  3  0  0  0  0  0  0
  187.9770  177.0420  144.9480 C   0  0  0  0  0  0  0  0  0  0  0  0
  187.1020  177.2300  146.1180 C   0  0  0  0  0  0  0  0  0  0  0  0
  185.7510  176.7750  146.0900 N   0  0  0  0  0  1  0  0  0  0  0  0
  187.5400  177.7940  147.1560 O   0  0  0  0  0  0  0  0  0  0  0  0
  190.0740  171.4760  141.7270 N   0  0  0  0  0  2  0  0  0  0  0  0
  191.1770  171.3110  142.6680 C   0  0  0  0  0  2  0  0  0  0  0  0
  189.5780  174.3480  146.6070 Cl  0  0  0  0  0  0  0  0  0  0  0  0
  192.5480  174.5690  143.8990 C   0  0  0  0  0  0  0  0  0  0  0  0
  192.3620  173.4250  143.1830 N   0  0  0  0  0  0  0  0  0  0  0  0
  191.3640  172.5490  143.4810 C   0  0  0  0  0  0  0  0  0  0  0  0
  190.6600  173.9880  145.2790 C   0  0  0  0  0  0  0  0  0  0  0  0
  191.6950  174.8700  144.9630 C   0  0  0  0  0  3  0  0  0  0  0  0
  193.6100  175.4670  143.5750 N   0  0  0  0  0  2  0  0  0  0  0  0
  190.4890  172.8210  144.5350 C   0  0  0  0  0  3  0  0  0  0  0  0
  194.1990  175.8690  141.3500 N   0  0  0  0  0  2  0  0  0  0  0  0
  195.7290  176.0840  142.6620 C   0  0  0  0  0  0  0  0  0  0  0  0
  194.5730  175.1970  142.5160 C   0  0  1  0  0  3  0  0  0  0  0  0
  195.2950  176.7520  141.4190 N   0  0  0  0  0  2  0  0  0  0  0  0
  196.6740  176.2230  143.4800 O   0  0  0  0  0  0  0  0  0  0  0  0
  1  2  1  0  0  0  0
  2  5  2  0  0  0  0
  3  5  1  0  0  0  0
  3  9  1  1  0  0  0
  4  3  1  0  0  0  0
  5 20  1  0  0  0  0
  6  1  2  0  0  0  0
  6  4  1  0  0  0  0
  7  4  2  0  0  0  0
  9 10  1  0  0  0  0
 10  8  2  0  0  0  0
 10 12  1  0  0  0  0
 11 15  1  0  0  0  0
 12 13  2  0  0  0  0
 13 16  1  0  0  0  0
 14 12  1  0  0  0  0
 14 11  2  0  0  0  0
 15 16  2  0  0  0  0
 16 17  1  0  0  0  0
 17 19  2  0  0  0  0
 18 17  1  0  0  0  0
 20 21  1  0  0  0  0
 21 25  1  0  0  0  0
 23 27  1  0  0  0  0
 24 25  1  0  0  0  0
 24 23  2  0  0  0  0
 25 29  2  0  0  0  0
 26 22  1  0  0  0  0
 27 26  2  0  0  0  0
 28 23  1  0  0  0  0
 29 26  1  0  0  0  0
 30 33  1  0  0  0  0
 30 32  1  0  0  0  0
 31 34  2  0  0  0  0
 32 31  1  0  0  0  0
 32 28  1  1  0  0  0
 33 31  1  0  0  0  0
M  END
>  <MODEL>
8

>  <REMARK>
 VINA RESULT:      -6.2      2.436      5.485
  Name = 
  7 active torsions:
  status: ('A' for Active; 'I' for Inactive)
    1  A    between atoms: C_7  and  N_23
    2  A    between atoms: N_8  and  C_12
    3  A    between atoms: N_8  and  C_30
    4  A    between atoms: C_10  and  C_25
    5  A    between atoms: C_12  and  C_18
    6  A    between atoms: C_14  and  N_17
    7  A    between atoms: C_16  and  C_29
                            x       y       z     vdW  Elec       q    Type
                         _______ _______ _______ _____ _____    ______ ____

>  <TORSDO>
F 7

$$$$
=
 OpenBabel11072408263D

 34 37  0  0  1  0  0  0  0  0999 V2000
  191.0140  173.0630  142.3430 C   0  0  0  0  0  3  0  0  0  0  0  0
  191.5840  174.3720  142.6940 C   0  0  0  0  0  3  0  0  0  0  0  0
  190.3420  174.3440  144.8510 C   0  0  1  0  0  3  0  0  0  0  0  0
  189.9510  172.9400  144.4740 C   0  0  0  0  0  0  0  0  0  0  0  0
  191.3050  174.9660  143.8620 C   0  0  0  0  0  0  0  0  0  0  0  0
  190.2680  172.4130  143.1820 N   0  0  0  0  0  0  0  0  0  0  0  0
  189.3160  172.2300  145.2970 O   0  0  0  0  0  0  0  0  0  0  0  0
  189.4620  175.7000  147.2040 O   0  0  0  0  0  0  0  0  0  0  0  0
  189.1430  175.1650  144.9550 N   0  0  0  0  0  2  0  0  0  0  0  0
  188.7750  175.8500  146.1570 C   0  0  0  0  0  0  0  0  0  0  0  0
  185.5680  177.5050  147.2760 C   0  0  0  0  0  3  0  0  0  0  0  0
  187.5850  176.7170  146.1760 C   0  0  0  0  0  0  0  0  0  0  0  0
  187.3270  177.5860  145.1070 C   0  0  0  0  0  3  0  0  0  0  0  0
  186.6990  176.6840  147.2610 C   0  0  0  0  0  3  0  0  0  0  0  0
  185.3170  178.3660  146.2050 C   0  0  0  0  0  3  0  0  0  0  0  0
  186.1950  178.4150  145.1140 C   0  0  0  0  0  0  0  0  0  0  0  0
  185.9370  179.3310  143.9900 C   0  0  0  0  0  0  0  0  0  0  0  0
  186.1030  178.8890  142.6450 N   0  0  0  0  0  1  0  0  0  0  0  0
  185.5640  180.5150  144.2070 O   0  0  0  0  0  0  0  0  0  0  0  0
  191.8910  176.2310  144.1910 N   0  0  0  0  0  2  0  0  0  0  0  0
  192.8990  176.4280  145.2280 C   0  0  0  0  0  2  0  0  0  0  0  0
  197.6710  176.6420  143.1130 Cl  0  0  0  0  0  0  0  0  0  0  0  0
  195.4550  173.7290  144.7880 C   0  0  0  0  0  0  0  0  0  0  0  0
  194.3150  174.3970  145.1180 N   0  0  0  0  0  0  0  0  0  0  0  0
  194.1670  175.7270  144.8670 C   0  0  0  0  0  0  0  0  0  0  0  0
  196.3690  175.7720  143.8930 C   0  0  0  0  0  0  0  0  0  0  0  0
  196.5040  174.4100  144.1660 C   0  0  0  0  0  3  0  0  0  0  0  0
  195.5920  172.3360  145.0720 N   0  0  0  0  0  2  0  0  0  0  0  0
  195.1940  176.4380  144.2420 C   0  0  0  0  0  3  0  0  0  0  0  0
  193.5410  171.2340  144.8770 N   0  0  0  0  0  2  0  0  0  0  0  0
  194.9670  170.1640  145.8420 C   0  0  0  0  0  0  0  0  0  0  0  0
  194.5650  171.5710  145.7650 C   0  0  1  0  0  3  0  0  0  0  0  0
  193.8620  169.8630  144.9100 N   0  0  0  0  0  2  0  0  0  0  0  0
  195.8560  169.5010  146.4360 O   0  0  0  0  0  0  0  0  0  0  0  0
  1  2  1  0  0  0  0
  1  6  2  0  0  0  0
  2  5  2  0  0  0  0
  3  9  1  6  0  0  0
  4  3  1  0  0  0  0
  4  7  2  0  0  0  0
  5 20  1  0  0  0  0
  5  3  1  0  0  0  0
  6  4  1  0  0  0  0
  9 10  1  0  0  0  0
 10 12  1  0  0  0  0
 10  8  2  0  0  0  0
 12 14  2  0  0  0  0
 13 16  2  0  0  0  0
 13 12  1  0  0  0  0
 14 11  1  0  0  0  0
 15 11  2  0  0  0  0
 16 15  1  0  0  0  0
 17 19  2  0  0  0  0
 17 16  1  0  0  0  0
 18 17  1  0  0  0  0
 20 21  1  0  0  0  0
 22 26  1  0  0  0  0
 23 28  1  0  0  0  0
 23 24  2  0  0  0  0
 25 24  1  0  0  0  0
 25 21  1  0  0  0  0
 26 27  2  0  0  0  0
 26 29  1  0  0  0  0
 27 23  1  0  0  0  0
 29 25  2  0  0  0  0
 30 33  1  0  0  0  0
 30 32  1  0  0  0  0
 31 34  2  0  0  0  0
 32 28  1  6  0  0  0
 32 31  1  0  0  0  0
 33 31  1  0  0  0  0
M  END
>  <MODEL>
9

>  <REMARK>
 VINA RESULT:      -6.0      3.275      6.449
  Name = 
  7 active torsions:
  status: ('A' for Active; 'I' for Inactive)
    1  A    between atoms: C_7  and  N_23
    2  A    between atoms: N_8  and  C_12
    3  A    between atoms: N_8  and  C_30
    4  A    between atoms: C_10  and  C_25
    5  A    between atoms: C_12  and  C_18
    6  A    between atoms: C_14  and  N_17
    7  A    between atoms: C_16  and  C_29
                            x       y       z     vdW  Elec       q    Type
                         _______ _______ _______ _____ _____    ______ ____

>  <TORSDO>
F 7

$$$$
