=
 OpenBabel11072408343D

 26 29  0  0  1  0  0  0  0  0999 V2000
  190.5830  175.8070  142.7810 C   0  0  1  0  0  3  0  0  0  0  0  0
  189.8360  176.9530  142.4260 O   0  0  0  0  0  0  0  0  0  0  0  0
  189.7670  176.5680  143.7760 C   0  0  1  0  0  0  0  0  0  0  0  0
  188.0500  176.3710  145.6310 C   0  0  0  0  0  2  0  0  0  0  0  0
  183.9620  178.6090  146.1920 C   0  0  0  0  0  1  0  0  0  0  0  0
  185.6700  178.5570  142.8900 N   0  0  0  0  0  2  0  0  0  0  0  0
  186.2620  178.0640  145.1760 C   0  0  2  0  0  3  0  0  0  0  0  0
  186.3930  176.8920  147.3880 C   0  0  0  0  0  1  0  0  0  0  0  0
  187.2950  176.7760  143.2020 C   0  0  0  0  0  2  0  0  0  0  0  0
  186.5960  176.7450  145.8920 C   0  0  2  0  0  3  0  0  0  0  0  0
  184.5400  178.6060  143.7340 C   0  0  0  0  0  0  0  0  0  0  0  0
  184.8240  178.2650  145.0720 N   0  0  0  0  0  0  0  0  0  0  0  0
  183.3970  178.9440  143.3290 O   0  0  0  0  0  0  0  0  0  0  0  0
  186.7960  178.1310  143.7110 C   0  0  1  0  0  3  0  0  0  0  0  0
  188.3360  176.1470  144.1390 C   0  0  1  0  0  3  0  0  0  0  0  0
  190.7300  173.2130  144.1590 N   0  0  0  0  0  1  0  0  0  0  0  0
  189.1660  174.6350  141.1290 N   0  0  0  0  0  0  0  0  0  0  0  0
  189.9970  173.3350  142.9440 C   0  0  0  0  0  0  0  0  0  0  0  0
  189.3480  172.2500  142.4420 N   0  0  0  0  0  0  0  0  0  0  0  0
  188.6160  172.3290  141.3010 C   0  0  0  0  0  3  0  0  0  0  0  0
  188.5200  173.5480  140.6310 C   0  0  0  0  0  3  0  0  0  0  0  0
  189.9200  174.5610  142.2590 C   0  0  0  0  0  0  0  0  0  0  0  0
  190.5170  177.5660  144.6510 C   0  0  0  0  0  2  0  0  0  0  0  0
  191.6560  176.9180  145.3590 C   0  0  0  0  0  0  0  0  0  0  0  0
  192.9540  177.1080  144.9040 O   0  0  0  0  0  0  0  0  0  0  0  0
  191.4460  176.2110  146.3800 O   0  0  0  0  0  1  0  0  0  0  0  0
  1 22  1  6  0  0  0
  1  3  1  0  0  0  0
  2  1  1  0  0  0  0
  2  3  1  0  0  0  0
  3 15  1  0  0  0  0
  3 23  1  1  0  0  0
  4 10  1  0  0  0  0
  6 14  1  0  0  0  0
  6 11  1  0  0  0  0
  7 12  1  6  0  0  0
  7 10  1  0  0  0  0
 10  8  1  1  0  0  0
 11 12  1  0  0  0  0
 12  5  1  0  0  0  0
 13 11  2  0  0  0  0
 14  9  1  6  0  0  0
 14  7  1  0  0  0  0
 15  9  1  6  0  0  0
 15  4  1  0  0  0  0
 17 22  1  0  0  0  0
 18 16  1  0  0  0  0
 19 18  1  0  0  0  0
 20 19  2  0  0  0  0
 21 17  2  0  0  0  0
 21 20  1  0  0  0  0
 22 18  2  0  0  0  0
 23 24  1  0  0  0  0
 24 26  1  0  0  0  0
 25 24  2  0  0  0  0
M  END
>  <MODEL>
1

>  <REMARK>
 VINA RESULT:      -6.7      0.000      0.000
  Name = 
  4 active torsions:
  status: ('A' for Active; 'I' for Inactive)
    1  A    between atoms: C_1  and  C_24
    2  A    between atoms: C_6  and  C_9
    3  A    between atoms: C_9  and  C_26
    4  A    between atoms: C_23  and  C_26
                            x       y       z     vdW  Elec       q    Type
                         _______ _______ _______ _____ _____    ______ ____

>  <TORSDO>
F 4

$$$$
=
 OpenBabel11072408343D

 26 29  0  0  1  0  0  0  0  0999 V2000
  194.3110  175.8070  146.4710 C   0  0  1  0  0  3  0  0  0  0  0  0
  193.4200  176.8830  146.2600 O   0  0  0  0  0  0  0  0  0  0  0  0
  192.8740  175.5950  146.1190 C   0  0  1  0  0  0  0  0  0  0  0  0
  191.4040  174.2160  144.5810 C   0  0  0  0  0  2  0  0  0  0  0  0
  187.7030  175.5130  142.0010 C   0  0  0  0  0  1  0  0  0  0  0  0
  190.0630  178.0450  143.3560 N   0  0  0  0  0  2  0  0  0  0  0  0
  189.5780  175.7150  143.7510 C   0  0  2  0  0  3  0  0  0  0  0  0
  189.4570  173.2330  143.4220 C   0  0  0  0  0  1  0  0  0  0  0  0
  191.9580  176.6630  143.9960 C   0  0  0  0  0  2  0  0  0  0  0  0
  190.3820  174.4340  143.4730 C   0  0  2  0  0  3  0  0  0  0  0  0
  189.1430  177.5460  142.4110 C   0  0  0  0  0  0  0  0  0  0  0  0
  188.8720  176.1700  142.5610 N   0  0  0  0  0  0  0  0  0  0  0  0
  188.6020  178.2700  141.5340 O   0  0  0  0  0  0  0  0  0  0  0  0
  190.4630  176.9220  144.1950 C   0  0  1  0  0  3  0  0  0  0  0  0
  192.4210  175.3630  144.6700 C   0  0  1  0  0  3  0  0  0  0  0  0
  195.5790  173.2600  145.7230 N   0  0  0  0  0  1  0  0  0  0  0  0
  195.5060  176.7550  144.5250 N   0  0  0  0  0  0  0  0  0  0  0  0
  195.8440  174.4380  144.9670 C   0  0  0  0  0  0  0  0  0  0  0  0
  196.6660  174.3680  143.8860 N   0  0  0  0  0  0  0  0  0  0  0  0
  196.9240  175.4610  143.1220 C   0  0  0  0  0  3  0  0  0  0  0  0
  196.3290  176.6800  143.4460 C   0  0  0  0  0  3  0  0  0  0  0  0
  195.2590  175.6710  145.3100 C   0  0  0  0  0  0  0  0  0  0  0  0
  191.9270  175.2920  147.2750 C   0  0  0  0  0  2  0  0  0  0  0  0
  191.2330  176.5240  147.7450 C   0  0  0  0  0  0  0  0  0  0  0  0
  191.7890  177.2880  148.7610 O   0  0  0  0  0  1  0  0  0  0  0  0
  190.1510  176.8820  147.2100 O   0  0  0  0  0  0  0  0  0  0  0  0
  1 22  1  6  0  0  0
  2  1  1  0  0  0  0
  3  2  1  0  0  0  0
  3  1  1  0  0  0  0
  3 23  1  1  0  0  0
  4 15  1  0  0  0  0
  5 12  1  0  0  0  0
  6 14  1  0  0  0  0
  7 12  1  6  0  0  0
  7 14  1  0  0  0  0
 10  8  1  1  0  0  0
 10  7  1  0  0  0  0
 10  4  1  0  0  0  0
 11 12  1  0  0  0  0
 11  6  1  0  0  0  0
 13 11  2  0  0  0  0
 14  9  1  6  0  0  0
 15  9  1  1  0  0  0
 15  3  1  0  0  0  0
 17 22  1  0  0  0  0
 18 22  2  0  0  0  0
 18 16  1  0  0  0  0
 19 18  1  0  0  0  0
 20 21  1  0  0  0  0
 20 19  2  0  0  0  0
 21 17  2  0  0  0  0
 23 24  1  0  0  0  0
 24 25  1  0  0  0  0
 26 24  2  0  0  0  0
M  END
>  <MODEL>
2

>  <REMARK>
 VINA RESULT:      -6.5      3.290      5.511
  Name = 
  4 active torsions:
  status: ('A' for Active; 'I' for Inactive)
    1  A    between atoms: C_1  and  C_24
    2  A    between atoms: C_6  and  C_9
    3  A    between atoms: C_9  and  C_26
    4  A    between atoms: C_23  and  C_26
                            x       y       z     vdW  Elec       q    Type
                         _______ _______ _______ _____ _____    ______ ____

>  <TORSDO>
F 4

$$$$
=
 OpenBabel11072408343D

 26 29  0  0  1  0  0  0  0  0999 V2000
  191.6040  174.0920  144.8880 C   0  0  1  0  0  3  0  0  0  0  0  0
  190.4920  174.2470  145.7460 O   0  0  0  0  0  0  0  0  0  0  0  0
  190.2980  174.6400  144.4100 C   0  0  1  0  0  0  0  0  0  0  0  0
  189.4610  176.5450  142.9630 C   0  0  0  0  0  2  0  0  0  0  0  0
  185.7010  179.3030  143.5050 C   0  0  0  0  0  1  0  0  0  0  0  0
  187.0080  177.2830  146.3390 N   0  0  0  0  0  2  0  0  0  0  0  0
  187.2960  177.3330  143.9440 C   0  0  2  0  0  3  0  0  0  0  0  0
  188.0200  178.0730  141.6610 C   0  0  0  0  0  1  0  0  0  0  0  0
  189.2110  176.6560  145.5240 C   0  0  0  0  0  2  0  0  0  0  0  0
  188.4920  177.7170  143.0580 C   0  0  2  0  0  3  0  0  0  0  0  0
  186.3620  178.4000  145.7680 C   0  0  0  0  0  0  0  0  0  0  0  0
  186.5520  178.5080  144.3750 N   0  0  0  0  0  0  0  0  0  0  0  0
  185.6660  179.2060  146.4400 O   0  0  0  0  0  0  0  0  0  0  0  0
  187.7050  176.5970  145.2580 C   0  0  1  0  0  3  0  0  0  0  0  0
  190.0350  176.1510  144.3310 C   0  0  1  0  0  3  0  0  0  0  0  0
  193.4540  175.1270  142.8490 N   0  0  0  0  0  1  0  0  0  0  0  0
  192.7090  175.6830  146.4250 N   0  0  0  0  0  0  0  0  0  0  0  0
  193.5110  175.6240  144.1830 C   0  0  0  0  0  0  0  0  0  0  0  0
  194.4090  176.5960  144.4960 N   0  0  0  0  0  0  0  0  0  0  0  0
  194.4790  177.1170  145.7480 C   0  0  0  0  0  3  0  0  0  0  0  0
  193.6080  176.6530  146.7340 C   0  0  0  0  0  3  0  0  0  0  0  0
  192.6450  175.1390  145.1790 C   0  0  0  0  0  0  0  0  0  0  0  0
  189.3690  173.6620  143.7000 C   0  0  0  0  0  2  0  0  0  0  0  0
  190.0760  172.9390  142.6060 C   0  0  0  0  0  0  0  0  0  0  0  0
  190.2570  171.5660  142.6860 O   0  0  0  0  0  1  0  0  0  0  0  0
  190.4970  173.5700  141.6000 O   0  0  0  0  0  0  0  0  0  0  0  0
  1 22  1  1  0  0  0
  1  2  1  0  0  0  0
  3 23  1  6  0  0  0
  3  1  1  0  0  0  0
  3  2  1  0  0  0  0
  4 10  1  0  0  0  0
  5 12  1  0  0  0  0
  7 12  1  1  0  0  0
  7 14  1  0  0  0  0
 10  8  1  6  0  0  0
 10  7  1  0  0  0  0
 11  6  1  0  0  0  0
 11 13  2  0  0  0  0
 12 11  1  0  0  0  0
 14  9  1  1  0  0  0
 14  6  1  0  0  0  0
 15  4  1  6  0  0  0
 15  3  1  0  0  0  0
 15  9  1  0  0  0  0
 16 18  1  0  0  0  0
 17 21  1  0  0  0  0
 18 19  2  0  0  0  0
 18 22  1  0  0  0  0
 19 20  1  0  0  0  0
 20 21  2  0  0  0  0
 22 17  2  0  0  0  0
 24 25  1  0  0  0  0
 24 23  1  0  0  0  0
 26 24  2  0  0  0  0
M  END
>  <MODEL>
3

>  <REMARK>
 VINA RESULT:      -6.4      2.597      4.675
  Name = 
  4 active torsions:
  status: ('A' for Active; 'I' for Inactive)
    1  A    between atoms: C_1  and  C_24
    2  A    between atoms: C_6  and  C_9
    3  A    between atoms: C_9  and  C_26
    4  A    between atoms: C_23  and  C_26
                            x       y       z     vdW  Elec       q    Type
                         _______ _______ _______ _____ _____    ______ ____

>  <TORSDO>
F 4

$$$$
=
 OpenBabel11072408343D

 26 29  0  0  1  0  0  0  0  0999 V2000
  186.3010  177.4570  143.1060 C   0  0  1  0  0  3  0  0  0  0  0  0
  187.2680  178.4220  142.7480 O   0  0  0  0  0  0  0  0  0  0  0  0
  187.7680  177.1750  143.1590 C   0  0  1  0  0  0  0  0  0  0  0  0
  188.5660  176.0230  145.2710 C   0  0  0  0  0  2  0  0  0  0  0  0
  192.9210  174.9170  146.6300 C   0  0  0  0  0  1  0  0  0  0  0  0
  192.3410  177.3910  143.9170 N   0  0  0  0  0  2  0  0  0  0  0  0
  191.0410  175.7120  145.0630 C   0  0  2  0  0  3  0  0  0  0  0  0
  189.7440  174.5410  146.8590 C   0  0  0  0  0  1  0  0  0  0  0  0
  189.9780  177.8920  144.2010 C   0  0  0  0  0  2  0  0  0  0  0  0
  189.8620  175.8150  146.0440 C   0  0  2  0  0  3  0  0  0  0  0  0
  193.0570  176.8410  145.0000 C   0  0  0  0  0  0  0  0  0  0  0  0
  192.3170  175.8970  145.7420 N   0  0  0  0  0  0  0  0  0  0  0  0
  194.2490  177.1520  145.2620 O   0  0  0  0  0  0  0  0  0  0  0  0
  191.0110  176.7930  143.9370 C   0  0  1  0  0  3  0  0  0  0  0  0
  188.5740  177.3240  144.4570 C   0  0  1  0  0  3  0  0  0  0  0  0
  185.5660  180.1950  143.8890 N   0  0  0  0  0  1  0  0  0  0  0  0
  185.3990  176.7890  145.3100 N   0  0  0  0  0  0  0  0  0  0  0  0
  185.3350  179.1110  144.7840 C   0  0  0  0  0  0  0  0  0  0  0  0
  184.7510  179.3510  145.9880 N   0  0  0  0  0  0  0  0  0  0  0  0
  184.4890  178.3440  146.8600 C   0  0  0  0  0  3  0  0  0  0  0  0
  184.8160  177.0330  146.5130 C   0  0  0  0  0  3  0  0  0  0  0  0
  185.6870  177.7940  144.4390 C   0  0  0  0  0  0  0  0  0  0  0  0
  188.3590  176.4240  141.9710 C   0  0  0  0  0  2  0  0  0  0  0  0
  188.3200  174.9500  142.1890 C   0  0  0  0  0  0  0  0  0  0  0  0
  189.4990  174.2180  142.1890 O   0  0  0  0  0  0  0  0  0  0  0  0
  187.2210  174.3690  142.3880 O   0  0  0  0  0  1  0  0  0  0  0  0
  1  3  1  0  0  0  0
  1 22  1  1  0  0  0
  2  1  1  0  0  0  0
  2  3  1  0  0  0  0
  3 23  1  6  0  0  0
  3 15  1  0  0  0  0
  4 10  1  0  0  0  0
  6 14  1  0  0  0  0
  6 11  1  0  0  0  0
  7 12  1  1  0  0  0
  7 10  1  0  0  0  0
 10  8  1  6  0  0  0
 11 13  2  0  0  0  0
 11 12  1  0  0  0  0
 12  5  1  0  0  0  0
 14  9  1  1  0  0  0
 14  7  1  0  0  0  0
 15  9  1  6  0  0  0
 15  4  1  0  0  0  0
 16 18  1  0  0  0  0
 17 21  1  0  0  0  0
 18 19  2  0  0  0  0
 19 20  1  0  0  0  0
 21 20  2  0  0  0  0
 22 18  1  0  0  0  0
 22 17  2  0  0  0  0
 23 24  1  0  0  0  0
 24 26  1  0  0  0  0
 25 24  2  0  0  0  0
M  END
>  <MODEL>
4

>  <REMARK>
 VINA RESULT:      -6.3      2.425      6.395
  Name = 
  4 active torsions:
  status: ('A' for Active; 'I' for Inactive)
    1  A    between atoms: C_1  and  C_24
    2  A    between atoms: C_6  and  C_9
    3  A    between atoms: C_9  and  C_26
    4  A    between atoms: C_23  and  C_26
                            x       y       z     vdW  Elec       q    Type
                         _______ _______ _______ _____ _____    ______ ____

>  <TORSDO>
F 4

$$$$
=
 OpenBabel11072408343D

 26 29  0  0  1  0  0  0  0  0999 V2000
  191.1780  175.3430  144.9020 C   0  0  1  0  0  3  0  0  0  0  0  0
  190.7380  176.5040  144.2280 O   0  0  0  0  0  0  0  0  0  0  0  0
  190.0970  176.2210  145.4460 C   0  0  1  0  0  0  0  0  0  0  0  0
  187.7460  176.4160  146.3740 C   0  0  0  0  0  2  0  0  0  0  0  0
  184.0670  178.8400  144.7550 C   0  0  0  0  0  1  0  0  0  0  0  0
  186.9950  178.1380  142.5760 N   0  0  0  0  0  2  0  0  0  0  0  0
  186.5090  178.0510  144.9380 C   0  0  2  0  0  3  0  0  0  0  0  0
  185.5660  177.2970  147.1340 C   0  0  0  0  0  1  0  0  0  0  0  0
  188.1370  176.3950  143.8290 C   0  0  0  0  0  2  0  0  0  0  0  0
  186.3670  176.8750  145.9170 C   0  0  2  0  0  3  0  0  0  0  0  0
  185.6270  178.3730  142.8260 C   0  0  0  0  0  0  0  0  0  0  0  0
  185.2790  178.2720  144.1890 N   0  0  0  0  0  0  0  0  0  0  0  0
  184.8050  178.6660  141.9180 O   0  0  0  0  0  0  0  0  0  0  0  0
  187.6160  177.8340  143.8590 C   0  0  1  0  0  3  0  0  0  0  0  0
  188.6110  175.9160  145.2090 C   0  0  1  0  0  3  0  0  0  0  0  0
  191.4550  174.9120  142.0060 N   0  0  0  0  0  1  0  0  0  0  0  0
  190.1230  173.1060  144.9420 N   0  0  0  0  0  0  0  0  0  0  0  0
  190.8330  173.9210  142.8190 C   0  0  0  0  0  0  0  0  0  0  0  0
  190.3940  172.7680  142.2480 N   0  0  0  0  0  0  0  0  0  0  0  0
  189.8200  171.7850  142.9900 C   0  0  0  0  0  3  0  0  0  0  0  0
  189.6840  171.9560  144.3670 C   0  0  0  0  0  3  0  0  0  0  0  0
  190.6790  174.1060  144.2040 C   0  0  0  0  0  0  0  0  0  0  0  0
  190.5110  177.2300  146.5110 C   0  0  0  0  0  2  0  0  0  0  0  0
  190.9440  176.5500  147.7630 C   0  0  0  0  0  0  0  0  0  0  0  0
  191.5660  177.2780  148.7680 O   0  0  0  0  0  1  0  0  0  0  0  0
  190.7320  175.3190  147.9200 O   0  0  0  0  0  0  0  0  0  0  0  0
  1 22  1  6  0  0  0
  1  3  1  0  0  0  0
  2  1  1  0  0  0  0
  2  3  1  0  0  0  0
  3 23  1  1  0  0  0
  6 11  1  0  0  0  0
  6 14  1  0  0  0  0
  7 12  1  6  0  0  0
  7 10  1  0  0  0  0
 10  4  1  0  0  0  0
 10  8  1  1  0  0  0
 11 12  1  0  0  0  0
 12  5  1  0  0  0  0
 13 11  2  0  0  0  0
 14  9  1  6  0  0  0
 14  7  1  0  0  0  0
 15  9  1  6  0  0  0
 15  3  1  0  0  0  0
 15  4  1  0  0  0  0
 16 18  1  0  0  0  0
 18 22  1  0  0  0  0
 19 18  2  0  0  0  0
 19 20  1  0  0  0  0
 20 21  2  0  0  0  0
 21 17  1  0  0  0  0
 22 17  2  0  0  0  0
 23 24  1  0  0  0  0
 24 26  2  0  0  0  0
 24 25  1  0  0  0  0
M  END
>  <MODEL>
5

>  <REMARK>
 VINA RESULT:      -6.3      1.589      2.099
  Name = 
  4 active torsions:
  status: ('A' for Active; 'I' for Inactive)
    1  A    between atoms: C_1  and  C_24
    2  A    between atoms: C_6  and  C_9
    3  A    between atoms: C_9  and  C_26
    4  A    between atoms: C_23  and  C_26
                            x       y       z     vdW  Elec       q    Type
                         _______ _______ _______ _____ _____    ______ ____

>  <TORSDO>
F 4

$$$$
=
 OpenBabel11072408343D

 26 29  0  0  1  0  0  0  0  0999 V2000
  188.8370  175.3860  141.2510 C   0  0  1  0  0  3  0  0  0  0  0  0
  187.4240  175.3950  141.2810 O   0  0  0  0  0  0  0  0  0  0  0  0
  188.0640  176.3130  142.1330 C   0  0  1  0  0  0  0  0  0  0  0  0
  188.8150  176.5950  144.5380 C   0  0  0  0  0  2  0  0  0  0  0  0
  186.7090  178.8030  148.1050 C   0  0  0  0  0  1  0  0  0  0  0  0
  184.8090  177.8830  145.0440 N   0  0  0  0  0  2  0  0  0  0  0  0
  187.1310  178.0540  145.6800 C   0  0  2  0  0  3  0  0  0  0  0  0
  189.3330  177.5410  146.7600 C   0  0  0  0  0  1  0  0  0  0  0  0
  186.3160  176.2960  143.9850 C   0  0  0  0  0  2  0  0  0  0  0  0
  188.2230  176.9920  145.8840 C   0  0  2  0  0  3  0  0  0  0  0  0
  184.9450  178.1360  146.4250 C   0  0  0  0  0  0  0  0  0  0  0  0
  186.2860  178.1840  146.8590 N   0  0  0  0  0  0  0  0  0  0  0  0
  183.9600  178.3220  147.1880 O   0  0  0  0  0  0  0  0  0  0  0  0
  186.1550  177.7260  144.5060 C   0  0  1  0  0  3  0  0  0  0  0  0
  187.7680  175.9750  143.6010 C   0  0  1  0  0  3  0  0  0  0  0  0
  191.5450  175.2500  142.3920 N   0  0  0  0  0  1  0  0  0  0  0  0
  188.5580  173.0900  142.1250 N   0  0  0  0  0  0  0  0  0  0  0  0
  190.6680  174.1320  142.4990 C   0  0  0  0  0  0  0  0  0  0  0  0
  191.0860  173.0150  143.1520 N   0  0  0  0  0  0  0  0  0  0  0  0
  190.2730  171.9370  143.3000 C   0  0  0  0  0  3  0  0  0  0  0  0
  188.9800  171.9760  142.7780 C   0  0  0  0  0  3  0  0  0  0  0  0
  189.3720  174.1670  141.9520 C   0  0  0  0  0  0  0  0  0  0  0  0
  187.8690  177.7360  141.6200 C   0  0  0  0  0  2  0  0  0  0  0  0
  186.6550  177.8410  140.7620 C   0  0  0  0  0  0  0  0  0  0  0  0
  186.7350  177.5410  139.4100 O   0  0  0  0  0  0  0  0  0  0  0  0
  185.5540  178.1870  141.2650 O   0  0  0  0  0  1  0  0  0  0  0  0
  1  2  1  0  0  0  0
  1 22  1  1  0  0  0
  1  3  1  0  0  0  0
  2  3  1  0  0  0  0
  3 23  1  6  0  0  0
  3 15  1  0  0  0  0
  4 10  1  0  0  0  0
  6 11  1  0  0  0  0
  7 10  1  0  0  0  0
  7 12  1  1  0  0  0
 10  8  1  1  0  0  0
 11 12  1  0  0  0  0
 11 13  2  0  0  0  0
 12  5  1  0  0  0  0
 14  9  1  1  0  0  0
 14  6  1  0  0  0  0
 14  7  1  0  0  0  0
 15  9  1  1  0  0  0
 15  4  1  0  0  0  0
 16 18  1  0  0  0  0
 17 21  1  0  0  0  0
 18 19  2  0  0  0  0
 19 20  1  0  0  0  0
 21 20  2  0  0  0  0
 22 17  2  0  0  0  0
 22 18  1  0  0  0  0
 24 26  1  0  0  0  0
 24 23  1  0  0  0  0
 25 24  2  0  0  0  0
M  END
>  <MODEL>
6

>  <REMARK>
 VINA RESULT:      -6.3      2.476      3.475
  Name = 
  4 active torsions:
  status: ('A' for Active; 'I' for Inactive)
    1  A    between atoms: C_1  and  C_24
    2  A    between atoms: C_6  and  C_9
    3  A    between atoms: C_9  and  C_26
    4  A    between atoms: C_23  and  C_26
                            x       y       z     vdW  Elec       q    Type
                         _______ _______ _______ _____ _____    ______ ____

>  <TORSDO>
F 4

$$$$
=
 OpenBabel11072408343D

 26 29  0  0  1  0  0  0  0  0999 V2000
  187.1170  175.6870  142.7060 C   0  0  1  0  0  3  0  0  0  0  0  0
  188.1780  175.9220  141.8020 O   0  0  0  0  0  0  0  0  0  0  0  0
  188.5270  175.2970  143.0120 C   0  0  1  0  0  0  0  0  0  0  0  0
  189.6570  175.6560  145.2520 C   0  0  0  0  0  2  0  0  0  0  0  0
  194.2190  175.6110  146.3580 C   0  0  0  0  0  1  0  0  0  0  0  0
  193.1180  175.9450  142.8230 N   0  0  0  0  0  2  0  0  0  0  0  0
  192.1120  175.2920  144.9170 C   0  0  2  0  0  3  0  0  0  0  0  0
  191.1340  175.4370  147.2200 C   0  0  0  0  0  1  0  0  0  0  0  0
  190.7670  176.5060  143.0890 C   0  0  0  0  0  2  0  0  0  0  0  0
  191.0460  175.9610  145.8000 C   0  0  2  0  0  3  0  0  0  0  0  0
  193.9980  176.1630  143.9040 C   0  0  0  0  0  0  0  0  0  0  0  0
  193.4330  175.8540  145.1590 N   0  0  0  0  0  0  0  0  0  0  0  0
  195.1790  176.5730  143.7540 O   0  0  0  0  0  0  0  0  0  0  0  0
  191.8590  175.4750  143.3880 C   0  0  1  0  0  3  0  0  0  0  0  0
  189.4570  176.2020  143.8320 C   0  0  1  0  0  3  0  0  0  0  0  0
  186.4630  178.1080  141.1690 N   0  0  0  0  0  1  0  0  0  0  0  0
  186.5150  177.0210  144.6990 N   0  0  0  0  0  0  0  0  0  0  0  0
  186.3610  178.1160  142.5890 C   0  0  0  0  0  0  0  0  0  0  0  0
  185.9360  179.2420  143.2230 N   0  0  0  0  0  0  0  0  0  0  0  0
  185.7980  179.2830  144.5740 C   0  0  0  0  0  3  0  0  0  0  0  0
  186.0910  178.1480  145.3280 C   0  0  0  0  0  3  0  0  0  0  0  0
  186.6780  176.9750  143.3490 C   0  0  0  0  0  0  0  0  0  0  0  0
  188.8970  173.8380  142.7670 C   0  0  0  0  0  2  0  0  0  0  0  0
  189.1740  173.5840  141.3250 C   0  0  0  0  0  0  0  0  0  0  0  0
  188.1890  173.0360  140.5160 O   0  0  0  0  0  0  0  0  0  0  0  0
  190.2960  173.8810  140.8350 O   0  0  0  0  0  1  0  0  0  0  0  0
  1  3  1  0  0  0  0
  1 22  1  1  0  0  0
  2  1  1  0  0  0  0
  2  3  1  0  0  0  0
  3 23  1  6  0  0  0
  3 15  1  0  0  0  0
  4 10  1  0  0  0  0
  6 14  1  0  0  0  0
  6 11  1  0  0  0  0
  7 12  1  1  0  0  0
  7 10  1  0  0  0  0
 10  8  1  1  0  0  0
 11 12  1  0  0  0  0
 12  5  1  0  0  0  0
 13 11  2  0  0  0  0
 14  9  1  1  0  0  0
 14  7  1  0  0  0  0
 15  9  1  6  0  0  0
 15  4  1  0  0  0  0
 16 18  1  0  0  0  0
 17 21  1  0  0  0  0
 18 19  2  0  0  0  0
 18 22  1  0  0  0  0
 19 20  1  0  0  0  0
 20 21  2  0  0  0  0
 22 17  2  0  0  0  0
 24 23  1  0  0  0  0
 25 24  2  0  0  0  0
 26 24  1  0  0  0  0
M  END
>  <MODEL>
7

>  <REMARK>
 VINA RESULT:      -6.0      2.548      6.535
  Name = 
  4 active torsions:
  status: ('A' for Active; 'I' for Inactive)
    1  A    between atoms: C_1  and  C_24
    2  A    between atoms: C_6  and  C_9
    3  A    between atoms: C_9  and  C_26
    4  A    between atoms: C_23  and  C_26
                            x       y       z     vdW  Elec       q    Type
                         _______ _______ _______ _____ _____    ______ ____

>  <TORSDO>
F 4

$$$$
=
 OpenBabel11072408343D

 26 29  0  0  1  0  0  0  0  0999 V2000
  192.4940  174.8690  143.0230 C   0  0  1  0  0  3  0  0  0  0  0  0
  191.9420  176.0040  142.3880 O   0  0  0  0  0  0  0  0  0  0  0  0
  191.5720  175.8090  143.7300 C   0  0  1  0  0  0  0  0  0  0  0  0
  189.5280  175.9020  145.2260 C   0  0  0  0  0  2  0  0  0  0  0  0
  185.6430  178.5100  144.8500 C   0  0  0  0  0  1  0  0  0  0  0  0
  187.9240  178.0580  141.9490 N   0  0  0  0  0  2  0  0  0  0  0  0
  188.0290  177.6980  144.3330 C   0  0  2  0  0  3  0  0  0  0  0  0
  187.6300  176.6950  146.5950 C   0  0  0  0  0  1  0  0  0  0  0  0
  189.2820  176.1770  142.6770 C   0  0  0  0  0  2  0  0  0  0  0  0
  188.0940  176.4160  145.1780 C   0  0  2  0  0  3  0  0  0  0  0  0
  186.6670  178.2670  142.5550 C   0  0  0  0  0  0  0  0  0  0  0  0
  186.6610  178.0090  143.9410 N   0  0  0  0  0  0  0  0  0  0  0  0
  185.6580  178.6660  141.9170 O   0  0  0  0  0  0  0  0  0  0  0  0
  188.8310  177.6050  142.9970 C   0  0  1  0  0  3  0  0  0  0  0  0
  190.0640  175.5390  143.8350 C   0  0  1  0  0  3  0  0  0  0  0  0
  192.2790  172.4200  144.6380 N   0  0  0  0  0  1  0  0  0  0  0  0
  191.2520  173.6100  141.2940 N   0  0  0  0  0  0  0  0  0  0  0  0
  191.7340  172.4570  143.3220 C   0  0  0  0  0  0  0  0  0  0  0  0
  191.0950  171.3610  142.8320 N   0  0  0  0  0  0  0  0  0  0  0  0
  190.5380  171.3630  141.5930 C   0  0  0  0  0  3  0  0  0  0  0  0
  190.6150  172.5130  140.8080 C   0  0  0  0  0  3  0  0  0  0  0  0
  191.8330  173.6120  142.5250 C   0  0  0  0  0  0  0  0  0  0  0  0
  192.2250  176.8630  144.6170 C   0  0  0  0  0  2  0  0  0  0  0  0
  193.1720  176.2450  145.5870 C   0  0  0  0  0  0  0  0  0  0  0  0
  194.5290  176.5240  145.5040 O   0  0  0  0  0  0  0  0  0  0  0  0
  192.7420  175.4810  146.4910 O   0  0  0  0  0  1  0  0  0  0  0  0
  1 22  1  6  0  0  0
  1  3  1  0  0  0  0
  2  1  1  0  0  0  0
  2  3  1  0  0  0  0
  3 15  1  0  0  0  0
  3 23  1  1  0  0  0
  6 11  1  0  0  0  0
  6 14  1  0  0  0  0
  7 12  1  6  0  0  0
  7 10  1  0  0  0  0
 10  4  1  0  0  0  0
 10  8  1  1  0  0  0
 11 12  1  0  0  0  0
 12  5  1  0  0  0  0
 13 11  2  0  0  0  0
 14  9  1  6  0  0  0
 14  7  1  0  0  0  0
 15  9  1  6  0  0  0
 15  4  1  0  0  0  0
 17 22  1  0  0  0  0
 18 16  1  0  0  0  0
 19 18  1  0  0  0  0
 20 19  2  0  0  0  0
 21 17  2  0  0  0  0
 21 20  1  0  0  0  0
 22 18  2  0  0  0  0
 23 24  1  0  0  0  0
 24 26  1  0  0  0  0
 25 24  2  0  0  0  0
M  END
>  <MODEL>
8

>  <REMARK>
 VINA RESULT:      -5.9      1.747      2.059
  Name = 
  4 active torsions:
  status: ('A' for Active; 'I' for Inactive)
    1  A    between atoms: C_1  and  C_24
    2  A    between atoms: C_6  and  C_9
    3  A    between atoms: C_9  and  C_26
    4  A    between atoms: C_23  and  C_26
                            x       y       z     vdW  Elec       q    Type
                         _______ _______ _______ _____ _____    ______ ____

>  <TORSDO>
F 4

$$$$
=
 OpenBabel11072408343D

 26 29  0  0  1  0  0  0  0  0999 V2000
  189.5270  177.5250  145.0460 C   0  0  1  0  0  3  0  0  0  0  0  0
  190.2730  176.3750  145.3900 O   0  0  0  0  0  0  0  0  0  0  0  0
  190.0230  176.5590  144.0190 C   0  0  1  0  0  0  0  0  0  0  0  0
  188.8560  175.6010  141.9820 C   0  0  0  0  0  2  0  0  0  0  0  0
  189.6270  171.5780  139.6900 C   0  0  0  0  0  1  0  0  0  0  0  0
  190.9600  172.1030  143.1210 N   0  0  0  0  0  2  0  0  0  0  0  0
  190.0430  173.4840  141.3670 C   0  0  2  0  0  3  0  0  0  0  0  0
  188.3930  174.5370  139.8020 C   0  0  0  0  0  1  0  0  0  0  0  0
  189.6860  174.0390  143.8550 C   0  0  0  0  0  2  0  0  0  0  0  0
  188.7250  174.2680  141.2570 C   0  0  2  0  0  3  0  0  0  0  0  0
  190.4600  171.3190  142.0600 C   0  0  0  0  0  0  0  0  0  0  0  0
  189.8560  172.0780  141.0360 N   0  0  0  0  0  0  0  0  0  0  0  0
  190.5640  170.0650  142.0270 O   0  0  0  0  0  0  0  0  0  0  0  0
  190.6550  173.4930  142.8040 C   0  0  1  0  0  3  0  0  0  0  0  0
  189.1380  175.4250  143.4810 C   0  0  1  0  0  3  0  0  0  0  0  0
  187.3120  178.5360  143.3970 N   0  0  0  0  0  1  0  0  0  0  0  0
  187.7630  176.6360  146.5340 N   0  0  0  0  0  0  0  0  0  0  0  0
  187.0380  177.8310  144.6040 C   0  0  0  0  0  0  0  0  0  0  0  0
  185.7480  177.6090  144.9720 N   0  0  0  0  0  0  0  0  0  0  0  0
  185.4430  176.9180  146.1010 C   0  0  0  0  0  3  0  0  0  0  0  0
  186.4730  176.4170  146.8970 C   0  0  0  0  0  3  0  0  0  0  0  0
  188.0800  177.3460  145.4170 C   0  0  0  0  0  0  0  0  0  0  0  0
  191.3090  176.9370  143.2920 C   0  0  0  0  0  2  0  0  0  0  0  0
  192.5100  176.4400  144.0210 C   0  0  0  0  0  0  0  0  0  0  0  0
  193.0760  177.2070  145.0300 O   0  0  0  0  0  1  0  0  0  0  0  0
  193.0030  175.3170  143.7340 O   0  0  0  0  0  0  0  0  0  0  0  0
  1  2  1  0  0  0  0
  1 22  1  1  0  0  0
  3 23  1  6  0  0  0
  3  1  1  0  0  0  0
  3  2  1  0  0  0  0
  5 12  1  0  0  0  0
  7 12  1  1  0  0  0
  7 14  1  0  0  0  0
 10  8  1  6  0  0  0
 10  7  1  0  0  0  0
 10  4  1  0  0  0  0
 11  6  1  0  0  0  0
 12 11  1  0  0  0  0
 13 11  2  0  0  0  0
 14  6  1  0  0  0  0
 14  9  1  1  0  0  0
 15  4  1  6  0  0  0
 15  9  1  0  0  0  0
 15  3  1  0  0  0  0
 16 18  1  0  0  0  0
 17 21  1  0  0  0  0
 18 19  2  0  0  0  0
 18 22  1  0  0  0  0
 19 20  1  0  0  0  0
 20 21  2  0  0  0  0
 22 17  2  0  0  0  0
 23 24  1  0  0  0  0
 24 25  1  0  0  0  0
 26 24  2  0  0  0  0
M  END
>  <MODEL>
9

>  <REMARK>
 VINA RESULT:      -5.7      2.153      6.292
  Name = 
  4 active torsions:
  status: ('A' for Active; 'I' for Inactive)
    1  A    between atoms: C_1  and  C_24
    2  A    between atoms: C_6  and  C_9
    3  A    between atoms: C_9  and  C_26
    4  A    between atoms: C_23  and  C_26
                            x       y       z     vdW  Elec       q    Type
                         _______ _______ _______ _____ _____    ______ ____

>  <TORSDO>
F 4

$$$$
