=
 OpenBabel11072409053D

 47 52  0  0  1  0  0  0  0  0999 V2000
  190.9300  173.7340  143.9000 O   0  0  0  0  0  1  0  0  0  0  0  0
  190.7560  174.4090  142.6860 C   0  0  2  0  0  0  0  0  0  0  0  0
  192.9960  173.8510  141.9300 O   0  0  0  0  0  1  0  0  0  0  0  0
  192.1300  174.9150  142.1900 C   0  0  2  0  0  3  0  0  0  0  0  0
  192.7830  175.9060  143.1500 C   0  0  0  0  0  2  0  0  0  0  0  0
  191.4070  174.8620  147.1640 C   0  0  0  0  0  3  0  0  0  0  0  0
  194.3640  174.2760  145.1110 C   0  0  0  0  0  0  0  0  0  0  0  0
  193.5070  174.8610  145.9050 C   0  0  0  0  0  0  0  0  0  0  0  0
  197.3080  174.2120  144.7680 C   0  0  0  0  0  2  0  0  0  0  0  0
  194.9120  176.4290  142.0660 N   0  0  0  0  0  0  0  0  0  0  0  0
  195.0170  175.0250  144.0070 C   0  0  0  0  0  0  0  0  0  0  0  0
  194.2750  175.8020  143.0870 C   0  0  0  0  0  0  0  0  0  0  0  0
  191.6910  176.9860  147.9670 C   0  0  0  0  0  3  0  0  0  0  0  0
  196.9930  175.6180  142.7880 N   0  0  0  0  0  0  0  0  0  0  0  0
  196.2550  176.3460  141.9150 C   0  0  0  0  0  3  0  0  0  0  0  0
  190.8380  175.7870  147.9250 C   0  0  0  0  0  3  0  0  0  0  0  0
  194.5300  172.7930  145.2090 C   0  0  0  0  0  2  0  0  0  0  0  0
  197.0080  172.7240  144.7710 C   0  0  0  0  0  2  0  0  0  0  0  0
  196.4140  174.9510  143.8200 C   0  0  0  0  0  0  0  0  0  0  0  0
  192.6470  175.4450  146.6900 C   0  0  0  0  0  0  0  0  0  0  0  0
  192.7730  176.7870  147.2270 C   0  0  0  0  0  3  0  0  0  0  0  0
  195.8970  172.4120  145.7630 C   0  0  0  0  0  2  0  0  0  0  0  0
  189.7630  175.5750  142.8860 C   0  0  0  0  0  2  0  0  0  0  0  0
  189.3310  175.8020  144.3300 C   0  0  0  0  0  2  0  0  0  0  0  0
  189.3570  177.2750  144.6810 C   0  0  0  0  0  2  0  0  0  0  0  0
  188.2980  177.5510  145.7300 C   0  0  0  0  0  2  0  0  0  0  0  0
  185.0010  177.6930  146.3290 C   0  0  2  0  0  3  0  0  0  0  0  0
  186.0160  177.8270  147.4430 C   0  0  0  0  0  2  0  0  0  0  0  0
  186.1490  176.7140  146.4010 C   0  0  2  0  0  3  0  0  0  0  0  0
  185.2780  178.6390  145.3270 O   0  0  0  0  0  0  0  0  0  0  0  0
  187.0070  177.0500  145.2710 N   0  0  0  0  0  0  0  0  0  0  0  0
  186.3290  178.1210  144.5470 C   0  0  1  0  0  3  0  0  0  0  0  0
  186.8540  177.8150  142.0990 C   0  0  0  0  0  2  0  0  0  0  0  0
  186.3850  176.4210  142.4830 C   0  0  0  0  0  2  0  0  0  0  0  0
  185.8110  177.6410  143.1810 C   0  0  0  0  0  0  0  0  0  0  0  0
  184.5640  178.0950  142.7340 O   0  0  0  0  0  0  0  0  0  0  0  0
  184.7110  178.3050  141.4390 O   0  0  0  0  0  0  0  0  0  0  0  0
  182.8310  177.4320  139.7630 O   0  0  0  0  0  0  0  0  0  0  0  0
  183.1410  178.6640  140.8890 S   0  0  1  0  0  0  0  0  0  0  0  0
  182.2590  178.2900  142.0700 O   0  0  0  0  0  1  0  0  0  0  0  0
  190.1540  173.4250  141.6560 C   0  0  1  0  0  3  0  0  0  0  0  0
  189.8590  172.0560  142.2640 C   0  0  0  0  0  2  0  0  0  0  0  0
  190.4100  171.0540  141.4660 O   0  0  0  0  0  1  0  0  0  0  0  0
  188.8730  173.9750  141.0330 C   0  0  0  0  0  2  0  0  0  0  0  0
  189.5060  173.3330  137.4900 C   0  0  0  0  0  1  0  0  0  0  0  0
  189.6310  173.7840  138.8470 N   0  0  0  0  0  0  0  0  0  0  0  0
  188.7450  173.5160  139.6770 N   0  0  0  0  0  0  0  0  0  0  0  0
  2 23  1  0  0  0  0
  2  1  1  1  0  0  0
  4  3  1  1  0  0  0
  4  2  1  0  0  0  0
  4  5  1  0  0  0  0
  6 16  2  0  0  0  0
  7 17  1  0  0  0  0
  7  8  2  0  0  0  0
  8 20  2  0  0  0  0
  9 18  1  0  0  0  0
 10 12  1  0  0  0  0
 11  7  1  0  0  0  0
 12  5  1  0  0  0  0
 12 11  2  0  0  0  0
 14 19  2  0  0  0  0
 15 10  2  0  0  0  0
 15 14  1  0  0  0  0
 16 13  1  0  0  0  0
 17 22  1  0  0  0  0
 18 22  1  0  0  0  0
 19 11  1  0  0  0  0
 19  9  1  0  0  0  0
 20  6  1  0  0  0  0
 20 21  1  0  0  0  0
 21 13  2  0  0  0  0
 23 24  1  0  0  0  0
 24 25  1  0  0  0  0
 25 26  1  0  0  0  0
 27 29  1  0  0  0  0
 27 28  1  1  0  0  0
 29 28  1  1  0  0  0
 30 27  1  0  0  0  0
 31 26  1  0  0  0  0
 31 29  1  0  0  0  0
 32 35  1  6  0  0  0
 32 31  1  0  0  0  0
 32 30  1  0  0  0  0
 33 34  1  0  0  0  0
 33 35  1  0  0  0  0
 34 35  1  0  0  0  0
 36 35  1  0  0  0  0
 37 36  1  0  0  0  0
 39 38  2  6  0  0  0
 39 37  1  0  0  0  0
 39 40  1  0  0  0  0
 41 44  1  1  0  0  0
 41 42  1  0  0  0  0
 41  2  1  0  0  0  0
 43 42  1  0  0  0  0
 45 46  1  0  0  0  0
 46 47  2  0  0  0  0
 47 44  1  0  0  0  0
M  END
>  <MODEL>
1

>  <REMARK>
 VINA RESULT:      -7.0      0.000      0.000
  Name = 
  16 active torsions:
  status: ('A' for Active; 'I' for Inactive)
    1  A    between atoms: O_7  and  O_32
    2  A    between atoms: O_7  and  C_47
    3  A    between atoms: C_11  and  C_27
    4  A    between atoms: C_11  and  C_29
    5  A    between atoms: C_12  and  C_24
    6  A    between atoms: C_12  and  C_43
    7  A    between atoms: C_17  and  C_20
    8  A    between atoms: C_17  and  C_26
    9  A    between atoms: C_17  and  C_43
   10  A    between atoms: C_20  and  C_29
   11  A    between atoms: N_21  and  C_27
   12  A    between atoms: C_22  and  C_26
   13  A    between atoms: C_22  and  N_45
   14  A    between atoms: C_23  and  C_47
   15  A    between atoms: C_25  and  C_26
   16  A    between atoms: O_32  and  S_42
                            x       y       z     vdW  Elec       q    Type
                         _______ _______ _______ _____ _____    ______ ____

>  <TORSDO>
F 16

$$$$
=
 OpenBabel11072409053D

 47 52  0  0  1  0  0  0  0  0999 V2000
  190.1980  177.3660  145.4080 O   0  0  0  0  0  1  0  0  0  0  0  0
  191.1720  176.4720  144.9480 C   0  0  2  0  0  0  0  0  0  0  0  0
  191.4780  178.3730  143.4680 O   0  0  0  0  0  1  0  0  0  0  0  0
  192.0730  177.1940  143.9200 C   0  0  2  0  0  3  0  0  0  0  0  0
  192.4590  176.3080  142.7380 C   0  0  0  0  0  2  0  0  0  0  0  0
  190.3770  173.2950  140.3540 C   0  0  0  0  0  3  0  0  0  0  0  0
  193.7720  174.5930  140.6560 C   0  0  0  0  0  0  0  0  0  0  0  0
  192.6850  173.9090  140.8950 C   0  0  0  0  0  0  0  0  0  0  0  0
  196.6970  174.1680  140.8880 C   0  0  0  0  0  2  0  0  0  0  0  0
  194.6810  176.5950  143.7170 N   0  0  0  0  0  0  0  0  0  0  0  0
  194.5440  175.2110  141.7630 C   0  0  0  0  0  0  0  0  0  0  0  0
  193.9260  176.0120  142.7520 C   0  0  0  0  0  0  0  0  0  0  0  0
  190.1710  171.8440  142.1110 C   0  0  0  0  0  3  0  0  0  0  0  0
  196.6400  175.6410  142.8430 N   0  0  0  0  0  0  0  0  0  0  0  0
  196.0220  176.4130  143.7700 C   0  0  0  0  0  3  0  0  0  0  0  0
  189.5270  172.4640  140.9410 C   0  0  0  0  0  3  0  0  0  0  0  0
  194.1190  174.9080  139.2360 C   0  0  0  0  0  2  0  0  0  0  0  0
  196.6170  174.6920  139.4660 C   0  0  0  0  0  2  0  0  0  0  0  0
  195.9440  175.0450  141.8410 C   0  0  0  0  0  0  0  0  0  0  0  0
  191.5980  173.2340  141.1350 C   0  0  0  0  0  0  0  0  0  0  0  0
  191.4090  172.3040  142.2320 C   0  0  0  0  0  3  0  0  0  0  0  0
  195.3670  174.1620  138.7790 C   0  0  0  0  0  2  0  0  0  0  0  0
  190.4820  175.2390  144.3260 C   0  0  0  0  0  2  0  0  0  0  0  0
  188.9830  175.3960  144.0980 C   0  0  0  0  0  2  0  0  0  0  0  0
  188.6670  175.5330  142.6230 C   0  0  0  0  0  2  0  0  0  0  0  0
  187.1710  175.6980  142.4510 C   0  0  0  0  0  2  0  0  0  0  0  0
  185.8300  178.3310  140.8650 C   0  0  2  0  0  3  0  0  0  0  0  0
  186.6300  177.2820  140.1240 C   0  0  0  0  0  2  0  0  0  0  0  0
  187.1520  177.8740  141.4340 C   0  0  2  0  0  3  0  0  0  0  0  0
  184.7920  177.7100  141.5800 O   0  0  0  0  0  0  0  0  0  0  0  0
  186.8070  177.1010  142.6220 N   0  0  0  0  0  0  0  0  0  0  0  0
  185.3570  177.1860  142.7580 C   0  0  1  0  0  3  0  0  0  0  0  0
  185.3170  179.4840  143.7960 C   0  0  0  0  0  2  0  0  0  0  0  0
  183.8570  179.0780  143.9090 C   0  0  0  0  0  2  0  0  0  0  0  0
  184.9520  178.0280  143.9800 C   0  0  0  0  0  0  0  0  0  0  0  0
  185.3230  177.5890  145.2560 O   0  0  0  0  0  0  0  0  0  0  0  0
  185.9600  178.6060  145.8050 O   0  0  0  0  0  0  0  0  0  0  0  0
  186.1040  177.1710  148.0470 O   0  0  0  0  0  0  0  0  0  0  0  0
  185.4410  178.6040  147.4260 S   0  0  1  0  0  0  0  0  0  0  0  0
  186.2890  179.6900  148.0690 O   0  0  0  0  0  1  0  0  0  0  0  0
  192.0190  176.0030  146.1530 C   0  0  1  0  0  3  0  0  0  0  0  0
  191.3790  176.3670  147.4900 C   0  0  0  0  0  2  0  0  0  0  0  0
  190.7060  175.2610  148.0100 O   0  0  0  0  0  1  0  0  0  0  0  0
  192.2640  174.4950  146.1170 C   0  0  0  0  0  2  0  0  0  0  0  0
  195.4280  173.0060  145.0500 C   0  0  0  0  0  1  0  0  0  0  0  0
  194.0290  173.2840  145.2200 N   0  0  0  0  0  0  0  0  0  0  0  0
  193.6650  174.2250  145.9460 N   0  0  0  0  0  0  0  0  0  0  0  0
  2  1  1  1  0  0  0
  2 41  1  0  0  0  0
  4  3  1  6  0  0  0
  4  2  1  0  0  0  0
  5 12  1  0  0  0  0
  5  4  1  0  0  0  0
  6 16  2  0  0  0  0
  6 20  1  0  0  0  0
  7  8  2  0  0  0  0
  7 11  1  0  0  0  0
  8 20  2  0  0  0  0
  9 19  1  0  0  0  0
 10 15  1  0  0  0  0
 11 19  2  0  0  0  0
 11 12  1  0  0  0  0
 12 10  2  0  0  0  0
 13 21  2  0  0  0  0
 14 15  2  0  0  0  0
 16 13  1  0  0  0  0
 17  7  1  0  0  0  0
 18  9  1  0  0  0  0
 19 14  1  0  0  0  0
 20 21  1  0  0  0  0
 22 17  1  0  0  0  0
 22 18  1  0  0  0  0
 23  2  1  0  0  0  0
 24 23  1  0  0  0  0
 25 24  1  0  0  0  0
 26 31  1  0  0  0  0
 26 25  1  0  0  0  0
 27 28  1  6  0  0  0
 27 29  1  0  0  0  0
 27 30  1  0  0  0  0
 29 28  1  6  0  0  0
 29 31  1  0  0  0  0
 30 32  1  0  0  0  0
 31 32  1  0  0  0  0
 32 35  1  1  0  0  0
 33 34  1  0  0  0  0
 33 35  1  0  0  0  0
 34 35  1  0  0  0  0
 35 36  1  0  0  0  0
 36 37  1  0  0  0  0
 37 39  1  0  0  0  0
 39 38  2  1  0  0  0
 39 40  1  0  0  0  0
 41 44  1  1  0  0  0
 41 42  1  0  0  0  0
 42 43  1  0  0  0  0
 45 46  1  0  0  0  0
 46 47  2  0  0  0  0
 47 44  1  0  0  0  0
M  END
>  <MODEL>
2

>  <REMARK>
 VINA RESULT:      -6.9      2.624      5.288
  Name = 
  16 active torsions:
  status: ('A' for Active; 'I' for Inactive)
    1  A    between atoms: O_7  and  O_32
    2  A    between atoms: O_7  and  C_47
    3  A    between atoms: C_11  and  C_27
    4  A    between atoms: C_11  and  C_29
    5  A    between atoms: C_12  and  C_24
    6  A    between atoms: C_12  and  C_43
    7  A    between atoms: C_17  and  C_20
    8  A    between atoms: C_17  and  C_26
    9  A    between atoms: C_17  and  C_43
   10  A    between atoms: C_20  and  C_29
   11  A    between atoms: N_21  and  C_27
   12  A    between atoms: C_22  and  C_26
   13  A    between atoms: C_22  and  N_45
   14  A    between atoms: C_23  and  C_47
   15  A    between atoms: C_25  and  C_26
   16  A    between atoms: O_32  and  S_42
                            x       y       z     vdW  Elec       q    Type
                         _______ _______ _______ _____ _____    ______ ____

>  <TORSDO>
F 16

$$$$
=
 OpenBabel11072409053D

 47 52  0  0  1  0  0  0  0  0999 V2000
  191.5970  173.4490  143.4600 O   0  0  0  0  0  1  0  0  0  0  0  0
  191.3890  174.2460  142.3280 C   0  0  2  0  0  0  0  0  0  0  0  0
  193.6930  174.0770  141.5790 O   0  0  0  0  0  1  0  0  0  0  0  0
  192.7050  174.9790  141.9800 C   0  0  2  0  0  3  0  0  0  0  0  0
  193.2190  175.8570  143.1180 C   0  0  0  0  0  2  0  0  0  0  0  0
  191.3930  174.6000  146.8840 C   0  0  0  0  0  3  0  0  0  0  0  0
  194.5790  174.1400  145.1680 C   0  0  0  0  0  0  0  0  0  0  0  0
  193.6270  174.6780  145.8830 C   0  0  0  0  0  0  0  0  0  0  0  0
  197.5440  174.1140  145.1730 C   0  0  0  0  0  2  0  0  0  0  0  0
  195.4540  176.4490  142.3210 N   0  0  0  0  0  0  0  0  0  0  0  0
  195.3480  174.9490  144.1880 C   0  0  0  0  0  0  0  0  0  0  0  0
  194.7090  175.7660  143.2270 C   0  0  0  0  0  0  0  0  0  0  0  0
  191.5530  176.6820  147.8190 C   0  0  0  0  0  3  0  0  0  0  0  0
  197.4460  175.6170  143.2420 N   0  0  0  0  0  0  0  0  0  0  0  0
  196.8060  176.3830  142.3250 C   0  0  0  0  0  3  0  0  0  0  0  0
  190.7270  175.4810  147.6180 C   0  0  0  0  0  3  0  0  0  0  0  0
  194.7520  172.6550  145.2120 C   0  0  0  0  0  2  0  0  0  0  0  0
  197.2650  172.6260  145.0660 C   0  0  0  0  0  2  0  0  0  0  0  0
  196.7580  174.8940  144.1640 C   0  0  0  0  0  0  0  0  0  0  0  0
  192.6730  175.2150  146.5890 C   0  0  0  0  0  0  0  0  0  0  0  0
  192.7180  176.5280  147.2040 C   0  0  0  0  0  3  0  0  0  0  0  0
  196.0490  172.2560  145.9040 C   0  0  0  0  0  2  0  0  0  0  0  0
  190.2440  175.2440  142.6090 C   0  0  0  0  0  2  0  0  0  0  0  0
  189.5910  175.0940  143.9780 C   0  0  0  0  0  2  0  0  0  0  0  0
  188.4760  176.1020  144.1630 C   0  0  0  0  0  2  0  0  0  0  0  0
  187.7830  176.3210  142.8330 C   0  0  0  0  0  2  0  0  0  0  0  0
  185.6350  178.2030  141.0750 C   0  0  2  0  0  3  0  0  0  0  0  0
  186.7030  177.3740  140.3950 C   0  0  0  0  0  2  0  0  0  0  0  0
  187.0490  178.2480  141.6020 C   0  0  2  0  0  3  0  0  0  0  0  0
  184.8670  177.3790  141.9150 O   0  0  0  0  0  0  0  0  0  0  0  0
  187.0000  177.5510  142.8820 N   0  0  0  0  0  0  0  0  0  0  0  0
  185.6020  177.1970  143.1020 C   0  0  1  0  0  3  0  0  0  0  0  0
  185.4590  179.4460  144.2350 C   0  0  0  0  0  2  0  0  0  0  0  0
  183.9900  179.1290  144.0110 C   0  0  0  0  0  2  0  0  0  0  0  0
  184.9870  178.0090  144.2540 C   0  0  0  0  0  0  0  0  0  0  0  0
  185.0500  177.4930  145.5540 O   0  0  0  0  0  0  0  0  0  0  0  0
  185.4270  178.5020  146.3150 O   0  0  0  0  0  0  0  0  0  0  0  0
  186.9830  179.0690  148.4040 O   0  0  0  0  0  1  0  0  0  0  0  0
  186.7430  177.8920  147.2050 S   0  0  1  0  0  0  0  0  0  0  0  0
  186.1400  176.7260  147.9730 O   0  0  0  0  0  0  0  0  0  0  0  0
  190.9670  173.3340  141.1530 C   0  0  1  0  0  3  0  0  0  0  0  0
  191.1840  171.8550  141.4590 C   0  0  0  0  0  2  0  0  0  0  0  0
  189.9530  171.2130  141.5940 O   0  0  0  0  0  1  0  0  0  0  0  0
  189.5040  173.5500  140.7700 C   0  0  0  0  0  2  0  0  0  0  0  0
  188.2990  174.4560  137.4390 C   0  0  0  0  0  1  0  0  0  0  0  0
  188.4310  174.3260  138.8630 N   0  0  0  0  0  0  0  0  0  0  0  0
  189.3790  173.6810  139.3450 N   0  0  0  0  0  0  0  0  0  0  0  0
  2 23  1  0  0  0  0
  2  1  1  1  0  0  0
  4  3  1  1  0  0  0
  4  2  1  0  0  0  0
  4  5  1  0  0  0  0
  5 12  1  0  0  0  0
  6 16  2  0  0  0  0
  7 17  1  0  0  0  0
  7  8  2  0  0  0  0
  8 20  2  0  0  0  0
 10 15  2  0  0  0  0
 10 12  1  0  0  0  0
 11  7  1  0  0  0  0
 12 11  2  0  0  0  0
 14 19  2  0  0  0  0
 15 14  1  0  0  0  0
 16 13  1  0  0  0  0
 17 22  1  0  0  0  0
 18  9  1  0  0  0  0
 18 22  1  0  0  0  0
 19 11  1  0  0  0  0
 19  9  1  0  0  0  0
 20  6  1  0  0  0  0
 20 21  1  0  0  0  0
 21 13  2  0  0  0  0
 23 24  1  0  0  0  0
 24 25  1  0  0  0  0
 26 31  1  0  0  0  0
 26 25  1  0  0  0  0
 27 28  1  6  0  0  0
 27 29  1  0  0  0  0
 27 30  1  0  0  0  0
 29 28  1  6  0  0  0
 29 31  1  0  0  0  0
 30 32  1  0  0  0  0
 31 32  1  0  0  0  0
 32 35  1  1  0  0  0
 33 35  1  0  0  0  0
 34 33  1  0  0  0  0
 34 35  1  0  0  0  0
 35 36  1  0  0  0  0
 36 37  1  0  0  0  0
 37 39  1  0  0  0  0
 39 40  2  1  0  0  0
 39 38  1  0  0  0  0
 41 44  1  1  0  0  0
 41 42  1  0  0  0  0
 41  2  1  0  0  0  0
 42 43  1  0  0  0  0
 45 46  1  0  0  0  0
 46 47  2  0  0  0  0
 47 44  1  0  0  0  0
M  END
>  <MODEL>
3

>  <REMARK>
 VINA RESULT:      -6.7      1.652      2.975
  Name = 
  16 active torsions:
  status: ('A' for Active; 'I' for Inactive)
    1  A    between atoms: O_7  and  O_32
    2  A    between atoms: O_7  and  C_47
    3  A    between atoms: C_11  and  C_27
    4  A    between atoms: C_11  and  C_29
    5  A    between atoms: C_12  and  C_24
    6  A    between atoms: C_12  and  C_43
    7  A    between atoms: C_17  and  C_20
    8  A    between atoms: C_17  and  C_26
    9  A    between atoms: C_17  and  C_43
   10  A    between atoms: C_20  and  C_29
   11  A    between atoms: N_21  and  C_27
   12  A    between atoms: C_22  and  C_26
   13  A    between atoms: C_22  and  N_45
   14  A    between atoms: C_23  and  C_47
   15  A    between atoms: C_25  and  C_26
   16  A    between atoms: O_32  and  S_42
                            x       y       z     vdW  Elec       q    Type
                         _______ _______ _______ _____ _____    ______ ____

>  <TORSDO>
F 16

$$$$
=
 OpenBabel11072409053D

 47 52  0  0  1  0  0  0  0  0999 V2000
  189.2710  172.1840  141.4400 O   0  0  0  0  0  1  0  0  0  0  0  0
  189.8230  173.2890  140.7810 C   0  0  2  0  0  0  0  0  0  0  0  0
  191.8070  172.2000  141.6620 O   0  0  0  0  0  1  0  0  0  0  0  0
  191.3170  173.4070  141.1580 C   0  0  2  0  0  3  0  0  0  0  0  0
  191.5970  174.5420  142.1400 C   0  0  0  0  0  2  0  0  0  0  0  0
  190.1420  175.4210  146.1660 C   0  0  0  0  0  3  0  0  0  0  0  0
  193.3690  175.0640  144.5040 C   0  0  0  0  0  0  0  0  0  0  0  0
  192.2430  175.5800  144.9170 C   0  0  0  0  0  0  0  0  0  0  0  0
  196.1220  176.0200  143.9580 C   0  0  0  0  0  2  0  0  0  0  0  0
  193.4930  175.1930  140.7390 N   0  0  0  0  0  0  0  0  0  0  0  0
  193.8400  175.2710  143.1110 C   0  0  0  0  0  0  0  0  0  0  0  0
  193.0030  175.0350  141.9950 C   0  0  0  0  0  0  0  0  0  0  0  0
  189.4530  177.5300  145.6080 C   0  0  0  0  0  3  0  0  0  0  0  0
  195.5900  175.8370  141.5750 N   0  0  0  0  0  0  0  0  0  0  0  0
  194.7690  175.5920  140.5240 C   0  0  0  0  0  3  0  0  0  0  0  0
  189.1500  176.2850  146.3320 C   0  0  0  0  0  3  0  0  0  0  0  0
  194.0820  174.0990  145.3980 C   0  0  0  0  0  2  0  0  0  0  0  0
  196.4280  174.8110  144.8230 C   0  0  0  0  0  2  0  0  0  0  0  0
  195.1670  175.6800  142.8560 C   0  0  0  0  0  0  0  0  0  0  0  0
  191.1150  176.0900  145.3240 C   0  0  0  0  0  0  0  0  0  0  0  0
  190.6260  177.4170  145.0010 C   0  0  0  0  0  3  0  0  0  0  0  0
  195.3880  174.6780  145.9280 C   0  0  0  0  0  2  0  0  0  0  0  0
  189.0390  174.5610  141.1720 C   0  0  0  0  0  2  0  0  0  0  0  0
  187.8600  174.3190  142.1070 C   0  0  0  0  0  2  0  0  0  0  0  0
  187.6200  175.5170  143.0020 C   0  0  0  0  0  2  0  0  0  0  0  0
  188.1500  176.7600  142.3160 C   0  0  0  0  0  2  0  0  0  0  0  0
  185.4240  178.1370  140.9290 C   0  0  2  0  0  3  0  0  0  0  0  0
  186.4740  177.4390  140.0910 C   0  0  0  0  0  2  0  0  0  0  0  0
  186.8830  178.4470  141.1670 C   0  0  2  0  0  3  0  0  0  0  0  0
  184.9770  177.2670  141.9380 O   0  0  0  0  0  0  0  0  0  0  0  0
  187.1910  177.8500  142.4620 N   0  0  0  0  0  0  0  0  0  0  0  0
  185.9390  177.2960  142.9660 C   0  0  1  0  0  3  0  0  0  0  0  0
  185.5210  179.5780  143.9560 C   0  0  0  0  0  2  0  0  0  0  0  0
  184.1560  178.9280  144.1130 C   0  0  0  0  0  2  0  0  0  0  0  0
  185.4180  178.0850  144.1790 C   0  0  0  0  0  0  0  0  0  0  0  0
  185.8860  177.7490  145.4550 O   0  0  0  0  0  0  0  0  0  0  0  0
  186.0550  178.8990  146.0810 O   0  0  0  0  0  0  0  0  0  0  0  0
  186.0390  176.8500  147.7860 O   0  0  0  0  0  0  0  0  0  0  0  0
  185.7990  178.5290  147.7220 S   0  0  1  0  0  0  0  0  0  0  0  0
  187.0360  179.0870  148.4070 O   0  0  0  0  0  1  0  0  0  0  0  0
  189.6800  173.0760  139.2560 C   0  0  1  0  0  3  0  0  0  0  0  0
  190.9300  173.5020  138.4900 C   0  0  0  0  0  2  0  0  0  0  0  0
  190.5700  174.0250  137.2490 O   0  0  0  0  0  1  0  0  0  0  0  0
  189.3670  171.6190  138.9170 C   0  0  0  0  0  2  0  0  0  0  0  0
  192.1050  169.1970  138.9960 C   0  0  0  0  0  1  0  0  0  0  0  0
  190.8910  169.9070  139.2870 N   0  0  0  0  0  0  0  0  0  0  0  0
  190.5800  170.9090  138.6190 N   0  0  0  0  0  0  0  0  0  0  0  0
  2  4  1  0  0  0  0
  2 23  1  0  0  0  0
  2  1  1  1  0  0  0
  4  3  1  1  0  0  0
  4  5  1  0  0  0  0
  6 16  2  0  0  0  0
  7  8  2  0  0  0  0
  7 17  1  0  0  0  0
  8 20  2  0  0  0  0
  9 18  1  0  0  0  0
 10 12  1  0  0  0  0
 11  7  1  0  0  0  0
 12  5  1  0  0  0  0
 12 11  2  0  0  0  0
 13 16  1  0  0  0  0
 14 19  2  0  0  0  0
 15 10  2  0  0  0  0
 15 14  1  0  0  0  0
 17 22  1  0  0  0  0
 18 22  1  0  0  0  0
 19 11  1  0  0  0  0
 19  9  1  0  0  0  0
 20  6  1  0  0  0  0
 21 20  1  0  0  0  0
 21 13  2  0  0  0  0
 23 24  1  0  0  0  0
 24 25  1  0  0  0  0
 26 31  1  0  0  0  0
 26 25  1  0  0  0  0
 27 28  1  6  0  0  0
 27 29  1  0  0  0  0
 27 30  1  0  0  0  0
 29 28  1  6  0  0  0
 29 31  1  0  0  0  0
 30 32  1  0  0  0  0
 31 32  1  0  0  0  0
 32 35  1  1  0  0  0
 33 34  1  0  0  0  0
 33 35  1  0  0  0  0
 34 35  1  0  0  0  0
 35 36  1  0  0  0  0
 36 37  1  0  0  0  0
 37 39  1  0  0  0  0
 39 38  2  6  0  0  0
 39 40  1  0  0  0  0
 41 42  1  6  0  0  0
 41  2  1  0  0  0  0
 43 42  1  0  0  0  0
 44 41  1  0  0  0  0
 45 46  1  0  0  0  0
 47 44  1  0  0  0  0
 47 46  2  0  0  0  0
M  END
>  <MODEL>
4

>  <REMARK>
 VINA RESULT:      -6.7      2.294      3.710
  Name = 
  16 active torsions:
  status: ('A' for Active; 'I' for Inactive)
    1  A    between atoms: O_7  and  O_32
    2  A    between atoms: O_7  and  C_47
    3  A    between atoms: C_11  and  C_27
    4  A    between atoms: C_11  and  C_29
    5  A    between atoms: C_12  and  C_24
    6  A    between atoms: C_12  and  C_43
    7  A    between atoms: C_17  and  C_20
    8  A    between atoms: C_17  and  C_26
    9  A    between atoms: C_17  and  C_43
   10  A    between atoms: C_20  and  C_29
   11  A    between atoms: N_21  and  C_27
   12  A    between atoms: C_22  and  C_26
   13  A    between atoms: C_22  and  N_45
   14  A    between atoms: C_23  and  C_47
   15  A    between atoms: C_25  and  C_26
   16  A    between atoms: O_32  and  S_42
                            x       y       z     vdW  Elec       q    Type
                         _______ _______ _______ _____ _____    ______ ____

>  <TORSDO>
F 16

$$$$
=
 OpenBabel11072409053D

 47 52  0  0  1  0  0  0  0  0999 V2000
  190.2740  171.2480  142.3660 O   0  0  0  0  0  1  0  0  0  0  0  0
  190.9040  172.4230  141.9380 C   0  0  2  0  0  0  0  0  0  0  0  0
  191.9440  172.0630  144.1040 O   0  0  0  0  0  1  0  0  0  0  0  0
  192.0830  172.7370  142.8880 C   0  0  2  0  0  3  0  0  0  0  0  0
  192.2730  174.2320  143.1310 C   0  0  0  0  0  2  0  0  0  0  0  0
  191.9230  174.6120  147.4700 C   0  0  0  0  0  3  0  0  0  0  0  0
  194.6050  174.3330  145.0150 C   0  0  0  0  0  0  0  0  0  0  0  0
  193.6600  174.8410  145.7590 C   0  0  0  0  0  0  0  0  0  0  0  0
  197.2100  175.2210  143.9110 C   0  0  0  0  0  2  0  0  0  0  0  0
  193.8160  174.9780  141.3860 N   0  0  0  0  0  0  0  0  0  0  0  0
  194.7360  174.7090  143.5840 C   0  0  0  0  0  0  0  0  0  0  0  0
  193.6360  174.6720  142.6960 C   0  0  0  0  0  0  0  0  0  0  0  0
  191.2930  176.8090  147.3680 C   0  0  0  0  0  3  0  0  0  0  0  0
  196.0990  175.3970  141.7360 N   0  0  0  0  0  0  0  0  0  0  0  0
  195.0290  175.3410  140.9060 C   0  0  0  0  0  3  0  0  0  0  0  0
  191.0750  175.4920  147.9870 C   0  0  0  0  0  3  0  0  0  0  0  0
  195.4330  173.2200  145.5740 C   0  0  0  0  0  2  0  0  0  0  0  0
  197.6180  173.8900  144.5160 C   0  0  0  0  0  2  0  0  0  0  0  0
  195.9900  175.0840  143.0530 C   0  0  0  0  0  0  0  0  0  0  0  0
  192.7120  175.3430  146.4970 C   0  0  0  0  0  0  0  0  0  0  0  0
  192.2690  176.7250  146.4750 C   0  0  0  0  0  3  0  0  0  0  0  0
  196.8720  173.6550  145.8230 C   0  0  0  0  0  2  0  0  0  0  0  0
  189.8760  173.5760  141.9140 C   0  0  0  0  0  2  0  0  0  0  0  0
  188.4190  173.1280  141.9130 C   0  0  0  0  0  2  0  0  0  0  0  0
  187.4840  174.3190  141.9580 C   0  0  0  0  0  2  0  0  0  0  0  0
  188.0990  175.4600  141.1750 C   0  0  0  0  0  2  0  0  0  0  0  0
  186.3460  178.2580  141.7640 C   0  0  2  0  0  3  0  0  0  0  0  0
  186.3710  177.6110  140.3960 C   0  0  0  0  0  2  0  0  0  0  0  0
  187.6680  177.8230  141.1780 C   0  0  2  0  0  3  0  0  0  0  0  0
  185.9450  177.3130  142.7220 O   0  0  0  0  0  0  0  0  0  0  0  0
  188.0810  176.6770  141.9800 N   0  0  0  0  0  0  0  0  0  0  0  0
  187.0710  176.5230  143.0220 C   0  0  1  0  0  3  0  0  0  0  0  0
  188.8580  176.0530  144.7400 C   0  0  0  0  0  2  0  0  0  0  0  0
  188.9760  177.5610  144.5870 C   0  0  0  0  0  2  0  0  0  0  0  0
  187.6320  176.8760  144.4100 C   0  0  0  0  0  0  0  0  0  0  0  0
  186.7580  176.9090  145.5030 O   0  0  0  0  0  0  0  0  0  0  0  0
  186.5440  178.1890  145.7430 O   0  0  0  0  0  0  0  0  0  0  0  0
  184.3880  178.4970  147.2790 O   0  0  0  0  0  0  0  0  0  0  0  0
  186.0630  178.2400  147.3740 S   0  0  1  0  0  0  0  0  0  0  0  0
  186.1710  176.7900  147.8200 O   0  0  0  0  0  1  0  0  0  0  0  0
  191.4310  172.2060  140.5010 C   0  0  1  0  0  3  0  0  0  0  0  0
  190.9020  170.9170  139.8770 C   0  0  0  0  0  2  0  0  0  0  0  0
  189.7820  171.1930  139.0940 O   0  0  0  0  0  1  0  0  0  0  0  0
  191.0740  173.3780  139.5870 C   0  0  0  0  0  2  0  0  0  0  0  0
  192.8920  173.9570  136.4680 C   0  0  0  0  0  1  0  0  0  0  0  0
  191.8460  173.7430  137.4280 N   0  0  0  0  0  0  0  0  0  0  0  0
  192.1250  173.5970  138.6310 N   0  0  0  0  0  0  0  0  0  0  0  0
  2  1  1  1  0  0  0
  2  4  1  0  0  0  0
  4  5  1  0  0  0  0
  4  3  1  1  0  0  0
  6 16  2  0  0  0  0
  7 17  1  0  0  0  0
  7  8  2  0  0  0  0
  8 20  2  0  0  0  0
  9 18  1  0  0  0  0
 10 12  1  0  0  0  0
 11  7  1  0  0  0  0
 12  5  1  0  0  0  0
 12 11  2  0  0  0  0
 13 16  1  0  0  0  0
 14 19  2  0  0  0  0
 15 10  2  0  0  0  0
 15 14  1  0  0  0  0
 17 22  1  0  0  0  0
 18 22  1  0  0  0  0
 19 11  1  0  0  0  0
 19  9  1  0  0  0  0
 20  6  1  0  0  0  0
 21 20  1  0  0  0  0
 21 13  2  0  0  0  0
 23  2  1  0  0  0  0
 24 23  1  0  0  0  0
 24 25  1  0  0  0  0
 26 25  1  0  0  0  0
 26 31  1  0  0  0  0
 27 28  1  6  0  0  0
 27 30  1  0  0  0  0
 29 28  1  6  0  0  0
 29 27  1  0  0  0  0
 29 31  1  0  0  0  0
 30 32  1  0  0  0  0
 31 32  1  0  0  0  0
 32 35  1  1  0  0  0
 34 33  1  0  0  0  0
 35 34  1  0  0  0  0
 35 33  1  0  0  0  0
 35 36  1  0  0  0  0
 36 37  1  0  0  0  0
 37 39  1  0  0  0  0
 39 38  2  6  0  0  0
 39 40  1  0  0  0  0
 41 44  1  6  0  0  0
 41  2  1  0  0  0  0
 42 41  1  0  0  0  0
 43 42  1  0  0  0  0
 45 46  1  0  0  0  0
 46 47  2  0  0  0  0
 47 44  1  0  0  0  0
M  END
>  <MODEL>
5

>  <REMARK>
 VINA RESULT:      -6.6      2.135      3.369
  Name = 
  16 active torsions:
  status: ('A' for Active; 'I' for Inactive)
    1  A    between atoms: O_7  and  O_32
    2  A    between atoms: O_7  and  C_47
    3  A    between atoms: C_11  and  C_27
    4  A    between atoms: C_11  and  C_29
    5  A    between atoms: C_12  and  C_24
    6  A    between atoms: C_12  and  C_43
    7  A    between atoms: C_17  and  C_20
    8  A    between atoms: C_17  and  C_26
    9  A    between atoms: C_17  and  C_43
   10  A    between atoms: C_20  and  C_29
   11  A    between atoms: N_21  and  C_27
   12  A    between atoms: C_22  and  C_26
   13  A    between atoms: C_22  and  N_45
   14  A    between atoms: C_23  and  C_47
   15  A    between atoms: C_25  and  C_26
   16  A    between atoms: O_32  and  S_42
                            x       y       z     vdW  Elec       q    Type
                         _______ _______ _______ _____ _____    ______ ____

>  <TORSDO>
F 16

$$$$
=
 OpenBabel11072409053D

 47 52  0  0  1  0  0  0  0  0999 V2000
  193.7310  176.4180  143.9090 O   0  0  0  0  0  1  0  0  0  0  0  0
  192.5550  176.0490  144.5720 C   0  0  2  0  0  0  0  0  0  0  0  0
  191.5000  173.8660  144.7210 O   0  0  0  0  0  1  0  0  0  0  0  0
  191.9090  174.8580  143.8270 C   0  0  2  0  0  3  0  0  0  0  0  0
  192.8170  174.2620  142.7540 C   0  0  0  0  0  2  0  0  0  0  0  0
  196.9330  175.3380  143.7530 C   0  0  0  0  0  3  0  0  0  0  0  0
  194.7580  172.4350  144.1330 C   0  0  0  0  0  0  0  0  0  0  0  0
  195.5700  173.3090  143.6010 C   0  0  0  0  0  0  0  0  0  0  0  0
  194.2690  169.5180  143.9200 C   0  0  0  0  0  2  0  0  0  0  0  0
  191.6080  172.2490  142.0710 N   0  0  0  0  0  0  0  0  0  0  0  0
  193.5940  171.9130  143.3720 C   0  0  0  0  0  0  0  0  0  0  0  0
  192.6830  172.7720  142.7130 C   0  0  0  0  0  0  0  0  0  0  0  0
  197.6370  175.2330  141.5790 C   0  0  0  0  0  3  0  0  0  0  0  0
  192.2550  170.0650  142.6400 N   0  0  0  0  0  0  0  0  0  0  0  0
  191.3920  170.9130  142.0270 C   0  0  0  0  0  3  0  0  0  0  0  0
  197.6860  175.9610  142.8570 C   0  0  0  0  0  3  0  0  0  0  0  0
  194.9050  172.1160  145.5860 C   0  0  0  0  0  2  0  0  0  0  0  0
  194.3440  169.6660  145.4290 C   0  0  0  0  0  2  0  0  0  0  0  0
  193.3390  170.5250  143.3150 C   0  0  0  0  0  0  0  0  0  0  0  0
  196.3750  174.1860  143.0720 C   0  0  0  0  0  0  0  0  0  0  0  0
  196.8520  174.1710  141.7020 C   0  0  0  0  0  3  0  0  0  0  0  0
  195.4030  170.6930  145.8050 C   0  0  0  0  0  2  0  0  0  0  0  0
  191.5990  177.2610  144.6340 C   0  0  0  0  0  2  0  0  0  0  0  0
  191.2380  177.8550  143.2770 C   0  0  0  0  0  2  0  0  0  0  0  0
  189.7950  178.3120  143.2500 C   0  0  0  0  0  2  0  0  0  0  0  0
  189.1830  177.9410  141.9150 C   0  0  0  0  0  2  0  0  0  0  0  0
  187.8930  174.8720  142.3220 C   0  0  2  0  0  3  0  0  0  0  0  0
  189.1210  175.1090  141.4700 C   0  0  0  0  0  2  0  0  0  0  0  0
  187.8900  176.0050  141.3240 C   0  0  2  0  0  3  0  0  0  0  0  0
  188.1040  175.4020  143.6060 O   0  0  0  0  0  0  0  0  0  0  0  0
  187.9320  177.2210  142.1290 N   0  0  0  0  0  0  0  0  0  0  0  0
  187.8820  176.7900  143.5220 C   0  0  1  0  0  3  0  0  0  0  0  0
  186.3140  178.6650  144.1430 C   0  0  0  0  0  2  0  0  0  0  0  0
  185.3820  177.7310  143.3880 C   0  0  0  0  0  2  0  0  0  0  0  0
  186.5480  177.1710  144.1850 C   0  0  0  0  0  0  0  0  0  0  0  0
  186.2570  176.6670  145.4580 O   0  0  0  0  0  0  0  0  0  0  0  0
  186.9350  177.4260  146.2980 O   0  0  0  0  0  0  0  0  0  0  0  0
  185.8400  179.4940  147.5750 O   0  0  0  0  0  1  0  0  0  0  0  0
  185.8170  177.7980  147.5270 S   0  0  1  0  0  0  0  0  0  0  0  0
  184.4730  177.4830  146.8900 O   0  0  0  0  0  0  0  0  0  0  0  0
  192.9120  175.6330  146.0180 C   0  0  1  0  0  3  0  0  0  0  0  0
  194.3770  175.9000  146.3540 C   0  0  0  0  0  2  0  0  0  0  0  0
  194.5380  177.2270  146.7530 O   0  0  0  0  0  1  0  0  0  0  0  0
  192.0340  176.3470  147.0430 C   0  0  0  0  0  2  0  0  0  0  0  0
  188.9070  174.5520  147.6540 C   0  0  0  0  0  1  0  0  0  0  0  0
  189.8930  175.4530  147.1250 N   0  0  0  0  0  0  0  0  0  0  0  0
  191.0530  175.4390  147.5720 N   0  0  0  0  0  0  0  0  0  0  0  0
  2  1  1  6  0  0  0
  2 23  1  0  0  0  0
  2 41  1  0  0  0  0
  4  2  1  0  0  0  0
  4  3  1  1  0  0  0
  5  4  1  0  0  0  0
  7 17  1  0  0  0  0
  8  7  2  0  0  0  0
  9 18  1  0  0  0  0
 10 12  1  0  0  0  0
 11  7  1  0  0  0  0
 12  5  1  0  0  0  0
 12 11  2  0  0  0  0
 13 21  2  0  0  0  0
 13 16  1  0  0  0  0
 14 19  2  0  0  0  0
 15 10  2  0  0  0  0
 15 14  1  0  0  0  0
 16  6  2  0  0  0  0
 17 22  1  0  0  0  0
 18 22  1  0  0  0  0
 19 11  1  0  0  0  0
 19  9  1  0  0  0  0
 20  8  2  0  0  0  0
 20  6  1  0  0  0  0
 21 20  1  0  0  0  0
 24 23  1  0  0  0  0
 25 24  1  0  0  0  0
 26 31  1  0  0  0  0
 26 25  1  0  0  0  0
 27 28  1  6  0  0  0
 27 30  1  0  0  0  0
 29 28  1  6  0  0  0
 29 31  1  0  0  0  0
 29 27  1  0  0  0  0
 31 32  1  0  0  0  0
 32 30  1  0  0  0  0
 32 35  1  6  0  0  0
 33 35  1  0  0  0  0
 34 33  1  0  0  0  0
 34 35  1  0  0  0  0
 35 36  1  0  0  0  0
 36 37  1  0  0  0  0
 37 39  1  0  0  0  0
 39 40  2  6  0  0  0
 39 38  1  0  0  0  0
 41 42  1  1  0  0  0
 41 44  1  0  0  0  0
 42 43  1  0  0  0  0
 44 47  1  0  0  0  0
 46 47  2  0  0  0  0
 46 45  1  0  0  0  0
M  END
>  <MODEL>
6

>  <REMARK>
 VINA RESULT:      -6.5      2.992      5.529
  Name = 
  16 active torsions:
  status: ('A' for Active; 'I' for Inactive)
    1  A    between atoms: O_7  and  O_32
    2  A    between atoms: O_7  and  C_47
    3  A    between atoms: C_11  and  C_27
    4  A    between atoms: C_11  and  C_29
    5  A    between atoms: C_12  and  C_24
    6  A    between atoms: C_12  and  C_43
    7  A    between atoms: C_17  and  C_20
    8  A    between atoms: C_17  and  C_26
    9  A    between atoms: C_17  and  C_43
   10  A    between atoms: C_20  and  C_29
   11  A    between atoms: N_21  and  C_27
   12  A    between atoms: C_22  and  C_26
   13  A    between atoms: C_22  and  N_45
   14  A    between atoms: C_23  and  C_47
   15  A    between atoms: C_25  and  C_26
   16  A    between atoms: O_32  and  S_42
                            x       y       z     vdW  Elec       q    Type
                         _______ _______ _______ _____ _____    ______ ____

>  <TORSDO>
F 16

$$$$
=
 OpenBabel11072409053D

 47 52  0  0  1  0  0  0  0  0999 V2000
  190.5550  177.9220  145.1370 O   0  0  0  0  0  1  0  0  0  0  0  0
  191.3350  176.7950  144.8480 C   0  0  2  0  0  0  0  0  0  0  0  0
  191.9420  178.3650  143.0960 O   0  0  0  0  0  1  0  0  0  0  0  0
  192.2050  177.0910  143.6050 C   0  0  2  0  0  3  0  0  0  0  0  0
  192.0550  176.0410  142.5070 C   0  0  0  0  0  2  0  0  0  0  0  0
  189.1290  172.8240  142.0740 C   0  0  0  0  0  3  0  0  0  0  0  0
  192.3750  173.6990  140.6600 C   0  0  0  0  0  0  0  0  0  0  0  0
  191.4680  173.2460  141.4830 C   0  0  0  0  0  0  0  0  0  0  0  0
  195.1340  172.9650  139.8560 C   0  0  0  0  0  2  0  0  0  0  0  0
  194.4880  176.2720  142.4270 N   0  0  0  0  0  0  0  0  0  0  0  0
  193.5430  174.4700  141.1580 C   0  0  0  0  0  0  0  0  0  0  0  0
  193.3950  175.5680  142.0370 C   0  0  0  0  0  0  0  0  0  0  0  0
  189.6310  171.9040  144.1070 C   0  0  0  0  0  3  0  0  0  0  0  0
  195.9040  174.8790  141.1750 N   0  0  0  0  0  0  0  0  0  0  0  0
  195.7310  175.9350  142.0080 C   0  0  0  0  0  3  0  0  0  0  0  0
  188.5770  172.2870  143.1530 C   0  0  0  0  0  3  0  0  0  0  0  0
  192.1200  173.5960  139.1900 C   0  0  0  0  0  2  0  0  0  0  0  0
  194.4910  173.1190  138.4900 C   0  0  0  0  0  2  0  0  0  0  0  0
  194.8500  174.1460  140.7340 C   0  0  0  0  0  0  0  0  0  0  0  0
  190.5610  172.8020  142.3050 C   0  0  0  0  0  0  0  0  0  0  0  0
  190.8180  172.2120  143.6050 C   0  0  0  0  0  3  0  0  0  0  0  0
  193.0600  172.6020  138.5200 C   0  0  0  0  0  2  0  0  0  0  0  0
  190.4100  175.5800  144.6130 C   0  0  0  0  0  2  0  0  0  0  0  0
  188.9250  175.9150  144.5420 C   0  0  0  0  0  2  0  0  0  0  0  0
  188.2470  175.6680  145.8730 C   0  0  0  0  0  2  0  0  0  0  0  0
  187.6800  176.9760  146.3890 C   0  0  0  0  0  2  0  0  0  0  0  0
  184.8070  178.6480  146.8320 C   0  0  2  0  0  3  0  0  0  0  0  0
  185.6370  178.1740  148.0040 C   0  0  0  0  0  2  0  0  0  0  0  0
  185.3350  177.2330  146.8370 C   0  0  2  0  0  3  0  0  0  0  0  0
  185.6070  179.4240  145.9760 O   0  0  0  0  0  0  0  0  0  0  0  0
  186.3640  177.2080  145.8040 N   0  0  0  0  0  0  0  0  0  0  0  0
  186.3610  178.5320  145.1900 C   0  0  1  0  0  3  0  0  0  0  0  0
  185.1450  177.1690  143.4510 C   0  0  0  0  0  2  0  0  0  0  0  0
  184.3400  178.4580  143.4400 C   0  0  0  0  0  2  0  0  0  0  0  0
  185.8260  178.4860  143.7490 C   0  0  0  0  0  0  0  0  0  0  0  0
  186.6810  178.8420  142.7000 O   0  0  0  0  0  0  0  0  0  0  0  0
  186.1970  178.2370  141.6320 O   0  0  0  0  0  0  0  0  0  0  0  0
  188.8600  178.2260  141.7510 O   0  0  0  0  0  1  0  0  0  0  0  0
  187.5670  177.5890  140.8560 S   0  0  1  0  0  0  0  0  0  0  0  0
  187.5440  176.1240  141.2630 O   0  0  0  0  0  0  0  0  0  0  0  0
  192.2390  176.4950  146.0650 C   0  0  1  0  0  3  0  0  0  0  0  0
  191.9640  175.1200  146.6680 C   0  0  0  0  0  2  0  0  0  0  0  0
  191.3750  175.2630  147.9240 O   0  0  0  0  0  1  0  0  0  0  0  0
  193.7200  176.5870  145.7020 C   0  0  0  0  0  2  0  0  0  0  0  0
  196.1550  173.8600  145.7500 C   0  0  0  0  0  1  0  0  0  0  0  0
  195.5550  175.1640  145.7370 N   0  0  0  0  0  0  0  0  0  0  0  0
  194.3170  175.2800  145.7210 N   0  0  0  0  0  0  0  0  0  0  0  0
  2  1  1  1  0  0  0
  2 41  1  0  0  0  0
  4  3  1  6  0  0  0
  4  2  1  0  0  0  0
  5  4  1  0  0  0  0
  6 20  1  0  0  0  0
  6 16  2  0  0  0  0
  7 11  1  0  0  0  0
  7  8  2  0  0  0  0
  8 20  2  0  0  0  0
  9 19  1  0  0  0  0
 11 12  2  0  0  0  0
 12 10  1  0  0  0  0
 12  5  1  0  0  0  0
 14 15  1  0  0  0  0
 15 10  2  0  0  0  0
 16 13  1  0  0  0  0
 17  7  1  0  0  0  0
 18 22  1  0  0  0  0
 18  9  1  0  0  0  0
 19 11  1  0  0  0  0
 19 14  2  0  0  0  0
 20 21  1  0  0  0  0
 21 13  2  0  0  0  0
 22 17  1  0  0  0  0
 23  2  1  0  0  0  0
 24 23  1  0  0  0  0
 24 25  1  0  0  0  0
 25 26  1  0  0  0  0
 27 29  1  0  0  0  0
 27 28  1  1  0  0  0
 29 28  1  1  0  0  0
 30 27  1  0  0  0  0
 31 26  1  0  0  0  0
 31 29  1  0  0  0  0
 32 35  1  6  0  0  0
 32 31  1  0  0  0  0
 32 30  1  0  0  0  0
 33 35  1  0  0  0  0
 34 33  1  0  0  0  0
 34 35  1  0  0  0  0
 36 35  1  0  0  0  0
 37 36  1  0  0  0  0
 39 40  2  1  0  0  0
 39 37  1  0  0  0  0
 39 38  1  0  0  0  0
 41 44  1  6  0  0  0
 41 42  1  0  0  0  0
 42 43  1  0  0  0  0
 44 47  1  0  0  0  0
 46 45  1  0  0  0  0
 47 46  2  0  0  0  0
M  END
>  <MODEL>
7

>  <REMARK>
 VINA RESULT:      -6.5      2.565      4.814
  Name = 
  16 active torsions:
  status: ('A' for Active; 'I' for Inactive)
    1  A    between atoms: O_7  and  O_32
    2  A    between atoms: O_7  and  C_47
    3  A    between atoms: C_11  and  C_27
    4  A    between atoms: C_11  and  C_29
    5  A    between atoms: C_12  and  C_24
    6  A    between atoms: C_12  and  C_43
    7  A    between atoms: C_17  and  C_20
    8  A    between atoms: C_17  and  C_26
    9  A    between atoms: C_17  and  C_43
   10  A    between atoms: C_20  and  C_29
   11  A    between atoms: N_21  and  C_27
   12  A    between atoms: C_22  and  C_26
   13  A    between atoms: C_22  and  N_45
   14  A    between atoms: C_23  and  C_47
   15  A    between atoms: C_25  and  C_26
   16  A    between atoms: O_32  and  S_42
                            x       y       z     vdW  Elec       q    Type
                         _______ _______ _______ _____ _____    ______ ____

>  <TORSDO>
F 16

$$$$
=
 OpenBabel11072409053D

 47 52  0  0  1  0  0  0  0  0999 V2000
  188.9200  173.8870  142.7110 O   0  0  0  0  0  1  0  0  0  0  0  0
  190.1800  173.4140  142.3240 C   0  0  2  0  0  0  0  0  0  0  0  0
  189.7770  172.2820  144.4350 O   0  0  0  0  0  1  0  0  0  0  0  0
  190.6900  172.4140  143.3860 C   0  0  2  0  0  3  0  0  0  0  0  0
  192.0720  172.7730  143.9300 C   0  0  0  0  0  2  0  0  0  0  0  0
  194.6800  176.0370  142.6520 C   0  0  0  0  0  3  0  0  0  0  0  0
  195.0270  172.8740  144.4330 C   0  0  0  0  0  0  0  0  0  0  0  0
  194.9090  173.7370  143.4600 C   0  0  0  0  0  0  0  0  0  0  0  0
  196.4200  170.2960  144.8870 C   0  0  0  0  0  2  0  0  0  0  0  0
  192.2380  170.3490  144.2020 N   0  0  0  0  0  0  0  0  0  0  0  0
  194.2790  171.5910  144.4110 C   0  0  0  0  0  0  0  0  0  0  0  0
  192.8870  171.5400  144.1650 C   0  0  0  0  0  0  0  0  0  0  0  0
  194.5890  175.4350  140.4470 C   0  0  0  0  0  3  0  0  0  0  0  0
  194.2350  169.2100  144.6810 N   0  0  0  0  0  0  0  0  0  0  0  0
  192.8980  169.1940  144.4530 C   0  0  0  0  0  3  0  0  0  0  0  0
  194.5630  176.5320  141.4280 C   0  0  0  0  0  3  0  0  0  0  0  0
  195.7760  173.2810  145.6620 C   0  0  0  0  0  2  0  0  0  0  0  0
  196.8440  171.0500  146.1340 C   0  0  0  0  0  2  0  0  0  0  0  0
  194.9390  170.3710  144.6760 C   0  0  0  0  0  0  0  0  0  0  0  0
  194.7840  174.6000  142.4920 C   0  0  0  0  0  0  0  0  0  0  0  0
  194.7190  174.2770  141.0800 C   0  0  0  0  0  3  0  0  0  0  0  0
  197.0870  172.5170  145.8050 C   0  0  0  0  0  2  0  0  0  0  0  0
  191.1470  174.6080  142.1620 C   0  0  0  0  0  2  0  0  0  0  0  0
  190.6000  175.9410  142.6610 C   0  0  0  0  0  2  0  0  0  0  0  0
  191.3000  176.3740  143.9330 C   0  0  0  0  0  2  0  0  0  0  0  0
  190.3320  177.1750  144.7800 C   0  0  0  0  0  2  0  0  0  0  0  0
  188.3820  175.6640  147.0520 C   0  0  2  0  0  3  0  0  0  0  0  0
  189.8870  175.7140  147.2060 C   0  0  0  0  0  2  0  0  0  0  0  0
  189.2560  175.3240  145.8680 C   0  0  2  0  0  3  0  0  0  0  0  0
  187.8850  176.9670  146.8860 O   0  0  0  0  0  0  0  0  0  0  0  0
  189.0850  176.4350  144.9380 N   0  0  0  0  0  0  0  0  0  0  0  0
  188.0960  177.3230  145.5400 C   0  0  1  0  0  3  0  0  0  0  0  0
  185.5810  177.2190  145.6840 C   0  0  0  0  0  2  0  0  0  0  0  0
  185.7820  178.4590  144.8280 C   0  0  0  0  0  2  0  0  0  0  0  0
  186.7730  177.3100  144.7570 C   0  0  0  0  0  0  0  0  0  0  0  0
  186.6290  176.4190  143.6880 O   0  0  0  0  0  0  0  0  0  0  0  0
  186.0460  177.1120  142.7280 O   0  0  0  0  0  0  0  0  0  0  0  0
  186.2680  177.6470  140.1270 O   0  0  0  0  0  0  0  0  0  0  0  0
  187.1730  177.0990  141.4530 S   0  0  1  0  0  0  0  0  0  0  0  0
  188.0800  178.2770  141.7700 O   0  0  0  0  0  1  0  0  0  0  0  0
  190.0430  172.7060  140.9570 C   0  0  1  0  0  3  0  0  0  0  0  0
  189.3360  173.5750  139.9200 C   0  0  0  0  0  2  0  0  0  0  0  0
  188.1700  172.9430  139.4880 O   0  0  0  0  0  1  0  0  0  0  0  0
  191.4030  172.2850  140.4020 C   0  0  0  0  0  2  0  0  0  0  0  0
  190.7990  168.9130  139.1230 C   0  0  0  0  0  1  0  0  0  0  0  0
  190.7680  170.3360  139.3110 N   0  0  0  0  0  0  0  0  0  0  0  0
  191.4420  170.8600  140.2150 N   0  0  0  0  0  0  0  0  0  0  0  0
  2  1  1  1  0  0  0
  2  4  1  0  0  0  0
  4  5  1  0  0  0  0
  4  3  1  1  0  0  0
  5 12  1  0  0  0  0
  7 17  1  0  0  0  0
  8  7  2  0  0  0  0
  9 18  1  0  0  0  0
 10 15  1  0  0  0  0
 11  7  1  0  0  0  0
 11 19  2  0  0  0  0
 12 10  2  0  0  0  0
 12 11  1  0  0  0  0
 13 21  2  0  0  0  0
 13 16  1  0  0  0  0
 15 14  2  0  0  0  0
 16  6  2  0  0  0  0
 17 22  1  0  0  0  0
 19 14  1  0  0  0  0
 19  9  1  0  0  0  0
 20  6  1  0  0  0  0
 20  8  2  0  0  0  0
 21 20  1  0  0  0  0
 22 18  1  0  0  0  0
 23  2  1  0  0  0  0
 23 24  1  0  0  0  0
 24 25  1  0  0  0  0
 25 26  1  0  0  0  0
 26 31  1  0  0  0  0
 27 28  1  1  0  0  0
 29 27  1  0  0  0  0
 29 28  1  1  0  0  0
 30 27  1  0  0  0  0
 31 32  1  0  0  0  0
 31 29  1  0  0  0  0
 32 35  1  6  0  0  0
 32 30  1  0  0  0  0
 34 33  1  0  0  0  0
 35 34  1  0  0  0  0
 35 33  1  0  0  0  0
 36 35  1  0  0  0  0
 37 36  1  0  0  0  0
 39 38  2  6  0  0  0
 39 40  1  0  0  0  0
 39 37  1  0  0  0  0
 41 42  1  6  0  0  0
 41  2  1  0  0  0  0
 43 42  1  0  0  0  0
 44 41  1  0  0  0  0
 45 46  1  0  0  0  0
 46 47  2  0  0  0  0
 47 44  1  0  0  0  0
M  END
>  <MODEL>
8

>  <REMARK>
 VINA RESULT:      -6.4      2.614      4.162
  Name = 
  16 active torsions:
  status: ('A' for Active; 'I' for Inactive)
    1  A    between atoms: O_7  and  O_32
    2  A    between atoms: O_7  and  C_47
    3  A    between atoms: C_11  and  C_27
    4  A    between atoms: C_11  and  C_29
    5  A    between atoms: C_12  and  C_24
    6  A    between atoms: C_12  and  C_43
    7  A    between atoms: C_17  and  C_20
    8  A    between atoms: C_17  and  C_26
    9  A    between atoms: C_17  and  C_43
   10  A    between atoms: C_20  and  C_29
   11  A    between atoms: N_21  and  C_27
   12  A    between atoms: C_22  and  C_26
   13  A    between atoms: C_22  and  N_45
   14  A    between atoms: C_23  and  C_47
   15  A    between atoms: C_25  and  C_26
   16  A    between atoms: O_32  and  S_42
                            x       y       z     vdW  Elec       q    Type
                         _______ _______ _______ _____ _____    ______ ____

>  <TORSDO>
F 16

$$$$
=
 OpenBabel11072409053D

 47 52  0  0  1  0  0  0  0  0999 V2000
  189.1400  173.6250  142.9060 O   0  0  0  0  0  1  0  0  0  0  0  0
  190.3470  173.4030  142.2320 C   0  0  2  0  0  0  0  0  0  0  0  0
  190.5270  171.9800  144.1920 O   0  0  0  0  0  1  0  0  0  0  0  0
  191.2000  172.4020  143.0430 C   0  0  2  0  0  3  0  0  0  0  0  0
  192.5780  172.9500  143.4090 C   0  0  0  0  0  2  0  0  0  0  0  0
  194.3160  175.4890  146.5110 C   0  0  0  0  0  3  0  0  0  0  0  0
  195.2360  172.4540  144.7090 C   0  0  0  0  0  0  0  0  0  0  0  0
  195.0510  173.7170  144.9890 C   0  0  0  0  0  0  0  0  0  0  0  0
  197.2090  170.8340  143.2020 C   0  0  0  0  0  2  0  0  0  0  0  0
  193.3880  171.6000  141.5370 N   0  0  0  0  0  0  0  0  0  0  0  0
  194.9080  171.9140  143.3650 C   0  0  0  0  0  0  0  0  0  0  0  0
  193.6590  172.1550  142.7460 C   0  0  0  0  0  0  0  0  0  0  0  0
  194.8050  177.1810  145.0500 C   0  0  0  0  0  3  0  0  0  0  0  0
  195.5070  170.5930  141.4580 N   0  0  0  0  0  0  0  0  0  0  0  0
  194.2970  170.8300  140.8940 C   0  0  0  0  0  3  0  0  0  0  0  0
  194.2840  176.8080  146.3760 C   0  0  0  0  0  3  0  0  0  0  0  0
  195.5990  171.5220  145.8210 C   0  0  0  0  0  2  0  0  0  0  0  0
  197.1630  170.0540  144.5030 C   0  0  0  0  0  2  0  0  0  0  0  0
  195.8330  171.1030  142.6730 C   0  0  0  0  0  0  0  0  0  0  0  0
  194.8590  174.9740  145.2690 C   0  0  0  0  0  0  0  0  0  0  0  0
  195.1470  176.0870  144.3840 C   0  0  0  0  0  3  0  0  0  0  0  0
  197.0260  171.0060  145.6830 C   0  0  0  0  0  2  0  0  0  0  0  0
  191.0820  174.7480  142.0430 C   0  0  0  0  0  2  0  0  0  0  0  0
  190.4310  175.9330  142.7470 C   0  0  0  0  0  2  0  0  0  0  0  0
  191.4530  176.7260  143.5350 C   0  0  0  0  0  2  0  0  0  0  0  0
  190.9280  176.9520  144.9390 C   0  0  0  0  0  2  0  0  0  0  0  0
  189.3210  175.1390  147.2580 C   0  0  2  0  0  3  0  0  0  0  0  0
  190.8290  175.2650  147.2550 C   0  0  0  0  0  2  0  0  0  0  0  0
  190.0730  174.9540  145.9620 C   0  0  2  0  0  3  0  0  0  0  0  0
  188.7440  176.4190  147.2650 O   0  0  0  0  0  0  0  0  0  0  0  0
  189.7450  176.1270  145.1610 N   0  0  0  0  0  0  0  0  0  0  0  0
  188.7860  176.9010  145.9430 C   0  0  1  0  0  3  0  0  0  0  0  0
  187.2540  177.9110  144.2130 C   0  0  0  0  0  2  0  0  0  0  0  0
  187.1580  176.4320  143.8720 C   0  0  0  0  0  2  0  0  0  0  0  0
  187.3850  176.8750  145.3070 C   0  0  0  0  0  0  0  0  0  0  0  0
  186.2630  176.9030  146.1430 O   0  0  0  0  0  0  0  0  0  0  0  0
  185.2410  177.1630  145.3500 O   0  0  0  0  0  0  0  0  0  0  0  0
  185.4940  179.0510  147.2140 O   0  0  0  0  0  1  0  0  0  0  0  0
  184.3440  178.3410  146.1890 S   0  0  1  0  0  0  0  0  0  0  0  0
  184.1000  179.4130  145.1390 O   0  0  0  0  0  0  0  0  0  0  0  0
  190.0320  172.8170  140.8360 C   0  0  1  0  0  3  0  0  0  0  0  0
  188.5790  173.0390  140.4270 C   0  0  0  0  0  2  0  0  0  0  0  0
  188.4750  174.1950  139.6540 O   0  0  0  0  0  1  0  0  0  0  0  0
  190.9430  173.4060  139.7590 C   0  0  0  0  0  2  0  0  0  0  0  0
  191.5120  171.6250  136.6170 C   0  0  0  0  0  1  0  0  0  0  0  0
  191.1730  172.6330  137.5820 N   0  0  0  0  0  0  0  0  0  0  0  0
  191.2880  172.3950  138.7970 N   0  0  0  0  0  0  0  0  0  0  0  0
  2  1  1  1  0  0  0
  2  4  1  0  0  0  0
  4  5  1  0  0  0  0
  4  3  1  1  0  0  0
  7  8  2  0  0  0  0
  7 17  1  0  0  0  0
  8 20  2  0  0  0  0
  9 18  1  0  0  0  0
 10 12  1  0  0  0  0
 11  7  1  0  0  0  0
 12 11  2  0  0  0  0
 12  5  1  0  0  0  0
 13 16  1  0  0  0  0
 14 19  2  0  0  0  0
 15 14  1  0  0  0  0
 15 10  2  0  0  0  0
 16  6  2  0  0  0  0
 18 22  1  0  0  0  0
 19  9  1  0  0  0  0
 19 11  1  0  0  0  0
 20  6  1  0  0  0  0
 21 13  2  0  0  0  0
 21 20  1  0  0  0  0
 22 17  1  0  0  0  0
 23  2  1  0  0  0  0
 23 24  1  0  0  0  0
 24 25  1  0  0  0  0
 25 26  1  0  0  0  0
 26 31  1  0  0  0  0
 27 28  1  1  0  0  0
 27 30  1  0  0  0  0
 29 28  1  1  0  0  0
 29 27  1  0  0  0  0
 31 32  1  0  0  0  0
 31 29  1  0  0  0  0
 32 35  1  6  0  0  0
 32 30  1  0  0  0  0
 33 35  1  0  0  0  0
 34 33  1  0  0  0  0
 34 35  1  0  0  0  0
 35 36  1  0  0  0  0
 37 36  1  0  0  0  0
 37 39  1  0  0  0  0
 39 40  2  6  0  0  0
 39 38  1  0  0  0  0
 41 44  1  6  0  0  0
 41  2  1  0  0  0  0
 42 41  1  0  0  0  0
 43 42  1  0  0  0  0
 45 46  1  0  0  0  0
 46 47  2  0  0  0  0
 47 44  1  0  0  0  0
M  END
>  <MODEL>
9

>  <REMARK>
 VINA RESULT:      -6.3      2.508      3.603
  Name = 
  16 active torsions:
  status: ('A' for Active; 'I' for Inactive)
    1  A    between atoms: O_7  and  O_32
    2  A    between atoms: O_7  and  C_47
    3  A    between atoms: C_11  and  C_27
    4  A    between atoms: C_11  and  C_29
    5  A    between atoms: C_12  and  C_24
    6  A    between atoms: C_12  and  C_43
    7  A    between atoms: C_17  and  C_20
    8  A    between atoms: C_17  and  C_26
    9  A    between atoms: C_17  and  C_43
   10  A    between atoms: C_20  and  C_29
   11  A    between atoms: N_21  and  C_27
   12  A    between atoms: C_22  and  C_26
   13  A    between atoms: C_22  and  N_45
   14  A    between atoms: C_23  and  C_47
   15  A    between atoms: C_25  and  C_26
   16  A    between atoms: O_32  and  S_42
                            x       y       z     vdW  Elec       q    Type
                         _______ _______ _______ _____ _____    ______ ____

>  <TORSDO>
F 16

$$$$
