=
 OpenBabel11062419343D

 40 45  0  0  1  0  0  0  0  0999 V2000
  186.8720  177.6410  147.4740 N   0  0  2  0  0  0  0  0  0  0  0  0
  187.6100  176.4250  147.7340 C   0  0  0  0  0  2  0  0  0  0  0  0
  188.1310  176.1310  146.3460 C   0  0  0  0  0  0  0  0  0  0  0  0
  187.7010  176.9650  145.4470 N   0  0  0  0  0  0  0  0  0  0  0  0
  185.6670  177.9590  147.9130 N   0  0  0  0  0  2  0  0  0  0  0  0
  185.7370  178.4820  145.8200 C   0  0  0  0  0  0  0  0  0  0  0  0
  184.9680  178.5230  146.9330 N   0  0  0  0  0  0  0  0  0  0  0  0
  186.9360  177.9050  146.1820 C   0  0  1  0  0  3  0  0  0  0  0  0
  185.4560  180.0120  144.0040 N   0  0  0  0  0  2  0  0  0  0  0  0
  185.2640  178.8200  144.4680 C   0  0  0  0  0  0  0  0  0  0  0  0
  184.7400  177.7650  143.5490 C   0  0  0  0  0  2  0  0  0  0  0  0
  184.7810  178.2560  142.1060 C   0  0  2  0  0  3  0  0  0  0  0  0
  181.3550  178.2590  141.1090 N   0  0  0  0  0  0  0  0  0  0  0  0
  183.4390  178.2010  141.4440 C   0  0  0  0  0  0  0  0  0  0  0  0
  183.2590  177.8690  140.1530 N   0  0  0  0  0  0  0  0  0  0  0  0
  181.9490  177.9180  139.9760 N   0  0  0  0  0  2  0  0  0  0  0  0
  182.2630  178.4420  142.0530 N   0  0  0  0  0  0  0  0  0  0  0  0
  185.8010  177.5590  141.3240 N   0  0  0  0  0  2  0  0  0  0  0  0
  189.8240  176.6020  142.5990 C   0  0  0  0  0  3  0  0  0  0  0  0
  188.8060  175.6860  142.3940 C   0  0  0  0  0  0  0  0  0  0  0  0
  188.4620  174.4190  142.4200 O   0  0  0  0  0  0  0  0  0  0  0  0
  188.1300  178.2920  141.9340 C   0  0  0  0  0  3  0  0  0  0  0  0
  187.5720  175.9990  142.0050 C   0  0  0  0  0  0  0  0  0  0  0  0
  187.1420  177.2880  141.7530 C   0  0  0  0  0  0  0  0  0  0  0  0
  189.4550  177.9500  142.3540 C   0  0  0  0  0  3  0  0  0  0  0  0
  187.2520  174.7260  142.0340 O   0  0  0  0  0  0  0  0  0  0  0  0
  188.9450  174.9310  145.9890 C   0  0  0  0  0  2  0  0  0  0  0  0
  192.4070  176.1210  147.0310 N   0  0  0  0  0  0  0  0  0  0  0  0
  191.4050  174.5790  145.5790 C   0  0  0  0  0  0  0  0  0  0  0  0
  190.4030  175.2070  146.1660 C   0  0  0  0  0  0  0  0  0  0  0  0
  192.6210  175.1040  146.0880 N   0  0  0  0  0  0  0  0  0  0  0  0
  190.9450  176.2040  147.1370 C   0  0  0  0  0  3  0  0  0  0  0  0
  191.3050  173.5130  144.5490 C   0  0  0  0  0  0  0  0  0  0  0  0
  191.7620  173.7330  143.2180 N   0  0  0  0  0  1  0  0  0  0  0  0
  190.8190  172.3900  144.8440 O   0  0  0  0  0  0  0  0  0  0  0  0
  193.9610  174.6620  145.7360 C   0  0  0  0  0  2  0  0  0  0  0  0
  194.5910  175.6510  144.7740 C   0  0  0  0  0  2  0  0  0  0  0  0
  196.0700  175.3570  144.6410 C   0  0  0  0  0  2  0  0  0  0  0  0
  196.5020  175.5960  143.2090 C   0  0  0  0  0  2  0  0  0  0  0  0
  197.0490  176.9340  143.0820 N   0  0  0  0  0  1  0  0  0  0  0  0
  1  2  1  6  0  0  0
  1  5  1  0  0  0  0
  3  2  1  0  0  0  0
  4  3  2  0  0  0  0
  6  8  1  0  0  0  0
  6  7  2  0  0  0  0
  7  5  1  0  0  0  0
  8  4  1  6  0  0  0
  8  1  1  0  0  0  0
  9 10  2  0  0  0  0
 10  6  1  0  0  0  0
 11 10  1  0  0  0  0
 12 11  1  1  0  0  0
 13 17  2  0  0  0  0
 14 17  1  0  0  0  0
 14 12  1  0  0  0  0
 15 14  2  0  0  0  0
 16 15  1  0  0  0  0
 16 13  1  0  0  0  0
 18 24  1  0  0  0  0
 18 12  1  0  0  0  0
 20 21  1  0  0  0  0
 20 19  1  0  0  0  0
 22 25  1  0  0  0  0
 23 26  1  0  0  0  0
 23 20  2  0  0  0  0
 24 22  2  0  0  0  0
 24 23  1  0  0  0  0
 25 19  2  0  0  0  0
 26 21  1  0  0  0  0
 27 30  1  0  0  0  0
 27  3  1  0  0  0  0
 28 32  2  0  0  0  0
 29 31  1  0  0  0  0
 29 30  2  0  0  0  0
 30 32  1  0  0  0  0
 31 28  1  0  0  0  0
 33 35  2  0  0  0  0
 33 29  1  0  0  0  0
 34 33  1  0  0  0  0
 36 31  1  0  0  0  0
 37 36  1  0  0  0  0
 38 37  1  0  0  0  0
 39 38  1  0  0  0  0
 40 39  1  0  0  0  0
M  END
>  <MODEL>
1

>  <REMARK>
 VINA RESULT:      -6.9      0.000      0.000
  Name = 
  13 active torsions:
  status: ('A' for Active; 'I' for Inactive)
    1  A    between atoms: C_2  and  C_5
    2  A    between atoms: C_4  and  C_10
    3  A    between atoms: C_5  and  C_14
    4  A    between atoms: C_11  and  N_15
    5  A    between atoms: C_11  and  C_20
    6  A    between atoms: C_11  and  C_36
    7  A    between atoms: C_14  and  C_28
    8  A    between atoms: N_15  and  C_27
    9  A    between atoms: C_16  and  C_18
   10  A    between atoms: C_16  and  C_21
   11  A    between atoms: N_24  and  C_28
   12  A    between atoms: C_31  and  C_35
   13  A    between atoms: C_35  and  C_36
                            x       y       z     vdW  Elec       q    Type
                         _______ _______ _______ _____ _____    ______ ____

>  <TORSDO>
F 13

$$$$
=
 OpenBabel11062419343D

 40 45  0  0  1  0  0  0  0  0999 V2000
  188.3490  173.8070  141.4370 N   0  0  2  0  0  0  0  0  0  0  0  0
  189.3620  172.8440  141.8070 C   0  0  0  0  0  2  0  0  0  0  0  0
  189.8000  173.4170  143.1360 C   0  0  0  0  0  0  0  0  0  0  0  0
  189.2160  174.5400  143.4290 N   0  0  0  0  0  0  0  0  0  0  0  0
  188.1660  174.3660  140.2550 N   0  0  0  0  0  2  0  0  0  0  0  0
  188.0060  175.9350  141.7290 C   0  0  0  0  0  0  0  0  0  0  0  0
  187.9030  175.6610  140.4070 N   0  0  0  0  0  0  0  0  0  0  0  0
  188.3050  174.7470  142.3630 C   0  0  1  0  0  3  0  0  0  0  0  0
  188.8800  178.1510  141.9320 N   0  0  0  0  0  2  0  0  0  0  0  0
  187.9890  177.2900  142.3020 C   0  0  0  0  0  0  0  0  0  0  0  0
  186.8530  177.7520  143.1550 C   0  0  0  0  0  2  0  0  0  0  0  0
  187.0980  177.3690  144.6100 C   0  0  2  0  0  3  0  0  0  0  0  0
  184.8790  178.3430  147.2290 N   0  0  0  0  0  0  0  0  0  0  0  0
  185.9870  177.8080  145.5130 C   0  0  0  0  0  0  0  0  0  0  0  0
  184.7350  178.0550  145.0880 N   0  0  0  0  0  0  0  0  0  0  0  0
  184.0700  178.3880  146.1810 N   0  0  0  0  0  0  0  0  0  0  0  0
  186.0910  177.9780  146.8440 N   0  0  0  0  0  2  0  0  0  0  0  0
  188.3990  177.8410  145.0840 N   0  0  0  0  0  2  0  0  0  0  0  0
  191.4410  175.2610  146.7640 C   0  0  0  0  0  3  0  0  0  0  0  0
  190.0830  175.1830  147.0290 C   0  0  0  0  0  0  0  0  0  0  0  0
  189.1380  174.5500  147.6850 O   0  0  0  0  0  0  0  0  0  0  0  0
  190.8140  177.1610  145.2930 C   0  0  0  0  0  3  0  0  0  0  0  0
  189.1620  175.9880  146.5040 C   0  0  0  0  0  0  0  0  0  0  0  0
  189.4400  177.0150  145.6230 C   0  0  0  0  0  0  0  0  0  0  0  0
  191.8010  176.2940  145.8600 C   0  0  0  0  0  3  0  0  0  0  0  0
  188.2340  175.3380  147.1680 O   0  0  0  0  0  0  0  0  0  0  0  0
  190.8900  172.8460  143.9810 C   0  0  0  0  0  2  0  0  0  0  0  0
  193.8610  174.7360  142.5330 N   0  0  0  0  0  0  0  0  0  0  0  0
  193.4070  172.8700  143.8780 C   0  0  0  0  0  0  0  0  0  0  0  0
  192.2250  173.3500  143.5360 C   0  0  0  0  0  0  0  0  0  0  0  0
  194.4070  173.6920  143.2950 N   0  0  0  0  0  0  0  0  0  0  0  0
  192.4100  174.5660  142.6890 C   0  0  0  0  0  3  0  0  0  0  0  0
  193.6730  171.6730  144.7140 C   0  0  0  0  0  0  0  0  0  0  0  0
  193.4500  170.3590  144.2090 N   0  0  0  0  0  1  0  0  0  0  0  0
  194.1080  171.8030  145.8880 O   0  0  0  0  0  0  0  0  0  0  0  0
  195.8450  173.5380  143.4550 C   0  0  0  0  0  2  0  0  0  0  0  0
  196.3960  174.6900  144.2730 C   0  0  0  0  0  2  0  0  0  0  0  0
  197.4210  175.4470  143.4550 C   0  0  0  0  0  2  0  0  0  0  0  0
  196.8690  176.8120  143.0980 C   0  0  0  0  0  2  0  0  0  0  0  0
  196.4380  176.8160  141.7120 N   0  0  0  0  0  1  0  0  0  0  0  0
  1  2  1  6  0  0  0
  1  8  1  0  0  0  0
  2  3  1  0  0  0  0
  3  4  2  0  0  0  0
  3 27  1  0  0  0  0
  5  7  1  0  0  0  0
  5  1  1  0  0  0  0
  6 10  1  0  0  0  0
  7  6  2  0  0  0  0
  8  6  1  6  0  0  0
  8  4  1  0  0  0  0
  9 10  2  0  0  0  0
 10 11  1  0  0  0  0
 12 11  1  6  0  0  0
 12 18  1  0  0  0  0
 12 14  1  0  0  0  0
 14 17  1  0  0  0  0
 15 14  2  0  0  0  0
 15 16  1  0  0  0  0
 16 13  2  0  0  0  0
 17 13  1  0  0  0  0
 18 24  1  0  0  0  0
 19 20  1  0  0  0  0
 20 21  1  0  0  0  0
 22 24  2  0  0  0  0
 22 25  1  0  0  0  0
 23 20  2  0  0  0  0
 23 26  1  0  0  0  0
 24 23  1  0  0  0  0
 25 19  2  0  0  0  0
 26 21  1  0  0  0  0
 28 32  2  0  0  0  0
 28 31  1  0  0  0  0
 29 33  1  0  0  0  0
 30 29  2  0  0  0  0
 30 27  1  0  0  0  0
 31 36  1  0  0  0  0
 31 29  1  0  0  0  0
 32 30  1  0  0  0  0
 33 35  2  0  0  0  0
 34 33  1  0  0  0  0
 36 37  1  0  0  0  0
 38 37  1  0  0  0  0
 39 38  1  0  0  0  0
 40 39  1  0  0  0  0
M  END
>  <MODEL>
2

>  <REMARK>
 VINA RESULT:      -6.8      2.707      4.800
  Name = 
  13 active torsions:
  status: ('A' for Active; 'I' for Inactive)
    1  A    between atoms: C_2  and  C_5
    2  A    between atoms: C_4  and  C_10
    3  A    between atoms: C_5  and  C_14
    4  A    between atoms: C_11  and  N_15
    5  A    between atoms: C_11  and  C_20
    6  A    between atoms: C_11  and  C_36
    7  A    between atoms: C_14  and  C_28
    8  A    between atoms: N_15  and  C_27
    9  A    between atoms: C_16  and  C_18
   10  A    between atoms: C_16  and  C_21
   11  A    between atoms: N_24  and  C_28
   12  A    between atoms: C_31  and  C_35
   13  A    between atoms: C_35  and  C_36
                            x       y       z     vdW  Elec       q    Type
                         _______ _______ _______ _____ _____    ______ ____

>  <TORSDO>
F 13

$$$$
=
 OpenBabel11062419343D

 40 45  0  0  1  0  0  0  0  0999 V2000
  190.5640  175.5900  146.2740 N   0  0  2  0  0  0  0  0  0  0  0  0
  190.2370  174.1960  146.4740 C   0  0  0  0  0  2  0  0  0  0  0  0
  189.9250  173.7900  145.0520 C   0  0  0  0  0  0  0  0  0  0  0  0
  189.9750  174.7800  144.2120 N   0  0  0  0  0  0  0  0  0  0  0  0
  190.1700  176.6200  147.0010 N   0  0  0  0  0  2  0  0  0  0  0  0
  189.9430  177.1840  144.9300 C   0  0  0  0  0  0  0  0  0  0  0  0
  189.8330  177.6290  146.2040 N   0  0  0  0  0  0  0  0  0  0  0  0
  190.3940  175.8830  144.9970 C   0  0  1  0  0  3  0  0  0  0  0  0
  190.2810  178.1320  142.7620 N   0  0  0  0  0  2  0  0  0  0  0  0
  189.4710  177.9210  143.7470 C   0  0  0  0  0  0  0  0  0  0  0  0
  188.0260  178.2630  143.5770 C   0  0  0  0  0  2  0  0  0  0  0  0
  187.2690  177.0740  142.9950 C   0  0  2  0  0  3  0  0  0  0  0  0
  186.0500  177.8430  139.7320 N   0  0  0  0  0  0  0  0  0  0  0  0
  186.5210  177.4260  141.7470 C   0  0  0  0  0  0  0  0  0  0  0  0
  185.2210  177.7710  141.7310 N   0  0  0  0  0  0  0  0  0  0  0  0
  184.9580  178.0220  140.4590 N   0  0  0  0  0  2  0  0  0  0  0  0
  187.0520  177.4710  140.5110 N   0  0  0  0  0  0  0  0  0  0  0  0
  186.4000  176.4450  143.9900 N   0  0  0  0  0  2  0  0  0  0  0  0
  184.9900  178.3020  147.6360 C   0  0  0  0  0  3  0  0  0  0  0  0
  184.4840  178.5330  146.3670 C   0  0  0  0  0  0  0  0  0  0  0  0
  183.5980  179.1890  145.6530 O   0  0  0  0  0  0  0  0  0  0  0  0
  186.5440  176.7430  146.4850 C   0  0  0  0  0  3  0  0  0  0  0  0
  184.9340  177.9550  145.2560 C   0  0  0  0  0  0  0  0  0  0  0  0
  185.9710  177.0420  145.2200 C   0  0  0  0  0  0  0  0  0  0  0  0
  186.0590  177.3690  147.6770 C   0  0  0  0  0  3  0  0  0  0  0  0
  184.0370  178.6180  144.5620 O   0  0  0  0  0  0  0  0  0  0  0  0
  189.4680  172.4280  144.6460 C   0  0  0  0  0  2  0  0  0  0  0  0
  191.4720  171.1210  141.6850 N   0  0  0  0  0  0  0  0  0  0  0  0
  189.4500  172.2190  142.1360 C   0  0  0  0  0  0  0  0  0  0  0  0
  190.0280  172.0550  143.3120 C   0  0  0  0  0  0  0  0  0  0  0  0
  190.2940  171.6570  141.1420 N   0  0  0  0  0  0  0  0  0  0  0  0
  191.3250  171.3370  143.1300 C   0  0  0  0  0  3  0  0  0  0  0  0
  188.1500  172.8840  141.8690 C   0  0  0  0  0  0  0  0  0  0  0  0
  188.0910  174.2500  141.4690 N   0  0  0  0  0  1  0  0  0  0  0  0
  187.0730  172.2430  141.9880 O   0  0  0  0  0  0  0  0  0  0  0  0
  190.0130  171.5890  139.7170 C   0  0  0  0  0  2  0  0  0  0  0  0
  190.9740  172.4880  138.9620 C   0  0  0  0  0  2  0  0  0  0  0  0
  190.2350  173.1910  137.8420 C   0  0  0  0  0  2  0  0  0  0  0  0
  188.7440  173.1030  138.0920 C   0  0  0  0  0  2  0  0  0  0  0  0
  188.1620  174.4310  138.0400 N   0  0  0  0  0  1  0  0  0  0  0  0
  1  2  1  1  0  0  0
  1  5  1  0  0  0  0
  3  2  1  0  0  0  0
  4  3  2  0  0  0  0
  6  8  1  0  0  0  0
  6  7  2  0  0  0  0
  7  5  1  0  0  0  0
  8  4  1  1  0  0  0
  8  1  1  0  0  0  0
  9 10  2  0  0  0  0
 10  6  1  0  0  0  0
 11 10  1  0  0  0  0
 12 11  1  1  0  0  0
 12 18  1  0  0  0  0
 13 16  1  0  0  0  0
 13 17  2  0  0  0  0
 14 12  1  0  0  0  0
 15 14  2  0  0  0  0
 16 15  1  0  0  0  0
 17 14  1  0  0  0  0
 18 24  1  0  0  0  0
 19 25  1  0  0  0  0
 20 19  2  0  0  0  0
 21 20  1  0  0  0  0
 22 25  2  0  0  0  0
 23 20  1  0  0  0  0
 24 23  2  0  0  0  0
 24 22  1  0  0  0  0
 26 23  1  0  0  0  0
 26 21  1  0  0  0  0
 27  3  1  0  0  0  0
 28 32  2  0  0  0  0
 29 30  2  0  0  0  0
 30 27  1  0  0  0  0
 31 28  1  0  0  0  0
 31 29  1  0  0  0  0
 32 30  1  0  0  0  0
 33 35  2  0  0  0  0
 33 29  1  0  0  0  0
 34 33  1  0  0  0  0
 36 31  1  0  0  0  0
 37 36  1  0  0  0  0
 38 39  1  0  0  0  0
 38 37  1  0  0  0  0
 40 39  1  0  0  0  0
M  END
>  <MODEL>
3

>  <REMARK>
 VINA RESULT:      -6.8      3.032      5.528
  Name = 
  13 active torsions:
  status: ('A' for Active; 'I' for Inactive)
    1  A    between atoms: C_2  and  C_5
    2  A    between atoms: C_4  and  C_10
    3  A    between atoms: C_5  and  C_14
    4  A    between atoms: C_11  and  N_15
    5  A    between atoms: C_11  and  C_20
    6  A    between atoms: C_11  and  C_36
    7  A    between atoms: C_14  and  C_28
    8  A    between atoms: N_15  and  C_27
    9  A    between atoms: C_16  and  C_18
   10  A    between atoms: C_16  and  C_21
   11  A    between atoms: N_24  and  C_28
   12  A    between atoms: C_31  and  C_35
   13  A    between atoms: C_35  and  C_36
                            x       y       z     vdW  Elec       q    Type
                         _______ _______ _______ _____ _____    ______ ____

>  <TORSDO>
F 13

$$$$
=
 OpenBabel11062419343D

 40 45  0  0  1  0  0  0  0  0999 V2000
  189.3550  173.4640  139.7470 N   0  0  2  0  0  0  0  0  0  0  0  0
  190.7350  173.0720  139.5680 C   0  0  0  0  0  2  0  0  0  0  0  0
  191.3330  173.6180  140.8440 C   0  0  0  0  0  0  0  0  0  0  0  0
  190.4800  174.2760  141.5710 N   0  0  0  0  0  0  0  0  0  0  0  0
  188.5500  174.0040  138.8500 N   0  0  0  0  0  2  0  0  0  0  0  0
  188.2860  175.1090  140.6850 C   0  0  0  0  0  0  0  0  0  0  0  0
  187.8460  174.9820  139.4110 N   0  0  0  0  0  0  0  0  0  0  0  0
  189.2540  174.1460  140.8730 C   0  0  1  0  0  3  0  0  0  0  0  0
  187.6390  177.3730  141.1010 N   0  0  0  0  0  2  0  0  0  0  0  0
  187.9100  176.2070  141.5900 C   0  0  0  0  0  0  0  0  0  0  0  0
  187.6490  175.9550  143.0400 C   0  0  0  0  0  2  0  0  0  0  0  0
  188.7290  176.6150  143.8910 C   0  0  2  0  0  3  0  0  0  0  0  0
  190.0570  173.8770  145.7530 N   0  0  0  0  0  0  0  0  0  0  0  0
  189.3770  175.6540  144.8390 C   0  0  0  0  0  0  0  0  0  0  0  0
  189.9760  176.0290  145.9830 N   0  0  0  0  0  0  0  0  0  0  0  0
  190.3920  174.8970  146.5280 N   0  0  0  0  0  0  0  0  0  0  0  0
  189.4150  174.3180  144.6840 N   0  0  0  0  0  2  0  0  0  0  0  0
  188.2260  177.8020  144.5810 N   0  0  0  0  0  2  0  0  0  0  0  0
  184.2470  178.3010  146.2100 C   0  0  0  0  0  3  0  0  0  0  0  0
  184.7600  178.9800  145.1160 C   0  0  0  0  0  0  0  0  0  0  0  0
  184.5240  179.8710  144.1810 O   0  0  0  0  0  0  0  0  0  0  0  0
  186.4720  177.2000  146.2830 C   0  0  0  0  0  3  0  0  0  0  0  0
  185.9890  178.8150  144.6310 C   0  0  0  0  0  0  0  0  0  0  0  0
  186.9210  177.9420  145.1580 C   0  0  0  0  0  0  0  0  0  0  0  0
  185.1510  177.3810  146.8020 C   0  0  0  0  0  3  0  0  0  0  0  0
  185.7280  179.7070  143.7030 O   0  0  0  0  0  0  0  0  0  0  0  0
  192.7830  173.5470  141.1920 C   0  0  0  0  0  2  0  0  0  0  0  0
  193.1820  172.6220  144.8630 N   0  0  0  0  0  0  0  0  0  0  0  0
  193.3140  174.4970  143.4640 C   0  0  0  0  0  0  0  0  0  0  0  0
  192.9710  173.4960  142.6750 C   0  0  0  0  0  0  0  0  0  0  0  0
  193.4570  173.9960  144.7840 N   0  0  0  0  0  0  0  0  0  0  0  0
  192.8820  172.2400  143.4770 C   0  0  0  0  0  3  0  0  0  0  0  0
  193.5110  175.9150  143.0680 C   0  0  0  0  0  0  0  0  0  0  0  0
  194.7260  176.3460  142.4610 N   0  0  0  0  0  1  0  0  0  0  0  0
  192.5980  176.7600  143.2590 O   0  0  0  0  0  0  0  0  0  0  0  0
  193.8650  174.7590  145.9530 C   0  0  0  0  0  2  0  0  0  0  0  0
  195.3060  175.2060  145.7960 C   0  0  0  0  0  2  0  0  0  0  0  0
  196.2240  174.0100  145.9360 C   0  0  0  0  0  2  0  0  0  0  0  0
  197.2900  174.0680  144.8610 C   0  0  0  0  0  2  0  0  0  0  0  0
  196.7710  173.5050  143.6290 N   0  0  0  0  0  1  0  0  0  0  0  0
  1  2  1  6  0  0  0
  1  8  1  0  0  0  0
  2  3  1  0  0  0  0
  3 27  1  0  0  0  0
  3  4  2  0  0  0  0
  5  7  1  0  0  0  0
  5  1  1  0  0  0  0
  6 10  1  0  0  0  0
  7  6  2  0  0  0  0
  8  6  1  6  0  0  0
  8  4  1  0  0  0  0
  9 10  2  0  0  0  0
 10 11  1  0  0  0  0
 12 11  1  1  0  0  0
 12 18  1  0  0  0  0
 12 14  1  0  0  0  0
 13 16  2  0  0  0  0
 14 15  2  0  0  0  0
 15 16  1  0  0  0  0
 17 14  1  0  0  0  0
 17 13  1  0  0  0  0
 18 24  1  0  0  0  0
 19 25  1  0  0  0  0
 20 19  2  0  0  0  0
 21 20  1  0  0  0  0
 22 25  2  0  0  0  0
 23 20  1  0  0  0  0
 23 24  2  0  0  0  0
 24 22  1  0  0  0  0
 26 21  1  0  0  0  0
 26 23  1  0  0  0  0
 27 30  1  0  0  0  0
 29 31  1  0  0  0  0
 30 29  2  0  0  0  0
 30 32  1  0  0  0  0
 31 28  1  0  0  0  0
 31 36  1  0  0  0  0
 32 28  2  0  0  0  0
 33 35  2  0  0  0  0
 33 29  1  0  0  0  0
 34 33  1  0  0  0  0
 37 38  1  0  0  0  0
 37 36  1  0  0  0  0
 39 38  1  0  0  0  0
 40 39  1  0  0  0  0
M  END
>  <MODEL>
4

>  <REMARK>
 VINA RESULT:      -6.8      3.059      6.159
  Name = 
  13 active torsions:
  status: ('A' for Active; 'I' for Inactive)
    1  A    between atoms: C_2  and  C_5
    2  A    between atoms: C_4  and  C_10
    3  A    between atoms: C_5  and  C_14
    4  A    between atoms: C_11  and  N_15
    5  A    between atoms: C_11  and  C_20
    6  A    between atoms: C_11  and  C_36
    7  A    between atoms: C_14  and  C_28
    8  A    between atoms: N_15  and  C_27
    9  A    between atoms: C_16  and  C_18
   10  A    between atoms: C_16  and  C_21
   11  A    between atoms: N_24  and  C_28
   12  A    between atoms: C_31  and  C_35
   13  A    between atoms: C_35  and  C_36
                            x       y       z     vdW  Elec       q    Type
                         _______ _______ _______ _____ _____    ______ ____

>  <TORSDO>
F 13

$$$$
=
 OpenBabel11062419343D

 40 45  0  0  1  0  0  0  0  0999 V2000
  189.5100  174.0360  141.4270 N   0  0  2  0  0  0  0  0  0  0  0  0
  190.8320  173.5470  141.1060 C   0  0  0  0  0  2  0  0  0  0  0  0
  191.6750  174.5340  141.8800 C   0  0  0  0  0  0  0  0  0  0  0  0
  190.9750  175.4650  142.4570 N   0  0  0  0  0  0  0  0  0  0  0  0
  188.4930  174.2030  140.6000 N   0  0  0  0  0  2  0  0  0  0  0  0
  188.5940  175.9640  141.8450 C   0  0  0  0  0  0  0  0  0  0  0  0
  187.8820  175.3530  140.8680 N   0  0  0  0  0  0  0  0  0  0  0  0
  189.6310  175.1170  142.1750 C   0  0  1  0  0  3  0  0  0  0  0  0
  189.2180  178.2690  141.9580 N   0  0  0  0  0  2  0  0  0  0  0  0
  188.3750  177.3480  142.2930 C   0  0  0  0  0  0  0  0  0  0  0  0
  187.1010  177.7480  142.9640 C   0  0  0  0  0  2  0  0  0  0  0  0
  187.0940  177.2660  144.4110 C   0  0  2  0  0  3  0  0  0  0  0  0
  184.2460  177.6990  146.5160 N   0  0  0  0  0  0  0  0  0  0  0  0
  185.8470  177.6610  145.1400 C   0  0  0  0  0  0  0  0  0  0  0  0
  185.0560  178.6810  144.7640 N   0  0  0  0  0  0  0  0  0  0  0  0
  184.0680  178.6800  145.6440 N   0  0  0  0  0  2  0  0  0  0  0  0
  185.3540  177.0370  146.2260 N   0  0  0  0  0  0  0  0  0  0  0  0
  188.2980  177.6860  145.1280 N   0  0  0  0  0  2  0  0  0  0  0  0
  191.1630  175.1320  147.1280 C   0  0  0  0  0  3  0  0  0  0  0  0
  191.4680  176.1000  146.1850 C   0  0  0  0  0  0  0  0  0  0  0  0
  192.4230  176.6960  145.5090 O   0  0  0  0  0  0  0  0  0  0  0  0
  188.8120  175.8470  146.7680 C   0  0  0  0  0  3  0  0  0  0  0  0
  190.5720  176.8750  145.5780 C   0  0  0  0  0  0  0  0  0  0  0  0
  189.2110  176.8140  145.8070 C   0  0  0  0  0  0  0  0  0  0  0  0
  189.7790  175.0150  147.4180 C   0  0  0  0  0  3  0  0  0  0  0  0
  191.5440  177.4590  144.9150 O   0  0  0  0  0  0  0  0  0  0  0  0
  193.1680  174.5480  141.8820 C   0  0  0  0  0  2  0  0  0  0  0  0
  193.8350  173.2240  145.3880 N   0  0  0  0  0  0  0  0  0  0  0  0
  194.9050  174.4540  143.7040 C   0  0  0  0  0  0  0  0  0  0  0  0
  193.6990  174.1930  143.2340 C   0  0  0  0  0  0  0  0  0  0  0  0
  195.0150  173.8740  144.9940 N   0  0  0  0  0  0  0  0  0  0  0  0
  192.9400  173.3850  144.2350 C   0  0  0  0  0  3  0  0  0  0  0  0
  195.9750  175.2290  143.0260 C   0  0  0  0  0  0  0  0  0  0  0  0
  196.0660  176.6430  143.1770 N   0  0  0  0  0  1  0  0  0  0  0  0
  196.8270  174.6420  142.3100 O   0  0  0  0  0  0  0  0  0  0  0  0
  196.1950  173.8920  145.8450 C   0  0  0  0  0  2  0  0  0  0  0  0
  196.7370  172.4830  145.9990 C   0  0  0  0  0  2  0  0  0  0  0  0
  197.5770  172.1290  144.7900 C   0  0  0  0  0  2  0  0  0  0  0  0
  197.2520  170.7170  144.3500 C   0  0  0  0  0  2  0  0  0  0  0  0
  195.8990  170.3810  144.7520 N   0  0  0  0  0  1  0  0  0  0  0  0
  1  2  1  6  0  0  0
  1  8  1  0  0  0  0
  2  3  1  0  0  0  0
  3 27  1  0  0  0  0
  3  4  2  0  0  0  0
  5  7  1  0  0  0  0
  5  1  1  0  0  0  0
  6 10  1  0  0  0  0
  7  6  2  0  0  0  0
  8  6  1  6  0  0  0
  8  4  1  0  0  0  0
  9 10  2  0  0  0  0
 10 11  1  0  0  0  0
 12 11  1  6  0  0  0
 12 18  1  0  0  0  0
 12 14  1  0  0  0  0
 14 17  1  0  0  0  0
 15 14  2  0  0  0  0
 15 16  1  0  0  0  0
 16 13  1  0  0  0  0
 17 13  2  0  0  0  0
 18 24  1  0  0  0  0
 19 25  1  0  0  0  0
 20 19  2  0  0  0  0
 21 20  1  0  0  0  0
 22 25  2  0  0  0  0
 23 24  2  0  0  0  0
 23 20  1  0  0  0  0
 24 22  1  0  0  0  0
 26 21  1  0  0  0  0
 26 23  1  0  0  0  0
 27 30  1  0  0  0  0
 29 31  1  0  0  0  0
 30 29  2  0  0  0  0
 30 32  1  0  0  0  0
 31 28  1  0  0  0  0
 31 36  1  0  0  0  0
 32 28  2  0  0  0  0
 33 34  1  0  0  0  0
 33 29  1  0  0  0  0
 35 33  2  0  0  0  0
 36 37  1  0  0  0  0
 38 37  1  0  0  0  0
 39 40  1  0  0  0  0
 39 38  1  0  0  0  0
M  END
>  <MODEL>
5

>  <REMARK>
 VINA RESULT:      -6.8      2.796      5.324
  Name = 
  13 active torsions:
  status: ('A' for Active; 'I' for Inactive)
    1  A    between atoms: C_2  and  C_5
    2  A    between atoms: C_4  and  C_10
    3  A    between atoms: C_5  and  C_14
    4  A    between atoms: C_11  and  N_15
    5  A    between atoms: C_11  and  C_20
    6  A    between atoms: C_11  and  C_36
    7  A    between atoms: C_14  and  C_28
    8  A    between atoms: N_15  and  C_27
    9  A    between atoms: C_16  and  C_18
   10  A    between atoms: C_16  and  C_21
   11  A    between atoms: N_24  and  C_28
   12  A    between atoms: C_31  and  C_35
   13  A    between atoms: C_35  and  C_36
                            x       y       z     vdW  Elec       q    Type
                         _______ _______ _______ _____ _____    ______ ____

>  <TORSDO>
F 13

$$$$
=
 OpenBabel11062419343D

 40 45  0  0  1  0  0  0  0  0999 V2000
  190.5730  175.5990  147.0180 N   0  0  2  0  0  0  0  0  0  0  0  0
  191.8710  175.4180  147.6270 C   0  0  0  0  0  2  0  0  0  0  0  0
  192.7610  175.8840  146.4980 C   0  0  0  0  0  0  0  0  0  0  0  0
  192.1050  176.1870  145.4180 N   0  0  0  0  0  0  0  0  0  0  0  0
  189.5490  174.7640  147.0450 N   0  0  0  0  0  2  0  0  0  0  0  0
  189.7340  175.4750  145.0150 C   0  0  0  0  0  0  0  0  0  0  0  0
  188.9840  174.7080  145.8420 N   0  0  0  0  0  0  0  0  0  0  0  0
  190.7450  176.0190  145.7770 C   0  0  1  0  0  3  0  0  0  0  0  0
  189.5720  174.4260  142.8720 N   0  0  0  0  0  2  0  0  0  0  0  0
  189.5720  175.5250  143.5530 C   0  0  0  0  0  0  0  0  0  0  0  0
  189.2150  176.8010  142.8610 C   0  0  0  0  0  2  0  0  0  0  0  0
  187.7320  177.1030  143.0470 C   0  0  2  0  0  3  0  0  0  0  0  0
  185.6210  177.9600  140.3020 N   0  0  0  0  0  0  0  0  0  0  0  0
  187.0260  177.3310  141.7470 C   0  0  0  0  0  0  0  0  0  0  0  0
  187.4390  176.8160  140.5750 N   0  0  0  0  0  0  0  0  0  0  0  0
  186.5430  177.2290  139.6940 N   0  0  0  0  0  0  0  0  0  0  0  0
  185.8930  178.0420  141.5940 N   0  0  0  0  0  2  0  0  0  0  0  0
  187.5170  178.2080  143.9820 N   0  0  0  0  0  2  0  0  0  0  0  0
  184.9840  178.0720  147.4880 C   0  0  0  0  0  3  0  0  0  0  0  0
  184.6070  178.5410  146.2410 C   0  0  0  0  0  0  0  0  0  0  0  0
  183.6370  179.0570  145.5210 O   0  0  0  0  0  0  0  0  0  0  0  0
  187.1830  177.6480  146.4130 C   0  0  0  0  0  3  0  0  0  0  0  0
  185.4020  178.5790  145.1740 C   0  0  0  0  0  0  0  0  0  0  0  0
  186.7160  178.1530  145.1700 C   0  0  0  0  0  0  0  0  0  0  0  0
  186.3250  177.6110  147.5580 C   0  0  0  0  0  3  0  0  0  0  0  0
  184.4160  179.0900  144.4730 O   0  0  0  0  0  0  0  0  0  0  0  0
  194.2540  175.8740  146.5430 C   0  0  0  0  0  2  0  0  0  0  0  0
  195.8570  176.0180  143.0940 N   0  0  0  0  0  0  0  0  0  0  0  0
  195.0270  174.4440  144.6190 C   0  0  0  0  0  0  0  0  0  0  0  0
  194.8240  175.6190  145.1850 C   0  0  0  0  0  0  0  0  0  0  0  0
  195.6560  174.6560  143.3650 N   0  0  0  0  0  0  0  0  0  0  0  0
  195.3450  176.6970  144.2910 C   0  0  0  0  0  3  0  0  0  0  0  0
  194.6590  173.1150  145.1710 C   0  0  0  0  0  0  0  0  0  0  0  0
  195.6470  172.2510  145.7240 N   0  0  0  0  0  1  0  0  0  0  0  0
  193.4590  172.7350  145.1640 O   0  0  0  0  0  0  0  0  0  0  0  0
  196.0900  173.6230  142.4370 C   0  0  0  0  0  2  0  0  0  0  0  0
  197.5550  173.8240  142.0960 C   0  0  0  0  0  2  0  0  0  0  0  0
  197.8100  173.3740  140.6730 C   0  0  0  0  0  2  0  0  0  0  0  0
  197.1600  174.3500  139.7140 C   0  0  0  0  0  2  0  0  0  0  0  0
  197.7460  175.6660  139.8870 N   0  0  0  0  0  1  0  0  0  0  0  0
  1  5  1  0  0  0  0
  1  2  1  6  0  0  0
  3 27  1  0  0  0  0
  3  2  1  0  0  0  0
  4  8  1  0  0  0  0
  4  3  2  0  0  0  0
  6  7  2  0  0  0  0
  7  5  1  0  0  0  0
  8  6  1  6  0  0  0
  8  1  1  0  0  0  0
  9 10  2  0  0  0  0
 10  6  1  0  0  0  0
 11 10  1  0  0  0  0
 12 11  1  6  0  0  0
 12 18  1  0  0  0  0
 13 17  1  0  0  0  0
 14 12  1  0  0  0  0
 15 14  2  0  0  0  0
 16 13  2  0  0  0  0
 16 15  1  0  0  0  0
 17 14  1  0  0  0  0
 18 24  1  0  0  0  0
 19 25  1  0  0  0  0
 20 19  2  0  0  0  0
 21 20  1  0  0  0  0
 22 25  2  0  0  0  0
 23 20  1  0  0  0  0
 24 23  2  0  0  0  0
 24 22  1  0  0  0  0
 26 23  1  0  0  0  0
 26 21  1  0  0  0  0
 28 31  1  0  0  0  0
 28 32  2  0  0  0  0
 29 33  1  0  0  0  0
 29 30  2  0  0  0  0
 30 27  1  0  0  0  0
 31 29  1  0  0  0  0
 32 30  1  0  0  0  0
 33 34  1  0  0  0  0
 35 33  2  0  0  0  0
 36 31  1  0  0  0  0
 37 36  1  0  0  0  0
 38 37  1  0  0  0  0
 39 40  1  0  0  0  0
 39 38  1  0  0  0  0
M  END
>  <MODEL>
6

>  <REMARK>
 VINA RESULT:      -6.6      2.544      4.804
  Name = 
  13 active torsions:
  status: ('A' for Active; 'I' for Inactive)
    1  A    between atoms: C_2  and  C_5
    2  A    between atoms: C_4  and  C_10
    3  A    between atoms: C_5  and  C_14
    4  A    between atoms: C_11  and  N_15
    5  A    between atoms: C_11  and  C_20
    6  A    between atoms: C_11  and  C_36
    7  A    between atoms: C_14  and  C_28
    8  A    between atoms: N_15  and  C_27
    9  A    between atoms: C_16  and  C_18
   10  A    between atoms: C_16  and  C_21
   11  A    between atoms: N_24  and  C_28
   12  A    between atoms: C_31  and  C_35
   13  A    between atoms: C_35  and  C_36
                            x       y       z     vdW  Elec       q    Type
                         _______ _______ _______ _____ _____    ______ ____

>  <TORSDO>
F 13

$$$$
=
 OpenBabel11062419343D

 40 45  0  0  1  0  0  0  0  0999 V2000
  190.9610  173.7300  141.2780 N   0  0  2  0  0  0  0  0  0  0  0  0
  192.3530  174.0590  141.0660 C   0  0  0  0  0  2  0  0  0  0  0  0
  192.4970  175.2250  142.0170 C   0  0  0  0  0  0  0  0  0  0  0  0
  191.3820  175.5570  142.5960 N   0  0  0  0  0  0  0  0  0  0  0  0
  190.0520  173.4490  140.3610 N   0  0  0  0  0  2  0  0  0  0  0  0
  189.1360  174.8070  141.7670 C   0  0  0  0  0  0  0  0  0  0  0  0
  188.9090  174.0560  140.6630 N   0  0  0  0  0  0  0  0  0  0  0  0
  190.4490  174.5970  142.1320 C   0  0  1  0  0  3  0  0  0  0  0  0
  187.4840  176.5160  141.5060 N   0  0  0  0  0  2  0  0  0  0  0  0
  188.1880  175.7910  142.3130 C   0  0  0  0  0  0  0  0  0  0  0  0
  187.8830  175.8370  143.7750 C   0  0  0  0  0  2  0  0  0  0  0  0
  188.8090  176.8260  144.4750 C   0  0  2  0  0  3  0  0  0  0  0  0
  190.6710  175.9240  147.3820 N   0  0  0  0  0  0  0  0  0  0  0  0
  189.3950  176.2690  145.7350 C   0  0  0  0  0  0  0  0  0  0  0  0
  188.8650  175.2320  146.4080 N   0  0  0  0  0  0  0  0  0  0  0  0
  189.6830  175.0440  147.4300 N   0  0  0  0  0  0  0  0  0  0  0  0
  190.5220  176.7080  146.3270 N   0  0  0  0  0  2  0  0  0  0  0  0
  188.1540  178.1140  144.7050 N   0  0  0  0  0  2  0  0  0  0  0  0
  184.0490  178.6630  145.9600 C   0  0  0  0  0  3  0  0  0  0  0  0
  185.1040  178.3160  146.7880 C   0  0  0  0  0  0  0  0  0  0  0  0
  185.4740  178.0290  148.0150 O   0  0  0  0  0  0  0  0  0  0  0  0
  185.7590  178.6610  144.1590 C   0  0  0  0  0  3  0  0  0  0  0  0
  186.3610  178.1480  146.3830 C   0  0  0  0  0  0  0  0  0  0  0  0
  186.7810  178.2970  145.0750 C   0  0  0  0  0  0  0  0  0  0  0  0
  184.4090  178.8390  144.5990 C   0  0  0  0  0  3  0  0  0  0  0  0
  186.7080  177.8680  147.6180 O   0  0  0  0  0  0  0  0  0  0  0  0
  193.7480  176.0210  142.1900 C   0  0  0  0  0  2  0  0  0  0  0  0
  196.7980  173.9080  143.0430 N   0  0  0  0  0  0  0  0  0  0  0  0
  194.9840  174.9450  144.1040 C   0  0  0  0  0  0  0  0  0  0  0  0
  194.8230  175.1910  142.8170 C   0  0  0  0  0  0  0  0  0  0  0  0
  196.1700  174.1830  144.2670 N   0  0  0  0  0  0  0  0  0  0  0  0
  195.9520  174.5850  142.0510 C   0  0  0  0  0  3  0  0  0  0  0  0
  194.0870  175.3690  145.2100 C   0  0  0  0  0  0  0  0  0  0  0  0
  194.1990  176.6650  145.7900 N   0  0  0  0  0  1  0  0  0  0  0  0
  193.2060  174.5850  145.6480 O   0  0  0  0  0  0  0  0  0  0  0  0
  196.7340  173.7350  145.5300 C   0  0  0  0  0  2  0  0  0  0  0  0
  197.1900  172.2930  145.4040 C   0  0  0  0  0  2  0  0  0  0  0  0
  196.1110  171.3730  145.9360 C   0  0  0  0  0  2  0  0  0  0  0  0
  195.4120  170.6970  144.7740 C   0  0  0  0  0  2  0  0  0  0  0  0
  194.0600  171.2090  144.6550 N   0  0  0  0  0  1  0  0  0  0  0  0
  1  2  1  6  0  0  0
  1  8  1  0  0  0  0
  2  3  1  0  0  0  0
  3 27  1  0  0  0  0
  3  4  2  0  0  0  0
  5  7  1  0  0  0  0
  5  1  1  0  0  0  0
  6 10  1  0  0  0  0
  7  6  2  0  0  0  0
  8  6  1  6  0  0  0
  8  4  1  0  0  0  0
  9 10  2  0  0  0  0
 10 11  1  0  0  0  0
 12 11  1  1  0  0  0
 12 18  1  0  0  0  0
 12 14  1  0  0  0  0
 13 16  2  0  0  0  0
 14 17  1  0  0  0  0
 14 15  2  0  0  0  0
 15 16  1  0  0  0  0
 17 13  1  0  0  0  0
 18 24  1  0  0  0  0
 19 20  1  0  0  0  0
 20 21  1  0  0  0  0
 22 25  1  0  0  0  0
 22 24  2  0  0  0  0
 23 20  2  0  0  0  0
 23 26  1  0  0  0  0
 24 23  1  0  0  0  0
 25 19  2  0  0  0  0
 26 21  1  0  0  0  0
 27 30  1  0  0  0  0
 28 31  1  0  0  0  0
 29 31  1  0  0  0  0
 29 33  1  0  0  0  0
 30 29  2  0  0  0  0
 31 36  1  0  0  0  0
 32 30  1  0  0  0  0
 32 28  2  0  0  0  0
 33 35  2  0  0  0  0
 33 34  1  0  0  0  0
 37 36  1  0  0  0  0
 37 38  1  0  0  0  0
 39 38  1  0  0  0  0
 40 39  1  0  0  0  0
M  END
>  <MODEL>
7

>  <REMARK>
 VINA RESULT:      -6.6      3.051      6.433
  Name = 
  13 active torsions:
  status: ('A' for Active; 'I' for Inactive)
    1  A    between atoms: C_2  and  C_5
    2  A    between atoms: C_4  and  C_10
    3  A    between atoms: C_5  and  C_14
    4  A    between atoms: C_11  and  N_15
    5  A    between atoms: C_11  and  C_20
    6  A    between atoms: C_11  and  C_36
    7  A    between atoms: C_14  and  C_28
    8  A    between atoms: N_15  and  C_27
    9  A    between atoms: C_16  and  C_18
   10  A    between atoms: C_16  and  C_21
   11  A    between atoms: N_24  and  C_28
   12  A    between atoms: C_31  and  C_35
   13  A    between atoms: C_35  and  C_36
                            x       y       z     vdW  Elec       q    Type
                         _______ _______ _______ _____ _____    ______ ____

>  <TORSDO>
F 13

$$$$
=
 OpenBabel11062419343D

 40 45  0  0  1  0  0  0  0  0999 V2000
  191.1980  175.9300  146.4730 N   0  0  2  0  0  0  0  0  0  0  0  0
  192.5930  175.9320  146.8540 C   0  0  0  0  0  2  0  0  0  0  0  0
  193.1910  176.6480  145.6640 C   0  0  0  0  0  0  0  0  0  0  0  0
  192.3210  176.9220  144.7390 N   0  0  0  0  0  0  0  0  0  0  0  0
  190.3430  174.9260  146.5580 N   0  0  0  0  0  2  0  0  0  0  0  0
  190.0630  175.8340  144.6200 C   0  0  0  0  0  0  0  0  0  0  0  0
  189.6000  174.8760  145.4570 N   0  0  0  0  0  0  0  0  0  0  0  0
  191.0870  176.4820  145.2780 C   0  0  1  0  0  3  0  0  0  0  0  0
  189.5490  174.9350  142.4650 N   0  0  0  0  0  2  0  0  0  0  0  0
  189.6500  175.9830  143.2160 C   0  0  0  0  0  0  0  0  0  0  0  0
  189.1600  177.2940  142.6920 C   0  0  0  0  0  2  0  0  0  0  0  0
  187.6500  177.4030  142.8760 C   0  0  2  0  0  3  0  0  0  0  0  0
  185.5140  178.0500  140.0930 N   0  0  0  0  0  0  0  0  0  0  0  0
  186.9200  177.5130  141.5740 C   0  0  0  0  0  0  0  0  0  0  0  0
  187.2620  176.8270  140.4690 N   0  0  0  0  0  0  0  0  0  0  0  0
  186.3670  177.1860  139.5630 N   0  0  0  0  0  2  0  0  0  0  0  0
  185.8320  178.2750  141.3570 N   0  0  0  0  0  0  0  0  0  0  0  0
  187.2920  178.4870  143.7920 N   0  0  0  0  0  2  0  0  0  0  0  0
  184.3000  178.2430  146.9090 C   0  0  0  0  0  3  0  0  0  0  0  0
  185.5220  177.5890  146.9130 C   0  0  0  0  0  0  0  0  0  0  0  0
  186.3190  176.7800  147.5710 O   0  0  0  0  0  0  0  0  0  0  0  0
  185.0430  179.1380  144.7140 C   0  0  0  0  0  3  0  0  0  0  0  0
  186.4290  177.6740  145.9430 C   0  0  0  0  0  0  0  0  0  0  0  0
  186.2700  178.4280  144.7960 C   0  0  0  0  0  0  0  0  0  0  0  0
  184.0700  179.0430  145.7600 C   0  0  0  0  0  3  0  0  0  0  0  0
  187.2110  176.8660  146.6200 O   0  0  0  0  0  0  0  0  0  0  0  0
  194.6500  176.9020  145.4810 C   0  0  0  0  0  2  0  0  0  0  0  0
  196.3680  173.5180  145.1840 N   0  0  0  0  0  0  0  0  0  0  0  0
  195.6510  175.2890  143.8260 C   0  0  0  0  0  0  0  0  0  0  0  0
  195.3580  175.6550  145.0600 C   0  0  0  0  0  0  0  0  0  0  0  0
  196.2510  174.0030  143.8720 N   0  0  0  0  0  0  0  0  0  0  0  0
  195.7600  174.5720  146.0070 C   0  0  0  0  0  3  0  0  0  0  0  0
  195.4170  176.0720  142.5860 C   0  0  0  0  0  0  0  0  0  0  0  0
  194.1560  176.0410  141.9250 N   0  0  0  0  0  1  0  0  0  0  0  0
  196.3350  176.7850  142.1030 O   0  0  0  0  0  0  0  0  0  0  0  0
  196.6880  173.2180  142.7290 C   0  0  0  0  0  2  0  0  0  0  0  0
  195.6870  172.1120  142.4540 C   0  0  0  0  0  2  0  0  0  0  0  0
  194.7370  172.5490  141.3590 C   0  0  0  0  0  2  0  0  0  0  0  0
  194.7200  171.5040  140.2630 C   0  0  0  0  0  2  0  0  0  0  0  0
  195.6100  170.4130  140.6160 N   0  0  0  0  0  1  0  0  0  0  0  0
  1  5  1  0  0  0  0
  1  2  1  6  0  0  0
  3  2  1  0  0  0  0
  4  8  1  0  0  0  0
  4  3  2  0  0  0  0
  6  7  2  0  0  0  0
  7  5  1  0  0  0  0
  8  6  1  6  0  0  0
  8  1  1  0  0  0  0
  9 10  2  0  0  0  0
 10  6  1  0  0  0  0
 11 10  1  0  0  0  0
 12 11  1  6  0  0  0
 12 18  1  0  0  0  0
 13 17  2  0  0  0  0
 14 12  1  0  0  0  0
 15 14  2  0  0  0  0
 16 13  1  0  0  0  0
 16 15  1  0  0  0  0
 17 14  1  0  0  0  0
 18 24  1  0  0  0  0
 19 20  1  0  0  0  0
 20 21  1  0  0  0  0
 22 24  2  0  0  0  0
 22 25  1  0  0  0  0
 23 26  1  0  0  0  0
 23 20  2  0  0  0  0
 24 23  1  0  0  0  0
 25 19  2  0  0  0  0
 26 21  1  0  0  0  0
 27  3  1  0  0  0  0
 28 32  2  0  0  0  0
 29 31  1  0  0  0  0
 29 30  2  0  0  0  0
 30 27  1  0  0  0  0
 30 32  1  0  0  0  0
 31 28  1  0  0  0  0
 33 29  1  0  0  0  0
 34 33  1  0  0  0  0
 35 33  2  0  0  0  0
 36 31  1  0  0  0  0
 37 36  1  0  0  0  0
 38 37  1  0  0  0  0
 39 40  1  0  0  0  0
 39 38  1  0  0  0  0
M  END
>  <MODEL>
8

>  <REMARK>
 VINA RESULT:      -6.6      2.859      5.097
  Name = 
  13 active torsions:
  status: ('A' for Active; 'I' for Inactive)
    1  A    between atoms: C_2  and  C_5
    2  A    between atoms: C_4  and  C_10
    3  A    between atoms: C_5  and  C_14
    4  A    between atoms: C_11  and  N_15
    5  A    between atoms: C_11  and  C_20
    6  A    between atoms: C_11  and  C_36
    7  A    between atoms: C_14  and  C_28
    8  A    between atoms: N_15  and  C_27
    9  A    between atoms: C_16  and  C_18
   10  A    between atoms: C_16  and  C_21
   11  A    between atoms: N_24  and  C_28
   12  A    between atoms: C_31  and  C_35
   13  A    between atoms: C_35  and  C_36
                            x       y       z     vdW  Elec       q    Type
                         _______ _______ _______ _____ _____    ______ ____

>  <TORSDO>
F 13

$$$$
=
 OpenBabel11062419343D

 40 45  0  0  1  0  0  0  0  0999 V2000
  190.5440  174.7920  145.8690 N   0  0  2  0  0  0  0  0  0  0  0  0
  190.1240  173.4110  145.7890 C   0  0  0  0  0  2  0  0  0  0  0  0
  189.8340  173.3070  144.3090 C   0  0  0  0  0  0  0  0  0  0  0  0
  189.9720  174.4350  143.6780 N   0  0  0  0  0  0  0  0  0  0  0  0
  190.1920  175.6870  146.7750 N   0  0  0  0  0  2  0  0  0  0  0  0
  190.0660  176.6530  144.8480 C   0  0  0  0  0  0  0  0  0  0  0  0
  189.9440  176.8510  146.1820 N   0  0  0  0  0  0  0  0  0  0  0  0
  190.4330  175.3350  144.6700 C   0  0  1  0  0  3  0  0  0  0  0  0
  190.5620  178.0540  142.9750 N   0  0  0  0  0  2  0  0  0  0  0  0
  189.6800  177.6340  143.8220 C   0  0  0  0  0  0  0  0  0  0  0  0
  188.2480  178.0090  143.6160 C   0  0  0  0  0  2  0  0  0  0  0  0
  187.4790  176.8390  143.0140 C   0  0  2  0  0  3  0  0  0  0  0  0
  185.6570  177.9110  140.1390 N   0  0  0  0  0  0  0  0  0  0  0  0
  186.9050  177.1610  141.6690 C   0  0  0  0  0  0  0  0  0  0  0  0
  187.4170  176.7050  140.5120 N   0  0  0  0  0  0  0  0  0  0  0  0
  186.6180  177.1930  139.5780 N   0  0  0  0  0  0  0  0  0  0  0  0
  185.8070  177.9090  141.4530 N   0  0  0  0  0  2  0  0  0  0  0  0
  186.4590  176.3310  143.9310 N   0  0  0  0  0  2  0  0  0  0  0  0
  184.8930  178.4210  147.3820 C   0  0  0  0  0  3  0  0  0  0  0  0
  184.4490  178.5740  146.0790 C   0  0  0  0  0  0  0  0  0  0  0  0
  183.6030  179.1870  145.2830 O   0  0  0  0  0  0  0  0  0  0  0  0
  186.4870  176.7850  146.4060 C   0  0  0  0  0  3  0  0  0  0  0  0
  184.9460  177.9240  145.0280 C   0  0  0  0  0  0  0  0  0  0  0  0
  185.9760  177.0070  145.1000 C   0  0  0  0  0  0  0  0  0  0  0  0
  185.9510  177.4870  147.5330 C   0  0  0  0  0  3  0  0  0  0  0  0
  184.0880  178.5470  144.2530 O   0  0  0  0  0  0  0  0  0  0  0  0
  189.3050  172.0830  143.6380 C   0  0  0  0  0  2  0  0  0  0  0  0
  188.1800  173.0450  140.1310 N   0  0  0  0  0  0  0  0  0  0  0  0
  190.0130  172.0730  141.2210 C   0  0  0  0  0  0  0  0  0  0  0  0
  189.1300  172.3150  142.1720 C   0  0  0  0  0  0  0  0  0  0  0  0
  189.4700  172.5120  139.9850 N   0  0  0  0  0  0  0  0  0  0  0  0
  187.9230  172.9620  141.5750 C   0  0  0  0  0  3  0  0  0  0  0  0
  191.3470  171.4400  141.3850 C   0  0  0  0  0  0  0  0  0  0  0  0
  192.5100  172.2290  141.6200 N   0  0  0  0  0  1  0  0  0  0  0  0
  191.4670  170.1890  141.3250 O   0  0  0  0  0  0  0  0  0  0  0  0
  190.1330  172.4660  138.6910 C   0  0  0  0  0  2  0  0  0  0  0  0
  189.7190  171.2110  137.9470 C   0  0  0  0  0  2  0  0  0  0  0  0
  190.9520  170.4150  137.5720 C   0  0  0  0  0  2  0  0  0  0  0  0
  191.5410  170.9770  136.2940 C   0  0  0  0  0  2  0  0  0  0  0  0
  191.0790  170.1970  135.1620 N   0  0  0  0  0  1  0  0  0  0  0  0
  1  2  1  6  0  0  0
  1  5  1  0  0  0  0
  3  2  1  0  0  0  0
  4  3  2  0  0  0  0
  6  7  2  0  0  0  0
  7  5  1  0  0  0  0
  8  4  1  6  0  0  0
  8  6  1  0  0  0  0
  8  1  1  0  0  0  0
  9 10  2  0  0  0  0
 10  6  1  0  0  0  0
 11 10  1  0  0  0  0
 12 11  1  1  0  0  0
 12 18  1  0  0  0  0
 13 17  1  0  0  0  0
 14 12  1  0  0  0  0
 15 14  2  0  0  0  0
 16 13  2  0  0  0  0
 16 15  1  0  0  0  0
 17 14  1  0  0  0  0
 18 24  1  0  0  0  0
 19 25  1  0  0  0  0
 20 19  2  0  0  0  0
 21 20  1  0  0  0  0
 22 25  2  0  0  0  0
 23 24  2  0  0  0  0
 23 20  1  0  0  0  0
 24 22  1  0  0  0  0
 26 23  1  0  0  0  0
 26 21  1  0  0  0  0
 27  3  1  0  0  0  0
 28 32  2  0  0  0  0
 29 33  1  0  0  0  0
 29 30  2  0  0  0  0
 30 27  1  0  0  0  0
 31 28  1  0  0  0  0
 31 29  1  0  0  0  0
 32 30  1  0  0  0  0
 33 34  1  0  0  0  0
 35 33  2  0  0  0  0
 36 31  1  0  0  0  0
 37 36  1  0  0  0  0
 38 37  1  0  0  0  0
 39 38  1  0  0  0  0
 40 39  1  0  0  0  0
M  END
>  <MODEL>
9

>  <REMARK>
 VINA RESULT:      -6.5      3.673      5.908
  Name = 
  13 active torsions:
  status: ('A' for Active; 'I' for Inactive)
    1  A    between atoms: C_2  and  C_5
    2  A    between atoms: C_4  and  C_10
    3  A    between atoms: C_5  and  C_14
    4  A    between atoms: C_11  and  N_15
    5  A    between atoms: C_11  and  C_20
    6  A    between atoms: C_11  and  C_36
    7  A    between atoms: C_14  and  C_28
    8  A    between atoms: N_15  and  C_27
    9  A    between atoms: C_16  and  C_18
   10  A    between atoms: C_16  and  C_21
   11  A    between atoms: N_24  and  C_28
   12  A    between atoms: C_31  and  C_35
   13  A    between atoms: C_35  and  C_36
                            x       y       z     vdW  Elec       q    Type
                         _______ _______ _______ _____ _____    ______ ____

>  <TORSDO>
F 13

$$$$
