=
 OpenBabel11062422273D

 36 39  0  0  1  0  0  0  0  0999 V2000
  190.8950  174.1710  141.3030 C   0  0  0  0  0  0  0  0  0  0  0  0
  188.5900  175.1380  143.3090 C   0  0  2  0  0  3  0  0  0  0  0  0
  190.9600  175.1090  142.4550 C   0  0  2  0  0  3  0  0  0  0  0  0
  189.8040  173.6980  140.7720 N   0  0  0  0  0  0  0  0  0  0  0  0
  192.4200  175.0290  142.8690 C   0  0  1  0  0  3  0  0  0  0  0  0
  188.4440  173.8900  141.2900 C   0  0  0  0  0  2  0  0  0  0  0  0
  192.1750  173.8180  140.8190 N   0  0  0  0  0  2  0  0  0  0  0  0
  190.0320  174.6750  143.5800 C   0  0  0  0  0  2  0  0  0  0  0  0
  193.1850  174.4550  141.6510 C   0  0  1  0  0  0  0  0  0  0  0  0
  188.2780  175.2160  141.8760 N   0  0  0  0  0  2  0  0  0  0  0  0
  193.8110  175.4710  140.9180 O   0  0  0  0  0  1  0  0  0  0  0  0
  187.1070  177.1340  143.7770 N   0  0  0  0  0  2  0  0  0  0  0  0
  188.3610  176.4670  143.9480 C   0  0  0  0  0  0  0  0  0  0  0  0
  189.2890  177.0040  144.6110 O   0  0  0  0  0  0  0  0  0  0  0  0
  183.9860  178.3580  144.5310 O   0  0  0  0  0  0  0  0  0  0  0  0
  185.7960  180.5480  143.7800 F   0  0  0  0  0  0  0  0  0  0  0  0
  185.9370  179.2410  143.3510 C   0  0  2  0  0  3  0  0  0  0  0  0
  184.5680  178.5710  143.2450 C   0  0  0  0  0  2  0  0  0  0  0  0
  184.1830  177.5920  146.6850 O   0  0  0  0  0  0  0  0  0  0  0  0
  186.8370  178.4610  144.3120 C   0  0  1  0  0  3  0  0  0  0  0  0
  186.2160  178.3640  145.7080 C   0  0  0  0  0  2  0  0  0  0  0  0
  184.7500  178.0490  145.6610 C   0  0  0  0  0  0  0  0  0  0  0  0
  194.2060  173.4270  142.1390 C   0  0  0  0  0  2  0  0  0  0  0  0
  193.6290  172.0170  142.2430 C   0  0  0  0  0  2  0  0  0  0  0  0
  192.0450  171.5500  144.1190 C   0  0  0  0  0  1  0  0  0  0  0  0
  193.5030  171.5730  143.6930 C   0  0  0  0  0  2  0  0  0  0  0  0
  192.9180  176.3940  143.3390 C   0  0  0  0  0  2  0  0  0  0  0  0
  193.3600  174.9170  145.3010 C   0  0  2  0  0  3  0  0  0  0  0  0
  193.7050  176.2630  144.6320 C   0  0  1  0  0  3  0  0  0  0  0  0
  191.9950  175.1260  146.4260 Cl  0  0  0  0  0  0  0  0  0  0  0  0
  197.3090  175.4060  144.0280 F   0  0  0  0  0  0  0  0  0  0  0  0
  195.2070  176.4760  144.3510 C   0  0  0  0  0  2  0  0  0  0  0  0
  195.9660  175.1560  144.2410 C   0  0  2  0  0  3  0  0  0  0  0  0
  194.5240  174.2890  146.0210 C   0  0  0  0  0  3  0  0  0  0  0  0
  197.1040  173.6430  146.3700 Cl  0  0  0  0  0  0  0  0  0  0  0  0
  195.7550  174.3690  145.5060 C   0  0  0  0  0  0  0  0  0  0  0  0
  1  3  1  0  0  0  0
  2  8  1  0  0  0  0
  2 13  1  6  0  0  0
  3  5  1  0  0  0  0
  3  8  1  1  0  0  0
  4  6  1  0  0  0  0
  4  1  2  0  0  0  0
  5 27  1  6  0  0  0
  6 10  1  0  0  0  0
  7  1  1  0  0  0  0
  7  9  1  0  0  0  0
  9 11  1  6  0  0  0
  9 23  1  0  0  0  0
  9  5  1  0  0  0  0
 10  2  1  0  0  0  0
 12 13  1  0  0  0  0
 13 14  2  0  0  0  0
 15 22  1  0  0  0  0
 17 16  1  1  0  0  0
 17 20  1  0  0  0  0
 18 17  1  0  0  0  0
 18 15  1  0  0  0  0
 20 12  1  6  0  0  0
 20 21  1  0  0  0  0
 22 21  1  0  0  0  0
 22 19  2  0  0  0  0
 23 24  1  0  0  0  0
 24 26  1  0  0  0  0
 26 25  1  0  0  0  0
 28 34  1  0  0  0  0
 28 30  1  1  0  0  0
 29 27  1  6  0  0  0
 29 28  1  0  0  0  0
 32 29  1  0  0  0  0
 33 31  1  1  0  0  0
 33 32  1  0  0  0  0
 33 36  1  0  0  0  0
 36 34  2  0  0  0  0
 36 35  1  0  0  0  0
M  END
>  <MODEL>
1

>  <REMARK>
 VINA RESULT:      -7.3      0.000      0.000
  Name = 
  7 active torsions:
  status: ('A' for Active; 'I' for Inactive)
    1  A    between atoms: C_3  and  C_16
    2  A    between atoms: C_6  and  C_23
    3  A    between atoms: C_6  and  C_28
    4  A    between atoms: N_8  and  C_20
    5  A    between atoms: C_9  and  C_31
    6  A    between atoms: C_18  and  C_31
    7  A    between atoms: C_28  and  C_30
                            x       y       z     vdW  Elec       q    Type
                         _______ _______ _______ _____ _____    ______ ____

>  <TORSDO>
F 7

$$$$
=
 OpenBabel11062422273D

 36 39  0  0  1  0  0  0  0  0999 V2000
  192.7820  175.4640  146.3850 C   0  0  0  0  0  0  0  0  0  0  0  0
  190.0050  177.0330  146.6920 C   0  0  2  0  0  3  0  0  0  0  0  0
  191.5220  175.3410  145.6050 C   0  0  2  0  0  3  0  0  0  0  0  0
  192.9250  176.1310  147.4940 N   0  0  0  0  0  0  0  0  0  0  0  0
  192.0040  174.7920  144.2740 C   0  0  1  0  0  3  0  0  0  0  0  0
  191.9120  176.9970  148.1110 C   0  0  0  0  0  2  0  0  0  0  0  0
  193.8580  174.7690  145.7880 N   0  0  0  0  0  2  0  0  0  0  0  0
  190.8340  176.6880  145.4430 C   0  0  0  0  0  2  0  0  0  0  0  0
  193.4010  174.1780  144.5390 C   0  0  1  0  0  0  0  0  0  0  0  0
  190.5670  176.4630  147.9220 N   0  0  0  0  0  2  0  0  0  0  0  0
  193.3270  172.7880  144.6870 O   0  0  0  0  0  1  0  0  0  0  0  0
  187.7080  177.2800  145.6580 N   0  0  0  0  0  2  0  0  0  0  0  0
  188.6020  176.5590  146.5110 C   0  0  0  0  0  0  0  0  0  0  0  0
  188.2070  175.5380  147.1370 O   0  0  0  0  0  0  0  0  0  0  0  0
  185.2240  179.4220  144.6370 O   0  0  0  0  0  0  0  0  0  0  0  0
  184.1210  177.3190  146.3670 F   0  0  0  0  0  0  0  0  0  0  0  0
  185.4310  177.7590  146.4160 C   0  0  2  0  0  3  0  0  0  0  0  0
  185.5070  179.2330  146.0230 C   0  0  0  0  0  2  0  0  0  0  0  0
  185.5840  178.8300  142.4480 O   0  0  0  0  0  0  0  0  0  0  0  0
  186.3080  176.9150  145.4880 C   0  0  1  0  0  3  0  0  0  0  0  0
  185.8850  177.0670  144.0250 C   0  0  0  0  0  2  0  0  0  0  0  0
  185.5930  178.4920  143.6590 C   0  0  0  0  0  0  0  0  0  0  0  0
  194.3410  174.5540  143.3930 C   0  0  0  0  0  2  0  0  0  0  0  0
  194.2000  176.0110  142.9590 C   0  0  0  0  0  2  0  0  0  0  0  0
  193.9010  174.8690  140.7550 C   0  0  0  0  0  1  0  0  0  0  0  0
  194.3190  176.1550  141.4480 C   0  0  0  0  0  2  0  0  0  0  0  0
  190.9850  173.8110  143.6980 C   0  0  0  0  0  2  0  0  0  0  0  0
  189.2360  173.5260  141.9420 C   0  0  2  0  0  3  0  0  0  0  0  0
  190.5560  174.2380  142.3050 C   0  0  1  0  0  3  0  0  0  0  0  0
  189.5800  171.9890  141.1120 Cl  0  0  0  0  0  0  0  0  0  0  0  0
  189.0810  177.6900  142.2600 F   0  0  0  0  0  0  0  0  0  0  0  0
  190.5000  175.7770  142.2260 C   0  0  0  0  0  2  0  0  0  0  0  0
  189.0770  176.3120  142.3770 C   0  0  2  0  0  3  0  0  0  0  0  0
  188.3140  174.3660  141.0990 C   0  0  0  0  0  3  0  0  0  0  0  0
  187.1370  176.6470  140.3180 Cl  0  0  0  0  0  0  0  0  0  0  0  0
  188.2080  175.6800  141.3240 C   0  0  0  0  0  0  0  0  0  0  0  0
  1  4  2  0  0  0  0
  2 13  1  6  0  0  0
  2 10  1  0  0  0  0
  3  8  1  6  0  0  0
  3  1  1  0  0  0  0
  4  6  1  0  0  0  0
  5 27  1  1  0  0  0
  5  9  1  0  0  0  0
  5  3  1  0  0  0  0
  7  1  1  0  0  0  0
  8  2  1  0  0  0  0
  9 11  1  1  0  0  0
  9  7  1  0  0  0  0
 10  6  1  0  0  0  0
 12 13  1  0  0  0  0
 13 14  2  0  0  0  0
 15 18  1  0  0  0  0
 17 16  1  6  0  0  0
 18 17  1  0  0  0  0
 19 22  2  0  0  0  0
 20 12  1  6  0  0  0
 20 17  1  0  0  0  0
 21 20  1  0  0  0  0
 22 21  1  0  0  0  0
 22 15  1  0  0  0  0
 23  9  1  0  0  0  0
 24 23  1  0  0  0  0
 25 26  1  0  0  0  0
 26 24  1  0  0  0  0
 28 30  1  6  0  0  0
 28 29  1  0  0  0  0
 29 27  1  1  0  0  0
 32 29  1  0  0  0  0
 32 33  1  0  0  0  0
 33 31  1  6  0  0  0
 34 36  2  0  0  0  0
 34 28  1  0  0  0  0
 35 36  1  0  0  0  0
 36 33  1  0  0  0  0
M  END
>  <MODEL>
2

>  <REMARK>
 VINA RESULT:      -7.2      3.453      5.308
  Name = 
  7 active torsions:
  status: ('A' for Active; 'I' for Inactive)
    1  A    between atoms: C_3  and  C_16
    2  A    between atoms: C_6  and  C_23
    3  A    between atoms: C_6  and  C_28
    4  A    between atoms: N_8  and  C_20
    5  A    between atoms: C_9  and  C_31
    6  A    between atoms: C_18  and  C_31
    7  A    between atoms: C_28  and  C_30
                            x       y       z     vdW  Elec       q    Type
                         _______ _______ _______ _____ _____    ______ ____

>  <TORSDO>
F 7

$$$$
=
 OpenBabel11062422273D

 36 39  0  0  1  0  0  0  0  0999 V2000
  185.3100  178.0540  142.6890 C   0  0  0  0  0  0  0  0  0  0  0  0
  187.7060  176.8900  140.9070 C   0  0  2  0  0  3  0  0  0  0  0  0
  186.4930  177.2440  143.0860 C   0  0  2  0  0  3  0  0  0  0  0  0
  184.9280  178.2880  141.4670 N   0  0  0  0  0  0  0  0  0  0  0  0
  186.6680  177.6050  144.5510 C   0  0  1  0  0  3  0  0  0  0  0  0
  185.6630  177.9150  140.2510 C   0  0  0  0  0  2  0  0  0  0  0  0
  184.6120  178.5740  143.8020 N   0  0  0  0  0  2  0  0  0  0  0  0
  187.7200  177.6120  142.2660 C   0  0  0  0  0  2  0  0  0  0  0  0
  185.3130  178.1910  145.0190 C   0  0  1  0  0  0  0  0  0  0  0  0
  186.3470  176.6360  140.4120 N   0  0  0  0  0  2  0  0  0  0  0  0
  184.5550  177.2360  145.7060 O   0  0  0  0  0  1  0  0  0  0  0  0
  188.4560  174.6860  139.9170 N   0  0  0  0  0  2  0  0  0  0  0  0
  188.4530  175.6020  141.0150 C   0  0  0  0  0  0  0  0  0  0  0  0
  189.0530  175.3210  142.0880 O   0  0  0  0  0  0  0  0  0  0  0  0
  190.3240  173.2960  137.3890 O   0  0  0  0  0  0  0  0  0  0  0  0
  189.0610  171.1950  139.0080 F   0  0  0  0  0  0  0  0  0  0  0  0
  188.5600  172.4770  138.8690 C   0  0  2  0  0  3  0  0  0  0  0  0
  188.9240  173.0380  137.4950 C   0  0  0  0  0  2  0  0  0  0  0  0
  192.2340  174.2220  138.2630 O   0  0  0  0  0  0  0  0  0  0  0  0
  189.1040  173.3820  139.9750 C   0  0  1  0  0  3  0  0  0  0  0  0
  190.6240  173.5300  139.8820 C   0  0  0  0  0  2  0  0  0  0  0  0
  191.0930  173.7370  138.4710 C   0  0  0  0  0  0  0  0  0  0  0  0
  185.5720  179.4160  145.8970 C   0  0  0  0  0  2  0  0  0  0  0  0
  185.4360  179.1210  147.3880 C   0  0  0  0  0  2  0  0  0  0  0  0
  187.5220  179.0410  148.7630 C   0  0  0  0  0  1  0  0  0  0  0  0
  186.4270  179.9350  148.2080 C   0  0  0  0  0  2  0  0  0  0  0  0
  187.1370  176.3900  145.3490 C   0  0  0  0  0  2  0  0  0  0  0  0
  189.2920  175.4220  146.1520 C   0  0  2  0  0  3  0  0  0  0  0  0
  188.4260  176.6980  146.0900 C   0  0  1  0  0  3  0  0  0  0  0  0
  188.9280  174.5100  147.6380 Cl  0  0  0  0  0  0  0  0  0  0  0  0
  190.8570  178.6320  143.9840 F   0  0  0  0  0  0  0  0  0  0  0  0
  189.1200  177.9160  145.4460 C   0  0  0  0  0  2  0  0  0  0  0  0
  190.2470  177.5050  144.5020 C   0  0  2  0  0  3  0  0  0  0  0  0
  190.7700  175.6950  146.0690 C   0  0  0  0  0  3  0  0  0  0  0  0
  192.9600  176.9720  145.1910 Cl  0  0  0  0  0  0  0  0  0  0  0  0
  191.2310  176.6570  145.2630 C   0  0  0  0  0  0  0  0  0  0  0  0
  1  3  1  0  0  0  0
  1  7  1  0  0  0  0
  2 13  1  1  0  0  0
  2  8  1  0  0  0  0
  3  8  1  6  0  0  0
  3  5  1  0  0  0  0
  4  1  2  0  0  0  0
  5  9  1  0  0  0  0
  5 27  1  1  0  0  0
  6 10  1  0  0  0  0
  6  4  1  0  0  0  0
  7  9  1  0  0  0  0
  9 11  1  1  0  0  0
  9 23  1  0  0  0  0
 10  2  1  0  0  0  0
 12 13  1  0  0  0  0
 13 14  2  0  0  0  0
 15 18  1  0  0  0  0
 15 22  1  0  0  0  0
 17 16  1  1  0  0  0
 17 20  1  0  0  0  0
 18 17  1  0  0  0  0
 19 22  2  0  0  0  0
 20 12  1  6  0  0  0
 21 20  1  0  0  0  0
 22 21  1  0  0  0  0
 23 24  1  0  0  0  0
 24 26  1  0  0  0  0
 26 25  1  0  0  0  0
 28 30  1  1  0  0  0
 29 27  1  6  0  0  0
 29 28  1  0  0  0  0
 32 29  1  0  0  0  0
 33 31  1  1  0  0  0
 33 36  1  0  0  0  0
 33 32  1  0  0  0  0
 34 28  1  0  0  0  0
 35 36  1  0  0  0  0
 36 34  2  0  0  0  0
M  END
>  <MODEL>
3

>  <REMARK>
 VINA RESULT:      -7.1      3.411      7.694
  Name = 
  7 active torsions:
  status: ('A' for Active; 'I' for Inactive)
    1  A    between atoms: C_3  and  C_16
    2  A    between atoms: C_6  and  C_23
    3  A    between atoms: C_6  and  C_28
    4  A    between atoms: N_8  and  C_20
    5  A    between atoms: C_9  and  C_31
    6  A    between atoms: C_18  and  C_31
    7  A    between atoms: C_28  and  C_30
                            x       y       z     vdW  Elec       q    Type
                         _______ _______ _______ _____ _____    ______ ____

>  <TORSDO>
F 7

$$$$
=
 OpenBabel11062422273D

 36 39  0  0  1  0  0  0  0  0999 V2000
  190.5430  173.0810  141.3410 C   0  0  0  0  0  0  0  0  0  0  0  0
  188.0570  174.9060  142.2100 C   0  0  2  0  0  3  0  0  0  0  0  0
  190.4510  174.1410  142.3790 C   0  0  2  0  0  3  0  0  0  0  0  0
  189.6400  172.8230  140.4390 N   0  0  0  0  0  0  0  0  0  0  0  0
  191.5590  173.7600  143.3460 C   0  0  1  0  0  3  0  0  0  0  0  0
  188.3070  173.4330  140.3600 C   0  0  0  0  0  2  0  0  0  0  0  0
  191.7450  172.3420  141.4260 N   0  0  0  0  0  2  0  0  0  0  0  0
  189.0880  174.1400  143.0560 C   0  0  0  0  0  2  0  0  0  0  0  0
  192.5140  172.8260  142.5640 C   0  0  1  0  0  0  0  0  0  0  0  0
  188.3360  174.8330  140.7700 N   0  0  0  0  0  2  0  0  0  0  0  0
  193.6380  173.5200  142.0980 O   0  0  0  0  0  1  0  0  0  0  0  0
  187.0570  176.7510  143.6240 N   0  0  0  0  0  2  0  0  0  0  0  0
  188.0110  176.3330  142.6430 C   0  0  0  0  0  0  0  0  0  0  0  0
  188.7980  177.1660  142.1170 O   0  0  0  0  0  0  0  0  0  0  0  0
  184.0740  178.2620  144.4170 O   0  0  0  0  0  0  0  0  0  0  0  0
  185.9820  180.2370  143.3700 F   0  0  0  0  0  0  0  0  0  0  0  0
  186.0090  178.8890  143.0610 C   0  0  2  0  0  3  0  0  0  0  0  0
  184.5940  178.3140  143.0880 C   0  0  0  0  0  2  0  0  0  0  0  0
  184.3430  177.6830  146.6220 O   0  0  0  0  0  0  0  0  0  0  0  0
  186.9080  178.1380  144.0440 C   0  0  1  0  0  3  0  0  0  0  0  0
  186.3640  178.2130  145.4720 C   0  0  0  0  0  2  0  0  0  0  0  0
  184.8800  178.0020  145.5300 C   0  0  0  0  0  0  0  0  0  0  0  0
  192.9280  171.6610  143.4640 C   0  0  0  0  0  2  0  0  0  0  0  0
  194.3860  171.7400  143.9100 C   0  0  0  0  0  2  0  0  0  0  0  0
  195.9820  171.4880  145.8170 C   0  0  0  0  0  1  0  0  0  0  0  0
  194.5180  171.5530  145.4150 C   0  0  0  0  0  2  0  0  0  0  0  0
  192.2270  175.0090  143.9150 C   0  0  0  0  0  2  0  0  0  0  0  0
  193.4290  175.9090  145.9070 C   0  0  2  0  0  3  0  0  0  0  0  0
  192.3570  174.9100  145.4250 C   0  0  1  0  0  3  0  0  0  0  0  0
  195.0240  175.1200  145.9500 Cl  0  0  0  0  0  0  0  0  0  0  0  0
  189.5210  176.5920  147.2180 F   0  0  0  0  0  0  0  0  0  0  0  0
  190.9720  175.0850  146.0800 C   0  0  0  0  0  2  0  0  0  0  0  0
  190.7580  176.5020  146.6080 C   0  0  2  0  0  3  0  0  0  0  0  0
  193.1220  176.5150  147.2510 C   0  0  0  0  0  3  0  0  0  0  0  0
  191.5240  177.5220  149.1550 Cl  0  0  0  0  0  0  0  0  0  0  0  0
  191.8640  176.8300  147.5750 C   0  0  0  0  0  0  0  0  0  0  0  0
  1  7  1  0  0  0  0
  1  3  1  0  0  0  0
  2 13  1  1  0  0  0
  2  8  1  0  0  0  0
  3  8  1  1  0  0  0
  3  5  1  0  0  0  0
  4  1  2  0  0  0  0
  5 27  1  6  0  0  0
  6  4  1  0  0  0  0
  6 10  1  0  0  0  0
  7  9  1  0  0  0  0
  9 11  1  6  0  0  0
  9  5  1  0  0  0  0
  9 23  1  0  0  0  0
 10  2  1  0  0  0  0
 13 12  1  0  0  0  0
 14 13  2  0  0  0  0
 15 22  1  0  0  0  0
 17 18  1  0  0  0  0
 17 16  1  1  0  0  0
 17 20  1  0  0  0  0
 18 15  1  0  0  0  0
 20 12  1  6  0  0  0
 20 21  1  0  0  0  0
 21 22  1  0  0  0  0
 22 19  2  0  0  0  0
 23 24  1  0  0  0  0
 24 26  1  0  0  0  0
 26 25  1  0  0  0  0
 28 30  1  1  0  0  0
 28 34  1  0  0  0  0
 29 27  1  6  0  0  0
 29 28  1  0  0  0  0
 29 32  1  0  0  0  0
 32 33  1  0  0  0  0
 33 31  1  1  0  0  0
 33 36  1  0  0  0  0
 34 36  2  0  0  0  0
 36 35  1  0  0  0  0
M  END
>  <MODEL>
4

>  <REMARK>
 VINA RESULT:      -7.1      2.105      2.889
  Name = 
  7 active torsions:
  status: ('A' for Active; 'I' for Inactive)
    1  A    between atoms: C_3  and  C_16
    2  A    between atoms: C_6  and  C_23
    3  A    between atoms: C_6  and  C_28
    4  A    between atoms: N_8  and  C_20
    5  A    between atoms: C_9  and  C_31
    6  A    between atoms: C_18  and  C_31
    7  A    between atoms: C_28  and  C_30
                            x       y       z     vdW  Elec       q    Type
                         _______ _______ _______ _____ _____    ______ ____

>  <TORSDO>
F 7

$$$$
=
 OpenBabel11062422273D

 36 39  0  0  1  0  0  0  0  0999 V2000
  188.1690  175.2040  141.1460 C   0  0  0  0  0  0  0  0  0  0  0  0
  190.9100  173.6980  141.8440 C   0  0  2  0  0  3  0  0  0  0  0  0
  188.8800  175.0640  142.4440 C   0  0  2  0  0  3  0  0  0  0  0  0
  188.4530  174.5570  140.0520 N   0  0  0  0  0  0  0  0  0  0  0  0
  188.3930  176.2730  143.2250 C   0  0  1  0  0  3  0  0  0  0  0  0
  189.6090  173.6740  139.8540 C   0  0  0  0  0  2  0  0  0  0  0  0
  187.1170  176.1460  141.2040 N   0  0  0  0  0  2  0  0  0  0  0  0
  190.3900  175.0860  142.2570 C   0  0  0  0  0  2  0  0  0  0  0  0
  187.0880  176.7380  142.5330 C   0  0  1  0  0  0  0  0  0  0  0  0
  189.9270  172.9300  141.0690 N   0  0  0  0  0  2  0  0  0  0  0  0
  185.9570  176.2780  143.2180 O   0  0  0  0  0  1  0  0  0  0  0  0
  192.5550  173.2000  143.7000 N   0  0  0  0  0  2  0  0  0  0  0  0
  191.3070  172.9280  143.0590 C   0  0  0  0  0  0  0  0  0  0  0  0
  190.5460  172.0210  143.4940 O   0  0  0  0  0  0  0  0  0  0  0  0
  195.8640  172.6350  144.4370 O   0  0  0  0  0  0  0  0  0  0  0  0
  194.1960  170.4370  145.4470 F   0  0  0  0  0  0  0  0  0  0  0  0
  193.8580  171.2400  144.3730 C   0  0  2  0  0  3  0  0  0  0  0  0
  195.1190  171.7090  143.6480 C   0  0  0  0  0  2  0  0  0  0  0  0
  195.9190  174.5270  145.7360 O   0  0  0  0  0  0  0  0  0  0  0  0
  193.0390  172.4420  144.8470 C   0  0  1  0  0  3  0  0  0  0  0  0
  193.8510  173.3400  145.7830 C   0  0  0  0  0  2  0  0  0  0  0  0
  195.2530  173.5570  145.2940 C   0  0  0  0  0  0  0  0  0  0  0  0
  187.0860  178.2640  142.4400 C   0  0  0  0  0  2  0  0  0  0  0  0
  185.7780  178.8900  142.9200 C   0  0  0  0  0  2  0  0  0  0  0  0
  184.9320  178.9700  145.2700 C   0  0  0  0  0  1  0  0  0  0  0  0
  185.9420  179.5380  144.2870 C   0  0  0  0  0  2  0  0  0  0  0  0
  188.2330  175.9260  144.7030 C   0  0  0  0  0  2  0  0  0  0  0  0
  190.2940  175.5120  146.0460 C   0  0  2  0  0  3  0  0  0  0  0  0
  189.3190  176.5900  145.5320 C   0  0  1  0  0  3  0  0  0  0  0  0
  189.7640  174.9190  147.6390 Cl  0  0  0  0  0  0  0  0  0  0  0  0
  191.8690  178.3420  143.4060 F   0  0  0  0  0  0  0  0  0  0  0  0
  189.9800  177.7200  144.7160 C   0  0  0  0  0  2  0  0  0  0  0  0
  191.3030  177.2830  144.0910 C   0  0  2  0  0  3  0  0  0  0  0  0
  191.7220  175.9830  146.1250 C   0  0  0  0  0  3  0  0  0  0  0  0
  193.8810  177.3460  145.3020 Cl  0  0  0  0  0  0  0  0  0  0  0  0
  192.2150  176.7940  145.1830 C   0  0  0  0  0  0  0  0  0  0  0  0
  1  7  1  0  0  0  0
  1  3  1  0  0  0  0
  2  8  1  0  0  0  0
  2 13  1  1  0  0  0
  3  8  1  6  0  0  0
  3  5  1  0  0  0  0
  4  1  2  0  0  0  0
  5 27  1  1  0  0  0
  6  4  1  0  0  0  0
  6 10  1  0  0  0  0
  7  9  1  0  0  0  0
  9 11  1  1  0  0  0
  9  5  1  0  0  0  0
 10  2  1  0  0  0  0
 13 14  2  0  0  0  0
 13 12  1  0  0  0  0
 15 22  1  0  0  0  0
 17 20  1  0  0  0  0
 17 16  1  1  0  0  0
 18 17  1  0  0  0  0
 18 15  1  0  0  0  0
 20 12  1  6  0  0  0
 20 21  1  0  0  0  0
 22 19  2  0  0  0  0
 22 21  1  0  0  0  0
 23  9  1  0  0  0  0
 23 24  1  0  0  0  0
 24 26  1  0  0  0  0
 26 25  1  0  0  0  0
 28 34  1  0  0  0  0
 28 30  1  1  0  0  0
 29 27  1  6  0  0  0
 29 28  1  0  0  0  0
 32 29  1  0  0  0  0
 33 31  1  1  0  0  0
 33 32  1  0  0  0  0
 33 36  1  0  0  0  0
 36 35  1  0  0  0  0
 36 34  2  0  0  0  0
M  END
>  <MODEL>
5

>  <REMARK>
 VINA RESULT:      -7.0      2.659      7.431
  Name = 
  7 active torsions:
  status: ('A' for Active; 'I' for Inactive)
    1  A    between atoms: C_3  and  C_16
    2  A    between atoms: C_6  and  C_23
    3  A    between atoms: C_6  and  C_28
    4  A    between atoms: N_8  and  C_20
    5  A    between atoms: C_9  and  C_31
    6  A    between atoms: C_18  and  C_31
    7  A    between atoms: C_28  and  C_30
                            x       y       z     vdW  Elec       q    Type
                         _______ _______ _______ _____ _____    ______ ____

>  <TORSDO>
F 7

$$$$
=
 OpenBabel11062422273D

 36 39  0  0  1  0  0  0  0  0999 V2000
  191.4910  174.9180  144.3680 C   0  0  0  0  0  0  0  0  0  0  0  0
  189.8380  172.6060  142.8870 C   0  0  2  0  0  3  0  0  0  0  0  0
  190.2960  175.0090  143.4870 C   0  0  2  0  0  3  0  0  0  0  0  0
  192.2160  173.8520  144.5530 N   0  0  0  0  0  0  0  0  0  0  0  0
  189.6560  176.3150  143.9260 C   0  0  1  0  0  3  0  0  0  0  0  0
  191.9160  172.5100  144.0400 C   0  0  0  0  0  2  0  0  0  0  0  0
  191.7780  176.1390  145.0190 N   0  0  0  0  0  2  0  0  0  0  0  0
  189.3610  173.8270  143.6930 C   0  0  0  0  0  2  0  0  0  0  0  0
  190.7610  177.1160  144.6570 C   0  0  1  0  0  0  0  0  0  0  0  0
  191.2960  172.5700  142.7200 N   0  0  0  0  0  2  0  0  0  0  0  0
  191.3290  178.0820  143.8180 O   0  0  0  0  0  1  0  0  0  0  0  0
  189.9460  172.3300  140.3740 N   0  0  0  0  0  2  0  0  0  0  0  0
  189.1760  172.5960  141.5500 C   0  0  0  0  0  0  0  0  0  0  0  0
  187.9440  172.8530  141.4650 O   0  0  0  0  0  0  0  0  0  0  0  0
  191.7740  172.2490  137.4660 O   0  0  0  0  0  0  0  0  0  0  0  0
  189.2660  173.7260  137.0640 F   0  0  0  0  0  0  0  0  0  0  0  0
  189.9070  173.5990  138.2820 C   0  0  2  0  0  3  0  0  0  0  0  0
  191.4170  173.4900  138.0740 C   0  0  0  0  0  2  0  0  0  0  0  0
  191.6090  169.9600  137.4010 O   0  0  0  0  0  0  0  0  0  0  0  0
  189.3830  172.3720  139.0320 C   0  0  1  0  0  3  0  0  0  0  0  0
  189.6930  171.0780  138.2750 C   0  0  0  0  0  2  0  0  0  0  0  0
  191.0880  171.0580  137.7250 C   0  0  0  0  0  0  0  0  0  0  0  0
  190.1690  177.7620  145.9100 C   0  0  0  0  0  2  0  0  0  0  0  0
  190.0390  176.7880  147.0790 C   0  0  0  0  0  2  0  0  0  0  0  0
  188.9620  174.5410  147.2650 C   0  0  0  0  0  1  0  0  0  0  0  0
  188.7250  176.0210  147.0200 C   0  0  0  0  0  2  0  0  0  0  0  0
  189.0400  177.0380  142.7310 C   0  0  0  0  0  2  0  0  0  0  0  0
  186.8960  178.2080  143.2390 C   0  0  2  0  0  3  0  0  0  0  0  0
  187.5280  176.8940  142.7350 C   0  0  1  0  0  3  0  0  0  0  0  0
  186.6740  178.1400  145.0040 Cl  0  0  0  0  0  0  0  0  0  0  0  0
  186.0610  177.1350  139.2880 F   0  0  0  0  0  0  0  0  0  0  0  0
  187.0440  176.4400  141.3420 C   0  0  0  0  0  2  0  0  0  0  0  0
  186.5160  177.6040  140.5070 C   0  0  2  0  0  3  0  0  0  0  0  0
  185.5870  178.5390  142.5720 C   0  0  0  0  0  3  0  0  0  0  0  0
  183.8730  178.6660  140.5130 Cl  0  0  0  0  0  0  0  0  0  0  0  0
  185.4140  178.2870  141.2700 C   0  0  0  0  0  0  0  0  0  0  0  0
  1  4  2  0  0  0  0
  1  7  1  0  0  0  0
  2 13  1  6  0  0  0
  2  8  1  0  0  0  0
  3  8  1  1  0  0  0
  3  5  1  0  0  0  0
  3  1  1  0  0  0  0
  5 27  1  6  0  0  0
  5  9  1  0  0  0  0
  6  4  1  0  0  0  0
  9 11  1  6  0  0  0
  9  7  1  0  0  0  0
  9 23  1  0  0  0  0
 10  2  1  0  0  0  0
 10  6  1  0  0  0  0
 12 13  1  0  0  0  0
 14 13  2  0  0  0  0
 15 22  1  0  0  0  0
 15 18  1  0  0  0  0
 17 16  1  6  0  0  0
 17 20  1  0  0  0  0
 18 17  1  0  0  0  0
 19 22  2  0  0  0  0
 20 12  1  1  0  0  0
 21 20  1  0  0  0  0
 22 21  1  0  0  0  0
 23 24  1  0  0  0  0
 26 24  1  0  0  0  0
 26 25  1  0  0  0  0
 28 30  1  1  0  0  0
 29 27  1  6  0  0  0
 29 28  1  0  0  0  0
 32 29  1  0  0  0  0
 33 31  1  6  0  0  0
 33 36  1  0  0  0  0
 33 32  1  0  0  0  0
 34 28  1  0  0  0  0
 35 36  1  0  0  0  0
 36 34  2  0  0  0  0
M  END
>  <MODEL>
6

>  <REMARK>
 VINA RESULT:      -7.0      4.278      8.137
  Name = 
  7 active torsions:
  status: ('A' for Active; 'I' for Inactive)
    1  A    between atoms: C_3  and  C_16
    2  A    between atoms: C_6  and  C_23
    3  A    between atoms: C_6  and  C_28
    4  A    between atoms: N_8  and  C_20
    5  A    between atoms: C_9  and  C_31
    6  A    between atoms: C_18  and  C_31
    7  A    between atoms: C_28  and  C_30
                            x       y       z     vdW  Elec       q    Type
                         _______ _______ _______ _____ _____    ______ ____

>  <TORSDO>
F 7

$$$$
=
 OpenBabel11062422273D

 36 39  0  0  1  0  0  0  0  0999 V2000
  190.6840  172.9000  140.0830 C   0  0  0  0  0  0  0  0  0  0  0  0
  188.1420  174.5070  141.1910 C   0  0  2  0  0  3  0  0  0  0  0  0
  190.5890  173.9050  141.1740 C   0  0  2  0  0  3  0  0  0  0  0  0
  189.7430  172.6180  139.2280 N   0  0  0  0  0  0  0  0  0  0  0  0
  191.7800  173.5620  142.0510 C   0  0  1  0  0  3  0  0  0  0  0  0
  188.3690  173.1360  139.2610 C   0  0  0  0  0  2  0  0  0  0  0  0
  191.9360  172.2450  140.0590 N   0  0  0  0  0  2  0  0  0  0  0  0
  189.2760  173.7800  141.9340 C   0  0  0  0  0  2  0  0  0  0  0  0
  192.7430  172.7310  141.1670 C   0  0  1  0  0  0  0  0  0  0  0  0
  188.3310  174.5160  139.7350 N   0  0  0  0  0  2  0  0  0  0  0  0
  193.7840  173.5220  140.6660 O   0  0  0  0  0  1  0  0  0  0  0  0
  188.1160  176.1720  143.0970 N   0  0  0  0  0  2  0  0  0  0  0  0
  188.0290  175.9080  141.6940 C   0  0  0  0  0  0  0  0  0  0  0  0
  187.8280  176.8460  140.8750 O   0  0  0  0  0  0  0  0  0  0  0  0
  186.3030  176.8910  145.9260 O   0  0  0  0  0  0  0  0  0  0  0  0
  186.3030  179.1880  144.0940 F   0  0  0  0  0  0  0  0  0  0  0  0
  186.4610  177.8730  143.6940 C   0  0  2  0  0  3  0  0  0  0  0  0
  185.6990  176.9410  144.6340 C   0  0  0  0  0  2  0  0  0  0  0  0
  188.1830  176.6420  147.2190 O   0  0  0  0  0  0  0  0  0  0  0  0
  187.9450  177.5020  143.6640 C   0  0  1  0  0  3  0  0  0  0  0  0
  188.5700  177.5780  145.0600 C   0  0  0  0  0  2  0  0  0  0  0  0
  187.6860  176.9780  146.1140 C   0  0  0  0  0  0  0  0  0  0  0  0
  193.2920  171.5610  141.9840 C   0  0  0  0  0  2  0  0  0  0  0  0
  192.2110  170.8190  142.7650 C   0  0  0  0  0  2  0  0  0  0  0  0
  193.9800  171.0200  144.5190 C   0  0  0  0  0  1  0  0  0  0  0  0
  192.7600  170.2390  144.0610 C   0  0  0  0  0  2  0  0  0  0  0  0
  192.3980  174.8300  142.6360 C   0  0  0  0  0  2  0  0  0  0  0  0
  193.1630  175.9760  144.7160 C   0  0  2  0  0  3  0  0  0  0  0  0
  192.7920  174.6170  144.0870 C   0  0  1  0  0  3  0  0  0  0  0  0
  194.9070  176.2790  144.5300 Cl  0  0  0  0  0  0  0  0  0  0  0  0
  189.8190  174.0370  146.3040 F   0  0  0  0  0  0  0  0  0  0  0  0
  191.6740  173.8500  144.8230 C   0  0  0  0  0  2  0  0  0  0  0  0
  190.7760  174.7790  145.6360 C   0  0  2  0  0  3  0  0  0  0  0  0
  192.7760  176.0910  146.1660 C   0  0  0  0  0  3  0  0  0  0  0  0
  191.2040  175.6870  148.3020 Cl  0  0  0  0  0  0  0  0  0  0  0  0
  191.6300  175.5560  146.6010 C   0  0  0  0  0  0  0  0  0  0  0  0
  1  3  1  0  0  0  0
  2 13  1  1  0  0  0
  2  8  1  0  0  0  0
  3  8  1  1  0  0  0
  3  5  1  0  0  0  0
  4  6  1  0  0  0  0
  4  1  2  0  0  0  0
  5 27  1  6  0  0  0
  6 10  1  0  0  0  0
  7  1  1  0  0  0  0
  7  9  1  0  0  0  0
  9 11  1  6  0  0  0
  9 23  1  0  0  0  0
  9  5  1  0  0  0  0
 10  2  1  0  0  0  0
 13 12  1  0  0  0  0
 14 13  2  0  0  0  0
 15 22  1  0  0  0  0
 17 16  1  1  0  0  0
 17 18  1  0  0  0  0
 18 15  1  0  0  0  0
 20 12  1  1  0  0  0
 20 17  1  0  0  0  0
 20 21  1  0  0  0  0
 21 22  1  0  0  0  0
 22 19  2  0  0  0  0
 23 24  1  0  0  0  0
 24 26  1  0  0  0  0
 26 25  1  0  0  0  0
 28 30  1  1  0  0  0
 28 34  1  0  0  0  0
 29 27  1  6  0  0  0
 29 28  1  0  0  0  0
 29 32  1  0  0  0  0
 32 33  1  0  0  0  0
 33 31  1  1  0  0  0
 33 36  1  0  0  0  0
 34 36  2  0  0  0  0
 36 35  1  0  0  0  0
M  END
>  <MODEL>
7

>  <REMARK>
 VINA RESULT:      -6.9      2.310      3.072
  Name = 
  7 active torsions:
  status: ('A' for Active; 'I' for Inactive)
    1  A    between atoms: C_3  and  C_16
    2  A    between atoms: C_6  and  C_23
    3  A    between atoms: C_6  and  C_28
    4  A    between atoms: N_8  and  C_20
    5  A    between atoms: C_9  and  C_31
    6  A    between atoms: C_18  and  C_31
    7  A    between atoms: C_28  and  C_30
                            x       y       z     vdW  Elec       q    Type
                         _______ _______ _______ _____ _____    ______ ____

>  <TORSDO>
F 7

$$$$
=
 OpenBabel11062422273D

 36 39  0  0  1  0  0  0  0  0999 V2000
  193.3710  175.6120  146.1190 C   0  0  0  0  0  0  0  0  0  0  0  0
  190.5250  177.0820  146.2210 C   0  0  2  0  0  3  0  0  0  0  0  0
  192.1640  175.4180  145.2740 C   0  0  2  0  0  3  0  0  0  0  0  0
  193.4260  176.3160  147.2140 N   0  0  0  0  0  0  0  0  0  0  0  0
  192.7410  174.8500  143.9900 C   0  0  1  0  0  3  0  0  0  0  0  0
  192.3480  177.1590  147.7460 C   0  0  0  0  0  2  0  0  0  0  0  0
  194.5050  174.9420  145.6050 N   0  0  0  0  0  2  0  0  0  0  0  0
  191.4370  176.7330  145.0320 C   0  0  0  0  0  2  0  0  0  0  0  0
  194.1420  174.2990  144.3510 C   0  0  1  0  0  0  0  0  0  0  0  0
  191.0370  176.5690  147.4980 N   0  0  0  0  0  2  0  0  0  0  0  0
  194.1110  172.9110  144.5380 O   0  0  0  0  0  1  0  0  0  0  0  0
  188.1190  177.4230  145.5180 N   0  0  0  0  0  2  0  0  0  0  0  0
  189.1540  176.5490  145.9760 C   0  0  0  0  0  0  0  0  0  0  0  0
  188.9110  175.3320  146.2050 O   0  0  0  0  0  0  0  0  0  0  0  0
  185.3360  179.2890  146.2830 O   0  0  0  0  0  0  0  0  0  0  0  0
  184.7460  176.4200  146.5120 F   0  0  0  0  0  0  0  0  0  0  0  0
  186.0050  176.9690  146.6650 C   0  0  2  0  0  3  0  0  0  0  0  0
  185.8970  178.3840  147.2330 C   0  0  0  0  0  2  0  0  0  0  0  0
  185.3040  180.1500  144.1550 O   0  0  0  0  0  0  0  0  0  0  0  0
  186.7420  176.9890  145.3250 C   0  0  1  0  0  3  0  0  0  0  0  0
  186.0320  177.8840  144.3070 C   0  0  0  0  0  2  0  0  0  0  0  0
  185.5730  179.1800  144.9080 C   0  0  0  0  0  0  0  0  0  0  0  0
  195.1320  174.6780  143.2490 C   0  0  0  0  0  2  0  0  0  0  0  0
  195.3120  176.1860  143.1020 C   0  0  0  0  0  2  0  0  0  0  0  0
  197.6600  175.3360  143.2090 C   0  0  0  0  0  1  0  0  0  0  0  0
  196.7840  176.5740  143.1110 C   0  0  0  0  0  2  0  0  0  0  0  0
  191.7930  173.8160  143.3870 C   0  0  0  0  0  2  0  0  0  0  0  0
  191.6720  173.6240  140.9030 C   0  0  2  0  0  3  0  0  0  0  0  0
  191.1210  174.3630  142.1400 C   0  0  1  0  0  3  0  0  0  0  0  0
  193.0780  174.4980  140.2460 Cl  0  0  0  0  0  0  0  0  0  0  0  0
  187.6120  173.0930  141.7350 F   0  0  0  0  0  0  0  0  0  0  0  0
  189.5890  174.2940  142.3010 C   0  0  0  0  0  2  0  0  0  0  0  0
  188.9870  173.0840  141.5910 C   0  0  2  0  0  3  0  0  0  0  0  0
  190.6460  173.4200  139.8200 C   0  0  0  0  0  3  0  0  0  0  0  0
  188.1940  172.9100  138.8610 Cl  0  0  0  0  0  0  0  0  0  0  0  0
  189.3810  173.1290  140.1390 C   0  0  0  0  0  0  0  0  0  0  0  0
  1  4  2  0  0  0  0
  2 13  1  6  0  0  0
  2 10  1  0  0  0  0
  3  8  1  6  0  0  0
  3  1  1  0  0  0  0
  4  6  1  0  0  0  0
  5 27  1  1  0  0  0
  5  9  1  0  0  0  0
  5  3  1  0  0  0  0
  7  1  1  0  0  0  0
  8  2  1  0  0  0  0
  9 11  1  1  0  0  0
  9  7  1  0  0  0  0
 10  6  1  0  0  0  0
 12 13  1  0  0  0  0
 13 14  2  0  0  0  0
 15 18  1  0  0  0  0
 17 16  1  6  0  0  0
 17 18  1  0  0  0  0
 19 22  2  0  0  0  0
 20 12  1  1  0  0  0
 20 17  1  0  0  0  0
 21 22  1  0  0  0  0
 21 20  1  0  0  0  0
 22 15  1  0  0  0  0
 23  9  1  0  0  0  0
 24 26  1  0  0  0  0
 24 23  1  0  0  0  0
 26 25  1  0  0  0  0
 28 30  1  6  0  0  0
 28 29  1  0  0  0  0
 29 32  1  0  0  0  0
 29 27  1  1  0  0  0
 33 31  1  6  0  0  0
 33 32  1  0  0  0  0
 34 36  2  0  0  0  0
 34 28  1  0  0  0  0
 35 36  1  0  0  0  0
 36 33  1  0  0  0  0
M  END
>  <MODEL>
8

>  <REMARK>
 VINA RESULT:      -6.8      3.433      5.422
  Name = 
  7 active torsions:
  status: ('A' for Active; 'I' for Inactive)
    1  A    between atoms: C_3  and  C_16
    2  A    between atoms: C_6  and  C_23
    3  A    between atoms: C_6  and  C_28
    4  A    between atoms: N_8  and  C_20
    5  A    between atoms: C_9  and  C_31
    6  A    between atoms: C_18  and  C_31
    7  A    between atoms: C_28  and  C_30
                            x       y       z     vdW  Elec       q    Type
                         _______ _______ _______ _____ _____    ______ ____

>  <TORSDO>
F 7

$$$$
=
 OpenBabel11062422273D

 36 39  0  0  1  0  0  0  0  0999 V2000
  188.5930  174.7880  140.6750 C   0  0  0  0  0  0  0  0  0  0  0  0
  191.3940  173.3910  141.3630 C   0  0  2  0  0  3  0  0  0  0  0  0
  189.3140  174.6770  141.9710 C   0  0  2  0  0  3  0  0  0  0  0  0
  188.8980  174.1520  139.5810 N   0  0  0  0  0  0  0  0  0  0  0  0
  188.7840  175.8650  142.7530 C   0  0  1  0  0  3  0  0  0  0  0  0
  190.0870  173.3150  139.3780 C   0  0  0  0  0  2  0  0  0  0  0  0
  187.5050  175.6880  140.7380 N   0  0  0  0  0  2  0  0  0  0  0  0
  190.8210  174.7580  141.7770 C   0  0  0  0  0  2  0  0  0  0  0  0
  187.4580  176.2790  142.0670 C   0  0  1  0  0  0  0  0  0  0  0  0
  190.4390  172.5850  140.5920 N   0  0  0  0  0  2  0  0  0  0  0  0
  186.3490  175.7750  142.7560 O   0  0  0  0  0  1  0  0  0  0  0  0
  192.7450  173.2330  143.4960 N   0  0  0  0  0  2  0  0  0  0  0  0
  191.8260  172.6380  142.5760 C   0  0  0  0  0  0  0  0  0  0  0  0
  191.3960  171.4670  142.7650 O   0  0  0  0  0  0  0  0  0  0  0  0
  195.9430  173.5340  144.7180 O   0  0  0  0  0  0  0  0  0  0  0  0
  194.8530  170.8750  145.3320 F   0  0  0  0  0  0  0  0  0  0  0  0
  194.4500  171.6530  144.2620 C   0  0  2  0  0  3  0  0  0  0  0  0
  195.6100  172.5180  143.7730 C   0  0  0  0  0  2  0  0  0  0  0  0
  195.2740  175.2350  146.1070 O   0  0  0  0  0  0  0  0  0  0  0  0
  193.2630  172.5320  144.6630 C   0  0  1  0  0  3  0  0  0  0  0  0
  193.6470  173.5250  145.7630 C   0  0  0  0  0  2  0  0  0  0  0  0
  194.9810  174.1660  145.5140 C   0  0  0  0  0  0  0  0  0  0  0  0
  187.3960  177.8040  141.9730 C   0  0  0  0  0  2  0  0  0  0  0  0
  186.0880  178.3810  142.5080 C   0  0  0  0  0  2  0  0  0  0  0  0
  185.0190  179.7870  144.2770 C   0  0  0  0  0  1  0  0  0  0  0  0
  186.2960  179.0920  143.8380 C   0  0  0  0  0  2  0  0  0  0  0  0
  188.6440  175.5140  144.2320 C   0  0  0  0  0  2  0  0  0  0  0  0
  188.3950  176.4890  146.5150 C   0  0  2  0  0  3  0  0  0  0  0  0
  188.9770  176.7120  145.1040 C   0  0  1  0  0  3  0  0  0  0  0  0
  186.7530  177.1680  146.6130 Cl  0  0  0  0  0  0  0  0  0  0  0  0
  192.5580  176.7090  146.2280 F   0  0  0  0  0  0  0  0  0  0  0  0
  190.4960  176.9760  145.0680 C   0  0  0  0  0  2  0  0  0  0  0  0
  191.2100  176.4100  146.2930 C   0  0  2  0  0  3  0  0  0  0  0  0
  189.2510  177.0600  147.6140 C   0  0  0  0  0  3  0  0  0  0  0  0
  191.5670  177.6830  148.8170 Cl  0  0  0  0  0  0  0  0  0  0  0  0
  190.5840  176.9950  147.5310 C   0  0  0  0  0  0  0  0  0  0  0  0
  1  7  1  0  0  0  0
  1  3  1  0  0  0  0
  2  8  1  0  0  0  0
  2 13  1  1  0  0  0
  3  8  1  6  0  0  0
  3  5  1  0  0  0  0
  4  1  2  0  0  0  0
  5 27  1  1  0  0  0
  6  4  1  0  0  0  0
  6 10  1  0  0  0  0
  7  9  1  0  0  0  0
  9  5  1  0  0  0  0
  9 11  1  1  0  0  0
 10  2  1  0  0  0  0
 13 14  2  0  0  0  0
 13 12  1  0  0  0  0
 15 22  1  0  0  0  0
 17 20  1  0  0  0  0
 17 16  1  1  0  0  0
 18 17  1  0  0  0  0
 18 15  1  0  0  0  0
 20 12  1  6  0  0  0
 20 21  1  0  0  0  0
 22 21  1  0  0  0  0
 22 19  2  0  0  0  0
 23  9  1  0  0  0  0
 23 24  1  0  0  0  0
 24 26  1  0  0  0  0
 26 25  1  0  0  0  0
 28 30  1  6  0  0  0
 28 34  1  0  0  0  0
 29 27  1  6  0  0  0
 29 28  1  0  0  0  0
 32 29  1  0  0  0  0
 32 33  1  0  0  0  0
 33 31  1  6  0  0  0
 33 36  1  0  0  0  0
 36 34  2  0  0  0  0
 36 35  1  0  0  0  0
M  END
>  <MODEL>
9

>  <REMARK>
 VINA RESULT:      -6.8      3.013      7.523
  Name = 
  7 active torsions:
  status: ('A' for Active; 'I' for Inactive)
    1  A    between atoms: C_3  and  C_16
    2  A    between atoms: C_6  and  C_23
    3  A    between atoms: C_6  and  C_28
    4  A    between atoms: N_8  and  C_20
    5  A    between atoms: C_9  and  C_31
    6  A    between atoms: C_18  and  C_31
    7  A    between atoms: C_28  and  C_30
                            x       y       z     vdW  Elec       q    Type
                         _______ _______ _______ _____ _____    ______ ____

>  <TORSDO>
F 7

$$$$
