=
 OpenBabel11072409413D

 25 28  0  0  1  0  0  0  0  0999 V2000
  185.6510  177.7410  140.6680 C   0  0  0  0  0  2  0  0  0  0  0  0
  187.4110  177.3320  140.9690 S   0  0  0  0  0  0  0  0  0  0  0  0
  183.8150  178.8520  145.8420 N   0  0  0  0  0  0  0  0  0  0  0  0
  185.1330  178.6070  141.8160 C   0  0  0  0  0  2  0  0  0  0  0  0
  187.5140  176.9260  144.9760 C   0  0  0  0  0  0  0  0  0  0  0  0
  186.5100  177.9870  145.3900 C   0  0  2  0  0  3  0  0  0  0  0  0
  185.9580  178.2500  142.9960 C   0  0  0  0  0  0  0  0  0  0  0  0
  185.7470  177.6320  146.6410 C   0  0  0  0  0  3  0  0  0  0  0  0
  185.5780  178.4100  144.2700 C   0  0  0  0  0  0  0  0  0  0  0  0
  184.2800  179.0020  144.6360 C   0  0  0  0  0  3  0  0  0  0  0  0
  187.1610  177.5630  142.6920 N   0  0  0  0  0  0  0  0  0  0  0  0
  184.5060  178.0870  146.8460 C   0  0  0  0  0  3  0  0  0  0  0  0
  187.8440  176.7920  143.6850 C   0  0  0  0  0  3  0  0  0  0  0  0
  188.2920  176.1740  146.0060 C   0  0  0  0  0  2  0  0  0  0  0  0
  189.5070  176.9750  146.4380 C   0  0  0  0  0  2  0  0  0  0  0  0
  190.7840  176.3050  145.9530 C   0  0  1  0  0  3  0  0  0  0  0  0
  193.3940  175.6530  145.1520 C   0  0  1  0  0  3  0  0  0  0  0  0
  193.0890  175.4830  146.6470 C   0  0  0  0  0  2  0  0  0  0  0  0
  192.8920  176.9990  144.6470 C   0  0  0  0  0  2  0  0  0  0  0  0
  191.3680  177.1020  144.7740 C   0  0  0  0  0  2  0  0  0  0  0  0
  191.2400  175.4500  148.1570 O   0  0  0  0  0  1  0  0  0  0  0  0
  191.7940  176.1720  147.1000 C   0  0  2  0  0  3  0  0  0  0  0  0
  194.8860  175.5360  144.9040 C   0  0  0  0  0  2  0  0  0  0  0  0
  196.3220  176.4970  143.5860 N   0  0  0  0  0  1  0  0  0  0  0  0
  195.4090  176.7780  144.5460 O   0  0  0  0  0  0  0  0  0  0  0  0
  1  2  1  0  0  0  0
  1  4  1  0  0  0  0
  2 11  1  0  0  0  0
  3 12  1  0  0  0  0
  4  7  1  0  0  0  0
  5  6  1  0  0  0  0
  5 14  1  0  0  0  0
  6  8  1  1  0  0  0
  7  9  2  0  0  0  0
  8 12  2  0  0  0  0
  9 10  1  0  0  0  0
  9  6  1  0  0  0  0
 10  3  2  0  0  0  0
 11  7  1  0  0  0  0
 11 13  1  0  0  0  0
 13  5  2  0  0  0  0
 14 15  1  0  0  0  0
 16 15  1  1  0  0  0
 16 22  1  0  0  0  0
 17 23  1  1  0  0  0
 17 18  1  0  0  0  0
 18 22  1  0  0  0  0
 19 20  1  0  0  0  0
 19 17  1  0  0  0  0
 20 16  1  0  0  0  0
 22 21  1  1  0  0  0
 24 25  1  0  0  0  0
 25 23  1  0  0  0  0
M  END
>  <MODEL>
1

>  <REMARK>
 VINA RESULT:      -7.5      0.000      0.000
  Name = 
  5 active torsions:
  status: ('A' for Active; 'I' for Inactive)
    1  A    between atoms: C_5  and  C_16
    2  A    between atoms: C_6  and  C_23
    3  A    between atoms: C_9  and  C_11
    4  A    between atoms: C_11  and  O_25
    5  A    between atoms: C_16  and  C_23
                            x       y       z     vdW  Elec       q    Type
                         _______ _______ _______ _____ _____    ______ ____

>  <TORSDO>
F 5

$$$$
=
 OpenBabel11072409413D

 25 28  0  0  1  0  0  0  0  0999 V2000
  183.8400  177.9660  141.4180 C   0  0  0  0  0  2  0  0  0  0  0  0
  185.5770  178.2010  140.8830 S   0  0  0  0  0  0  0  0  0  0  0  0
  184.2660  178.4070  146.9850 N   0  0  0  0  0  0  0  0  0  0  0  0
  183.6460  178.6050  142.7920 C   0  0  0  0  0  2  0  0  0  0  0  0
  187.5830  177.8920  144.3630 C   0  0  0  0  0  0  0  0  0  0  0  0
  186.5930  178.5370  145.3160 C   0  0  2  0  0  3  0  0  0  0  0  0
  184.9770  178.5690  143.4460 C   0  0  0  0  0  0  0  0  0  0  0  0
  186.6260  177.9480  146.7030 C   0  0  0  0  0  3  0  0  0  0  0  0
  185.1780  178.5970  144.7700 C   0  0  0  0  0  0  0  0  0  0  0  0
  184.0690  178.7000  145.7330 C   0  0  0  0  0  3  0  0  0  0  0  0
  186.0650  178.3450  142.5640 N   0  0  0  0  0  0  0  0  0  0  0  0
  185.5360  177.9420  147.4770 C   0  0  0  0  0  3  0  0  0  0  0  0
  187.3250  177.8710  143.0500 C   0  0  0  0  0  3  0  0  0  0  0  0
  188.9330  177.4690  144.8440 C   0  0  0  0  0  2  0  0  0  0  0  0
  189.0760  175.9600  144.7540 C   0  0  0  0  0  2  0  0  0  0  0  0
  190.4970  175.5400  145.1000 C   0  0  1  0  0  3  0  0  0  0  0  0
  193.2070  175.4010  145.8170 C   0  0  1  0  0  3  0  0  0  0  0  0
  192.2030  175.3420  146.9770 C   0  0  0  0  0  2  0  0  0  0  0  0
  192.8610  176.5320  144.8580 C   0  0  0  0  0  2  0  0  0  0  0  0
  191.4910  176.3040  144.2090 C   0  0  0  0  0  2  0  0  0  0  0  0
  189.8640  175.0720  147.3750 O   0  0  0  0  0  1  0  0  0  0  0  0
  190.7800  175.7720  146.5900 C   0  0  2  0  0  3  0  0  0  0  0  0
  194.6140  175.5930  146.3510 C   0  0  0  0  0  2  0  0  0  0  0  0
  196.2950  174.4140  145.6380 N   0  0  0  0  0  1  0  0  0  0  0  0
  195.5370  175.4880  145.3110 O   0  0  0  0  0  0  0  0  0  0  0  0
  1  4  1  0  0  0  0
  2  1  1  0  0  0  0
  2 11  1  0  0  0  0
  3 12  1  0  0  0  0
  4  7  1  0  0  0  0
  5 14  1  0  0  0  0
  5  6  1  0  0  0  0
  6  8  1  1  0  0  0
  7  9  2  0  0  0  0
  8 12  2  0  0  0  0
  9  6  1  0  0  0  0
  9 10  1  0  0  0  0
 10  3  2  0  0  0  0
 11 13  1  0  0  0  0
 11  7  1  0  0  0  0
 13  5  2  0  0  0  0
 15 14  1  0  0  0  0
 16 15  1  6  0  0  0
 16 22  1  0  0  0  0
 17 23  1  1  0  0  0
 17 18  1  0  0  0  0
 19 17  1  0  0  0  0
 20 19  1  0  0  0  0
 20 16  1  0  0  0  0
 22 18  1  0  0  0  0
 22 21  1  1  0  0  0
 25 24  1  0  0  0  0
 25 23  1  0  0  0  0
M  END
>  <MODEL>
2

>  <REMARK>
 VINA RESULT:      -7.4      1.374      1.446
  Name = 
  5 active torsions:
  status: ('A' for Active; 'I' for Inactive)
    1  A    between atoms: C_5  and  C_16
    2  A    between atoms: C_6  and  C_23
    3  A    between atoms: C_9  and  C_11
    4  A    between atoms: C_11  and  O_25
    5  A    between atoms: C_16  and  C_23
                            x       y       z     vdW  Elec       q    Type
                         _______ _______ _______ _____ _____    ______ ____

>  <TORSDO>
F 5

$$$$
=
 OpenBabel11072409413D

 25 28  0  0  1  0  0  0  0  0999 V2000
  185.4410  177.7970  140.7750 C   0  0  0  0  0  2  0  0  0  0  0  0
  187.2510  177.5420  140.9060 S   0  0  0  0  0  0  0  0  0  0  0  0
  183.9970  178.6660  146.1160 N   0  0  0  0  0  0  0  0  0  0  0  0
  184.9560  178.5970  141.9830 C   0  0  0  0  0  2  0  0  0  0  0  0
  187.7550  177.0910  144.8780 C   0  0  0  0  0  0  0  0  0  0  0  0
  186.7040  178.0520  145.4040 C   0  0  2  0  0  3  0  0  0  0  0  0
  185.9150  178.2980  143.0760 C   0  0  0  0  0  0  0  0  0  0  0  0
  186.0930  177.6130  146.7100 C   0  0  0  0  0  3  0  0  0  0  0  0
  185.6400  178.4050  144.3820 C   0  0  0  0  0  0  0  0  0  0  0  0
  184.3350  178.8740  144.8770 C   0  0  0  0  0  3  0  0  0  0  0  0
  187.1400  177.7260  142.6500 N   0  0  0  0  0  0  0  0  0  0  0  0
  184.8410  177.9530  147.0360 C   0  0  0  0  0  3  0  0  0  0  0  0
  187.9760  177.0050  143.5600 C   0  0  0  0  0  3  0  0  0  0  0  0
  188.6870  176.3970  145.8170 C   0  0  0  0  0  2  0  0  0  0  0  0
  189.6600  177.3920  146.4260 C   0  0  0  0  0  2  0  0  0  0  0  0
  191.0910  176.9010  146.2620 C   0  0  1  0  0  3  0  0  0  0  0  0
  193.4430  175.4650  145.7310 C   0  0  1  0  0  3  0  0  0  0  0  0
  192.9070  176.3230  144.5770 C   0  0  0  0  0  2  0  0  0  0  0  0
  192.3260  174.6440  146.3590 C   0  0  0  0  0  2  0  0  0  0  0  0
  191.2580  175.5500  146.9800 C   0  0  0  0  0  2  0  0  0  0  0  0
  191.2990  178.0360  144.1490 O   0  0  0  0  0  1  0  0  0  0  0  0
  191.4610  176.8000  144.7770 C   0  0  2  0  0  3  0  0  0  0  0  0
  194.5400  174.5430  145.2330 C   0  0  0  0  0  2  0  0  0  0  0  0
  196.4400  173.9620  146.1140 N   0  0  0  0  0  1  0  0  0  0  0  0
  195.7890  175.0370  145.6130 O   0  0  0  0  0  0  0  0  0  0  0  0
  1  2  1  0  0  0  0
  1  4  1  0  0  0  0
  2 11  1  0  0  0  0
  3 12  1  0  0  0  0
  4  7  1  0  0  0  0
  5  6  1  0  0  0  0
  5 14  1  0  0  0  0
  6  8  1  1  0  0  0
  7  9  2  0  0  0  0
  8 12  2  0  0  0  0
  9 10  1  0  0  0  0
  9  6  1  0  0  0  0
 10  3  2  0  0  0  0
 11  7  1  0  0  0  0
 11 13  1  0  0  0  0
 13  5  2  0  0  0  0
 14 15  1  0  0  0  0
 16 15  1  6  0  0  0
 16 20  1  0  0  0  0
 17 23  1  6  0  0  0
 17 19  1  0  0  0  0
 18 22  1  0  0  0  0
 18 17  1  0  0  0  0
 19 20  1  0  0  0  0
 22 21  1  1  0  0  0
 22 16  1  0  0  0  0
 23 25  1  0  0  0  0
 25 24  1  0  0  0  0
M  END
>  <MODEL>
3

>  <REMARK>
 VINA RESULT:      -7.2      1.351      1.679
  Name = 
  5 active torsions:
  status: ('A' for Active; 'I' for Inactive)
    1  A    between atoms: C_5  and  C_16
    2  A    between atoms: C_6  and  C_23
    3  A    between atoms: C_9  and  C_11
    4  A    between atoms: C_11  and  O_25
    5  A    between atoms: C_16  and  C_23
                            x       y       z     vdW  Elec       q    Type
                         _______ _______ _______ _____ _____    ______ ____

>  <TORSDO>
F 5

$$$$
=
 OpenBabel11072409413D

 25 28  0  0  1  0  0  0  0  0999 V2000
  185.5550  179.3410  146.1900 C   0  0  0  0  0  2  0  0  0  0  0  0
  185.4830  177.8550  147.2590 S   0  0  0  0  0  0  0  0  0  0  0  0
  189.1880  177.7550  142.2330 N   0  0  0  0  0  0  0  0  0  0  0  0
  186.0130  178.9330  144.7910 C   0  0  0  0  0  2  0  0  0  0  0  0
  188.6060  175.6940  145.9150 C   0  0  0  0  0  0  0  0  0  0  0  0
  188.5630  176.0300  144.4350 C   0  0  2  0  0  3  0  0  0  0  0  0
  186.8350  177.7110  144.9750 C   0  0  0  0  0  0  0  0  0  0  0  0
  189.9230  176.0500  143.7870 C   0  0  0  0  0  3  0  0  0  0  0  0
  187.7770  177.2890  144.1220 C   0  0  0  0  0  0  0  0  0  0  0  0
  188.0780  177.9980  142.8670 C   0  0  0  0  0  3  0  0  0  0  0  0
  186.6660  177.0680  146.2270 N   0  0  0  0  0  0  0  0  0  0  0  0
  190.1740  176.8330  142.7310 C   0  0  0  0  0  3  0  0  0  0  0  0
  187.6520  176.1590  146.7300 C   0  0  0  0  0  3  0  0  0  0  0  0
  189.5770  174.6850  146.4360 C   0  0  0  0  0  2  0  0  0  0  0  0
  190.4450  175.2990  147.5200 C   0  0  0  0  0  2  0  0  0  0  0  0
  191.9160  175.1950  147.1440 C   0  0  1  0  0  3  0  0  0  0  0  0
  194.4200  175.2160  145.8770 C   0  0  1  0  0  3  0  0  0  0  0  0
  194.0110  176.5200  146.5750 C   0  0  0  0  0  2  0  0  0  0  0  0
  193.2810  174.6790  145.0220 C   0  0  0  0  0  2  0  0  0  0  0  0
  192.0650  174.3240  145.8840 C   0  0  0  0  0  2  0  0  0  0  0  0
  192.3710  177.3600  148.0930 O   0  0  0  0  0  1  0  0  0  0  0  0
  192.5220  176.5890  146.9400 C   0  0  2  0  0  3  0  0  0  0  0  0
  195.6460  175.4450  145.0130 C   0  0  0  0  0  2  0  0  0  0  0  0
  196.3070  176.6310  143.3150 N   0  0  0  0  0  1  0  0  0  0  0  0
  195.6180  176.7330  144.4770 O   0  0  0  0  0  0  0  0  0  0  0  0
  1  2  1  0  0  0  0
  3 12  1  0  0  0  0
  3 10  2  0  0  0  0
  4  7  1  0  0  0  0
  4  1  1  0  0  0  0
  5 14  1  0  0  0  0
  5 13  2  0  0  0  0
  6  8  1  1  0  0  0
  6  5  1  0  0  0  0
  7 11  1  0  0  0  0
  9  6  1  0  0  0  0
  9  7  2  0  0  0  0
 10  9  1  0  0  0  0
 11 13  1  0  0  0  0
 11  2  1  0  0  0  0
 12  8  2  0  0  0  0
 14 15  1  0  0  0  0
 16 15  1  6  0  0  0
 17 23  1  6  0  0  0
 17 18  1  0  0  0  0
 18 22  1  0  0  0  0
 19 17  1  0  0  0  0
 19 20  1  0  0  0  0
 20 16  1  0  0  0  0
 22 16  1  0  0  0  0
 22 21  1  1  0  0  0
 24 25  1  0  0  0  0
 25 23  1  0  0  0  0
M  END
>  <MODEL>
4

>  <REMARK>
 VINA RESULT:      -7.2      2.194      3.528
  Name = 
  5 active torsions:
  status: ('A' for Active; 'I' for Inactive)
    1  A    between atoms: C_5  and  C_16
    2  A    between atoms: C_6  and  C_23
    3  A    between atoms: C_9  and  C_11
    4  A    between atoms: C_11  and  O_25
    5  A    between atoms: C_16  and  C_23
                            x       y       z     vdW  Elec       q    Type
                         _______ _______ _______ _____ _____    ______ ____

>  <TORSDO>
F 5

$$$$
=
 OpenBabel11072409413D

 25 28  0  0  1  0  0  0  0  0999 V2000
  184.8330  178.8150  146.9510 C   0  0  0  0  0  2  0  0  0  0  0  0
  185.9480  177.4920  147.5530 S   0  0  0  0  0  0  0  0  0  0  0  0
  184.9760  178.0290  141.4080 N   0  0  0  0  0  0  0  0  0  0  0  0
  184.2900  178.4300  145.5760 C   0  0  0  0  0  2  0  0  0  0  0  0
  187.7180  176.2640  144.1480 C   0  0  0  0  0  0  0  0  0  0  0  0
  186.5730  176.4220  143.1640 C   0  0  2  0  0  3  0  0  0  0  0  0
  185.3140  177.5420  144.9720 C   0  0  0  0  0  0  0  0  0  0  0  0
  187.0250  176.7930  141.7750 C   0  0  0  0  0  3  0  0  0  0  0  0
  185.4740  177.3450  143.6570 C   0  0  0  0  0  0  0  0  0  0  0  0
  184.6050  177.9830  142.6540 C   0  0  0  0  0  3  0  0  0  0  0  0
  186.2490  177.0050  145.8920 N   0  0  0  0  0  0  0  0  0  0  0  0
  186.2390  177.5050  140.9600 C   0  0  0  0  0  3  0  0  0  0  0  0
  187.5120  176.4950  145.4500 C   0  0  0  0  0  3  0  0  0  0  0  0
  189.0120  175.6570  143.7140 C   0  0  0  0  0  2  0  0  0  0  0  0
  189.3140  174.4150  144.5360 C   0  0  0  0  0  2  0  0  0  0  0  0
  190.7530  174.4430  145.0300 C   0  0  1  0  0  3  0  0  0  0  0  0
  193.3920  175.1010  145.7210 C   0  0  1  0  0  3  0  0  0  0  0  0
  192.3260  175.3980  146.7850 C   0  0  0  0  0  2  0  0  0  0  0  0
  192.9480  175.6080  144.3550 C   0  0  0  0  0  2  0  0  0  0  0  0
  191.6810  174.8850  143.8850 C   0  0  0  0  0  2  0  0  0  0  0  0
  190.0340  174.9410  147.2720 O   0  0  0  0  0  1  0  0  0  0  0  0
  190.8870  175.3610  146.2520 C   0  0  2  0  0  3  0  0  0  0  0  0
  194.7100  175.7480  146.1050 C   0  0  0  0  0  2  0  0  0  0  0  0
  194.9470  177.9000  145.9230 N   0  0  0  0  0  1  0  0  0  0  0  0
  194.4760  176.9520  146.7670 O   0  0  0  0  0  0  0  0  0  0  0  0
  1  2  1  0  0  0  0
  3 10  2  0  0  0  0
  4  1  1  0  0  0  0
  5 13  2  0  0  0  0
  6  8  1  6  0  0  0
  6  9  1  0  0  0  0
  6  5  1  0  0  0  0
  7  4  1  0  0  0  0
  7 11  1  0  0  0  0
  9  7  2  0  0  0  0
 10  9  1  0  0  0  0
 11  2  1  0  0  0  0
 12  3  1  0  0  0  0
 12  8  2  0  0  0  0
 13 11  1  0  0  0  0
 14  5  1  0  0  0  0
 14 15  1  0  0  0  0
 16 15  1  6  0  0  0
 16 22  1  0  0  0  0
 17 23  1  1  0  0  0
 17 18  1  0  0  0  0
 19 17  1  0  0  0  0
 20 19  1  0  0  0  0
 20 16  1  0  0  0  0
 22 18  1  0  0  0  0
 22 21  1  1  0  0  0
 23 25  1  0  0  0  0
 24 25  1  0  0  0  0
M  END
>  <MODEL>
5

>  <REMARK>
 VINA RESULT:      -7.2      2.150      3.305
  Name = 
  5 active torsions:
  status: ('A' for Active; 'I' for Inactive)
    1  A    between atoms: C_5  and  C_16
    2  A    between atoms: C_6  and  C_23
    3  A    between atoms: C_9  and  C_11
    4  A    between atoms: C_11  and  O_25
    5  A    between atoms: C_16  and  C_23
                            x       y       z     vdW  Elec       q    Type
                         _______ _______ _______ _____ _____    ______ ____

>  <TORSDO>
F 5

$$$$
=
 OpenBabel11072409413D

 25 28  0  0  1  0  0  0  0  0999 V2000
  195.0350  175.4550  146.0450 C   0  0  0  0  0  2  0  0  0  0  0  0
  193.9280  176.7710  146.6770 S   0  0  0  0  0  0  0  0  0  0  0  0
  191.4000  171.9180  143.6690 N   0  0  0  0  0  0  0  0  0  0  0  0
  194.3400  174.7190  144.9000 C   0  0  0  0  0  2  0  0  0  0  0  0
  190.2950  175.0680  146.3140 C   0  0  0  0  0  0  0  0  0  0  0  0
  190.4890  174.2630  145.0420 C   0  0  2  0  0  3  0  0  0  0  0  0
  192.8850  174.8570  145.1560 C   0  0  0  0  0  0  0  0  0  0  0  0
  189.6950  172.9830  145.0170 C   0  0  0  0  0  3  0  0  0  0  0  0
  191.9460  174.0220  144.6930 C   0  0  0  0  0  0  0  0  0  0  0  0
  192.2700  172.8710  143.8340 C   0  0  0  0  0  3  0  0  0  0  0  0
  192.5400  175.8760  146.0790 N   0  0  0  0  0  0  0  0  0  0  0  0
  190.1220  171.9180  144.3300 C   0  0  0  0  0  3  0  0  0  0  0  0
  191.2740  175.8720  146.7480 C   0  0  0  0  0  3  0  0  0  0  0  0
  188.9560  175.1350  146.9730 C   0  0  0  0  0  2  0  0  0  0  0  0
  188.3900  176.5410  146.8760 C   0  0  0  0  0  2  0  0  0  0  0  0
  187.4670  176.6580  145.6720 C   0  0  1  0  0  3  0  0  0  0  0  0
  185.5650  177.4110  143.7500 C   0  0  1  0  0  3  0  0  0  0  0  0
  186.9780  177.9770  143.5520 C   0  0  0  0  0  2  0  0  0  0  0  0
  185.1110  177.5810  145.1930 C   0  0  0  0  0  2  0  0  0  0  0  0
  186.0110  176.7920  146.1500 C   0  0  0  0  0  2  0  0  0  0  0  0
  189.2040  177.6970  144.3690 O   0  0  0  0  0  1  0  0  0  0  0  0
  187.8810  177.8400  144.7870 C   0  0  2  0  0  3  0  0  0  0  0  0
  184.5880  178.1040  142.8190 C   0  0  0  0  0  2  0  0  0  0  0  0
  184.5610  178.2870  140.6540 N   0  0  0  0  0  1  0  0  0  0  0  0
  185.2720  178.6670  141.7420 O   0  0  0  0  0  0  0  0  0  0  0  0
  1  2  1  0  0  0  0
  3 10  2  0  0  0  0
  3 12  1  0  0  0  0
  4  7  1  0  0  0  0
  4  1  1  0  0  0  0
  5 13  2  0  0  0  0
  5 14  1  0  0  0  0
  6  8  1  1  0  0  0
  6  5  1  0  0  0  0
  7 11  1  0  0  0  0
  9  6  1  0  0  0  0
  9  7  2  0  0  0  0
 10  9  1  0  0  0  0
 11  2  1  0  0  0  0
 11 13  1  0  0  0  0
 12  8  2  0  0  0  0
 15 14  1  0  0  0  0
 16 20  1  0  0  0  0
 16 15  1  1  0  0  0
 17 23  1  6  0  0  0
 17 19  1  0  0  0  0
 18 17  1  0  0  0  0
 18 22  1  0  0  0  0
 19 20  1  0  0  0  0
 22 21  1  6  0  0  0
 22 16  1  0  0  0  0
 24 25  1  0  0  0  0
 25 23  1  0  0  0  0
M  END
>  <MODEL>
6

>  <REMARK>
 VINA RESULT:      -7.0      3.673      7.803
  Name = 
  5 active torsions:
  status: ('A' for Active; 'I' for Inactive)
    1  A    between atoms: C_5  and  C_16
    2  A    between atoms: C_6  and  C_23
    3  A    between atoms: C_9  and  C_11
    4  A    between atoms: C_11  and  O_25
    5  A    between atoms: C_16  and  C_23
                            x       y       z     vdW  Elec       q    Type
                         _______ _______ _______ _____ _____    ______ ____

>  <TORSDO>
F 5

$$$$
=
 OpenBabel11072409413D

 25 28  0  0  1  0  0  0  0  0999 V2000
  185.8140  177.7660  140.7550 C   0  0  0  0  0  2  0  0  0  0  0  0
  187.6030  177.6140  141.1210 S   0  0  0  0  0  0  0  0  0  0  0  0
  183.6850  178.9010  145.8090 N   0  0  0  0  0  0  0  0  0  0  0  0
  185.1500  178.6160  141.8370 C   0  0  0  0  0  2  0  0  0  0  0  0
  187.6330  177.4460  145.1460 C   0  0  0  0  0  0  0  0  0  0  0  0
  186.4840  178.3830  145.4740 C   0  0  2  0  0  3  0  0  0  0  0  0
  185.9780  178.4380  143.0560 C   0  0  0  0  0  0  0  0  0  0  0  0
  185.7360  177.9970  146.7240 C   0  0  0  0  0  3  0  0  0  0  0  0
  185.5400  178.6140  144.3090 C   0  0  0  0  0  0  0  0  0  0  0  0
  184.1640  179.0460  144.6090 C   0  0  0  0  0  3  0  0  0  0  0  0
  187.2700  177.9040  142.8210 N   0  0  0  0  0  0  0  0  0  0  0  0
  184.4400  178.2920  146.8730 C   0  0  0  0  0  3  0  0  0  0  0  0
  188.0180  177.2870  143.8740 C   0  0  0  0  0  3  0  0  0  0  0  0
  188.4700  176.8620  146.2370 C   0  0  0  0  0  2  0  0  0  0  0  0
  189.9290  177.2350  146.0390 C   0  0  0  0  0  2  0  0  0  0  0  0
  190.7710  175.9870  145.8240 C   0  0  1  0  0  3  0  0  0  0  0  0
  191.8760  173.5470  144.9840 C   0  0  1  0  0  3  0  0  0  0  0  0
  192.3410  174.7920  144.2170 C   0  0  0  0  0  2  0  0  0  0  0  0
  190.3610  173.5390  145.1360 C   0  0  0  0  0  2  0  0  0  0  0  0
  189.8840  174.7370  145.9650 C   0  0  0  0  0  2  0  0  0  0  0  0
  192.2630  177.1750  144.3550 O   0  0  0  0  0  1  0  0  0  0  0  0
  191.4680  176.0330  144.4590 C   0  0  2  0  0  3  0  0  0  0  0  0
  192.3260  172.2890  144.2640 C   0  0  0  0  0  2  0  0  0  0  0  0
  191.4330  171.2970  142.5490 N   0  0  0  0  0  1  0  0  0  0  0  0
  191.2160  171.5470  143.8620 O   0  0  0  0  0  0  0  0  0  0  0  0
  1  2  1  0  0  0  0
  1  4  1  0  0  0  0
  2 11  1  0  0  0  0
  3 12  1  0  0  0  0
  4  7  1  0  0  0  0
  5  6  1  0  0  0  0
  5 14  1  0  0  0  0
  6  8  1  1  0  0  0
  7  9  2  0  0  0  0
  8 12  2  0  0  0  0
  9 10  1  0  0  0  0
  9  6  1  0  0  0  0
 10  3  2  0  0  0  0
 11  7  1  0  0  0  0
 11 13  1  0  0  0  0
 13  5  2  0  0  0  0
 15 14  1  0  0  0  0
 16 20  1  0  0  0  0
 16 15  1  6  0  0  0
 17 23  1  6  0  0  0
 17 19  1  0  0  0  0
 18 22  1  0  0  0  0
 18 17  1  0  0  0  0
 19 20  1  0  0  0  0
 22 21  1  1  0  0  0
 22 16  1  0  0  0  0
 24 25  1  0  0  0  0
 25 23  1  0  0  0  0
M  END
>  <MODEL>
7

>  <REMARK>
 VINA RESULT:      -7.0      2.315      2.717
  Name = 
  5 active torsions:
  status: ('A' for Active; 'I' for Inactive)
    1  A    between atoms: C_5  and  C_16
    2  A    between atoms: C_6  and  C_23
    3  A    between atoms: C_9  and  C_11
    4  A    between atoms: C_11  and  O_25
    5  A    between atoms: C_16  and  C_23
                            x       y       z     vdW  Elec       q    Type
                         _______ _______ _______ _____ _____    ______ ____

>  <TORSDO>
F 5

$$$$
=
 OpenBabel11072409413D

 25 28  0  0  1  0  0  0  0  0999 V2000
  191.6990  171.9220  142.7620 C   0  0  0  0  0  2  0  0  0  0  0  0
  190.0960  172.1570  143.6170 S   0  0  0  0  0  0  0  0  0  0  0  0
  195.1410  175.0780  145.8550 N   0  0  0  0  0  0  0  0  0  0  0  0
  192.8380  172.2090  143.7400 C   0  0  0  0  0  2  0  0  0  0  0  0
  190.8910  175.2510  146.0710 C   0  0  0  0  0  0  0  0  0  0  0  0
  192.3360  174.9590  146.4320 C   0  0  2  0  0  3  0  0  0  0  0  0
  192.2880  173.1680  144.7300 C   0  0  0  0  0  0  0  0  0  0  0  0
  193.1570  176.2000  146.6690 C   0  0  0  0  0  3  0  0  0  0  0  0
  193.0230  174.0130  145.4640 C   0  0  0  0  0  0  0  0  0  0  0  0
  194.4920  174.0540  145.3820 C   0  0  0  0  0  3  0  0  0  0  0  0
  190.8720  173.2500  144.7520 N   0  0  0  0  0  0  0  0  0  0  0  0
  194.4740  176.2130  146.4330 C   0  0  0  0  0  3  0  0  0  0  0  0
  190.2060  174.3850  145.3150 C   0  0  0  0  0  3  0  0  0  0  0  0
  190.1630  176.3850  146.7180 C   0  0  0  0  0  2  0  0  0  0  0  0
  188.6780  176.0780  146.8010 C   0  0  0  0  0  2  0  0  0  0  0  0
  187.8640  177.2480  146.2680 C   0  0  1  0  0  3  0  0  0  0  0  0
  186.1930  178.9840  144.8280 C   0  0  1  0  0  3  0  0  0  0  0  0
  185.5130  178.1580  145.9290 C   0  0  0  0  0  2  0  0  0  0  0  0
  187.0870  178.1030  143.9660 C   0  0  0  0  0  2  0  0  0  0  0  0
  188.2270  177.4980  144.7940 C   0  0  0  0  0  2  0  0  0  0  0  0
  186.0610  176.7610  147.7860 O   0  0  0  0  0  1  0  0  0  0  0  0
  186.3630  176.9870  146.4430 C   0  0  2  0  0  3  0  0  0  0  0  0
  185.1490  179.6600  143.9600 C   0  0  0  0  0  2  0  0  0  0  0  0
  183.9110  178.2950  142.8080 N   0  0  0  0  0  1  0  0  0  0  0  0
  185.0580  179.0110  142.7290 O   0  0  0  0  0  0  0  0  0  0  0  0
  1  2  1  0  0  0  0
  1  4  1  0  0  0  0
  2 11  1  0  0  0  0
  3 12  1  0  0  0  0
  4  7  1  0  0  0  0
  5  6  1  0  0  0  0
  5 14  1  0  0  0  0
  6  8  1  6  0  0  0
  7 11  1  0  0  0  0
  7  9  2  0  0  0  0
  9  6  1  0  0  0  0
 10  9  1  0  0  0  0
 10  3  2  0  0  0  0
 11 13  1  0  0  0  0
 12  8  2  0  0  0  0
 13  5  2  0  0  0  0
 14 15  1  0  0  0  0
 16 22  1  0  0  0  0
 16 15  1  6  0  0  0
 17 23  1  6  0  0  0
 17 18  1  0  0  0  0
 18 22  1  0  0  0  0
 19 20  1  0  0  0  0
 19 17  1  0  0  0  0
 20 16  1  0  0  0  0
 22 21  1  1  0  0  0
 25 24  1  0  0  0  0
 25 23  1  0  0  0  0
M  END
>  <MODEL>
8

>  <REMARK>
 VINA RESULT:      -6.9      3.313      7.851
  Name = 
  5 active torsions:
  status: ('A' for Active; 'I' for Inactive)
    1  A    between atoms: C_5  and  C_16
    2  A    between atoms: C_6  and  C_23
    3  A    between atoms: C_9  and  C_11
    4  A    between atoms: C_11  and  O_25
    5  A    between atoms: C_16  and  C_23
                            x       y       z     vdW  Elec       q    Type
                         _______ _______ _______ _____ _____    ______ ____

>  <TORSDO>
F 5

$$$$
=
 OpenBabel11072409413D

 25 28  0  0  1  0  0  0  0  0999 V2000
  194.9770  175.8290  144.5140 C   0  0  0  0  0  2  0  0  0  0  0  0
  194.3370  174.5780  143.3390 S   0  0  0  0  0  0  0  0  0  0  0  0
  190.4440  176.9460  147.6090 N   0  0  0  0  0  0  0  0  0  0  0  0
  194.1020  175.8360  145.7670 C   0  0  0  0  0  2  0  0  0  0  0  0
  190.3570  174.8410  143.9070 C   0  0  0  0  0  0  0  0  0  0  0  0
  190.3050  175.1280  145.3970 C   0  0  2  0  0  3  0  0  0  0  0  0
  192.7630  175.3730  145.3280 C   0  0  0  0  0  0  0  0  0  0  0  0
  189.1450  176.0030  145.7970 C   0  0  0  0  0  3  0  0  0  0  0  0
  191.6150  175.6480  145.9590 C   0  0  0  0  0  0  0  0  0  0  0  0
  191.5700  176.4340  147.2040 C   0  0  0  0  0  3  0  0  0  0  0  0
  192.7460  174.7200  144.0700 N   0  0  0  0  0  0  0  0  0  0  0  0
  189.2220  176.8090  146.8620 C   0  0  0  0  0  3  0  0  0  0  0  0
  191.5330  174.5930  143.3190 C   0  0  0  0  0  3  0  0  0  0  0  0
  189.0980  174.6250  143.1320 C   0  0  0  0  0  2  0  0  0  0  0  0
  189.0210  175.5990  141.9700 C   0  0  0  0  0  2  0  0  0  0  0  0
  187.7210  176.3890  142.0250 C   0  0  1  0  0  3  0  0  0  0  0  0
  185.4220  177.8190  142.7640 C   0  0  1  0  0  3  0  0  0  0  0  0
  186.6900  178.6550  142.5440 C   0  0  0  0  0  2  0  0  0  0  0  0
  185.7200  176.6030  143.6320 C   0  0  0  0  0  2  0  0  0  0  0  0
  186.7190  175.6670  142.9430 C   0  0  0  0  0  2  0  0  0  0  0  0
  188.8940  178.4560  141.6470 O   0  0  0  0  0  1  0  0  0  0  0  0
  187.9810  177.8260  142.4930 C   0  0  2  0  0  3  0  0  0  0  0  0
  184.3440  178.6630  143.4170 C   0  0  0  0  0  2  0  0  0  0  0  0
  184.1720  179.0400  145.5510 N   0  0  0  0  0  1  0  0  0  0  0  0
  184.8880  179.4090  144.4620 O   0  0  0  0  0  0  0  0  0  0  0  0
  1  4  1  0  0  0  0
  2 11  1  0  0  0  0
  2  1  1  0  0  0  0
  5  6  1  0  0  0  0
  6  8  1  6  0  0  0
  6  9  1  0  0  0  0
  7  4  1  0  0  0  0
  7  9  2  0  0  0  0
  8 12  2  0  0  0  0
  9 10  1  0  0  0  0
 10  3  2  0  0  0  0
 11  7  1  0  0  0  0
 12  3  1  0  0  0  0
 13  5  2  0  0  0  0
 13 11  1  0  0  0  0
 14  5  1  0  0  0  0
 15 14  1  0  0  0  0
 16 15  1  1  0  0  0
 16 22  1  0  0  0  0
 16 20  1  0  0  0  0
 17 23  1  1  0  0  0
 17 19  1  0  0  0  0
 18 17  1  0  0  0  0
 20 19  1  0  0  0  0
 22 21  1  6  0  0  0
 22 18  1  0  0  0  0
 23 25  1  0  0  0  0
 25 24  1  0  0  0  0
M  END
>  <MODEL>
9

>  <REMARK>
 VINA RESULT:      -6.7      3.369      7.491
  Name = 
  5 active torsions:
  status: ('A' for Active; 'I' for Inactive)
    1  A    between atoms: C_5  and  C_16
    2  A    between atoms: C_6  and  C_23
    3  A    between atoms: C_9  and  C_11
    4  A    between atoms: C_11  and  O_25
    5  A    between atoms: C_16  and  C_23
                            x       y       z     vdW  Elec       q    Type
                         _______ _______ _______ _____ _____    ______ ____

>  <TORSDO>
F 5

$$$$
