=
 OpenBabel11072408313D

 62 67  0  0  1  0  0  0  0  0999 V2000
  191.1060  176.2260  145.6340 C   0  0  0  0  0  0  0  0  0  0  0  0
  191.3840  177.3280  145.0960 O   0  0  0  0  0  0  0  0  0  0  0  0
  189.9660  176.1030  146.4910 N   0  0  0  0  0  2  0  0  0  0  0  0
  192.3440  173.4890  143.7580 C   0  0  1  0  0  3  0  0  0  0  0  0
  193.2920  175.4490  144.7500 C   0  0  2  0  0  3  0  0  0  0  0  0
  191.9650  175.0340  145.3520 C   0  0  2  0  0  3  0  0  0  0  0  0
  191.3230  174.1410  144.4750 O   0  0  0  0  0  0  0  0  0  0  0  0
  193.5510  174.4060  143.7060 C   0  0  0  0  0  2  0  0  0  0  0  0
  194.6230  175.3870  146.0560 P   0  0  1  0  0  0  0  0  0  0  0  0
  195.9860  175.5570  144.9950 O   0  0  0  0  0  1  0  0  0  0  0  0
  194.8990  178.0100  145.5260 O   0  0  0  0  0  1  0  0  0  0  0  0
  194.5580  177.1720  146.5930 C   0  0  0  0  0  2  0  0  0  0  0  0
  192.6700  172.1460  144.4200 C   0  0  1  0  0  3  0  0  0  0  0  0
  191.7360  171.0650  143.8860 C   0  0  0  0  0  1  0  0  0  0  0  0
  194.1460  171.7490  144.2580 C   0  0  1  0  0  3  0  0  0  0  0  0
  194.6920  170.0170  146.0610 C   0  0  0  0  0  1  0  0  0  0  0  0
  196.2440  171.9160  145.6410 C   0  0  0  0  0  1  0  0  0  0  0  0
  194.7960  171.4720  145.6280 C   0  0  0  0  0  3  0  0  0  0  0  0
  194.2970  170.6460  143.3090 N   0  0  0  0  0  2  0  0  0  0  0  0
  194.9520  171.1530  142.1130 C   0  0  0  0  0  2  0  0  0  0  0  0
  194.2580  170.6670  140.9260 N   0  0  0  0  0  2  0  0  0  0  0  0
  193.5450  173.8370  138.4720 C   0  0  0  0  0  0  0  0  0  0  0  0
  193.4570  172.6450  137.8700 C   0  0  0  0  0  3  0  0  0  0  0  0
  194.6690  171.4790  139.7850 C   0  0  2  0  0  3  0  0  0  0  0  0
  194.9890  172.9180  140.2450 C   0  0  0  0  0  2  0  0  0  0  0  0
  193.8540  173.8950  139.9400 C   0  0  0  0  0  2  0  0  0  0  0  0
  193.5970  171.3760  138.6720 C   0  0  2  0  0  3  0  0  0  0  0  0
  195.1770  169.8500  137.7470 F   0  0  0  0  0  0  0  0  0  0  0  0
  193.4450  170.4720  136.4650 F   0  0  0  0  0  0  0  0  0  0  0  0
  193.8320  170.1700  137.7580 C   0  0  0  0  0  0  0  0  0  0  0  0
  193.1060  169.0800  138.2050 F   0  0  0  0  0  0  0  0  0  0  0  0
  194.4650  175.1070  136.6430 N   0  0  0  0  0  1  0  0  0  0  0  0
  193.4330  175.0860  137.6650 C   0  0  0  0  0  2  0  0  0  0  0  0
  188.9910  177.1690  146.6910 C   0  0  2  0  0  0  0  0  0  0  0  0
  187.5840  176.6410  146.9050 C   0  0  2  0  0  3  0  0  0  0  0  0
  187.9370  177.3650  145.6010 C   0  0  2  0  0  3  0  0  0  0  0  0
  189.4270  178.3910  147.4910 C   0  0  0  0  0  1  0  0  0  0  0  0
  188.2210  175.1870  144.7160 O   0  0  0  0  0  0  0  0  0  0  0  0
  188.0070  176.3650  144.4780 C   0  0  0  0  0  0  0  0  0  0  0  0
  187.8370  176.8360  143.0590 C   0  0  1  0  0  3  0  0  0  0  0  0
  185.6470  177.7140  141.0760 C   0  0  2  0  0  3  0  0  0  0  0  0
  185.5180  177.8650  143.4390 C   0  0  0  0  0  2  0  0  0  0  0  0
  184.4050  178.5550  141.3200 C   0  0  2  0  0  3  0  0  0  0  0  0
  184.7390  177.3980  142.2450 C   0  0  1  0  0  3  0  0  0  0  0  0
  186.7910  178.3920  141.5480 O   0  0  0  0  0  0  0  0  0  0  0  0
  186.9200  178.0680  142.9110 C   0  0  2  0  0  3  0  0  0  0  0  0
  183.2910  178.1090  140.3840 C   0  0  0  0  0  2  0  0  0  0  0  0
  181.9670  178.7720  140.7450 C   0  0  0  0  0  2  0  0  0  0  0  0
  181.7740  178.7520  142.1260 O   0  0  0  0  0  1  0  0  0  0  0  0
  189.2150  177.0890  142.4560 C   0  0  0  0  0  2  0  0  0  0  0  0
  189.7600  175.8790  141.8560 N   0  0  0  0  0  2  0  0  0  0  0  0
  188.6900  175.2220  141.1120 C   0  0  0  0  0  2  0  0  0  0  0  0
  190.6560  172.0430  140.4080 C   0  0  0  0  0  3  0  0  0  0  0  0
  189.9120  171.5250  139.3460 C   0  0  0  0  0  0  0  0  0  0  0  0
  189.1300  173.9160  140.5180 C   0  0  0  0  0  0  0  0  0  0  0  0
  188.7840  172.2150  138.8960 C   0  0  0  0  0  3  0  0  0  0  0  0
  188.4220  173.3870  139.4830 N   0  0  0  0  0  0  0  0  0  0  0  0
  190.2740  170.3540  138.7640 F   0  0  0  0  0  0  0  0  0  0  0  0
  190.2720  173.2490  140.9920 C   0  0  0  0  0  3  0  0  0  0  0  0
  186.6790  177.5310  147.7510 C   0  0  0  0  0  2  0  0  0  0  0  0
  185.3370  177.2530  147.4730 O   0  0  0  0  0  0  0  0  0  0  0  0
  184.7820  178.4770  147.1000 C   0  0  0  0  0  1  0  0  0  0  0  0
  1  3  1  0  0  0  0
  2  1  2  0  0  0  0
  3 34  1  0  0  0  0
  4 13  1  1  0  0  0
  4  7  1  0  0  0  0
  5  6  1  0  0  0  0
  5  9  1  1  0  0  0
  6  1  1  6  0  0  0
  7  6  1  0  0  0  0
  8  4  1  0  0  0  0
  8  5  1  0  0  0  0
  9 10  1  6  0  0  0
  9 12  1  0  0  0  0
 11 12  1  0  0  0  0
 13 14  1  6  0  0  0
 15 19  1  6  0  0  0
 15 13  1  0  0  0  0
 15 18  1  0  0  0  0
 18 17  1  0  0  0  0
 18 16  1  0  0  0  0
 20 19  1  0  0  0  0
 21 20  1  0  0  0  0
 22 26  1  0  0  0  0
 23 22  2  0  0  0  0
 23 27  1  0  0  0  0
 24 25  1  0  0  0  0
 24 21  1  1  0  0  0
 26 25  1  0  0  0  0
 27 30  1  6  0  0  0
 27 24  1  0  0  0  0
 28 30  1  0  0  0  0
 29 30  1  0  0  0  0
 30 31  1  0  0  0  0
 32 33  1  0  0  0  0
 33 22  1  0  0  0  0
 34 35  1  0  0  0  0
 34 37  1  1  0  0  0
 35 60  1  1  0  0  0
 36 39  1  6  0  0  0
 36 34  1  0  0  0  0
 36 35  1  0  0  0  0
 39 38  2  0  0  0  0
 40 50  1  1  0  0  0
 40 39  1  0  0  0  0
 41 43  1  0  0  0  0
 41 45  1  1  0  0  0
 41 44  1  0  0  0  0
 43 47  1  6  0  0  0
 43 44  1  0  0  0  0
 44 42  1  1  0  0  0
 45 46  1  0  0  0  0
 46 40  1  6  0  0  0
 46 42  1  0  0  0  0
 47 48  1  0  0  0  0
 48 49  1  0  0  0  0
 51 50  1  0  0  0  0
 52 51  1  0  0  0  0
 53 59  1  0  0  0  0
 54 53  2  0  0  0  0
 55 59  2  0  0  0  0
 55 52  1  0  0  0  0
 56 54  1  0  0  0  0
 56 57  2  0  0  0  0
 57 55  1  0  0  0  0
 58 54  1  0  0  0  0
 61 60  1  0  0  0  0
 62 61  1  0  0  0  0
M  END
>  <MODEL>
1

>  <REMARK>
 VINA RESULT:      -5.4      0.000      0.000
  Name = 
  24 active torsions:
  status: ('A' for Active; 'I' for Inactive)
    1  A    between atoms: C_1  and  C_30
    2  A    between atoms: P_2  and  C_10
    3  A    between atoms: P_2  and  C_31
    4  A    between atoms: C_3  and  C_47
    5  A    between atoms: C_4  and  C_60
    6  A    between atoms: N_8  and  C_12
    7  A    between atoms: N_8  and  C_29
    8  A    between atoms: N_9  and  C_12
    9  A    between atoms: N_9  and  C_23
   10  A    between atoms: C_14  and  C_39
   11  A    between atoms: C_15  and  C_46
   12  A    between atoms: C_15  and  C_53
   13  A    between atoms: C_15  and  C_62
   14  A    between atoms: O_16  and  C_32
   15  A    between atoms: C_20  and  C_47
   16  A    between atoms: C_29  and  C_30
   17  A    between atoms: C_29  and  C_52
   18  A    between atoms: C_32  and  C_40
   19  A    between atoms: C_33  and  N_57
   20  A    between atoms: C_34  and  N_35
   21  A    between atoms: C_34  and  C_37
   22  A    between atoms: N_35  and  C_46
   23  A    between atoms: C_42  and  C_62
   24  A    between atoms: C_45  and  C_55
                            x       y       z     vdW  Elec       q    Type
                         _______ _______ _______ _____ _____    ______ ____

>  <TORSDO>
F 24

$$$$
=
 OpenBabel11072408313D

 62 67  0  0  1  0  0  0  0  0999 V2000
  193.4060  174.2510  142.2310 C   0  0  0  0  0  0  0  0  0  0  0  0
  193.4350  175.0770  141.2830 O   0  0  0  0  0  0  0  0  0  0  0  0
  192.6030  174.5040  143.3900 N   0  0  0  0  0  2  0  0  0  0  0  0
  193.9340  170.7560  142.0350 C   0  0  1  0  0  3  0  0  0  0  0  0
  194.5010  172.6480  140.6860 C   0  0  2  0  0  3  0  0  0  0  0  0
  194.2020  172.9890  142.1310 C   0  0  2  0  0  3  0  0  0  0  0  0
  193.5230  171.9110  142.7250 O   0  0  0  0  0  0  0  0  0  0  0  0
  194.3440  171.1590  140.6310 C   0  0  0  0  0  2  0  0  0  0  0  0
  196.2610  173.1180  140.2780 P   0  0  1  0  0  0  0  0  0  0  0  0
  196.5620  171.8660  139.1130 O   0  0  0  0  0  1  0  0  0  0  0  0
  194.7260  174.1770  138.3390 O   0  0  0  0  0  1  0  0  0  0  0  0
  195.9000  174.4660  139.0420 C   0  0  0  0  0  2  0  0  0  0  0  0
  195.0780  170.0740  142.7950 C   0  0  1  0  0  3  0  0  0  0  0  0
  196.1540  169.6230  141.8140 C   0  0  0  0  0  1  0  0  0  0  0  0
  195.6610  170.9610  143.9060 C   0  0  1  0  0  3  0  0  0  0  0  0
  194.3370  169.2260  145.2430 C   0  0  0  0  0  1  0  0  0  0  0  0
  196.4240  170.2020  146.1840 C   0  0  0  0  0  1  0  0  0  0  0  0
  195.2230  170.4620  145.2970 C   0  0  0  0  0  3  0  0  0  0  0  0
  197.1110  171.0990  143.7690 N   0  0  0  0  0  2  0  0  0  0  0  0
  197.5300  172.2990  144.4760 C   0  0  0  0  0  2  0  0  0  0  0  0
  197.4500  173.4520  143.5870 N   0  0  0  0  0  2  0  0  0  0  0  0
  194.9410  175.8440  145.7220 C   0  0  0  0  0  0  0  0  0  0  0  0
  195.4260  176.4090  144.6100 C   0  0  0  0  0  3  0  0  0  0  0  0
  197.2570  174.6500  144.3970 C   0  0  2  0  0  3  0  0  0  0  0  0
  196.8260  174.2600  145.8270 C   0  0  0  0  0  2  0  0  0  0  0  0
  195.3240  174.4300  146.0520 C   0  0  0  0  0  2  0  0  0  0  0  0
  196.2880  175.6110  143.6660 C   0  0  2  0  0  3  0  0  0  0  0  0
  197.6810  177.5250  143.3780 F   0  0  0  0  0  0  0  0  0  0  0  0
  196.1170  177.1210  141.8210 F   0  0  0  0  0  0  0  0  0  0  0  0
  197.0220  176.5280  142.6820 C   0  0  0  0  0  0  0  0  0  0  0  0
  197.9410  175.8020  141.9440 F   0  0  0  0  0  0  0  0  0  0  0  0
  192.9030  175.9210  147.0040 N   0  0  0  0  0  1  0  0  0  0  0  0
  194.1120  176.6500  146.6630 C   0  0  0  0  0  2  0  0  0  0  0  0
  191.6780  175.6260  143.4980 C   0  0  2  0  0  0  0  0  0  0  0  0
  190.4960  175.3240  144.4010 C   0  0  2  0  0  3  0  0  0  0  0  0
  190.2870  175.4480  142.8880 C   0  0  2  0  0  3  0  0  0  0  0  0
  192.2670  177.0320  143.5360 C   0  0  0  0  0  1  0  0  0  0  0  0
  190.1390  173.0870  143.0030 O   0  0  0  0  0  0  0  0  0  0  0  0
  190.0310  174.0840  142.3060 C   0  0  0  0  0  0  0  0  0  0  0  0
  189.6670  173.9580  140.8520 C   0  0  1  0  0  3  0  0  0  0  0  0
  189.0270  172.3710  138.2890 C   0  0  2  0  0  3  0  0  0  0  0  0
  191.1920  172.9960  139.0270 C   0  0  0  0  0  2  0  0  0  0  0  0
  189.9620  171.5960  137.3750 C   0  0  2  0  0  3  0  0  0  0  0  0
  190.3150  173.0070  137.8100 C   0  0  1  0  0  3  0  0  0  0  0  0
  189.1900  171.9430  139.6230 O   0  0  0  0  0  0  0  0  0  0  0  0
  190.2430  172.7020  140.1660 C   0  0  2  0  0  3  0  0  0  0  0  0
  189.4470  171.6540  135.9440 C   0  0  0  0  0  2  0  0  0  0  0  0
  190.2730  172.6150  135.0980 C   0  0  0  0  0  2  0  0  0  0  0  0
  189.6120  173.8350  134.9630 O   0  0  0  0  0  1  0  0  0  0  0  0
  188.1490  174.0230  140.7170 C   0  0  0  0  0  2  0  0  0  0  0  0
  187.6480  175.3560  141.0200 N   0  0  0  0  0  2  0  0  0  0  0  0
  187.0090  175.3120  142.3310 C   0  0  0  0  0  2  0  0  0  0  0  0
  186.5590  179.0750  142.6590 C   0  0  0  0  0  3  0  0  0  0  0  0
  185.5760  179.1190  143.6490 C   0  0  0  0  0  0  0  0  0  0  0  0
  186.5110  176.6590  142.7670 C   0  0  0  0  0  0  0  0  0  0  0  0
  185.0750  177.9250  144.1740 C   0  0  0  0  0  3  0  0  0  0  0  0
  185.5510  176.7320  143.7290 N   0  0  0  0  0  0  0  0  0  0  0  0
  185.1000  180.3110  144.0890 F   0  0  0  0  0  0  0  0  0  0  0  0
  187.0390  177.8420  142.2210 C   0  0  0  0  0  3  0  0  0  0  0  0
  189.8860  176.5360  145.0990 C   0  0  0  0  0  2  0  0  0  0  0  0
  189.4090  176.1730  146.3620 O   0  0  0  0  0  0  0  0  0  0  0  0
  188.7520  177.3060  146.8410 C   0  0  0  0  0  1  0  0  0  0  0  0
  1  3  1  0  0  0  0
  2  1  2  0  0  0  0
  3 34  1  0  0  0  0
  4  7  1  0  0  0  0
  4 13  1  1  0  0  0
  5  9  1  1  0  0  0
  5  6  1  0  0  0  0
  6  1  1  6  0  0  0
  6  7  1  0  0  0  0
  8  5  1  0  0  0  0
  8  4  1  0  0  0  0
  9 10  1  6  0  0  0
 11 12  1  0  0  0  0
 12  9  1  0  0  0  0
 13 14  1  6  0  0  0
 13 15  1  0  0  0  0
 15 19  1  1  0  0  0
 15 18  1  0  0  0  0
 16 18  1  0  0  0  0
 18 17  1  0  0  0  0
 19 20  1  0  0  0  0
 21 20  1  0  0  0  0
 22 26  1  0  0  0  0
 22 33  1  0  0  0  0
 23 22  2  0  0  0  0
 24 21  1  6  0  0  0
 24 25  1  0  0  0  0
 25 26  1  0  0  0  0
 27 30  1  1  0  0  0
 27 24  1  0  0  0  0
 27 23  1  0  0  0  0
 29 30  1  0  0  0  0
 30 28  1  0  0  0  0
 31 30  1  0  0  0  0
 33 32  1  0  0  0  0
 34 37  1  1  0  0  0
 34 35  1  0  0  0  0
 35 60  1  1  0  0  0
 36 39  1  6  0  0  0
 36 34  1  0  0  0  0
 36 35  1  0  0  0  0
 39 38  2  0  0  0  0
 40 50  1  1  0  0  0
 40 39  1  0  0  0  0
 41 45  1  1  0  0  0
 42 46  1  0  0  0  0
 43 47  1  6  0  0  0
 43 44  1  0  0  0  0
 43 41  1  0  0  0  0
 44 41  1  0  0  0  0
 44 42  1  1  0  0  0
 45 46  1  0  0  0  0
 46 40  1  6  0  0  0
 48 47  1  0  0  0  0
 49 48  1  0  0  0  0
 50 51  1  0  0  0  0
 51 52  1  0  0  0  0
 52 55  1  0  0  0  0
 53 54  1  0  0  0  0
 54 58  1  0  0  0  0
 54 56  2  0  0  0  0
 55 57  2  0  0  0  0
 57 56  1  0  0  0  0
 59 53  2  0  0  0  0
 59 55  1  0  0  0  0
 60 61  1  0  0  0  0
 61 62  1  0  0  0  0
M  END
>  <MODEL>
2

>  <REMARK>
 VINA RESULT:      -5.1      3.801      6.637
  Name = 
  24 active torsions:
  status: ('A' for Active; 'I' for Inactive)
    1  A    between atoms: C_1  and  C_30
    2  A    between atoms: P_2  and  C_10
    3  A    between atoms: P_2  and  C_31
    4  A    between atoms: C_3  and  C_47
    5  A    between atoms: C_4  and  C_60
    6  A    between atoms: N_8  and  C_12
    7  A    between atoms: N_8  and  C_29
    8  A    between atoms: N_9  and  C_12
    9  A    between atoms: N_9  and  C_23
   10  A    between atoms: C_14  and  C_39
   11  A    between atoms: C_15  and  C_46
   12  A    between atoms: C_15  and  C_53
   13  A    between atoms: C_15  and  C_62
   14  A    between atoms: O_16  and  C_32
   15  A    between atoms: C_20  and  C_47
   16  A    between atoms: C_29  and  C_30
   17  A    between atoms: C_29  and  C_52
   18  A    between atoms: C_32  and  C_40
   19  A    between atoms: C_33  and  N_57
   20  A    between atoms: C_34  and  N_35
   21  A    between atoms: C_34  and  C_37
   22  A    between atoms: N_35  and  C_46
   23  A    between atoms: C_42  and  C_62
   24  A    between atoms: C_45  and  C_55
                            x       y       z     vdW  Elec       q    Type
                         _______ _______ _______ _____ _____    ______ ____

>  <TORSDO>
F 24

$$$$
=
 OpenBabel11072408313D

 62 67  0  0  1  0  0  0  0  0999 V2000
  191.1730  172.7720  140.2900 C   0  0  0  0  0  0  0  0  0  0  0  0
  190.4010  173.3090  139.4560 O   0  0  0  0  0  0  0  0  0  0  0  0
  191.9030  171.5890  139.9470 N   0  0  0  0  0  2  0  0  0  0  0  0
  190.1340  174.2410  143.3400 C   0  0  1  0  0  3  0  0  0  0  0  0
  191.4410  172.3360  142.7180 C   0  0  2  0  0  3  0  0  0  0  0  0
  191.3430  173.3940  141.6400 C   0  0  2  0  0  3  0  0  0  0  0  0
  190.2750  174.2580  141.9390 O   0  0  0  0  0  0  0  0  0  0  0  0
  190.6540  172.9130  143.8560 C   0  0  0  0  0  2  0  0  0  0  0  0
  193.2230  172.1130  143.2250 P   0  0  1  0  0  0  0  0  0  0  0  0
  192.9730  172.1440  144.9420 O   0  0  0  0  0  1  0  0  0  0  0  0
  192.6260  169.6450  144.1130 O   0  0  0  0  0  1  0  0  0  0  0  0
  193.3190  170.2580  143.0650 C   0  0  0  0  0  2  0  0  0  0  0  0
  190.8840  175.4300  143.9530 C   0  0  1  0  0  3  0  0  0  0  0  0
  191.1330  176.4900  142.8860 C   0  0  0  0  0  1  0  0  0  0  0  0
  190.1630  176.0160  145.1770 C   0  0  1  0  0  3  0  0  0  0  0  0
  192.3650  175.3370  146.2890 C   0  0  0  0  0  1  0  0  0  0  0  0
  190.6960  176.6900  147.5440 C   0  0  0  0  0  1  0  0  0  0  0  0
  190.8840  175.6260  146.4810 C   0  0  0  0  0  3  0  0  0  0  0  0
  189.9610  177.4580  145.0330 N   0  0  0  0  0  2  0  0  0  0  0  0
  188.5610  177.7000  144.7210 C   0  0  0  0  0  2  0  0  0  0  0  0
  187.7750  176.5070  145.0110 N   0  0  0  0  0  2  0  0  0  0  0  0
  185.9510  177.7290  141.5820 C   0  0  0  0  0  0  0  0  0  0  0  0
  185.4300  178.2520  142.6980 C   0  0  0  0  0  3  0  0  0  0  0  0
  186.5850  176.5190  144.1670 C   0  0  2  0  0  3  0  0  0  0  0  0
  186.8800  175.8140  142.8250 C   0  0  0  0  0  2  0  0  0  0  0  0
  187.1290  176.8030  141.6870 C   0  0  0  0  0  2  0  0  0  0  0  0
  186.0640  177.9710  144.0370 C   0  0  2  0  0  3  0  0  0  0  0  0
  183.9730  178.9240  144.6700 F   0  0  0  0  0  0  0  0  0  0  0  0
  185.7310  179.2600  146.0220 F   0  0  0  0  0  0  0  0  0  0  0  0
  185.1190  178.3470  145.1830 C   0  0  0  0  0  0  0  0  0  0  0  0
  184.7780  177.2210  145.9120 F   0  0  0  0  0  0  0  0  0  0  0  0
  183.9600  178.5080  140.4740 N   0  0  0  0  0  1  0  0  0  0  0  0
  185.3000  177.9900  140.2660 C   0  0  0  0  0  2  0  0  0  0  0  0
  191.9170  171.0120  138.6080 C   0  0  2  0  0  0  0  0  0  0  0  0
  192.9680  169.9280  138.4500 C   0  0  2  0  0  3  0  0  0  0  0  0
  193.1520  171.2760  137.7460 C   0  0  2  0  0  3  0  0  0  0  0  0
  190.5800  170.8220  137.9010 C   0  0  0  0  0  1  0  0  0  0  0  0
  194.3770  171.9790  139.6470 O   0  0  0  0  0  0  0  0  0  0  0  0
  194.2400  172.0550  138.4360 C   0  0  0  0  0  0  0  0  0  0  0  0
  195.1380  172.9480  137.6240 C   0  0  1  0  0  3  0  0  0  0  0  0
  193.9620  174.8970  135.5460 C   0  0  2  0  0  3  0  0  0  0  0  0
  193.2310  174.6560  137.7890 C   0  0  0  0  0  2  0  0  0  0  0  0
  193.0160  176.0690  135.7480 C   0  0  2  0  0  3  0  0  0  0  0  0
  192.7120  174.7240  136.3820 C   0  0  1  0  0  3  0  0  0  0  0  0
  195.0780  175.0210  136.4000 O   0  0  0  0  0  0  0  0  0  0  0  0
  194.7170  174.4320  137.6250 C   0  0  2  0  0  3  0  0  0  0  0  0
  192.1270  176.2310  134.5240 C   0  0  0  0  0  2  0  0  0  0  0  0
  190.9500  177.1540  134.8140 C   0  0  0  0  0  2  0  0  0  0  0  0
  189.8020  176.4100  135.0760 O   0  0  0  0  0  1  0  0  0  0  0  0
  196.5740  172.7740  138.1080 C   0  0  0  0  0  2  0  0  0  0  0  0
  197.1500  174.0450  138.5230 N   0  0  0  0  0  2  0  0  0  0  0  0
  197.7240  173.8700  139.8530 C   0  0  0  0  0  2  0  0  0  0  0  0
  195.9360  176.6670  141.7080 C   0  0  0  0  0  3  0  0  0  0  0  0
  195.6270  176.0120  142.9010 C   0  0  0  0  0  0  0  0  0  0  0  0
  196.9750  174.6380  140.9020 C   0  0  0  0  0  0  0  0  0  0  0  0
  195.9960  174.6750  143.0670 C   0  0  0  0  0  3  0  0  0  0  0  0
  196.6590  174.0230  142.0750 N   0  0  0  0  0  0  0  0  0  0  0  0
  194.9630  176.6640  143.8880 F   0  0  0  0  0  0  0  0  0  0  0  0
  196.6220  175.9830  140.7060 C   0  0  0  0  0  3  0  0  0  0  0  0
  192.6430  168.8550  137.4150 C   0  0  0  0  0  2  0  0  0  0  0  0
  193.6220  168.8390  136.4170 O   0  0  0  0  0  0  0  0  0  0  0  0
  192.9590  168.4150  135.2650 C   0  0  0  0  0  1  0  0  0  0  0  0
  2  1  2  0  0  0  0
  3  1  1  0  0  0  0
  4  8  1  0  0  0  0
  4 13  1  1  0  0  0
  5  9  1  1  0  0  0
  5  8  1  0  0  0  0
  6  1  1  6  0  0  0
  6  7  1  0  0  0  0
  6  5  1  0  0  0  0
  7  4  1  0  0  0  0
  9 10  1  1  0  0  0
 12  9  1  0  0  0  0
 12 11  1  0  0  0  0
 13 14  1  6  0  0  0
 13 15  1  0  0  0  0
 15 19  1  6  0  0  0
 15 18  1  0  0  0  0
 16 18  1  0  0  0  0
 18 17  1  0  0  0  0
 20 21  1  0  0  0  0
 20 19  1  0  0  0  0
 22 26  1  0  0  0  0
 22 23  2  0  0  0  0
 23 27  1  0  0  0  0
 24 21  1  1  0  0  0
 25 24  1  0  0  0  0
 26 25  1  0  0  0  0
 27 24  1  0  0  0  0
 27 30  1  1  0  0  0
 28 30  1  0  0  0  0
 30 31  1  0  0  0  0
 30 29  1  0  0  0  0
 33 32  1  0  0  0  0
 33 22  1  0  0  0  0
 34 37  1  6  0  0  0
 34  3  1  0  0  0  0
 35 60  1  6  0  0  0
 35 34  1  0  0  0  0
 36 39  1  1  0  0  0
 36 35  1  0  0  0  0
 36 34  1  0  0  0  0
 39 38  2  0  0  0  0
 40 50  1  1  0  0  0
 40 39  1  0  0  0  0
 41 43  1  0  0  0  0
 41 44  1  0  0  0  0
 41 45  1  1  0  0  0
 43 47  1  6  0  0  0
 43 44  1  0  0  0  0
 44 42  1  1  0  0  0
 45 46  1  0  0  0  0
 46 40  1  6  0  0  0
 46 42  1  0  0  0  0
 47 48  1  0  0  0  0
 48 49  1  0  0  0  0
 50 51  1  0  0  0  0
 51 52  1  0  0  0  0
 52 55  1  0  0  0  0
 53 54  1  0  0  0  0
 54 56  2  0  0  0  0
 54 58  1  0  0  0  0
 55 57  2  0  0  0  0
 57 56  1  0  0  0  0
 59 55  1  0  0  0  0
 59 53  2  0  0  0  0
 61 60  1  0  0  0  0
 62 61  1  0  0  0  0
M  END
>  <MODEL>
3

>  <REMARK>
 VINA RESULT:      -5.1      4.280      9.680
  Name = 
  24 active torsions:
  status: ('A' for Active; 'I' for Inactive)
    1  A    between atoms: C_1  and  C_30
    2  A    between atoms: P_2  and  C_10
    3  A    between atoms: P_2  and  C_31
    4  A    between atoms: C_3  and  C_47
    5  A    between atoms: C_4  and  C_60
    6  A    between atoms: N_8  and  C_12
    7  A    between atoms: N_8  and  C_29
    8  A    between atoms: N_9  and  C_12
    9  A    between atoms: N_9  and  C_23
   10  A    between atoms: C_14  and  C_39
   11  A    between atoms: C_15  and  C_46
   12  A    between atoms: C_15  and  C_53
   13  A    between atoms: C_15  and  C_62
   14  A    between atoms: O_16  and  C_32
   15  A    between atoms: C_20  and  C_47
   16  A    between atoms: C_29  and  C_30
   17  A    between atoms: C_29  and  C_52
   18  A    between atoms: C_32  and  C_40
   19  A    between atoms: C_33  and  N_57
   20  A    between atoms: C_34  and  N_35
   21  A    between atoms: C_34  and  C_37
   22  A    between atoms: N_35  and  C_46
   23  A    between atoms: C_42  and  C_62
   24  A    between atoms: C_45  and  C_55
                            x       y       z     vdW  Elec       q    Type
                         _______ _______ _______ _____ _____    ______ ____

>  <TORSDO>
F 24

$$$$
=
 OpenBabel11072408313D

 62 67  0  0  1  0  0  0  0  0999 V2000
  195.3320  175.4920  143.4030 C   0  0  0  0  0  0  0  0  0  0  0  0
  196.1850  176.3500  143.7470 O   0  0  0  0  0  0  0  0  0  0  0  0
  194.0790  175.3980  144.0900 N   0  0  0  0  0  2  0  0  0  0  0  0
  196.1640  174.6470  140.0660 C   0  0  1  0  0  3  0  0  0  0  0  0
  197.0900  174.1960  142.2250 C   0  0  2  0  0  3  0  0  0  0  0  0
  195.6260  174.5830  142.2520 C   0  0  2  0  0  3  0  0  0  0  0  0
  195.2900  175.1880  141.0280 O   0  0  0  0  0  0  0  0  0  0  0  0
  197.4380  174.2170  140.7680 C   0  0  0  0  0  2  0  0  0  0  0  0
  197.2980  172.4700  142.9040 P   0  0  1  0  0  0  0  0  0  0  0  0
  197.2830  172.8880  144.5880 O   0  0  0  0  0  1  0  0  0  0  0  0
  195.4330  170.5320  142.8640 O   0  0  0  0  0  1  0  0  0  0  0  0
  195.5170  171.9270  142.8110 C   0  0  0  0  0  2  0  0  0  0  0  0
  195.4840  173.4800  139.3420 C   0  0  1  0  0  3  0  0  0  0  0  0
  193.9690  173.6000  139.4740 C   0  0  0  0  0  1  0  0  0  0  0  0
  195.9160  173.3630  137.8720 C   0  0  1  0  0  3  0  0  0  0  0  0
  197.7370  171.5850  138.1400 C   0  0  0  0  0  1  0  0  0  0  0  0
  197.9410  173.3260  136.3750 C   0  0  0  0  0  1  0  0  0  0  0  0
  197.4150  173.0230  137.7630 C   0  0  0  0  0  3  0  0  0  0  0  0
  195.0550  172.4360  137.1380 N   0  0  0  0  0  2  0  0  0  0  0  0
  194.0300  173.2040  136.4480 C   0  0  0  0  0  2  0  0  0  0  0  0
  193.6040  172.4950  135.2480 N   0  0  0  0  0  2  0  0  0  0  0  0
  190.0490  173.6470  136.8660 C   0  0  0  0  0  0  0  0  0  0  0  0
  190.3550  172.3610  137.0700 C   0  0  0  0  0  3  0  0  0  0  0  0
  192.1480  172.3970  135.2590 C   0  0  2  0  0  3  0  0  0  0  0  0
  191.5220  173.7600  134.8930 C   0  0  0  0  0  2  0  0  0  0  0  0
  191.0160  174.5200  136.1180 C   0  0  0  0  0  2  0  0  0  0  0  0
  191.6850  171.8140  136.6170 C   0  0  2  0  0  3  0  0  0  0  0  0
  190.4670  169.8210  137.0950 F   0  0  0  0  0  0  0  0  0  0  0  0
  192.6850  169.8000  137.4270 F   0  0  0  0  0  0  0  0  0  0  0  0
  191.6780  170.2820  136.6120 C   0  0  0  0  0  0  0  0  0  0  0  0
  191.8690  169.8060  135.3260 F   0  0  0  0  0  0  0  0  0  0  0  0
  188.2270  173.4030  138.4210 N   0  0  0  0  0  1  0  0  0  0  0  0
  188.7200  174.1710  137.2930 C   0  0  0  0  0  2  0  0  0  0  0  0
  193.6490  176.3440  145.1130 C   0  0  2  0  0  0  0  0  0  0  0  0
  192.3370  175.9450  145.7640 C   0  0  2  0  0  3  0  0  0  0  0  0
  192.3850  177.1560  144.8270 C   0  0  2  0  0  3  0  0  0  0  0  0
  194.7210  176.9770  145.9920 C   0  0  0  0  0  1  0  0  0  0  0  0
  192.2660  177.0150  142.4660 O   0  0  0  0  0  0  0  0  0  0  0  0
  191.7020  176.8130  143.5300 C   0  0  0  0  0  0  0  0  0  0  0  0
  190.3100  176.2430  143.5570 C   0  0  1  0  0  3  0  0  0  0  0  0
  187.3380  176.2620  144.3740 C   0  0  2  0  0  3  0  0  0  0  0  0
  188.9600  177.8740  145.0050 C   0  0  0  0  0  2  0  0  0  0  0  0
  186.5190  177.3730  145.0090 C   0  0  2  0  0  3  0  0  0  0  0  0
  187.8780  177.0050  145.5770 C   0  0  1  0  0  3  0  0  0  0  0  0
  187.9790  176.7370  143.2100 O   0  0  0  0  0  0  0  0  0  0  0  0
  189.1960  177.3090  143.6230 C   0  0  2  0  0  3  0  0  0  0  0  0
  185.4490  176.7730  145.9090 C   0  0  0  0  0  2  0  0  0  0  0  0
  184.5270  177.8500  146.4660 C   0  0  0  0  0  2  0  0  0  0  0  0
  185.0380  179.1180  146.1910 O   0  0  0  0  0  1  0  0  0  0  0  0
  190.1320  175.3220  142.3540 C   0  0  0  0  0  2  0  0  0  0  0  0
  189.9150  173.9440  142.7720 N   0  0  0  0  0  2  0  0  0  0  0  0
  191.2130  173.2810  142.8370 C   0  0  0  0  0  2  0  0  0  0  0  0
  190.4760  170.6670  140.1740 C   0  0  0  0  0  3  0  0  0  0  0  0
  191.3360  169.6480  140.5870 C   0  0  0  0  0  0  0  0  0  0  0  0
  191.2490  172.0200  142.0230 C   0  0  0  0  0  0  0  0  0  0  0  0
  192.1430  169.8410  141.7100 C   0  0  0  0  0  3  0  0  0  0  0  0
  192.0810  171.0110  142.4010 N   0  0  0  0  0  0  0  0  0  0  0  0
  191.3980  168.4820  139.8940 F   0  0  0  0  0  0  0  0  0  0  0  0
  190.4220  171.8550  140.9000 C   0  0  0  0  0  3  0  0  0  0  0  0
  192.1550  176.4220  147.2010 C   0  0  0  0  0  2  0  0  0  0  0  0
  191.2690  175.5790  147.8780 O   0  0  0  0  0  0  0  0  0  0  0  0
  190.6220  174.8530  146.8780 C   0  0  0  0  0  1  0  0  0  0  0  0
  1  2  2  0  0  0  0
  1  3  1  0  0  0  0
  3 34  1  0  0  0  0
  4 13  1  1  0  0  0
  4  8  1  0  0  0  0
  4  7  1  0  0  0  0
  5  6  1  0  0  0  0
  5  9  1  6  0  0  0
  6  1  1  1  0  0  0
  7  6  1  0  0  0  0
  8  5  1  0  0  0  0
  9 10  1  1  0  0  0
 12 11  1  0  0  0  0
 12  9  1  0  0  0  0
 13 14  1  6  0  0  0
 15 19  1  1  0  0  0
 15 13  1  0  0  0  0
 17 18  1  0  0  0  0
 18 15  1  0  0  0  0
 18 16  1  0  0  0  0
 20 19  1  0  0  0  0
 21 20  1  0  0  0  0
 22 23  2  0  0  0  0
 22 33  1  0  0  0  0
 24 21  1  1  0  0  0
 24 27  1  0  0  0  0
 25 24  1  0  0  0  0
 25 26  1  0  0  0  0
 26 22  1  0  0  0  0
 27 30  1  6  0  0  0
 27 23  1  0  0  0  0
 30 28  1  0  0  0  0
 30 29  1  0  0  0  0
 31 30  1  0  0  0  0
 33 32  1  0  0  0  0
 34 35  1  0  0  0  0
 34 37  1  1  0  0  0
 35 60  1  1  0  0  0
 36 39  1  6  0  0  0
 36 34  1  0  0  0  0
 36 35  1  0  0  0  0
 38 39  2  0  0  0  0
 39 40  1  0  0  0  0
 40 50  1  6  0  0  0
 41 45  1  6  0  0  0
 41 43  1  0  0  0  0
 41 44  1  0  0  0  0
 43 44  1  0  0  0  0
 43 47  1  1  0  0  0
 44 42  1  6  0  0  0
 45 46  1  0  0  0  0
 46 40  1  1  0  0  0
 46 42  1  0  0  0  0
 47 48  1  0  0  0  0
 49 48  1  0  0  0  0
 50 51  1  0  0  0  0
 51 52  1  0  0  0  0
 53 54  2  0  0  0  0
 53 59  1  0  0  0  0
 54 56  1  0  0  0  0
 55 57  1  0  0  0  0
 55 52  1  0  0  0  0
 56 57  2  0  0  0  0
 58 54  1  0  0  0  0
 59 55  2  0  0  0  0
 60 61  1  0  0  0  0
 62 61  1  0  0  0  0
M  END
>  <MODEL>
4

>  <REMARK>
 VINA RESULT:      -5.1      2.582      5.071
  Name = 
  24 active torsions:
  status: ('A' for Active; 'I' for Inactive)
    1  A    between atoms: C_1  and  C_30
    2  A    between atoms: P_2  and  C_10
    3  A    between atoms: P_2  and  C_31
    4  A    between atoms: C_3  and  C_47
    5  A    between atoms: C_4  and  C_60
    6  A    between atoms: N_8  and  C_12
    7  A    between atoms: N_8  and  C_29
    8  A    between atoms: N_9  and  C_12
    9  A    between atoms: N_9  and  C_23
   10  A    between atoms: C_14  and  C_39
   11  A    between atoms: C_15  and  C_46
   12  A    between atoms: C_15  and  C_53
   13  A    between atoms: C_15  and  C_62
   14  A    between atoms: O_16  and  C_32
   15  A    between atoms: C_20  and  C_47
   16  A    between atoms: C_29  and  C_30
   17  A    between atoms: C_29  and  C_52
   18  A    between atoms: C_32  and  C_40
   19  A    between atoms: C_33  and  N_57
   20  A    between atoms: C_34  and  N_35
   21  A    between atoms: C_34  and  C_37
   22  A    between atoms: N_35  and  C_46
   23  A    between atoms: C_42  and  C_62
   24  A    between atoms: C_45  and  C_55
                            x       y       z     vdW  Elec       q    Type
                         _______ _______ _______ _____ _____    ______ ____

>  <TORSDO>
F 24

$$$$
=
 OpenBabel11072408313D

 62 67  0  0  1  0  0  0  0  0999 V2000
  191.6290  172.1050  139.2960 C   0  0  0  0  0  0  0  0  0  0  0  0
  190.6510  171.3300  139.1440 O   0  0  0  0  0  0  0  0  0  0  0  0
  191.9940  172.5650  140.6020 N   0  0  0  0  0  2  0  0  0  0  0  0
  193.7910  171.6850  136.5240 C   0  0  1  0  0  3  0  0  0  0  0  0
  191.5720  172.5180  136.8500 C   0  0  2  0  0  3  0  0  0  0  0  0
  192.4240  172.5280  138.1020 C   0  0  2  0  0  3  0  0  0  0  0  0
  193.5340  171.6880  137.9080 O   0  0  0  0  0  0  0  0  0  0  0  0
  192.4920  171.9780  135.7970 C   0  0  0  0  0  2  0  0  0  0  0  0
  191.0650  174.2610  136.4180 P   0  0  1  0  0  0  0  0  0  0  0  0
  190.9110  174.0310  134.7040 O   0  0  0  0  0  1  0  0  0  0  0  0
  189.0450  174.1640  138.1920 O   0  0  0  0  0  1  0  0  0  0  0  0
  189.2480  174.1180  136.8090 C   0  0  0  0  0  2  0  0  0  0  0  0
  194.8800  172.7120  136.1940 C   0  0  1  0  0  3  0  0  0  0  0  0
  194.2500  173.9450  135.5540 C   0  0  0  0  0  1  0  0  0  0  0  0
  195.7340  173.0830  137.4160 C   0  0  1  0  0  3  0  0  0  0  0  0
  197.4870  171.4630  138.3390 C   0  0  0  0  0  1  0  0  0  0  0  0
  197.3950  171.9480  135.9000 C   0  0  0  0  0  1  0  0  0  0  0  0
  197.1590  172.5120  137.2870 C   0  0  0  0  0  3  0  0  0  0  0  0
  195.7060  174.5240  137.6650 N   0  0  0  0  0  2  0  0  0  0  0  0
  196.3210  174.7820  138.9590 C   0  0  0  0  0  2  0  0  0  0  0  0
  195.4190  174.3690  140.0270 N   0  0  0  0  0  2  0  0  0  0  0  0
  195.5470  173.2090  143.9270 C   0  0  0  0  0  0  0  0  0  0  0  0
  195.9640  174.4630  143.7130 C   0  0  0  0  0  3  0  0  0  0  0  0
  196.2130  174.0550  141.2090 C   0  0  2  0  0  3  0  0  0  0  0  0
  196.0250  172.5720  141.5950 C   0  0  0  0  0  2  0  0  0  0  0  0
  195.0610  172.3900  142.7670 C   0  0  0  0  0  2  0  0  0  0  0  0
  195.8800  175.0660  142.3340 C   0  0  2  0  0  3  0  0  0  0  0  0
  197.9350  176.0420  141.6220 F   0  0  0  0  0  0  0  0  0  0  0  0
  196.9950  176.8290  143.5000 F   0  0  0  0  0  0  0  0  0  0  0  0
  196.7310  176.3360  142.2350 C   0  0  0  0  0  0  0  0  0  0  0  0
  196.0670  177.3030  141.5010 F   0  0  0  0  0  0  0  0  0  0  0  0
  196.6670  171.5670  145.2860 N   0  0  0  0  0  1  0  0  0  0  0  0
  195.6600  172.6120  145.2890 C   0  0  0  0  0  2  0  0  0  0  0  0
  191.3750  172.0780  141.8290 C   0  0  2  0  0  0  0  0  0  0  0  0
  190.0590  172.7710  142.1340 C   0  0  2  0  0  3  0  0  0  0  0  0
  191.2880  173.0540  143.0030 C   0  0  2  0  0  3  0  0  0  0  0  0
  191.4900  170.5910  142.1430 C   0  0  0  0  0  1  0  0  0  0  0  0
  192.6630  174.6020  141.8540 O   0  0  0  0  0  0  0  0  0  0  0  0
  191.8040  174.4360  142.7050 C   0  0  0  0  0  0  0  0  0  0  0  0
  191.2700  175.6070  143.4850 C   0  0  1  0  0  3  0  0  0  0  0  0
  191.1470  176.7340  146.3510 C   0  0  2  0  0  3  0  0  0  0  0  0
  192.8060  175.2620  145.5100 C   0  0  0  0  0  2  0  0  0  0  0  0
  192.2070  176.7200  147.4400 C   0  0  2  0  0  3  0  0  0  0  0  0
  191.8790  175.4500  146.6750 C   0  0  1  0  0  3  0  0  0  0  0  0
  191.6790  177.2830  145.1650 O   0  0  0  0  0  0  0  0  0  0  0  0
  192.2880  176.2250  144.4660 C   0  0  2  0  0  3  0  0  0  0  0  0
  191.5400  176.6390  148.8050 C   0  0  0  0  0  2  0  0  0  0  0  0
  191.5530  177.9910  149.5080 C   0  0  0  0  0  2  0  0  0  0  0  0
  191.5690  177.8200  150.8910 O   0  0  0  0  0  1  0  0  0  0  0  0
  190.7350  176.6480  142.5050 C   0  0  0  0  0  2  0  0  0  0  0  0
  189.3000  176.4980  142.3070 N   0  0  0  0  0  2  0  0  0  0  0  0
  188.6240  177.0010  143.4980 C   0  0  0  0  0  2  0  0  0  0  0  0
  184.9430  177.8220  143.9920 C   0  0  0  0  0  3  0  0  0  0  0  0
  184.5450  177.9710  142.6620 C   0  0  0  0  0  0  0  0  0  0  0  0
  187.1900  177.3560  143.2300 C   0  0  0  0  0  0  0  0  0  0  0  0
  185.4850  177.8150  141.6410 C   0  0  0  0  0  3  0  0  0  0  0  0
  186.7750  177.5100  141.9430 N   0  0  0  0  0  0  0  0  0  0  0  0
  183.2570  178.2780  142.3630 F   0  0  0  0  0  0  0  0  0  0  0  0
  186.2690  177.5030  144.2800 C   0  0  0  0  0  3  0  0  0  0  0  0
  189.0560  171.9400  142.9270 C   0  0  0  0  0  2  0  0  0  0  0  0
  187.7520  172.2680  142.5450 O   0  0  0  0  0  0  0  0  0  0  0  0
  187.8890  172.9610  141.3430 C   0  0  0  0  0  1  0  0  0  0  0  0
  1  3  1  0  0  0  0
  2  1  2  0  0  0  0
  3 34  1  0  0  0  0
  4 13  1  1  0  0  0
  4  7  1  0  0  0  0
  5  9  1  6  0  0  0
  5  6  1  0  0  0  0
  6  1  1  1  0  0  0
  7  6  1  0  0  0  0
  8  4  1  0  0  0  0
  8  5  1  0  0  0  0
  9 10  1  6  0  0  0
  9 12  1  0  0  0  0
 12 11  1  0  0  0  0
 13 14  1  1  0  0  0
 13 15  1  0  0  0  0
 15 18  1  6  0  0  0
 15 19  1  0  0  0  0
 17 18  1  0  0  0  0
 18 16  1  0  0  0  0
 19 20  1  0  0  0  0
 20 21  1  0  0  0  0
 22 33  1  0  0  0  0
 23 22  2  0  0  0  0
 24 21  1  6  0  0  0
 24 25  1  0  0  0  0
 24 27  1  0  0  0  0
 25 26  1  0  0  0  0
 26 22  1  0  0  0  0
 27 30  1  1  0  0  0
 27 23  1  0  0  0  0
 28 30  1  0  0  0  0
 30 29  1  0  0  0  0
 31 30  1  0  0  0  0
 32 33  1  0  0  0  0
 34 35  1  0  0  0  0
 34 37  1  1  0  0  0
 34 36  1  0  0  0  0
 35 60  1  1  0  0  0
 35 36  1  0  0  0  0
 36 39  1  6  0  0  0
 38 39  2  0  0  0  0
 39 40  1  0  0  0  0
 40 50  1  6  0  0  0
 41 45  1  6  0  0  0
 41 44  1  0  0  0  0
 41 43  1  0  0  0  0
 43 47  1  1  0  0  0
 44 42  1  6  0  0  0
 44 43  1  0  0  0  0
 46 40  1  6  0  0  0
 46 45  1  0  0  0  0
 46 42  1  0  0  0  0
 47 48  1  0  0  0  0
 48 49  1  0  0  0  0
 51 50  1  0  0  0  0
 51 52  1  0  0  0  0
 53 59  1  0  0  0  0
 54 53  2  0  0  0  0
 55 52  1  0  0  0  0
 55 59  2  0  0  0  0
 56 57  2  0  0  0  0
 56 54  1  0  0  0  0
 57 55  1  0  0  0  0
 58 54  1  0  0  0  0
 61 60  1  0  0  0  0
 62 61  1  0  0  0  0
M  END
>  <MODEL>
5

>  <REMARK>
 VINA RESULT:      -5.1      3.925      7.935
  Name = 
  24 active torsions:
  status: ('A' for Active; 'I' for Inactive)
    1  A    between atoms: C_1  and  C_30
    2  A    between atoms: P_2  and  C_10
    3  A    between atoms: P_2  and  C_31
    4  A    between atoms: C_3  and  C_47
    5  A    between atoms: C_4  and  C_60
    6  A    between atoms: N_8  and  C_12
    7  A    between atoms: N_8  and  C_29
    8  A    between atoms: N_9  and  C_12
    9  A    between atoms: N_9  and  C_23
   10  A    between atoms: C_14  and  C_39
   11  A    between atoms: C_15  and  C_46
   12  A    between atoms: C_15  and  C_53
   13  A    between atoms: C_15  and  C_62
   14  A    between atoms: O_16  and  C_32
   15  A    between atoms: C_20  and  C_47
   16  A    between atoms: C_29  and  C_30
   17  A    between atoms: C_29  and  C_52
   18  A    between atoms: C_32  and  C_40
   19  A    between atoms: C_33  and  N_57
   20  A    between atoms: C_34  and  N_35
   21  A    between atoms: C_34  and  C_37
   22  A    between atoms: N_35  and  C_46
   23  A    between atoms: C_42  and  C_62
   24  A    between atoms: C_45  and  C_55
                            x       y       z     vdW  Elec       q    Type
                         _______ _______ _______ _____ _____    ______ ____

>  <TORSDO>
F 24

$$$$
=
 OpenBabel11072408313D

 62 67  0  0  1  0  0  0  0  0999 V2000
  190.9220  176.4690  145.4230 C   0  0  0  0  0  0  0  0  0  0  0  0
  191.0750  177.6340  144.9740 O   0  0  0  0  0  0  0  0  0  0  0  0
  189.8450  176.1720  146.3190 N   0  0  0  0  0  2  0  0  0  0  0  0
  192.2440  173.9800  143.2800 C   0  0  1  0  0  3  0  0  0  0  0  0
  193.0850  175.9670  144.3130 C   0  0  2  0  0  3  0  0  0  0  0  0
  191.8630  175.3880  144.9950 C   0  0  2  0  0  3  0  0  0  0  0  0
  191.2340  174.4850  144.1200 O   0  0  0  0  0  0  0  0  0  0  0  0
  193.3490  175.0150  143.1870 C   0  0  0  0  0  2  0  0  0  0  0  0
  194.5270  175.9680  145.4970 P   0  0  1  0  0  0  0  0  0  0  0  0
  194.3010  174.3670  146.1270 O   0  0  0  0  0  1  0  0  0  0  0  0
  196.4100  176.6800  143.7130 O   0  0  0  0  0  1  0  0  0  0  0  0
  195.8720  175.5230  144.2840 C   0  0  0  0  0  2  0  0  0  0  0  0
  192.7550  172.6410  143.8250 C   0  0  1  0  0  3  0  0  0  0  0  0
  191.5990  171.6530  143.9390 C   0  0  0  0  0  1  0  0  0  0  0  0
  193.9120  172.0660  142.9930 C   0  0  1  0  0  3  0  0  0  0  0  0
  194.6270  171.4350  145.3680 C   0  0  0  0  0  1  0  0  0  0  0  0
  194.8430  169.7850  143.5190 C   0  0  0  0  0  1  0  0  0  0  0  0
  194.8790  171.2570  143.8790 C   0  0  0  0  0  3  0  0  0  0  0  0
  193.4140  171.3150  141.8410 N   0  0  0  0  0  2  0  0  0  0  0  0
  193.8360  171.9980  140.6270 C   0  0  0  0  0  2  0  0  0  0  0  0
  194.9270  172.9170  140.9300 N   0  0  0  0  0  2  0  0  0  0  0  0
  197.1320  172.9470  137.5070 C   0  0  0  0  0  0  0  0  0  0  0  0
  197.4830  173.8840  138.3950 C   0  0  0  0  0  3  0  0  0  0  0  0
  195.3120  173.6000  139.7000 C   0  0  2  0  0  3  0  0  0  0  0  0
  194.8710  172.7730  138.4730 C   0  0  0  0  0  2  0  0  0  0  0  0
  196.0260  171.9910  137.8490 C   0  0  0  0  0  2  0  0  0  0  0  0
  196.8240  173.9320  139.7500 C   0  0  2  0  0  3  0  0  0  0  0  0
  197.9400  176.0370  139.6680 F   0  0  0  0  0  0  0  0  0  0  0  0
  197.7060  175.0510  141.6690 F   0  0  0  0  0  0  0  0  0  0  0  0
  197.0950  175.2690  140.4480 C   0  0  0  0  0  0  0  0  0  0  0  0
  195.9100  175.9540  140.6510 F   0  0  0  0  0  0  0  0  0  0  0  0
  197.0150  172.0590  135.2710 N   0  0  0  0  0  1  0  0  0  0  0  0
  197.7700  172.9250  136.1600 C   0  0  0  0  0  2  0  0  0  0  0  0
  188.7960  177.1250  146.6590 C   0  0  2  0  0  0  0  0  0  0  0  0
  187.4510  176.4570  146.8840 C   0  0  2  0  0  3  0  0  0  0  0  0
  187.6740  177.3230  145.6390 C   0  0  2  0  0  3  0  0  0  0  0  0
  189.1670  178.3040  147.5510 C   0  0  0  0  0  1  0  0  0  0  0  0
  188.1210  175.2740  144.5400 O   0  0  0  0  0  0  0  0  0  0  0  0
  187.7700  176.4380  144.4260 C   0  0  0  0  0  0  0  0  0  0  0  0
  187.4560  177.0080  143.0690 C   0  0  1  0  0  3  0  0  0  0  0  0
  185.2110  177.9940  141.2020 C   0  0  2  0  0  3  0  0  0  0  0  0
  185.0550  177.7650  143.5580 C   0  0  0  0  0  2  0  0  0  0  0  0
  183.8990  178.6780  141.5480 C   0  0  2  0  0  3  0  0  0  0  0  0
  184.3270  177.4240  142.2900 C   0  0  1  0  0  3  0  0  0  0  0  0
  186.2890  178.6850  141.7960 O   0  0  0  0  0  0  0  0  0  0  0  0
  186.4370  178.1650  143.0940 C   0  0  2  0  0  3  0  0  0  0  0  0
  182.8340  178.2900  140.5330 C   0  0  0  0  0  2  0  0  0  0  0  0
  181.4790  178.8840  140.8990 C   0  0  0  0  0  2  0  0  0  0  0  0
  180.8310  178.0770  141.8330 O   0  0  0  0  0  1  0  0  0  0  0  0
  188.7610  177.4260  142.3980 C   0  0  0  0  0  2  0  0  0  0  0  0
  189.3330  176.3310  141.6270 N   0  0  0  0  0  2  0  0  0  0  0  0
  188.2450  175.6440  140.9390 C   0  0  0  0  0  2  0  0  0  0  0  0
  189.8150  172.1950  140.6160 C   0  0  0  0  0  3  0  0  0  0  0  0
  189.4530  171.8830  139.3040 C   0  0  0  0  0  0  0  0  0  0  0  0
  188.6680  174.3120  140.3920 C   0  0  0  0  0  0  0  0  0  0  0  0
  188.6970  172.7950  138.5640 C   0  0  0  0  0  3  0  0  0  0  0  0
  188.3260  173.9810  139.1170 N   0  0  0  0  0  0  0  0  0  0  0  0
  189.8210  170.6980  138.7560 F   0  0  0  0  0  0  0  0  0  0  0  0
  189.4310  173.4190  141.1620 C   0  0  0  0  0  3  0  0  0  0  0  0
  186.5190  177.1840  147.8480 C   0  0  0  0  0  2  0  0  0  0  0  0
  185.2690  177.3800  147.2510 O   0  0  0  0  0  0  0  0  0  0  0  0
  184.9570  178.7180  147.4950 C   0  0  0  0  0  1  0  0  0  0  0  0
  1  3  1  0  0  0  0
  2  1  2  0  0  0  0
  3 34  1  0  0  0  0
  4 13  1  1  0  0  0
  4  7  1  0  0  0  0
  5  6  1  0  0  0  0
  5  9  1  1  0  0  0
  6  1  1  6  0  0  0
  7  6  1  0  0  0  0
  8  4  1  0  0  0  0
  8  5  1  0  0  0  0
  9 10  1  1  0  0  0
 11 12  1  0  0  0  0
 12  9  1  0  0  0  0
 13 14  1  6  0  0  0
 15 19  1  6  0  0  0
 15 13  1  0  0  0  0
 15 18  1  0  0  0  0
 17 18  1  0  0  0  0
 18 16  1  0  0  0  0
 20 21  1  0  0  0  0
 20 19  1  0  0  0  0
 22 26  1  0  0  0  0
 22 23  2  0  0  0  0
 23 27  1  0  0  0  0
 24 27  1  0  0  0  0
 24 21  1  1  0  0  0
 25 24  1  0  0  0  0
 26 25  1  0  0  0  0
 27 30  1  6  0  0  0
 28 30  1  0  0  0  0
 30 31  1  0  0  0  0
 30 29  1  0  0  0  0
 32 33  1  0  0  0  0
 33 22  1  0  0  0  0
 34 35  1  0  0  0  0
 34 37  1  1  0  0  0
 35 60  1  1  0  0  0
 36 39  1  6  0  0  0
 36 34  1  0  0  0  0
 36 35  1  0  0  0  0
 39 38  2  0  0  0  0
 40 50  1  1  0  0  0
 40 39  1  0  0  0  0
 41 43  1  0  0  0  0
 41 45  1  1  0  0  0
 41 44  1  0  0  0  0
 43 47  1  6  0  0  0
 43 44  1  0  0  0  0
 44 42  1  1  0  0  0
 45 46  1  0  0  0  0
 46 40  1  6  0  0  0
 46 42  1  0  0  0  0
 47 48  1  0  0  0  0
 48 49  1  0  0  0  0
 51 50  1  0  0  0  0
 52 51  1  0  0  0  0
 53 59  1  0  0  0  0
 54 53  2  0  0  0  0
 55 52  1  0  0  0  0
 55 59  2  0  0  0  0
 56 57  2  0  0  0  0
 56 54  1  0  0  0  0
 57 55  1  0  0  0  0
 58 54  1  0  0  0  0
 61 62  1  0  0  0  0
 61 60  1  0  0  0  0
M  END
>  <MODEL>
6

>  <REMARK>
 VINA RESULT:      -4.8      2.107      2.551
  Name = 
  24 active torsions:
  status: ('A' for Active; 'I' for Inactive)
    1  A    between atoms: C_1  and  C_30
    2  A    between atoms: P_2  and  C_10
    3  A    between atoms: P_2  and  C_31
    4  A    between atoms: C_3  and  C_47
    5  A    between atoms: C_4  and  C_60
    6  A    between atoms: N_8  and  C_12
    7  A    between atoms: N_8  and  C_29
    8  A    between atoms: N_9  and  C_12
    9  A    between atoms: N_9  and  C_23
   10  A    between atoms: C_14  and  C_39
   11  A    between atoms: C_15  and  C_46
   12  A    between atoms: C_15  and  C_53
   13  A    between atoms: C_15  and  C_62
   14  A    between atoms: O_16  and  C_32
   15  A    between atoms: C_20  and  C_47
   16  A    between atoms: C_29  and  C_30
   17  A    between atoms: C_29  and  C_52
   18  A    between atoms: C_32  and  C_40
   19  A    between atoms: C_33  and  N_57
   20  A    between atoms: C_34  and  N_35
   21  A    between atoms: C_34  and  C_37
   22  A    between atoms: N_35  and  C_46
   23  A    between atoms: C_42  and  C_62
   24  A    between atoms: C_45  and  C_55
                            x       y       z     vdW  Elec       q    Type
                         _______ _______ _______ _____ _____    ______ ____

>  <TORSDO>
F 24

$$$$
=
 OpenBabel11072408313D

 62 67  0  0  1  0  0  0  0  0999 V2000
  195.1430  175.1220  143.9150 C   0  0  0  0  0  0  0  0  0  0  0  0
  195.9550  176.0810  143.9540 O   0  0  0  0  0  0  0  0  0  0  0  0
  193.9500  175.1470  144.7080 N   0  0  0  0  0  2  0  0  0  0  0  0
  195.6750  173.4600  140.8340 C   0  0  1  0  0  3  0  0  0  0  0  0
  196.9100  173.7320  142.8650 C   0  0  2  0  0  3  0  0  0  0  0  0
  195.4210  173.9610  143.0150 C   0  0  2  0  0  3  0  0  0  0  0  0
  194.8570  174.1580  141.7420 O   0  0  0  0  0  0  0  0  0  0  0  0
  197.0730  173.3770  141.4180 C   0  0  0  0  0  2  0  0  0  0  0  0
  197.4390  172.2980  143.9350 P   0  0  1  0  0  0  0  0  0  0  0  0
  197.1220  173.0370  145.4730 O   0  0  0  0  0  1  0  0  0  0  0  0
  195.8420  170.3470  144.8730 O   0  0  0  0  0  1  0  0  0  0  0  0
  195.8620  171.3060  143.8550 C   0  0  0  0  0  2  0  0  0  0  0  0
  195.0830  172.0730  140.5590 C   0  0  1  0  0  3  0  0  0  0  0  0
  193.5610  172.1370  140.6260 C   0  0  0  0  0  1  0  0  0  0  0  0
  195.5660  171.4770  139.2280 C   0  0  1  0  0  3  0  0  0  0  0  0
  196.2440  169.5750  140.8000 C   0  0  0  0  0  1  0  0  0  0  0  0
  196.3820  169.2670  138.3350 C   0  0  0  0  0  1  0  0  0  0  0  0
  196.4900  170.2670  139.4680 C   0  0  0  0  0  3  0  0  0  0  0  0
  194.4420  171.1810  138.3400 N   0  0  0  0  0  2  0  0  0  0  0  0
  194.4910  172.0970  137.2110 C   0  0  0  0  0  2  0  0  0  0  0  0
  193.7390  171.5440  136.0910 N   0  0  0  0  0  2  0  0  0  0  0  0
  192.7610  175.4760  135.6940 C   0  0  0  0  0  0  0  0  0  0  0  0
  191.9540  174.7880  136.5100 C   0  0  0  0  0  3  0  0  0  0  0  0
  192.7960  172.5530  135.6220 C   0  0  2  0  0  3  0  0  0  0  0  0
  193.4500  173.4190  134.5230 C   0  0  0  0  0  2  0  0  0  0  0  0
  193.9210  174.7740  135.0490 C   0  0  0  0  0  2  0  0  0  0  0  0
  192.2500  173.3460  136.8350 C   0  0  2  0  0  3  0  0  0  0  0  0
  190.7990  173.1960  138.7200 F   0  0  0  0  0  0  0  0  0  0  0  0
  191.2700  171.3080  137.6060 F   0  0  0  0  0  0  0  0  0  0  0  0
  191.0330  172.6630  137.4670 C   0  0  0  0  0  0  0  0  0  0  0  0
  189.9130  172.8480  136.6740 F   0  0  0  0  0  0  0  0  0  0  0  0
  193.5930  177.7350  135.6350 N   0  0  0  0  0  1  0  0  0  0  0  0
  192.4430  176.8930  135.3570 C   0  0  0  0  0  2  0  0  0  0  0  0
  193.5270  176.3050  145.4870 C   0  0  2  0  0  0  0  0  0  0  0  0
  192.1540  176.1200  146.1090 C   0  0  2  0  0  3  0  0  0  0  0  0
  192.3400  177.1090  144.9540 C   0  0  2  0  0  3  0  0  0  0  0  0
  194.5860  177.0450  146.2960 C   0  0  0  0  0  1  0  0  0  0  0  0
  192.4030  176.2920  142.7330 O   0  0  0  0  0  0  0  0  0  0  0  0
  191.7130  176.5460  143.7080 C   0  0  0  0  0  0  0  0  0  0  0  0
  190.2260  176.3240  143.6650 C   0  0  1  0  0  3  0  0  0  0  0  0
  187.2240  176.9800  143.9060 C   0  0  2  0  0  3  0  0  0  0  0  0
  188.9560  177.9010  145.2390 C   0  0  0  0  0  2  0  0  0  0  0  0
  186.5400  178.1050  144.6650 C   0  0  2  0  0  3  0  0  0  0  0  0
  187.6030  177.2600  145.3440 C   0  0  1  0  0  3  0  0  0  0  0  0
  188.2190  177.5050  143.0540 O   0  0  0  0  0  0  0  0  0  0  0  0
  189.3930  177.6130  143.8210 C   0  0  2  0  0  3  0  0  0  0  0  0
  185.1770  177.6390  145.1560 C   0  0  0  0  0  2  0  0  0  0  0  0
  184.0940  178.6620  144.8330 C   0  0  0  0  0  2  0  0  0  0  0  0
  183.8450  178.6900  143.4620 O   0  0  0  0  0  1  0  0  0  0  0  0
  189.8750  175.5840  142.3770 C   0  0  0  0  0  2  0  0  0  0  0  0
  189.0570  174.4100  142.6480 N   0  0  0  0  0  2  0  0  0  0  0  0
  189.6170  173.7260  143.8080 C   0  0  0  0  0  2  0  0  0  0  0  0
  192.1570  170.8970  143.6960 C   0  0  0  0  0  3  0  0  0  0  0  0
  191.6270  170.1320  142.6560 C   0  0  0  0  0  0  0  0  0  0  0  0
  190.3320  172.4610  143.4310 C   0  0  0  0  0  0  0  0  0  0  0  0
  190.4510  170.5470  142.0280 C   0  0  0  0  0  3  0  0  0  0  0  0
  189.8350  171.6940  142.4220 N   0  0  0  0  0  0  0  0  0  0  0  0
  192.2410  168.9860  142.2660 F   0  0  0  0  0  0  0  0  0  0  0  0
  191.5160  172.0730  144.0810 C   0  0  0  0  0  3  0  0  0  0  0  0
  191.9210  176.8900  147.4050 C   0  0  0  0  0  2  0  0  0  0  0  0
  190.7100  176.4980  147.9840 O   0  0  0  0  0  0  0  0  0  0  0  0
  190.5480  175.1610  147.6200 C   0  0  0  0  0  1  0  0  0  0  0  0
  1  2  2  0  0  0  0
  1  3  1  0  0  0  0
  3 34  1  0  0  0  0
  4 13  1  1  0  0  0
  4  8  1  0  0  0  0
  4  7  1  0  0  0  0
  5  6  1  0  0  0  0
  5  9  1  1  0  0  0
  6  1  1  1  0  0  0
  7  6  1  0  0  0  0
  8  5  1  0  0  0  0
  9 10  1  1  0  0  0
 12  9  1  0  0  0  0
 12 11  1  0  0  0  0
 13 14  1  6  0  0  0
 15 19  1  6  0  0  0
 15 18  1  0  0  0  0
 15 13  1  0  0  0  0
 17 18  1  0  0  0  0
 18 16  1  0  0  0  0
 20 19  1  0  0  0  0
 21 20  1  0  0  0  0
 22 23  2  0  0  0  0
 23 27  1  0  0  0  0
 24 21  1  1  0  0  0
 24 27  1  0  0  0  0
 25 26  1  0  0  0  0
 25 24  1  0  0  0  0
 26 22  1  0  0  0  0
 27 30  1  6  0  0  0
 30 29  1  0  0  0  0
 30 28  1  0  0  0  0
 31 30  1  0  0  0  0
 33 32  1  0  0  0  0
 33 22  1  0  0  0  0
 34 35  1  0  0  0  0
 34 37  1  1  0  0  0
 35 60  1  1  0  0  0
 36 39  1  6  0  0  0
 36 34  1  0  0  0  0
 36 35  1  0  0  0  0
 38 39  2  0  0  0  0
 40 50  1  6  0  0  0
 40 39  1  0  0  0  0
 41 45  1  6  0  0  0
 41 43  1  0  0  0  0
 41 44  1  0  0  0  0
 43 47  1  1  0  0  0
 43 44  1  0  0  0  0
 44 42  1  6  0  0  0
 45 46  1  0  0  0  0
 46 40  1  1  0  0  0
 46 42  1  0  0  0  0
 48 47  1  0  0  0  0
 49 48  1  0  0  0  0
 50 51  1  0  0  0  0
 51 52  1  0  0  0  0
 53 59  1  0  0  0  0
 54 53  2  0  0  0  0
 55 52  1  0  0  0  0
 55 59  2  0  0  0  0
 56 57  2  0  0  0  0
 56 54  1  0  0  0  0
 57 55  1  0  0  0  0
 58 54  1  0  0  0  0
 60 61  1  0  0  0  0
 62 61  1  0  0  0  0
M  END
>  <MODEL>
7

>  <REMARK>
 VINA RESULT:      -4.8      2.517      4.502
  Name = 
  24 active torsions:
  status: ('A' for Active; 'I' for Inactive)
    1  A    between atoms: C_1  and  C_30
    2  A    between atoms: P_2  and  C_10
    3  A    between atoms: P_2  and  C_31
    4  A    between atoms: C_3  and  C_47
    5  A    between atoms: C_4  and  C_60
    6  A    between atoms: N_8  and  C_12
    7  A    between atoms: N_8  and  C_29
    8  A    between atoms: N_9  and  C_12
    9  A    between atoms: N_9  and  C_23
   10  A    between atoms: C_14  and  C_39
   11  A    between atoms: C_15  and  C_46
   12  A    between atoms: C_15  and  C_53
   13  A    between atoms: C_15  and  C_62
   14  A    between atoms: O_16  and  C_32
   15  A    between atoms: C_20  and  C_47
   16  A    between atoms: C_29  and  C_30
   17  A    between atoms: C_29  and  C_52
   18  A    between atoms: C_32  and  C_40
   19  A    between atoms: C_33  and  N_57
   20  A    between atoms: C_34  and  N_35
   21  A    between atoms: C_34  and  C_37
   22  A    between atoms: N_35  and  C_46
   23  A    between atoms: C_42  and  C_62
   24  A    between atoms: C_45  and  C_55
                            x       y       z     vdW  Elec       q    Type
                         _______ _______ _______ _____ _____    ______ ____

>  <TORSDO>
F 24

$$$$
=
 OpenBabel11072408313D

 62 67  0  0  1  0  0  0  0  0999 V2000
  189.4800  175.4670  144.1200 C   0  0  0  0  0  0  0  0  0  0  0  0
  188.4620  175.8920  144.7240 O   0  0  0  0  0  0  0  0  0  0  0  0
  190.7090  175.2600  144.8250 N   0  0  0  0  0  2  0  0  0  0  0  0
  189.4000  173.4060  141.2420 C   0  0  1  0  0  3  0  0  0  0  0  0
  187.9470  175.0380  142.2160 C   0  0  2  0  0  3  0  0  0  0  0  0
  189.3900  175.1550  142.6600 C   0  0  2  0  0  3  0  0  0  0  0  0
  190.0630  173.9580  142.3540 O   0  0  0  0  0  0  0  0  0  0  0  0
  187.9620  173.8890  141.2550 C   0  0  0  0  0  2  0  0  0  0  0  0
  187.4310  176.5990  141.3320 P   0  0  1  0  0  0  0  0  0  0  0  0
  185.8970  176.8040  142.1180 O   0  0  0  0  0  1  0  0  0  0  0  0
  189.2230  178.5890  141.5850 O   0  0  0  0  0  1  0  0  0  0  0  0
  188.3650  177.8240  142.3820 C   0  0  0  0  0  2  0  0  0  0  0  0
  190.1280  173.8030  139.9520 C   0  0  1  0  0  3  0  0  0  0  0  0
  191.6340  173.8200  140.1920 C   0  0  0  0  0  1  0  0  0  0  0  0
  189.7550  172.9050  138.7620 C   0  0  1  0  0  3  0  0  0  0  0  0
  189.4080  172.9290  136.2270 C   0  0  0  0  0  1  0  0  0  0  0  0
  188.1670  174.5280  137.6730 C   0  0  0  0  0  1  0  0  0  0  0  0
  189.4550  173.7480  137.5080 C   0  0  0  0  0  3  0  0  0  0  0  0
  190.7670  171.8720  138.5390 N   0  0  0  0  0  2  0  0  0  0  0  0
  190.1930  170.5800  138.8860 C   0  0  0  0  0  2  0  0  0  0  0  0
  191.2420  169.5700  138.9380 N   0  0  0  0  0  2  0  0  0  0  0  0
  195.0000  169.0650  140.4220 C   0  0  0  0  0  0  0  0  0  0  0  0
  194.0540  169.2090  141.3580 C   0  0  0  0  0  3  0  0  0  0  0  0
  192.3800  170.1210  139.6660 C   0  0  2  0  0  3  0  0  0  0  0  0
  193.6110  170.2090  138.7370 C   0  0  0  0  0  2  0  0  0  0  0  0
  194.6040  169.0710  138.9740 C   0  0  0  0  0  2  0  0  0  0  0  0
  192.6030  169.3050  140.9630 C   0  0  2  0  0  3  0  0  0  0  0  0
  192.2480  169.3470  143.3200 F   0  0  0  0  0  0  0  0  0  0  0  0
  190.4450  169.3890  141.9870 F   0  0  0  0  0  0  0  0  0  0  0  0
  191.7490  169.8270  142.1230 C   0  0  0  0  0  0  0  0  0  0  0  0
  191.7630  171.2110  142.1440 F   0  0  0  0  0  0  0  0  0  0  0  0
  196.5730  168.2210  142.0390 N   0  0  0  0  0  1  0  0  0  0  0  0
  196.4350  169.0000  140.8210 C   0  0  0  0  0  2  0  0  0  0  0  0
  190.8380  175.3870  146.2720 C   0  0  2  0  0  0  0  0  0  0  0  0
  191.1330  176.8100  146.7100 C   0  0  2  0  0  3  0  0  0  0  0  0
  192.2210  175.7370  146.8230 C   0  0  2  0  0  3  0  0  0  0  0  0
  189.9130  174.5470  147.1450 C   0  0  0  0  0  1  0  0  0  0  0  0
  193.1700  176.9250  145.0070 O   0  0  0  0  0  0  0  0  0  0  0  0
  193.2700  175.9760  145.7700 C   0  0  0  0  0  0  0  0  0  0  0  0
  194.4260  175.0220  145.6500 C   0  0  1  0  0  3  0  0  0  0  0  0
  195.5770  172.2070  145.1480 C   0  0  2  0  0  3  0  0  0  0  0  0
  193.2920  172.8200  144.9810 C   0  0  0  0  0  2  0  0  0  0  0  0
  194.9220  170.9970  144.5030 C   0  0  2  0  0  3  0  0  0  0  0  0
  194.1910  171.7790  145.5810 C   0  0  1  0  0  3  0  0  0  0  0  0
  195.4710  173.3270  144.2950 O   0  0  0  0  0  0  0  0  0  0  0  0
  194.2320  173.9320  144.5750 C   0  0  2  0  0  3  0  0  0  0  0  0
  195.4680  169.7220  145.1290 C   0  0  0  0  0  2  0  0  0  0  0  0
  194.3620  168.9160  145.7970 C   0  0  0  0  0  2  0  0  0  0  0  0
  194.6230  168.7670  147.1580 O   0  0  0  0  0  1  0  0  0  0  0  0
  195.7020  175.8230  145.4100 C   0  0  0  0  0  2  0  0  0  0  0  0
  195.5220  176.7980  144.3430 N   0  0  0  0  0  2  0  0  0  0  0  0
  196.6980  176.7490  143.4820 C   0  0  0  0  0  2  0  0  0  0  0  0
  197.0950  174.5910  140.3750 C   0  0  0  0  0  3  0  0  0  0  0  0
  195.8650  174.8210  139.7570 C   0  0  0  0  0  0  0  0  0  0  0  0
  196.4230  176.0500  142.1820 C   0  0  0  0  0  0  0  0  0  0  0  0
  194.9340  175.6600  140.3720 C   0  0  0  0  0  3  0  0  0  0  0  0
  195.2300  176.2550  141.5590 N   0  0  0  0  0  0  0  0  0  0  0  0
  195.5700  174.2250  138.5750 F   0  0  0  0  0  0  0  0  0  0  0  0
  197.3830  175.2150  141.5880 C   0  0  0  0  0  3  0  0  0  0  0  0
  190.6350  177.1770  148.1040 C   0  0  0  0  0  2  0  0  0  0  0  0
  189.9740  178.4080  148.0690 O   0  0  0  0  0  0  0  0  0  0  0  0
  188.6330  178.0950  147.8420 C   0  0  0  0  0  1  0  0  0  0  0  0
  1  2  2  0  0  0  0
  1  3  1  0  0  0  0
  3 34  1  0  0  0  0
  4 13  1  6  0  0  0
  4  8  1  0  0  0  0
  4  7  1  0  0  0  0
  5  9  1  6  0  0  0
  5  6  1  0  0  0  0
  6  1  1  1  0  0  0
  7  6  1  0  0  0  0
  8  5  1  0  0  0  0
  9 10  1  1  0  0  0
  9 12  1  0  0  0  0
 11 12  1  0  0  0  0
 13 14  1  1  0  0  0
 15 18  1  6  0  0  0
 15 13  1  0  0  0  0
 16 18  1  0  0  0  0
 18 17  1  0  0  0  0
 19 15  1  0  0  0  0
 19 20  1  0  0  0  0
 20 21  1  0  0  0  0
 22 33  1  0  0  0  0
 22 23  2  0  0  0  0
 24 21  1  6  0  0  0
 24 27  1  0  0  0  0
 25 26  1  0  0  0  0
 25 24  1  0  0  0  0
 26 22  1  0  0  0  0
 27 23  1  0  0  0  0
 27 30  1  1  0  0  0
 29 30  1  0  0  0  0
 30 31  1  0  0  0  0
 30 28  1  0  0  0  0
 33 32  1  0  0  0  0
 34 35  1  0  0  0  0
 34 36  1  0  0  0  0
 34 37  1  1  0  0  0
 35 36  1  0  0  0  0
 35 60  1  1  0  0  0
 36 39  1  6  0  0  0
 38 39  2  0  0  0  0
 40 50  1  6  0  0  0
 40 39  1  0  0  0  0
 41 45  1  6  0  0  0
 41 44  1  0  0  0  0
 43 47  1  1  0  0  0
 43 41  1  0  0  0  0
 43 44  1  0  0  0  0
 44 42  1  6  0  0  0
 45 46  1  0  0  0  0
 46 42  1  0  0  0  0
 46 40  1  1  0  0  0
 47 48  1  0  0  0  0
 48 49  1  0  0  0  0
 51 50  1  0  0  0  0
 52 51  1  0  0  0  0
 53 59  1  0  0  0  0
 54 56  1  0  0  0  0
 54 53  2  0  0  0  0
 55 52  1  0  0  0  0
 56 57  2  0  0  0  0
 57 55  1  0  0  0  0
 58 54  1  0  0  0  0
 59 55  2  0  0  0  0
 61 60  1  0  0  0  0
 62 61  1  0  0  0  0
M  END
>  <MODEL>
8

>  <REMARK>
 VINA RESULT:      -4.7      2.924      7.649
  Name = 
  24 active torsions:
  status: ('A' for Active; 'I' for Inactive)
    1  A    between atoms: C_1  and  C_30
    2  A    between atoms: P_2  and  C_10
    3  A    between atoms: P_2  and  C_31
    4  A    between atoms: C_3  and  C_47
    5  A    between atoms: C_4  and  C_60
    6  A    between atoms: N_8  and  C_12
    7  A    between atoms: N_8  and  C_29
    8  A    between atoms: N_9  and  C_12
    9  A    between atoms: N_9  and  C_23
   10  A    between atoms: C_14  and  C_39
   11  A    between atoms: C_15  and  C_46
   12  A    between atoms: C_15  and  C_53
   13  A    between atoms: C_15  and  C_62
   14  A    between atoms: O_16  and  C_32
   15  A    between atoms: C_20  and  C_47
   16  A    between atoms: C_29  and  C_30
   17  A    between atoms: C_29  and  C_52
   18  A    between atoms: C_32  and  C_40
   19  A    between atoms: C_33  and  N_57
   20  A    between atoms: C_34  and  N_35
   21  A    between atoms: C_34  and  C_37
   22  A    between atoms: N_35  and  C_46
   23  A    between atoms: C_42  and  C_62
   24  A    between atoms: C_45  and  C_55
                            x       y       z     vdW  Elec       q    Type
                         _______ _______ _______ _____ _____    ______ ____

>  <TORSDO>
F 24

$$$$
=
 OpenBabel11072408313D

 62 67  0  0  1  0  0  0  0  0999 V2000
  192.4020  175.3420  145.2460 C   0  0  0  0  0  0  0  0  0  0  0  0
  192.5840  176.4790  144.7400 O   0  0  0  0  0  0  0  0  0  0  0  0
  191.2860  175.1030  146.1110 N   0  0  0  0  0  2  0  0  0  0  0  0
  193.5090  172.3940  143.6260 C   0  0  1  0  0  3  0  0  0  0  0  0
  194.3080  174.6410  143.8200 C   0  0  2  0  0  3  0  0  0  0  0  0
  193.3490  174.2320  144.9180 C   0  0  2  0  0  3  0  0  0  0  0  0
  192.6570  173.0760  144.5150 O   0  0  0  0  0  0  0  0  0  0  0  0
  194.4300  173.4090  142.9760 C   0  0  0  0  0  2  0  0  0  0  0  0
  195.9670  175.0720  144.5590 P   0  0  1  0  0  0  0  0  0  0  0  0
  196.9550  174.3210  143.3460 O   0  0  0  0  0  1  0  0  0  0  0  0
  196.7940  176.8050  142.6750 O   0  0  0  0  0  1  0  0  0  0  0  0
  196.1130  176.8090  143.8960 C   0  0  0  0  0  2  0  0  0  0  0  0
  194.2890  171.3100  144.3800 C   0  0  1  0  0  3  0  0  0  0  0  0
  193.4600  170.0320  144.4520 C   0  0  0  0  0  1  0  0  0  0  0  0
  195.6770  171.0510  143.7750 C   0  0  1  0  0  3  0  0  0  0  0  0
  196.4920  171.5490  146.1490 C   0  0  0  0  0  1  0  0  0  0  0  0
  196.7410  169.2640  145.1960 C   0  0  0  0  0  1  0  0  0  0  0  0
  196.7100  170.7450  144.8760 C   0  0  0  0  0  3  0  0  0  0  0  0
  195.6180  170.0260  142.7330 N   0  0  0  0  0  2  0  0  0  0  0  0
  196.5520  170.3870  141.6770 C   0  0  0  0  0  2  0  0  0  0  0  0
  195.8310  170.5960  140.4280 N   0  0  0  0  0  2  0  0  0  0  0  0
  197.1300  174.1100  138.8340 C   0  0  0  0  0  0  0  0  0  0  0  0
  196.4800  173.3220  137.9700 C   0  0  0  0  0  3  0  0  0  0  0  0
  196.7100  171.2940  139.4950 C   0  0  2  0  0  3  0  0  0  0  0  0
  197.7000  172.1900  140.2700 C   0  0  0  0  0  2  0  0  0  0  0  0
  197.2890  173.6620  140.2580 C   0  0  0  0  0  2  0  0  0  0  0  0
  195.8530  172.0340  138.4400 C   0  0  2  0  0  3  0  0  0  0  0  0
  196.0890  169.8940  137.4170 F   0  0  0  0  0  0  0  0  0  0  0  0
  195.9600  171.6890  136.0770 F   0  0  0  0  0  0  0  0  0  0  0  0
  195.4950  171.1320  137.2540 C   0  0  0  0  0  0  0  0  0  0  0  0
  194.1230  170.9730  137.1690 F   0  0  0  0  0  0  0  0  0  0  0  0
  197.9270  175.3220  136.9110 N   0  0  0  0  0  1  0  0  0  0  0  0
  197.7710  175.3680  138.3540 C   0  0  0  0  0  2  0  0  0  0  0  0
  190.2330  176.0810  146.3540 C   0  0  2  0  0  0  0  0  0  0  0  0
  188.8920  175.4340  146.6520 C   0  0  2  0  0  3  0  0  0  0  0  0
  189.1060  176.1650  145.3230 C   0  0  2  0  0  3  0  0  0  0  0  0
  190.6000  177.3490  147.1150 C   0  0  0  0  0  1  0  0  0  0  0  0
  189.5680  174.0170  144.4410 O   0  0  0  0  0  0  0  0  0  0  0  0
  189.2020  175.1580  144.2090 C   0  0  0  0  0  0  0  0  0  0  0  0
  188.8710  175.5790  142.8030 C   0  0  1  0  0  3  0  0  0  0  0  0
  186.3190  176.9570  141.7590 C   0  0  2  0  0  3  0  0  0  0  0  0
  187.4420  177.4700  143.7840 C   0  0  0  0  0  2  0  0  0  0  0  0
  185.6530  178.2390  142.2300 C   0  0  2  0  0  3  0  0  0  0  0  0
  186.0750  177.1830  143.2360 C   0  0  1  0  0  3  0  0  0  0  0  0
  187.6800  177.1950  141.4730 O   0  0  0  0  0  0  0  0  0  0  0  0
  188.3810  177.0370  142.6820 C   0  0  2  0  0  3  0  0  0  0  0  0
  184.1470  178.1370  142.0360 C   0  0  0  0  0  2  0  0  0  0  0  0
  183.7330  178.6220  140.6530 C   0  0  0  0  0  2  0  0  0  0  0  0
  182.7300  177.8060  140.1320 O   0  0  0  0  0  1  0  0  0  0  0  0
  190.0820  175.3190  141.9130 C   0  0  0  0  0  2  0  0  0  0  0  0
  189.7920  174.3070  140.9070 N   0  0  0  0  0  2  0  0  0  0  0  0
  191.0610  173.7850  140.4120 C   0  0  0  0  0  2  0  0  0  0  0  0
  190.7440  170.3710  142.0580 C   0  0  0  0  0  3  0  0  0  0  0  0
  191.6490  169.6410  141.2860 C   0  0  0  0  0  0  0  0  0  0  0  0
  191.2400  172.3290  140.7280 C   0  0  0  0  0  0  0  0  0  0  0  0
  192.3280  170.2730  140.2420 C   0  0  0  0  0  3  0  0  0  0  0  0
  192.1140  171.5920  139.9890 N   0  0  0  0  0  0  0  0  0  0  0  0
  191.8580  168.3240  141.5380 F   0  0  0  0  0  0  0  0  0  0  0  0
  190.5440  171.7230  141.7880 C   0  0  0  0  0  3  0  0  0  0  0  0
  187.9590  176.2530  147.5390 C   0  0  0  0  0  2  0  0  0  0  0  0
  186.6300  176.0410  147.1620 O   0  0  0  0  0  0  0  0  0  0  0  0
  186.0120  177.2850  147.2920 C   0  0  0  0  0  1  0  0  0  0  0  0
  1  3  1  0  0  0  0
  2  1  2  0  0  0  0
  3 34  1  0  0  0  0
  4 13  1  1  0  0  0
  4  7  1  0  0  0  0
  5  9  1  1  0  0  0
  5  6  1  0  0  0  0
  6  1  1  6  0  0  0
  7  6  1  0  0  0  0
  8  4  1  0  0  0  0
  8  5  1  0  0  0  0
  9 10  1  6  0  0  0
 11 12  1  0  0  0  0
 12  9  1  0  0  0  0
 13 14  1  6  0  0  0
 15 19  1  6  0  0  0
 15 13  1  0  0  0  0
 15 18  1  0  0  0  0
 18 17  1  0  0  0  0
 18 16  1  0  0  0  0
 20 19  1  0  0  0  0
 21 20  1  0  0  0  0
 22 26  1  0  0  0  0
 23 27  1  0  0  0  0
 23 22  2  0  0  0  0
 24 25  1  0  0  0  0
 24 21  1  1  0  0  0
 26 25  1  0  0  0  0
 27 30  1  6  0  0  0
 27 24  1  0  0  0  0
 29 30  1  0  0  0  0
 30 28  1  0  0  0  0
 31 30  1  0  0  0  0
 32 33  1  0  0  0  0
 33 22  1  0  0  0  0
 34 35  1  0  0  0  0
 34 37  1  1  0  0  0
 35 60  1  1  0  0  0
 36 39  1  6  0  0  0
 36 34  1  0  0  0  0
 36 35  1  0  0  0  0
 39 38  2  0  0  0  0
 40 50  1  6  0  0  0
 40 39  1  0  0  0  0
 41 45  1  1  0  0  0
 41 43  1  0  0  0  0
 41 44  1  0  0  0  0
 43 47  1  6  0  0  0
 43 44  1  0  0  0  0
 44 42  1  1  0  0  0
 45 46  1  0  0  0  0
 46 40  1  1  0  0  0
 46 42  1  0  0  0  0
 48 47  1  0  0  0  0
 49 48  1  0  0  0  0
 51 50  1  0  0  0  0
 52 55  1  0  0  0  0
 52 51  1  0  0  0  0
 54 58  1  0  0  0  0
 54 53  2  0  0  0  0
 55 59  2  0  0  0  0
 56 54  1  0  0  0  0
 57 56  2  0  0  0  0
 57 55  1  0  0  0  0
 59 53  1  0  0  0  0
 61 62  1  0  0  0  0
 61 60  1  0  0  0  0
M  END
>  <MODEL>
9

>  <REMARK>
 VINA RESULT:      -4.5      1.915      2.351
  Name = 
  24 active torsions:
  status: ('A' for Active; 'I' for Inactive)
    1  A    between atoms: C_1  and  C_30
    2  A    between atoms: P_2  and  C_10
    3  A    between atoms: P_2  and  C_31
    4  A    between atoms: C_3  and  C_47
    5  A    between atoms: C_4  and  C_60
    6  A    between atoms: N_8  and  C_12
    7  A    between atoms: N_8  and  C_29
    8  A    between atoms: N_9  and  C_12
    9  A    between atoms: N_9  and  C_23
   10  A    between atoms: C_14  and  C_39
   11  A    between atoms: C_15  and  C_46
   12  A    between atoms: C_15  and  C_53
   13  A    between atoms: C_15  and  C_62
   14  A    between atoms: O_16  and  C_32
   15  A    between atoms: C_20  and  C_47
   16  A    between atoms: C_29  and  C_30
   17  A    between atoms: C_29  and  C_52
   18  A    between atoms: C_32  and  C_40
   19  A    between atoms: C_33  and  N_57
   20  A    between atoms: C_34  and  N_35
   21  A    between atoms: C_34  and  C_37
   22  A    between atoms: N_35  and  C_46
   23  A    between atoms: C_42  and  C_62
   24  A    between atoms: C_45  and  C_55
                            x       y       z     vdW  Elec       q    Type
                         _______ _______ _______ _____ _____    ______ ____

>  <TORSDO>
F 24

$$$$
