=
 OpenBabel11072409163D

 39 43  0  0  1  0  0  0  0  0999 V2000
  193.1310  174.2570  145.7520 C   0  0  0  0  0  0  0  0  0  0  0  0
  192.1690  176.0820  146.9690 C   0  0  0  0  0  0  0  0  0  0  0  0
  194.6900  172.9960  144.6120 C   0  0  0  0  0  0  0  0  0  0  0  0
  193.3900  176.7020  146.9700 N   0  0  0  0  0  0  0  0  0  0  0  0
  195.2610  172.1130  143.9150 O   0  0  0  0  0  0  0  0  0  0  0  0
  193.2420  172.9440  145.0290 C   0  0  2  0  0  3  0  0  0  0  0  0
  194.3440  174.9090  145.7540 C   0  0  0  0  0  0  0  0  0  0  0  0
  195.3510  174.1710  145.0770 N   0  0  0  0  0  0  0  0  0  0  0  0
  194.4840  176.1480  146.3710 C   0  0  0  0  0  3  0  0  0  0  0  0
  192.0110  174.8260  146.3570 C   0  0  0  0  0  3  0  0  0  0  0  0
  191.0060  176.7160  147.6550 C   0  0  0  0  0  2  0  0  0  0  0  0
  189.6790  176.1830  147.1220 C   0  0  0  0  0  2  0  0  0  0  0  0
  188.7790  177.2910  146.5860 C   0  0  0  0  0  2  0  0  0  0  0  0
  187.6490  176.7340  145.7270 C   0  0  0  0  0  2  0  0  0  0  0  0
  186.3480  177.1830  143.6560 C   0  0  1  0  0  0  0  0  0  0  0  0
  185.9200  178.4710  142.9530 C   0  0  2  0  0  3  0  0  0  0  0  0
  186.1670  176.0190  142.8990 O   0  0  0  0  0  0  0  0  0  0  0  0
  187.7070  177.2780  144.3020 C   0  0  2  0  0  3  0  0  0  0  0  0
  185.0990  177.9280  144.1210 C   0  0  2  0  0  3  0  0  0  0  0  0
  187.4670  175.5470  142.6350 C   0  0  0  0  0  2  0  0  0  0  0  0
  188.4950  176.3390  143.4370 C   0  0  0  0  0  2  0  0  0  0  0  0
  185.2480  178.2320  141.6330 C   0  0  0  0  0  0  0  0  0  0  0  0
  183.9980  178.1030  141.5940 O   0  0  0  0  0  1  0  0  0  0  0  0
  185.9800  178.1500  140.4530 O   0  0  0  0  0  0  0  0  0  0  0  0
  185.3570  178.8030  145.3350 C   0  0  0  0  0  2  0  0  0  0  0  0
  185.0120  178.5050  147.6720 O   0  0  0  0  0  1  0  0  0  0  0  0
  184.3630  178.4920  146.4350 C   0  0  0  0  0  2  0  0  0  0  0  0
  192.3270  172.8480  143.8820 N   0  0  0  0  0  2  0  0  0  0  0  0
  191.0830  171.1320  142.6980 C   0  0  0  0  0  2  0  0  0  0  0  0
  190.0140  172.3830  144.3990 C   0  0  0  0  0  2  0  0  0  0  0  0
  191.3410  171.7800  144.0410 C   0  0  2  0  0  3  0  0  0  0  0  0
  189.9540  171.7390  142.1290 O   0  0  0  0  0  0  0  0  0  0  0  0
  189.1300  172.0580  143.2190 C   0  0  0  0  0  2  0  0  0  0  0  0
  196.6020  174.7150  144.5660 C   0  0  0  0  0  2  0  0  0  0  0  0
  196.4660  175.0440  143.0890 C   0  0  0  0  0  2  0  0  0  0  0  0
  195.6320  176.1790  142.9220 O   0  0  0  0  0  0  0  0  0  0  0  0
  194.5170  176.1450  142.0890 C   0  0  0  0  0  0  0  0  0  0  0  0
  193.2370  176.0420  142.6200 O   0  0  0  0  0  1  0  0  0  0  0  0
  194.6720  176.2030  140.8420 O   0  0  0  0  0  0  0  0  0  0  0  0
  1  7  2  0  0  0  0
  1 10  1  0  0  0  0
  2  4  1  0  0  0  0
  2 11  1  0  0  0  0
  3  6  1  0  0  0  0
  3  8  1  0  0  0  0
  5  3  2  0  0  0  0
  6 28  1  6  0  0  0
  6  1  1  0  0  0  0
  7  9  1  0  0  0  0
  8  7  1  0  0  0  0
  9  4  2  0  0  0  0
 10  2  2  0  0  0  0
 12 11  1  0  0  0  0
 13 12  1  0  0  0  0
 14 13  1  0  0  0  0
 15 17  1  6  0  0  0
 15 19  1  0  0  0  0
 15 18  1  0  0  0  0
 16 22  1  6  0  0  0
 16 15  1  0  0  0  0
 16 19  1  0  0  0  0
 18 14  1  1  0  0  0
 19 25  1  1  0  0  0
 20 17  1  0  0  0  0
 20 21  1  0  0  0  0
 21 18  1  0  0  0  0
 23 22  1  0  0  0  0
 24 22  2  0  0  0  0
 25 27  1  0  0  0  0
 27 26  1  0  0  0  0
 29 31  1  0  0  0  0
 31 28  1  6  0  0  0
 31 30  1  0  0  0  0
 32 29  1  0  0  0  0
 32 33  1  0  0  0  0
 33 30  1  0  0  0  0
 34  8  1  0  0  0  0
 35 34  1  0  0  0  0
 36 35  1  0  0  0  0
 37 38  1  0  0  0  0
 37 36  1  0  0  0  0
 39 37  2  0  0  0  0
M  END
>  <MODEL>
1

>  <REMARK>
 VINA RESULT:      -7.0      0.000      0.000
  Name = 
  14 active torsions:
  status: ('A' for Active; 'I' for Inactive)
    1  A    between atoms: C_2  and  C_8
    2  A    between atoms: C_2  and  C_13
    3  A    between atoms: C_4  and  C_7
    4  A    between atoms: C_5  and  O_35
    5  A    between atoms: C_10  and  C_15
    6  A    between atoms: C_12  and  C_13
    7  A    between atoms: C_12  and  C_39
    8  A    between atoms: C_15  and  C_26
    9  A    between atoms: C_19  and  C_32
   10  A    between atoms: C_19  and  O_35
   11  A    between atoms: C_20  and  C_39
   12  A    between atoms: C_21  and  N_23
   13  A    between atoms: N_23  and  C_29
   14  A    between atoms: N_25  and  C_32
                            x       y       z     vdW  Elec       q    Type
                         _______ _______ _______ _____ _____    ______ ____

>  <TORSDO>
F 14

$$$$
=
 OpenBabel11072409163D

 39 43  0  0  1  0  0  0  0  0999 V2000
  191.9200  174.3040  143.8820 C   0  0  0  0  0  0  0  0  0  0  0  0
  190.2030  174.3120  145.5520 C   0  0  0  0  0  0  0  0  0  0  0  0
  193.0050  173.8700  141.8940 C   0  0  0  0  0  0  0  0  0  0  0  0
  189.3770  173.6540  144.6810 N   0  0  0  0  0  0  0  0  0  0  0  0
  193.8710  173.7610  140.9830 O   0  0  0  0  0  0  0  0  0  0  0  0
  193.2470  174.5440  143.2200 C   0  0  2  0  0  3  0  0  0  0  0  0
  191.0740  173.6280  143.0310 C   0  0  0  0  0  0  0  0  0  0  0  0
  191.6830  173.3460  141.7800 N   0  0  0  0  0  0  0  0  0  0  0  0
  189.7810  173.2970  143.4280 C   0  0  0  0  0  3  0  0  0  0  0  0
  191.5080  174.6620  145.1650 C   0  0  0  0  0  3  0  0  0  0  0  0
  189.7090  174.7000  146.9050 C   0  0  0  0  0  2  0  0  0  0  0  0
  189.1360  176.1140  146.9110 C   0  0  0  0  0  2  0  0  0  0  0  0
  187.6110  176.1260  146.8910 C   0  0  0  0  0  2  0  0  0  0  0  0
  187.0630  177.4300  146.3230 C   0  0  0  0  0  2  0  0  0  0  0  0
  185.8710  178.0070  144.2180 C   0  0  1  0  0  0  0  0  0  0  0  0
  185.5210  177.2040  142.9660 C   0  0  2  0  0  3  0  0  0  0  0  0
  185.2280  179.2470  144.3150 O   0  0  0  0  0  0  0  0  0  0  0  0
  185.8090  177.1940  145.4860 C   0  0  2  0  0  3  0  0  0  0  0  0
  186.9070  177.8300  143.1100 C   0  0  2  0  0  3  0  0  0  0  0  0
  184.3600  179.1240  145.4170 C   0  0  0  0  0  2  0  0  0  0  0  0
  184.6270  177.8220  146.1640 C   0  0  0  0  0  2  0  0  0  0  0  0
  184.6590  177.9610  141.9970 C   0  0  0  0  0  0  0  0  0  0  0  0
  183.4160  177.9940  142.1780 O   0  0  0  0  0  1  0  0  0  0  0  0
  185.2100  178.6260  140.9060 O   0  0  0  0  0  0  0  0  0  0  0  0
  187.9030  176.7230  143.4100 C   0  0  0  0  0  2  0  0  0  0  0  0
  189.2380  178.1390  142.0380 O   0  0  0  0  0  1  0  0  0  0  0  0
  189.3040  177.1490  143.0200 C   0  0  0  0  0  2  0  0  0  0  0  0
  194.3680  173.9460  143.9610 N   0  0  0  0  0  2  0  0  0  0  0  0
  195.5280  174.8630  145.8860 C   0  0  0  0  0  2  0  0  0  0  0  0
  194.7900  176.3150  144.1700 C   0  0  0  0  0  2  0  0  0  0  0  0
  195.3520  174.9400  144.3860 C   0  0  2  0  0  3  0  0  0  0  0  0
  194.6890  175.8190  146.4760 O   0  0  0  0  0  0  0  0  0  0  0  0
  194.6630  176.8850  145.5620 C   0  0  0  0  0  2  0  0  0  0  0  0
  191.2330  172.3420  140.8240 C   0  0  0  0  0  2  0  0  0  0  0  0
  190.9040  172.9960  139.4930 C   0  0  0  0  0  2  0  0  0  0  0  0
  189.8070  173.8820  139.6510 O   0  0  0  0  0  0  0  0  0  0  0  0
  188.5680  173.6140  139.0770 C   0  0  0  0  0  0  0  0  0  0  0  0
  187.8830  174.5980  138.3740 O   0  0  0  0  0  0  0  0  0  0  0  0
  188.0590  172.4700  139.2030 O   0  0  0  0  0  1  0  0  0  0  0  0
  1 10  1  0  0  0  0
  2 11  1  0  0  0  0
  3  6  1  0  0  0  0
  4  2  1  0  0  0  0
  5  3  2  0  0  0  0
  6  1  1  0  0  0  0
  6 28  1  1  0  0  0
  7  9  1  0  0  0  0
  7  1  2  0  0  0  0
  8  3  1  0  0  0  0
  8  7  1  0  0  0  0
  9  4  2  0  0  0  0
 10  2  2  0  0  0  0
 11 12  1  0  0  0  0
 13 12  1  0  0  0  0
 14 13  1  0  0  0  0
 15 17  1  1  0  0  0
 15 18  1  0  0  0  0
 16 22  1  6  0  0  0
 16 19  1  0  0  0  0
 16 15  1  0  0  0  0
 17 20  1  0  0  0  0
 18 21  1  0  0  0  0
 18 14  1  1  0  0  0
 19 25  1  1  0  0  0
 19 15  1  0  0  0  0
 20 21  1  0  0  0  0
 22 23  1  0  0  0  0
 24 22  2  0  0  0  0
 26 27  1  0  0  0  0
 27 25  1  0  0  0  0
 29 32  1  0  0  0  0
 30 31  1  0  0  0  0
 30 33  1  0  0  0  0
 31 28  1  1  0  0  0
 31 29  1  0  0  0  0
 33 32  1  0  0  0  0
 34  8  1  0  0  0  0
 35 36  1  0  0  0  0
 35 34  1  0  0  0  0
 37 39  1  0  0  0  0
 37 36  1  0  0  0  0
 38 37  2  0  0  0  0
M  END
>  <MODEL>
2

>  <REMARK>
 VINA RESULT:      -6.9      2.249      4.785
  Name = 
  14 active torsions:
  status: ('A' for Active; 'I' for Inactive)
    1  A    between atoms: C_2  and  C_8
    2  A    between atoms: C_2  and  C_13
    3  A    between atoms: C_4  and  C_7
    4  A    between atoms: C_5  and  O_35
    5  A    between atoms: C_10  and  C_15
    6  A    between atoms: C_12  and  C_13
    7  A    between atoms: C_12  and  C_39
    8  A    between atoms: C_15  and  C_26
    9  A    between atoms: C_19  and  C_32
   10  A    between atoms: C_19  and  O_35
   11  A    between atoms: C_20  and  C_39
   12  A    between atoms: C_21  and  N_23
   13  A    between atoms: N_23  and  C_29
   14  A    between atoms: N_25  and  C_32
                            x       y       z     vdW  Elec       q    Type
                         _______ _______ _______ _____ _____    ______ ____

>  <TORSDO>
F 14

$$$$
=
 OpenBabel11072409163D

 39 43  0  0  1  0  0  0  0  0999 V2000
  192.3420  174.5250  144.7370 C   0  0  0  0  0  0  0  0  0  0  0  0
  191.1240  176.0550  146.1200 C   0  0  0  0  0  0  0  0  0  0  0  0
  194.1250  173.4210  143.7790 C   0  0  0  0  0  0  0  0  0  0  0  0
  192.3050  176.4620  146.6810 N   0  0  0  0  0  0  0  0  0  0  0  0
  194.8500  172.6950  143.0440 O   0  0  0  0  0  0  0  0  0  0  0  0
  192.6210  173.4680  143.7060 C   0  0  2  0  0  3  0  0  0  0  0  0
  193.5170  174.9630  145.3060 C   0  0  0  0  0  0  0  0  0  0  0  0
  194.6530  174.3050  144.7650 N   0  0  0  0  0  0  0  0  0  0  0  0
  193.5070  175.9440  146.2940 C   0  0  0  0  0  3  0  0  0  0  0  0
  191.1150  175.0600  145.1270 C   0  0  0  0  0  3  0  0  0  0  0  0
  189.8320  176.6360  146.5910 C   0  0  0  0  0  2  0  0  0  0  0  0
  188.8150  175.5480  146.9250 C   0  0  0  0  0  2  0  0  0  0  0  0
  187.4060  176.1020  147.1010 C   0  0  0  0  0  2  0  0  0  0  0  0
  187.1420  177.2820  146.1720 C   0  0  0  0  0  2  0  0  0  0  0  0
  185.8710  177.9640  144.1460 C   0  0  1  0  0  0  0  0  0  0  0  0
  185.4660  177.2230  142.8730 C   0  0  2  0  0  3  0  0  0  0  0  0
  185.2420  179.2020  144.3260 O   0  0  0  0  0  0  0  0  0  0  0  0
  185.8540  177.0930  145.3760 C   0  0  2  0  0  3  0  0  0  0  0  0
  186.8610  177.8340  142.9900 C   0  0  2  0  0  3  0  0  0  0  0  0
  184.4170  179.0320  145.4550 C   0  0  0  0  0  2  0  0  0  0  0  0
  184.7040  177.6940  146.1290 C   0  0  0  0  0  2  0  0  0  0  0  0
  184.5720  178.0290  141.9760 C   0  0  0  0  0  0  0  0  0  0  0  0
  185.0730  178.6430  141.0000 O   0  0  0  0  0  0  0  0  0  0  0  0
  183.2020  178.1100  142.2040 O   0  0  0  0  0  1  0  0  0  0  0  0
  187.8600  176.7080  143.1980 C   0  0  0  0  0  2  0  0  0  0  0  0
  189.1260  178.2660  141.9180 O   0  0  0  0  0  1  0  0  0  0  0  0
  189.2330  177.1190  142.7070 C   0  0  0  0  0  2  0  0  0  0  0  0
  192.1310  173.8350  142.3700 N   0  0  0  0  0  2  0  0  0  0  0  0
  189.8200  173.5410  141.6870 C   0  0  0  0  0  2  0  0  0  0  0  0
  190.9150  171.8100  142.8720 C   0  0  0  0  0  2  0  0  0  0  0  0
  191.1670  172.8710  141.8410 C   0  0  2  0  0  3  0  0  0  0  0  0
  189.0650  173.2760  142.8390 O   0  0  0  0  0  0  0  0  0  0  0  0
  189.4610  171.9910  143.2400 C   0  0  0  0  0  2  0  0  0  0  0  0
  196.0290  174.7800  144.8500 C   0  0  0  0  0  2  0  0  0  0  0  0
  196.2260  175.9780  143.9360 C   0  0  0  0  0  2  0  0  0  0  0  0
  196.6150  175.5390  142.6440 O   0  0  0  0  0  0  0  0  0  0  0  0
  195.9300  175.9440  141.5030 C   0  0  0  0  0  0  0  0  0  0  0  0
  194.5620  176.1870  141.5440 O   0  0  0  0  0  1  0  0  0  0  0  0
  196.5550  176.0860  140.4200 O   0  0  0  0  0  0  0  0  0  0  0  0
  1 10  2  0  0  0  0
  1  7  1  0  0  0  0
  2 11  1  0  0  0  0
  2  4  2  0  0  0  0
  3  8  1  0  0  0  0
  5  3  2  0  0  0  0
  6 28  1  6  0  0  0
  6  3  1  0  0  0  0
  6  1  1  0  0  0  0
  7  9  2  0  0  0  0
  8 34  1  0  0  0  0
  8  7  1  0  0  0  0
  9  4  1  0  0  0  0
 10  2  1  0  0  0  0
 11 12  1  0  0  0  0
 12 13  1  0  0  0  0
 14 13  1  0  0  0  0
 15 17  1  1  0  0  0
 15 18  1  0  0  0  0
 16 22  1  6  0  0  0
 16 19  1  0  0  0  0
 16 15  1  0  0  0  0
 17 20  1  0  0  0  0
 18 21  1  0  0  0  0
 18 14  1  1  0  0  0
 19 25  1  1  0  0  0
 19 15  1  0  0  0  0
 20 21  1  0  0  0  0
 22 24  1  0  0  0  0
 23 22  2  0  0  0  0
 26 27  1  0  0  0  0
 27 25  1  0  0  0  0
 29 31  1  0  0  0  0
 29 32  1  0  0  0  0
 30 33  1  0  0  0  0
 31 28  1  1  0  0  0
 31 30  1  0  0  0  0
 32 33  1  0  0  0  0
 35 34  1  0  0  0  0
 36 35  1  0  0  0  0
 37 38  1  0  0  0  0
 37 36  1  0  0  0  0
 39 37  2  0  0  0  0
M  END
>  <MODEL>
3

>  <REMARK>
 VINA RESULT:      -6.9      1.443      2.562
  Name = 
  14 active torsions:
  status: ('A' for Active; 'I' for Inactive)
    1  A    between atoms: C_2  and  C_8
    2  A    between atoms: C_2  and  C_13
    3  A    between atoms: C_4  and  C_7
    4  A    between atoms: C_5  and  O_35
    5  A    between atoms: C_10  and  C_15
    6  A    between atoms: C_12  and  C_13
    7  A    between atoms: C_12  and  C_39
    8  A    between atoms: C_15  and  C_26
    9  A    between atoms: C_19  and  C_32
   10  A    between atoms: C_19  and  O_35
   11  A    between atoms: C_20  and  C_39
   12  A    between atoms: C_21  and  N_23
   13  A    between atoms: N_23  and  C_29
   14  A    between atoms: N_25  and  C_32
                            x       y       z     vdW  Elec       q    Type
                         _______ _______ _______ _____ _____    ______ ____

>  <TORSDO>
F 14

$$$$
=
 OpenBabel11072409163D

 39 43  0  0  1  0  0  0  0  0999 V2000
  193.4500  174.4370  144.6070 C   0  0  0  0  0  0  0  0  0  0  0  0
  192.4600  175.8880  146.2350 C   0  0  0  0  0  0  0  0  0  0  0  0
  195.0650  173.3870  143.3390 C   0  0  0  0  0  0  0  0  0  0  0  0
  193.7130  176.2620  146.6380 N   0  0  0  0  0  0  0  0  0  0  0  0
  195.6680  172.7020  142.4670 O   0  0  0  0  0  0  0  0  0  0  0  0
  193.5660  173.4380  143.4900 C   0  0  2  0  0  3  0  0  0  0  0  0
  194.6990  174.8420  145.0210 C   0  0  0  0  0  0  0  0  0  0  0  0
  195.7380  174.2150  144.2840 N   0  0  0  0  0  0  0  0  0  0  0  0
  194.8420  175.7670  146.0520 C   0  0  0  0  0  3  0  0  0  0  0  0
  192.2970  174.9490  145.2010 C   0  0  0  0  0  3  0  0  0  0  0  0
  191.2560  176.4410  146.9210 C   0  0  0  0  0  2  0  0  0  0  0  0
  190.4520  175.3470  147.6180 C   0  0  0  0  0  2  0  0  0  0  0  0
  189.0300  175.2350  147.0810 C   0  0  0  0  0  2  0  0  0  0  0  0
  188.4110  176.6060  146.8310 C   0  0  0  0  0  2  0  0  0  0  0  0
  187.0020  177.5730  145.0250 C   0  0  1  0  0  0  0  0  0  0  0  0
  186.5580  177.0530  143.6590 C   0  0  2  0  0  3  0  0  0  0  0  0
  186.3300  178.7240  145.4570 O   0  0  0  0  0  0  0  0  0  0  0  0
  187.0900  176.4950  146.0750 C   0  0  2  0  0  3  0  0  0  0  0  0
  187.9300  177.7050  143.8200 C   0  0  2  0  0  3  0  0  0  0  0  0
  185.5780  178.3120  146.5730 C   0  0  0  0  0  2  0  0  0  0  0  0
  185.9590  176.8910  146.9780 C   0  0  0  0  0  2  0  0  0  0  0  0
  185.5820  177.9590  142.9660 C   0  0  0  0  0  0  0  0  0  0  0  0
  184.3500  177.7930  143.1550 O   0  0  0  0  0  1  0  0  0  0  0  0
  186.0130  178.9780  142.1230 O   0  0  0  0  0  0  0  0  0  0  0  0
  188.9860  176.6140  143.7720 C   0  0  0  0  0  2  0  0  0  0  0  0
  190.8490  178.0970  143.7560 O   0  0  0  0  0  1  0  0  0  0  0  0
  190.2120  177.0940  143.0220 C   0  0  0  0  0  2  0  0  0  0  0  0
  192.8900  173.8790  142.2610 N   0  0  0  0  0  2  0  0  0  0  0  0
  190.5230  173.5750  141.8120 C   0  0  0  0  0  2  0  0  0  0  0  0
  191.7550  171.8180  142.8090 C   0  0  0  0  0  2  0  0  0  0  0  0
  191.8870  172.9200  141.7990 C   0  0  2  0  0  3  0  0  0  0  0  0
  189.8950  173.2570  143.0250 O   0  0  0  0  0  0  0  0  0  0  0  0
  190.3460  171.9640  143.3320 C   0  0  0  0  0  2  0  0  0  0  0  0
  197.1150  174.6840  144.1920 C   0  0  0  0  0  2  0  0  0  0  0  0
  197.1890  175.9220  143.3140 C   0  0  0  0  0  2  0  0  0  0  0  0
  197.4130  175.5430  141.9650 O   0  0  0  0  0  0  0  0  0  0  0  0
  196.6190  176.0330  140.9320 C   0  0  0  0  0  0  0  0  0  0  0  0
  196.9050  175.7210  139.6080 O   0  0  0  0  0  0  0  0  0  0  0  0
  195.6360  176.7720  141.1990 O   0  0  0  0  0  1  0  0  0  0  0  0
  1  7  2  0  0  0  0
  1 10  1  0  0  0  0
  2  4  1  0  0  0  0
  2 11  1  0  0  0  0
  3  6  1  0  0  0  0
  3  8  1  0  0  0  0
  5  3  2  0  0  0  0
  6 28  1  6  0  0  0
  6  1  1  0  0  0  0
  7  9  1  0  0  0  0
  8  7  1  0  0  0  0
  9  4  2  0  0  0  0
 10  2  2  0  0  0  0
 11 12  1  0  0  0  0
 13 12  1  0  0  0  0
 14 13  1  0  0  0  0
 15 17  1  1  0  0  0
 15 18  1  0  0  0  0
 16 22  1  6  0  0  0
 16 19  1  0  0  0  0
 16 15  1  0  0  0  0
 17 20  1  0  0  0  0
 18 14  1  1  0  0  0
 18 21  1  0  0  0  0
 19 25  1  1  0  0  0
 19 15  1  0  0  0  0
 20 21  1  0  0  0  0
 22 23  1  0  0  0  0
 24 22  2  0  0  0  0
 27 26  1  0  0  0  0
 27 25  1  0  0  0  0
 29 32  1  0  0  0  0
 30 33  1  0  0  0  0
 31 29  1  0  0  0  0
 31 28  1  1  0  0  0
 31 30  1  0  0  0  0
 32 33  1  0  0  0  0
 34  8  1  0  0  0  0
 35 34  1  0  0  0  0
 36 35  1  0  0  0  0
 37 39  1  0  0  0  0
 37 36  1  0  0  0  0
 38 37  2  0  0  0  0
M  END
>  <MODEL>
4

>  <REMARK>
 VINA RESULT:      -6.7      1.554      2.723
  Name = 
  14 active torsions:
  status: ('A' for Active; 'I' for Inactive)
    1  A    between atoms: C_2  and  C_8
    2  A    between atoms: C_2  and  C_13
    3  A    between atoms: C_4  and  C_7
    4  A    between atoms: C_5  and  O_35
    5  A    between atoms: C_10  and  C_15
    6  A    between atoms: C_12  and  C_13
    7  A    between atoms: C_12  and  C_39
    8  A    between atoms: C_15  and  C_26
    9  A    between atoms: C_19  and  C_32
   10  A    between atoms: C_19  and  O_35
   11  A    between atoms: C_20  and  C_39
   12  A    between atoms: C_21  and  N_23
   13  A    between atoms: N_23  and  C_29
   14  A    between atoms: N_25  and  C_32
                            x       y       z     vdW  Elec       q    Type
                         _______ _______ _______ _____ _____    ______ ____

>  <TORSDO>
F 14

$$$$
=
 OpenBabel11072409163D

 39 43  0  0  1  0  0  0  0  0999 V2000
  193.8890  175.5510  145.4850 C   0  0  0  0  0  0  0  0  0  0  0  0
  191.6130  175.6370  146.2240 C   0  0  0  0  0  0  0  0  0  0  0  0
  195.7190  175.6770  144.0860 C   0  0  0  0  0  0  0  0  0  0  0  0
  191.2450  176.0780  144.9810 N   0  0  0  0  0  0  0  0  0  0  0  0
  196.8780  175.5970  143.5950 O   0  0  0  0  0  0  0  0  0  0  0  0
  195.3760  175.3320  145.5130 C   0  0  2  0  0  3  0  0  0  0  0  0
  193.4900  175.9800  144.2390 C   0  0  0  0  0  0  0  0  0  0  0  0
  194.5800  176.0930  143.3350 N   0  0  0  0  0  0  0  0  0  0  0  0
  192.1510  176.2510  143.9750 C   0  0  0  0  0  3  0  0  0  0  0  0
  192.9620  175.3660  146.5100 C   0  0  0  0  0  3  0  0  0  0  0  0
  190.5890  175.4830  147.2980 C   0  0  0  0  0  2  0  0  0  0  0  0
  189.2830  174.9100  146.7530 C   0  0  0  0  0  2  0  0  0  0  0  0
  188.0790  175.7820  147.0880 C   0  0  0  0  0  2  0  0  0  0  0  0
  187.8970  176.9080  146.0770 C   0  0  0  0  0  2  0  0  0  0  0  0
  186.4910  177.7070  144.1870 C   0  0  1  0  0  0  0  0  0  0  0  0
  185.8410  176.9970  143.0010 C   0  0  2  0  0  3  0  0  0  0  0  0
  186.0550  179.0220  144.3900 O   0  0  0  0  0  0  0  0  0  0  0  0
  186.5080  176.8750  145.4450 C   0  0  2  0  0  3  0  0  0  0  0  0
  187.3090  177.4170  142.9300 C   0  0  2  0  0  3  0  0  0  0  0  0
  185.3580  178.9920  145.6140 C   0  0  0  0  0  2  0  0  0  0  0  0
  185.5470  177.6440  146.3020 C   0  0  0  0  0  2  0  0  0  0  0  0
  184.9590  177.8950  142.1830 C   0  0  0  0  0  0  0  0  0  0  0  0
  185.4230  178.4330  141.1460 O   0  0  0  0  0  0  0  0  0  0  0  0
  183.6400  178.1430  142.5500 O   0  0  0  0  0  1  0  0  0  0  0  0
  188.1680  176.1720  143.0640 C   0  0  0  0  0  2  0  0  0  0  0  0
  188.5370  174.1100  141.9340 O   0  0  0  0  0  1  0  0  0  0  0  0
  187.5430  175.0120  142.3180 C   0  0  0  0  0  2  0  0  0  0  0  0
  195.7410  173.9520  145.8630 N   0  0  0  0  0  2  0  0  0  0  0  0
  194.2910  172.0350  145.5150 C   0  0  0  0  0  2  0  0  0  0  0  0
  196.4230  172.0860  144.4890 C   0  0  0  0  0  2  0  0  0  0  0  0
  195.2800  172.9810  144.8710 C   0  0  2  0  0  3  0  0  0  0  0  0
  194.9870  170.8920  145.9340 O   0  0  0  0  0  0  0  0  0  0  0  0
  196.0020  170.7210  144.9790 C   0  0  0  0  0  2  0  0  0  0  0  0
  194.4760  176.1400  141.8820 C   0  0  0  0  0  2  0  0  0  0  0  0
  194.2740  174.7400  141.3260 C   0  0  0  0  0  2  0  0  0  0  0  0
  192.9280  174.5750  140.9120 O   0  0  0  0  0  0  0  0  0  0  0  0
  192.1620  173.4960  141.3420 C   0  0  0  0  0  0  0  0  0  0  0  0
  192.2130  173.0710  142.6640 O   0  0  0  0  0  1  0  0  0  0  0  0
  191.4200  172.8940  140.5230 O   0  0  0  0  0  0  0  0  0  0  0  0
  1  6  1  0  0  0  0
  1 10  1  0  0  0  0
  2 10  2  0  0  0  0
  2 11  1  0  0  0  0
  3  6  1  0  0  0  0
  4  2  1  0  0  0  0
  5  3  2  0  0  0  0
  6 28  1  6  0  0  0
  7  1  2  0  0  0  0
  8  3  1  0  0  0  0
  8  7  1  0  0  0  0
  9  7  1  0  0  0  0
  9  4  2  0  0  0  0
 12 13  1  0  0  0  0
 12 11  1  0  0  0  0
 14 13  1  0  0  0  0
 15 17  1  1  0  0  0
 15 18  1  0  0  0  0
 16 22  1  6  0  0  0
 16 15  1  0  0  0  0
 17 20  1  0  0  0  0
 18 14  1  1  0  0  0
 18 21  1  0  0  0  0
 19 16  1  0  0  0  0
 19 25  1  1  0  0  0
 19 15  1  0  0  0  0
 20 21  1  0  0  0  0
 22 24  1  0  0  0  0
 23 22  2  0  0  0  0
 26 27  1  0  0  0  0
 27 25  1  0  0  0  0
 29 32  1  0  0  0  0
 30 31  1  0  0  0  0
 30 33  1  0  0  0  0
 31 29  1  0  0  0  0
 31 28  1  1  0  0  0
 33 32  1  0  0  0  0
 34  8  1  0  0  0  0
 35 34  1  0  0  0  0
 36 35  1  0  0  0  0
 36 37  1  0  0  0  0
 37 38  1  0  0  0  0
 39 37  2  0  0  0  0
M  END
>  <MODEL>
5

>  <REMARK>
 VINA RESULT:      -6.6      1.903      3.750
  Name = 
  14 active torsions:
  status: ('A' for Active; 'I' for Inactive)
    1  A    between atoms: C_2  and  C_8
    2  A    between atoms: C_2  and  C_13
    3  A    between atoms: C_4  and  C_7
    4  A    between atoms: C_5  and  O_35
    5  A    between atoms: C_10  and  C_15
    6  A    between atoms: C_12  and  C_13
    7  A    between atoms: C_12  and  C_39
    8  A    between atoms: C_15  and  C_26
    9  A    between atoms: C_19  and  C_32
   10  A    between atoms: C_19  and  O_35
   11  A    between atoms: C_20  and  C_39
   12  A    between atoms: C_21  and  N_23
   13  A    between atoms: N_23  and  C_29
   14  A    between atoms: N_25  and  C_32
                            x       y       z     vdW  Elec       q    Type
                         _______ _______ _______ _____ _____    ______ ____

>  <TORSDO>
F 14

$$$$
=
 OpenBabel11072409163D

 39 43  0  0  1  0  0  0  0  0999 V2000
  191.9100  174.0020  144.9190 C   0  0  0  0  0  0  0  0  0  0  0  0
  190.4010  174.6880  146.6470 C   0  0  0  0  0  0  0  0  0  0  0  0
  193.8620  173.7800  143.7100 C   0  0  0  0  0  0  0  0  0  0  0  0
  191.4440  175.2960  147.2930 N   0  0  0  0  0  0  0  0  0  0  0  0
  194.7110  173.5190  142.8140 O   0  0  0  0  0  0  0  0  0  0  0  0
  192.4130  173.3690  143.6520 C   0  0  2  0  0  3  0  0  0  0  0  0
  192.9390  174.6350  145.5800 C   0  0  0  0  0  0  0  0  0  0  0  0
  194.1740  174.5190  144.8900 N   0  0  0  0  0  0  0  0  0  0  0  0
  192.7110  175.2920  146.7860 C   0  0  0  0  0  3  0  0  0  0  0  0
  190.6150  174.0130  145.4320 C   0  0  0  0  0  3  0  0  0  0  0  0
  189.0360  174.7020  147.2500 C   0  0  0  0  0  2  0  0  0  0  0  0
  188.3320  176.0350  147.0190 C   0  0  0  0  0  2  0  0  0  0  0  0
  188.5120  176.5520  145.5960 C   0  0  0  0  0  2  0  0  0  0  0  0
  187.4420  177.5710  145.2240 C   0  0  0  0  0  2  0  0  0  0  0  0
  186.2370  177.5450  143.0490 C   0  0  1  0  0  0  0  0  0  0  0  0
  185.6560  178.6490  142.1680 C   0  0  2  0  0  3  0  0  0  0  0  0
  186.3030  176.2860  142.4400 O   0  0  0  0  0  0  0  0  0  0  0  0
  187.5120  177.9460  143.7470 C   0  0  2  0  0  3  0  0  0  0  0  0
  184.8530  178.1140  143.3520 C   0  0  2  0  0  3  0  0  0  0  0  0
  187.6790  176.0160  142.3040 C   0  0  0  0  0  2  0  0  0  0  0  0
  188.5030  177.0610  143.0500 C   0  0  0  0  0  2  0  0  0  0  0  0
  185.1280  178.1450  140.8560 C   0  0  0  0  0  0  0  0  0  0  0  0
  183.8900  177.9780  140.7150 O   0  0  0  0  0  1  0  0  0  0  0  0
  185.9810  177.8610  139.7940 O   0  0  0  0  0  0  0  0  0  0  0  0
  184.8760  179.1570  144.4550 C   0  0  0  0  0  2  0  0  0  0  0  0
  184.7190  179.0430  146.8280 O   0  0  0  0  0  1  0  0  0  0  0  0
  184.0650  178.6890  145.6460 C   0  0  0  0  0  2  0  0  0  0  0  0
  191.7300  173.8770  142.4530 N   0  0  0  0  0  2  0  0  0  0  0  0
  191.0740  173.2900  140.1910 C   0  0  0  0  0  2  0  0  0  0  0  0
  189.7690  172.5370  142.0150 C   0  0  0  0  0  2  0  0  0  0  0  0
  191.1910  172.8040  141.6180 C   0  0  2  0  0  3  0  0  0  0  0  0
  189.7650  173.7530  139.9910 O   0  0  0  0  0  0  0  0  0  0  0  0
  188.9670  172.9260  140.7960 C   0  0  0  0  0  2  0  0  0  0  0  0
  195.3430  175.3660  145.0930 C   0  0  0  0  0  2  0  0  0  0  0  0
  195.2380  176.6160  144.2360 C   0  0  0  0  0  2  0  0  0  0  0  0
  196.4380  176.7990  143.5020 O   0  0  0  0  0  0  0  0  0  0  0  0
  196.5440  176.4020  142.1720 C   0  0  0  0  0  0  0  0  0  0  0  0
  197.5980  175.5990  141.7530 O   0  0  0  0  0  1  0  0  0  0  0  0
  195.6790  176.7790  141.3400 O   0  0  0  0  0  0  0  0  0  0  0  0
  1 10  2  0  0  0  0
  1  7  1  0  0  0  0
  2 11  1  0  0  0  0
  2  4  2  0  0  0  0
  3  8  1  0  0  0  0
  5  3  2  0  0  0  0
  6 28  1  6  0  0  0
  6  3  1  0  0  0  0
  6  1  1  0  0  0  0
  7  9  2  0  0  0  0
  8 34  1  0  0  0  0
  8  7  1  0  0  0  0
  9  4  1  0  0  0  0
 10  2  1  0  0  0  0
 12 11  1  0  0  0  0
 13 12  1  0  0  0  0
 14 13  1  0  0  0  0
 15 17  1  6  0  0  0
 15 19  1  0  0  0  0
 15 18  1  0  0  0  0
 16 22  1  6  0  0  0
 16 15  1  0  0  0  0
 16 19  1  0  0  0  0
 18 14  1  1  0  0  0
 19 25  1  1  0  0  0
 20 17  1  0  0  0  0
 20 21  1  0  0  0  0
 21 18  1  0  0  0  0
 23 22  1  0  0  0  0
 24 22  2  0  0  0  0
 25 27  1  0  0  0  0
 27 26  1  0  0  0  0
 29 31  1  0  0  0  0
 31 30  1  0  0  0  0
 31 28  1  1  0  0  0
 32 29  1  0  0  0  0
 32 33  1  0  0  0  0
 33 30  1  0  0  0  0
 35 34  1  0  0  0  0
 36 35  1  0  0  0  0
 37 36  1  0  0  0  0
 38 37  1  0  0  0  0
 39 37  2  0  0  0  0
M  END
>  <MODEL>
6

>  <REMARK>
 VINA RESULT:      -6.6      1.556      1.836
  Name = 
  14 active torsions:
  status: ('A' for Active; 'I' for Inactive)
    1  A    between atoms: C_2  and  C_8
    2  A    between atoms: C_2  and  C_13
    3  A    between atoms: C_4  and  C_7
    4  A    between atoms: C_5  and  O_35
    5  A    between atoms: C_10  and  C_15
    6  A    between atoms: C_12  and  C_13
    7  A    between atoms: C_12  and  C_39
    8  A    between atoms: C_15  and  C_26
    9  A    between atoms: C_19  and  C_32
   10  A    between atoms: C_19  and  O_35
   11  A    between atoms: C_20  and  C_39
   12  A    between atoms: C_21  and  N_23
   13  A    between atoms: N_23  and  C_29
   14  A    between atoms: N_25  and  C_32
                            x       y       z     vdW  Elec       q    Type
                         _______ _______ _______ _____ _____    ______ ____

>  <TORSDO>
F 14

$$$$
=
 OpenBabel11072409163D

 39 43  0  0  1  0  0  0  0  0999 V2000
  191.6560  173.5150  143.1950 C   0  0  0  0  0  0  0  0  0  0  0  0
  190.0750  173.6440  144.9890 C   0  0  0  0  0  0  0  0  0  0  0  0
  192.5730  172.9620  141.1520 C   0  0  0  0  0  0  0  0  0  0  0  0
  189.1680  172.9710  144.2160 N   0  0  0  0  0  0  0  0  0  0  0  0
  193.3630  172.7900  140.1830 O   0  0  0  0  0  0  0  0  0  0  0  0
  192.9330  173.6880  142.4220 C   0  0  2  0  0  3  0  0  0  0  0  0
  190.7310  172.8250  142.4430 C   0  0  0  0  0  0  0  0  0  0  0  0
  191.2340  172.4700  141.1640 N   0  0  0  0  0  0  0  0  0  0  0  0
  189.4650  172.5470  142.9530 C   0  0  0  0  0  3  0  0  0  0  0  0
  191.3540  173.9410  144.4870 C   0  0  0  0  0  3  0  0  0  0  0  0
  189.6970  174.1060  146.3560 C   0  0  0  0  0  2  0  0  0  0  0  0
  190.7820  174.9840  146.9740 C   0  0  0  0  0  2  0  0  0  0  0  0
  190.4220  176.4650  146.9430 C   0  0  0  0  0  2  0  0  0  0  0  0
  188.9200  176.6790  146.7980 C   0  0  0  0  0  2  0  0  0  0  0  0
  187.4530  177.1660  144.8490 C   0  0  1  0  0  0  0  0  0  0  0  0
  186.3760  178.2190  144.5950 C   0  0  2  0  0  3  0  0  0  0  0  0
  187.8600  176.4600  143.7100 O   0  0  0  0  0  0  0  0  0  0  0  0
  188.6000  177.6740  145.6860 C   0  0  2  0  0  3  0  0  0  0  0  0
  186.0300  176.9390  145.3530 C   0  0  2  0  0  3  0  0  0  0  0  0
  189.1960  176.8480  143.4970 C   0  0  0  0  0  2  0  0  0  0  0  0
  189.7080  177.6720  144.6740 C   0  0  0  0  0  2  0  0  0  0  0  0
  185.8480  178.2010  143.1890 C   0  0  0  0  0  0  0  0  0  0  0  0
  186.3110  179.0140  142.3490 O   0  0  0  0  0  0  0  0  0  0  0  0
  184.8590  177.3030  142.7990 O   0  0  0  0  0  1  0  0  0  0  0  0
  185.8670  177.2840  146.8230 C   0  0  0  0  0  2  0  0  0  0  0  0
  186.0750  179.4140  147.8650 O   0  0  0  0  0  1  0  0  0  0  0  0
  185.2870  178.6750  146.9810 C   0  0  0  0  0  2  0  0  0  0  0  0
  194.0930  173.0940  143.1020 N   0  0  0  0  0  2  0  0  0  0  0  0
  195.7740  174.0640  144.5610 C   0  0  0  0  0  2  0  0  0  0  0  0
  194.7740  175.4020  142.8850 C   0  0  0  0  0  2  0  0  0  0  0  0
  195.2410  174.0000  143.1470 C   0  0  2  0  0  3  0  0  0  0  0  0
  195.2000  175.1740  145.1960 O   0  0  0  0  0  0  0  0  0  0  0  0
  195.0490  176.1300  144.1790 C   0  0  0  0  0  2  0  0  0  0  0  0
  190.6880  171.4370  140.2940 C   0  0  0  0  0  2  0  0  0  0  0  0
  189.9800  172.0710  139.1080 C   0  0  0  0  0  2  0  0  0  0  0  0
  188.7310  172.6020  139.5190 O   0  0  0  0  0  0  0  0  0  0  0  0
  188.4300  173.9520  139.3670 C   0  0  0  0  0  0  0  0  0  0  0  0
  188.1010  174.4700  138.1200 O   0  0  0  0  0  0  0  0  0  0  0  0
  188.4620  174.7140  140.3680 O   0  0  0  0  0  1  0  0  0  0  0  0
  1 10  1  0  0  0  0
  2 11  1  0  0  0  0
  3  8  1  0  0  0  0
  3  6  1  0  0  0  0
  4  2  1  0  0  0  0
  5  3  2  0  0  0  0
  6 28  1  1  0  0  0
  6  1  1  0  0  0  0
  7  9  1  0  0  0  0
  7  1  2  0  0  0  0
  8  7  1  0  0  0  0
  9  4  2  0  0  0  0
 10  2  2  0  0  0  0
 11 12  1  0  0  0  0
 13 12  1  0  0  0  0
 14 13  1  0  0  0  0
 15 17  1  6  0  0  0
 15 19  1  0  0  0  0
 15 18  1  0  0  0  0
 16 22  1  6  0  0  0
 16 15  1  0  0  0  0
 16 19  1  0  0  0  0
 18 14  1  1  0  0  0
 19 25  1  1  0  0  0
 20 17  1  0  0  0  0
 20 21  1  0  0  0  0
 21 18  1  0  0  0  0
 23 22  2  0  0  0  0
 24 22  1  0  0  0  0
 25 27  1  0  0  0  0
 27 26  1  0  0  0  0
 29 32  1  0  0  0  0
 30 31  1  0  0  0  0
 30 33  1  0  0  0  0
 31 28  1  1  0  0  0
 31 29  1  0  0  0  0
 33 32  1  0  0  0  0
 34  8  1  0  0  0  0
 35 36  1  0  0  0  0
 35 34  1  0  0  0  0
 37 36  1  0  0  0  0
 37 39  1  0  0  0  0
 38 37  2  0  0  0  0
M  END
>  <MODEL>
7

>  <REMARK>
 VINA RESULT:      -6.5      2.261      4.610
  Name = 
  14 active torsions:
  status: ('A' for Active; 'I' for Inactive)
    1  A    between atoms: C_2  and  C_8
    2  A    between atoms: C_2  and  C_13
    3  A    between atoms: C_4  and  C_7
    4  A    between atoms: C_5  and  O_35
    5  A    between atoms: C_10  and  C_15
    6  A    between atoms: C_12  and  C_13
    7  A    between atoms: C_12  and  C_39
    8  A    between atoms: C_15  and  C_26
    9  A    between atoms: C_19  and  C_32
   10  A    between atoms: C_19  and  O_35
   11  A    between atoms: C_20  and  C_39
   12  A    between atoms: C_21  and  N_23
   13  A    between atoms: N_23  and  C_29
   14  A    between atoms: N_25  and  C_32
                            x       y       z     vdW  Elec       q    Type
                         _______ _______ _______ _____ _____    ______ ____

>  <TORSDO>
F 14

$$$$
=
 OpenBabel11072409163D

 39 43  0  0  1  0  0  0  0  0999 V2000
  194.7470  174.5310  145.1630 C   0  0  0  0  0  0  0  0  0  0  0  0
  192.7340  175.4580  146.0710 C   0  0  0  0  0  0  0  0  0  0  0  0
  196.7610  174.4030  144.0470 C   0  0  0  0  0  0  0  0  0  0  0  0
  193.1270  176.6950  145.6350 N   0  0  0  0  0  0  0  0  0  0  0  0
  197.8110  173.9900  143.4830 O   0  0  0  0  0  0  0  0  0  0  0  0
  195.7910  173.5180  144.7860 C   0  0  2  0  0  3  0  0  0  0  0  0
  195.1120  175.7830  144.7210 C   0  0  0  0  0  0  0  0  0  0  0  0
  196.3570  175.7700  144.0380 N   0  0  0  0  0  0  0  0  0  0  0  0
  194.2970  176.8870  144.9580 C   0  0  0  0  0  3  0  0  0  0  0  0
  193.5480  174.3340  145.8470 C   0  0  0  0  0  3  0  0  0  0  0  0
  191.4560  175.3010  146.8250 C   0  0  0  0  0  2  0  0  0  0  0  0
  191.2020  176.4840  147.7550 C   0  0  0  0  0  2  0  0  0  0  0  0
  190.0410  177.3550  147.2880 C   0  0  0  0  0  2  0  0  0  0  0  0
  189.1240  176.6060  146.3280 C   0  0  0  0  0  2  0  0  0  0  0  0
  187.5470  177.0150  144.4490 C   0  0  1  0  0  0  0  0  0  0  0  0
  186.6820  178.2110  144.0580 C   0  0  2  0  0  3  0  0  0  0  0  0
  187.6510  176.0240  143.4650 O   0  0  0  0  0  0  0  0  0  0  0  0
  188.8710  177.4070  145.0540 C   0  0  2  0  0  3  0  0  0  0  0  0
  186.1840  177.2190  145.1080 C   0  0  2  0  0  3  0  0  0  0  0  0
  188.9990  176.0490  143.0600 C   0  0  0  0  0  2  0  0  0  0  0  0
  189.8150  176.9540  143.9790 C   0  0  0  0  0  2  0  0  0  0  0  0
  185.9840  178.0340  142.7400 C   0  0  0  0  0  0  0  0  0  0  0  0
  184.7930  177.6310  142.7260 O   0  0  0  0  0  1  0  0  0  0  0  0
  186.6290  178.3060  141.5380 O   0  0  0  0  0  0  0  0  0  0  0  0
  186.2860  177.8770  146.4730 C   0  0  0  0  0  2  0  0  0  0  0  0
  184.0700  178.6770  146.1290 O   0  0  0  0  0  1  0  0  0  0  0  0
  184.9080  178.0760  147.0710 C   0  0  0  0  0  2  0  0  0  0  0  0
  195.2570  172.4380  143.9430 N   0  0  0  0  0  2  0  0  0  0  0  0
  194.7710  170.0680  144.1360 C   0  0  0  0  0  2  0  0  0  0  0  0
  196.1840  171.1010  145.7280 C   0  0  0  0  0  2  0  0  0  0  0  0
  195.8340  171.1350  144.2690 C   0  0  2  0  0  3  0  0  0  0  0  0
  194.2100  169.8480  145.4020 O   0  0  0  0  0  0  0  0  0  0  0  0
  195.2680  170.0460  146.3020 C   0  0  0  0  0  2  0  0  0  0  0  0
  196.8380  176.8060  143.1330 C   0  0  0  0  0  2  0  0  0  0  0  0
  196.1200  176.7100  141.7970 C   0  0  0  0  0  2  0  0  0  0  0  0
  196.9440  176.0450  140.8540 O   0  0  0  0  0  0  0  0  0  0  0  0
  196.5610  174.8370  140.2780 C   0  0  0  0  0  0  0  0  0  0  0  0
  197.2020  174.3570  139.1430 O   0  0  0  0  0  0  0  0  0  0  0  0
  195.6190  174.1760  140.7890 O   0  0  0  0  0  1  0  0  0  0  0  0
  1 10  1  0  0  0  0
  2 11  1  0  0  0  0
  3  6  1  0  0  0  0
  4  2  1  0  0  0  0
  5  3  2  0  0  0  0
  6 28  1  6  0  0  0
  6  1  1  0  0  0  0
  7  9  1  0  0  0  0
  7  1  2  0  0  0  0
  8  3  1  0  0  0  0
  8  7  1  0  0  0  0
  9  4  2  0  0  0  0
 10  2  2  0  0  0  0
 11 12  1  0  0  0  0
 13 12  1  0  0  0  0
 14 13  1  0  0  0  0
 15 17  1  6  0  0  0
 15 18  1  0  0  0  0
 15 19  1  0  0  0  0
 16 22  1  6  0  0  0
 16 15  1  0  0  0  0
 16 19  1  0  0  0  0
 18 14  1  1  0  0  0
 19 25  1  1  0  0  0
 20 17  1  0  0  0  0
 20 21  1  0  0  0  0
 21 18  1  0  0  0  0
 23 22  1  0  0  0  0
 24 22  2  0  0  0  0
 25 27  1  0  0  0  0
 26 27  1  0  0  0  0
 29 31  1  0  0  0  0
 29 32  1  0  0  0  0
 30 33  1  0  0  0  0
 31 28  1  1  0  0  0
 31 30  1  0  0  0  0
 32 33  1  0  0  0  0
 34  8  1  0  0  0  0
 35 34  1  0  0  0  0
 36 35  1  0  0  0  0
 37 39  1  0  0  0  0
 37 36  1  0  0  0  0
 38 37  2  0  0  0  0
M  END
>  <MODEL>
8

>  <REMARK>
 VINA RESULT:      -6.5      2.129      2.843
  Name = 
  14 active torsions:
  status: ('A' for Active; 'I' for Inactive)
    1  A    between atoms: C_2  and  C_8
    2  A    between atoms: C_2  and  C_13
    3  A    between atoms: C_4  and  C_7
    4  A    between atoms: C_5  and  O_35
    5  A    between atoms: C_10  and  C_15
    6  A    between atoms: C_12  and  C_13
    7  A    between atoms: C_12  and  C_39
    8  A    between atoms: C_15  and  C_26
    9  A    between atoms: C_19  and  C_32
   10  A    between atoms: C_19  and  O_35
   11  A    between atoms: C_20  and  C_39
   12  A    between atoms: C_21  and  N_23
   13  A    between atoms: N_23  and  C_29
   14  A    between atoms: N_25  and  C_32
                            x       y       z     vdW  Elec       q    Type
                         _______ _______ _______ _____ _____    ______ ____

>  <TORSDO>
F 14

$$$$
=
 OpenBabel11072409163D

 39 43  0  0  1  0  0  0  0  0999 V2000
  191.7510  174.4110  144.0650 C   0  0  0  0  0  0  0  0  0  0  0  0
  190.5410  174.8600  146.0820 C   0  0  0  0  0  0  0  0  0  0  0  0
  193.4610  174.4220  142.5170 C   0  0  0  0  0  0  0  0  0  0  0  0
  191.6440  175.4980  146.5820 N   0  0  0  0  0  0  0  0  0  0  0  0
  194.1470  174.2880  141.4670 O   0  0  0  0  0  0  0  0  0  0  0  0
  192.0540  173.9080  142.6810 C   0  0  2  0  0  3  0  0  0  0  0  0
  192.8420  175.0720  144.5840 C   0  0  0  0  0  0  0  0  0  0  0  0
  193.9350  175.0970  143.6800 N   0  0  0  0  0  0  0  0  0  0  0  0
  192.7960  175.6240  145.8610 C   0  0  0  0  0  3  0  0  0  0  0  0
  190.5720  174.2890  144.7980 C   0  0  0  0  0  3  0  0  0  0  0  0
  189.3100  174.7280  146.9150 C   0  0  0  0  0  2  0  0  0  0  0  0
  188.2040  175.6640  146.4370 C   0  0  0  0  0  2  0  0  0  0  0  0
  188.4010  177.0960  146.9220 C   0  0  0  0  0  2  0  0  0  0  0  0
  187.9790  178.1130  145.8670 C   0  0  0  0  0  2  0  0  0  0  0  0
  186.6740  178.3040  143.7590 C   0  0  1  0  0  0  0  0  0  0  0  0
  186.3590  177.3170  142.6360 C   0  0  2  0  0  3  0  0  0  0  0  0
  185.9230  179.4860  143.7240 O   0  0  0  0  0  0  0  0  0  0  0  0
  186.7260  177.6620  145.1220 C   0  0  2  0  0  3  0  0  0  0  0  0
  187.6860  178.0740  142.6390 C   0  0  2  0  0  3  0  0  0  0  0  0
  185.1050  179.4340  144.8690 C   0  0  0  0  0  2  0  0  0  0  0  0
  185.5130  178.2690  145.7650 C   0  0  0  0  0  2  0  0  0  0  0  0
  185.4020  177.8630  141.6170 C   0  0  0  0  0  0  0  0  0  0  0  0
  185.8480  178.2890  140.5220 O   0  0  0  0  0  0  0  0  0  0  0  0
  184.0330  177.9060  141.8610 O   0  0  0  0  0  1  0  0  0  0  0  0
  188.7880  177.1060  143.0350 C   0  0  0  0  0  2  0  0  0  0  0  0
  190.8290  177.8900  143.9770 O   0  0  0  0  0  1  0  0  0  0  0  0
  190.1500  177.7140  142.7690 C   0  0  0  0  0  2  0  0  0  0  0  0
  191.1340  174.4450  141.6680 N   0  0  0  0  0  2  0  0  0  0  0  0
  190.3720  173.3390  139.6450 C   0  0  0  0  0  2  0  0  0  0  0  0
  188.8050  173.9020  141.3260 C   0  0  0  0  0  2  0  0  0  0  0  0
  190.2190  173.4300  141.1470 C   0  0  2  0  0  3  0  0  0  0  0  0
  189.3960  174.1530  139.0540 O   0  0  0  0  0  0  0  0  0  0  0  0
  188.2910  174.0710  139.9170 C   0  0  0  0  0  2  0  0  0  0  0  0
  195.0670  176.0140  143.7420 C   0  0  0  0  0  2  0  0  0  0  0  0
  196.3490  175.2890  143.3670 C   0  0  0  0  0  2  0  0  0  0  0  0
  197.0570  174.9240  144.5400 O   0  0  0  0  0  0  0  0  0  0  0  0
  196.8390  173.7020  145.1700 C   0  0  0  0  0  0  0  0  0  0  0  0
  197.1570  173.5290  146.5120 O   0  0  0  0  0  1  0  0  0  0  0  0
  196.3550  172.7430  144.5150 O   0  0  0  0  0  0  0  0  0  0  0  0
  1  7  2  0  0  0  0
  1 10  1  0  0  0  0
  2  4  1  0  0  0  0
  2 11  1  0  0  0  0
  3  6  1  0  0  0  0
  3  8  1  0  0  0  0
  5  3  2  0  0  0  0
  6 28  1  6  0  0  0
  6  1  1  0  0  0  0
  7  9  1  0  0  0  0
  8 34  1  0  0  0  0
  8  7  1  0  0  0  0
  9  4  2  0  0  0  0
 10  2  2  0  0  0  0
 12 11  1  0  0  0  0
 12 13  1  0  0  0  0
 14 13  1  0  0  0  0
 15 17  1  6  0  0  0
 15 18  1  0  0  0  0
 16 22  1  6  0  0  0
 16 19  1  0  0  0  0
 16 15  1  0  0  0  0
 17 20  1  0  0  0  0
 18 21  1  0  0  0  0
 18 14  1  1  0  0  0
 19 25  1  1  0  0  0
 19 15  1  0  0  0  0
 20 21  1  0  0  0  0
 22 24  1  0  0  0  0
 23 22  2  0  0  0  0
 27 25  1  0  0  0  0
 27 26  1  0  0  0  0
 29 31  1  0  0  0  0
 31 30  1  0  0  0  0
 31 28  1  6  0  0  0
 32 29  1  0  0  0  0
 32 33  1  0  0  0  0
 33 30  1  0  0  0  0
 35 34  1  0  0  0  0
 35 36  1  0  0  0  0
 36 37  1  0  0  0  0
 37 38  1  0  0  0  0
 39 37  2  0  0  0  0
M  END
>  <MODEL>
9

>  <REMARK>
 VINA RESULT:      -6.5      2.089      3.378
  Name = 
  14 active torsions:
  status: ('A' for Active; 'I' for Inactive)
    1  A    between atoms: C_2  and  C_8
    2  A    between atoms: C_2  and  C_13
    3  A    between atoms: C_4  and  C_7
    4  A    between atoms: C_5  and  O_35
    5  A    between atoms: C_10  and  C_15
    6  A    between atoms: C_12  and  C_13
    7  A    between atoms: C_12  and  C_39
    8  A    between atoms: C_15  and  C_26
    9  A    between atoms: C_19  and  C_32
   10  A    between atoms: C_19  and  O_35
   11  A    between atoms: C_20  and  C_39
   12  A    between atoms: C_21  and  N_23
   13  A    between atoms: N_23  and  C_29
   14  A    between atoms: N_25  and  C_32
                            x       y       z     vdW  Elec       q    Type
                         _______ _______ _______ _____ _____    ______ ____

>  <TORSDO>
F 14

$$$$
