=
 OpenBabel11062420333D

 53 58  0  0  1  0  0  0  0  0999 V2000
  188.2470  176.7570  145.7120 C   0  0  2  0  0  3  0  0  0  0  0  0
  183.8300  178.4260  145.5070 C   0  0  0  0  0  2  0  0  0  0  0  0
  184.2580  177.8720  143.1060 C   0  0  0  0  0  1  0  0  0  0  0  0
  187.4210  178.2340  143.8160 C   0  0  0  0  0  2  0  0  0  0  0  0
  184.9270  178.6080  146.5550 C   0  0  0  0  0  2  0  0  0  0  0  0
  188.6460  177.6440  144.5180 C   0  0  2  0  0  3  0  0  0  0  0  0
  186.6700  179.1120  144.8020 C   0  0  2  0  0  3  0  0  0  0  0  0
  186.6850  176.6510  147.5240 O   0  0  0  0  0  0  0  0  0  0  0  0
  187.0370  177.2530  146.4730 C   0  0  0  0  0  0  0  0  0  0  0  0
  184.1990  178.9910  144.1270 C   0  0  2  0  0  3  0  0  0  0  0  0
  186.2300  178.3270  145.9620 N   0  0  0  0  0  0  0  0  0  0  0  0
  185.4930  179.8200  144.1130 C   0  0  0  0  0  2  0  0  0  0  0  0
  189.9840  177.5880  147.3370 C   0  0  0  0  0  3  0  0  0  0  0  0
  191.0190  175.0150  147.6720 C   0  0  0  0  0  3  0  0  0  0  0  0
  191.0640  177.3760  148.1990 C   0  0  0  0  0  3  0  0  0  0  0  0
  191.5800  176.0900  148.3670 C   0  0  0  0  0  3  0  0  0  0  0  0
  189.9420  175.2180  146.8020 C   0  0  0  0  0  0  0  0  0  0  0  0
  189.4160  176.5150  146.6330 C   0  0  0  0  0  0  0  0  0  0  0  0
  189.3720  174.0340  146.0820 C   0  0  0  0  0  2  0  0  0  0  0  0
  190.2780  173.5830  144.9420 C   0  0  0  0  0  2  0  0  0  0  0  0
  189.5750  172.5830  144.0310 C   0  0  2  0  0  3  0  0  0  0  0  0
  190.3060  171.3940  143.9990 O   0  0  0  0  0  1  0  0  0  0  0  0
  189.4420  173.1490  142.6180 C   0  0  2  0  0  3  0  0  0  0  0  0
  188.2420  172.7260  142.0320 O   0  0  0  0  0  1  0  0  0  0  0  0
  190.2000  172.1440  140.4220 C   0  0  0  0  0  1  0  0  0  0  0  0
  191.5230  173.9560  141.4880 C   0  0  0  0  0  1  0  0  0  0  0  0
  190.6350  172.7540  141.7450 C   0  0  0  0  0  3  0  0  0  0  0  0
  192.1570  176.9930  143.7320 C   0  0  0  0  0  3  0  0  0  0  0  0
  189.5540  176.8840  143.5870 C   0  0  0  0  0  3  0  0  0  0  0  0
  190.8590  176.9340  143.6470 C   0  0  0  0  0  0  0  0  0  0  0  0
  192.8740  176.1150  144.6960 C   0  0  0  0  0  2  0  0  0  0  0  0
  194.0460  175.5290  144.0630 N   0  0  0  0  0  2  0  0  0  0  0  0
  194.4100  174.1530  144.2110 C   0  0  0  0  0  0  0  0  0  0  0  0
  195.6290  173.6630  143.7270 C   0  0  0  0  0  3  0  0  0  0  0  0
  195.0550  171.4700  144.5540 C   0  0  0  0  0  0  0  0  0  0  0  0
  195.9530  172.3180  143.8910 C   0  0  0  0  0  3  0  0  0  0  0  0
  193.8720  171.9660  145.0110 N   0  0  0  0  0  0  0  0  0  0  0  0
  193.5370  173.2750  144.8570 C   0  0  0  0  0  3  0  0  0  0  0  0
  195.3490  170.0080  144.7250 C   0  0  1  0  0  3  0  0  0  0  0  0
  195.5440  169.6920  146.1910 C   0  0  1  0  0  3  0  0  0  0  0  0
  194.2230  169.1890  144.3190 N   0  0  0  0  0  0  0  0  0  0  0  0
  194.4710  168.6590  146.5250 C   0  0  0  0  0  3  0  0  0  0  0  0
  193.6440  168.4270  145.3430 N   0  0  0  0  0  0  0  0  0  0  0  0
  192.3640  168.6790  138.6430 Cl  0  0  0  0  0  0  0  0  0  0  0  0
  192.4100  169.0650  142.6560 C   0  0  0  0  0  3  0  0  0  0  0  0
  191.9760  168.9470  141.3330 C   0  0  0  0  0  3  0  0  0  0  0  0
  194.7080  168.9430  141.9100 C   0  0  0  0  0  3  0  0  0  0  0  0
  192.9070  168.8250  140.2990 C   0  0  0  0  0  0  0  0  0  0  0  0
  194.2740  168.8230  140.5870 C   0  0  0  0  0  3  0  0  0  0  0  0
  193.7820  169.0650  142.9560 C   0  0  0  0  0  0  0  0  0  0  0  0
  197.2650  168.6510  147.7370 N   0  0  0  0  0  1  0  0  0  0  0  0
  196.9300  169.1690  146.4520 C   0  0  0  0  0  0  0  0  0  0  0  0
  197.8880  169.4850  145.6430 N   0  0  0  0  0  2  0  0  0  0  0  0
  1  9  1  0  0  0  0
  1 18  1  1  0  0  0
  2  5  1  0  0  0  0
  4  6  1  0  0  0  0
  6 29  1  6  0  0  0
  6  1  1  0  0  0  0
  7  4  1  6  0  0  0
  7 11  1  0  0  0  0
  9  8  2  0  0  0  0
 10  3  1  6  0  0  0
 10  2  1  0  0  0  0
 11  9  1  0  0  0  0
 11  5  1  0  0  0  0
 12 10  1  0  0  0  0
 12  7  1  0  0  0  0
 13 15  1  0  0  0  0
 14 16  1  0  0  0  0
 15 16  2  0  0  0  0
 17 14  2  0  0  0  0
 18 17  1  0  0  0  0
 18 13  2  0  0  0  0
 19 17  1  0  0  0  0
 20 19  1  0  0  0  0
 21 22  1  6  0  0  0
 21 20  1  0  0  0  0
 23 24  1  6  0  0  0
 23 21  1  0  0  0  0
 25 27  1  0  0  0  0
 26 27  1  0  0  0  0
 27 23  1  0  0  0  0
 28 31  1  0  0  0  0
 29 30  2  0  0  0  0
 30 28  2  0  0  0  0
 32 33  1  0  0  0  0
 32 31  1  0  0  0  0
 33 38  1  0  0  0  0
 34 36  1  0  0  0  0
 34 33  2  0  0  0  0
 35 37  1  0  0  0  0
 36 35  2  0  0  0  0
 38 37  2  0  0  0  0
 39 35  1  1  0  0  0
 39 40  1  0  0  0  0
 40 52  1  6  0  0  0
 40 42  1  0  0  0  0
 41 39  1  0  0  0  0
 41 43  1  0  0  0  0
 43 42  2  0  0  0  0
 44 48  1  0  0  0  0
 45 50  1  0  0  0  0
 46 45  2  0  0  0  0
 47 50  2  0  0  0  0
 48 49  2  0  0  0  0
 48 46  1  0  0  0  0
 49 47  1  0  0  0  0
 50 41  1  0  0  0  0
 52 51  1  0  0  0  0
 53 52  2  0  0  0  0
M  END
>  <MODEL>
1

>  <REMARK>
 VINA RESULT:      -7.6      0.000      0.000
  Name = 
  13 active torsions:
  status: ('A' for Active; 'I' for Inactive)
    1  A    between atoms: C_1  and  C_29
    2  A    between atoms: C_2  and  C_10
    3  A    between atoms: C_3  and  N_49
    4  A    between atoms: N_4  and  C_48
    5  A    between atoms: C_5  and  C_27
    6  A    between atoms: C_5  and  C_36
    7  A    between atoms: C_8  and  C_32
    8  A    between atoms: C_9  and  C_40
    9  A    between atoms: C_12  and  C_25
   10  A    between atoms: C_21  and  C_45
   11  A    between atoms: C_21  and  C_51
   12  A    between atoms: C_27  and  C_45
   13  A    between atoms: C_32  and  N_49
                            x       y       z     vdW  Elec       q    Type
                         _______ _______ _______ _____ _____    ______ ____

>  <TORSDO>
F 13

$$$$
=
 OpenBabel11062420333D

 53 58  0  0  1  0  0  0  0  0999 V2000
  188.9470  175.7540  142.1340 C   0  0  2  0  0  3  0  0  0  0  0  0
  193.2490  175.9890  144.0760 C   0  0  0  0  0  2  0  0  0  0  0  0
  193.2530  173.6640  143.1540 C   0  0  0  0  0  1  0  0  0  0  0  0
  190.0020  173.8080  143.3820 C   0  0  0  0  0  2  0  0  0  0  0  0
  191.9870  176.8130  144.3250 C   0  0  0  0  0  2  0  0  0  0  0  0
  188.7080  174.3910  142.8100 C   0  0  2  0  0  3  0  0  0  0  0  0
  190.5350  174.7530  144.4440 C   0  0  2  0  0  3  0  0  0  0  0  0
  190.1910  177.7830  142.4020 O   0  0  0  0  0  0  0  0  0  0  0  0
  189.9890  176.6100  142.8210 C   0  0  0  0  0  0  0  0  0  0  0  0
  193.0870  174.4990  144.4090 C   0  0  2  0  0  3  0  0  0  0  0  0
  190.8150  176.0730  143.8670 N   0  0  0  0  0  0  0  0  0  0  0  0
  191.7730  174.1560  145.1310 C   0  0  0  0  0  2  0  0  0  0  0  0
  187.2730  176.9220  140.6560 C   0  0  0  0  0  3  0  0  0  0  0  0
  185.6180  177.4840  142.8350 C   0  0  0  0  0  3  0  0  0  0  0  0
  186.0760  177.6150  140.4630 C   0  0  0  0  0  3  0  0  0  0  0  0
  185.2480  177.8950  141.5520 C   0  0  0  0  0  3  0  0  0  0  0  0
  186.8180  176.7940  143.0400 C   0  0  0  0  0  0  0  0  0  0  0  0
  187.6550  176.5070  141.9410 C   0  0  0  0  0  0  0  0  0  0  0  0
  187.1710  176.3710  144.4330 C   0  0  0  0  0  2  0  0  0  0  0  0
  187.7220  177.5340  145.2490 C   0  0  0  0  0  2  0  0  0  0  0  0
  187.8570  177.1700  146.7230 C   0  0  2  0  0  3  0  0  0  0  0  0
  188.1210  175.8030  146.8400 O   0  0  0  0  0  1  0  0  0  0  0  0
  186.5750  177.5170  147.4790 C   0  0  2  0  0  3  0  0  0  0  0  0
  185.6720  176.4470  147.4300 O   0  0  0  0  0  1  0  0  0  0  0  0
  184.4560  178.5940  146.6080 C   0  0  0  0  0  1  0  0  0  0  0  0
  186.0940  179.9350  147.9080 C   0  0  0  0  0  1  0  0  0  0  0  0
  185.9300  178.7900  146.9270 C   0  0  0  0  0  3  0  0  0  0  0  0
  188.6590  173.2260  139.3440 C   0  0  0  0  0  3  0  0  0  0  0  0
  188.0050  173.4570  141.8590 C   0  0  0  0  0  3  0  0  0  0  0  0
  188.3210  173.3360  140.5960 C   0  0  0  0  0  0  0  0  0  0  0  0
  189.7790  172.3250  138.9590 C   0  0  0  0  0  2  0  0  0  0  0  0
  190.7390  172.2250  140.0490 N   0  0  0  0  0  2  0  0  0  0  0  0
  192.1240  172.5540  139.9040 C   0  0  0  0  0  0  0  0  0  0  0  0
  192.5400  173.8610  139.6200 C   0  0  0  0  0  3  0  0  0  0  0  0
  194.8350  173.1190  139.6570 C   0  0  0  0  0  0  0  0  0  0  0  0
  193.8970  174.1460  139.4890 C   0  0  0  0  0  3  0  0  0  0  0  0
  194.4090  171.8550  139.9260 N   0  0  0  0  0  0  0  0  0  0  0  0
  193.0890  171.5560  140.0550 C   0  0  0  0  0  3  0  0  0  0  0  0
  196.3050  173.3770  139.4930 C   0  0  1  0  0  3  0  0  0  0  0  0
  196.5750  173.9520  138.1210 C   0  0  1  0  0  3  0  0  0  0  0  0
  196.7720  174.3930  140.4170 N   0  0  0  0  0  0  0  0  0  0  0  0
  197.2160  175.3140  138.3770 C   0  0  0  0  0  3  0  0  0  0  0  0
  197.2610  175.5610  139.8160 N   0  0  0  0  0  0  0  0  0  0  0  0
  197.0510  173.6130  146.3540 Cl  0  0  0  0  0  0  0  0  0  0  0  0
  196.7520  175.3040  142.7060 C   0  0  0  0  0  3  0  0  0  0  0  0
  196.8170  175.1220  144.0900 C   0  0  0  0  0  3  0  0  0  0  0  0
  196.9950  172.9180  142.3850 C   0  0  0  0  0  3  0  0  0  0  0  0
  196.9720  173.8400  144.6220 C   0  0  0  0  0  0  0  0  0  0  0  0
  197.0610  172.7370  143.7690 C   0  0  0  0  0  3  0  0  0  0  0  0
  196.8400  174.2010  141.8400 C   0  0  0  0  0  0  0  0  0  0  0  0
  197.9410  173.4630  136.0410 N   0  0  0  0  0  2  0  0  0  0  0  0
  197.4730  173.0490  137.3220 C   0  0  0  0  0  0  0  0  0  0  0  0
  197.5490  171.7970  137.6340 N   0  0  0  0  0  1  0  0  0  0  0  0
  1 18  1  1  0  0  0
  1  6  1  0  0  0  0
  1  9  1  0  0  0  0
  2  5  1  0  0  0  0
  2 10  1  0  0  0  0
  6 29  1  6  0  0  0
  6  4  1  0  0  0  0
  7  4  1  6  0  0  0
  7 12  1  0  0  0  0
  8  9  2  0  0  0  0
  9 11  1  0  0  0  0
 10  3  1  6  0  0  0
 10 12  1  0  0  0  0
 11  5  1  0  0  0  0
 11  7  1  0  0  0  0
 13 18  1  0  0  0  0
 14 17  1  0  0  0  0
 15 13  2  0  0  0  0
 15 16  1  0  0  0  0
 16 14  2  0  0  0  0
 17 19  1  0  0  0  0
 18 17  2  0  0  0  0
 19 20  1  0  0  0  0
 20 21  1  0  0  0  0
 21 22  1  6  0  0  0
 21 23  1  0  0  0  0
 23 24  1  6  0  0  0
 25 27  1  0  0  0  0
 27 23  1  0  0  0  0
 27 26  1  0  0  0  0
 28 30  2  0  0  0  0
 30 29  2  0  0  0  0
 31 28  1  0  0  0  0
 31 32  1  0  0  0  0
 33 32  1  0  0  0  0
 33 38  1  0  0  0  0
 34 33  2  0  0  0  0
 35 37  1  0  0  0  0
 36 34  1  0  0  0  0
 36 35  2  0  0  0  0
 37 38  2  0  0  0  0
 39 35  1  6  0  0  0
 39 41  1  0  0  0  0
 40 52  1  6  0  0  0
 40 42  1  0  0  0  0
 40 39  1  0  0  0  0
 41 50  1  0  0  0  0
 42 43  2  0  0  0  0
 43 41  1  0  0  0  0
 45 46  1  0  0  0  0
 46 48  2  0  0  0  0
 47 49  2  0  0  0  0
 48 44  1  0  0  0  0
 49 48  1  0  0  0  0
 50 47  1  0  0  0  0
 50 45  2  0  0  0  0
 51 52  2  0  0  0  0
 52 53  1  0  0  0  0
M  END
>  <MODEL>
2

>  <REMARK>
 VINA RESULT:      -7.4      3.621      7.386
  Name = 
  13 active torsions:
  status: ('A' for Active; 'I' for Inactive)
    1  A    between atoms: C_1  and  C_29
    2  A    between atoms: C_2  and  C_10
    3  A    between atoms: C_3  and  N_49
    4  A    between atoms: N_4  and  C_48
    5  A    between atoms: C_5  and  C_27
    6  A    between atoms: C_5  and  C_36
    7  A    between atoms: C_8  and  C_32
    8  A    between atoms: C_9  and  C_40
    9  A    between atoms: C_12  and  C_25
   10  A    between atoms: C_21  and  C_45
   11  A    between atoms: C_21  and  C_51
   12  A    between atoms: C_27  and  C_45
   13  A    between atoms: C_32  and  N_49
                            x       y       z     vdW  Elec       q    Type
                         _______ _______ _______ _____ _____    ______ ____

>  <TORSDO>
F 13

$$$$
=
 OpenBabel11062420333D

 53 58  0  0  1  0  0  0  0  0999 V2000
  188.2330  176.6910  145.3360 C   0  0  2  0  0  3  0  0  0  0  0  0
  183.8130  178.3660  145.3420 C   0  0  0  0  0  2  0  0  0  0  0  0
  184.2150  178.0500  142.8940 C   0  0  0  0  0  1  0  0  0  0  0  0
  187.3850  178.3450  143.6030 C   0  0  0  0  0  2  0  0  0  0  0  0
  184.9210  178.4470  146.3910 C   0  0  0  0  0  2  0  0  0  0  0  0
  188.6180  177.6910  144.2300 C   0  0  2  0  0  3  0  0  0  0  0  0
  186.6450  179.1220  144.6780 C   0  0  2  0  0  3  0  0  0  0  0  0
  186.6890  176.4060  147.1450 O   0  0  0  0  0  0  0  0  0  0  0  0
  187.0300  177.1090  146.1550 C   0  0  0  0  0  0  0  0  0  0  0  0
  184.1670  179.0640  144.0200 C   0  0  2  0  0  3  0  0  0  0  0  0
  186.2180  178.2270  145.7590 N   0  0  0  0  0  0  0  0  0  0  0  0
  185.4610  179.8920  144.0730 C   0  0  0  0  0  2  0  0  0  0  0  0
  189.9490  177.3460  147.0600 C   0  0  0  0  0  3  0  0  0  0  0  0
  191.0620  174.7830  147.0440 C   0  0  0  0  0  3  0  0  0  0  0  0
  191.0370  177.0510  147.8860 C   0  0  0  0  0  3  0  0  0  0  0  0
  191.5920  175.7700  147.8780 C   0  0  0  0  0  3  0  0  0  0  0  0
  189.9760  175.0700  146.2090 C   0  0  0  0  0  0  0  0  0  0  0  0
  189.4110  176.3620  146.2160 C   0  0  0  0  0  0  0  0  0  0  0  0
  189.4390  173.9770  145.3340 C   0  0  0  0  0  2  0  0  0  0  0  0
  190.4660  172.8700  145.1290 C   0  0  0  0  0  2  0  0  0  0  0  0
  190.9520  172.8170  143.6860 C   0  0  2  0  0  3  0  0  0  0  0  0
  190.4880  171.6470  143.0830 O   0  0  0  0  0  1  0  0  0  0  0  0
  192.4790  172.8570  143.6340 C   0  0  2  0  0  3  0  0  0  0  0  0
  193.0150  172.8030  144.9270 O   0  0  0  0  0  1  0  0  0  0  0  0
  192.2700  174.3020  141.5650 C   0  0  0  0  0  1  0  0  0  0  0  0
  192.8020  175.3360  143.7610 C   0  0  0  0  0  1  0  0  0  0  0  0
  192.9780  174.1020  142.8970 C   0  0  0  0  0  3  0  0  0  0  0  0
  188.7730  174.9790  141.7820 C   0  0  0  0  0  3  0  0  0  0  0  0
  189.5170  177.0260  143.2190 C   0  0  0  0  0  3  0  0  0  0  0  0
  189.1560  175.9970  142.4970 C   0  0  0  0  0  0  0  0  0  0  0  0
  188.0010  175.2060  140.5300 C   0  0  0  0  0  2  0  0  0  0  0  0
  187.9550  173.9830  139.7430 N   0  0  0  0  0  2  0  0  0  0  0  0
  189.1150  173.3910  139.1490 C   0  0  0  0  0  0  0  0  0  0  0  0
  189.7510  172.2870  139.7300 C   0  0  0  0  0  3  0  0  0  0  0  0
  191.3520  172.2840  137.9250 C   0  0  0  0  0  0  0  0  0  0  0  0
  190.8760  171.7340  139.1230 C   0  0  0  0  0  3  0  0  0  0  0  0
  190.7230  173.3610  137.3820 N   0  0  0  0  0  0  0  0  0  0  0  0
  189.6250  173.9170  137.9600 C   0  0  0  0  0  3  0  0  0  0  0  0
  192.5800  171.7390  137.2550 C   0  0  1  0  0  3  0  0  0  0  0  0
  192.2530  171.3370  135.8350 C   0  0  1  0  0  3  0  0  0  0  0  0
  193.6080  172.7550  137.1230 N   0  0  0  0  0  0  0  0  0  0  0  0
  193.1700  172.1850  134.9560 C   0  0  0  0  0  3  0  0  0  0  0  0
  193.9470  173.0870  135.8040 N   0  0  0  0  0  0  0  0  0  0  0  0
  196.5780  175.0720  141.7860 Cl  0  0  0  0  0  0  0  0  0  0  0  0
  194.8600  172.4740  139.2250 C   0  0  0  0  0  3  0  0  0  0  0  0
  195.5530  173.0130  140.3120 C   0  0  0  0  0  3  0  0  0  0  0  0
  194.4800  174.7020  138.3640 C   0  0  0  0  0  3  0  0  0  0  0  0
  195.7080  174.3960  140.4260 C   0  0  0  0  0  0  0  0  0  0  0  0
  195.1730  175.2420  139.4530 C   0  0  0  0  0  3  0  0  0  0  0  0
  194.3180  173.3150  138.2400 C   0  0  0  0  0  0  0  0  0  0  0  0
  191.6690  169.1490  134.6920 N   0  0  0  0  0  2  0  0  0  0  0  0
  192.4760  169.8650  135.6230 C   0  0  0  0  0  0  0  0  0  0  0  0
  193.1510  169.1960  136.4990 N   0  0  0  0  0  1  0  0  0  0  0  0
  1  9  1  0  0  0  0
  1 18  1  1  0  0  0
  2  5  1  0  0  0  0
  4  6  1  0  0  0  0
  6 29  1  6  0  0  0
  6  1  1  0  0  0  0
  7  4  1  6  0  0  0
  7 11  1  0  0  0  0
  9  8  2  0  0  0  0
 10  3  1  6  0  0  0
 10 12  1  0  0  0  0
 10  2  1  0  0  0  0
 11  9  1  0  0  0  0
 11  5  1  0  0  0  0
 12  7  1  0  0  0  0
 13 15  1  0  0  0  0
 14 16  1  0  0  0  0
 16 15  2  0  0  0  0
 17 18  1  0  0  0  0
 17 14  2  0  0  0  0
 18 13  2  0  0  0  0
 19 17  1  0  0  0  0
 20 19  1  0  0  0  0
 21 22  1  1  0  0  0
 21 20  1  0  0  0  0
 23 21  1  0  0  0  0
 23 24  1  1  0  0  0
 25 27  1  0  0  0  0
 27 23  1  0  0  0  0
 27 26  1  0  0  0  0
 28 30  2  0  0  0  0
 30 29  2  0  0  0  0
 31 28  1  0  0  0  0
 32 31  1  0  0  0  0
 33 34  1  0  0  0  0
 33 32  1  0  0  0  0
 35 36  1  0  0  0  0
 36 34  2  0  0  0  0
 37 35  2  0  0  0  0
 37 38  1  0  0  0  0
 38 33  2  0  0  0  0
 39 35  1  6  0  0  0
 40 52  1  1  0  0  0
 40 39  1  0  0  0  0
 41 39  1  0  0  0  0
 41 50  1  0  0  0  0
 42 43  2  0  0  0  0
 42 40  1  0  0  0  0
 43 41  1  0  0  0  0
 45 46  1  0  0  0  0
 46 48  2  0  0  0  0
 47 49  2  0  0  0  0
 48 44  1  0  0  0  0
 49 48  1  0  0  0  0
 50 47  1  0  0  0  0
 50 45  2  0  0  0  0
 51 52  2  0  0  0  0
 52 53  1  0  0  0  0
M  END
>  <MODEL>
3

>  <REMARK>
 VINA RESULT:      -7.3      4.002      5.832
  Name = 
  13 active torsions:
  status: ('A' for Active; 'I' for Inactive)
    1  A    between atoms: C_1  and  C_29
    2  A    between atoms: C_2  and  C_10
    3  A    between atoms: C_3  and  N_49
    4  A    between atoms: N_4  and  C_48
    5  A    between atoms: C_5  and  C_27
    6  A    between atoms: C_5  and  C_36
    7  A    between atoms: C_8  and  C_32
    8  A    between atoms: C_9  and  C_40
    9  A    between atoms: C_12  and  C_25
   10  A    between atoms: C_21  and  C_45
   11  A    between atoms: C_21  and  C_51
   12  A    between atoms: C_27  and  C_45
   13  A    between atoms: C_32  and  N_49
                            x       y       z     vdW  Elec       q    Type
                         _______ _______ _______ _____ _____    ______ ____

>  <TORSDO>
F 13

$$$$
=
 OpenBabel11062420333D

 53 58  0  0  1  0  0  0  0  0999 V2000
  189.0510  174.3760  143.2340 C   0  0  2  0  0  3  0  0  0  0  0  0
  186.7520  178.2930  144.5380 C   0  0  0  0  0  2  0  0  0  0  0  0
  185.2070  177.3740  142.7990 C   0  0  0  0  0  1  0  0  0  0  0  0
  187.8340  175.8730  141.5800 C   0  0  0  0  0  2  0  0  0  0  0  0
  188.2190  177.8930  144.6830 C   0  0  0  0  0  2  0  0  0  0  0  0
  188.8530  174.7440  141.7520 C   0  0  2  0  0  3  0  0  0  0  0  0
  188.3550  177.1110  142.2880 C   0  0  2  0  0  3  0  0  0  0  0  0
  189.2240  175.3770  145.4030 O   0  0  0  0  0  0  0  0  0  0  0  0
  188.9810  175.5570  144.1780 C   0  0  0  0  0  0  0  0  0  0  0  0
  186.2850  178.4030  143.0790 C   0  0  2  0  0  3  0  0  0  0  0  0
  188.5440  176.8470  143.7190 N   0  0  0  0  0  0  0  0  0  0  0  0
  187.4210  178.3080  142.0470 C   0  0  0  0  0  2  0  0  0  0  0  0
  190.2580  172.3300  144.0740 C   0  0  0  0  0  3  0  0  0  0  0  0
  192.7170  173.3150  143.1860 C   0  0  0  0  0  3  0  0  0  0  0  0
  191.4220  171.5800  144.2650 C   0  0  0  0  0  3  0  0  0  0  0  0
  192.6500  172.0720  143.8200 C   0  0  0  0  0  3  0  0  0  0  0  0
  191.5580  174.0770  142.9940 C   0  0  0  0  0  0  0  0  0  0  0  0
  190.3150  173.5810  143.4400 C   0  0  0  0  0  0  0  0  0  0  0  0
  191.6790  175.4010  142.3050 C   0  0  0  0  0  2  0  0  0  0  0  0
  192.7860  176.2520  142.9170 C   0  0  0  0  0  2  0  0  0  0  0  0
  192.4280  176.7060  144.3270 C   0  0  2  0  0  3  0  0  0  0  0  0
  191.7160  177.9050  144.2610 O   0  0  0  0  0  1  0  0  0  0  0  0
  193.6920  176.8980  145.1640 C   0  0  2  0  0  3  0  0  0  0  0  0
  194.8340  176.7410  144.3700 O   0  0  0  0  0  1  0  0  0  0  0  0
  192.4660  175.0840  146.4360 C   0  0  0  0  0  1  0  0  0  0  0  0
  194.9440  175.0340  146.2680 C   0  0  0  0  0  1  0  0  0  0  0  0
  193.7260  175.9330  146.3510 C   0  0  0  0  0  3  0  0  0  0  0  0
  188.3880  173.4970  138.3470 C   0  0  0  0  0  3  0  0  0  0  0  0
  188.5150  173.5120  140.9520 C   0  0  0  0  0  3  0  0  0  0  0  0
  188.4440  173.4940  139.6470 C   0  0  0  0  0  0  0  0  0  0  0  0
  189.6360  173.3270  137.5540 C   0  0  0  0  0  2  0  0  0  0  0  0
  190.5360  172.4040  138.2300 N   0  0  0  0  0  2  0  0  0  0  0  0
  191.9430  172.6330  138.3540 C   0  0  0  0  0  0  0  0  0  0  0  0
  192.4530  173.5880  139.2430 C   0  0  0  0  0  3  0  0  0  0  0  0
  194.6910  173.0080  138.5530 C   0  0  0  0  0  0  0  0  0  0  0  0
  193.8290  173.7830  139.3410 C   0  0  0  0  0  3  0  0  0  0  0  0
  194.1740  172.0900  137.6900 N   0  0  0  0  0  0  0  0  0  0  0  0
  192.8340  171.8880  137.5790 C   0  0  0  0  0  3  0  0  0  0  0  0
  196.1780  173.2070  138.6040 C   0  0  1  0  0  3  0  0  0  0  0  0
  196.6170  174.0850  137.4530 C   0  0  1  0  0  3  0  0  0  0  0  0
  196.5750  173.9350  139.7940 N   0  0  0  0  0  0  0  0  0  0  0  0
  197.2730  175.3000  138.1040 C   0  0  0  0  0  3  0  0  0  0  0  0
  197.1680  175.1830  139.5560 N   0  0  0  0  0  0  0  0  0  0  0  0
  196.1740  171.7050  145.3440 Cl  0  0  0  0  0  0  0  0  0  0  0  0
  196.4780  174.2540  142.2340 C   0  0  0  0  0  3  0  0  0  0  0  0
  196.3840  173.7350  143.5290 C   0  0  0  0  0  3  0  0  0  0  0  0
  196.3880  172.0120  141.3310 C   0  0  0  0  0  3  0  0  0  0  0  0
  196.2940  172.3550  143.7240 C   0  0  0  0  0  0  0  0  0  0  0  0
  196.2960  171.4930  142.6260 C   0  0  0  0  0  3  0  0  0  0  0  0
  196.4800  173.3960  141.1230 C   0  0  0  0  0  0  0  0  0  0  0  0
  197.7590  173.8020  135.2060 N   0  0  0  0  0  2  0  0  0  0  0  0
  197.5650  173.3520  136.5440 C   0  0  0  0  0  0  0  0  0  0  0  0
  197.9410  172.1560  136.8560 N   0  0  0  0  0  1  0  0  0  0  0  0
  1 18  1  6  0  0  0
  1  9  1  0  0  0  0
  2  5  1  0  0  0  0
  4  6  1  0  0  0  0
  6 29  1  6  0  0  0
  6  1  1  0  0  0  0
  7  4  1  6  0  0  0
  7 11  1  0  0  0  0
  9  8  2  0  0  0  0
 10  3  1  6  0  0  0
 10  2  1  0  0  0  0
 11  9  1  0  0  0  0
 11  5  1  0  0  0  0
 12  7  1  0  0  0  0
 12 10  1  0  0  0  0
 13 15  1  0  0  0  0
 14 16  1  0  0  0  0
 16 15  2  0  0  0  0
 17 14  2  0  0  0  0
 17 18  1  0  0  0  0
 18 13  2  0  0  0  0
 19 20  1  0  0  0  0
 19 17  1  0  0  0  0
 20 21  1  0  0  0  0
 21 22  1  6  0  0  0
 21 23  1  0  0  0  0
 23 24  1  6  0  0  0
 23 27  1  0  0  0  0
 26 27  1  0  0  0  0
 27 25  1  0  0  0  0
 28 30  2  0  0  0  0
 30 29  2  0  0  0  0
 31 32  1  0  0  0  0
 31 28  1  0  0  0  0
 32 33  1  0  0  0  0
 33 34  1  0  0  0  0
 34 36  2  0  0  0  0
 35 36  1  0  0  0  0
 37 35  2  0  0  0  0
 38 37  1  0  0  0  0
 38 33  2  0  0  0  0
 39 35  1  1  0  0  0
 39 41  1  0  0  0  0
 40 52  1  6  0  0  0
 40 42  1  0  0  0  0
 40 39  1  0  0  0  0
 41 50  1  0  0  0  0
 42 43  2  0  0  0  0
 43 41  1  0  0  0  0
 45 46  1  0  0  0  0
 46 48  2  0  0  0  0
 47 49  2  0  0  0  0
 48 44  1  0  0  0  0
 49 48  1  0  0  0  0
 50 47  1  0  0  0  0
 50 45  2  0  0  0  0
 51 52  2  0  0  0  0
 52 53  1  0  0  0  0
M  END
>  <MODEL>
4

>  <REMARK>
 VINA RESULT:      -7.1      3.982      6.422
  Name = 
  13 active torsions:
  status: ('A' for Active; 'I' for Inactive)
    1  A    between atoms: C_1  and  C_29
    2  A    between atoms: C_2  and  C_10
    3  A    between atoms: C_3  and  N_49
    4  A    between atoms: N_4  and  C_48
    5  A    between atoms: C_5  and  C_27
    6  A    between atoms: C_5  and  C_36
    7  A    between atoms: C_8  and  C_32
    8  A    between atoms: C_9  and  C_40
    9  A    between atoms: C_12  and  C_25
   10  A    between atoms: C_21  and  C_45
   11  A    between atoms: C_21  and  C_51
   12  A    between atoms: C_27  and  C_45
   13  A    between atoms: C_32  and  N_49
                            x       y       z     vdW  Elec       q    Type
                         _______ _______ _______ _____ _____    ______ ____

>  <TORSDO>
F 13

$$$$
=
 OpenBabel11062420333D

 53 58  0  0  1  0  0  0  0  0999 V2000
  193.4020  173.3050  141.7040 C   0  0  2  0  0  3  0  0  0  0  0  0
  194.3980  172.8510  137.1060 C   0  0  0  0  0  2  0  0  0  0  0  0
  196.5870  173.6590  138.0050 C   0  0  0  0  0  1  0  0  0  0  0  0
  194.8520  174.9650  140.4390 C   0  0  0  0  0  2  0  0  0  0  0  0
  193.0640  172.9920  137.8370 C   0  0  0  0  0  2  0  0  0  0  0  0
  194.0450  174.7040  141.7120 C   0  0  2  0  0  3  0  0  0  0  0  0
  193.9150  174.9040  139.2460 C   0  0  2  0  0  3  0  0  0  0  0  0
  192.3100  171.7570  140.2380 O   0  0  0  0  0  0  0  0  0  0  0  0
  192.9350  172.8480  140.3380 C   0  0  0  0  0  0  0  0  0  0  0  0
  195.3230  174.0660  137.2740 C   0  0  2  0  0  3  0  0  0  0  0  0
  193.2810  173.5840  139.1530 N   0  0  0  0  0  0  0  0  0  0  0  0
  194.6570  175.2740  137.9520 C   0  0  0  0  0  2  0  0  0  0  0  0
  191.2060  174.0750  142.6700 C   0  0  0  0  0  3  0  0  0  0  0  0
  191.3120  172.1300  144.6720 C   0  0  0  0  0  3  0  0  0  0  0  0
  190.1750  173.9810  143.6090 C   0  0  0  0  0  3  0  0  0  0  0  0
  190.2280  173.0090  144.6090 C   0  0  0  0  0  3  0  0  0  0  0  0
  192.3520  172.2190  143.7410 C   0  0  0  0  0  0  0  0  0  0  0  0
  192.3010  173.1980  142.7270 C   0  0  0  0  0  0  0  0  0  0  0  0
  193.4920  171.2510  143.8470 C   0  0  0  0  0  2  0  0  0  0  0  0
  194.5230  171.7120  144.8700 C   0  0  0  0  0  2  0  0  0  0  0  0
  195.9090  171.1600  144.5560 C   0  0  2  0  0  3  0  0  0  0  0  0
  195.9800  169.8260  144.9630 O   0  0  0  0  0  1  0  0  0  0  0  0
  196.9850  171.9780  145.2690 C   0  0  2  0  0  3  0  0  0  0  0  0
  196.3990  172.9070  146.1380 O   0  0  0  0  0  1  0  0  0  0  0  0
  197.4770  172.4380  142.8280 C   0  0  0  0  0  1  0  0  0  0  0  0
  197.9400  174.1740  144.5430 C   0  0  0  0  0  1  0  0  0  0  0  0
  197.9020  172.6840  144.2680 C   0  0  0  0  0  3  0  0  0  0  0  0
  193.9500  176.2180  145.0390 C   0  0  0  0  0  3  0  0  0  0  0  0
  194.8460  174.9000  142.9740 C   0  0  0  0  0  3  0  0  0  0  0  0
  194.4090  175.5620  144.0130 C   0  0  0  0  0  0  0  0  0  0  0  0
  193.0830  175.5250  146.0310 C   0  0  0  0  0  2  0  0  0  0  0  0
  192.1120  176.4570  146.5850 N   0  0  0  0  0  2  0  0  0  0  0  0
  190.7740  176.5760  146.0920 C   0  0  0  0  0  0  0  0  0  0  0  0
  189.7000  175.9420  146.7300 C   0  0  0  0  0  3  0  0  0  0  0  0
  188.1990  176.8720  145.0860 C   0  0  0  0  0  0  0  0  0  0  0  0
  188.4100  176.0830  146.2250 C   0  0  0  0  0  3  0  0  0  0  0  0
  189.2570  177.4730  144.4770 N   0  0  0  0  0  0  0  0  0  0  0  0
  190.5240  177.3450  144.9530 C   0  0  0  0  0  3  0  0  0  0  0  0
  186.8290  177.0240  144.4910 C   0  0  1  0  0  3  0  0  0  0  0  0
  186.2320  178.3480  144.9110 C   0  0  1  0  0  3  0  0  0  0  0  0
  186.8840  177.0890  143.0420 N   0  0  0  0  0  0  0  0  0  0  0  0
  185.9670  179.1010  143.6090 C   0  0  0  0  0  3  0  0  0  0  0  0
  186.4440  178.2970  142.4860 N   0  0  0  0  0  0  0  0  0  0  0  0
  188.4370  172.4590  139.5660 Cl  0  0  0  0  0  0  0  0  0  0  0  0
  187.8140  176.1970  140.9440 C   0  0  0  0  0  3  0  0  0  0  0  0
  188.1770  175.1180  140.1320 C   0  0  0  0  0  3  0  0  0  0  0  0
  187.0630  174.6570  142.6510 C   0  0  0  0  0  3  0  0  0  0  0  0
  187.9810  173.8100  140.5800 C   0  0  0  0  0  0  0  0  0  0  0  0
  187.4250  173.5780  141.8390 C   0  0  0  0  0  3  0  0  0  0  0  0
  187.2540  175.9750  142.2120 C   0  0  0  0  0  0  0  0  0  0  0  0
  184.8540  177.0230  146.5790 N   0  0  0  0  0  1  0  0  0  0  0  0
  184.9730  178.1450  145.7090 C   0  0  0  0  0  0  0  0  0  0  0  0
  183.9010  178.7820  145.3700 N   0  0  0  0  0  2  0  0  0  0  0  0
  1  6  1  0  0  0  0
  1 18  1  1  0  0  0
  2 10  1  0  0  0  0
  2  5  1  0  0  0  0
  4  6  1  0  0  0  0
  5 11  1  0  0  0  0
  6 29  1  1  0  0  0
  7 12  1  6  0  0  0
  7  4  1  0  0  0  0
  8  9  2  0  0  0  0
  9  1  1  0  0  0  0
 10 12  1  0  0  0  0
 10  3  1  1  0  0  0
 11  7  1  0  0  0  0
 11  9  1  0  0  0  0
 13 18  2  0  0  0  0
 13 15  1  0  0  0  0
 15 16  2  0  0  0  0
 16 14  1  0  0  0  0
 17 19  1  0  0  0  0
 17 14  2  0  0  0  0
 18 17  1  0  0  0  0
 19 20  1  0  0  0  0
 21 20  1  0  0  0  0
 21 22  1  1  0  0  0
 21 23  1  0  0  0  0
 23 24  1  1  0  0  0
 25 27  1  0  0  0  0
 27 26  1  0  0  0  0
 27 23  1  0  0  0  0
 28 31  1  0  0  0  0
 29 30  2  0  0  0  0
 30 28  2  0  0  0  0
 31 32  1  0  0  0  0
 33 32  1  0  0  0  0
 33 34  1  0  0  0  0
 35 36  1  0  0  0  0
 36 34  2  0  0  0  0
 37 38  1  0  0  0  0
 37 35  2  0  0  0  0
 38 33  2  0  0  0  0
 39 40  1  0  0  0  0
 39 35  1  1  0  0  0
 40 52  1  6  0  0  0
 41 39  1  0  0  0  0
 42 40  1  0  0  0  0
 43 41  1  0  0  0  0
 43 42  2  0  0  0  0
 44 48  1  0  0  0  0
 45 50  1  0  0  0  0
 46 48  1  0  0  0  0
 46 45  2  0  0  0  0
 48 49  2  0  0  0  0
 49 47  1  0  0  0  0
 50 47  2  0  0  0  0
 50 41  1  0  0  0  0
 52 51  1  0  0  0  0
 53 52  2  0  0  0  0
M  END
>  <MODEL>
5

>  <REMARK>
 VINA RESULT:      -7.1      3.573      9.161
  Name = 
  13 active torsions:
  status: ('A' for Active; 'I' for Inactive)
    1  A    between atoms: C_1  and  C_29
    2  A    between atoms: C_2  and  C_10
    3  A    between atoms: C_3  and  N_49
    4  A    between atoms: N_4  and  C_48
    5  A    between atoms: C_5  and  C_27
    6  A    between atoms: C_5  and  C_36
    7  A    between atoms: C_8  and  C_32
    8  A    between atoms: C_9  and  C_40
    9  A    between atoms: C_12  and  C_25
   10  A    between atoms: C_21  and  C_45
   11  A    between atoms: C_21  and  C_51
   12  A    between atoms: C_27  and  C_45
   13  A    between atoms: C_32  and  N_49
                            x       y       z     vdW  Elec       q    Type
                         _______ _______ _______ _____ _____    ______ ____

>  <TORSDO>
F 13

$$$$
=
 OpenBabel11062420333D

 53 58  0  0  1  0  0  0  0  0999 V2000
  194.2930  173.5300  141.8450 C   0  0  2  0  0  3  0  0  0  0  0  0
  195.9260  172.8000  137.4710 C   0  0  0  0  0  2  0  0  0  0  0  0
  197.9300  173.8000  138.5820 C   0  0  0  0  0  1  0  0  0  0  0  0
  195.8180  175.1750  140.6530 C   0  0  0  0  0  2  0  0  0  0  0  0
  194.4990  172.9150  138.0050 C   0  0  0  0  0  2  0  0  0  0  0  0
  194.8590  174.9610  141.8260 C   0  0  2  0  0  3  0  0  0  0  0  0
  195.0560  174.9720  139.3550 C   0  0  2  0  0  3  0  0  0  0  0  0
  193.4880  171.8160  140.3780 O   0  0  0  0  0  0  0  0  0  0  0  0
  194.0390  172.9470  140.4720 C   0  0  0  0  0  0  0  0  0  0  0  0
  196.7590  174.0760  137.6600 C   0  0  2  0  0  3  0  0  0  0  0  0
  194.5070  173.6130  139.2870 N   0  0  0  0  0  0  0  0  0  0  0  0
  195.9480  175.2890  138.1450 C   0  0  0  0  0  2  0  0  0  0  0  0
  191.9450  174.2240  142.4380 C   0  0  0  0  0  3  0  0  0  0  0  0
  191.8860  172.4650  144.6080 C   0  0  0  0  0  3  0  0  0  0  0  0
  190.8020  174.1380  143.2380 C   0  0  0  0  0  3  0  0  0  0  0  0
  190.7720  173.2580  144.3210 C   0  0  0  0  0  3  0  0  0  0  0  0
  193.0370  172.5470  143.8170 C   0  0  0  0  0  0  0  0  0  0  0  0
  193.0690  173.4320  142.7200 C   0  0  0  0  0  0  0  0  0  0  0  0
  194.2050  171.6730  144.1620 C   0  0  0  0  0  2  0  0  0  0  0  0
  194.0730  170.2910  143.5340 C   0  0  0  0  0  2  0  0  0  0  0  0
  195.2240  169.3780  143.9430 C   0  0  2  0  0  3  0  0  0  0  0  0
  195.7060  168.7090  142.8160 O   0  0  0  0  0  1  0  0  0  0  0  0
  194.7580  168.3660  144.9880 C   0  0  2  0  0  3  0  0  0  0  0  0
  193.3820  168.4890  145.2110 O   0  0  0  0  0  1  0  0  0  0  0  0
  196.6160  169.5870  146.2010 C   0  0  0  0  0  1  0  0  0  0  0  0
  194.5850  168.8630  147.4350 C   0  0  0  0  0  1  0  0  0  0  0  0
  195.5320  168.5240  146.2990 C   0  0  0  0  0  3  0  0  0  0  0  0
  194.1430  176.4550  145.0850 C   0  0  0  0  0  3  0  0  0  0  0  0
  195.4710  175.2960  143.1620 C   0  0  0  0  0  3  0  0  0  0  0  0
  194.8160  175.8800  144.1310 C   0  0  0  0  0  0  0  0  0  0  0  0
  193.2990  175.6300  145.9930 C   0  0  0  0  0  2  0  0  0  0  0  0
  192.2290  176.4400  146.5550 N   0  0  0  0  0  2  0  0  0  0  0  0
  190.9330  176.5480  145.9570 C   0  0  0  0  0  0  0  0  0  0  0  0
  190.7070  177.3690  144.8450 C   0  0  0  0  0  3  0  0  0  0  0  0
  188.3920  176.6910  144.8380 C   0  0  0  0  0  0  0  0  0  0  0  0
  189.4340  177.4480  144.2850 C   0  0  0  0  0  3  0  0  0  0  0  0
  188.6320  175.9050  145.9230 N   0  0  0  0  0  0  0  0  0  0  0  0
  189.8670  175.8170  146.4850 C   0  0  0  0  0  3  0  0  0  0  0  0
  186.9990  176.7700  144.2860 C   0  0  1  0  0  3  0  0  0  0  0  0
  186.3460  178.0620  144.7250 C   0  0  1  0  0  3  0  0  0  0  0  0
  187.0040  176.8350  142.8370 N   0  0  0  0  0  0  0  0  0  0  0  0
  186.0020  178.7970  143.4310 C   0  0  0  0  0  3  0  0  0  0  0  0
  186.4840  178.0180  142.2930 N   0  0  0  0  0  0  0  0  0  0  0  0
  188.6840  172.2850  139.3140 Cl  0  0  0  0  0  0  0  0  0  0  0  0
  187.8050  175.9790  140.6710 C   0  0  0  0  0  3  0  0  0  0  0  0
  188.1970  174.9190  139.8490 C   0  0  0  0  0  3  0  0  0  0  0  0
  187.4040  174.4240  142.4800 C   0  0  0  0  0  3  0  0  0  0  0  0
  188.1920  173.6120  140.3410 C   0  0  0  0  0  0  0  0  0  0  0  0
  187.7950  173.3640  141.6570 C   0  0  0  0  0  3  0  0  0  0  0  0
  187.4060  175.7410  141.9950 C   0  0  0  0  0  0  0  0  0  0  0  0
  184.0130  178.6830  145.5000 N   0  0  0  0  0  2  0  0  0  0  0  0
  185.1260  177.7960  145.5620 C   0  0  0  0  0  0  0  0  0  0  0  0
  185.2100  176.9770  146.5580 N   0  0  0  0  0  1  0  0  0  0  0  0
  1 18  1  1  0  0  0
  2 10  1  0  0  0  0
  2  5  1  0  0  0  0
  4  6  1  0  0  0  0
  5 11  1  0  0  0  0
  6  1  1  0  0  0  0
  6 29  1  1  0  0  0
  7 12  1  6  0  0  0
  7  4  1  0  0  0  0
  8  9  2  0  0  0  0
  9  1  1  0  0  0  0
 10 12  1  0  0  0  0
 10  3  1  1  0  0  0
 11  7  1  0  0  0  0
 11  9  1  0  0  0  0
 13 18  2  0  0  0  0
 13 15  1  0  0  0  0
 15 16  2  0  0  0  0
 16 14  1  0  0  0  0
 17 19  1  0  0  0  0
 17 14  2  0  0  0  0
 18 17  1  0  0  0  0
 20 21  1  0  0  0  0
 20 19  1  0  0  0  0
 21 22  1  6  0  0  0
 21 23  1  0  0  0  0
 23 24  1  1  0  0  0
 23 27  1  0  0  0  0
 25 27  1  0  0  0  0
 27 26  1  0  0  0  0
 28 31  1  0  0  0  0
 29 30  2  0  0  0  0
 30 28  2  0  0  0  0
 31 32  1  0  0  0  0
 33 38  1  0  0  0  0
 33 32  1  0  0  0  0
 34 33  2  0  0  0  0
 35 37  1  0  0  0  0
 36 35  2  0  0  0  0
 36 34  1  0  0  0  0
 37 38  2  0  0  0  0
 39 40  1  0  0  0  0
 39 35  1  1  0  0  0
 40 52  1  6  0  0  0
 41 39  1  0  0  0  0
 42 40  1  0  0  0  0
 43 41  1  0  0  0  0
 43 42  2  0  0  0  0
 44 48  1  0  0  0  0
 45 50  1  0  0  0  0
 46 48  1  0  0  0  0
 46 45  2  0  0  0  0
 48 49  2  0  0  0  0
 49 47  1  0  0  0  0
 50 47  2  0  0  0  0
 50 41  1  0  0  0  0
 51 52  2  0  0  0  0
 52 53  1  0  0  0  0
M  END
>  <MODEL>
6

>  <REMARK>
 VINA RESULT:      -7.0      3.457      9.302
  Name = 
  13 active torsions:
  status: ('A' for Active; 'I' for Inactive)
    1  A    between atoms: C_1  and  C_29
    2  A    between atoms: C_2  and  C_10
    3  A    between atoms: C_3  and  N_49
    4  A    between atoms: N_4  and  C_48
    5  A    between atoms: C_5  and  C_27
    6  A    between atoms: C_5  and  C_36
    7  A    between atoms: C_8  and  C_32
    8  A    between atoms: C_9  and  C_40
    9  A    between atoms: C_12  and  C_25
   10  A    between atoms: C_21  and  C_45
   11  A    between atoms: C_21  and  C_51
   12  A    between atoms: C_27  and  C_45
   13  A    between atoms: C_32  and  N_49
                            x       y       z     vdW  Elec       q    Type
                         _______ _______ _______ _____ _____    ______ ____

>  <TORSDO>
F 13

$$$$
=
 OpenBabel11062420333D

 53 58  0  0  1  0  0  0  0  0999 V2000
  194.3310  172.1930  144.0530 C   0  0  2  0  0  3  0  0  0  0  0  0
  191.3450  172.9060  140.4600 C   0  0  0  0  0  2  0  0  0  0  0  0
  190.9580  174.9600  141.8350 C   0  0  0  0  0  1  0  0  0  0  0  0
  192.0170  173.1940  144.3650 C   0  0  0  0  0  2  0  0  0  0  0  0
  191.9980  171.6290  140.9870 C   0  0  0  0  0  2  0  0  0  0  0  0
  193.2210  172.5510  145.0570 C   0  0  2  0  0  3  0  0  0  0  0  0
  191.4320  172.1980  143.3790 C   0  0  2  0  0  3  0  0  0  0  0  0
  194.6470  171.3140  141.8480 O   0  0  0  0  0  0  0  0  0  0  0  0
  193.8200  171.7210  142.7090 C   0  0  0  0  0  0  0  0  0  0  0  0
  190.4180  173.5890  141.4780 C   0  0  2  0  0  3  0  0  0  0  0  0
  192.4280  171.8270  142.3680 N   0  0  0  0  0  0  0  0  0  0  0  0
  190.1490  172.7540  142.7410 C   0  0  0  0  0  2  0  0  0  0  0  0
  194.8900  169.9210  144.9890 C   0  0  0  0  0  3  0  0  0  0  0  0
  197.5570  170.6500  145.3840 C   0  0  0  0  0  3  0  0  0  0  0  0
  195.7920  169.0030  145.5320 C   0  0  0  0  0  3  0  0  0  0  0  0
  197.1260  169.3660  145.7280 C   0  0  0  0  0  3  0  0  0  0  0  0
  196.6610  171.5790  144.8460 C   0  0  0  0  0  0  0  0  0  0  0  0
  195.3140  171.2140  144.6430 C   0  0  0  0  0  0  0  0  0  0  0  0
  197.1720  172.9420  144.4890 C   0  0  0  0  0  2  0  0  0  0  0  0
  197.9010  172.9340  143.1510 C   0  0  0  0  0  2  0  0  0  0  0  0
  197.8120  174.2870  142.4560 C   0  0  2  0  0  3  0  0  0  0  0  0
  197.7540  175.2980  143.4180 O   0  0  0  0  0  1  0  0  0  0  0  0
  196.5730  174.3490  141.5630 C   0  0  2  0  0  3  0  0  0  0  0  0
  196.9440  174.4750  140.2190 O   0  0  0  0  0  1  0  0  0  0  0  0
  196.0210  176.8060  141.2970 C   0  0  0  0  0  1  0  0  0  0  0  0
  194.2050  175.1500  141.6610 C   0  0  0  0  0  1  0  0  0  0  0  0
  195.6470  175.4960  141.9750 C   0  0  0  0  0  3  0  0  0  0  0  0
  194.6250  175.8370  145.8300 C   0  0  0  0  0  3  0  0  0  0  0  0
  193.7830  173.3930  146.1750 C   0  0  0  0  0  3  0  0  0  0  0  0
  194.2110  174.6170  146.0130 C   0  0  0  0  0  0  0  0  0  0  0  0
  193.6460  176.9590  145.8540 C   0  0  0  0  0  2  0  0  0  0  0  0
  192.8510  176.9550  144.6350 N   0  0  0  0  0  2  0  0  0  0  0  0
  191.4270  177.0980  144.6300 C   0  0  0  0  0  0  0  0  0  0  0  0
  190.8020  178.1710  143.9820 C   0  0  0  0  0  3  0  0  0  0  0  0
  188.6540  177.2960  144.6460 C   0  0  0  0  0  0  0  0  0  0  0  0
  189.4130  178.2770  143.9940 C   0  0  0  0  0  3  0  0  0  0  0  0
  189.2820  176.2650  145.2750 N   0  0  0  0  0  0  0  0  0  0  0  0
  190.6360  176.1460  145.2770 C   0  0  0  0  0  3  0  0  0  0  0  0
  187.1570  177.3880  144.7100 C   0  0  1  0  0  3  0  0  0  0  0  0
  186.7440  178.1930  145.9210 C   0  0  1  0  0  3  0  0  0  0  0  0
  186.6220  178.1240  143.5790 N   0  0  0  0  0  0  0  0  0  0  0  0
  185.9580  179.3790  145.3670 C   0  0  0  0  0  3  0  0  0  0  0  0
  185.9630  179.3170  143.9070 N   0  0  0  0  0  0  0  0  0  0  0  0
  186.7530  176.1100  137.9350 Cl  0  0  0  0  0  0  0  0  0  0  0  0
  185.9170  178.2860  141.2250 C   0  0  0  0  0  3  0  0  0  0  0  0
  185.9470  177.8170  139.9090 C   0  0  0  0  0  3  0  0  0  0  0  0
  187.4220  176.5120  141.8890 C   0  0  0  0  0  3  0  0  0  0  0  0
  186.7130  176.6960  139.5830 C   0  0  0  0  0  0  0  0  0  0  0  0
  187.4510  176.0430  140.5720 C   0  0  0  0  0  3  0  0  0  0  0  0
  186.6560  177.6370  142.2270 C   0  0  0  0  0  0  0  0  0  0  0  0
  184.9790  176.4250  146.3560 N   0  0  0  0  0  2  0  0  0  0  0  0
  185.9200  177.3640  146.8670 C   0  0  0  0  0  0  0  0  0  0  0  0
  185.8240  177.7250  148.1040 N   0  0  0  0  0  1  0  0  0  0  0  0
  1 18  1  1  0  0  0
  1  6  1  0  0  0  0
  2  5  1  0  0  0  0
  2 10  1  0  0  0  0
  4  6  1  0  0  0  0
  5 11  1  0  0  0  0
  6 29  1  1  0  0  0
  7 12  1  6  0  0  0
  7  4  1  0  0  0  0
  8  9  2  0  0  0  0
  9  1  1  0  0  0  0
 10  3  1  1  0  0  0
 10 12  1  0  0  0  0
 11  9  1  0  0  0  0
 11  7  1  0  0  0  0
 13 15  1  0  0  0  0
 14 16  1  0  0  0  0
 15 16  2  0  0  0  0
 17 14  2  0  0  0  0
 18 17  1  0  0  0  0
 18 13  2  0  0  0  0
 19 17  1  0  0  0  0
 20 19  1  0  0  0  0
 21 20  1  0  0  0  0
 21 22  1  1  0  0  0
 23 24  1  6  0  0  0
 23 27  1  0  0  0  0
 23 21  1  0  0  0  0
 25 27  1  0  0  0  0
 26 27  1  0  0  0  0
 28 31  1  0  0  0  0
 28 30  2  0  0  0  0
 30 29  2  0  0  0  0
 32 31  1  0  0  0  0
 33 32  1  0  0  0  0
 33 38  1  0  0  0  0
 34 36  1  0  0  0  0
 34 33  2  0  0  0  0
 35 37  1  0  0  0  0
 36 35  2  0  0  0  0
 37 38  2  0  0  0  0
 39 35  1  6  0  0  0
 39 40  1  0  0  0  0
 40 52  1  1  0  0  0
 41 43  1  0  0  0  0
 41 39  1  0  0  0  0
 42 40  1  0  0  0  0
 43 42  2  0  0  0  0
 44 48  1  0  0  0  0
 45 50  1  0  0  0  0
 46 45  2  0  0  0  0
 47 50  2  0  0  0  0
 48 46  1  0  0  0  0
 48 49  2  0  0  0  0
 49 47  1  0  0  0  0
 50 41  1  0  0  0  0
 51 52  2  0  0  0  0
 52 53  1  0  0  0  0
M  END
>  <MODEL>
7

>  <REMARK>
 VINA RESULT:      -6.9      3.368      9.181
  Name = 
  13 active torsions:
  status: ('A' for Active; 'I' for Inactive)
    1  A    between atoms: C_1  and  C_29
    2  A    between atoms: C_2  and  C_10
    3  A    between atoms: C_3  and  N_49
    4  A    between atoms: N_4  and  C_48
    5  A    between atoms: C_5  and  C_27
    6  A    between atoms: C_5  and  C_36
    7  A    between atoms: C_8  and  C_32
    8  A    between atoms: C_9  and  C_40
    9  A    between atoms: C_12  and  C_25
   10  A    between atoms: C_21  and  C_45
   11  A    between atoms: C_21  and  C_51
   12  A    between atoms: C_27  and  C_45
   13  A    between atoms: C_32  and  N_49
                            x       y       z     vdW  Elec       q    Type
                         _______ _______ _______ _____ _____    ______ ____

>  <TORSDO>
F 13

$$$$
=
 OpenBabel11062420333D

 53 58  0  0  1  0  0  0  0  0999 V2000
  192.1990  172.7090  140.6030 C   0  0  2  0  0  3  0  0  0  0  0  0
  191.3360  171.4030  136.1440 C   0  0  0  0  0  2  0  0  0  0  0  0
  193.5900  172.4630  135.9170 C   0  0  0  0  0  1  0  0  0  0  0  0
  192.8210  174.1470  138.6030 C   0  0  0  0  0  2  0  0  0  0  0  0
  190.3950  171.6290  137.3260 C   0  0  0  0  0  2  0  0  0  0  0  0
  192.6210  174.1080  140.1200 C   0  0  2  0  0  3  0  0  0  0  0  0
  191.5010  173.8150  137.9290 C   0  0  2  0  0  3  0  0  0  0  0  0
  190.8070  170.8590  139.9890 O   0  0  0  0  0  0  0  0  0  0  0  0
  191.2860  171.9730  139.6450 C   0  0  0  0  0  0  0  0  0  0  0  0
  192.1010  172.6650  135.7160 C   0  0  2  0  0  3  0  0  0  0  0  0
  191.0450  172.4760  138.3210 N   0  0  0  0  0  0  0  0  0  0  0  0
  191.6200  173.9530  136.4030 C   0  0  0  0  0  2  0  0  0  0  0  0
  190.4410  173.4900  142.2300 C   0  0  0  0  0  3  0  0  0  0  0  0
  191.6630  172.1200  144.3350 C   0  0  0  0  0  3  0  0  0  0  0  0
  189.8860  173.5390  143.5120 C   0  0  0  0  0  3  0  0  0  0  0  0
  190.4960  172.8530  144.5630 C   0  0  0  0  0  3  0  0  0  0  0  0
  192.2300  172.0690  143.0570 C   0  0  0  0  0  0  0  0  0  0  0  0
  191.6140  172.7580  141.9920 C   0  0  0  0  0  0  0  0  0  0  0  0
  193.4800  171.2660  142.8610 C   0  0  0  0  0  2  0  0  0  0  0  0
  194.5250  171.5880  143.9230 C   0  0  0  0  0  2  0  0  0  0  0  0
  195.6530  172.4440  143.3580 C   0  0  2  0  0  3  0  0  0  0  0  0
  195.8850  172.0840  142.0290 O   0  0  0  0  0  1  0  0  0  0  0  0
  196.9280  172.2560  144.1770 C   0  0  2  0  0  3  0  0  0  0  0  0
  196.7260  171.3090  145.1890 O   0  0  0  0  0  1  0  0  0  0  0  0
  197.0830  174.7640  143.8700 C   0  0  0  0  0  1  0  0  0  0  0  0
  196.8020  173.8000  146.1420 C   0  0  0  0  0  1  0  0  0  0  0  0
  197.4090  173.5820  144.7700 C   0  0  0  0  0  3  0  0  0  0  0  0
  193.6800  176.2800  142.8640 C   0  0  0  0  0  3  0  0  0  0  0  0
  193.8270  174.5810  140.8900 C   0  0  0  0  0  3  0  0  0  0  0  0
  193.7660  175.4350  141.8780 C   0  0  0  0  0  0  0  0  0  0  0  0
  193.3500  175.7890  144.2300 C   0  0  0  0  0  2  0  0  0  0  0  0
  192.5930  176.7980  144.9550 N   0  0  0  0  0  2  0  0  0  0  0  0
  191.1680  176.9150  144.8740 C   0  0  0  0  0  0  0  0  0  0  0  0
  190.3270  176.2440  145.7700 C   0  0  0  0  0  3  0  0  0  0  0  0
  188.4120  177.2080  144.6650 C   0  0  0  0  0  0  0  0  0  0  0  0
  188.9450  176.3830  145.6650 C   0  0  0  0  0  3  0  0  0  0  0  0
  189.2470  177.8450  143.8000 N   0  0  0  0  0  0  0  0  0  0  0  0
  190.5980  177.7190  143.8850 C   0  0  0  0  0  3  0  0  0  0  0  0
  186.9280  177.3610  144.4960 C   0  0  1  0  0  3  0  0  0  0  0  0
  186.3900  178.3210  145.5330 C   0  0  1  0  0  3  0  0  0  0  0  0
  186.5990  177.9730  143.2220 N   0  0  0  0  0  0  0  0  0  0  0  0
  185.7540  179.4580  144.7360 C   0  0  0  0  0  3  0  0  0  0  0  0
  185.9640  179.2190  143.3100 N   0  0  0  0  0  0  0  0  0  0  0  0
  187.4400  175.2530  137.9470 Cl  0  0  0  0  0  0  0  0  0  0  0  0
  187.4600  176.0880  141.8920 C   0  0  0  0  0  3  0  0  0  0  0  0
  187.6570  175.4530  140.6620 C   0  0  0  0  0  3  0  0  0  0  0  0
  186.3410  177.9140  140.7670 C   0  0  0  0  0  3  0  0  0  0  0  0
  187.1970  176.0490  139.4860 C   0  0  0  0  0  0  0  0  0  0  0  0
  186.5390  177.2790  139.5380 C   0  0  0  0  0  3  0  0  0  0  0  0
  186.7990  177.3250  141.9550 C   0  0  0  0  0  0  0  0  0  0  0  0
  184.0570  178.1220  146.5080 N   0  0  0  0  0  2  0  0  0  0  0  0
  185.3960  177.6420  146.4360 C   0  0  0  0  0  0  0  0  0  0  0  0
  185.8240  176.8580  147.3690 N   0  0  0  0  0  1  0  0  0  0  0  0
  1 18  1  1  0  0  0
  2  5  1  0  0  0  0
  4  6  1  0  0  0  0
  5 11  1  0  0  0  0
  6  1  1  0  0  0  0
  6 29  1  1  0  0  0
  7 12  1  6  0  0  0
  7 11  1  0  0  0  0
  7  4  1  0  0  0  0
  9  8  2  0  0  0  0
  9  1  1  0  0  0  0
 10  3  1  1  0  0  0
 10  2  1  0  0  0  0
 10 12  1  0  0  0  0
 11  9  1  0  0  0  0
 13 15  1  0  0  0  0
 14 16  1  0  0  0  0
 15 16  2  0  0  0  0
 17 14  2  0  0  0  0
 18 13  2  0  0  0  0
 18 17  1  0  0  0  0
 19 17  1  0  0  0  0
 19 20  1  0  0  0  0
 21 22  1  6  0  0  0
 21 20  1  0  0  0  0
 21 23  1  0  0  0  0
 23 27  1  0  0  0  0
 23 24  1  1  0  0  0
 25 27  1  0  0  0  0
 27 26  1  0  0  0  0
 28 31  1  0  0  0  0
 29 30  2  0  0  0  0
 30 28  2  0  0  0  0
 31 32  1  0  0  0  0
 33 32  1  0  0  0  0
 33 34  1  0  0  0  0
 35 36  1  0  0  0  0
 36 34  2  0  0  0  0
 37 38  1  0  0  0  0
 37 35  2  0  0  0  0
 38 33  2  0  0  0  0
 39 35  1  1  0  0  0
 39 40  1  0  0  0  0
 40 52  1  6  0  0  0
 41 43  1  0  0  0  0
 41 39  1  0  0  0  0
 42 40  1  0  0  0  0
 43 42  2  0  0  0  0
 44 48  1  0  0  0  0
 45 50  1  0  0  0  0
 46 45  2  0  0  0  0
 47 50  2  0  0  0  0
 48 49  2  0  0  0  0
 48 46  1  0  0  0  0
 49 47  1  0  0  0  0
 50 41  1  0  0  0  0
 52 51  2  0  0  0  0
 52 53  1  0  0  0  0
M  END
>  <MODEL>
8

>  <REMARK>
 VINA RESULT:      -6.8      3.695      9.285
  Name = 
  13 active torsions:
  status: ('A' for Active; 'I' for Inactive)
    1  A    between atoms: C_1  and  C_29
    2  A    between atoms: C_2  and  C_10
    3  A    between atoms: C_3  and  N_49
    4  A    between atoms: N_4  and  C_48
    5  A    between atoms: C_5  and  C_27
    6  A    between atoms: C_5  and  C_36
    7  A    between atoms: C_8  and  C_32
    8  A    between atoms: C_9  and  C_40
    9  A    between atoms: C_12  and  C_25
   10  A    between atoms: C_21  and  C_45
   11  A    between atoms: C_21  and  C_51
   12  A    between atoms: C_27  and  C_45
   13  A    between atoms: C_32  and  N_49
                            x       y       z     vdW  Elec       q    Type
                         _______ _______ _______ _____ _____    ______ ____

>  <TORSDO>
F 13

$$$$
=
 OpenBabel11062420333D

 53 58  0  0  1  0  0  0  0  0999 V2000
  194.8190  173.1500  140.3970 C   0  0  2  0  0  3  0  0  0  0  0  0
  195.6240  168.5750  139.5270 C   0  0  0  0  0  2  0  0  0  0  0  0
  193.5780  168.9840  138.1480 C   0  0  0  0  0  1  0  0  0  0  0  0
  192.9530  171.4360  140.2070 C   0  0  0  0  0  2  0  0  0  0  0  0
  196.0850  169.4770  140.6700 C   0  0  0  0  0  2  0  0  0  0  0  0
  193.3340  172.8460  140.6650 C   0  0  2  0  0  3  0  0  0  0  0  0
  193.7710  170.4290  140.9960 C   0  0  2  0  0  3  0  0  0  0  0  0
  196.9830  172.1260  140.4790 O   0  0  0  0  0  0  0  0  0  0  0  0
  195.7370  171.9610  140.5820 C   0  0  0  0  0  0  0  0  0  0  0  0
  194.0990  168.4090  139.4500 C   0  0  2  0  0  3  0  0  0  0  0  0
  195.2060  170.6380  140.7690 N   0  0  0  0  0  0  0  0  0  0  0  0
  193.3430  168.9930  140.6550 C   0  0  0  0  0  2  0  0  0  0  0  0
  195.6800  175.5150  140.5340 C   0  0  0  0  0  3  0  0  0  0  0  0
  195.7690  175.4070  143.3240 C   0  0  0  0  0  3  0  0  0  0  0  0
  196.1130  176.6250  141.2630 C   0  0  0  0  0  3  0  0  0  0  0  0
  196.1560  176.5710  142.6570 C   0  0  0  0  0  3  0  0  0  0  0  0
  195.3400  174.2870  142.6040 C   0  0  0  0  0  0  0  0  0  0  0  0
  195.2910  174.3390  141.1950 C   0  0  0  0  0  0  0  0  0  0  0  0
  194.9310  173.0620  143.3640 C   0  0  0  0  0  2  0  0  0  0  0  0
  194.3130  173.4190  144.7100 C   0  0  0  0  0  2  0  0  0  0  0  0
  193.0690  172.5860  144.9940 C   0  0  2  0  0  3  0  0  0  0  0  0
  193.4180  171.2350  145.0500 O   0  0  0  0  0  1  0  0  0  0  0  0
  192.0190  172.8060  143.9060 C   0  0  2  0  0  3  0  0  0  0  0  0
  191.5920  174.1390  143.8990 O   0  0  0  0  0  1  0  0  0  0  0  0
  189.7710  172.4390  145.0130 C   0  0  0  0  0  1  0  0  0  0  0  0
  190.2040  171.5370  142.7400 C   0  0  0  0  0  1  0  0  0  0  0  0
  190.8270  171.8610  144.0830 C   0  0  0  0  0  3  0  0  0  0  0  0
  190.1990  173.4200  138.8730 C   0  0  0  0  0  3  0  0  0  0  0  0
  192.4670  173.9210  140.0620 C   0  0  0  0  0  3  0  0  0  0  0  0
  191.3310  173.6810  139.4600 C   0  0  0  0  0  0  0  0  0  0  0  0
  188.9630  173.2710  139.6890 C   0  0  0  0  0  2  0  0  0  0  0  0
  188.2940  174.5570  139.8210 N   0  0  0  0  0  2  0  0  0  0  0  0
  188.1460  175.2370  141.0720 C   0  0  0  0  0  0  0  0  0  0  0  0
  188.3330  174.5730  142.2910 C   0  0  0  0  0  3  0  0  0  0  0  0
  187.8600  176.6300  143.4610 C   0  0  0  0  0  0  0  0  0  0  0  0
  188.1840  175.2660  143.4900 C   0  0  0  0  0  3  0  0  0  0  0  0
  187.6760  177.2530  142.2650 N   0  0  0  0  0  0  0  0  0  0  0  0
  187.8140  176.5930  141.0850 C   0  0  0  0  0  3  0  0  0  0  0  0
  187.6600  177.4060  144.7300 C   0  0  1  0  0  3  0  0  0  0  0  0
  186.1900  177.4370  145.0850 C   0  0  1  0  0  3  0  0  0  0  0  0
  188.2970  176.7540  145.8580 N   0  0  0  0  0  0  0  0  0  0  0  0
  186.0960  176.7790  146.4600 C   0  0  0  0  0  3  0  0  0  0  0  0
  187.4240  176.3230  146.8660 N   0  0  0  0  0  0  0  0  0  0  0  0
  194.2380  176.2720  146.4990 Cl  0  0  0  0  0  0  0  0  0  0  0  0
  190.2640  175.8170  147.0070 C   0  0  0  0  0  3  0  0  0  0  0  0
  191.6490  175.7040  147.1570 C   0  0  0  0  0  3  0  0  0  0  0  0
  190.5910  177.3520  145.1660 C   0  0  0  0  0  3  0  0  0  0  0  0
  192.5050  176.4160  146.3130 C   0  0  0  0  0  0  0  0  0  0  0  0
  191.9760  177.2390  145.3170 C   0  0  0  0  0  3  0  0  0  0  0  0
  189.7230  176.6420  146.0090 C   0  0  0  0  0  0  0  0  0  0  0  0
  185.6220  179.6020  143.8920 N   0  0  0  0  0  2  0  0  0  0  0  0
  185.6650  178.8470  145.0990 C   0  0  0  0  0  0  0  0  0  0  0  0
  185.5680  179.4730  146.2250 N   0  0  0  0  0  1  0  0  0  0  0  0
  1  9  1  0  0  0  0
  1  6  1  0  0  0  0
  1 18  1  1  0  0  0
  2  5  1  0  0  0  0
  4  6  1  0  0  0  0
  5 11  1  0  0  0  0
  6 29  1  6  0  0  0
  7  4  1  6  0  0  0
  8  9  2  0  0  0  0
  9 11  1  0  0  0  0
 10  3  1  6  0  0  0
 10  2  1  0  0  0  0
 10 12  1  0  0  0  0
 11  7  1  0  0  0  0
 12  7  1  0  0  0  0
 13 18  2  0  0  0  0
 13 15  1  0  0  0  0
 15 16  2  0  0  0  0
 16 14  1  0  0  0  0
 17 14  2  0  0  0  0
 17 19  1  0  0  0  0
 18 17  1  0  0  0  0
 19 20  1  0  0  0  0
 20 21  1  0  0  0  0
 21 22  1  6  0  0  0
 23 24  1  1  0  0  0
 23 27  1  0  0  0  0
 23 21  1  0  0  0  0
 26 27  1  0  0  0  0
 27 25  1  0  0  0  0
 28 30  2  0  0  0  0
 28 31  1  0  0  0  0
 30 29  2  0  0  0  0
 31 32  1  0  0  0  0
 32 33  1  0  0  0  0
 33 38  2  0  0  0  0
 33 34  1  0  0  0  0
 34 36  2  0  0  0  0
 35 36  1  0  0  0  0
 37 35  2  0  0  0  0
 38 37  1  0  0  0  0
 39 35  1  6  0  0  0
 39 40  1  0  0  0  0
 39 41  1  0  0  0  0
 40 52  1  1  0  0  0
 40 42  1  0  0  0  0
 41 50  1  0  0  0  0
 41 43  1  0  0  0  0
 42 43  2  0  0  0  0
 45 46  1  0  0  0  0
 47 49  2  0  0  0  0
 47 50  1  0  0  0  0
 48 44  1  0  0  0  0
 48 46  2  0  0  0  0
 49 48  1  0  0  0  0
 50 45  2  0  0  0  0
 51 52  2  0  0  0  0
 52 53  1  0  0  0  0
M  END
>  <MODEL>
9

>  <REMARK>
 VINA RESULT:      -6.7      3.222      9.777
  Name = 
  13 active torsions:
  status: ('A' for Active; 'I' for Inactive)
    1  A    between atoms: C_1  and  C_29
    2  A    between atoms: C_2  and  C_10
    3  A    between atoms: C_3  and  N_49
    4  A    between atoms: N_4  and  C_48
    5  A    between atoms: C_5  and  C_27
    6  A    between atoms: C_5  and  C_36
    7  A    between atoms: C_8  and  C_32
    8  A    between atoms: C_9  and  C_40
    9  A    between atoms: C_12  and  C_25
   10  A    between atoms: C_21  and  C_45
   11  A    between atoms: C_21  and  C_51
   12  A    between atoms: C_27  and  C_45
   13  A    between atoms: C_32  and  N_49
                            x       y       z     vdW  Elec       q    Type
                         _______ _______ _______ _____ _____    ______ ____

>  <TORSDO>
F 13

$$$$
