=
 OpenBabel11072409403D

 25 28  0  0  1  0  0  0  0  0999 V2000
  187.8730  175.8650  140.8580 C   0  0  0  0  0  2  0  0  0  0  0  0
  186.6860  176.7140  140.8860 N   0  0  0  0  0  2  0  0  0  0  0  0
  188.1590  176.2910  143.2830 C   0  0  0  0  0  2  0  0  0  0  0  0
  183.1840  179.0650  143.2780 O   0  0  0  0  0  1  0  0  0  0  0  0
  186.4410  177.7440  144.4990 C   0  0  0  0  0  0  0  0  0  0  0  0
  184.2310  178.0530  140.9210 O   0  0  0  0  0  1  0  0  0  0  0  0
  187.1900  177.7080  145.8000 C   0  0  0  0  0  0  0  0  0  0  0  0
  185.1960  178.3300  146.9680 C   0  0  0  0  0  0  0  0  0  0  0  0
  184.9480  177.9260  142.1050 C   0  0  0  0  0  0  0  0  0  0  0  0
  184.4280  178.4420  143.2910 C   0  0  0  0  0  0  0  0  0  0  0  0
  186.9310  177.1610  143.3000 C   0  0  0  0  0  0  0  0  0  0  0  0
  184.5790  178.3120  148.0650 O   0  0  0  0  0  0  0  0  0  0  0  0
  189.9910  177.4180  145.3030 C   0  0  0  0  0  2  0  0  0  0  0  0
  188.6060  177.5270  145.8620 N   0  0  0  0  0  0  0  0  0  0  0  0
  186.5690  177.9420  146.9160 N   0  0  0  0  0  0  0  0  0  0  0  0
  185.1500  178.3310  144.4890 C   0  0  0  0  0  0  0  0  0  0  0  0
  188.8560  176.3180  141.9260 C   0  0  0  0  0  2  0  0  0  0  0  0
  184.5270  178.8700  145.7470 C   0  0  0  0  0  2  0  0  0  0  0  0
  189.8490  177.3570  146.6740 C   0  0  1  0  0  3  0  0  0  0  0  0
  186.1780  177.2650  142.1090 C   0  0  0  0  0  0  0  0  0  0  0  0
  189.9510  175.9280  147.2490 C   0  0  1  0  0  3  0  0  0  0  0  0
  189.7010  174.7900  146.2590 C   0  0  0  0  0  1  0  0  0  0  0  0
  191.1890  175.7520  147.8690 O   0  0  0  0  0  0  0  0  0  0  0  0
  191.9670  175.0710  146.9300 C   0  0  0  0  0  2  0  0  0  0  0  0
  193.2280  175.8620  146.6500 C   0  0  0  0  0  1  0  0  0  0  0  0
  1  2  1  0  0  0  0
  1 17  1  0  0  0  0
  2 20  1  0  0  0  0
  3 11  1  0  0  0  0
  4 10  1  0  0  0  0
  5  7  1  0  0  0  0
  6  9  1  0  0  0  0
  7 14  1  0  0  0  0
  7 15  2  0  0  0  0
  8 12  2  0  0  0  0
  9 20  2  0  0  0  0
  9 10  1  0  0  0  0
 10 16  2  0  0  0  0
 11  5  2  0  0  0  0
 13 14  1  0  0  0  0
 13 19  1  0  0  0  0
 14 19  1  0  0  0  0
 15  8  1  0  0  0  0
 16  5  1  0  0  0  0
 16 18  1  0  0  0  0
 17  3  1  0  0  0  0
 18  8  1  0  0  0  0
 19 21  1  6  0  0  0
 20 11  1  0  0  0  0
 21 22  1  6  0  0  0
 21 23  1  0  0  0  0
 24 23  1  0  0  0  0
 25 24  1  0  0  0  0
M  END
>  <MODEL>
1

>  <REMARK>
 VINA RESULT:      -7.6      0.000      0.000
  Name = 
  3 active torsions:
  status: ('A' for Active; 'I' for Inactive)
    1  A    between atoms: C_4  and  O_5
    2  A    between atoms: C_4  and  C_24
    3  A    between atoms: O_5  and  C_9
                            x       y       z     vdW  Elec       q    Type
                         _______ _______ _______ _____ _____    ______ ____

>  <TORSDO>
F 3

$$$$
=
 OpenBabel11072409403D

 25 28  0  0  1  0  0  0  0  0999 V2000
  185.8630  179.2880  147.6070 C   0  0  0  0  0  2  0  0  0  0  0  0
  185.0870  179.1010  146.3860 N   0  0  0  0  0  2  0  0  0  0  0  0
  187.5230  177.6720  146.7260 C   0  0  0  0  0  2  0  0  0  0  0  0
  184.6460  177.5550  141.8110 O   0  0  0  0  0  1  0  0  0  0  0  0
  187.1600  176.6610  144.4050 C   0  0  0  0  0  0  0  0  0  0  0  0
  183.7140  179.0480  143.9490 O   0  0  0  0  0  1  0  0  0  0  0  0
  188.3530  175.7550  144.5080 C   0  0  0  0  0  0  0  0  0  0  0  0
  188.3850  175.5240  142.1260 C   0  0  0  0  0  0  0  0  0  0  0  0
  184.8660  178.2820  144.0930 C   0  0  0  0  0  0  0  0  0  0  0  0
  185.3320  177.5230  143.0210 C   0  0  0  0  0  0  0  0  0  0  0  0
  186.7150  177.4910  145.4680 C   0  0  0  0  0  0  0  0  0  0  0  0
  189.0820  175.2600  141.1110 O   0  0  0  0  0  0  0  0  0  0  0  0
  188.8280  175.0770  147.2450 C   0  0  0  0  0  2  0  0  0  0  0  0
  188.8520  175.2880  145.7630 N   0  0  0  0  0  0  0  0  0  0  0  0
  188.9120  175.2900  143.4320 N   0  0  0  0  0  0  0  0  0  0  0  0
  186.4860  176.7370  143.1590 C   0  0  0  0  0  0  0  0  0  0  0  0
  186.6430  178.0210  147.9210 C   0  0  0  0  0  2  0  0  0  0  0  0
  186.9700  175.9670  141.9610 C   0  0  0  0  0  2  0  0  0  0  0  0
  189.8740  174.5210  146.5380 C   0  0  1  0  0  3  0  0  0  0  0  0
  185.5640  178.2920  145.3020 C   0  0  0  0  0  0  0  0  0  0  0  0
  191.1950  175.3100  146.6550 C   0  0  1  0  0  3  0  0  0  0  0  0
  192.4200  174.6620  146.0100 C   0  0  0  0  0  1  0  0  0  0  0  0
  191.0250  176.6020  146.1520 O   0  0  0  0  0  0  0  0  0  0  0  0
  191.9750  176.7200  145.1360 C   0  0  0  0  0  2  0  0  0  0  0  0
  191.4850  177.7080  144.0990 C   0  0  0  0  0  1  0  0  0  0  0  0
  1 17  1  0  0  0  0
  2  1  1  0  0  0  0
  3 17  1  0  0  0  0
  4 10  1  0  0  0  0
  5  7  1  0  0  0  0
  5 11  1  0  0  0  0
  6  9  1  0  0  0  0
  7 14  1  0  0  0  0
  8 15  1  0  0  0  0
  9 20  1  0  0  0  0
 10 16  1  0  0  0  0
 10  9  2  0  0  0  0
 11  3  1  0  0  0  0
 12  8  2  0  0  0  0
 14 19  1  0  0  0  0
 14 13  1  0  0  0  0
 15  7  2  0  0  0  0
 16  5  2  0  0  0  0
 18  8  1  0  0  0  0
 18 16  1  0  0  0  0
 19 21  1  1  0  0  0
 19 13  1  0  0  0  0
 20 11  2  0  0  0  0
 20  2  1  0  0  0  0
 21 22  1  6  0  0  0
 23 21  1  0  0  0  0
 24 23  1  0  0  0  0
 25 24  1  0  0  0  0
M  END
>  <MODEL>
2

>  <REMARK>
 VINA RESULT:      -7.5      1.835      4.198
  Name = 
  3 active torsions:
  status: ('A' for Active; 'I' for Inactive)
    1  A    between atoms: C_4  and  O_5
    2  A    between atoms: C_4  and  C_24
    3  A    between atoms: O_5  and  C_9
                            x       y       z     vdW  Elec       q    Type
                         _______ _______ _______ _____ _____    ______ ____

>  <TORSDO>
F 3

$$$$
=
 OpenBabel11072409403D

 25 28  0  0  1  0  0  0  0  0999 V2000
  184.2340  178.0410  141.8680 C   0  0  0  0  0  2  0  0  0  0  0  0
  184.1420  178.4560  143.2630 N   0  0  0  0  0  2  0  0  0  0  0  0
  186.2940  176.7870  142.4410 C   0  0  0  0  0  2  0  0  0  0  0  0
  185.4040  178.0380  147.9270 O   0  0  0  0  0  1  0  0  0  0  0  0
  187.1030  176.7720  144.8680 C   0  0  0  0  0  0  0  0  0  0  0  0
  183.7130  179.0270  145.9680 O   0  0  0  0  0  1  0  0  0  0  0  0
  188.3500  176.0000  144.5470 C   0  0  0  0  0  0  0  0  0  0  0  0
  188.5510  175.3670  146.8460 C   0  0  0  0  0  0  0  0  0  0  0  0
  184.8160  178.2610  145.6050 C   0  0  0  0  0  0  0  0  0  0  0  0
  185.6730  177.7690  146.5880 C   0  0  0  0  0  0  0  0  0  0  0  0
  186.1860  177.2190  143.8790 C   0  0  0  0  0  0  0  0  0  0  0  0
  189.0160  174.5290  147.6620 O   0  0  0  0  0  0  0  0  0  0  0  0
  189.1800  176.5580  141.8680 C   0  0  0  0  0  2  0  0  0  0  0  0
  188.9700  176.0490  143.2610 N   0  0  0  0  0  0  0  0  0  0  0  0
  188.9610  175.3330  145.4790 N   0  0  0  0  0  0  0  0  0  0  0  0
  186.7950  177.0060  146.2330 C   0  0  0  0  0  0  0  0  0  0  0  0
  185.6910  177.8170  141.4920 C   0  0  0  0  0  2  0  0  0  0  0  0
  187.6670  176.4660  147.3330 C   0  0  0  0  0  2  0  0  0  0  0  0
  190.0380  175.5800  142.3270 C   0  0  1  0  0  3  0  0  0  0  0  0
  185.0500  177.9680  144.2600 C   0  0  0  0  0  0  0  0  0  0  0  0
  189.7270  174.1700  141.7830 C   0  0  1  0  0  3  0  0  0  0  0  0
  189.9430  173.0140  142.7590 C   0  0  0  0  0  1  0  0  0  0  0  0
  188.4240  174.1300  141.2840 O   0  0  0  0  0  0  0  0  0  0  0  0
  188.4830  173.2610  140.1920 C   0  0  0  0  0  2  0  0  0  0  0  0
  188.4070  174.0570  138.9070 C   0  0  0  0  0  1  0  0  0  0  0  0
  1  2  1  0  0  0  0
  2 20  1  0  0  0  0
  3 11  1  0  0  0  0
  5 16  1  0  0  0  0
  7  5  1  0  0  0  0
  7 15  2  0  0  0  0
  8 18  1  0  0  0  0
  8 12  2  0  0  0  0
  9  6  1  0  0  0  0
  9 10  1  0  0  0  0
 10  4  1  0  0  0  0
 11 20  1  0  0  0  0
 11  5  2  0  0  0  0
 13 19  1  0  0  0  0
 13 14  1  0  0  0  0
 14  7  1  0  0  0  0
 15  8  1  0  0  0  0
 16 10  2  0  0  0  0
 16 18  1  0  0  0  0
 17  1  1  0  0  0  0
 17  3  1  0  0  0  0
 19 21  1  6  0  0  0
 19 14  1  0  0  0  0
 20  9  2  0  0  0  0
 21 22  1  1  0  0  0
 23 21  1  0  0  0  0
 24 23  1  0  0  0  0
 25 24  1  0  0  0  0
M  END
>  <MODEL>
3

>  <REMARK>
 VINA RESULT:      -7.4      2.306      4.619
  Name = 
  3 active torsions:
  status: ('A' for Active; 'I' for Inactive)
    1  A    between atoms: C_4  and  O_5
    2  A    between atoms: C_4  and  C_24
    3  A    between atoms: O_5  and  C_9
                            x       y       z     vdW  Elec       q    Type
                         _______ _______ _______ _____ _____    ______ ____

>  <TORSDO>
F 3

$$$$
=
 OpenBabel11072409403D

 25 28  0  0  1  0  0  0  0  0999 V2000
  184.5340  178.0160  141.6710 C   0  0  0  0  0  2  0  0  0  0  0  0
  184.3290  178.4060  143.0620 N   0  0  0  0  0  2  0  0  0  0  0  0
  186.5820  176.8100  142.3730 C   0  0  0  0  0  2  0  0  0  0  0  0
  185.2650  177.9440  147.7980 O   0  0  0  0  0  1  0  0  0  0  0  0
  187.2140  176.7770  144.8510 C   0  0  0  0  0  0  0  0  0  0  0  0
  183.6910  178.9190  145.7370 O   0  0  0  0  0  1  0  0  0  0  0  0
  188.5030  176.0450  144.6100 C   0  0  0  0  0  0  0  0  0  0  0  0
  188.5570  175.3790  146.9090 C   0  0  0  0  0  0  0  0  0  0  0  0
  184.8390  178.1890  145.4430 C   0  0  0  0  0  0  0  0  0  0  0  0
  185.6370  177.7060  146.4780 C   0  0  0  0  0  0  0  0  0  0  0  0
  186.3580  177.2150  143.8060 C   0  0  0  0  0  0  0  0  0  0  0  0
  188.9860  174.5410  147.7430 O   0  0  0  0  0  0  0  0  0  0  0  0
  189.5070  176.6700  142.0060 C   0  0  0  0  0  2  0  0  0  0  0  0
  189.2130  176.1330  143.3730 N   0  0  0  0  0  0  0  0  0  0  0  0
  189.0640  175.3790  145.5740 N   0  0  0  0  0  0  0  0  0  0  0  0
  186.8030  176.9790  146.1940 C   0  0  0  0  0  0  0  0  0  0  0  0
  186.0190  177.8390  141.3980 C   0  0  0  0  0  2  0  0  0  0  0  0
  187.6080  176.4460  147.3460 C   0  0  0  0  0  2  0  0  0  0  0  0
  190.3580  175.7090  142.5120 C   0  0  1  0  0  3  0  0  0  0  0  0
  185.1770  177.9250  144.1150 C   0  0  0  0  0  0  0  0  0  0  0  0
  190.1270  174.3000  141.9260 C   0  0  1  0  0  3  0  0  0  0  0  0
  191.2020  173.7910  140.9670 C   0  0  0  0  0  1  0  0  0  0  0  0
  189.9420  173.3800  142.9600 O   0  0  0  0  0  0  0  0  0  0  0  0
  189.0960  172.4050  142.4260 C   0  0  0  0  0  2  0  0  0  0  0  0
  187.7870  173.0440  142.0130 C   0  0  0  0  0  1  0  0  0  0  0  0
  1  2  1  0  0  0  0
  2 20  1  0  0  0  0
  3 11  1  0  0  0  0
  5 16  1  0  0  0  0
  7  5  1  0  0  0  0
  7 15  2  0  0  0  0
  8 18  1  0  0  0  0
  8 12  2  0  0  0  0
  9  6  1  0  0  0  0
  9 10  1  0  0  0  0
 10  4  1  0  0  0  0
 11 20  1  0  0  0  0
 11  5  2  0  0  0  0
 13 19  1  0  0  0  0
 13 14  1  0  0  0  0
 14  7  1  0  0  0  0
 15  8  1  0  0  0  0
 16 10  2  0  0  0  0
 16 18  1  0  0  0  0
 17  1  1  0  0  0  0
 17  3  1  0  0  0  0
 19 21  1  6  0  0  0
 19 14  1  0  0  0  0
 20  9  2  0  0  0  0
 21 22  1  1  0  0  0
 21 23  1  0  0  0  0
 24 23  1  0  0  0  0
 25 24  1  0  0  0  0
M  END
>  <MODEL>
4

>  <REMARK>
 VINA RESULT:      -7.3      2.305      4.259
  Name = 
  3 active torsions:
  status: ('A' for Active; 'I' for Inactive)
    1  A    between atoms: C_4  and  O_5
    2  A    between atoms: C_4  and  C_24
    3  A    between atoms: O_5  and  C_9
                            x       y       z     vdW  Elec       q    Type
                         _______ _______ _______ _____ _____    ______ ____

>  <TORSDO>
F 3

$$$$
=
 OpenBabel11072409403D

 25 28  0  0  1  0  0  0  0  0999 V2000
  185.5480  179.7870  144.4780 C   0  0  0  0  0  2  0  0  0  0  0  0
  185.4120  179.2100  143.1460 N   0  0  0  0  0  2  0  0  0  0  0  0
  187.3060  178.1080  144.9600 C   0  0  0  0  0  2  0  0  0  0  0  0
  187.0240  176.4070  139.5310 O   0  0  0  0  0  1  0  0  0  0  0  0
  187.9830  176.4600  143.1260 C   0  0  0  0  0  0  0  0  0  0  0  0
  185.3190  178.3760  140.4780 O   0  0  0  0  0  1  0  0  0  0  0  0
  188.9260  175.7050  144.0190 C   0  0  0  0  0  0  0  0  0  0  0  0
  190.0370  174.8130  142.0970 C   0  0  0  0  0  0  0  0  0  0  0  0
  186.2160  177.7630  141.3460 C   0  0  0  0  0  0  0  0  0  0  0  0
  187.0680  176.7670  140.8750 C   0  0  0  0  0  0  0  0  0  0  0  0
  187.1590  177.5230  143.5810 C   0  0  0  0  0  0  0  0  0  0  0  0
  191.1030  174.3230  141.6400 O   0  0  0  0  0  0  0  0  0  0  0  0
  188.0320  175.8620  146.7310 C   0  0  0  0  0  2  0  0  0  0  0  0
  188.7530  175.6470  145.4370 N   0  0  0  0  0  0  0  0  0  0  0  0
  189.8830  174.9940  143.5040 N   0  0  0  0  0  0  0  0  0  0  0  0
  187.9690  176.1340  141.7450 C   0  0  0  0  0  0  0  0  0  0  0  0
  186.0010  178.7180  145.4610 C   0  0  0  0  0  2  0  0  0  0  0  0
  188.8940  175.0920  141.1790 C   0  0  0  0  0  2  0  0  0  0  0  0
  189.2440  175.2040  146.7770 C   0  0  1  0  0  3  0  0  0  0  0  0
  186.2760  178.1630  142.6830 C   0  0  0  0  0  0  0  0  0  0  0  0
  190.4150  176.0830  147.2640 C   0  0  1  0  0  3  0  0  0  0  0  0
  191.5320  175.3560  148.0120 C   0  0  0  0  0  1  0  0  0  0  0  0
  190.9520  176.7970  146.1910 O   0  0  0  0  0  0  0  0  0  0  0  0
  192.2300  176.2650  146.0090 C   0  0  0  0  0  2  0  0  0  0  0  0
  192.8180  176.7910  144.7170 C   0  0  0  0  0  1  0  0  0  0  0  0
  1 17  1  0  0  0  0
  2  1  1  0  0  0  0
  3 17  1  0  0  0  0
  4 10  1  0  0  0  0
  5 11  1  0  0  0  0
  5  7  1  0  0  0  0
  6  9  1  0  0  0  0
  7 14  1  0  0  0  0
  8 15  1  0  0  0  0
  9 20  1  0  0  0  0
 10  9  2  0  0  0  0
 10 16  1  0  0  0  0
 11  3  1  0  0  0  0
 12  8  2  0  0  0  0
 13 19  1  0  0  0  0
 14 13  1  0  0  0  0
 14 19  1  0  0  0  0
 15  7  2  0  0  0  0
 16  5  2  0  0  0  0
 18 16  1  0  0  0  0
 18  8  1  0  0  0  0
 19 21  1  1  0  0  0
 20  2  1  0  0  0  0
 20 11  2  0  0  0  0
 21 22  1  6  0  0  0
 23 21  1  0  0  0  0
 24 23  1  0  0  0  0
 25 24  1  0  0  0  0
M  END
>  <MODEL>
5

>  <REMARK>
 VINA RESULT:      -7.2      2.224      4.257
  Name = 
  3 active torsions:
  status: ('A' for Active; 'I' for Inactive)
    1  A    between atoms: C_4  and  O_5
    2  A    between atoms: C_4  and  C_24
    3  A    between atoms: O_5  and  C_9
                            x       y       z     vdW  Elec       q    Type
                         _______ _______ _______ _____ _____    ______ ____

>  <TORSDO>
F 3

$$$$
=
 OpenBabel11072409403D

 25 28  0  0  1  0  0  0  0  0999 V2000
  187.0640  178.3000  147.6540 C   0  0  0  0  0  2  0  0  0  0  0  0
  185.7990  178.4390  146.9420 N   0  0  0  0  0  2  0  0  0  0  0  0
  188.0880  177.4810  145.5510 C   0  0  0  0  0  2  0  0  0  0  0  0
  183.2180  178.6630  142.8430 O   0  0  0  0  0  1  0  0  0  0  0  0
  186.6530  177.3620  143.4370 C   0  0  0  0  0  0  0  0  0  0  0  0
  183.4320  179.0400  145.5790 O   0  0  0  0  0  1  0  0  0  0  0  0
  187.7420  176.7300  142.6190 C   0  0  0  0  0  0  0  0  0  0  0  0
  186.6350  177.4170  140.6110 C   0  0  0  0  0  0  0  0  0  0  0  0
  184.5050  178.5120  144.8690 C   0  0  0  0  0  0  0  0  0  0  0  0
  184.3970  178.3130  143.4950 C   0  0  0  0  0  0  0  0  0  0  0  0
  186.7770  177.6320  144.8260 C   0  0  0  0  0  0  0  0  0  0  0  0
  186.7620  177.6910  139.3890 O   0  0  0  0  0  0  0  0  0  0  0  0
  189.4540  175.1800  144.3060 C   0  0  0  0  0  2  0  0  0  0  0  0
  188.7720  175.9310  143.2040 N   0  0  0  0  0  0  0  0  0  0  0  0
  187.7170  176.8160  141.3230 N   0  0  0  0  0  0  0  0  0  0  0  0
  185.4690  177.7690  142.7710 C   0  0  0  0  0  0  0  0  0  0  0  0
  187.8860  177.1810  147.0330 C   0  0  0  0  0  2  0  0  0  0  0  0
  185.3160  177.6100  141.2830 C   0  0  0  0  0  2  0  0  0  0  0  0
  190.0320  175.1410  143.0540 C   0  0  1  0  0  3  0  0  0  0  0  0
  185.6940  178.2020  145.5320 C   0  0  0  0  0  0  0  0  0  0  0  0
  191.2580  176.0660  142.9030 C   0  0  1  0  0  3  0  0  0  0  0  0
  191.0060  177.5550  143.1380 C   0  0  0  0  0  1  0  0  0  0  0  0
  192.2910  175.6250  143.7330 O   0  0  0  0  0  0  0  0  0  0  0  0
  192.7250  176.7690  144.4050 C   0  0  0  0  0  2  0  0  0  0  0  0
  193.3630  176.3710  145.7190 C   0  0  0  0  0  1  0  0  0  0  0  0
  2  1  1  0  0  0  0
  3 17  1  0  0  0  0
  4 10  1  0  0  0  0
  5 11  1  0  0  0  0
  7 14  1  0  0  0  0
  7  5  1  0  0  0  0
  8 18  1  0  0  0  0
  8 15  1  0  0  0  0
  9 20  1  0  0  0  0
  9  6  1  0  0  0  0
 10  9  2  0  0  0  0
 11 20  2  0  0  0  0
 11  3  1  0  0  0  0
 12  8  2  0  0  0  0
 14 13  1  0  0  0  0
 15  7  2  0  0  0  0
 16  5  2  0  0  0  0
 16 10  1  0  0  0  0
 17  1  1  0  0  0  0
 18 16  1  0  0  0  0
 19 21  1  1  0  0  0
 19 14  1  0  0  0  0
 19 13  1  0  0  0  0
 20  2  1  0  0  0  0
 21 22  1  1  0  0  0
 21 23  1  0  0  0  0
 23 24  1  0  0  0  0
 24 25  1  0  0  0  0
M  END
>  <MODEL>
6

>  <REMARK>
 VINA RESULT:      -7.1      1.863      4.353
  Name = 
  3 active torsions:
  status: ('A' for Active; 'I' for Inactive)
    1  A    between atoms: C_4  and  O_5
    2  A    between atoms: C_4  and  C_24
    3  A    between atoms: O_5  and  C_9
                            x       y       z     vdW  Elec       q    Type
                         _______ _______ _______ _____ _____    ______ ____

>  <TORSDO>
F 3

$$$$
=
 OpenBabel11072409403D

 25 28  0  0  1  0  0  0  0  0999 V2000
  189.3230  174.0690  140.7870 C   0  0  0  0  0  2  0  0  0  0  0  0
  188.4100  175.0460  140.2040 N   0  0  0  0  0  2  0  0  0  0  0  0
  189.1570  175.2880  142.9390 C   0  0  0  0  0  2  0  0  0  0  0  0
  185.1600  178.6210  140.6220 O   0  0  0  0  0  1  0  0  0  0  0  0
  187.6280  177.3330  143.0910 C   0  0  0  0  0  0  0  0  0  0  0  0
  186.4210  176.6770  139.1040 O   0  0  0  0  0  1  0  0  0  0  0  0
  188.0350  177.6500  144.5010 C   0  0  0  0  0  0  0  0  0  0  0  0
  186.0490  178.9570  144.7820 C   0  0  0  0  0  0  0  0  0  0  0  0
  186.8020  176.8740  140.4270 C   0  0  0  0  0  0  0  0  0  0  0  0
  186.1750  177.8570  141.1900 C   0  0  0  0  0  0  0  0  0  0  0  0
  188.2120  176.2880  142.3270 C   0  0  0  0  0  0  0  0  0  0  0  0
  185.2180  179.4330  145.5990 O   0  0  0  0  0  0  0  0  0  0  0  0
  190.7130  176.7640  144.9660 C   0  0  0  0  0  2  0  0  0  0  0  0
  189.3100  177.2830  145.0300 N   0  0  0  0  0  0  0  0  0  0  0  0
  187.2580  178.3650  145.2580 N   0  0  0  0  0  0  0  0  0  0  0  0
  186.5600  178.0730  142.5230 C   0  0  0  0  0  0  0  0  0  0  0  0
  190.1240  174.7150  141.9070 C   0  0  0  0  0  2  0  0  0  0  0  0
  185.8260  179.1190  143.3150 C   0  0  0  0  0  2  0  0  0  0  0  0
  190.2570  177.2230  146.1850 C   0  0  1  0  0  3  0  0  0  0  0  0
  187.7950  176.0730  140.9940 C   0  0  0  0  0  0  0  0  0  0  0  0
  189.8690  176.1010  147.1700 C   0  0  1  0  0  3  0  0  0  0  0  0
  189.4770  174.7640  146.5400 C   0  0  0  0  0  1  0  0  0  0  0  0
  190.8960  175.9030  148.0950 O   0  0  0  0  0  0  0  0  0  0  0  0
  191.5850  177.1170  148.1320 C   0  0  0  0  0  2  0  0  0  0  0  0
  191.4300  177.7450  149.5010 C   0  0  0  0  0  1  0  0  0  0  0  0
  1 17  1  0  0  0  0
  2  1  1  0  0  0  0
  2 20  1  0  0  0  0
  4 10  1  0  0  0  0
  5  7  1  0  0  0  0
  6  9  1  0  0  0  0
  7 14  1  0  0  0  0
  7 15  2  0  0  0  0
  8 15  1  0  0  0  0
  8 12  2  0  0  0  0
  9 20  2  0  0  0  0
  9 10  1  0  0  0  0
 10 16  2  0  0  0  0
 11  3  1  0  0  0  0
 11  5  2  0  0  0  0
 13 14  1  0  0  0  0
 13 19  1  0  0  0  0
 14 19  1  0  0  0  0
 16  5  1  0  0  0  0
 16 18  1  0  0  0  0
 17  3  1  0  0  0  0
 18  8  1  0  0  0  0
 19 21  1  1  0  0  0
 20 11  1  0  0  0  0
 21 22  1  6  0  0  0
 21 23  1  0  0  0  0
 23 24  1  0  0  0  0
 24 25  1  0  0  0  0
M  END
>  <MODEL>
7

>  <REMARK>
 VINA RESULT:      -6.8      1.674      2.219
  Name = 
  3 active torsions:
  status: ('A' for Active; 'I' for Inactive)
    1  A    between atoms: C_4  and  O_5
    2  A    between atoms: C_4  and  C_24
    3  A    between atoms: O_5  and  C_9
                            x       y       z     vdW  Elec       q    Type
                         _______ _______ _______ _____ _____    ______ ____

>  <TORSDO>
F 3

$$$$
=
 OpenBabel11072409403D

 25 28  0  0  1  0  0  0  0  0999 V2000
  189.9730  175.3380  146.9790 C   0  0  0  0  0  2  0  0  0  0  0  0
  188.8300  176.2280  147.1540 N   0  0  0  0  0  2  0  0  0  0  0  0
  189.3560  175.1140  144.5890 C   0  0  0  0  0  2  0  0  0  0  0  0
  185.3260  179.0640  145.3670 O   0  0  0  0  0  1  0  0  0  0  0  0
  187.3470  176.4230  143.6980 C   0  0  0  0  0  0  0  0  0  0  0  0
  186.8650  178.1880  147.4970 O   0  0  0  0  0  1  0  0  0  0  0  0
  187.4340  175.8100  142.3300 C   0  0  0  0  0  0  0  0  0  0  0  0
  186.1450  177.6180  141.4370 C   0  0  0  0  0  0  0  0  0  0  0  0
  187.0440  177.6240  146.2390 C   0  0  0  0  0  0  0  0  0  0  0  0
  186.2650  178.0560  145.1670 C   0  0  0  0  0  0  0  0  0  0  0  0
  188.1820  176.0380  144.7810 C   0  0  0  0  0  0  0  0  0  0  0  0
  185.8580  178.2900  140.4120 O   0  0  0  0  0  0  0  0  0  0  0  0
  188.5510  173.1840  142.5080 C   0  0  0  0  0  2  0  0  0  0  0  0
  187.9940  174.5150  142.1070 N   0  0  0  0  0  0  0  0  0  0  0  0
  186.9040  176.4160  141.3110 N   0  0  0  0  0  0  0  0  0  0  0  0
  186.4280  177.4850  143.8960 C   0  0  0  0  0  0  0  0  0  0  0  0
  189.6880  174.3450  145.8630 C   0  0  0  0  0  2  0  0  0  0  0  0
  185.5900  178.0140  142.7650 C   0  0  0  0  0  2  0  0  0  0  0  0
  188.4060  173.4350  141.1590 C   0  0  1  0  0  3  0  0  0  0  0  0
  188.0170  176.6410  146.0470 C   0  0  0  0  0  0  0  0  0  0  0  0
  189.7260  173.7920  140.4440 C   0  0  1  0  0  3  0  0  0  0  0  0
  190.9290  174.0500  141.3510 C   0  0  0  0  0  1  0  0  0  0  0  0
  190.0430  172.8040  139.5090 O   0  0  0  0  0  0  0  0  0  0  0  0
  190.3700  173.5010  138.3450 C   0  0  0  0  0  2  0  0  0  0  0  0
  189.1260  173.6940  137.5050 C   0  0  0  0  0  1  0  0  0  0  0  0
  1  2  1  0  0  0  0
  3 11  1  0  0  0  0
  3 17  1  0  0  0  0
  5 16  2  0  0  0  0
  5 11  1  0  0  0  0
  7  5  1  0  0  0  0
  8 18  1  0  0  0  0
  9  6  1  0  0  0  0
 10  4  1  0  0  0  0
 10  9  2  0  0  0  0
 11 20  2  0  0  0  0
 12  8  2  0  0  0  0
 14  7  1  0  0  0  0
 14 13  1  0  0  0  0
 15  8  1  0  0  0  0
 15  7  2  0  0  0  0
 16 10  1  0  0  0  0
 17  1  1  0  0  0  0
 18 16  1  0  0  0  0
 19 21  1  6  0  0  0
 19 14  1  0  0  0  0
 19 13  1  0  0  0  0
 20  9  1  0  0  0  0
 20  2  1  0  0  0  0
 21 22  1  1  0  0  0
 23 21  1  0  0  0  0
 24 23  1  0  0  0  0
 25 24  1  0  0  0  0
M  END
>  <MODEL>
8

>  <REMARK>
 VINA RESULT:      -6.6      2.646      5.732
  Name = 
  3 active torsions:
  status: ('A' for Active; 'I' for Inactive)
    1  A    between atoms: C_4  and  O_5
    2  A    between atoms: C_4  and  C_24
    3  A    between atoms: O_5  and  C_9
                            x       y       z     vdW  Elec       q    Type
                         _______ _______ _______ _____ _____    ______ ____

>  <TORSDO>
F 3

$$$$
=
 OpenBabel11072409403D

 25 28  0  0  1  0  0  0  0  0999 V2000
  186.7290  178.0690  140.8550 C   0  0  0  0  0  2  0  0  0  0  0  0
  185.8750  178.2140  142.0290 N   0  0  0  0  0  2  0  0  0  0  0  0
  188.4900  177.1330  142.3260 C   0  0  0  0  0  2  0  0  0  0  0  0
  184.7840  177.2350  146.6510 O   0  0  0  0  0  1  0  0  0  0  0  0
  188.0000  176.8480  144.8200 C   0  0  0  0  0  0  0  0  0  0  0  0
  184.0680  178.2210  144.1640 O   0  0  0  0  0  1  0  0  0  0  0  0
  189.3920  176.3840  145.1380 C   0  0  0  0  0  0  0  0  0  0  0  0
  188.6050  175.4110  147.1780 C   0  0  0  0  0  0  0  0  0  0  0  0
  185.3570  177.7430  144.3710 C   0  0  0  0  0  0  0  0  0  0  0  0
  185.7230  177.2550  145.6240 C   0  0  0  0  0  0  0  0  0  0  0  0
  187.5980  177.2840  143.5300 C   0  0  0  0  0  0  0  0  0  0  0  0
  188.8060  174.5440  148.0680 O   0  0  0  0  0  0  0  0  0  0  0  0
  191.2480  177.5370  143.2930 C   0  0  0  0  0  2  0  0  0  0  0  0
  190.5230  176.7660  144.3530 N   0  0  0  0  0  0  0  0  0  0  0  0
  189.6180  175.6880  146.2120 N   0  0  0  0  0  0  0  0  0  0  0  0
  187.0250  176.7820  145.8480 C   0  0  0  0  0  0  0  0  0  0  0  0
  188.1900  178.1830  141.2620 C   0  0  0  0  0  2  0  0  0  0  0  0
  187.3570  176.2300  147.2070 C   0  0  0  0  0  2  0  0  0  0  0  0
  191.9870  176.6680  144.0700 C   0  0  1  0  0  3  0  0  0  0  0  0
  186.2760  177.7350  143.3200 C   0  0  0  0  0  0  0  0  0  0  0  0
  192.3340  175.3400  143.3640 C   0  0  1  0  0  3  0  0  0  0  0  0
  191.3130  174.8400  142.3430 C   0  0  0  0  0  1  0  0  0  0  0  0
  193.5930  175.4320  142.7670 O   0  0  0  0  0  0  0  0  0  0  0  0
  194.4930  175.0550  143.7660 C   0  0  0  0  0  2  0  0  0  0  0  0
  195.4860  176.1730  144.0000 C   0  0  0  0  0  1  0  0  0  0  0  0
  1 17  1  0  0  0  0
  1  2  1  0  0  0  0
  2 20  1  0  0  0  0
  3 11  1  0  0  0  0
  5  7  1  0  0  0  0
  5 16  1  0  0  0  0
  6  9  1  0  0  0  0
  7 15  2  0  0  0  0
  8 18  1  0  0  0  0
  8 12  2  0  0  0  0
  9 10  1  0  0  0  0
 10 16  2  0  0  0  0
 10  4  1  0  0  0  0
 11  5  2  0  0  0  0
 13 19  1  0  0  0  0
 13 14  1  0  0  0  0
 14  7  1  0  0  0  0
 15  8  1  0  0  0  0
 16 18  1  0  0  0  0
 17  3  1  0  0  0  0
 19 21  1  6  0  0  0
 19 14  1  0  0  0  0
 20 11  1  0  0  0  0
 20  9  2  0  0  0  0
 21 22  1  6  0  0  0
 23 21  1  0  0  0  0
 23 24  1  0  0  0  0
 24 25  1  0  0  0  0
M  END
>  <MODEL>
9

>  <REMARK>
 VINA RESULT:      -6.6      2.342      3.384
  Name = 
  3 active torsions:
  status: ('A' for Active; 'I' for Inactive)
    1  A    between atoms: C_4  and  O_5
    2  A    between atoms: C_4  and  C_24
    3  A    between atoms: O_5  and  C_9
                            x       y       z     vdW  Elec       q    Type
                         _______ _______ _______ _____ _____    ______ ____

>  <TORSDO>
F 3

$$$$
