=
 OpenBabel11062421193D

 51 56  0  0  1  0  0  0  0  0999 V2000
  191.9730  175.3480  144.2210 C   0  0  0  0  0  2  0  0  0  0  0  0
  191.4330  173.9460  144.0500 C   0  0  1  0  0  3  0  0  0  0  0  0
  188.9860  174.6880  147.2380 O   0  0  0  0  0  1  0  0  0  0  0  0
  190.2010  176.6610  146.6520 C   0  0  0  0  0  2  0  0  0  0  0  0
  191.5990  176.9080  146.1190 C   0  0  0  0  0  2  0  0  0  0  0  0
  191.2740  174.4930  146.4090 C   0  0  2  0  0  3  0  0  0  0  0  0
  190.2560  175.2740  147.2450 C   0  0  2  0  0  3  0  0  0  0  0  0
  192.1440  175.5420  145.7190 C   0  0  1  0  0  0  0  0  0  0  0  0
  190.6250  173.6700  145.2990 C   0  0  0  0  0  2  0  0  0  0  0  0
  191.0880  174.5130  141.4200 O   0  0  0  0  0  0  0  0  0  0  0  0
  190.3830  173.8330  142.5720 P   0  0  1  0  0  0  0  0  0  0  0  0
  190.1160  172.2060  142.1850 O   0  0  0  0  0  1  0  0  0  0  0  0
  188.7820  174.6450  142.8980 C   0  0  2  0  0  3  0  0  0  0  0  0
  187.7700  173.8370  142.4130 F   0  0  0  0  0  0  0  0  0  0  0  0
  188.7180  176.0330  142.2500 C   0  0  1  0  0  3  0  0  0  0  0  0
  187.7400  176.0890  141.1130 C   0  0  0  0  0  0  0  0  0  0  0  0
  187.9600  175.4640  140.0430 O   0  0  0  0  0  0  0  0  0  0  0  0
  186.5690  176.8180  141.2550 O   0  0  0  0  0  1  0  0  0  0  0  0
  188.4370  177.1440  143.2660 C   0  0  0  0  0  2  0  0  0  0  0  0
  187.8580  176.5990  144.5720 C   0  0  0  0  0  2  0  0  0  0  0  0
  184.6630  177.5330  146.4600 C   0  0  2  0  0  3  0  0  0  0  0  0
  185.9820  176.8000  146.3010 C   0  0  0  0  0  2  0  0  0  0  0  0
  186.4720  177.1530  144.8660 C   0  0  1  0  0  3  0  0  0  0  0  0
  185.3810  178.8550  146.5760 C   0  0  1  0  0  3  0  0  0  0  0  0
  185.2760  179.3140  145.2620 O   0  0  0  0  0  0  0  0  0  0  0  0
  184.2410  178.5960  147.3010 O   0  0  0  0  0  0  0  0  0  0  0  0
  186.3840  178.6980  144.6050 C   0  0  0  0  0  2  0  0  0  0  0  0
  194.1940  176.3310  146.6690 O   0  0  0  0  0  0  0  0  0  0  0  0
  193.5880  175.3750  146.1080 C   0  0  0  0  0  0  0  0  0  0  0  0
  194.2590  174.1710  145.8340 O   0  0  0  0  0  0  0  0  0  0  0  0
  196.6460  173.8800  145.9640 C   0  0  0  0  0  1  0  0  0  0  0  0
  195.5830  175.2910  144.3320 O   0  0  0  0  0  0  0  0  0  0  0  0
  195.2430  172.8540  144.0560 C   0  0  2  0  0  3  0  0  0  0  0  0
  195.0240  173.3320  142.6220 C   0  0  0  0  0  2  0  0  0  0  0  0
  196.5960  175.1860  143.3540 C   0  0  0  0  0  2  0  0  0  0  0  0
  196.1690  174.2540  142.2130 C   0  0  2  0  0  3  0  0  0  0  0  0
  195.4390  174.0620  145.0330 C   0  0  2  0  0  0  0  0  0  0  0  0
  195.8940  174.9870  140.9350 C   0  0  0  0  0  0  0  0  0  0  0  0
  197.5310  173.5960  139.6040 C   0  0  0  0  0  1  0  0  0  0  0  0
  196.5090  174.6330  139.6810 N   0  0  0  0  0  0  0  0  0  0  0  0
  195.0550  175.9230  140.9700 O   0  0  0  0  0  0  0  0  0  0  0  0
  197.0720  175.3320  137.3810 C   0  0  0  0  0  1  0  0  0  0  0  0
  195.9910  175.2300  138.4520 C   0  0  1  0  0  3  0  0  0  0  0  0
  192.3780  173.3440  137.1450 N   0  0  0  0  0  0  0  0  0  0  0  0
  193.7080  175.3090  137.4240 C   0  0  0  0  0  3  0  0  0  0  0  0
  193.3510  172.5720  137.7070 C   0  0  0  0  0  3  0  0  0  0  0  0
  192.5290  174.6920  137.0020 C   0  0  0  0  0  3  0  0  0  0  0  0
  194.5430  173.1560  138.1470 C   0  0  0  0  0  3  0  0  0  0  0  0
  194.7320  174.5390  137.9970 C   0  0  0  0  0  0  0  0  0  0  0  0
  196.3100  171.9510  144.0970 O   0  0  0  0  0  0  0  0  0  0  0  0
  195.7990  170.7700  143.5570 C   0  0  0  0  0  1  0  0  0  0  0  0
  1  8  1  0  0  0  0
  2 11  1  6  0  0  0
  2  1  1  0  0  0  0
  2  9  1  0  0  0  0
  4  7  1  0  0  0  0
  5  4  1  0  0  0  0
  6  9  1  6  0  0  0
  6  7  1  0  0  0  0
  7  3  1  6  0  0  0
  8 29  1  1  0  0  0
  8  5  1  0  0  0  0
  8  6  1  0  0  0  0
 11 10  2  6  0  0  0
 11 13  1  0  0  0  0
 12 11  1  0  0  0  0
 13 14  1  6  0  0  0
 15 13  1  0  0  0  0
 15 19  1  1  0  0  0
 16 18  1  0  0  0  0
 16 15  1  0  0  0  0
 17 16  2  0  0  0  0
 19 20  1  0  0  0  0
 21 22  1  1  0  0  0
 21 24  1  0  0  0  0
 21 26  1  0  0  0  0
 23 20  1  1  0  0  0
 23 22  1  0  0  0  0
 24 25  1  6  0  0  0
 24 26  1  0  0  0  0
 27 23  1  0  0  0  0
 27 25  1  0  0  0  0
 29 28  2  0  0  0  0
 30 29  1  0  0  0  0
 32 37  1  0  0  0  0
 33 50  1  6  0  0  0
 33 37  1  0  0  0  0
 34 33  1  0  0  0  0
 35 32  1  0  0  0  0
 36 38  1  6  0  0  0
 36 34  1  0  0  0  0
 36 35  1  0  0  0  0
 37 30  1  0  0  0  0
 37 31  1  1  0  0  0
 38 41  2  0  0  0  0
 39 40  1  0  0  0  0
 40 38  1  0  0  0  0
 43 42  1  6  0  0  0
 43 40  1  0  0  0  0
 44 46  1  0  0  0  0
 45 49  2  0  0  0  0
 46 48  2  0  0  0  0
 47 44  2  0  0  0  0
 47 45  1  0  0  0  0
 49 48  1  0  0  0  0
 49 43  1  0  0  0  0
 51 50  1  0  0  0  0
M  END
>  <MODEL>
1

>  <REMARK>
 VINA RESULT:      -7.2      0.000      0.000
  Name = 
  14 active torsions:
  status: ('A' for Active; 'I' for Inactive)
    1  A    between atoms: C_7  and  C_26
    2  A    between atoms: C_7  and  C_35
    3  A    between atoms: C_9  and  O_19
    4  A    between atoms: C_13  and  P_24
    5  A    between atoms: C_16  and  C_33
    6  A    between atoms: C_18  and  C_35
    7  A    between atoms: O_20  and  C_42
    8  A    between atoms: O_20  and  C_43
    9  A    between atoms: P_24  and  C_46
   10  A    between atoms: C_26  and  C_39
   11  A    between atoms: C_26  and  C_46
   12  A    between atoms: C_31  and  N_36
   13  A    between atoms: C_31  and  C_45
   14  A    between atoms: C_34  and  C_42
                            x       y       z     vdW  Elec       q    Type
                         _______ _______ _______ _____ _____    ______ ____

>  <TORSDO>
F 14

$$$$
=
 OpenBabel11062421193D

 51 56  0  0  1  0  0  0  0  0999 V2000
  193.7670  174.8510  140.4820 C   0  0  0  0  0  2  0  0  0  0  0  0
  194.8610  174.5030  141.4650 C   0  0  1  0  0  3  0  0  0  0  0  0
  197.4410  174.4230  138.2970 O   0  0  0  0  0  1  0  0  0  0  0  0
  195.2760  175.1430  137.5820 C   0  0  0  0  0  2  0  0  0  0  0  0
  193.8640  174.7810  138.0000 C   0  0  0  0  0  2  0  0  0  0  0  0
  195.4500  173.4780  139.3460 C   0  0  2  0  0  3  0  0  0  0  0  0
  196.1270  173.9970  138.0740 C   0  0  2  0  0  3  0  0  0  0  0  0
  194.0010  173.9570  139.2750 C   0  0  1  0  0  0  0  0  0  0  0  0
  196.0410  174.0750  140.6210 C   0  0  0  0  0  2  0  0  0  0  0  0
  196.1330  176.8910  141.6580 O   0  0  0  0  0  0  0  0  0  0  0  0
  195.2960  175.9420  142.4850 P   0  0  1  0  0  0  0  0  0  0  0  0
  193.8840  176.7330  142.9890 O   0  0  0  0  0  1  0  0  0  0  0  0
  196.2320  175.3910  143.9510 C   0  0  2  0  0  3  0  0  0  0  0  0
  197.5790  175.3770  143.6350 F   0  0  0  0  0  0  0  0  0  0  0  0
  195.7760  174.0030  144.4150 C   0  0  1  0  0  3  0  0  0  0  0  0
  196.9190  173.0410  144.5570 C   0  0  0  0  0  0  0  0  0  0  0  0
  197.3770  172.7490  145.6920 O   0  0  0  0  0  1  0  0  0  0  0  0
  197.4570  172.4490  143.4250 O   0  0  0  0  0  0  0  0  0  0  0  0
  194.9450  174.0570  145.7010 C   0  0  0  0  0  2  0  0  0  0  0  0
  194.7070  175.4900  146.1740 C   0  0  0  0  0  2  0  0  0  0  0  0
  190.9090  175.1050  146.4480 C   0  0  2  0  0  3  0  0  0  0  0  0
  192.3170  174.5760  146.2460 C   0  0  0  0  0  2  0  0  0  0  0  0
  193.2280  175.8400  146.2430 C   0  0  1  0  0  3  0  0  0  0  0  0
  191.2040  175.4120  147.8970 C   0  0  1  0  0  3  0  0  0  0  0  0
  191.5120  176.7700  147.8080 O   0  0  0  0  0  0  0  0  0  0  0  0
  189.9650  174.9660  147.5000 O   0  0  0  0  0  0  0  0  0  0  0  0
  192.8970  176.7760  147.4590 C   0  0  0  0  0  2  0  0  0  0  0  0
  192.7140  172.2450  138.2070 O   0  0  0  0  0  0  0  0  0  0  0  0
  193.0520  172.7890  139.2960 C   0  0  0  0  0  0  0  0  0  0  0  0
  192.5350  172.3200  140.5160 O   0  0  0  0  0  0  0  0  0  0  0  0
  190.3780  171.2550  140.4000 C   0  0  0  0  0  1  0  0  0  0  0  0
  190.6700  173.6410  140.3210 O   0  0  0  0  0  0  0  0  0  0  0  0
  191.1550  172.5530  142.4910 C   0  0  2  0  0  3  0  0  0  0  0  0
  190.8240  173.9700  142.9560 C   0  0  0  0  0  2  0  0  0  0  0  0
  189.4040  173.9700  140.8520 C   0  0  0  0  0  2  0  0  0  0  0  0
  189.5170  174.4240  142.3130 C   0  0  2  0  0  3  0  0  0  0  0  0
  191.1730  172.4580  140.9290 C   0  0  2  0  0  0  0  0  0  0  0  0
  189.2640  175.8900  142.4870 C   0  0  0  0  0  0  0  0  0  0  0  0
  186.7610  175.5950  142.6640 C   0  0  0  0  0  1  0  0  0  0  0  0
  187.9500  176.4380  142.7070 N   0  0  0  0  0  0  0  0  0  0  0  0
  190.2600  176.6570  142.4800 O   0  0  0  0  0  0  0  0  0  0  0  0
  187.0000  178.6420  142.1300 C   0  0  0  0  0  1  0  0  0  0  0  0
  187.8310  177.8340  143.1210 C   0  0  1  0  0  3  0  0  0  0  0  0
  186.4570  178.2020  147.1570 N   0  0  0  0  0  0  0  0  0  0  0  0
  186.2030  178.6740  144.8290 C   0  0  0  0  0  3  0  0  0  0  0  0
  187.5970  177.4930  146.9180 C   0  0  0  0  0  3  0  0  0  0  0  0
  185.7590  178.7950  146.1470 C   0  0  0  0  0  3  0  0  0  0  0  0
  188.0750  177.3560  145.6110 C   0  0  0  0  0  3  0  0  0  0  0  0
  187.3680  177.9430  144.5500 C   0  0  0  0  0  0  0  0  0  0  0  0
  190.2680  171.6430  143.0760 O   0  0  0  0  0  0  0  0  0  0  0  0
  190.2790  171.9560  144.4350 C   0  0  0  0  0  1  0  0  0  0  0  0
  1  2  1  0  0  0  0
  2 11  1  6  0  0  0
  4  5  1  0  0  0  0
  4  7  1  0  0  0  0
  5  8  1  0  0  0  0
  6  9  1  1  0  0  0
  7  3  1  1  0  0  0
  7  6  1  0  0  0  0
  8 29  1  6  0  0  0
  8  6  1  0  0  0  0
  8  1  1  0  0  0  0
  9  2  1  0  0  0  0
 11 10  2  6  0  0  0
 11 12  1  0  0  0  0
 11 13  1  0  0  0  0
 13 14  1  6  0  0  0
 13 15  1  0  0  0  0
 15 16  1  0  0  0  0
 15 19  1  1  0  0  0
 16 17  1  0  0  0  0
 18 16  2  0  0  0  0
 19 20  1  0  0  0  0
 21 22  1  1  0  0  0
 21 26  1  0  0  0  0
 21 24  1  0  0  0  0
 23 20  1  1  0  0  0
 23 22  1  0  0  0  0
 23 27  1  0  0  0  0
 24 26  1  1  0  0  0
 25 24  1  0  0  0  0
 27 25  1  0  0  0  0
 28 29  2  0  0  0  0
 29 30  1  0  0  0  0
 30 37  1  0  0  0  0
 32 35  1  0  0  0  0
 32 37  1  0  0  0  0
 33 34  1  0  0  0  0
 33 50  1  1  0  0  0
 35 36  1  0  0  0  0
 36 38  1  6  0  0  0
 36 34  1  0  0  0  0
 37 31  1  6  0  0  0
 37 33  1  0  0  0  0
 38 40  1  0  0  0  0
 39 40  1  0  0  0  0
 40 43  1  0  0  0  0
 41 38  2  0  0  0  0
 43 42  1  6  0  0  0
 43 49  1  0  0  0  0
 45 47  1  0  0  0  0
 46 44  1  0  0  0  0
 47 44  2  0  0  0  0
 48 46  2  0  0  0  0
 49 45  2  0  0  0  0
 49 48  1  0  0  0  0
 50 51  1  0  0  0  0
M  END
>  <MODEL>
2

>  <REMARK>
 VINA RESULT:      -7.1      3.182      8.465
  Name = 
  14 active torsions:
  status: ('A' for Active; 'I' for Inactive)
    1  A    between atoms: C_7  and  C_26
    2  A    between atoms: C_7  and  C_35
    3  A    between atoms: C_9  and  O_19
    4  A    between atoms: C_13  and  P_24
    5  A    between atoms: C_16  and  C_33
    6  A    between atoms: C_18  and  C_35
    7  A    between atoms: O_20  and  C_42
    8  A    between atoms: O_20  and  C_43
    9  A    between atoms: P_24  and  C_46
   10  A    between atoms: C_26  and  C_39
   11  A    between atoms: C_26  and  C_46
   12  A    between atoms: C_31  and  N_36
   13  A    between atoms: C_31  and  C_45
   14  A    between atoms: C_34  and  C_42
                            x       y       z     vdW  Elec       q    Type
                         _______ _______ _______ _____ _____    ______ ____

>  <TORSDO>
F 14

$$$$
=
 OpenBabel11062421193D

 51 56  0  0  1  0  0  0  0  0999 V2000
  189.2620  175.4940  144.2170 C   0  0  0  0  0  2  0  0  0  0  0  0
  189.5920  175.7480  142.7640 C   0  0  1  0  0  3  0  0  0  0  0  0
  190.6680  171.8140  142.5030 O   0  0  0  0  0  1  0  0  0  0  0  0
  189.7560  172.2800  144.6630 C   0  0  0  0  0  2  0  0  0  0  0  0
  189.8040  173.4870  145.5790 C   0  0  0  0  0  2  0  0  0  0  0  0
  191.0720  173.9880  143.5380 C   0  0  2  0  0  3  0  0  0  0  0  0
  190.9130  172.4750  143.7120 C   0  0  2  0  0  3  0  0  0  0  0  0
  190.3890  174.6230  144.7480 C   0  0  1  0  0  0  0  0  0  0  0  0
  190.3520  174.5240  142.3030 C   0  0  0  0  0  2  0  0  0  0  0  0
  188.1820  175.1260  140.5320 O   0  0  0  0  0  0  0  0  0  0  0  0
  188.0770  175.9650  141.7850 P   0  0  1  0  0  0  0  0  0  0  0  0
  186.7360  175.4580  142.6880 O   0  0  0  0  0  1  0  0  0  0  0  0
  187.8790  177.7250  141.3500 C   0  0  2  0  0  3  0  0  0  0  0  0
  188.6650  178.4820  142.2000 F   0  0  0  0  0  0  0  0  0  0  0  0
  186.4130  178.1620  141.4440 C   0  0  1  0  0  3  0  0  0  0  0  0
  185.6210  177.7800  140.2280 C   0  0  0  0  0  0  0  0  0  0  0  0
  184.3820  177.9900  140.1740 O   0  0  0  0  0  1  0  0  0  0  0  0
  186.2710  177.2140  139.1410 O   0  0  0  0  0  0  0  0  0  0  0  0
  185.7310  177.6580  142.7190 C   0  0  0  0  0  2  0  0  0  0  0  0
  185.0870  178.7920  143.5170 C   0  0  0  0  0  2  0  0  0  0  0  0
  185.4900  178.7360  147.3230 C   0  0  2  0  0  3  0  0  0  0  0  0
  184.6810  178.6620  146.0410 C   0  0  0  0  0  2  0  0  0  0  0  0
  185.7020  178.9480  144.9000 C   0  0  1  0  0  3  0  0  0  0  0  0
  186.1520  177.4150  147.0120 C   0  0  1  0  0  3  0  0  0  0  0  0
  187.3460  177.8600  146.4410 O   0  0  0  0  0  0  0  0  0  0  0  0
  185.8400  177.7710  148.3040 O   0  0  0  0  0  0  0  0  0  0  0  0
  186.9980  178.0800  145.0740 C   0  0  0  0  0  2  0  0  0  0  0  0
  191.0680  176.6420  145.8400 O   0  0  0  0  0  0  0  0  0  0  0  0
  191.3670  175.4530  145.5360 C   0  0  0  0  0  0  0  0  0  0  0  0
  192.6080  174.9120  145.9160 O   0  0  0  0  0  0  0  0  0  0  0  0
  194.4450  176.3580  146.4930 C   0  0  0  0  0  1  0  0  0  0  0  0
  193.6400  176.0940  144.2420 O   0  0  0  0  0  0  0  0  0  0  0  0
  194.7940  174.1370  145.2250 C   0  0  2  0  0  3  0  0  0  0  0  0
  195.0100  173.8710  143.7370 C   0  0  0  0  0  2  0  0  0  0  0  0
  194.8620  176.4020  143.6040 C   0  0  0  0  0  2  0  0  0  0  0  0
  195.5390  175.1350  143.0660 C   0  0  2  0  0  3  0  0  0  0  0  0
  193.8750  175.3840  145.4520 C   0  0  2  0  0  0  0  0  0  0  0  0
  195.5110  175.0520  141.5700 C   0  0  0  0  0  0  0  0  0  0  0  0
  197.9410  174.3780  141.4070 C   0  0  0  0  0  1  0  0  0  0  0  0
  196.6470  174.6390  140.7870 N   0  0  0  0  0  0  0  0  0  0  0  0
  194.4270  175.3190  140.9930 O   0  0  0  0  0  0  0  0  0  0  0  0
  197.4230  175.1280  138.4950 C   0  0  0  0  0  1  0  0  0  0  0  0
  196.4530  174.3410  139.3700 C   0  0  1  0  0  3  0  0  0  0  0  0
  196.5240  170.1330  138.5940 N   0  0  0  0  0  0  0  0  0  0  0  0
  197.4420  172.3160  138.2770 C   0  0  0  0  0  3  0  0  0  0  0  0
  195.5490  170.6300  139.4070 C   0  0  0  0  0  3  0  0  0  0  0  0
  197.4600  170.9430  138.0230 C   0  0  0  0  0  3  0  0  0  0  0  0
  195.4960  172.0010  139.6800 C   0  0  0  0  0  3  0  0  0  0  0  0
  196.4570  172.8560  139.1180 C   0  0  0  0  0  0  0  0  0  0  0  0
  196.0310  174.2550  145.8690 O   0  0  0  0  0  0  0  0  0  0  0  0
  196.5380  172.9570  145.9100 C   0  0  0  0  0  1  0  0  0  0  0  0
  1  8  1  0  0  0  0
  2 11  1  6  0  0  0
  2  1  1  0  0  0  0
  4  5  1  0  0  0  0
  6  9  1  6  0  0  0
  6  7  1  0  0  0  0
  6  8  1  0  0  0  0
  7  3  1  6  0  0  0
  7  4  1  0  0  0  0
  8 29  1  1  0  0  0
  8  5  1  0  0  0  0
  9  2  1  0  0  0  0
 11 10  2  6  0  0  0
 11 12  1  0  0  0  0
 13 15  1  0  0  0  0
 13 11  1  0  0  0  0
 13 14  1  1  0  0  0
 15 19  1  1  0  0  0
 16 15  1  0  0  0  0
 17 16  1  0  0  0  0
 18 16  2  0  0  0  0
 19 20  1  0  0  0  0
 21 22  1  6  0  0  0
 21 26  1  0  0  0  0
 23 20  1  6  0  0  0
 23 27  1  0  0  0  0
 23 22  1  0  0  0  0
 24 25  1  1  0  0  0
 24 21  1  0  0  0  0
 24 26  1  0  0  0  0
 27 25  1  0  0  0  0
 29 28  2  0  0  0  0
 29 30  1  0  0  0  0
 32 37  1  0  0  0  0
 33 37  1  0  0  0  0
 33 50  1  1  0  0  0
 34 33  1  0  0  0  0
 35 32  1  0  0  0  0
 36 38  1  6  0  0  0
 36 35  1  0  0  0  0
 36 34  1  0  0  0  0
 37 30  1  0  0  0  0
 37 31  1  1  0  0  0
 40 39  1  0  0  0  0
 40 38  1  0  0  0  0
 41 38  2  0  0  0  0
 43 42  1  6  0  0  0
 43 40  1  0  0  0  0
 44 46  1  0  0  0  0
 45 49  2  0  0  0  0
 46 48  2  0  0  0  0
 47 45  1  0  0  0  0
 47 44  2  0  0  0  0
 49 43  1  0  0  0  0
 49 48  1  0  0  0  0
 50 51  1  0  0  0  0
M  END
>  <MODEL>
3

>  <REMARK>
 VINA RESULT:      -7.0      2.119      3.120
  Name = 
  14 active torsions:
  status: ('A' for Active; 'I' for Inactive)
    1  A    between atoms: C_7  and  C_26
    2  A    between atoms: C_7  and  C_35
    3  A    between atoms: C_9  and  O_19
    4  A    between atoms: C_13  and  P_24
    5  A    between atoms: C_16  and  C_33
    6  A    between atoms: C_18  and  C_35
    7  A    between atoms: O_20  and  C_42
    8  A    between atoms: O_20  and  C_43
    9  A    between atoms: P_24  and  C_46
   10  A    between atoms: C_26  and  C_39
   11  A    between atoms: C_26  and  C_46
   12  A    between atoms: C_31  and  N_36
   13  A    between atoms: C_31  and  C_45
   14  A    between atoms: C_34  and  C_42
                            x       y       z     vdW  Elec       q    Type
                         _______ _______ _______ _____ _____    ______ ____

>  <TORSDO>
F 14

$$$$
=
 OpenBabel11062421193D

 51 56  0  0  1  0  0  0  0  0999 V2000
  195.2910  175.4800  145.1170 C   0  0  0  0  0  2  0  0  0  0  0  0
  193.9360  175.0230  144.6270 C   0  0  1  0  0  3  0  0  0  0  0  0
  195.2300  171.1840  145.1610 O   0  0  0  0  0  1  0  0  0  0  0  0
  196.8770  172.7280  145.9460 C   0  0  0  0  0  2  0  0  0  0  0  0
  197.3260  174.1010  145.4860 C   0  0  0  0  0  2  0  0  0  0  0  0
  195.5380  173.3100  144.0020 C   0  0  2  0  0  3  0  0  0  0  0  0
  196.1710  172.1340  144.7510 C   0  0  2  0  0  3  0  0  0  0  0  0
  196.3000  174.5550  144.4540 C   0  0  1  0  0  0  0  0  0  0  0  0
  194.0760  173.5380  144.3790 C   0  0  0  0  0  2  0  0  0  0  0  0
  192.5990  174.1740  146.8290 O   0  0  0  0  0  1  0  0  0  0  0  0
  192.6550  175.3450  145.8740 P   0  0  1  0  0  0  0  0  0  0  0  0
  193.0380  176.7530  146.7360 O   0  0  0  0  0  0  0  0  0  0  0  0
  191.0420  175.5630  145.0490 C   0  0  2  0  0  3  0  0  0  0  0  0
  191.0260  174.7940  143.9000 F   0  0  0  0  0  0  0  0  0  0  0  0
  190.7820  177.0360  144.7130 C   0  0  1  0  0  3  0  0  0  0  0  0
  190.8400  177.3050  143.2380 C   0  0  0  0  0  0  0  0  0  0  0  0
  189.7870  177.5100  142.5790 O   0  0  0  0  0  0  0  0  0  0  0  0
  192.0700  177.3560  142.6000 O   0  0  0  0  0  1  0  0  0  0  0  0
  189.4700  177.5520  145.3110 C   0  0  0  0  0  2  0  0  0  0  0  0
  188.4870  176.4210  145.6110 C   0  0  0  0  0  2  0  0  0  0  0  0
  184.8430  177.4250  146.2090 C   0  0  2  0  0  3  0  0  0  0  0  0
  186.1940  176.8920  146.6470 C   0  0  0  0  0  2  0  0  0  0  0  0
  187.0440  176.8220  145.3440 C   0  0  1  0  0  3  0  0  0  0  0  0
  185.4220  178.8050  146.0110 C   0  0  1  0  0  3  0  0  0  0  0  0
  185.6610  178.7830  144.6360 O   0  0  0  0  0  0  0  0  0  0  0  0
  184.1420  178.6290  146.4840 O   0  0  0  0  0  0  0  0  0  0  0  0
  186.9420  178.1620  144.5320 C   0  0  0  0  0  2  0  0  0  0  0  0
  197.1920  176.4760  143.3410 O   0  0  0  0  0  0  0  0  0  0  0  0
  196.9460  175.2390  143.2790 C   0  0  0  0  0  0  0  0  0  0  0  0
  197.2570  174.5080  142.1190 O   0  0  0  0  0  0  0  0  0  0  0  0
  197.1090  175.5440  139.9500 C   0  0  0  0  0  1  0  0  0  0  0  0
  195.1790  174.9690  141.2640 O   0  0  0  0  0  0  0  0  0  0  0  0
  196.4720  173.0730  140.3350 C   0  0  2  0  0  3  0  0  0  0  0  0
  195.1020  172.4200  140.5070 C   0  0  0  0  0  2  0  0  0  0  0  0
  194.2940  174.8040  140.1760 C   0  0  0  0  0  2  0  0  0  0  0  0
  194.0290  173.3180  139.8980 C   0  0  2  0  0  3  0  0  0  0  0  0
  196.4850  174.5260  140.9160 C   0  0  2  0  0  0  0  0  0  0  0  0
  192.6410  172.8960  140.2690 C   0  0  0  0  0  0  0  0  0  0  0  0
  192.0400  172.2470  137.9010 C   0  0  0  0  0  1  0  0  0  0  0  0
  191.7130  172.3360  139.3200 N   0  0  0  0  0  0  0  0  0  0  0  0
  192.3020  173.0050  141.4740 O   0  0  0  0  0  0  0  0  0  0  0  0
  190.7800  170.4690  140.6390 C   0  0  0  0  0  1  0  0  0  0  0  0
  190.4850  171.7200  139.8170 C   0  0  1  0  0  3  0  0  0  0  0  0
  187.9880  174.5280  141.8660 N   0  0  0  0  0  0  0  0  0  0  0  0
  189.1490  172.4400  141.8100 C   0  0  0  0  0  3  0  0  0  0  0  0
  188.4140  174.8300  140.6060 C   0  0  0  0  0  3  0  0  0  0  0  0
  188.3310  173.3570  142.4740 C   0  0  0  0  0  3  0  0  0  0  0  0
  189.2290  173.9340  139.9080 C   0  0  0  0  0  3  0  0  0  0  0  0
  189.6110  172.7280  140.5160 C   0  0  0  0  0  0  0  0  0  0  0  0
  196.8520  173.0270  138.9900 O   0  0  0  0  0  0  0  0  0  0  0  0
  197.2230  171.7010  138.7680 C   0  0  0  0  0  1  0  0  0  0  0  0
  2  1  1  0  0  0  0
  2 11  1  1  0  0  0
  5  4  1  0  0  0  0
  6  9  1  1  0  0  0
  6  8  1  0  0  0  0
  6  7  1  0  0  0  0
  7  3  1  1  0  0  0
  7  4  1  0  0  0  0
  8 29  1  6  0  0  0
  8  1  1  0  0  0  0
  8  5  1  0  0  0  0
  9  2  1  0  0  0  0
 11 12  2  1  0  0  0
 11 10  1  0  0  0  0
 13 14  1  6  0  0  0
 13 11  1  0  0  0  0
 15 13  1  0  0  0  0
 15 19  1  6  0  0  0
 16 15  1  0  0  0  0
 17 16  2  0  0  0  0
 18 16  1  0  0  0  0
 19 20  1  0  0  0  0
 21 26  1  0  0  0  0
 21 22  1  1  0  0  0
 23 20  1  1  0  0  0
 23 22  1  0  0  0  0
 24 25  1  6  0  0  0
 24 21  1  0  0  0  0
 24 26  1  0  0  0  0
 27 25  1  0  0  0  0
 27 23  1  0  0  0  0
 29 28  2  0  0  0  0
 30 29  1  0  0  0  0
 33 50  1  6  0  0  0
 33 34  1  0  0  0  0
 33 37  1  0  0  0  0
 35 32  1  0  0  0  0
 36 35  1  0  0  0  0
 36 38  1  1  0  0  0
 36 34  1  0  0  0  0
 37 31  1  6  0  0  0
 37 32  1  0  0  0  0
 37 30  1  0  0  0  0
 38 41  2  0  0  0  0
 39 40  1  0  0  0  0
 40 43  1  0  0  0  0
 40 38  1  0  0  0  0
 43 49  1  0  0  0  0
 43 42  1  1  0  0  0
 44 47  1  0  0  0  0
 45 47  2  0  0  0  0
 46 44  2  0  0  0  0
 48 49  2  0  0  0  0
 48 46  1  0  0  0  0
 49 45  1  0  0  0  0
 51 50  1  0  0  0  0
M  END
>  <MODEL>
4

>  <REMARK>
 VINA RESULT:      -6.8      2.292      4.816
  Name = 
  14 active torsions:
  status: ('A' for Active; 'I' for Inactive)
    1  A    between atoms: C_7  and  C_26
    2  A    between atoms: C_7  and  C_35
    3  A    between atoms: C_9  and  O_19
    4  A    between atoms: C_13  and  P_24
    5  A    between atoms: C_16  and  C_33
    6  A    between atoms: C_18  and  C_35
    7  A    between atoms: O_20  and  C_42
    8  A    between atoms: O_20  and  C_43
    9  A    between atoms: P_24  and  C_46
   10  A    between atoms: C_26  and  C_39
   11  A    between atoms: C_26  and  C_46
   12  A    between atoms: C_31  and  N_36
   13  A    between atoms: C_31  and  C_45
   14  A    between atoms: C_34  and  C_42
                            x       y       z     vdW  Elec       q    Type
                         _______ _______ _______ _____ _____    ______ ____

>  <TORSDO>
F 14

$$$$
=
 OpenBabel11062421193D

 51 56  0  0  1  0  0  0  0  0999 V2000
  192.5880  176.1560  142.6850 C   0  0  0  0  0  2  0  0  0  0  0  0
  191.6460  175.9130  143.8420 C   0  0  1  0  0  3  0  0  0  0  0  0
  194.9190  175.9620  146.2890 O   0  0  0  0  0  1  0  0  0  0  0  0
  195.5540  176.5010  144.0480 C   0  0  0  0  0  2  0  0  0  0  0  0
  195.0710  176.0420  142.6860 C   0  0  0  0  0  2  0  0  0  0  0  0
  193.7700  174.8910  144.4210 C   0  0  2  0  0  3  0  0  0  0  0  0
  195.0780  175.4330  145.0040 C   0  0  2  0  0  3  0  0  0  0  0  0
  193.7880  175.2570  142.9380 C   0  0  1  0  0  0  0  0  0  0  0  0
  192.5320  175.5570  145.0160 C   0  0  0  0  0  2  0  0  0  0  0  0
  191.5670  178.6140  144.0810 O   0  0  0  0  0  1  0  0  0  0  0  0
  190.6710  177.4020  144.2070 P   0  0  1  0  0  0  0  0  0  0  0  0
  189.3930  177.5320  143.1020 O   0  0  0  0  0  0  0  0  0  0  0  0
  189.9960  177.2900  145.8980 C   0  0  2  0  0  3  0  0  0  0  0  0
  190.9760  176.7830  146.7330 F   0  0  0  0  0  0  0  0  0  0  0  0
  188.7450  176.4060  145.9420 C   0  0  1  0  0  3  0  0  0  0  0  0
  189.0440  175.0110  146.4080 C   0  0  0  0  0  0  0  0  0  0  0  0
  188.9370  174.7010  147.6230 O   0  0  0  0  0  1  0  0  0  0  0  0
  189.4160  174.0480  145.4830 O   0  0  0  0  0  0  0  0  0  0  0  0
  187.6160  177.0270  146.7710 C   0  0  0  0  0  2  0  0  0  0  0  0
  186.2620  176.9290  146.0690 C   0  0  0  0  0  2  0  0  0  0  0  0
  185.7980  177.7360  142.3570 C   0  0  2  0  0  3  0  0  0  0  0  0
  185.9170  176.7890  143.5360 C   0  0  0  0  0  2  0  0  0  0  0  0
  186.2310  177.7010  144.7590 C   0  0  1  0  0  3  0  0  0  0  0  0
  184.4660  178.2360  142.8590 C   0  0  1  0  0  3  0  0  0  0  0  0
  184.8670  179.3960  143.5230 O   0  0  0  0  0  0  0  0  0  0  0  0
  184.7160  178.1000  141.5130 O   0  0  0  0  0  0  0  0  0  0  0  0
  185.2480  178.9240  144.8160 C   0  0  0  0  0  2  0  0  0  0  0  0
  194.2050  174.0350  140.9230 O   0  0  0  0  0  0  0  0  0  0  0  0
  193.7070  174.0210  142.0830 C   0  0  0  0  0  0  0  0  0  0  0  0
  193.0660  172.8670  142.5680 O   0  0  0  0  0  0  0  0  0  0  0  0
  191.4010  171.1560  142.8820 C   0  0  0  0  0  1  0  0  0  0  0  0
  192.4800  171.5670  140.7720 O   0  0  0  0  0  0  0  0  0  0  0  0
  190.9140  173.3170  141.5560 C   0  0  2  0  0  3  0  0  0  0  0  0
  190.8820  173.5670  140.0500 C   0  0  0  0  0  2  0  0  0  0  0  0
  191.4260  171.0890  139.9630 C   0  0  0  0  0  2  0  0  0  0  0  0
  190.6530  172.2480  139.3190 C   0  0  2  0  0  3  0  0  0  0  0  0
  191.9660  172.2180  141.9270 C   0  0  2  0  0  0  0  0  0  0  0  0
  190.8890  172.3540  137.8430 C   0  0  0  0  0  0  0  0  0  0  0  0
  188.8050  173.7310  137.4540 C   0  0  0  0  0  1  0  0  0  0  0  0
  190.0300  173.1080  136.9660 N   0  0  0  0  0  0  0  0  0  0  0  0
  191.9080  171.7880  137.3740 O   0  0  0  0  0  0  0  0  0  0  0  0
  189.3830  173.0530  134.5840 C   0  0  0  0  0  1  0  0  0  0  0  0
  190.4770  173.3680  135.5990 C   0  0  1  0  0  3  0  0  0  0  0  0
  192.0880  177.3090  135.1660 N   0  0  0  0  0  0  0  0  0  0  0  0
  190.4090  175.6870  134.6560 C   0  0  0  0  0  3  0  0  0  0  0  0
  192.7510  176.4160  135.9550 C   0  0  0  0  0  3  0  0  0  0  0  0
  190.9400  176.9710  134.5130 C   0  0  0  0  0  3  0  0  0  0  0  0
  192.2530  175.1190  136.1160 C   0  0  0  0  0  3  0  0  0  0  0  0
  191.0640  174.7490  135.4680 C   0  0  0  0  0  0  0  0  0  0  0  0
  189.6280  173.0070  142.0120 O   0  0  0  0  0  0  0  0  0  0  0  0
  188.9320  174.2150  141.9650 C   0  0  0  0  0  1  0  0  0  0  0  0
  1  8  1  0  0  0  0
  1  2  1  0  0  0  0
  2 11  1  1  0  0  0
  2  9  1  0  0  0  0
  4  7  1  0  0  0  0
  5  8  1  0  0  0  0
  5  4  1  0  0  0  0
  6  7  1  0  0  0  0
  6  9  1  1  0  0  0
  7  3  1  1  0  0  0
  8 29  1  6  0  0  0
  8  6  1  0  0  0  0
 10 11  1  0  0  0  0
 11 12  2  6  0  0  0
 11 13  1  0  0  0  0
 13 15  1  0  0  0  0
 13 14  1  1  0  0  0
 15 16  1  0  0  0  0
 15 19  1  1  0  0  0
 16 17  1  0  0  0  0
 18 16  2  0  0  0  0
 20 19  1  0  0  0  0
 21 24  1  0  0  0  0
 21 22  1  1  0  0  0
 22 23  1  0  0  0  0
 23 27  1  0  0  0  0
 23 20  1  1  0  0  0
 24 26  1  6  0  0  0
 24 25  1  0  0  0  0
 25 27  1  0  0  0  0
 26 21  1  0  0  0  0
 28 29  2  0  0  0  0
 29 30  1  0  0  0  0
 32 37  1  0  0  0  0
 33 37  1  0  0  0  0
 33 50  1  6  0  0  0
 34 33  1  0  0  0  0
 35 32  1  0  0  0  0
 36 38  1  6  0  0  0
 36 35  1  0  0  0  0
 36 34  1  0  0  0  0
 37 30  1  0  0  0  0
 37 31  1  1  0  0  0
 40 39  1  0  0  0  0
 40 38  1  0  0  0  0
 41 38  2  0  0  0  0
 43 42  1  6  0  0  0
 43 40  1  0  0  0  0
 44 46  1  0  0  0  0
 45 49  2  0  0  0  0
 46 48  2  0  0  0  0
 47 45  1  0  0  0  0
 47 44  2  0  0  0  0
 49 43  1  0  0  0  0
 49 48  1  0  0  0  0
 51 50  1  0  0  0  0
M  END
>  <MODEL>
5

>  <REMARK>
 VINA RESULT:      -6.7      2.686      5.215
  Name = 
  14 active torsions:
  status: ('A' for Active; 'I' for Inactive)
    1  A    between atoms: C_7  and  C_26
    2  A    between atoms: C_7  and  C_35
    3  A    between atoms: C_9  and  O_19
    4  A    between atoms: C_13  and  P_24
    5  A    between atoms: C_16  and  C_33
    6  A    between atoms: C_18  and  C_35
    7  A    between atoms: O_20  and  C_42
    8  A    between atoms: O_20  and  C_43
    9  A    between atoms: P_24  and  C_46
   10  A    between atoms: C_26  and  C_39
   11  A    between atoms: C_26  and  C_46
   12  A    between atoms: C_31  and  N_36
   13  A    between atoms: C_31  and  C_45
   14  A    between atoms: C_34  and  C_42
                            x       y       z     vdW  Elec       q    Type
                         _______ _______ _______ _____ _____    ______ ____

>  <TORSDO>
F 14

$$$$
=
 OpenBabel11062421193D

 51 56  0  0  1  0  0  0  0  0999 V2000
  194.6000  175.0800  144.4770 C   0  0  0  0  0  2  0  0  0  0  0  0
  193.5590  174.3500  143.6580 C   0  0  1  0  0  3  0  0  0  0  0  0
  195.4410  170.8720  144.6910 O   0  0  0  0  0  1  0  0  0  0  0  0
  196.4440  172.7230  145.8240 C   0  0  0  0  0  2  0  0  0  0  0  0
  196.7000  174.1670  145.4430 C   0  0  0  0  0  2  0  0  0  0  0  0
  195.5960  173.0330  143.5670 C   0  0  2  0  0  3  0  0  0  0  0  0
  196.2350  172.0100  144.5100 C   0  0  2  0  0  3  0  0  0  0  0  0
  195.9230  174.4050  144.1530 C   0  0  1  0  0  0  0  0  0  0  0  0
  194.0730  172.9330  143.5240 C   0  0  0  0  0  2  0  0  0  0  0  0
  191.4700  172.9420  144.6630 O   0  0  0  0  0  0  0  0  0  0  0  0
  191.9480  174.3670  144.4970 P   0  0  1  0  0  0  0  0  0  0  0  0
  192.1050  175.0870  146.0220 O   0  0  0  0  0  1  0  0  0  0  0  0
  190.7520  175.3200  143.5020 C   0  0  2  0  0  3  0  0  0  0  0  0
  191.4390  175.9750  142.4950 F   0  0  0  0  0  0  0  0  0  0  0  0
  189.9810  176.3240  144.3660 C   0  0  1  0  0  3  0  0  0  0  0  0
  189.8990  177.6820  143.7320 C   0  0  0  0  0  0  0  0  0  0  0  0
  190.7440  178.5730  144.0060 O   0  0  0  0  0  1  0  0  0  0  0  0
  188.8950  177.9460  142.8140 O   0  0  0  0  0  0  0  0  0  0  0  0
  188.5890  175.8170  144.7530 C   0  0  0  0  0  2  0  0  0  0  0  0
  188.1620  176.3030  146.1380 C   0  0  0  0  0  2  0  0  0  0  0  0
  185.1960  178.5340  145.2030 C   0  0  2  0  0  3  0  0  0  0  0  0
  186.0800  177.3110  145.0420 C   0  0  0  0  0  2  0  0  0  0  0  0
  187.2340  177.5060  146.0690 C   0  0  1  0  0  3  0  0  0  0  0  0
  184.6750  178.0160  146.5210 C   0  0  1  0  0  3  0  0  0  0  0  0
  185.4980  178.7130  147.4080 O   0  0  0  0  0  0  0  0  0  0  0  0
  183.8620  178.7120  145.6560 O   0  0  0  0  0  0  0  0  0  0  0  0
  186.6700  177.9010  147.4810 C   0  0  0  0  0  2  0  0  0  0  0  0
  196.8830  176.4620  143.3930 O   0  0  0  0  0  0  0  0  0  0  0  0
  196.7060  175.2320  143.1680 C   0  0  0  0  0  0  0  0  0  0  0  0
  197.2200  174.6410  142.0010 O   0  0  0  0  0  0  0  0  0  0  0  0
  197.5000  175.7500  139.8810 C   0  0  0  0  0  1  0  0  0  0  0  0
  195.3480  175.3380  140.8730 O   0  0  0  0  0  0  0  0  0  0  0  0
  196.5740  173.3470  140.0600 C   0  0  2  0  0  3  0  0  0  0  0  0
  195.1370  172.8350  140.0010 C   0  0  0  0  0  2  0  0  0  0  0  0
  194.6250  175.2980  139.6610 C   0  0  0  0  0  2  0  0  0  0  0  0
  194.2600  173.8560  139.2830 C   0  0  2  0  0  3  0  0  0  0  0  0
  196.6420  174.7740  140.7000 C   0  0  2  0  0  0  0  0  0  0  0  0
  192.7970  173.5690  139.4280 C   0  0  0  0  0  0  0  0  0  0  0  0
  192.7360  172.0530  137.4070 C   0  0  0  0  0  1  0  0  0  0  0  0
  192.0860  172.6650  138.5600 N   0  0  0  0  0  0  0  0  0  0  0  0
  192.1880  174.1180  140.3810 O   0  0  0  0  0  0  0  0  0  0  0  0
  189.8280  172.1440  137.7110 C   0  0  0  0  0  1  0  0  0  0  0  0
  190.7350  172.2510  138.9310 C   0  0  1  0  0  3  0  0  0  0  0  0
  190.8180  168.7970  141.4570 N   0  0  0  0  0  0  0  0  0  0  0  0
  190.7880  171.1710  141.1910 C   0  0  0  0  0  3  0  0  0  0  0  0
  190.8010  168.6170  140.1050 C   0  0  0  0  0  3  0  0  0  0  0  0
  190.8190  170.0420  142.0120 C   0  0  0  0  0  3  0  0  0  0  0  0
  190.7760  169.7240  139.2510 C   0  0  0  0  0  3  0  0  0  0  0  0
  190.7600  171.0170  139.7960 C   0  0  0  0  0  0  0  0  0  0  0  0
  197.1450  173.3020  138.7830 O   0  0  0  0  0  0  0  0  0  0  0  0
  197.2130  171.9440  138.4700 C   0  0  0  0  0  1  0  0  0  0  0  0
  2  1  1  0  0  0  0
  2 11  1  1  0  0  0
  5  4  1  0  0  0  0
  6  9  1  1  0  0  0
  6  8  1  0  0  0  0
  6  7  1  0  0  0  0
  7  3  1  1  0  0  0
  7  4  1  0  0  0  0
  8 29  1  6  0  0  0
  8  1  1  0  0  0  0
  8  5  1  0  0  0  0
  9  2  1  0  0  0  0
 11 10  2  1  0  0  0
 11 12  1  0  0  0  0
 13 14  1  6  0  0  0
 13 15  1  0  0  0  0
 13 11  1  0  0  0  0
 15 19  1  6  0  0  0
 16 17  1  0  0  0  0
 16 15  1  0  0  0  0
 18 16  2  0  0  0  0
 19 20  1  0  0  0  0
 21 22  1  6  0  0  0
 21 26  1  0  0  0  0
 21 24  1  0  0  0  0
 22 23  1  0  0  0  0
 23 20  1  1  0  0  0
 23 27  1  0  0  0  0
 24 26  1  1  0  0  0
 24 25  1  0  0  0  0
 25 27  1  0  0  0  0
 29 28  2  0  0  0  0
 30 29  1  0  0  0  0
 33 50  1  6  0  0  0
 33 37  1  0  0  0  0
 34 33  1  0  0  0  0
 35 32  1  0  0  0  0
 36 38  1  1  0  0  0
 36 35  1  0  0  0  0
 36 34  1  0  0  0  0
 37 31  1  6  0  0  0
 37 32  1  0  0  0  0
 37 30  1  0  0  0  0
 38 41  2  0  0  0  0
 39 40  1  0  0  0  0
 40 43  1  0  0  0  0
 40 38  1  0  0  0  0
 43 42  1  6  0  0  0
 43 49  1  0  0  0  0
 44 47  1  0  0  0  0
 45 47  2  0  0  0  0
 46 44  2  0  0  0  0
 48 49  2  0  0  0  0
 48 46  1  0  0  0  0
 49 45  1  0  0  0  0
 51 50  1  0  0  0  0
M  END
>  <MODEL>
6

>  <REMARK>
 VINA RESULT:      -6.7      2.523      4.624
  Name = 
  14 active torsions:
  status: ('A' for Active; 'I' for Inactive)
    1  A    between atoms: C_7  and  C_26
    2  A    between atoms: C_7  and  C_35
    3  A    between atoms: C_9  and  O_19
    4  A    between atoms: C_13  and  P_24
    5  A    between atoms: C_16  and  C_33
    6  A    between atoms: C_18  and  C_35
    7  A    between atoms: O_20  and  C_42
    8  A    between atoms: O_20  and  C_43
    9  A    between atoms: P_24  and  C_46
   10  A    between atoms: C_26  and  C_39
   11  A    between atoms: C_26  and  C_46
   12  A    between atoms: C_31  and  N_36
   13  A    between atoms: C_31  and  C_45
   14  A    between atoms: C_34  and  C_42
                            x       y       z     vdW  Elec       q    Type
                         _______ _______ _______ _____ _____    ______ ____

>  <TORSDO>
F 14

$$$$
=
 OpenBabel11062421193D

 51 56  0  0  1  0  0  0  0  0999 V2000
  189.3540  177.8100  144.8540 C   0  0  0  0  0  2  0  0  0  0  0  0
  188.4090  176.8750  144.1320 C   0  0  1  0  0  3  0  0  0  0  0  0
  189.3040  174.0680  146.9650 O   0  0  0  0  0  1  0  0  0  0  0  0
  190.3540  176.1480  147.5010 C   0  0  0  0  0  2  0  0  0  0  0  0
  190.9620  177.2580  146.6660 C   0  0  0  0  0  2  0  0  0  0  0  0
  190.1230  175.5040  145.1680 C   0  0  2  0  0  3  0  0  0  0  0  0
  190.3200  174.9510  146.5820 C   0  0  2  0  0  3  0  0  0  0  0  0
  190.5630  176.9660  145.2240 C   0  0  1  0  0  0  0  0  0  0  0  0
  188.6600  175.5080  144.7300 C   0  0  0  0  0  2  0  0  0  0  0  0
  186.1720  176.7350  145.6590 O   0  0  0  0  0  1  0  0  0  0  0  0
  186.6820  177.3770  144.3890 P   0  0  1  0  0  0  0  0  0  0  0  0
  186.5920  179.0620  144.5370 O   0  0  0  0  0  0  0  0  0  0  0  0
  185.6740  176.8430  142.9650 C   0  0  2  0  0  3  0  0  0  0  0  0
  186.2330  175.6940  142.4340 F   0  0  0  0  0  0  0  0  0  0  0  0
  185.5900  177.9400  141.8980 C   0  0  1  0  0  3  0  0  0  0  0  0
  186.6050  177.7590  140.8080 C   0  0  0  0  0  0  0  0  0  0  0  0
  186.2630  177.3390  139.6720 O   0  0  0  0  0  0  0  0  0  0  0  0
  187.9310  178.0850  141.0490 O   0  0  0  0  0  1  0  0  0  0  0  0
  184.1820  178.0840  141.3130 C   0  0  0  0  0  2  0  0  0  0  0  0
  183.1810  178.6130  142.3400 C   0  0  0  0  0  2  0  0  0  0  0  0
  179.9950  178.3530  140.2360 C   0  0  2  0  0  3  0  0  0  0  0  0
  181.3900  177.9200  140.6480 C   0  0  0  0  0  2  0  0  0  0  0  0
  181.8390  178.9620  141.7150 C   0  0  1  0  0  3  0  0  0  0  0  0
  179.4300  177.8760  141.5510 C   0  0  1  0  0  3  0  0  0  0  0  0
  179.4000  179.0760  142.2630 O   0  0  0  0  0  0  0  0  0  0  0  0
  178.7140  177.7580  140.3820 O   0  0  0  0  0  0  0  0  0  0  0  0
  180.7210  179.1790  142.7960 C   0  0  0  0  0  2  0  0  0  0  0  0
  191.4340  177.5690  143.0780 O   0  0  0  0  0  0  0  0  0  0  0  0
  191.6930  177.2190  144.2640 C   0  0  0  0  0  0  0  0  0  0  0  0
  193.0260  177.0500  144.6810 O   0  0  0  0  0  0  0  0  0  0  0  0
  195.3480  176.4140  144.6570 C   0  0  0  0  0  1  0  0  0  0  0  0
  193.9520  176.3560  142.7000 O   0  0  0  0  0  0  0  0  0  0  0  0
  193.4490  174.6780  144.4490 C   0  0  2  0  0  3  0  0  0  0  0  0
  192.8800  173.9780  143.2180 C   0  0  0  0  0  2  0  0  0  0  0  0
  194.6650  175.3380  142.0310 C   0  0  0  0  0  2  0  0  0  0  0  0
  193.9130  174.0020  142.0950 C   0  0  2  0  0  3  0  0  0  0  0  0
  193.9460  176.1220  144.1030 C   0  0  2  0  0  0  0  0  0  0  0  0
  193.3420  173.5920  140.7720 C   0  0  0  0  0  0  0  0  0  0  0  0
  193.3490  171.1340  141.3560 C   0  0  0  0  0  1  0  0  0  0  0  0
  193.0250  172.2250  140.4450 N   0  0  0  0  0  0  0  0  0  0  0  0
  193.0950  174.5000  139.9390 O   0  0  0  0  0  0  0  0  0  0  0  0
  192.3320  170.4880  138.8340 C   0  0  0  0  0  1  0  0  0  0  0  0
  192.2390  171.9540  139.2440 C   0  0  1  0  0  3  0  0  0  0  0  0
  188.2520  173.4750  139.5710 N   0  0  0  0  0  0  0  0  0  0  0  0
  190.3180  173.3100  138.3810 C   0  0  0  0  0  3  0  0  0  0  0  0
  188.7280  172.6700  140.5640 C   0  0  0  0  0  3  0  0  0  0  0  0
  189.0180  173.8070  138.4930 C   0  0  0  0  0  3  0  0  0  0  0  0
  190.0270  172.1580  140.4900 C   0  0  0  0  0  3  0  0  0  0  0  0
  190.8310  172.4710  139.3830 C   0  0  0  0  0  0  0  0  0  0  0  0
  194.4510  173.8880  145.0230 O   0  0  0  0  0  0  0  0  0  0  0  0
  193.8110  172.6970  145.3700 C   0  0  0  0  0  1  0  0  0  0  0  0
  1  8  1  0  0  0  0
  2 11  1  1  0  0  0
  2  9  1  0  0  0  0
  2  1  1  0  0  0  0
  5  4  1  0  0  0  0
  6  9  1  1  0  0  0
  6  8  1  0  0  0  0
  6  7  1  0  0  0  0
  7  3  1  1  0  0  0
  7  4  1  0  0  0  0
  8 29  1  6  0  0  0
  8  5  1  0  0  0  0
 11 12  2  1  0  0  0
 11 10  1  0  0  0  0
 13 14  1  6  0  0  0
 13 11  1  0  0  0  0
 15 19  1  6  0  0  0
 15 13  1  0  0  0  0
 16 18  1  0  0  0  0
 16 15  1  0  0  0  0
 17 16  2  0  0  0  0
 19 20  1  0  0  0  0
 21 26  1  0  0  0  0
 21 22  1  6  0  0  0
 21 24  1  0  0  0  0
 22 23  1  0  0  0  0
 23 20  1  1  0  0  0
 23 27  1  0  0  0  0
 24 26  1  6  0  0  0
 24 25  1  0  0  0  0
 25 27  1  0  0  0  0
 28 29  2  0  0  0  0
 29 30  1  0  0  0  0
 32 37  1  0  0  0  0
 33 50  1  6  0  0  0
 34 33  1  0  0  0  0
 35 36  1  0  0  0  0
 35 32  1  0  0  0  0
 36 38  1  6  0  0  0
 36 34  1  0  0  0  0
 37 33  1  0  0  0  0
 37 31  1  1  0  0  0
 37 30  1  0  0  0  0
 40 38  1  0  0  0  0
 40 39  1  0  0  0  0
 41 38  2  0  0  0  0
 43 42  1  1  0  0  0
 43 49  1  0  0  0  0
 43 40  1  0  0  0  0
 44 46  1  0  0  0  0
 45 47  1  0  0  0  0
 45 49  2  0  0  0  0
 47 44  2  0  0  0  0
 48 46  2  0  0  0  0
 49 48  1  0  0  0  0
 50 51  1  0  0  0  0
M  END
>  <MODEL>
7

>  <REMARK>
 VINA RESULT:      -6.6      3.451      4.514
  Name = 
  14 active torsions:
  status: ('A' for Active; 'I' for Inactive)
    1  A    between atoms: C_7  and  C_26
    2  A    between atoms: C_7  and  C_35
    3  A    between atoms: C_9  and  O_19
    4  A    between atoms: C_13  and  P_24
    5  A    between atoms: C_16  and  C_33
    6  A    between atoms: C_18  and  C_35
    7  A    between atoms: O_20  and  C_42
    8  A    between atoms: O_20  and  C_43
    9  A    between atoms: P_24  and  C_46
   10  A    between atoms: C_26  and  C_39
   11  A    between atoms: C_26  and  C_46
   12  A    between atoms: C_31  and  N_36
   13  A    between atoms: C_31  and  C_45
   14  A    between atoms: C_34  and  C_42
                            x       y       z     vdW  Elec       q    Type
                         _______ _______ _______ _____ _____    ______ ____

>  <TORSDO>
F 14

$$$$
=
 OpenBabel11062421193D

 51 56  0  0  1  0  0  0  0  0999 V2000
  190.4150  171.5880  140.2810 C   0  0  0  0  0  2  0  0  0  0  0  0
  190.3680  173.0330  139.8400 C   0  0  1  0  0  3  0  0  0  0  0  0
  189.6430  171.6710  136.0550 O   0  0  0  0  0  1  0  0  0  0  0  0
  189.6880  169.8450  137.5970 C   0  0  0  0  0  2  0  0  0  0  0  0
  190.4880  169.5560  138.8520 C   0  0  0  0  0  2  0  0  0  0  0  0
  191.1750  171.7350  137.9550 C   0  0  2  0  0  3  0  0  0  0  0  0
  190.4820  170.9040  136.8720 C   0  0  2  0  0  3  0  0  0  0  0  0
  191.2010  170.8560  139.2050 C   0  0  1  0  0  0  0  0  0  0  0  0
  190.3970  172.9940  138.3280 C   0  0  0  0  0  2  0  0  0  0  0  0
  188.2480  174.6340  139.2920 O   0  0  0  0  0  0  0  0  0  0  0  0
  188.8500  173.8400  140.4290 P   0  0  1  0  0  0  0  0  0  0  0  0
  187.7410  172.6660  140.9410 O   0  0  0  0  0  1  0  0  0  0  0  0
  189.2490  174.9420  141.8270 C   0  0  2  0  0  3  0  0  0  0  0  0
  190.6240  174.9940  141.9710 F   0  0  0  0  0  0  0  0  0  0  0  0
  188.5910  174.4590  143.1240 C   0  0  1  0  0  3  0  0  0  0  0  0
  189.4990  173.5810  143.9350 C   0  0  0  0  0  0  0  0  0  0  0  0
  189.9910  173.9900  145.0180 O   0  0  0  0  0  1  0  0  0  0  0  0
  189.7740  172.2950  143.4960 O   0  0  0  0  0  0  0  0  0  0  0  0
  188.0480  175.6130  143.9720 C   0  0  0  0  0  2  0  0  0  0  0  0
  187.0410  176.4700  143.2050 C   0  0  0  0  0  2  0  0  0  0  0  0
  184.8240  177.4490  146.1660 C   0  0  2  0  0  3  0  0  0  0  0  0
  186.1350  177.0200  145.5350 C   0  0  0  0  0  2  0  0  0  0  0  0
  185.8040  176.7900  144.0310 C   0  0  1  0  0  3  0  0  0  0  0  0
  184.9190  178.8030  145.5050 C   0  0  1  0  0  3  0  0  0  0  0  0
  184.1080  178.5950  144.3880 O   0  0  0  0  0  0  0  0  0  0  0  0
  184.3900  178.6600  146.7680 O   0  0  0  0  0  0  0  0  0  0  0  0
  184.9960  178.0000  143.4410 C   0  0  0  0  0  2  0  0  0  0  0  0
  192.8390  169.7890  140.5840 O   0  0  0  0  0  0  0  0  0  0  0  0
  192.6160  170.6180  139.6580 C   0  0  0  0  0  0  0  0  0  0  0  0
  193.6770  171.3260  139.0660 O   0  0  0  0  0  0  0  0  0  0  0  0
  195.9980  171.9460  139.2280 C   0  0  0  0  0  1  0  0  0  0  0  0
  194.5470  171.7790  141.1390 O   0  0  0  0  0  0  0  0  0  0  0  0
  194.0940  173.6530  139.5850 C   0  0  2  0  0  3  0  0  0  0  0  0
  193.4910  174.2060  140.8740 C   0  0  0  0  0  2  0  0  0  0  0  0
  195.2420  172.7100  141.9430 C   0  0  0  0  0  2  0  0  0  0  0  0
  194.4920  174.0470  142.0150 C   0  0  2  0  0  3  0  0  0  0  0  0
  194.5810  172.1770  139.7740 C   0  0  2  0  0  0  0  0  0  0  0  0
  193.8840  174.3010  143.3600 C   0  0  0  0  0  0  0  0  0  0  0  0
  195.2910  176.3580  143.7790 C   0  0  0  0  0  1  0  0  0  0  0  0
  194.2320  175.4360  144.1750 N   0  0  0  0  0  0  0  0  0  0  0  0
  193.0030  173.4990  143.7600 O   0  0  0  0  0  0  0  0  0  0  0  0
  194.2530  176.2670  146.5000 C   0  0  0  0  0  1  0  0  0  0  0  0
  193.4090  175.7410  145.3440 C   0  0  1  0  0  3  0  0  0  0  0  0
  190.1340  178.2590  144.2260 N   0  0  0  0  0  0  0  0  0  0  0  0
  192.1810  177.1540  143.6800 C   0  0  0  0  0  3  0  0  0  0  0  0
  190.1730  177.7640  145.4960 C   0  0  0  0  0  3  0  0  0  0  0  0
  191.1130  177.9780  143.3190 C   0  0  0  0  0  3  0  0  0  0  0  0
  191.2300  176.9400  145.8950 C   0  0  0  0  0  3  0  0  0  0  0  0
  192.2430  176.6210  144.9770 C   0  0  0  0  0  0  0  0  0  0  0  0
  195.1110  174.5020  139.1360 O   0  0  0  0  0  0  0  0  0  0  0  0
  194.6230  175.0460  137.9470 C   0  0  0  0  0  1  0  0  0  0  0  0
  2  1  1  0  0  0  0
  2 11  1  6  0  0  0
  4  5  1  0  0  0  0
  5  8  1  0  0  0  0
  6  9  1  1  0  0  0
  6  8  1  0  0  0  0
  7  3  1  1  0  0  0
  7  4  1  0  0  0  0
  7  6  1  0  0  0  0
  8 29  1  1  0  0  0
  8  1  1  0  0  0  0
  9  2  1  0  0  0  0
 11 10  2  6  0  0  0
 11 12  1  0  0  0  0
 11 13  1  0  0  0  0
 13 14  1  1  0  0  0
 13 15  1  0  0  0  0
 15 16  1  0  0  0  0
 15 19  1  1  0  0  0
 16 17  1  0  0  0  0
 18 16  2  0  0  0  0
 20 19  1  0  0  0  0
 21 22  1  1  0  0  0
 21 26  1  0  0  0  0
 23 20  1  6  0  0  0
 23 22  1  0  0  0  0
 24 25  1  6  0  0  0
 24 21  1  0  0  0  0
 24 26  1  0  0  0  0
 27 23  1  0  0  0  0
 27 25  1  0  0  0  0
 29 28  2  0  0  0  0
 30 29  1  0  0  0  0
 30 37  1  0  0  0  0
 32 35  1  0  0  0  0
 33 50  1  1  0  0  0
 33 37  1  0  0  0  0
 33 34  1  0  0  0  0
 34 36  1  0  0  0  0
 35 36  1  0  0  0  0
 36 38  1  1  0  0  0
 37 31  1  6  0  0  0
 37 32  1  0  0  0  0
 38 41  2  0  0  0  0
 38 40  1  0  0  0  0
 39 40  1  0  0  0  0
 40 43  1  0  0  0  0
 43 42  1  1  0  0  0
 44 46  1  0  0  0  0
 45 49  2  0  0  0  0
 46 48  2  0  0  0  0
 47 45  1  0  0  0  0
 47 44  2  0  0  0  0
 49 43  1  0  0  0  0
 49 48  1  0  0  0  0
 51 50  1  0  0  0  0
M  END
>  <MODEL>
8

>  <REMARK>
 VINA RESULT:      -6.5      2.816      6.208
  Name = 
  14 active torsions:
  status: ('A' for Active; 'I' for Inactive)
    1  A    between atoms: C_7  and  C_26
    2  A    between atoms: C_7  and  C_35
    3  A    between atoms: C_9  and  O_19
    4  A    between atoms: C_13  and  P_24
    5  A    between atoms: C_16  and  C_33
    6  A    between atoms: C_18  and  C_35
    7  A    between atoms: O_20  and  C_42
    8  A    between atoms: O_20  and  C_43
    9  A    between atoms: P_24  and  C_46
   10  A    between atoms: C_26  and  C_39
   11  A    between atoms: C_26  and  C_46
   12  A    between atoms: C_31  and  N_36
   13  A    between atoms: C_31  and  C_45
   14  A    between atoms: C_34  and  C_42
                            x       y       z     vdW  Elec       q    Type
                         _______ _______ _______ _____ _____    ______ ____

>  <TORSDO>
F 14

$$$$
=
 OpenBabel11062421193D

 51 56  0  0  1  0  0  0  0  0999 V2000
  192.6980  176.0860  143.2200 C   0  0  0  0  0  2  0  0  0  0  0  0
  191.5210  175.7110  144.0910 C   0  0  1  0  0  3  0  0  0  0  0  0
  193.7700  176.8300  147.3140 O   0  0  0  0  0  1  0  0  0  0  0  0
  194.9370  177.3120  145.2840 C   0  0  0  0  0  2  0  0  0  0  0  0
  195.0170  176.6230  143.9360 C   0  0  0  0  0  2  0  0  0  0  0  0
  193.5280  175.3330  145.4010 C   0  0  2  0  0  3  0  0  0  0  0  0
  194.4350  176.2470  146.2290 C   0  0  2  0  0  3  0  0  0  0  0  0
  193.9270  175.5570  143.9430 C   0  0  1  0  0  0  0  0  0  0  0  0
  192.0520  175.7050  145.5070 C   0  0  0  0  0  2  0  0  0  0  0  0
  190.3370  177.9830  144.9820 O   0  0  0  0  0  1  0  0  0  0  0  0
  190.1770  176.9210  143.9180 P   0  0  1  0  0  0  0  0  0  0  0  0
  190.2530  177.6440  142.3880 O   0  0  0  0  0  0  0  0  0  0  0  0
  188.5690  176.0780  144.1060 C   0  0  2  0  0  3  0  0  0  0  0  0
  188.7870  174.8290  144.6590 F   0  0  0  0  0  0  0  0  0  0  0  0
  187.8450  175.9510  142.7620 C   0  0  1  0  0  3  0  0  0  0  0  0
  188.2380  174.7120  142.0130 C   0  0  0  0  0  0  0  0  0  0  0  0
  189.2770  174.6910  141.3030 O   0  0  0  0  0  0  0  0  0  0  0  0
  187.4620  173.5690  142.1290 O   0  0  0  0  0  1  0  0  0  0  0  0
  186.3220  176.0420  142.9040 C   0  0  0  0  0  2  0  0  0  0  0  0
  185.8070  177.4670  142.7040 C   0  0  0  0  0  2  0  0  0  0  0  0
  184.6890  177.8230  146.3470 C   0  0  2  0  0  3  0  0  0  0  0  0
  185.2460  177.0490  145.1670 C   0  0  0  0  0  2  0  0  0  0  0  0
  185.1690  178.0350  143.9630 C   0  0  1  0  0  3  0  0  0  0  0  0
  185.9380  178.6680  146.4170 C   0  0  1  0  0  3  0  0  0  0  0  0
  185.5200  179.7940  145.7070 O   0  0  0  0  0  0  0  0  0  0  0  0
  185.2670  178.2910  147.5570 O   0  0  0  0  0  0  0  0  0  0  0  0
  185.7600  179.4380  144.3450 C   0  0  0  0  0  2  0  0  0  0  0  0
  194.6900  174.2520  142.0870 O   0  0  0  0  0  0  0  0  0  0  0  0
  194.3920  174.2710  143.3140 C   0  0  0  0  0  0  0  0  0  0  0  0
  194.4770  173.0980  144.0860 O   0  0  0  0  0  0  0  0  0  0  0  0
  193.9080  170.9340  144.9740 C   0  0  0  0  0  1  0  0  0  0  0  0
  194.6180  171.2740  142.7020 O   0  0  0  0  0  0  0  0  0  0  0  0
  192.3870  172.1690  143.2940 C   0  0  2  0  0  3  0  0  0  0  0  0
  192.2240  171.9840  141.7870 C   0  0  0  0  0  2  0  0  0  0  0  0
  193.9460  170.1570  142.1610 C   0  0  0  0  0  2  0  0  0  0  0  0
  192.6890  170.5860  141.3920 C   0  0  2  0  0  3  0  0  0  0  0  0
  193.8530  171.8570  143.7490 C   0  0  2  0  0  0  0  0  0  0  0  0
  192.8290  170.4190  139.9100 C   0  0  0  0  0  0  0  0  0  0  0  0
  190.4570  169.5960  139.6230 C   0  0  0  0  0  1  0  0  0  0  0  0
  191.7430  169.9960  139.0630 N   0  0  0  0  0  0  0  0  0  0  0  0
  193.9390  170.7050  139.3940 O   0  0  0  0  0  0  0  0  0  0  0  0
  191.6490  168.7750  136.9190 C   0  0  0  0  0  1  0  0  0  0  0  0
  191.8960  170.1100  137.6140 C   0  0  1  0  0  3  0  0  0  0  0  0
  189.5580  173.3070  135.9940 N   0  0  0  0  0  0  0  0  0  0  0  0
  190.1960  171.0050  136.0070 C   0  0  0  0  0  3  0  0  0  0  0  0
  190.4180  173.5810  137.0170 C   0  0  0  0  0  3  0  0  0  0  0  0
  189.4380  172.0510  135.4780 C   0  0  0  0  0  3  0  0  0  0  0  0
  191.1980  172.5590  137.5680 C   0  0  0  0  0  3  0  0  0  0  0  0
  191.0830  171.2530  137.0670 C   0  0  0  0  0  0  0  0  0  0  0  0
  191.4380  171.3960  143.9720 O   0  0  0  0  0  0  0  0  0  0  0  0
  190.2350  172.0850  143.8100 C   0  0  0  0  0  1  0  0  0  0  0  0
  1  8  1  0  0  0  0
  1  2  1  0  0  0  0
  2 11  1  1  0  0  0
  2  9  1  0  0  0  0
  4  7  1  0  0  0  0
  5  8  1  0  0  0  0
  5  4  1  0  0  0  0
  6  9  1  6  0  0  0
  6  7  1  0  0  0  0
  7  3  1  1  0  0  0
  8 29  1  6  0  0  0
  8  6  1  0  0  0  0
 11 12  2  6  0  0  0
 11 13  1  0  0  0  0
 11 10  1  0  0  0  0
 13 14  1  6  0  0  0
 15 19  1  1  0  0  0
 15 13  1  0  0  0  0
 16 18  1  0  0  0  0
 16 15  1  0  0  0  0
 17 16  2  0  0  0  0
 20 19  1  0  0  0  0
 21 22  1  1  0  0  0
 21 24  1  0  0  0  0
 21 26  1  0  0  0  0
 23 20  1  6  0  0  0
 23 27  1  0  0  0  0
 23 22  1  0  0  0  0
 24 25  1  6  0  0  0
 24 26  1  0  0  0  0
 27 25  1  0  0  0  0
 28 29  2  0  0  0  0
 29 30  1  0  0  0  0
 32 37  1  0  0  0  0
 33 37  1  0  0  0  0
 33 50  1  1  0  0  0
 34 33  1  0  0  0  0
 35 32  1  0  0  0  0
 36 38  1  6  0  0  0
 36 34  1  0  0  0  0
 36 35  1  0  0  0  0
 37 30  1  0  0  0  0
 37 31  1  1  0  0  0
 40 39  1  0  0  0  0
 40 38  1  0  0  0  0
 41 38  2  0  0  0  0
 43 42  1  6  0  0  0
 43 40  1  0  0  0  0
 44 46  1  0  0  0  0
 45 49  2  0  0  0  0
 46 48  2  0  0  0  0
 47 44  2  0  0  0  0
 47 45  1  0  0  0  0
 49 48  1  0  0  0  0
 49 43  1  0  0  0  0
 51 50  1  0  0  0  0
M  END
>  <MODEL>
9

>  <REMARK>
 VINA RESULT:      -6.5      2.669      4.085
  Name = 
  14 active torsions:
  status: ('A' for Active; 'I' for Inactive)
    1  A    between atoms: C_7  and  C_26
    2  A    between atoms: C_7  and  C_35
    3  A    between atoms: C_9  and  O_19
    4  A    between atoms: C_13  and  P_24
    5  A    between atoms: C_16  and  C_33
    6  A    between atoms: C_18  and  C_35
    7  A    between atoms: O_20  and  C_42
    8  A    between atoms: O_20  and  C_43
    9  A    between atoms: P_24  and  C_46
   10  A    between atoms: C_26  and  C_39
   11  A    between atoms: C_26  and  C_46
   12  A    between atoms: C_31  and  N_36
   13  A    between atoms: C_31  and  C_45
   14  A    between atoms: C_34  and  C_42
                            x       y       z     vdW  Elec       q    Type
                         _______ _______ _______ _____ _____    ______ ____

>  <TORSDO>
F 14

$$$$
