=
 OpenBabel11062421563D

 37 40  0  0  1  0  0  0  0  0999 V2000
  189.8210  176.7410  144.4870 C   0  0  1  0  0  3  0  0  0  0  0  0
  189.0820  175.5980  145.1570 C   0  0  1  0  0  3  0  0  0  0  0  0
  189.8440  175.3670  143.8420 C   0  0  2  0  0  3  0  0  0  0  0  0
  191.6350  173.8710  141.3190 C   0  0  0  0  0  0  0  0  0  0  0  0
  190.8760  173.0620  142.3280 C   0  0  0  0  0  2  0  0  0  0  0  0
  191.2670  174.8030  143.9400 C   0  0  2  0  0  3  0  0  0  0  0  0
  191.6360  173.3670  139.6470 Cl  0  0  0  0  0  0  0  0  0  0  0  0
  192.2030  175.5390  142.9770 C   0  0  2  0  0  3  0  0  0  0  0  0
  191.3150  173.3600  143.6860 N   0  0  0  0  0  2  0  0  0  0  0  0
  192.1550  175.0080  141.6290 N   0  0  0  0  0  0  0  0  0  0  0  0
  193.6380  175.5140  143.4980 C   0  0  0  0  0  2  0  0  0  0  0  0
  193.7270  176.2960  144.6600 O   0  0  0  0  0  0  0  0  0  0  0  0
  195.0740  176.2470  145.0290 C   0  0  0  0  0  2  0  0  0  0  0  0
  195.3370  175.0360  145.9100 C   0  0  0  0  0  2  0  0  0  0  0  0
  196.5620  174.2900  145.4750 C   0  0  0  0  0  0  0  0  0  0  0  0
  197.2080  174.6610  144.4290 N   0  0  0  0  0  2  0  0  0  0  0  0
  197.0260  173.1090  146.2710 C   0  0  0  0  0  2  0  0  0  0  0  0
  196.5460  170.6420  146.1660 C   0  0  0  0  0  1  0  0  0  0  0  0
  197.1110  171.8470  145.4190 C   0  0  0  0  0  2  0  0  0  0  0  0
  189.8170  175.1070  146.4010 C   0  0  0  0  0  3  0  0  0  0  0  0
  190.3710  176.1850  147.0870 O   0  0  0  0  0  1  0  0  0  0  0  0
  188.9250  174.4380  147.2400 O   0  0  0  0  0  1  0  0  0  0  0  0
  188.8620  177.6230  143.7000 C   0  0  0  0  0  2  0  0  0  0  0  0
  184.6300  177.1890  146.6030 C   0  0  0  0  0  2  0  0  0  0  0  0
  184.4490  178.2240  145.5320 C   0  0  0  0  0  3  0  0  0  0  0  0
  186.4550  177.3820  142.8540 N   0  0  0  0  0  0  0  0  0  0  0  0
  187.1800  177.8260  146.5540 C   0  0  0  0  0  2  0  0  0  0  0  0
  186.0840  178.7540  142.4660 C   0  0  0  0  0  2  0  0  0  0  0  0
  185.2260  179.4290  143.5580 C   0  0  0  0  0  2  0  0  0  0  0  0
  185.9800  177.2680  147.2640 C   0  0  0  0  0  0  0  0  0  0  0  0
  187.3760  177.3810  144.0240 C   0  0  2  0  0  3  0  0  0  0  0  0
  186.8980  178.3350  145.1350 C   0  0  1  0  0  3  0  0  0  0  0  0
  185.4810  178.7720  144.8780 C   0  0  0  0  0  0  0  0  0  0  0  0
  186.1100  176.8360  148.3980 O   0  0  0  0  0  0  0  0  0  0  0  0
  187.0250  176.6760  141.7050 C   0  0  0  0  0  2  0  0  0  0  0  0
  186.5160  176.9800  139.3940 O   0  0  0  0  0  1  0  0  0  0  0  0
  187.0880  177.6020  140.4980 C   0  0  0  0  0  2  0  0  0  0  0  0
  1 23  1  6  0  0  0
  1  2  1  0  0  0  0
  2 20  1  1  0  0  0
  3  6  1  1  0  0  0
  3  1  1  0  0  0  0
  3  2  1  0  0  0  0
  4 10  2  0  0  0  0
  4  5  1  0  0  0  0
  5  9  1  0  0  0  0
  6  9  1  6  0  0  0
  7  4  1  0  0  0  0
  8 11  1  1  0  0  0
  8  6  1  0  0  0  0
 10  8  1  0  0  0  0
 11 12  1  0  0  0  0
 12 13  1  0  0  0  0
 13 14  1  0  0  0  0
 15 14  1  0  0  0  0
 15 17  1  0  0  0  0
 16 15  2  0  0  0  0
 19 18  1  0  0  0  0
 19 17  1  0  0  0  0
 20 21  1  0  0  0  0
 20 22  1  0  0  0  0
 24 30  1  0  0  0  0
 25 24  1  0  0  0  0
 26 31  1  0  0  0  0
 27 30  1  0  0  0  0
 28 26  1  0  0  0  0
 28 29  1  0  0  0  0
 29 33  1  0  0  0  0
 30 34  2  0  0  0  0
 31 23  1  6  0  0  0
 31 32  1  0  0  0  0
 32 27  1  1  0  0  0
 33 32  1  0  0  0  0
 33 25  2  0  0  0  0
 35 26  1  0  0  0  0
 36 37  1  0  0  0  0
 37 35  1  0  0  0  0
M  END
>  <MODEL>
1

>  <REMARK>
 VINA RESULT:      -7.1      0.000      0.000
  Name = 
  13 active torsions:
  status: ('A' for Active; 'I' for Inactive)
    1  A    between atoms: C_3  and  C_21
    2  A    between atoms: C_3  and  O_37
    3  A    between atoms: C_5  and  C_23
    4  A    between atoms: C_6  and  C_29
    5  A    between atoms: C_6  and  C_34
    6  A    between atoms: N_9  and  C_18
    7  A    between atoms: C_10  and  C_34
    8  A    between atoms: C_10  and  O_37
    9  A    between atoms: C_11  and  C_24
   10  A    between atoms: C_15  and  C_36
   11  A    between atoms: C_16  and  C_18
   12  A    between atoms: C_24  and  C_28
   13  A    between atoms: C_29  and  C_30
                            x       y       z     vdW  Elec       q    Type
                         _______ _______ _______ _____ _____    ______ ____

>  <TORSDO>
F 13

$$$$
=
 OpenBabel11062421563D

 37 40  0  0  1  0  0  0  0  0999 V2000
  190.2460  176.8180  145.0610 C   0  0  1  0  0  3  0  0  0  0  0  0
  189.5620  175.5340  145.4950 C   0  0  1  0  0  3  0  0  0  0  0  0
  190.6560  175.5070  144.4150 C   0  0  2  0  0  3  0  0  0  0  0  0
  193.4180  175.1840  142.3960 C   0  0  0  0  0  0  0  0  0  0  0  0
  192.6260  173.9890  142.8370 C   0  0  0  0  0  2  0  0  0  0  0  0
  192.0830  175.1640  144.8630 C   0  0  2  0  0  3  0  0  0  0  0  0
  194.0330  175.2450  140.7630 Cl  0  0  0  0  0  0  0  0  0  0  0  0
  193.0430  176.3030  144.5090 C   0  0  2  0  0  3  0  0  0  0  0  0
  192.5600  173.9020  144.2910 N   0  0  0  0  0  2  0  0  0  0  0  0
  193.5250  176.2270  143.1440 N   0  0  0  0  0  0  0  0  0  0  0  0
  194.2230  176.3310  145.4780 C   0  0  0  0  0  2  0  0  0  0  0  0
  195.4150  176.1070  144.7710 O   0  0  0  0  0  0  0  0  0  0  0  0
  195.9280  174.9170  145.2930 C   0  0  0  0  0  2  0  0  0  0  0  0
  196.5020  174.0550  144.1800 C   0  0  0  0  0  2  0  0  0  0  0  0
  195.9910  172.6480  144.2510 C   0  0  0  0  0  0  0  0  0  0  0  0
  195.6920  172.0130  143.1750 N   0  0  0  0  0  2  0  0  0  0  0  0
  195.8360  171.9870  145.5870 C   0  0  0  0  0  2  0  0  0  0  0  0
  194.8320  169.7790  146.2510 C   0  0  0  0  0  1  0  0  0  0  0  0
  194.5560  171.1600  145.6650 C   0  0  0  0  0  2  0  0  0  0  0  0
  190.0330  175.0870  146.8750 C   0  0  0  0  0  3  0  0  0  0  0  0
  190.3980  176.1930  147.6390 O   0  0  0  0  0  1  0  0  0  0  0  0
  189.0050  174.4000  147.5230 O   0  0  0  0  0  1  0  0  0  0  0  0
  189.3820  177.5890  144.0720 C   0  0  0  0  0  2  0  0  0  0  0  0
  184.7700  177.1260  146.3190 C   0  0  0  0  0  2  0  0  0  0  0  0
  184.7120  178.0640  145.1490 C   0  0  0  0  0  3  0  0  0  0  0  0
  187.1520  177.1420  142.8900 N   0  0  0  0  0  0  0  0  0  0  0  0
  187.2630  177.9070  146.6080 C   0  0  0  0  0  2  0  0  0  0  0  0
  186.7830  178.4570  142.3360 C   0  0  0  0  0  2  0  0  0  0  0  0
  185.7340  179.1610  143.2230 C   0  0  0  0  0  2  0  0  0  0  0  0
  185.9930  177.3340  147.1690 C   0  0  0  0  0  0  0  0  0  0  0  0
  187.8760  177.2840  144.1840 C   0  0  2  0  0  3  0  0  0  0  0  0
  187.1850  178.2900  145.1250 C   0  0  1  0  0  3  0  0  0  0  0  0
  185.8070  178.6210  144.6180 C   0  0  0  0  0  0  0  0  0  0  0  0
  185.9630  176.9980  148.3420 O   0  0  0  0  0  0  0  0  0  0  0  0
  187.9280  176.3870  141.9060 C   0  0  0  0  0  2  0  0  0  0  0  0
  188.8570  174.2030  141.6610 O   0  0  0  0  0  1  0  0  0  0  0  0
  187.7440  174.8920  142.1280 C   0  0  0  0  0  2  0  0  0  0  0  0
  1 23  1  6  0  0  0
  1  2  1  0  0  0  0
  2 20  1  1  0  0  0
  3  6  1  1  0  0  0
  3  1  1  0  0  0  0
  3  2  1  0  0  0  0
  4  5  1  0  0  0  0
  4 10  2  0  0  0  0
  5  9  1  0  0  0  0
  6  9  1  6  0  0  0
  7  4  1  0  0  0  0
  8  6  1  0  0  0  0
  8 11  1  1  0  0  0
 10  8  1  0  0  0  0
 12 13  1  0  0  0  0
 12 11  1  0  0  0  0
 14 15  1  0  0  0  0
 14 13  1  0  0  0  0
 15 17  1  0  0  0  0
 16 15  2  0  0  0  0
 17 19  1  0  0  0  0
 19 18  1  0  0  0  0
 20 22  1  0  0  0  0
 20 21  1  0  0  0  0
 24 30  1  0  0  0  0
 25 24  1  0  0  0  0
 26 31  1  0  0  0  0
 27 30  1  0  0  0  0
 28 26  1  0  0  0  0
 28 29  1  0  0  0  0
 29 33  1  0  0  0  0
 30 34  2  0  0  0  0
 31 23  1  6  0  0  0
 31 32  1  0  0  0  0
 32 27  1  1  0  0  0
 33 32  1  0  0  0  0
 33 25  2  0  0  0  0
 35 37  1  0  0  0  0
 35 26  1  0  0  0  0
 36 37  1  0  0  0  0
M  END
>  <MODEL>
2

>  <REMARK>
 VINA RESULT:      -7.0      1.515      1.756
  Name = 
  13 active torsions:
  status: ('A' for Active; 'I' for Inactive)
    1  A    between atoms: C_3  and  C_21
    2  A    between atoms: C_3  and  O_37
    3  A    between atoms: C_5  and  C_23
    4  A    between atoms: C_6  and  C_29
    5  A    between atoms: C_6  and  C_34
    6  A    between atoms: N_9  and  C_18
    7  A    between atoms: C_10  and  C_34
    8  A    between atoms: C_10  and  O_37
    9  A    between atoms: C_11  and  C_24
   10  A    between atoms: C_15  and  C_36
   11  A    between atoms: C_16  and  C_18
   12  A    between atoms: C_24  and  C_28
   13  A    between atoms: C_29  and  C_30
                            x       y       z     vdW  Elec       q    Type
                         _______ _______ _______ _____ _____    ______ ____

>  <TORSDO>
F 13

$$$$
=
 OpenBabel11062421563D

 37 40  0  0  1  0  0  0  0  0999 V2000
  189.6750  176.2680  144.3430 C   0  0  1  0  0  3  0  0  0  0  0  0
  188.8860  175.4970  145.3850 C   0  0  1  0  0  3  0  0  0  0  0  0
  188.9690  174.9880  143.9370 C   0  0  2  0  0  3  0  0  0  0  0  0
  189.1530  173.0580  141.1000 C   0  0  0  0  0  0  0  0  0  0  0  0
  188.5160  172.5440  142.3570 C   0  0  0  0  0  2  0  0  0  0  0  0
  190.0270  173.9220  143.6210 C   0  0  2  0  0  3  0  0  0  0  0  0
  188.4270  172.6770  139.5580 Cl  0  0  0  0  0  0  0  0  0  0  0  0
  190.8060  174.2990  142.3580 C   0  0  2  0  0  3  0  0  0  0  0  0
  189.4470  172.5840  143.4790 N   0  0  0  0  0  2  0  0  0  0  0  0
  190.1310  173.8950  141.1400 N   0  0  0  0  0  0  0  0  0  0  0  0
  192.2120  173.7050  142.3970 C   0  0  0  0  0  2  0  0  0  0  0  0
  192.5860  173.4780  143.7310 O   0  0  0  0  0  0  0  0  0  0  0  0
  193.9780  173.6010  143.7430 C   0  0  0  0  0  2  0  0  0  0  0  0
  194.4410  174.4770  142.5900 C   0  0  0  0  0  2  0  0  0  0  0  0
  195.3090  175.6040  143.0640 C   0  0  0  0  0  0  0  0  0  0  0  0
  195.7600  176.4680  142.2280 N   0  0  0  0  0  2  0  0  0  0  0  0
  195.6430  175.7140  144.5200 C   0  0  0  0  0  2  0  0  0  0  0  0
  194.1960  176.3450  146.4780 C   0  0  0  0  0  1  0  0  0  0  0  0
  194.8650  176.8370  145.1980 C   0  0  0  0  0  2  0  0  0  0  0  0
  189.8070  174.7670  146.3590 C   0  0  0  0  0  3  0  0  0  0  0  0
  190.8280  175.6160  146.7810 O   0  0  0  0  0  1  0  0  0  0  0  0
  189.0750  174.3410  147.4680 O   0  0  0  0  0  1  0  0  0  0  0  0
  188.8710  177.4470  143.8140 C   0  0  0  0  0  2  0  0  0  0  0  0
  184.5400  177.4350  146.6010 C   0  0  0  0  0  2  0  0  0  0  0  0
  184.4930  178.4850  145.5300 C   0  0  0  0  0  3  0  0  0  0  0  0
  186.4760  177.4510  142.9020 N   0  0  0  0  0  0  0  0  0  0  0  0
  187.1420  177.8120  146.6230 C   0  0  0  0  0  2  0  0  0  0  0  0
  186.2550  178.8540  142.5110 C   0  0  0  0  0  2  0  0  0  0  0  0
  185.4400  179.6100  143.5830 C   0  0  0  0  0  2  0  0  0  0  0  0
  185.8720  177.3760  147.2980 C   0  0  0  0  0  0  0  0  0  0  0  0
  187.3600  177.3550  144.0970 C   0  0  2  0  0  3  0  0  0  0  0  0
  186.9510  178.3500  145.2000 C   0  0  1  0  0  3  0  0  0  0  0  0
  185.5920  178.9280  144.9070 C   0  0  0  0  0  0  0  0  0  0  0  0
  185.9280  176.9310  148.4330 O   0  0  0  0  0  0  0  0  0  0  0  0
  187.0030  176.6940  141.7660 C   0  0  0  0  0  2  0  0  0  0  0  0
  186.6030  177.0440  139.4400 O   0  0  0  0  0  1  0  0  0  0  0  0
  187.1890  177.6120  140.5650 C   0  0  0  0  0  2  0  0  0  0  0  0
  1 23  1  6  0  0  0
  1  2  1  0  0  0  0
  2 20  1  1  0  0  0
  3  6  1  1  0  0  0
  3  1  1  0  0  0  0
  3  2  1  0  0  0  0
  4 10  2  0  0  0  0
  4  5  1  0  0  0  0
  5  9  1  0  0  0  0
  6  9  1  6  0  0  0
  7  4  1  0  0  0  0
  8 11  1  1  0  0  0
  8  6  1  0  0  0  0
 10  8  1  0  0  0  0
 11 12  1  0  0  0  0
 12 13  1  0  0  0  0
 14 15  1  0  0  0  0
 14 13  1  0  0  0  0
 15 17  1  0  0  0  0
 16 15  2  0  0  0  0
 17 19  1  0  0  0  0
 19 18  1  0  0  0  0
 20 21  1  0  0  0  0
 20 22  1  0  0  0  0
 24 30  1  0  0  0  0
 25 24  1  0  0  0  0
 26 31  1  0  0  0  0
 27 30  1  0  0  0  0
 28 26  1  0  0  0  0
 28 29  1  0  0  0  0
 29 33  1  0  0  0  0
 30 34  2  0  0  0  0
 31 23  1  6  0  0  0
 31 32  1  0  0  0  0
 32 27  1  1  0  0  0
 33 32  1  0  0  0  0
 33 25  2  0  0  0  0
 35 26  1  0  0  0  0
 36 37  1  0  0  0  0
 37 35  1  0  0  0  0
M  END
>  <MODEL>
3

>  <REMARK>
 VINA RESULT:      -6.9      1.728      2.205
  Name = 
  13 active torsions:
  status: ('A' for Active; 'I' for Inactive)
    1  A    between atoms: C_3  and  C_21
    2  A    between atoms: C_3  and  O_37
    3  A    between atoms: C_5  and  C_23
    4  A    between atoms: C_6  and  C_29
    5  A    between atoms: C_6  and  C_34
    6  A    between atoms: N_9  and  C_18
    7  A    between atoms: C_10  and  C_34
    8  A    between atoms: C_10  and  O_37
    9  A    between atoms: C_11  and  C_24
   10  A    between atoms: C_15  and  C_36
   11  A    between atoms: C_16  and  C_18
   12  A    between atoms: C_24  and  C_28
   13  A    between atoms: C_29  and  C_30
                            x       y       z     vdW  Elec       q    Type
                         _______ _______ _______ _____ _____    ______ ____

>  <TORSDO>
F 13

$$$$
=
 OpenBabel11062421563D

 37 40  0  0  1  0  0  0  0  0999 V2000
  190.8580  173.7650  143.8560 C   0  0  1  0  0  3  0  0  0  0  0  0
  189.5140  173.1560  143.5000 C   0  0  1  0  0  3  0  0  0  0  0  0
  189.6640  174.0340  144.7530 C   0  0  2  0  0  3  0  0  0  0  0  0
  190.5090  176.5590  146.9250 C   0  0  0  0  0  0  0  0  0  0  0  0
  189.1810  175.8680  147.0050 C   0  0  0  0  0  2  0  0  0  0  0  0
  189.2810  175.5140  144.6300 C   0  0  2  0  0  3  0  0  0  0  0  0
  191.3430  176.9820  148.4000 Cl  0  0  0  0  0  0  0  0  0  0  0  0
  190.5350  176.3840  144.5120 C   0  0  2  0  0  3  0  0  0  0  0  0
  188.4510  175.9720  145.7480 N   0  0  0  0  0  2  0  0  0  0  0  0
  191.1160  176.7100  145.7990 N   0  0  0  0  0  0  0  0  0  0  0  0
  190.2300  177.6640  143.7370 C   0  0  0  0  0  2  0  0  0  0  0  0
  189.9610  177.3460  142.3970 O   0  0  0  0  0  0  0  0  0  0  0  0
  188.8800  178.1580  142.0420 C   0  0  0  0  0  2  0  0  0  0  0  0
  187.6720  177.3050  141.6890 C   0  0  0  0  0  2  0  0  0  0  0  0
  186.6070  177.3920  142.7400 C   0  0  0  0  0  0  0  0  0  0  0  0
  186.0060  176.3310  143.1430 N   0  0  0  0  0  2  0  0  0  0  0  0
  186.2500  178.7280  143.3170 C   0  0  0  0  0  2  0  0  0  0  0  0
  185.2770  179.0230  145.6170 C   0  0  0  0  0  1  0  0  0  0  0  0
  184.9830  178.6610  144.1650 C   0  0  0  0  0  2  0  0  0  0  0  0
  188.8730  173.8670  142.3110 C   0  0  0  0  0  3  0  0  0  0  0  0
  189.8360  174.1420  141.3420 O   0  0  0  0  0  1  0  0  0  0  0  0
  187.8820  173.0560  141.7570 O   0  0  0  0  0  1  0  0  0  0  0  0
  191.7530  172.7440  144.5440 C   0  0  0  0  0  2  0  0  0  0  0  0
  196.4340  174.8920  144.5480 C   0  0  0  0  0  2  0  0  0  0  0  0
  196.4780  173.4940  145.0920 C   0  0  0  0  0  3  0  0  0  0  0  0
  193.9130  171.6860  143.6590 N   0  0  0  0  0  0  0  0  0  0  0  0
  193.9860  175.0060  145.4990 C   0  0  0  0  0  2  0  0  0  0  0  0
  194.3080  170.7540  144.7300 C   0  0  0  0  0  2  0  0  0  0  0  0
  195.4190  171.3590  145.6140 C   0  0  0  0  0  2  0  0  0  0  0  0
  195.2560  175.6760  145.0580 C   0  0  0  0  0  0  0  0  0  0  0  0
  193.2500  172.8980  144.2140 C   0  0  2  0  0  3  0  0  0  0  0  0
  194.0170  173.4750  145.4190 C   0  0  1  0  0  3  0  0  0  0  0  0
  195.3840  172.8530  145.5180 C   0  0  0  0  0  0  0  0  0  0  0  0
  195.3230  176.8950  145.0850 O   0  0  0  0  0  0  0  0  0  0  0  0
  193.0690  170.9950  142.6830 C   0  0  0  0  0  2  0  0  0  0  0  0
  191.8470  171.5770  140.7180 O   0  0  0  0  0  1  0  0  0  0  0  0
  193.0670  171.7520  141.3620 C   0  0  0  0  0  2  0  0  0  0  0  0
  1 23  1  1  0  0  0
  1  3  1  0  0  0  0
  2 20  1  6  0  0  0
  2  1  1  0  0  0  0
  2  3  1  0  0  0  0
  3  6  1  6  0  0  0
  4  5  1  0  0  0  0
  4  7  1  0  0  0  0
  6  9  1  1  0  0  0
  8 11  1  1  0  0  0
  8  6  1  0  0  0  0
  8 10  1  0  0  0  0
  9  5  1  0  0  0  0
 10  4  2  0  0  0  0
 12 11  1  0  0  0  0
 13 12  1  0  0  0  0
 14 13  1  0  0  0  0
 14 15  1  0  0  0  0
 15 16  2  0  0  0  0
 15 17  1  0  0  0  0
 17 19  1  0  0  0  0
 19 18  1  0  0  0  0
 21 20  1  0  0  0  0
 22 20  1  0  0  0  0
 24 30  1  0  0  0  0
 24 25  1  0  0  0  0
 25 33  2  0  0  0  0
 26 31  1  0  0  0  0
 26 28  1  0  0  0  0
 28 29  1  0  0  0  0
 30 34  2  0  0  0  0
 30 27  1  0  0  0  0
 31 23  1  1  0  0  0
 31 32  1  0  0  0  0
 32 27  1  6  0  0  0
 32 33  1  0  0  0  0
 33 29  1  0  0  0  0
 35 26  1  0  0  0  0
 36 37  1  0  0  0  0
 37 35  1  0  0  0  0
M  END
>  <MODEL>
4

>  <REMARK>
 VINA RESULT:      -6.6      3.010      8.613
  Name = 
  13 active torsions:
  status: ('A' for Active; 'I' for Inactive)
    1  A    between atoms: C_3  and  C_21
    2  A    between atoms: C_3  and  O_37
    3  A    between atoms: C_5  and  C_23
    4  A    between atoms: C_6  and  C_29
    5  A    between atoms: C_6  and  C_34
    6  A    between atoms: N_9  and  C_18
    7  A    between atoms: C_10  and  C_34
    8  A    between atoms: C_10  and  O_37
    9  A    between atoms: C_11  and  C_24
   10  A    between atoms: C_15  and  C_36
   11  A    between atoms: C_16  and  C_18
   12  A    between atoms: C_24  and  C_28
   13  A    between atoms: C_29  and  C_30
                            x       y       z     vdW  Elec       q    Type
                         _______ _______ _______ _____ _____    ______ ____

>  <TORSDO>
F 13

$$$$
=
 OpenBabel11062421563D

 37 40  0  0  1  0  0  0  0  0999 V2000
  190.3340  175.4190  143.4490 C   0  0  1  0  0  3  0  0  0  0  0  0
  189.3820  174.2630  143.6910 C   0  0  1  0  0  3  0  0  0  0  0  0
  190.2230  174.3220  142.4060 C   0  0  2  0  0  3  0  0  0  0  0  0
  192.2660  173.8130  139.6900 C   0  0  0  0  0  0  0  0  0  0  0  0
  191.2560  172.7880  140.1150 C   0  0  0  0  0  2  0  0  0  0  0  0
  191.5370  173.5300  142.3840 C   0  0  2  0  0  3  0  0  0  0  0  0
  192.5130  174.1130  137.9880 Cl  0  0  0  0  0  0  0  0  0  0  0  0
  192.7030  174.4390  141.9860 C   0  0  2  0  0  3  0  0  0  0  0  0
  191.4740  172.3680  141.4940 N   0  0  0  0  0  2  0  0  0  0  0  0
  192.8410  174.5800  140.5500 N   0  0  0  0  0  0  0  0  0  0  0  0
  194.0100  173.9300  142.5890 C   0  0  0  0  0  2  0  0  0  0  0  0
  193.7280  172.9760  143.5800 O   0  0  0  0  0  0  0  0  0  0  0  0
  194.4900  173.3640  144.6850 C   0  0  0  0  0  2  0  0  0  0  0  0
  193.6040  174.0100  145.7380 C   0  0  0  0  0  2  0  0  0  0  0  0
  193.8700  175.4800  145.8600 C   0  0  0  0  0  0  0  0  0  0  0  0
  195.0410  175.9480  145.6140 N   0  0  0  0  0  2  0  0  0  0  0  0
  192.7590  176.3980  146.2690 C   0  0  0  0  0  2  0  0  0  0  0  0
  191.2060  176.8310  148.2000 C   0  0  0  0  0  1  0  0  0  0  0  0
  191.8590  175.7650  147.3250 C   0  0  0  0  0  2  0  0  0  0  0  0
  189.9210  173.3040  144.7490 C   0  0  0  0  0  3  0  0  0  0  0  0
  189.5510  173.7370  146.0210 O   0  0  0  0  0  1  0  0  0  0  0  0
  189.4050  172.0260  144.5300 O   0  0  0  0  0  1  0  0  0  0  0  0
  189.5870  176.6430  142.9380 C   0  0  0  0  0  2  0  0  0  0  0  0
  185.5490  176.8720  146.1270 C   0  0  0  0  0  2  0  0  0  0  0  0
  185.5340  178.0110  145.1500 C   0  0  0  0  0  3  0  0  0  0  0  0
  187.1390  176.9970  142.2690 N   0  0  0  0  0  0  0  0  0  0  0  0
  188.1690  176.9510  145.9230 C   0  0  0  0  0  2  0  0  0  0  0  0
  187.0540  178.4450  142.0110 C   0  0  0  0  0  2  0  0  0  0  0  0
  186.4350  179.1900  143.2120 C   0  0  0  0  0  2  0  0  0  0  0  0
  186.9210  176.6030  146.6830 C   0  0  0  0  0  0  0  0  0  0  0  0
  188.1070  176.6970  143.3600 C   0  0  2  0  0  3  0  0  0  0  0  0
  187.9190  177.6300  144.5710 C   0  0  1  0  0  3  0  0  0  0  0  0
  186.6190  178.3810  144.4580 C   0  0  0  0  0  0  0  0  0  0  0  0
  187.0220  176.0560  147.7700 O   0  0  0  0  0  0  0  0  0  0  0  0
  187.4690  176.2880  141.0310 C   0  0  0  0  0  2  0  0  0  0  0  0
  187.0150  176.2250  138.6900 O   0  0  0  0  0  1  0  0  0  0  0  0
  186.8180  176.9800  139.8410 C   0  0  0  0  0  2  0  0  0  0  0  0
  1 23  1  6  0  0  0
  1  2  1  0  0  0  0
  2 20  1  1  0  0  0
  3  6  1  1  0  0  0
  3  1  1  0  0  0  0
  3  2  1  0  0  0  0
  4  5  1  0  0  0  0
  4 10  2  0  0  0  0
  5  9  1  0  0  0  0
  6  9  1  6  0  0  0
  7  4  1  0  0  0  0
  8  6  1  0  0  0  0
  8 11  1  6  0  0  0
 10  8  1  0  0  0  0
 11 12  1  0  0  0  0
 12 13  1  0  0  0  0
 13 14  1  0  0  0  0
 14 15  1  0  0  0  0
 15 17  1  0  0  0  0
 16 15  2  0  0  0  0
 17 19  1  0  0  0  0
 19 18  1  0  0  0  0
 20 21  1  0  0  0  0
 22 20  1  0  0  0  0
 24 30  1  0  0  0  0
 25 24  1  0  0  0  0
 26 31  1  0  0  0  0
 27 30  1  0  0  0  0
 28 26  1  0  0  0  0
 28 29  1  0  0  0  0
 29 33  1  0  0  0  0
 30 34  2  0  0  0  0
 31 23  1  6  0  0  0
 31 32  1  0  0  0  0
 32 27  1  1  0  0  0
 33 32  1  0  0  0  0
 33 25  2  0  0  0  0
 35 26  1  0  0  0  0
 36 37  1  0  0  0  0
 37 35  1  0  0  0  0
M  END
>  <MODEL>
5

>  <REMARK>
 VINA RESULT:      -6.6      1.828      2.740
  Name = 
  13 active torsions:
  status: ('A' for Active; 'I' for Inactive)
    1  A    between atoms: C_3  and  C_21
    2  A    between atoms: C_3  and  O_37
    3  A    between atoms: C_5  and  C_23
    4  A    between atoms: C_6  and  C_29
    5  A    between atoms: C_6  and  C_34
    6  A    between atoms: N_9  and  C_18
    7  A    between atoms: C_10  and  C_34
    8  A    between atoms: C_10  and  O_37
    9  A    between atoms: C_11  and  C_24
   10  A    between atoms: C_15  and  C_36
   11  A    between atoms: C_16  and  C_18
   12  A    between atoms: C_24  and  C_28
   13  A    between atoms: C_29  and  C_30
                            x       y       z     vdW  Elec       q    Type
                         _______ _______ _______ _____ _____    ______ ____

>  <TORSDO>
F 13

$$$$
=
 OpenBabel11062421563D

 37 40  0  0  1  0  0  0  0  0999 V2000
  191.9750  173.4430  144.1570 C   0  0  1  0  0  3  0  0  0  0  0  0
  190.7560  172.5940  143.8480 C   0  0  1  0  0  3  0  0  0  0  0  0
  190.7180  173.6250  144.9870 C   0  0  2  0  0  3  0  0  0  0  0  0
  190.8630  176.4230  146.9770 C   0  0  0  0  0  0  0  0  0  0  0  0
  189.6640  175.5220  146.9790 C   0  0  0  0  0  2  0  0  0  0  0  0
  190.1180  175.0020  144.6760 C   0  0  2  0  0  3  0  0  0  0  0  0
  191.4250  177.1000  148.4860 Cl  0  0  0  0  0  0  0  0  0  0  0  0
  191.2200  176.0640  144.6110 C   0  0  2  0  0  3  0  0  0  0  0  0
  189.0910  175.3970  145.6440 N   0  0  0  0  0  2  0  0  0  0  0  0
  191.5740  176.5870  145.9160 N   0  0  0  0  0  0  0  0  0  0  0  0
  190.8110  177.2060  143.6840 C   0  0  0  0  0  2  0  0  0  0  0  0
  189.8670  176.7390  142.7560 O   0  0  0  0  0  0  0  0  0  0  0  0
  189.1590  177.8760  142.3560 C   0  0  0  0  0  2  0  0  0  0  0  0
  187.7200  177.5130  142.0250 C   0  0  0  0  0  2  0  0  0  0  0  0
  186.9130  177.2650  143.2630 C   0  0  0  0  0  0  0  0  0  0  0  0
  186.0060  176.3550  143.2730 N   0  0  0  0  0  2  0  0  0  0  0  0
  187.1740  178.0850  144.4900 C   0  0  0  0  0  2  0  0  0  0  0  0
  185.4760  179.8920  144.0670 C   0  0  0  0  0  1  0  0  0  0  0  0
  185.9060  178.7640  145.0000 C   0  0  0  0  0  2  0  0  0  0  0  0
  190.0650  173.0520  142.5670 C   0  0  0  0  0  3  0  0  0  0  0  0
  190.9140  172.8800  141.4760 O   0  0  0  0  0  1  0  0  0  0  0  0
  188.9030  172.3040  142.3670 O   0  0  0  0  0  1  0  0  0  0  0  0
  192.9870  172.6630  144.9850 C   0  0  0  0  0  2  0  0  0  0  0  0
  197.4820  174.8680  143.7740 C   0  0  0  0  0  2  0  0  0  0  0  0
  197.6760  173.7320  144.7360 C   0  0  0  0  0  3  0  0  0  0  0  0
  195.1280  171.4540  144.2620 N   0  0  0  0  0  0  0  0  0  0  0  0
  195.1290  175.1980  144.8980 C   0  0  0  0  0  2  0  0  0  0  0  0
  195.6850  170.9460  145.5280 C   0  0  0  0  0  2  0  0  0  0  0  0
  196.8260  171.8530  146.0390 C   0  0  0  0  0  2  0  0  0  0  0  0
  196.3020  175.7310  144.1260 C   0  0  0  0  0  0  0  0  0  0  0  0
  194.4330  172.7560  144.4610 C   0  0  2  0  0  3  0  0  0  0  0  0
  195.2620  173.7290  145.3200 C   0  0  1  0  0  3  0  0  0  0  0  0
  196.6740  173.2270  145.4650 C   0  0  0  0  0  0  0  0  0  0  0  0
  196.2820  176.8910  143.7470 O   0  0  0  0  0  0  0  0  0  0  0  0
  194.2500  170.4470  143.6640 C   0  0  0  0  0  2  0  0  0  0  0  0
  193.0450  168.4720  144.2450 O   0  0  0  0  0  1  0  0  0  0  0  0
  194.1740  169.2190  144.5600 C   0  0  0  0  0  2  0  0  0  0  0  0
  1 23  1  1  0  0  0
  1  3  1  0  0  0  0
  2 20  1  6  0  0  0
  2  1  1  0  0  0  0
  2  3  1  0  0  0  0
  3  6  1  6  0  0  0
  4  5  1  0  0  0  0
  4  7  1  0  0  0  0
  6  9  1  1  0  0  0
  8 11  1  6  0  0  0
  8  6  1  0  0  0  0
  8 10  1  0  0  0  0
  9  5  1  0  0  0  0
 10  4  2  0  0  0  0
 12 11  1  0  0  0  0
 13 12  1  0  0  0  0
 14 13  1  0  0  0  0
 14 15  1  0  0  0  0
 15 16  2  0  0  0  0
 15 17  1  0  0  0  0
 17 19  1  0  0  0  0
 18 19  1  0  0  0  0
 21 20  1  0  0  0  0
 22 20  1  0  0  0  0
 24 30  1  0  0  0  0
 24 25  1  0  0  0  0
 25 33  2  0  0  0  0
 26 31  1  0  0  0  0
 26 28  1  0  0  0  0
 28 29  1  0  0  0  0
 30 27  1  0  0  0  0
 31 23  1  1  0  0  0
 31 32  1  0  0  0  0
 32 27  1  6  0  0  0
 32 33  1  0  0  0  0
 33 29  1  0  0  0  0
 34 30  2  0  0  0  0
 35 26  1  0  0  0  0
 35 37  1  0  0  0  0
 36 37  1  0  0  0  0
M  END
>  <MODEL>
6

>  <REMARK>
 VINA RESULT:      -6.6      3.108      9.186
  Name = 
  13 active torsions:
  status: ('A' for Active; 'I' for Inactive)
    1  A    between atoms: C_3  and  C_21
    2  A    between atoms: C_3  and  O_37
    3  A    between atoms: C_5  and  C_23
    4  A    between atoms: C_6  and  C_29
    5  A    between atoms: C_6  and  C_34
    6  A    between atoms: N_9  and  C_18
    7  A    between atoms: C_10  and  C_34
    8  A    between atoms: C_10  and  O_37
    9  A    between atoms: C_11  and  C_24
   10  A    between atoms: C_15  and  C_36
   11  A    between atoms: C_16  and  C_18
   12  A    between atoms: C_24  and  C_28
   13  A    between atoms: C_29  and  C_30
                            x       y       z     vdW  Elec       q    Type
                         _______ _______ _______ _____ _____    ______ ____

>  <TORSDO>
F 13

$$$$
=
 OpenBabel11062421563D

 37 40  0  0  1  0  0  0  0  0999 V2000
  188.9830  176.9940  144.6690 C   0  0  1  0  0  3  0  0  0  0  0  0
  187.7270  176.4940  145.3580 C   0  0  1  0  0  3  0  0  0  0  0  0
  188.7740  175.5000  144.8300 C   0  0  2  0  0  3  0  0  0  0  0  0
  191.3120  173.2820  144.1620 C   0  0  0  0  0  0  0  0  0  0  0  0
  190.0070  172.8270  144.7440 C   0  0  0  0  0  2  0  0  0  0  0  0
  189.8080  174.9640  145.8280 C   0  0  2  0  0  3  0  0  0  0  0  0
  192.0940  172.2990  142.9480 Cl  0  0  0  0  0  0  0  0  0  0  0  0
  191.2230  175.3600  145.3980 C   0  0  2  0  0  3  0  0  0  0  0  0
  189.7190  173.5110  145.9990 N   0  0  0  0  0  2  0  0  0  0  0  0
  191.7900  174.4490  144.4230 N   0  0  0  0  0  0  0  0  0  0  0  0
  192.1430  175.4650  146.6120 C   0  0  0  0  0  2  0  0  0  0  0  0
  193.3900  174.8970  146.3040 O   0  0  0  0  0  0  0  0  0  0  0  0
  194.2980  175.9560  146.3740 C   0  0  0  0  0  2  0  0  0  0  0  0
  194.5930  176.4930  144.9820 C   0  0  0  0  0  2  0  0  0  0  0  0
  195.8580  175.9150  144.4230 C   0  0  0  0  0  0  0  0  0  0  0  0
  196.3130  174.8000  144.8680 N   0  0  0  0  0  2  0  0  0  0  0  0
  196.5860  176.6490  143.3380 C   0  0  0  0  0  2  0  0  0  0  0  0
  197.3590  175.6910  141.1440 C   0  0  0  0  0  1  0  0  0  0  0  0
  196.1590  176.1790  141.9500 C   0  0  0  0  0  2  0  0  0  0  0  0
  187.7860  176.7220  146.8660 C   0  0  0  0  0  3  0  0  0  0  0  0
  188.4200  177.9310  147.1440 O   0  0  0  0  0  1  0  0  0  0  0  0
  186.4920  176.7500  147.3880 O   0  0  0  0  0  1  0  0  0  0  0  0
  188.6980  177.3650  143.2200 C   0  0  0  0  0  2  0  0  0  0  0  0
  183.6410  178.2970  142.9410 C   0  0  0  0  0  2  0  0  0  0  0  0
  184.2650  178.2760  141.5760 C   0  0  0  0  0  3  0  0  0  0  0  0
  187.0200  176.2020  141.6700 N   0  0  0  0  0  0  0  0  0  0  0  0
  185.9680  179.1580  143.8080 C   0  0  0  0  0  2  0  0  0  0  0  0
  187.2420  176.8530  140.3670 C   0  0  0  0  0  2  0  0  0  0  0  0
  186.1690  177.9280  140.0910 C   0  0  0  0  0  2  0  0  0  0  0  0
  184.4780  179.0350  143.9500 C   0  0  0  0  0  0  0  0  0  0  0  0
  187.2330  177.1560  142.7940 C   0  0  2  0  0  3  0  0  0  0  0  0
  186.5400  178.5080  142.5430 C   0  0  1  0  0  3  0  0  0  0  0  0
  185.5830  178.4010  141.3860 C   0  0  0  0  0  0  0  0  0  0  0  0
  183.9340  179.5210  144.9290 O   0  0  0  0  0  0  0  0  0  0  0  0
  187.8710  175.0170  141.7870 C   0  0  0  0  0  2  0  0  0  0  0  0
  189.0370  173.4180  140.4540 O   0  0  0  0  0  1  0  0  0  0  0  0
  188.5370  174.7150  140.4510 C   0  0  0  0  0  2  0  0  0  0  0  0
  1 23  1  6  0  0  0
  1  3  1  0  0  0  0
  1  2  1  0  0  0  0
  2 20  1  1  0  0  0
  3  2  1  0  0  0  0
  3  6  1  1  0  0  0
  4 10  2  0  0  0  0
  4  5  1  0  0  0  0
  5  9  1  0  0  0  0
  6  9  1  6  0  0  0
  7  4  1  0  0  0  0
  8  6  1  0  0  0  0
  8 11  1  1  0  0  0
 10  8  1  0  0  0  0
 12 13  1  0  0  0  0
 12 11  1  0  0  0  0
 14 13  1  0  0  0  0
 15 16  2  0  0  0  0
 15 14  1  0  0  0  0
 17 15  1  0  0  0  0
 18 19  1  0  0  0  0
 19 17  1  0  0  0  0
 20 21  1  0  0  0  0
 20 22  1  0  0  0  0
 24 30  1  0  0  0  0
 25 24  1  0  0  0  0
 26 35  1  0  0  0  0
 26 31  1  0  0  0  0
 27 30  1  0  0  0  0
 28 26  1  0  0  0  0
 29 28  1  0  0  0  0
 29 33  1  0  0  0  0
 30 34  2  0  0  0  0
 31 23  1  6  0  0  0
 32 31  1  0  0  0  0
 32 27  1  1  0  0  0
 33 25  2  0  0  0  0
 33 32  1  0  0  0  0
 37 36  1  0  0  0  0
 37 35  1  0  0  0  0
M  END
>  <MODEL>
7

>  <REMARK>
 VINA RESULT:      -6.6      2.314      3.224
  Name = 
  13 active torsions:
  status: ('A' for Active; 'I' for Inactive)
    1  A    between atoms: C_3  and  C_21
    2  A    between atoms: C_3  and  O_37
    3  A    between atoms: C_5  and  C_23
    4  A    between atoms: C_6  and  C_29
    5  A    between atoms: C_6  and  C_34
    6  A    between atoms: N_9  and  C_18
    7  A    between atoms: C_10  and  C_34
    8  A    between atoms: C_10  and  O_37
    9  A    between atoms: C_11  and  C_24
   10  A    between atoms: C_15  and  C_36
   11  A    between atoms: C_16  and  C_18
   12  A    between atoms: C_24  and  C_28
   13  A    between atoms: C_29  and  C_30
                            x       y       z     vdW  Elec       q    Type
                         _______ _______ _______ _____ _____    ______ ____

>  <TORSDO>
F 13

$$$$
=
 OpenBabel11062421563D

 37 40  0  0  1  0  0  0  0  0999 V2000
  190.2270  174.2650  142.6040 C   0  0  1  0  0  3  0  0  0  0  0  0
  189.1140  173.2770  142.8990 C   0  0  1  0  0  3  0  0  0  0  0  0
  189.2970  174.5280  143.7740 C   0  0  2  0  0  3  0  0  0  0  0  0
  190.2980  177.8160  143.8120 C   0  0  0  0  0  0  0  0  0  0  0  0
  189.5890  177.1980  144.9810 C   0  0  0  0  0  2  0  0  0  0  0  0
  188.4320  175.7520  143.4480 C   0  0  2  0  0  3  0  0  0  0  0  0
  191.6150  178.9250  144.1010 Cl  0  0  0  0  0  0  0  0  0  0  0  0
  189.0030  176.5060  142.2430 C   0  0  2  0  0  3  0  0  0  0  0  0
  188.2920  176.6580  144.5910 N   0  0  0  0  0  2  0  0  0  0  0  0
  190.0580  177.4310  142.6070 N   0  0  0  0  0  0  0  0  0  0  0  0
  187.8940  177.2450  141.4980 C   0  0  0  0  0  2  0  0  0  0  0  0
  186.6490  176.7010  141.8530 O   0  0  0  0  0  0  0  0  0  0  0  0
  185.7920  177.7990  141.9610 C   0  0  0  0  0  2  0  0  0  0  0  0
  184.8390  177.6120  143.1310 C   0  0  0  0  0  2  0  0  0  0  0  0
  185.0250  178.6750  144.1710 C   0  0  0  0  0  0  0  0  0  0  0  0
  185.5850  179.7900  143.8650 N   0  0  0  0  0  2  0  0  0  0  0  0
  184.5500  178.4270  145.5700 C   0  0  0  0  0  2  0  0  0  0  0  0
  186.1820  177.7980  147.3770 C   0  0  0  0  0  1  0  0  0  0  0  0
  185.5400  178.9480  146.6070 C   0  0  0  0  0  2  0  0  0  0  0  0
  187.9830  173.3860  141.8810 C   0  0  0  0  0  3  0  0  0  0  0  0
  188.4990  173.3610  140.5870 O   0  0  0  0  0  1  0  0  0  0  0  0
  187.0990  172.3180  142.0440 O   0  0  0  0  0  1  0  0  0  0  0  0
  191.5570  173.7660  143.1520 C   0  0  0  0  0  2  0  0  0  0  0  0
  193.3090  176.8110  146.9200 C   0  0  0  0  0  2  0  0  0  0  0  0
  194.4220  176.0150  146.3030 C   0  0  0  0  0  3  0  0  0  0  0  0
  193.5860  175.3280  143.0270 N   0  0  0  0  0  0  0  0  0  0  0  0
  191.7470  174.7880  146.3050 C   0  0  0  0  0  2  0  0  0  0  0  0
  194.7340  174.4190  143.1880 C   0  0  0  0  0  2  0  0  0  0  0  0
  195.2770  174.4560  144.6330 C   0  0  0  0  0  2  0  0  0  0  0  0
  192.0660  175.9930  147.1420 C   0  0  0  0  0  0  0  0  0  0  0  0
  192.4130  174.8620  143.8170 C   0  0  2  0  0  3  0  0  0  0  0  0
  192.8070  174.4510  145.2490 C   0  0  1  0  0  3  0  0  0  0  0  0
  194.2010  174.9220  145.5640 C   0  0  0  0  0  0  0  0  0  0  0  0
  191.2770  176.3380  148.0080 O   0  0  0  0  0  0  0  0  0  0  0  0
  193.2660  175.4820  141.6070 C   0  0  0  0  0  2  0  0  0  0  0  0
  194.8330  175.6140  139.8130 O   0  0  0  0  0  1  0  0  0  0  0  0
  194.2930  174.7470  140.7560 C   0  0  0  0  0  2  0  0  0  0  0  0
  1  2  1  0  0  0  0
  1 23  1  1  0  0  0
  1  3  1  0  0  0  0
  2 20  1  6  0  0  0
  2  3  1  0  0  0  0
  3  6  1  6  0  0  0
  4  7  1  0  0  0  0
  4  5  1  0  0  0  0
  6  9  1  1  0  0  0
  8 11  1  1  0  0  0
  8 10  1  0  0  0  0
  8  6  1  0  0  0  0
  9  5  1  0  0  0  0
 10  4  2  0  0  0  0
 11 12  1  0  0  0  0
 12 13  1  0  0  0  0
 13 14  1  0  0  0  0
 14 15  1  0  0  0  0
 15 17  1  0  0  0  0
 16 15  2  0  0  0  0
 17 19  1  0  0  0  0
 19 18  1  0  0  0  0
 20 22  1  0  0  0  0
 21 20  1  0  0  0  0
 24 30  1  0  0  0  0
 25 24  1  0  0  0  0
 26 28  1  0  0  0  0
 26 31  1  0  0  0  0
 27 30  1  0  0  0  0
 28 29  1  0  0  0  0
 29 33  1  0  0  0  0
 30 34  2  0  0  0  0
 31 23  1  6  0  0  0
 31 32  1  0  0  0  0
 32 33  1  0  0  0  0
 32 27  1  1  0  0  0
 33 25  2  0  0  0  0
 35 26  1  0  0  0  0
 36 37  1  0  0  0  0
 37 35  1  0  0  0  0
M  END
>  <MODEL>
8

>  <REMARK>
 VINA RESULT:      -6.5      2.532      8.014
  Name = 
  13 active torsions:
  status: ('A' for Active; 'I' for Inactive)
    1  A    between atoms: C_3  and  C_21
    2  A    between atoms: C_3  and  O_37
    3  A    between atoms: C_5  and  C_23
    4  A    between atoms: C_6  and  C_29
    5  A    between atoms: C_6  and  C_34
    6  A    between atoms: N_9  and  C_18
    7  A    between atoms: C_10  and  C_34
    8  A    between atoms: C_10  and  O_37
    9  A    between atoms: C_11  and  C_24
   10  A    between atoms: C_15  and  C_36
   11  A    between atoms: C_16  and  C_18
   12  A    between atoms: C_24  and  C_28
   13  A    between atoms: C_29  and  C_30
                            x       y       z     vdW  Elec       q    Type
                         _______ _______ _______ _____ _____    ______ ____

>  <TORSDO>
F 13

$$$$
=
 OpenBabel11062421563D

 37 40  0  0  1  0  0  0  0  0999 V2000
  190.9310  175.1260  142.9130 C   0  0  1  0  0  3  0  0  0  0  0  0
  190.4170  173.7020  143.0190 C   0  0  1  0  0  3  0  0  0  0  0  0
  190.6460  174.5440  144.2850 C   0  0  2  0  0  3  0  0  0  0  0  0
  190.6030  176.4730  147.1290 C   0  0  0  0  0  0  0  0  0  0  0  0
  190.1880  175.0320  147.1530 C   0  0  0  0  0  2  0  0  0  0  0  0
  189.4320  175.2670  144.8830 C   0  0  2  0  0  3  0  0  0  0  0  0
  191.5380  177.1150  148.4570 Cl  0  0  0  0  0  0  0  0  0  0  0  0
  189.6720  176.7790  144.9170 C   0  0  2  0  0  3  0  0  0  0  0  0
  189.0950  174.7780  146.2230 N   0  0  0  0  0  2  0  0  0  0  0  0
  190.4180  177.2040  146.0850 N   0  0  0  0  0  0  0  0  0  0  0  0
  188.3480  177.5340  144.8390 C   0  0  0  0  0  2  0  0  0  0  0  0
  187.6380  177.1170  143.7020 O   0  0  0  0  0  0  0  0  0  0  0  0
  186.3600  176.8000  144.1680 C   0  0  0  0  0  2  0  0  0  0  0  0
  185.3380  177.7850  143.6240 C   0  0  0  0  0  2  0  0  0  0  0  0
  185.0990  178.9170  144.5770 C   0  0  0  0  0  0  0  0  0  0  0  0
  185.4300  180.1160  144.2550 N   0  0  0  0  0  2  0  0  0  0  0  0
  184.4670  178.6390  145.9070 C   0  0  0  0  0  2  0  0  0  0  0  0
  185.9580  177.7840  147.7430 C   0  0  0  0  0  1  0  0  0  0  0  0
  185.3850  179.0230  147.0630 C   0  0  0  0  0  2  0  0  0  0  0  0
  188.9550  173.6000  142.5920 C   0  0  0  0  0  3  0  0  0  0  0  0
  188.7900  174.1400  141.3180 O   0  0  0  0  0  1  0  0  0  0  0  0
  188.5620  172.2610  142.5790 O   0  0  0  0  0  1  0  0  0  0  0  0
  192.4390  175.1470  142.7060 C   0  0  0  0  0  2  0  0  0  0  0  0
  194.3790  171.1260  145.2740 C   0  0  0  0  0  2  0  0  0  0  0  0
  195.4670  172.0510  144.8110 C   0  0  0  0  0  3  0  0  0  0  0  0
  194.1680  175.2400  144.5950 N   0  0  0  0  0  0  0  0  0  0  0  0
  193.0390  171.9130  143.1540 C   0  0  0  0  0  2  0  0  0  0  0  0
  195.4450  175.4420  143.8880 C   0  0  0  0  0  2  0  0  0  0  0  0
  196.2250  174.1160  143.7560 C   0  0  0  0  0  2  0  0  0  0  0  0
  193.3250  170.8990  144.2250 C   0  0  0  0  0  0  0  0  0  0  0  0
  193.2340  174.4010  143.7950 C   0  0  2  0  0  3  0  0  0  0  0  0
  193.9300  173.1600  143.2070 C   0  0  1  0  0  3  0  0  0  0  0  0
  195.2770  172.9600  143.8490 C   0  0  0  0  0  0  0  0  0  0  0  0
  192.6620  169.8750  144.2630 O   0  0  0  0  0  0  0  0  0  0  0  0
  193.5830  176.5340  144.9460 C   0  0  0  0  0  2  0  0  0  0  0  0
  194.9770  178.2970  145.7460 O   0  0  0  0  0  1  0  0  0  0  0  0
  194.3160  177.1370  146.1360 C   0  0  0  0  0  2  0  0  0  0  0  0
  1 23  1  1  0  0  0
  1  2  1  0  0  0  0
  1  3  1  0  0  0  0
  2 20  1  6  0  0  0
  2  3  1  0  0  0  0
  3  6  1  6  0  0  0
  4  5  1  0  0  0  0
  4  7  1  0  0  0  0
  6  8  1  0  0  0  0
  6  9  1  1  0  0  0
  8 11  1  1  0  0  0
  8 10  1  0  0  0  0
  9  5  1  0  0  0  0
 10  4  2  0  0  0  0
 12 13  1  0  0  0  0
 12 11  1  0  0  0  0
 14 13  1  0  0  0  0
 14 15  1  0  0  0  0
 15 17  1  0  0  0  0
 16 15  2  0  0  0  0
 17 19  1  0  0  0  0
 19 18  1  0  0  0  0
 21 20  1  0  0  0  0
 22 20  1  0  0  0  0
 25 24  1  0  0  0  0
 26 35  1  0  0  0  0
 27 30  1  0  0  0  0
 28 26  1  0  0  0  0
 29 33  1  0  0  0  0
 29 28  1  0  0  0  0
 30 34  2  0  0  0  0
 30 24  1  0  0  0  0
 31 23  1  6  0  0  0
 31 26  1  0  0  0  0
 32 27  1  1  0  0  0
 32 31  1  0  0  0  0
 32 33  1  0  0  0  0
 33 25  2  0  0  0  0
 35 37  1  0  0  0  0
 36 37  1  0  0  0  0
M  END
>  <MODEL>
9

>  <REMARK>
 VINA RESULT:      -6.5      3.003      8.821
  Name = 
  13 active torsions:
  status: ('A' for Active; 'I' for Inactive)
    1  A    between atoms: C_3  and  C_21
    2  A    between atoms: C_3  and  O_37
    3  A    between atoms: C_5  and  C_23
    4  A    between atoms: C_6  and  C_29
    5  A    between atoms: C_6  and  C_34
    6  A    between atoms: N_9  and  C_18
    7  A    between atoms: C_10  and  C_34
    8  A    between atoms: C_10  and  O_37
    9  A    between atoms: C_11  and  C_24
   10  A    between atoms: C_15  and  C_36
   11  A    between atoms: C_16  and  C_18
   12  A    between atoms: C_24  and  C_28
   13  A    between atoms: C_29  and  C_30
                            x       y       z     vdW  Elec       q    Type
                         _______ _______ _______ _____ _____    ______ ____

>  <TORSDO>
F 13

$$$$
