=
 OpenBabel11062420163D

 25 27  0  0  1  0  0  0  0  0999 V2000
  190.0440  176.8020  144.5260 C   0  0  1  0  0  3  0  0  0  0  0  0
  184.0510  178.1200  146.0280 O   0  0  0  0  0  0  0  0  0  0  0  0
  185.5030  179.1000  144.3710 C   0  0  0  0  0  2  0  0  0  0  0  0
  188.5710  176.7810  144.9550 C   0  0  1  0  0  3  0  0  0  0  0  0
  186.2630  177.8290  146.3600 C   0  0  1  0  0  3  0  0  0  0  0  0
  185.0000  178.0950  146.9630 O   0  0  0  0  0  0  0  0  0  0  0  0
  188.4520  176.6860  146.4840 C   0  0  0  0  0  2  0  0  0  0  0  0
  187.7540  177.9590  144.3810 C   0  0  0  0  0  2  0  0  0  0  0  0
  185.6570  176.6260  144.2010 C   0  0  0  0  0  1  0  0  0  0  0  0
  184.2570  179.2850  145.2550 C   0  0  0  0  0  2  0  0  0  0  0  0
  186.9900  176.6220  146.9340 C   0  0  0  0  0  2  0  0  0  0  0  0
  186.2940  177.8710  144.8190 C   0  0  2  0  0  0  0  0  0  0  0  0
  192.5600  173.8580  144.8710 C   0  0  0  0  0  0  0  0  0  0  0  0
  193.8910  173.7060  145.3600 N   0  0  0  0  0  2  0  0  0  0  0  0
  191.9470  175.2070  144.8770 C   0  0  0  0  0  0  0  0  0  0  0  0
  192.7420  176.2770  145.3090 O   0  0  0  0  0  0  0  0  0  0  0  0
  190.6630  175.4300  144.5240 C   0  0  0  0  0  0  0  0  0  0  0  0
  194.6740  174.8490  145.7030 C   0  0  0  0  0  0  0  0  0  0  0  0
  194.6620  177.2610  146.3660 C   0  0  0  0  0  1  0  0  0  0  0  0
  194.1690  176.2280  145.3700 C   0  0  2  0  0  3  0  0  0  0  0  0
  191.9320  172.8410  144.4710 O   0  0  0  0  0  0  0  0  0  0  0  0
  189.8490  174.3790  144.1160 O   0  0  0  0  0  1  0  0  0  0  0  0
  195.8260  174.6880  146.1900 O   0  0  0  0  0  0  0  0  0  0  0  0
  191.2080  178.6600  143.5470 O   0  0  0  0  0  1  0  0  0  0  0  0
  190.3450  177.6040  143.2580 C   0  0  0  0  0  2  0  0  0  0  0  0
  1 25  1  6  0  0  0
  2  6  1  0  0  0  0
  3 12  1  0  0  0  0
  3 10  1  0  0  0  0
  4  1  1  1  0  0  0
  4  7  1  0  0  0  0
  5 11  1  6  0  0  0
  5  6  1  0  0  0  0
  7 11  1  0  0  0  0
  8 12  1  0  0  0  0
  8  4  1  0  0  0  0
 10  2  1  0  0  0  0
 12  9  1  6  0  0  0
 12  5  1  0  0  0  0
 13 15  1  0  0  0  0
 13 14  1  0  0  0  0
 14 18  1  0  0  0  0
 15 16  1  0  0  0  0
 16 20  1  0  0  0  0
 17  1  1  0  0  0  0
 17 15  2  0  0  0  0
 18 23  2  0  0  0  0
 20 18  1  0  0  0  0
 20 19  1  1  0  0  0
 21 13  2  0  0  0  0
 22 17  1  0  0  0  0
 25 24  1  0  0  0  0
M  END
>  <MODEL>
1

>  <REMARK>
 VINA RESULT:      -7.4      0.000      0.000
  Name = 
  3 active torsions:
  status: ('A' for Active; 'I' for Inactive)
    1  A    between atoms: C_4  and  C_18
    2  A    between atoms: C_10  and  C_18
    3  A    between atoms: C_15  and  C_18
                            x       y       z     vdW  Elec       q    Type
                         _______ _______ _______ _____ _____    ______ ____

>  <TORSDO>
F 3

$$$$
=
 OpenBabel11062420163D

 25 27  0  0  1  0  0  0  0  0999 V2000
  189.7730  176.4230  145.4470 C   0  0  1  0  0  3  0  0  0  0  0  0
  183.9000  178.7070  144.9980 O   0  0  0  0  0  0  0  0  0  0  0  0
  185.9000  179.2750  143.7770 C   0  0  0  0  0  2  0  0  0  0  0  0
  188.2570  176.6520  145.4200 C   0  0  1  0  0  3  0  0  0  0  0  0
  185.8500  178.1630  145.9940 C   0  0  1  0  0  3  0  0  0  0  0  0
  184.5300  178.6680  146.1720 O   0  0  0  0  0  0  0  0  0  0  0  0
  187.6970  176.7590  146.8480 C   0  0  0  0  0  2  0  0  0  0  0  0
  187.8390  177.8520  144.5420 C   0  0  0  0  0  2  0  0  0  0  0  0
  185.6880  176.8010  143.8500 C   0  0  0  0  0  1  0  0  0  0  0  0
  184.5040  179.7320  144.2350 C   0  0  0  0  0  2  0  0  0  0  0  0
  186.1780  176.9470  146.8470 C   0  0  0  0  0  2  0  0  0  0  0  0
  186.3210  178.0140  144.5330 C   0  0  2  0  0  0  0  0  0  0  0  0
  190.1080  172.9560  143.7190 C   0  0  0  0  0  0  0  0  0  0  0  0
  189.7300  172.4030  142.4600 N   0  0  0  0  0  2  0  0  0  0  0  0
  189.7480  174.3610  144.0200 C   0  0  0  0  0  0  0  0  0  0  0  0
  188.9940  175.0550  143.0620 O   0  0  0  0  0  0  0  0  0  0  0  0
  190.1450  174.9960  145.1420 C   0  0  0  0  0  0  0  0  0  0  0  0
  188.8900  173.1350  141.5690 C   0  0  0  0  0  0  0  0  0  0  0  0
  188.0300  175.3830  140.8860 C   0  0  0  0  0  1  0  0  0  0  0  0
  188.2390  174.4110  142.0330 C   0  0  2  0  0  3  0  0  0  0  0  0
  190.7580  172.2460  144.5330 O   0  0  0  0  0  0  0  0  0  0  0  0
  190.9150  174.3350  146.0930 O   0  0  0  0  0  1  0  0  0  0  0  0
  188.6180  172.6520  140.4360 O   0  0  0  0  0  0  0  0  0  0  0  0
  191.9440  177.0610  144.6460 O   0  0  0  0  0  1  0  0  0  0  0  0
  190.6040  177.4450  144.6700 C   0  0  0  0  0  2  0  0  0  0  0  0
  1 25  1  6  0  0  0
  2  6  1  0  0  0  0
  3 10  1  0  0  0  0
  3 12  1  0  0  0  0
  4  1  1  1  0  0  0
  4  7  1  0  0  0  0
  5  6  1  0  0  0  0
  5 11  1  6  0  0  0
  8  4  1  0  0  0  0
 10  2  1  0  0  0  0
 11  7  1  0  0  0  0
 12  9  1  6  0  0  0
 12  8  1  0  0  0  0
 12  5  1  0  0  0  0
 13 15  1  0  0  0  0
 13 21  2  0  0  0  0
 14 13  1  0  0  0  0
 15 17  2  0  0  0  0
 16 15  1  0  0  0  0
 17  1  1  0  0  0  0
 17 22  1  0  0  0  0
 18 20  1  0  0  0  0
 18 14  1  0  0  0  0
 20 19  1  6  0  0  0
 20 16  1  0  0  0  0
 23 18  2  0  0  0  0
 24 25  1  0  0  0  0
M  END
>  <MODEL>
2

>  <REMARK>
 VINA RESULT:      -7.1      2.328      3.765
  Name = 
  3 active torsions:
  status: ('A' for Active; 'I' for Inactive)
    1  A    between atoms: C_4  and  C_18
    2  A    between atoms: C_10  and  C_18
    3  A    between atoms: C_15  and  C_18
                            x       y       z     vdW  Elec       q    Type
                         _______ _______ _______ _____ _____    ______ ____

>  <TORSDO>
F 3

$$$$
=
 OpenBabel11062420163D

 25 27  0  0  1  0  0  0  0  0999 V2000
  187.9060  175.4330  142.7630 C   0  0  1  0  0  3  0  0  0  0  0  0
  193.6510  176.9220  144.9290 O   0  0  0  0  0  0  0  0  0  0  0  0
  192.9490  176.1360  142.7610 C   0  0  0  0  0  2  0  0  0  0  0  0
  189.1260  176.0310  143.4740 C   0  0  1  0  0  3  0  0  0  0  0  0
  191.6640  175.8550  144.8640 C   0  0  1  0  0  3  0  0  0  0  0  0
  192.8770  176.0570  145.5840 O   0  0  0  0  0  0  0  0  0  0  0  0
  189.2150  175.5220  144.9220 C   0  0  0  0  0  2  0  0  0  0  0  0
  190.4460  175.8160  142.7020 C   0  0  0  0  0  2  0  0  0  0  0  0
  191.4330  177.9710  143.4700 C   0  0  0  0  0  1  0  0  0  0  0  0
  194.1090  176.2710  143.7620 C   0  0  0  0  0  2  0  0  0  0  0  0
  190.4030  176.1380  145.6660 C   0  0  0  0  0  2  0  0  0  0  0  0
  191.6190  176.4540  143.4430 C   0  0  2  0  0  0  0  0  0  0  0  0
  185.0700  178.0870  142.9400 C   0  0  0  0  0  0  0  0  0  0  0  0
  184.3350  178.7260  143.9810 N   0  0  0  0  0  2  0  0  0  0  0  0
  186.0780  177.0630  143.3010 C   0  0  0  0  0  0  0  0  0  0  0  0
  186.2090  176.7350  144.6580 O   0  0  0  0  0  0  0  0  0  0  0  0
  186.8860  176.4770  142.3930 C   0  0  0  0  0  0  0  0  0  0  0  0
  184.4550  178.2830  145.3330 C   0  0  0  0  0  0  0  0  0  0  0  0
  185.8550  177.0670  147.0110 C   0  0  0  0  0  1  0  0  0  0  0  0
  185.2080  177.0160  145.6390 C   0  0  2  0  0  3  0  0  0  0  0  0
  184.8620  178.4250  141.7440 O   0  0  0  0  0  0  0  0  0  0  0  0
  186.7910  176.8070  141.0460 O   0  0  0  0  0  1  0  0  0  0  0  0
  183.8420  178.9020  146.2440 O   0  0  0  0  0  0  0  0  0  0  0  0
  187.8640  173.1650  141.9760 O   0  0  0  0  0  1  0  0  0  0  0  0
  188.2230  174.4650  141.6220 C   0  0  0  0  0  2  0  0  0  0  0  0
  1 25  1  6  0  0  0
  2  6  1  0  0  0  0
  3 12  1  0  0  0  0
  3 10  1  0  0  0  0
  4  1  1  6  0  0  0
  4  7  1  0  0  0  0
  5  6  1  0  0  0  0
  5 11  1  1  0  0  0
  7 11  1  0  0  0  0
  8 12  1  0  0  0  0
  8  4  1  0  0  0  0
 10  2  1  0  0  0  0
 12  9  1  1  0  0  0
 12  5  1  0  0  0  0
 13 15  1  0  0  0  0
 13 14  1  0  0  0  0
 14 18  1  0  0  0  0
 15 16  1  0  0  0  0
 16 20  1  0  0  0  0
 17  1  1  0  0  0  0
 17 15  2  0  0  0  0
 18 20  1  0  0  0  0
 18 23  2  0  0  0  0
 20 19  1  1  0  0  0
 21 13  2  0  0  0  0
 22 17  1  0  0  0  0
 25 24  1  0  0  0  0
M  END
>  <MODEL>
3

>  <REMARK>
 VINA RESULT:      -7.1      3.116      7.476
  Name = 
  3 active torsions:
  status: ('A' for Active; 'I' for Inactive)
    1  A    between atoms: C_4  and  C_18
    2  A    between atoms: C_10  and  C_18
    3  A    between atoms: C_15  and  C_18
                            x       y       z     vdW  Elec       q    Type
                         _______ _______ _______ _____ _____    ______ ____

>  <TORSDO>
F 3

$$$$
=
 OpenBabel11062420163D

 25 27  0  0  1  0  0  0  0  0999 V2000
  189.6270  176.0960  145.9940 C   0  0  1  0  0  3  0  0  0  0  0  0
  184.0660  178.7020  144.5100 O   0  0  0  0  0  0  0  0  0  0  0  0
  186.2870  179.1810  143.7020 C   0  0  0  0  0  2  0  0  0  0  0  0
  188.1560  176.4080  145.6880 C   0  0  1  0  0  3  0  0  0  0  0  0
  185.7640  178.0370  145.8390 C   0  0  1  0  0  3  0  0  0  0  0  0
  184.4600  178.6090  145.7800 O   0  0  0  0  0  0  0  0  0  0  0  0
  187.3430  176.5210  146.9880 C   0  0  0  0  0  2  0  0  0  0  0  0
  187.9730  177.6420  144.7790 C   0  0  0  0  0  2  0  0  0  0  0  0
  185.9420  176.7210  143.6680 C   0  0  0  0  0  1  0  0  0  0  0  0
  184.8540  179.7050  143.9010 C   0  0  0  0  0  2  0  0  0  0  0  0
  185.8630  176.7910  146.7060 C   0  0  0  0  0  2  0  0  0  0  0  0
  186.4940  177.8870  144.4890 C   0  0  2  0  0  0  0  0  0  0  0  0
  191.5130  175.4340  142.6590 C   0  0  0  0  0  0  0  0  0  0  0  0
  191.5030  174.4080  141.6680 N   0  0  0  0  0  2  0  0  0  0  0  0
  190.6400  175.2880  143.8470 C   0  0  0  0  0  0  0  0  0  0  0  0
  189.8910  174.1070  143.9580 O   0  0  0  0  0  0  0  0  0  0  0  0
  190.5120  176.2490  144.7850 C   0  0  0  0  0  0  0  0  0  0  0  0
  190.7850  173.1940  141.8860 C   0  0  0  0  0  0  0  0  0  0  0  0
  188.9410  172.0580  143.1390 C   0  0  0  0  0  1  0  0  0  0  0  0
  190.1950  172.9080  143.2420 C   0  0  2  0  0  3  0  0  0  0  0  0
  192.2440  176.4460  142.4890 O   0  0  0  0  0  0  0  0  0  0  0  0
  191.2250  177.4380  144.6800 O   0  0  0  0  0  1  0  0  0  0  0  0
  190.7420  172.3270  140.9720 O   0  0  0  0  0  0  0  0  0  0  0  0
  191.0040  175.8770  147.9490 O   0  0  0  0  0  1  0  0  0  0  0  0
  190.1920  176.7680  147.2460 C   0  0  0  0  0  2  0  0  0  0  0  0
  1 25  1  1  0  0  0
  2  6  1  0  0  0  0
  3 10  1  0  0  0  0
  3 12  1  0  0  0  0
  4  1  1  1  0  0  0
  4  7  1  0  0  0  0
  5 11  1  6  0  0  0
  6  5  1  0  0  0  0
  8  4  1  0  0  0  0
 10  2  1  0  0  0  0
 11  7  1  0  0  0  0
 12  9  1  6  0  0  0
 12  8  1  0  0  0  0
 12  5  1  0  0  0  0
 13 15  1  0  0  0  0
 14 18  1  0  0  0  0
 14 13  1  0  0  0  0
 15 16  1  0  0  0  0
 15 17  2  0  0  0  0
 17  1  1  0  0  0  0
 18 20  1  0  0  0  0
 20 19  1  6  0  0  0
 20 16  1  0  0  0  0
 21 13  2  0  0  0  0
 22 17  1  0  0  0  0
 23 18  2  0  0  0  0
 25 24  1  0  0  0  0
M  END
>  <MODEL>
4

>  <REMARK>
 VINA RESULT:      -7.1      2.353      3.619
  Name = 
  3 active torsions:
  status: ('A' for Active; 'I' for Inactive)
    1  A    between atoms: C_4  and  C_18
    2  A    between atoms: C_10  and  C_18
    3  A    between atoms: C_15  and  C_18
                            x       y       z     vdW  Elec       q    Type
                         _______ _______ _______ _____ _____    ______ ____

>  <TORSDO>
F 3

$$$$
=
 OpenBabel11062420163D

 25 27  0  0  1  0  0  0  0  0999 V2000
  190.0190  175.9770  145.8550 C   0  0  1  0  0  3  0  0  0  0  0  0
  196.1610  174.8590  144.8890 O   0  0  0  0  0  0  0  0  0  0  0  0
  194.2140  173.6260  144.1820 C   0  0  0  0  0  2  0  0  0  0  0  0
  191.5320  176.0520  145.6150 C   0  0  1  0  0  3  0  0  0  0  0  0
  194.2750  175.2340  146.0690 C   0  0  1  0  0  3  0  0  0  0  0  0
  195.6880  175.0590  146.1190 O   0  0  0  0  0  0  0  0  0  0  0  0
  192.2710  176.4100  146.9140 C   0  0  0  0  0  2  0  0  0  0  0  0
  192.1060  174.7810  144.9520 C   0  0  0  0  0  2  0  0  0  0  0  0
  193.8520  176.0340  143.6910 C   0  0  0  0  0  1  0  0  0  0  0  0
  195.7230  173.5810  144.4770 C   0  0  0  0  0  2  0  0  0  0  0  0
  193.7810  176.5320  146.6890 C   0  0  0  0  0  2  0  0  0  0  0  0
  193.6080  174.9250  144.7140 C   0  0  2  0  0  0  0  0  0  0  0  0
  187.2370  177.9060  143.9430 C   0  0  0  0  0  0  0  0  0  0  0  0
  186.0150  178.5500  144.2980 N   0  0  0  0  0  2  0  0  0  0  0  0
  188.0180  177.2250  145.0020 C   0  0  0  0  0  0  0  0  0  0  0  0
  187.4730  177.2000  146.2940 O   0  0  0  0  0  0  0  0  0  0  0  0
  189.2290  176.6730  144.7790 C   0  0  0  0  0  0  0  0  0  0  0  0
  185.4750  178.4120  145.6110 C   0  0  0  0  0  0  0  0  0  0  0  0
  185.9410  177.8870  148.0120 C   0  0  0  0  0  1  0  0  0  0  0  0
  186.0900  177.4300  146.5730 C   0  0  2  0  0  3  0  0  0  0  0  0
  187.6320  177.9530  142.7480 O   0  0  0  0  0  0  0  0  0  0  0  0
  189.8000  176.7090  143.5110 O   0  0  0  0  0  1  0  0  0  0  0  0
  184.4250  179.0390  145.9190 O   0  0  0  0  0  0  0  0  0  0  0  0
  189.0720  174.5440  147.5330 O   0  0  0  0  0  1  0  0  0  0  0  0
  189.4790  174.5880  146.2000 C   0  0  0  0  0  2  0  0  0  0  0  0
  1 25  1  6  0  0  0
  2  6  1  0  0  0  0
  3 10  1  0  0  0  0
  3 12  1  0  0  0  0
  4  1  1  1  0  0  0
  4  7  1  0  0  0  0
  5  6  1  0  0  0  0
  5 11  1  6  0  0  0
  8  4  1  0  0  0  0
 10  2  1  0  0  0  0
 11  7  1  0  0  0  0
 12  9  1  6  0  0  0
 12  8  1  0  0  0  0
 12  5  1  0  0  0  0
 13 14  1  0  0  0  0
 13 15  1  0  0  0  0
 14 18  1  0  0  0  0
 15 16  1  0  0  0  0
 16 20  1  0  0  0  0
 17 15  2  0  0  0  0
 17  1  1  0  0  0  0
 18 23  2  0  0  0  0
 18 20  1  0  0  0  0
 20 19  1  1  0  0  0
 21 13  2  0  0  0  0
 22 17  1  0  0  0  0
 25 24  1  0  0  0  0
M  END
>  <MODEL>
5

>  <REMARK>
 VINA RESULT:      -6.9      2.563      7.860
  Name = 
  3 active torsions:
  status: ('A' for Active; 'I' for Inactive)
    1  A    between atoms: C_4  and  C_18
    2  A    between atoms: C_10  and  C_18
    3  A    between atoms: C_15  and  C_18
                            x       y       z     vdW  Elec       q    Type
                         _______ _______ _______ _____ _____    ______ ____

>  <TORSDO>
F 3

$$$$
=
 OpenBabel11062420163D

 25 27  0  0  1  0  0  0  0  0999 V2000
  189.2260  177.0300  144.4470 C   0  0  1  0  0  3  0  0  0  0  0  0
  193.8300  172.9080  145.7630 O   0  0  0  0  0  0  0  0  0  0  0  0
  193.9430  175.2120  145.0600 C   0  0  0  0  0  2  0  0  0  0  0  0
  190.1160  175.9090  144.9990 C   0  0  1  0  0  3  0  0  0  0  0  0
  191.9920  173.7150  144.7330 C   0  0  1  0  0  3  0  0  0  0  0  0
  192.8690  172.6040  144.8910 O   0  0  0  0  0  0  0  0  0  0  0  0
  189.6810  174.5450  144.4420 C   0  0  0  0  0  2  0  0  0  0  0  0
  191.6230  176.1690  144.7870 C   0  0  0  0  0  2  0  0  0  0  0  0
  192.2820  175.0210  146.8980 C   0  0  0  0  0  1  0  0  0  0  0  0
  194.6710  173.8590  145.1430 C   0  0  0  0  0  2  0  0  0  0  0  0
  190.5290  173.4050  145.0120 C   0  0  0  0  0  2  0  0  0  0  0  0
  192.4580  175.0360  145.3790 C   0  0  2  0  0  0  0  0  0  0  0  0
  185.9800  178.4140  146.0780 C   0  0  0  0  0  0  0  0  0  0  0  0
  184.6740  178.7580  145.6190 N   0  0  0  0  0  2  0  0  0  0  0  0
  186.9820  177.9420  145.0940 C   0  0  0  0  0  0  0  0  0  0  0  0
  186.6020  177.9180  143.7450 O   0  0  0  0  0  0  0  0  0  0  0  0
  188.2080  177.5040  145.4490 C   0  0  0  0  0  0  0  0  0  0  0  0
  184.3820  178.7950  144.2220 C   0  0  0  0  0  0  0  0  0  0  0  0
  185.0230  178.0070  141.9360 C   0  0  0  0  0  1  0  0  0  0  0  0
  185.4980  178.6600  143.2210 C   0  0  2  0  0  3  0  0  0  0  0  0
  186.2410  178.4970  147.3080 O   0  0  0  0  0  0  0  0  0  0  0  0
  188.5960  177.4950  146.7840 O   0  0  0  0  0  1  0  0  0  0  0  0
  183.2060  179.0430  143.8420 O   0  0  0  0  0  0  0  0  0  0  0  0
  189.6900  178.1680  142.3840 O   0  0  0  0  0  1  0  0  0  0  0  0
  189.9690  178.1720  143.7500 C   0  0  0  0  0  2  0  0  0  0  0  0
  1 25  1  1  0  0  0
  1 17  1  0  0  0  0
  3 10  1  0  0  0  0
  3 12  1  0  0  0  0
  4  1  1  6  0  0  0
  5  6  1  0  0  0  0
  5 11  1  1  0  0  0
  5 12  1  0  0  0  0
  6  2  1  0  0  0  0
  7  4  1  0  0  0  0
  7 11  1  0  0  0  0
  8  4  1  0  0  0  0
  8 12  1  0  0  0  0
 10  2  1  0  0  0  0
 12  9  1  1  0  0  0
 13 21  2  0  0  0  0
 14 13  1  0  0  0  0
 15 17  2  0  0  0  0
 15 13  1  0  0  0  0
 16 15  1  0  0  0  0
 17 22  1  0  0  0  0
 18 14  1  0  0  0  0
 20 19  1  6  0  0  0
 20 16  1  0  0  0  0
 20 18  1  0  0  0  0
 23 18  2  0  0  0  0
 24 25  1  0  0  0  0
M  END
>  <MODEL>
6

>  <REMARK>
 VINA RESULT:      -6.8      2.717      7.796
  Name = 
  3 active torsions:
  status: ('A' for Active; 'I' for Inactive)
    1  A    between atoms: C_4  and  C_18
    2  A    between atoms: C_10  and  C_18
    3  A    between atoms: C_15  and  C_18
                            x       y       z     vdW  Elec       q    Type
                         _______ _______ _______ _____ _____    ______ ____

>  <TORSDO>
F 3

$$$$
=
 OpenBabel11062420163D

 25 27  0  0  1  0  0  0  0  0999 V2000
  189.9650  175.5320  145.6600 C   0  0  1  0  0  3  0  0  0  0  0  0
  184.6940  179.0070  145.8880 O   0  0  0  0  0  0  0  0  0  0  0  0
  185.2630  176.9490  147.0070 C   0  0  0  0  0  2  0  0  0  0  0  0
  188.9050  176.6420  145.6750 C   0  0  1  0  0  3  0  0  0  0  0  0
  186.3500  177.8000  144.9460 C   0  0  1  0  0  3  0  0  0  0  0  0
  185.1990  178.6080  144.7210 O   0  0  0  0  0  0  0  0  0  0  0  0
  188.6330  177.1540  144.2520 C   0  0  0  0  0  2  0  0  0  0  0  0
  187.6060  176.2320  146.4020 C   0  0  0  0  0  2  0  0  0  0  0  0
  187.1610  178.5340  147.2440 C   0  0  0  0  0  1  0  0  0  0  0  0
  184.1340  177.8700  146.5110 C   0  0  0  0  0  2  0  0  0  0  0  0
  187.6080  178.2910  144.2460 C   0  0  0  0  0  2  0  0  0  0  0  0
  186.6020  177.3820  146.4090 C   0  0  2  0  0  0  0  0  0  0  0  0
  193.7390  176.4640  145.7470 C   0  0  0  0  0  0  0  0  0  0  0  0
  194.8050  176.4870  144.8000 N   0  0  0  0  0  2  0  0  0  0  0  0
  192.4060  175.9880  145.3090 C   0  0  0  0  0  0  0  0  0  0  0  0
  192.2840  175.5260  143.9910 O   0  0  0  0  0  0  0  0  0  0  0  0
  191.3180  176.0210  146.1060 C   0  0  0  0  0  0  0  0  0  0  0  0
  194.6360  175.9210  143.5010 C   0  0  0  0  0  0  0  0  0  0  0  0
  193.0190  175.2300  141.7220 C   0  0  0  0  0  1  0  0  0  0  0  0
  193.3970  175.1240  143.1880 C   0  0  2  0  0  3  0  0  0  0  0  0
  193.9500  176.8690  146.9210 O   0  0  0  0  0  0  0  0  0  0  0  0
  191.4090  176.5000  147.4080 O   0  0  0  0  0  1  0  0  0  0  0  0
  195.5730  176.0070  142.6610 O   0  0  0  0  0  0  0  0  0  0  0  0
  189.7130  173.1550  145.4370 O   0  0  0  0  0  1  0  0  0  0  0  0
  189.5470  174.2190  146.3230 C   0  0  0  0  0  2  0  0  0  0  0  0
  1 17  1  0  0  0  0
  1 25  1  1  0  0  0
  2 10  1  0  0  0  0
  4  1  1  6  0  0  0
  4  8  1  0  0  0  0
  5 11  1  1  0  0  0
  5 12  1  0  0  0  0
  6  5  1  0  0  0  0
  6  2  1  0  0  0  0
  7  4  1  0  0  0  0
  8 12  1  0  0  0  0
 10  3  1  0  0  0  0
 11  7  1  0  0  0  0
 12  3  1  0  0  0  0
 12  9  1  1  0  0  0
 13 21  2  0  0  0  0
 14 13  1  0  0  0  0
 15 13  1  0  0  0  0
 15 17  2  0  0  0  0
 16 15  1  0  0  0  0
 17 22  1  0  0  0  0
 18 14  1  0  0  0  0
 20 19  1  6  0  0  0
 20 18  1  0  0  0  0
 20 16  1  0  0  0  0
 23 18  2  0  0  0  0
 24 25  1  0  0  0  0
M  END
>  <MODEL>
7

>  <REMARK>
 VINA RESULT:      -6.8      1.855      3.160
  Name = 
  3 active torsions:
  status: ('A' for Active; 'I' for Inactive)
    1  A    between atoms: C_4  and  C_18
    2  A    between atoms: C_10  and  C_18
    3  A    between atoms: C_15  and  C_18
                            x       y       z     vdW  Elec       q    Type
                         _______ _______ _______ _____ _____    ______ ____

>  <TORSDO>
F 3

$$$$
=
 OpenBabel11062420163D

 25 27  0  0  1  0  0  0  0  0999 V2000
  190.6740  175.4610  144.8440 C   0  0  1  0  0  3  0  0  0  0  0  0
  185.8970  178.6760  142.2450 O   0  0  0  0  0  0  0  0  0  0  0  0
  185.9000  176.6220  143.5080 C   0  0  0  0  0  2  0  0  0  0  0  0
  189.7090  176.5180  144.2930 C   0  0  1  0  0  3  0  0  0  0  0  0
  187.8620  177.5710  142.3230 C   0  0  1  0  0  3  0  0  0  0  0  0
  186.9600  178.3290  141.5210 O   0  0  0  0  0  0  0  0  0  0  0  0
  190.1990  177.0500  142.9370 C   0  0  0  0  0  2  0  0  0  0  0  0
  188.2450  176.0310  144.2310 C   0  0  0  0  0  2  0  0  0  0  0  0
  187.3040  178.2890  144.6990 C   0  0  0  0  0  1  0  0  0  0  0  0
  185.1540  177.4990  142.4870 C   0  0  0  0  0  2  0  0  0  0  0  0
  189.2720  178.1370  142.3870 C   0  0  0  0  0  2  0  0  0  0  0  0
  187.3280  177.1310  143.7010 C   0  0  2  0  0  0  0  0  0  0  0  0
  194.2340  176.7770  145.6890 C   0  0  0  0  0  0  0  0  0  0  0  0
  195.4550  176.9460  144.9730 N   0  0  0  0  0  2  0  0  0  0  0  0
  193.0720  176.1810  144.9890 C   0  0  0  0  0  0  0  0  0  0  0  0
  193.2610  175.7580  143.6660 O   0  0  0  0  0  0  0  0  0  0  0  0
  191.8520  176.0720  145.5560 C   0  0  0  0  0  0  0  0  0  0  0  0
  195.6060  176.4140  143.6570 C   0  0  0  0  0  0  0  0  0  0  0  0
  194.4520  175.6230  141.5830 C   0  0  0  0  0  1  0  0  0  0  0  0
  194.5460  175.5040  143.0930 C   0  0  2  0  0  3  0  0  0  0  0  0
  194.1660  177.1590  146.8880 O   0  0  0  0  0  0  0  0  0  0  0  0
  191.6360  176.5090  146.8580 O   0  0  0  0  0  1  0  0  0  0  0  0
  196.6730  176.6270  143.0200 O   0  0  0  0  0  0  0  0  0  0  0  0
  190.2720  173.0990  145.0000 O   0  0  0  0  0  1  0  0  0  0  0  0
  190.0200  174.3200  145.6250 C   0  0  0  0  0  2  0  0  0  0  0  0
  1 17  1  0  0  0  0
  1 25  1  1  0  0  0
  2 10  1  0  0  0  0
  3 12  1  0  0  0  0
  4  1  1  6  0  0  0
  5 11  1  1  0  0  0
  5 12  1  0  0  0  0
  6  2  1  0  0  0  0
  6  5  1  0  0  0  0
  7  4  1  0  0  0  0
  8  4  1  0  0  0  0
 10  3  1  0  0  0  0
 11  7  1  0  0  0  0
 12  8  1  0  0  0  0
 12  9  1  1  0  0  0
 13 21  2  0  0  0  0
 14 13  1  0  0  0  0
 15 17  2  0  0  0  0
 15 13  1  0  0  0  0
 16 15  1  0  0  0  0
 17 22  1  0  0  0  0
 18 14  1  0  0  0  0
 20 19  1  6  0  0  0
 20 18  1  0  0  0  0
 20 16  1  0  0  0  0
 23 18  2  0  0  0  0
 24 25  1  0  0  0  0
M  END
>  <MODEL>
8

>  <REMARK>
 VINA RESULT:      -6.7      2.313      3.643
  Name = 
  3 active torsions:
  status: ('A' for Active; 'I' for Inactive)
    1  A    between atoms: C_4  and  C_18
    2  A    between atoms: C_10  and  C_18
    3  A    between atoms: C_15  and  C_18
                            x       y       z     vdW  Elec       q    Type
                         _______ _______ _______ _____ _____    ______ ____

>  <TORSDO>
F 3

$$$$
=
 OpenBabel11062420163D

 25 27  0  0  1  0  0  0  0  0999 V2000
  189.4900  176.4210  143.2230 C   0  0  1  0  0  3  0  0  0  0  0  0
  185.2470  177.9920  147.6330 O   0  0  0  0  0  0  0  0  0  0  0  0
  185.9050  179.1340  145.6130 C   0  0  0  0  0  2  0  0  0  0  0  0
  188.4130  176.4590  144.3150 C   0  0  1  0  0  3  0  0  0  0  0  0
  187.2640  177.4270  146.7940 C   0  0  1  0  0  3  0  0  0  0  0  0
  186.5010  177.6910  147.9680 O   0  0  0  0  0  0  0  0  0  0  0  0
  189.0080  176.0750  145.6790 C   0  0  0  0  0  2  0  0  0  0  0  0
  187.6510  177.8000  144.3710 C   0  0  0  0  0  2  0  0  0  0  0  0
  185.5120  176.7400  145.0810 C   0  0  0  0  0  1  0  0  0  0  0  0
  185.2750  179.2610  147.0110 C   0  0  0  0  0  2  0  0  0  0  0  0
  187.9420  176.0660  146.7790 C   0  0  0  0  0  2  0  0  0  0  0  0
  186.5770  177.7700  145.4560 C   0  0  2  0  0  0  0  0  0  0  0  0
  188.9720  173.7750  140.4220 C   0  0  0  0  0  0  0  0  0  0  0  0
  189.3680  172.4210  140.2120 N   0  0  0  0  0  2  0  0  0  0  0  0
  189.4260  174.4700  141.6500 C   0  0  0  0  0  0  0  0  0  0  0  0
  190.2780  173.7670  142.5130 O   0  0  0  0  0  0  0  0  0  0  0  0
  189.0230  175.7150  141.9780 C   0  0  0  0  0  0  0  0  0  0  0  0
  190.3070  171.7950  141.0860 C   0  0  0  0  0  0  0  0  0  0  0  0
  191.3720  171.7980  143.3490 C   0  0  0  0  0  1  0  0  0  0  0  0
  191.0310  172.6180  142.1180 C   0  0  2  0  0  3  0  0  0  0  0  0
  188.2290  174.3370  139.5730 O   0  0  0  0  0  0  0  0  0  0  0  0
  188.1580  176.4200  141.1490 O   0  0  0  0  0  1  0  0  0  0  0  0
  190.5960  170.5790  140.9160 O   0  0  0  0  0  0  0  0  0  0  0  0
  191.5670  177.5850  142.9100 O   0  0  0  0  0  1  0  0  0  0  0  0
  190.1830  177.7550  142.9400 C   0  0  0  0  0  2  0  0  0  0  0  0
  1 25  1  6  0  0  0
  2  6  1  0  0  0  0
  3 10  1  0  0  0  0
  4  1  1  6  0  0  0
  4  8  1  0  0  0  0
  4  7  1  0  0  0  0
  5 11  1  6  0  0  0
  5  6  1  0  0  0  0
  7 11  1  0  0  0  0
  8 12  1  0  0  0  0
 10  2  1  0  0  0  0
 12  9  1  6  0  0  0
 12  3  1  0  0  0  0
 12  5  1  0  0  0  0
 13 15  1  0  0  0  0
 14 13  1  0  0  0  0
 14 18  1  0  0  0  0
 15 17  2  0  0  0  0
 15 16  1  0  0  0  0
 17  1  1  0  0  0  0
 18 20  1  0  0  0  0
 20 16  1  0  0  0  0
 20 19  1  1  0  0  0
 21 13  2  0  0  0  0
 22 17  1  0  0  0  0
 23 18  2  0  0  0  0
 24 25  1  0  0  0  0
M  END
>  <MODEL>
9

>  <REMARK>
 VINA RESULT:      -6.7      3.011      4.059
  Name = 
  3 active torsions:
  status: ('A' for Active; 'I' for Inactive)
    1  A    between atoms: C_4  and  C_18
    2  A    between atoms: C_10  and  C_18
    3  A    between atoms: C_15  and  C_18
                            x       y       z     vdW  Elec       q    Type
                         _______ _______ _______ _____ _____    ______ ____

>  <TORSDO>
F 3

$$$$
