=
 OpenBabel11062419323D

 40 43  0  0  1  0  0  0  0  0999 V2000
  191.2050  175.8920  146.9450 C   0  0  0  0  0  0  0  0  0  0  0  0
  191.1810  176.5720  148.0870 C   0  0  0  0  0  2  0  0  0  0  0  0
  189.9050  174.2540  142.9710 C   0  0  0  0  0  3  0  0  0  0  0  0
  189.5130  175.3740  143.7110 C   0  0  0  0  0  0  0  0  0  0  0  0
  190.3720  175.8410  144.7060 O   0  0  0  0  0  0  0  0  0  0  0  0
  188.2730  175.9950  143.4450 C   0  0  0  0  0  0  0  0  0  0  0  0
  187.8870  177.2740  144.1590 C   0  0  2  0  0  3  0  0  0  0  0  0
  189.1080  177.1480  146.3310 C   0  0  0  0  0  2  0  0  0  0  0  0
  189.0650  173.7170  141.9970 C   0  0  0  0  0  0  0  0  0  0  0  0
  187.8180  174.2950  141.7570 C   0  0  0  0  0  3  0  0  0  0  0  0
  189.9770  175.9220  146.0720 C   0  0  2  0  0  3  0  0  0  0  0  0
  187.7370  177.0330  145.6720 C   0  0  1  0  0  3  0  0  0  0  0  0
  189.4720  172.5730  141.2560 N   0  0  0  0  0  1  0  0  0  0  0  0
  187.4280  175.4270  142.4740 C   0  0  0  0  0  3  0  0  0  0  0  0
  186.7150  177.9820  143.5260 C   0  0  0  0  0  3  0  0  0  0  0  0
  186.8800  178.7010  142.5530 O   0  0  0  0  0  0  0  0  0  0  0  0
  186.7330  177.9700  146.3640 C   0  0  2  0  0  3  0  0  0  0  0  0
  187.1900  178.3710  147.6240 O   0  0  0  0  0  1  0  0  0  0  0  0
  185.2590  176.0890  146.4680 O   0  0  0  0  0  0  0  0  0  0  0  0
  185.3790  177.3450  146.4650 C   0  0  0  0  0  0  0  0  0  0  0  0
  183.9480  179.0740  145.4580 C   0  0  0  0  0  1  0  0  0  0  0  0
  184.2530  178.1670  146.5060 O   0  0  0  0  0  0  0  0  0  0  0  0
  192.5150  175.2960  146.5060 C   0  0  0  0  0  2  0  0  0  0  0  0
  193.6400  176.3230  146.4830 C   0  0  0  0  0  2  0  0  0  0  0  0
  194.9180  175.7440  145.8930 C   0  0  0  0  0  2  0  0  0  0  0  0
  192.5740  171.4490  142.3600 C   0  0  0  0  0  1  0  0  0  0  0  0
  195.9290  176.3650  143.3030 C   0  0  0  0  0  1  0  0  0  0  0  0
  194.8780  174.2960  142.4580 C   0  0  2  0  0  3  0  0  0  0  0  0
  194.9590  172.5820  145.6910 C   0  0  0  0  0  1  0  0  0  0  0  0
  194.6170  174.8320  144.7770 N   0  0  0  0  0  0  0  0  0  0  0  0
  193.5860  173.6820  141.9860 C   0  0  2  0  0  3  0  0  0  0  0  0
  195.5030  173.1720  143.2710 C   0  0  1  0  0  3  0  0  0  0  0  0
  193.8600  172.1870  142.0440 C   0  0  0  0  0  0  0  0  0  0  0  0
  193.1790  174.2110  140.6150 C   0  0  0  0  0  1  0  0  0  0  0  0
  196.9380  173.9460  145.1240 C   0  0  0  0  0  1  0  0  0  0  0  0
  195.4900  173.6420  144.7350 C   0  0  0  0  0  0  0  0  0  0  0  0
  194.7070  175.4570  143.4440 C   0  0  0  0  0  0  0  0  0  0  0  0
  194.4400  171.6250  140.7470 C   0  0  0  0  0  1  0  0  0  0  0  0
  194.7810  171.9680  143.0810 O   0  0  0  0  0  0  0  0  0  0  0  0
  193.4700  176.3030  143.1580 C   0  0  0  0  0  1  0  0  0  0  0  0
  1  2  2  0  0  0  0
  3  4  1  0  0  0  0
  4  5  1  0  0  0  0
  5 11  1  0  0  0  0
  6  4  2  0  0  0  0
  6  7  1  0  0  0  0
  7 15  1  6  0  0  0
  7 12  1  0  0  0  0
  9  3  2  0  0  0  0
 10  9  1  0  0  0  0
 10 14  2  0  0  0  0
 11  8  1  0  0  0  0
 11  1  1  1  0  0  0
 12  8  1  0  0  0  0
 12 17  1  1  0  0  0
 13  9  1  0  0  0  0
 14  6  1  0  0  0  0
 16 15  2  0  0  0  0
 17 20  1  0  0  0  0
 17 18  1  1  0  0  0
 20 19  2  0  0  0  0
 20 22  1  0  0  0  0
 21 22  1  0  0  0  0
 23  1  1  0  0  0  0
 24 23  1  0  0  0  0
 25 24  1  0  0  0  0
 27 37  1  0  0  0  0
 28 32  1  0  0  0  0
 28 37  1  1  0  0  0
 30 25  1  0  0  0  0
 31 34  1  6  0  0  0
 31 33  1  0  0  0  0
 31 28  1  0  0  0  0
 32 39  1  1  0  0  0
 32 36  1  0  0  0  0
 33 26  1  0  0  0  0
 33 39  1  0  0  0  0
 36 30  1  0  0  0  0
 36 35  1  0  0  0  0
 36 29  1  0  0  0  0
 37 30  1  0  0  0  0
 38 33  1  0  0  0  0
 40 37  1  0  0  0  0
M  END
>  <MODEL>
1

>  <REMARK>
 VINA RESULT:      -7.4      0.000      0.000
  Name = 
  9 active torsions:
  status: ('A' for Active; 'I' for Inactive)
    1  A    between atoms: C_3  and  C_20
    2  A    between atoms: C_3  and  C_24
    3  A    between atoms: C_7  and  C_11
    4  A    between atoms: O_10  and  C_31
    5  A    between atoms: N_16  and  C_38
    6  A    between atoms: C_19  and  C_27
    7  A    between atoms: C_19  and  C_31
    8  A    between atoms: C_20  and  C_22
    9  A    between atoms: C_22  and  C_38
                            x       y       z     vdW  Elec       q    Type
                         _______ _______ _______ _____ _____    ______ ____

>  <TORSDO>
F 9

$$$$
=
 OpenBabel11062419323D

 40 43  0  0  1  0  0  0  0  0999 V2000
  193.0950  175.9190  145.3690 C   0  0  0  0  0  0  0  0  0  0  0  0
  192.7670  176.1460  146.6370 C   0  0  0  0  0  2  0  0  0  0  0  0
  191.0600  172.3940  143.4740 C   0  0  0  0  0  3  0  0  0  0  0  0
  192.1460  172.5070  144.3480 C   0  0  0  0  0  0  0  0  0  0  0  0
  192.2880  173.6900  145.0740 O   0  0  0  0  0  0  0  0  0  0  0  0
  193.0640  171.4420  144.4710 C   0  0  0  0  0  0  0  0  0  0  0  0
  194.1780  171.5040  145.4960 C   0  0  2  0  0  3  0  0  0  0  0  0
  194.6100  173.9460  145.7730 C   0  0  0  0  0  2  0  0  0  0  0  0
  190.8950  171.2520  142.6900 C   0  0  0  0  0  0  0  0  0  0  0  0
  191.8210  170.2130  142.7700 C   0  0  0  0  0  3  0  0  0  0  0  0
  193.4460  174.5110  144.9650 C   0  0  2  0  0  3  0  0  0  0  0  0
  195.1530  172.6510  145.1760 C   0  0  1  0  0  3  0  0  0  0  0  0
  189.7900  171.1530  141.8000 N   0  0  0  0  0  1  0  0  0  0  0  0
  192.8950  170.3060  143.6570 C   0  0  0  0  0  3  0  0  0  0  0  0
  194.8460  170.1730  145.7350 C   0  0  0  0  0  3  0  0  0  0  0  0
  194.6790  169.5790  146.7890 O   0  0  0  0  0  0  0  0  0  0  0  0
  196.5950  172.4080  145.6540 C   0  0  2  0  0  3  0  0  0  0  0  0
  197.0570  173.4620  146.4480 O   0  0  0  0  0  1  0  0  0  0  0  0
  197.9410  170.9970  144.2680 O   0  0  0  0  0  0  0  0  0  0  0  0
  197.5190  172.1620  144.5050 C   0  0  0  0  0  0  0  0  0  0  0  0
  197.1010  173.8400  142.7560 C   0  0  0  0  0  1  0  0  0  0  0  0
  197.9410  173.2430  143.7310 O   0  0  0  0  0  0  0  0  0  0  0  0
  192.9120  177.0390  144.3810 C   0  0  0  0  0  2  0  0  0  0  0  0
  191.5110  177.6340  144.4340 C   0  0  0  0  0  2  0  0  0  0  0  0
  190.4450  176.5900  144.1360 C   0  0  0  0  0  2  0  0  0  0  0  0
  185.9430  179.5440  146.8620 C   0  0  0  0  0  1  0  0  0  0  0  0
  188.0940  175.4420  143.0080 C   0  0  0  0  0  1  0  0  0  0  0  0
  186.7480  176.8050  144.5680 C   0  0  2  0  0  3  0  0  0  0  0  0
  189.3900  177.0670  147.0870 C   0  0  0  0  0  1  0  0  0  0  0  0
  189.1320  177.0170  144.6480 N   0  0  0  0  0  0  0  0  0  0  0  0
  186.1630  178.1710  144.8090 C   0  0  2  0  0  3  0  0  0  0  0  0
  187.2070  176.3890  145.9570 C   0  0  1  0  0  3  0  0  0  0  0  0
  185.8050  178.1490  146.2870 C   0  0  0  0  0  0  0  0  0  0  0  0
  184.9990  178.4600  143.8680 C   0  0  0  0  0  1  0  0  0  0  0  0
  189.1610  174.8800  145.9630 C   0  0  0  0  0  1  0  0  0  0  0  0
  188.7440  176.3510  145.9080 C   0  0  0  0  0  0  0  0  0  0  0  0
  188.0170  176.8000  143.7070 C   0  0  0  0  0  0  0  0  0  0  0  0
  184.3880  177.6460  146.5620 C   0  0  0  0  0  1  0  0  0  0  0  0
  186.7170  177.2960  146.9290 O   0  0  0  0  0  0  0  0  0  0  0  0
  188.0050  177.8740  142.6250 C   0  0  0  0  0  1  0  0  0  0  0  0
  1  2  2  0  0  0  0
  3  4  1  0  0  0  0
  4  6  2  0  0  0  0
  4  5  1  0  0  0  0
  6  7  1  0  0  0  0
  7 15  1  6  0  0  0
  9 10  1  0  0  0  0
  9  3  2  0  0  0  0
 10 14  2  0  0  0  0
 11  5  1  0  0  0  0
 11  1  1  1  0  0  0
 11  8  1  0  0  0  0
 12  7  1  0  0  0  0
 12 17  1  1  0  0  0
 12  8  1  0  0  0  0
 13  9  1  0  0  0  0
 14  6  1  0  0  0  0
 15 16  2  0  0  0  0
 17 18  1  6  0  0  0
 19 20  2  0  0  0  0
 20 17  1  0  0  0  0
 21 22  1  0  0  0  0
 22 20  1  0  0  0  0
 23 24  1  0  0  0  0
 23  1  1  0  0  0  0
 25 24  1  0  0  0  0
 25 30  1  0  0  0  0
 27 37  1  0  0  0  0
 28 37  1  6  0  0  0
 28 31  1  0  0  0  0
 28 32  1  0  0  0  0
 30 36  1  0  0  0  0
 31 34  1  6  0  0  0
 31 33  1  0  0  0  0
 32 39  1  1  0  0  0
 33 38  1  0  0  0  0
 33 26  1  0  0  0  0
 33 39  1  0  0  0  0
 36 32  1  0  0  0  0
 36 35  1  0  0  0  0
 36 29  1  0  0  0  0
 37 30  1  0  0  0  0
 40 37  1  0  0  0  0
M  END
>  <MODEL>
2

>  <REMARK>
 VINA RESULT:      -7.3      2.268      8.650
  Name = 
  9 active torsions:
  status: ('A' for Active; 'I' for Inactive)
    1  A    between atoms: C_3  and  C_20
    2  A    between atoms: C_3  and  C_24
    3  A    between atoms: C_7  and  C_11
    4  A    between atoms: O_10  and  C_31
    5  A    between atoms: N_16  and  C_38
    6  A    between atoms: C_19  and  C_27
    7  A    between atoms: C_19  and  C_31
    8  A    between atoms: C_20  and  C_22
    9  A    between atoms: C_22  and  C_38
                            x       y       z     vdW  Elec       q    Type
                         _______ _______ _______ _____ _____    ______ ____

>  <TORSDO>
F 9

$$$$
=
 OpenBabel11062419323D

 40 43  0  0  1  0  0  0  0  0999 V2000
  190.7710  172.5390  142.3610 C   0  0  0  0  0  0  0  0  0  0  0  0
  190.2690  171.3140  142.4880 C   0  0  0  0  0  2  0  0  0  0  0  0
  193.7380  170.4500  145.0050 C   0  0  0  0  0  3  0  0  0  0  0  0
  193.4670  171.8010  144.7640 C   0  0  0  0  0  0  0  0  0  0  0  0
  192.2320  172.1360  144.2080 O   0  0  0  0  0  0  0  0  0  0  0  0
  194.4340  172.7800  145.0770 C   0  0  0  0  0  0  0  0  0  0  0  0
  194.1110  174.2530  144.9270 C   0  0  2  0  0  3  0  0  0  0  0  0
  192.3890  174.3150  143.1240 C   0  0  0  0  0  2  0  0  0  0  0  0
  194.9740  170.0550  145.5170 C   0  0  0  0  0  0  0  0  0  0  0  0
  195.9540  171.0100  145.7870 C   0  0  0  0  0  3  0  0  0  0  0  0
  192.1220  172.8210  142.9640 C   0  0  2  0  0  3  0  0  0  0  0  0
  193.8490  174.6090  143.4530 C   0  0  1  0  0  3  0  0  0  0  0  0
  195.2400  168.6770  145.7500 N   0  0  0  0  0  1  0  0  0  0  0  0
  195.6840  172.3620  145.5710 C   0  0  0  0  0  3  0  0  0  0  0  0
  195.1050  175.1560  145.6150 C   0  0  0  0  0  3  0  0  0  0  0  0
  194.7430  175.9060  146.5080 O   0  0  0  0  0  0  0  0  0  0  0  0
  194.1960  176.0610  143.0820 C   0  0  2  0  0  3  0  0  0  0  0  0
  193.0660  176.7650  142.6540 O   0  0  0  0  0  1  0  0  0  0  0  0
  195.1370  175.5340  140.9470 O   0  0  0  0  0  0  0  0  0  0  0  0
  195.2810  176.1190  142.0550 C   0  0  0  0  0  0  0  0  0  0  0  0
  197.5490  176.1370  143.0050 C   0  0  0  0  0  1  0  0  0  0  0  0
  196.4670  176.7880  142.3580 O   0  0  0  0  0  0  0  0  0  0  0  0
  190.0500  173.5080  141.4640 C   0  0  0  0  0  2  0  0  0  0  0  0
  188.8750  174.1800  142.1640 C   0  0  0  0  0  2  0  0  0  0  0  0
  189.0170  175.6950  142.1720 C   0  0  0  0  0  2  0  0  0  0  0  0
  184.9830  176.7990  146.5240 C   0  0  0  0  0  1  0  0  0  0  0  0
  190.2020  177.8010  143.6820 C   0  0  0  0  0  1  0  0  0  0  0  0
  188.1380  177.9170  145.0340 C   0  0  2  0  0  3  0  0  0  0  0  0
  185.9820  176.5760  142.3980 C   0  0  0  0  0  1  0  0  0  0  0  0
  188.2520  176.2900  143.2800 N   0  0  0  0  0  0  0  0  0  0  0  0
  187.3890  177.2940  146.1830 C   0  0  2  0  0  3  0  0  0  0  0  0
  187.0280  178.2230  144.0400 C   0  0  1  0  0  3  0  0  0  0  0  0
  185.9750  177.8270  146.0180 C   0  0  0  0  0  0  0  0  0  0  0  0
  188.0460  177.6110  147.5220 C   0  0  0  0  0  1  0  0  0  0  0  0
  187.7420  178.1520  141.6780 C   0  0  0  0  0  1  0  0  0  0  0  0
  187.2550  177.2860  142.8420 C   0  0  0  0  0  0  0  0  0  0  0  0
  189.0830  176.9600  144.2980 C   0  0  0  0  0  0  0  0  0  0  0  0
  185.7330  179.1440  146.7540 C   0  0  0  0  0  1  0  0  0  0  0  0
  185.7610  178.0340  144.6450 O   0  0  0  0  0  0  0  0  0  0  0  0
  189.7340  175.9380  145.2240 C   0  0  0  0  0  1  0  0  0  0  0  0
  1  2  2  0  0  0  0
  3  9  1  0  0  0  0
  4  3  2  0  0  0  0
  4  6  1  0  0  0  0
  5  4  1  0  0  0  0
  6 14  2  0  0  0  0
  7  6  1  0  0  0  0
  7 15  1  6  0  0  0
  8 12  1  0  0  0  0
  9 13  1  0  0  0  0
  9 10  2  0  0  0  0
 11  1  1  1  0  0  0
 11  8  1  0  0  0  0
 11  5  1  0  0  0  0
 12 17  1  1  0  0  0
 12  7  1  0  0  0  0
 14 10  1  0  0  0  0
 15 16  2  0  0  0  0
 17 18  1  6  0  0  0
 19 20  2  0  0  0  0
 20 22  1  0  0  0  0
 20 17  1  0  0  0  0
 22 21  1  0  0  0  0
 23 24  1  0  0  0  0
 23  1  1  0  0  0  0
 24 25  1  0  0  0  0
 25 30  1  0  0  0  0
 27 37  1  0  0  0  0
 28 37  1  6  0  0  0
 28 31  1  0  0  0  0
 29 36  1  0  0  0  0
 30 37  1  0  0  0  0
 31 34  1  1  0  0  0
 32 39  1  1  0  0  0
 32 28  1  0  0  0  0
 33 31  1  0  0  0  0
 33 26  1  0  0  0  0
 33 38  1  0  0  0  0
 35 36  1  0  0  0  0
 36 30  1  0  0  0  0
 36 32  1  0  0  0  0
 37 40  1  0  0  0  0
 39 33  1  0  0  0  0
M  END
>  <MODEL>
3

>  <REMARK>
 VINA RESULT:      -7.3      2.380      8.641
  Name = 
  9 active torsions:
  status: ('A' for Active; 'I' for Inactive)
    1  A    between atoms: C_3  and  C_20
    2  A    between atoms: C_3  and  C_24
    3  A    between atoms: C_7  and  C_11
    4  A    between atoms: O_10  and  C_31
    5  A    between atoms: N_16  and  C_38
    6  A    between atoms: C_19  and  C_27
    7  A    between atoms: C_19  and  C_31
    8  A    between atoms: C_20  and  C_22
    9  A    between atoms: C_22  and  C_38
                            x       y       z     vdW  Elec       q    Type
                         _______ _______ _______ _____ _____    ______ ____

>  <TORSDO>
F 9

$$$$
=
 OpenBabel11062419323D

 40 43  0  0  1  0  0  0  0  0999 V2000
  191.1090  172.3440  142.8680 C   0  0  0  0  0  0  0  0  0  0  0  0
  190.1440  171.8810  142.0800 C   0  0  0  0  0  2  0  0  0  0  0  0
  192.3110  173.7290  138.7690 C   0  0  0  0  0  3  0  0  0  0  0  0
  193.0320  173.5110  139.9480 C   0  0  0  0  0  0  0  0  0  0  0  0
  192.4610  172.7030  140.9310 O   0  0  0  0  0  0  0  0  0  0  0  0
  194.3000  174.1090  140.1180 C   0  0  0  0  0  0  0  0  0  0  0  0
  195.1390  173.7910  141.3380 C   0  0  2  0  0  3  0  0  0  0  0  0
  193.4640  173.2120  143.0940 C   0  0  0  0  0  2  0  0  0  0  0  0
  192.8140  174.5650  137.7730 C   0  0  0  0  0  0  0  0  0  0  0  0
  194.0450  175.1970  137.9510 C   0  0  0  0  0  3  0  0  0  0  0  0
  192.1970  173.1810  142.2460 C   0  0  2  0  0  3  0  0  0  0  0  0
  194.4470  174.2800  142.6230 C   0  0  1  0  0  3  0  0  0  0  0  0
  192.0670  174.7840  136.5830 N   0  0  0  0  0  1  0  0  0  0  0  0
  194.7820  174.9680  139.1140 C   0  0  0  0  0  3  0  0  0  0  0  0
  196.5780  174.2290  141.2050 C   0  0  0  0  0  3  0  0  0  0  0  0
  197.4520  173.4110  140.9660 O   0  0  0  0  0  0  0  0  0  0  0  0
  195.4140  174.6520  143.7600 C   0  0  2  0  0  3  0  0  0  0  0  0
  195.2150  173.8470  144.8860 O   0  0  0  0  0  1  0  0  0  0  0  0
  196.2150  176.9060  143.7630 O   0  0  0  0  0  0  0  0  0  0  0  0
  195.3110  176.1000  144.1150 C   0  0  0  0  0  0  0  0  0  0  0  0
  194.3820  176.9580  146.2250 C   0  0  0  0  0  1  0  0  0  0  0  0
  194.2280  176.5350  144.8790 O   0  0  0  0  0  0  0  0  0  0  0  0
  190.9540  172.1660  144.3540 C   0  0  0  0  0  2  0  0  0  0  0  0
  189.9040  173.1010  144.9420 C   0  0  0  0  0  2  0  0  0  0  0  0
  190.4020  174.5370  145.0080 C   0  0  0  0  0  2  0  0  0  0  0  0
  185.3320  177.1190  142.9950 C   0  0  0  0  0  1  0  0  0  0  0  0
  190.2860  177.0060  146.4250 C   0  0  0  0  0  1  0  0  0  0  0  0
  188.2920  177.6090  145.0970 C   0  0  2  0  0  3  0  0  0  0  0  0
  189.1900  175.5000  142.2430 C   0  0  0  0  0  1  0  0  0  0  0  0
  189.3210  175.4850  144.6920 N   0  0  0  0  0  0  0  0  0  0  0  0
  186.8040  177.4240  144.9680 C   0  0  2  0  0  3  0  0  0  0  0  0
  188.7580  177.5830  143.6480 C   0  0  1  0  0  3  0  0  0  0  0  0
  186.5060  177.8970  143.5530 C   0  0  0  0  0  0  0  0  0  0  0  0
  186.0470  178.1610  146.0680 C   0  0  0  0  0  1  0  0  0  0  0  0
  191.0440  176.7070  143.3390 C   0  0  0  0  0  1  0  0  0  0  0  0
  189.5790  176.2930  143.4840 C   0  0  0  0  0  0  0  0  0  0  0  0
  189.0220  176.4420  145.7730 C   0  0  0  0  0  0  0  0  0  0  0  0
  186.1890  179.3900  143.4670 C   0  0  0  0  0  1  0  0  0  0  0  0
  187.6440  177.6330  142.7740 O   0  0  0  0  0  0  0  0  0  0  0  0
  188.1950  175.7800  146.8700 C   0  0  0  0  0  1  0  0  0  0  0  0
  1 23  1  0  0  0  0
  2  1  2  0  0  0  0
  3  4  1  0  0  0  0
  4  6  2  0  0  0  0
  4  5  1  0  0  0  0
  5 11  1  0  0  0  0
  6  7  1  0  0  0  0
  7 15  1  6  0  0  0
  7 12  1  0  0  0  0
  9 10  1  0  0  0  0
  9  3  2  0  0  0  0
 10 14  2  0  0  0  0
 11  1  1  1  0  0  0
 11  8  1  0  0  0  0
 12  8  1  0  0  0  0
 12 17  1  1  0  0  0
 13  9  1  0  0  0  0
 14  6  1  0  0  0  0
 16 15  2  0  0  0  0
 17 20  1  0  0  0  0
 17 18  1  1  0  0  0
 19 20  2  0  0  0  0
 20 22  1  0  0  0  0
 22 21  1  0  0  0  0
 23 24  1  0  0  0  0
 24 25  1  0  0  0  0
 26 33  1  0  0  0  0
 28 37  1  1  0  0  0
 29 36  1  0  0  0  0
 30 25  1  0  0  0  0
 30 37  1  0  0  0  0
 31 28  1  0  0  0  0
 31 34  1  1  0  0  0
 32 39  1  6  0  0  0
 32 28  1  0  0  0  0
 33 31  1  0  0  0  0
 35 36  1  0  0  0  0
 36 32  1  0  0  0  0
 36 30  1  0  0  0  0
 37 27  1  0  0  0  0
 37 40  1  0  0  0  0
 38 33  1  0  0  0  0
 39 33  1  0  0  0  0
M  END
>  <MODEL>
4

>  <REMARK>
 VINA RESULT:      -7.1      2.364      7.993
  Name = 
  9 active torsions:
  status: ('A' for Active; 'I' for Inactive)
    1  A    between atoms: C_3  and  C_20
    2  A    between atoms: C_3  and  C_24
    3  A    between atoms: C_7  and  C_11
    4  A    between atoms: O_10  and  C_31
    5  A    between atoms: N_16  and  C_38
    6  A    between atoms: C_19  and  C_27
    7  A    between atoms: C_19  and  C_31
    8  A    between atoms: C_20  and  C_22
    9  A    between atoms: C_22  and  C_38
                            x       y       z     vdW  Elec       q    Type
                         _______ _______ _______ _____ _____    ______ ____

>  <TORSDO>
F 9

$$$$
=
 OpenBabel11062419323D

 40 43  0  0  1  0  0  0  0  0999 V2000
  190.2800  172.4570  143.6080 C   0  0  0  0  0  0  0  0  0  0  0  0
  189.3110  171.9260  144.3480 C   0  0  0  0  0  2  0  0  0  0  0  0
  193.3620  175.3040  145.2060 C   0  0  0  0  0  3  0  0  0  0  0  0
  193.4560  174.0660  144.5610 C   0  0  0  0  0  0  0  0  0  0  0  0
  192.3560  173.6200  143.8290 O   0  0  0  0  0  0  0  0  0  0  0  0
  194.6400  173.3050  144.6660 C   0  0  0  0  0  0  0  0  0  0  0  0
  194.7980  172.0200  143.8810 C   0  0  2  0  0  3  0  0  0  0  0  0
  192.4610  171.1940  143.5940 C   0  0  0  0  0  2  0  0  0  0  0  0
  194.4150  175.7780  145.9890 C   0  0  0  0  0  0  0  0  0  0  0  0
  195.5720  175.0130  146.1370 C   0  0  0  0  0  3  0  0  0  0  0  0
  191.6910  172.3960  144.1320 C   0  0  2  0  0  3  0  0  0  0  0  0
  193.7720  170.9680  144.3400 C   0  0  1  0  0  3  0  0  0  0  0  0
  194.3040  177.0340  146.6470 N   0  0  0  0  0  1  0  0  0  0  0  0
  195.6840  173.7880  145.4770 C   0  0  0  0  0  3  0  0  0  0  0  0
  196.2200  171.5180  143.8330 C   0  0  0  0  0  3  0  0  0  0  0  0
  196.8150  171.4480  142.7700 O   0  0  0  0  0  0  0  0  0  0  0  0
  194.2390  169.5120  144.1670 C   0  0  2  0  0  3  0  0  0  0  0  0
  193.7600  168.9580  142.9750 O   0  0  0  0  0  1  0  0  0  0  0  0
  192.6960  168.1670  145.4040 O   0  0  0  0  0  0  0  0  0  0  0  0
  193.8510  168.6700  145.3390 C   0  0  0  0  0  0  0  0  0  0  0  0
  196.1490  168.7570  146.2110 C   0  0  0  0  0  1  0  0  0  0  0  0
  194.7660  168.4880  146.3760 O   0  0  0  0  0  0  0  0  0  0  0  0
  189.9360  172.9120  142.2160 C   0  0  0  0  0  2  0  0  0  0  0  0
  188.7540  173.8740  142.1960 C   0  0  0  0  0  2  0  0  0  0  0  0
  189.2050  175.3220  142.3120 C   0  0  0  0  0  2  0  0  0  0  0  0
  184.8850  177.0770  146.1440 C   0  0  0  0  0  1  0  0  0  0  0  0
  190.4880  177.2830  143.9340 C   0  0  0  0  0  1  0  0  0  0  0  0
  188.3170  177.7140  145.0300 C   0  0  2  0  0  3  0  0  0  0  0  0
  186.3170  176.6170  142.1680 C   0  0  0  0  0  1  0  0  0  0  0  0
  188.4060  176.0440  143.3160 N   0  0  0  0  0  0  0  0  0  0  0  0
  187.3600  177.2290  146.0870 C   0  0  2  0  0  3  0  0  0  0  0  0
  187.3830  178.1450  143.9080 C   0  0  1  0  0  3  0  0  0  0  0  0
  186.0620  177.9470  145.7500 C   0  0  0  0  0  0  0  0  0  0  0  0
  187.8940  177.4860  147.4920 C   0  0  0  0  0  1  0  0  0  0  0  0
  188.3510  177.9180  141.6490 C   0  0  0  0  0  1  0  0  0  0  0  0
  187.6160  177.1560  142.7540 C   0  0  0  0  0  0  0  0  0  0  0  0
  189.1990  176.6180  144.4200 C   0  0  0  0  0  0  0  0  0  0  0  0
  185.9220  179.3020  146.4410 C   0  0  0  0  0  1  0  0  0  0  0  0
  186.0410  178.1470  144.3600 O   0  0  0  0  0  0  0  0  0  0  0  0
  189.5880  175.5400  145.4260 C   0  0  0  0  0  1  0  0  0  0  0  0
  1  2  2  0  0  0  0
  3  9  1  0  0  0  0
  4  6  1  0  0  0  0
  4  3  2  0  0  0  0
  5 11  1  0  0  0  0
  5  4  1  0  0  0  0
  6 14  2  0  0  0  0
  7 15  1  1  0  0  0
  7 12  1  0  0  0  0
  7  6  1  0  0  0  0
  8 11  1  0  0  0  0
  8 12  1  0  0  0  0
  9 10  2  0  0  0  0
  9 13  1  0  0  0  0
 11  1  1  6  0  0  0
 12 17  1  6  0  0  0
 14 10  1  0  0  0  0
 16 15  2  0  0  0  0
 17 18  1  6  0  0  0
 17 20  1  0  0  0  0
 20 19  2  0  0  0  0
 20 22  1  0  0  0  0
 21 22  1  0  0  0  0
 23  1  1  0  0  0  0
 24 23  1  0  0  0  0
 24 25  1  0  0  0  0
 25 30  1  0  0  0  0
 27 37  1  0  0  0  0
 28 37  1  6  0  0  0
 28 31  1  0  0  0  0
 29 36  1  0  0  0  0
 30 37  1  0  0  0  0
 31 34  1  1  0  0  0
 32 39  1  1  0  0  0
 32 28  1  0  0  0  0
 33 31  1  0  0  0  0
 33 26  1  0  0  0  0
 33 38  1  0  0  0  0
 35 36  1  0  0  0  0
 36 30  1  0  0  0  0
 36 32  1  0  0  0  0
 37 40  1  0  0  0  0
 39 33  1  0  0  0  0
M  END
>  <MODEL>
5

>  <REMARK>
 VINA RESULT:      -7.1      2.310      9.074
  Name = 
  9 active torsions:
  status: ('A' for Active; 'I' for Inactive)
    1  A    between atoms: C_3  and  C_20
    2  A    between atoms: C_3  and  C_24
    3  A    between atoms: C_7  and  C_11
    4  A    between atoms: O_10  and  C_31
    5  A    between atoms: N_16  and  C_38
    6  A    between atoms: C_19  and  C_27
    7  A    between atoms: C_19  and  C_31
    8  A    between atoms: C_20  and  C_22
    9  A    between atoms: C_22  and  C_38
                            x       y       z     vdW  Elec       q    Type
                         _______ _______ _______ _____ _____    ______ ____

>  <TORSDO>
F 9

$$$$
=
 OpenBabel11062419323D

 40 43  0  0  1  0  0  0  0  0999 V2000
  190.0690  172.9290  142.2530 C   0  0  0  0  0  0  0  0  0  0  0  0
  189.8710  171.9390  143.1180 C   0  0  0  0  0  2  0  0  0  0  0  0
  193.1020  174.1710  139.1840 C   0  0  0  0  0  3  0  0  0  0  0  0
  193.2060  173.8190  140.5330 C   0  0  0  0  0  0  0  0  0  0  0  0
  192.1600  173.0970  141.1080 O   0  0  0  0  0  0  0  0  0  0  0  0
  194.3450  174.2000  141.2750 C   0  0  0  0  0  0  0  0  0  0  0  0
  194.5230  173.7290  142.7030 C   0  0  2  0  0  3  0  0  0  0  0  0
  192.1920  173.3990  143.5280 C   0  0  0  0  0  2  0  0  0  0  0  0
  194.0960  174.9330  138.5700 C   0  0  0  0  0  0  0  0  0  0  0  0
  195.2040  175.3530  139.3050 C   0  0  0  0  0  3  0  0  0  0  0  0
  191.4230  173.5890  142.2240 C   0  0  2  0  0  3  0  0  0  0  0  0
  193.4200  174.3010  143.6110 C   0  0  1  0  0  3  0  0  0  0  0  0
  193.9750  175.2910  137.1990 N   0  0  0  0  0  1  0  0  0  0  0  0
  195.3280  174.9870  140.6460 C   0  0  0  0  0  3  0  0  0  0  0  0
  195.9230  173.9290  143.2290 C   0  0  0  0  0  3  0  0  0  0  0  0
  196.6690  172.9750  143.3780 O   0  0  0  0  0  0  0  0  0  0  0  0
  193.8430  174.4910  145.0770 C   0  0  2  0  0  3  0  0  0  0  0  0
  193.5370  173.3650  145.8490 O   0  0  0  0  0  1  0  0  0  0  0  0
  193.2290  176.8030  145.0160 O   0  0  0  0  0  0  0  0  0  0  0  0
  193.2350  175.7220  145.6680 C   0  0  0  0  0  0  0  0  0  0  0  0
  191.5730  176.4160  147.3430 C   0  0  0  0  0  1  0  0  0  0  0  0
  192.7180  175.6700  146.9620 O   0  0  0  0  0  0  0  0  0  0  0  0
  188.9980  173.2010  141.2330 C   0  0  0  0  0  2  0  0  0  0  0  0
  187.8790  174.0750  141.7860 C   0  0  0  0  0  2  0  0  0  0  0  0
  188.3000  175.5330  141.8840 C   0  0  0  0  0  2  0  0  0  0  0  0
  184.7080  177.1100  146.4690 C   0  0  0  0  0  1  0  0  0  0  0  0
  189.9880  177.0940  143.5660 C   0  0  0  0  0  1  0  0  0  0  0  0
  188.0300  177.5670  144.9960 C   0  0  2  0  0  3  0  0  0  0  0  0
  185.5860  177.1120  142.3100 C   0  0  0  0  0  1  0  0  0  0  0  0
  187.7180  176.1720  143.0760 N   0  0  0  0  0  0  0  0  0  0  0  0
  187.1580  177.0250  146.0970 C   0  0  2  0  0  3  0  0  0  0  0  0
  187.0250  178.2500  144.0810 C   0  0  1  0  0  3  0  0  0  0  0  0
  185.9220  177.9090  146.0410 C   0  0  0  0  0  0  0  0  0  0  0  0
  187.8840  177.0160  147.4380 C   0  0  0  0  0  1  0  0  0  0  0  0
  187.6800  178.2700  141.7010 C   0  0  0  0  0  1  0  0  0  0  0  0
  187.0000  177.4270  142.7820 C   0  0  0  0  0  0  0  0  0  0  0  0
  188.6990  176.4940  144.1280 C   0  0  0  0  0  0  0  0  0  0  0  0
  186.0240  179.1530  146.9220 C   0  0  0  0  0  1  0  0  0  0  0  0
  185.7560  178.3160  144.7070 O   0  0  0  0  0  0  0  0  0  0  0  0
  189.0790  175.2450  144.9160 C   0  0  0  0  0  1  0  0  0  0  0  0
  1  2  2  0  0  0  0
  3  4  1  0  0  0  0
  4  5  1  0  0  0  0
  4  6  2  0  0  0  0
  5 11  1  0  0  0  0
  6  7  1  0  0  0  0
  7 15  1  1  0  0  0
  7 12  1  0  0  0  0
  8 12  1  0  0  0  0
  9  3  2  0  0  0  0
  9 10  1  0  0  0  0
 10 14  2  0  0  0  0
 11  1  1  1  0  0  0
 11  8  1  0  0  0  0
 12 17  1  1  0  0  0
 13  9  1  0  0  0  0
 14  6  1  0  0  0  0
 15 16  2  0  0  0  0
 17 20  1  0  0  0  0
 17 18  1  1  0  0  0
 19 20  2  0  0  0  0
 20 22  1  0  0  0  0
 22 21  1  0  0  0  0
 23 24  1  0  0  0  0
 23  1  1  0  0  0  0
 24 25  1  0  0  0  0
 25 30  1  0  0  0  0
 27 37  1  0  0  0  0
 28 37  1  6  0  0  0
 28 31  1  0  0  0  0
 29 36  1  0  0  0  0
 30 37  1  0  0  0  0
 31 34  1  1  0  0  0
 32 39  1  1  0  0  0
 32 28  1  0  0  0  0
 33 31  1  0  0  0  0
 33 26  1  0  0  0  0
 33 38  1  0  0  0  0
 35 36  1  0  0  0  0
 36 30  1  0  0  0  0
 36 32  1  0  0  0  0
 37 40  1  0  0  0  0
 39 33  1  0  0  0  0
M  END
>  <MODEL>
6

>  <REMARK>
 VINA RESULT:      -7.0      2.161      8.177
  Name = 
  9 active torsions:
  status: ('A' for Active; 'I' for Inactive)
    1  A    between atoms: C_3  and  C_20
    2  A    between atoms: C_3  and  C_24
    3  A    between atoms: C_7  and  C_11
    4  A    between atoms: O_10  and  C_31
    5  A    between atoms: N_16  and  C_38
    6  A    between atoms: C_19  and  C_27
    7  A    between atoms: C_19  and  C_31
    8  A    between atoms: C_20  and  C_22
    9  A    between atoms: C_22  and  C_38
                            x       y       z     vdW  Elec       q    Type
                         _______ _______ _______ _____ _____    ______ ____

>  <TORSDO>
F 9

$$$$
=
 OpenBabel11062419323D

 40 43  0  0  1  0  0  0  0  0999 V2000
  191.3250  172.0400  143.1120 C   0  0  0  0  0  0  0  0  0  0  0  0
  191.1120  170.8750  142.5090 C   0  0  0  0  0  2  0  0  0  0  0  0
  194.9110  171.0830  145.6400 C   0  0  0  0  0  3  0  0  0  0  0  0
  194.5000  172.2430  144.9750 C   0  0  0  0  0  0  0  0  0  0  0  0
  193.1570  172.3550  144.6140 O   0  0  0  0  0  0  0  0  0  0  0  0
  195.4380  173.2560  144.6810 C   0  0  0  0  0  0  0  0  0  0  0  0
  194.9870  174.5640  144.0640 C   0  0  2  0  0  3  0  0  0  0  0  0
  192.9330  173.9540  142.7860 C   0  0  0  0  0  2  0  0  0  0  0  0
  196.2500  170.8980  145.9830 C   0  0  0  0  0  0  0  0  0  0  0  0
  197.1940  171.8730  145.6580 C   0  0  0  0  0  3  0  0  0  0  0  0
  192.7480  172.5160  143.2590 C   0  0  2  0  0  3  0  0  0  0  0  0
  194.4050  174.3340  142.6580 C   0  0  1  0  0  3  0  0  0  0  0  0
  196.6560  169.7110  146.6530 N   0  0  0  0  0  1  0  0  0  0  0  0
  196.7890  173.0440  145.0140 C   0  0  0  0  0  3  0  0  0  0  0  0
  196.0330  175.6500  144.1320 C   0  0  0  0  0  3  0  0  0  0  0  0
  195.7300  176.7760  144.4910 O   0  0  0  0  0  0  0  0  0  0  0  0
  194.5650  175.5310  141.7040 C   0  0  2  0  0  3  0  0  0  0  0  0
  193.4370  176.3570  141.7240 O   0  0  0  0  0  1  0  0  0  0  0  0
  194.0460  174.3750  139.6750 O   0  0  0  0  0  0  0  0  0  0  0  0
  194.8730  175.0840  140.3120 C   0  0  0  0  0  0  0  0  0  0  0  0
  197.2730  175.5750  140.5360 C   0  0  0  0  0  1  0  0  0  0  0  0
  196.1030  175.4210  139.7470 O   0  0  0  0  0  0  0  0  0  0  0  0
  190.1330  172.8970  143.4370 C   0  0  0  0  0  2  0  0  0  0  0  0
  190.0570  173.2450  144.9190 C   0  0  0  0  0  2  0  0  0  0  0  0
  190.4720  174.6850  145.1810 C   0  0  0  0  0  2  0  0  0  0  0  0
  185.1720  177.2390  143.8370 C   0  0  0  0  0  1  0  0  0  0  0  0
  190.2110  176.7660  147.1080 C   0  0  0  0  0  1  0  0  0  0  0  0
  188.1430  177.4880  145.9650 C   0  0  2  0  0  3  0  0  0  0  0  0
  189.1170  176.1320  142.7080 C   0  0  0  0  0  1  0  0  0  0  0  0
  189.3150  175.5910  145.0920 N   0  0  0  0  0  0  0  0  0  0  0  0
  186.6690  177.2190  145.8140 C   0  0  2  0  0  3  0  0  0  0  0  0
  188.5690  177.8160  144.5420 C   0  0  1  0  0  3  0  0  0  0  0  0
  186.2990  177.9660  144.5420 C   0  0  0  0  0  0  0  0  0  0  0  0
  185.8900  177.6360  147.0570 C   0  0  0  0  0  1  0  0  0  0  0  0
  190.9060  177.2110  144.0250 C   0  0  0  0  0  1  0  0  0  0  0  0
  189.4790  176.6620  144.0900 C   0  0  0  0  0  0  0  0  0  0  0  0
  188.9750  176.2620  146.3610 C   0  0  0  0  0  0  0  0  0  0  0  0
  185.8700  179.4110  144.7890 C   0  0  0  0  0  1  0  0  0  0  0  0
  187.4320  177.9690  143.7110 O   0  0  0  0  0  0  0  0  0  0  0  0
  188.2290  175.3130  147.2930 C   0  0  0  0  0  1  0  0  0  0  0  0
  1 23  1  0  0  0  0
  2  1  2  0  0  0  0
  3  9  1  0  0  0  0
  4  3  2  0  0  0  0
  5  4  1  0  0  0  0
  6  4  1  0  0  0  0
  6 14  2  0  0  0  0
  7 15  1  6  0  0  0
  7  6  1  0  0  0  0
  8 11  1  0  0  0  0
  9 13  1  0  0  0  0
 10  9  2  0  0  0  0
 11  1  1  1  0  0  0
 11  5  1  0  0  0  0
 12 17  1  6  0  0  0
 12  8  1  0  0  0  0
 12  7  1  0  0  0  0
 14 10  1  0  0  0  0
 15 16  2  0  0  0  0
 17 18  1  6  0  0  0
 19 20  2  0  0  0  0
 20 17  1  0  0  0  0
 22 20  1  0  0  0  0
 22 21  1  0  0  0  0
 23 24  1  0  0  0  0
 24 25  1  0  0  0  0
 26 33  1  0  0  0  0
 28 37  1  6  0  0  0
 29 36  1  0  0  0  0
 30 25  1  0  0  0  0
 30 37  1  0  0  0  0
 31 28  1  0  0  0  0
 31 34  1  1  0  0  0
 32 39  1  6  0  0  0
 32 28  1  0  0  0  0
 33 38  1  0  0  0  0
 33 31  1  0  0  0  0
 35 36  1  0  0  0  0
 36 32  1  0  0  0  0
 36 30  1  0  0  0  0
 37 27  1  0  0  0  0
 37 40  1  0  0  0  0
 39 33  1  0  0  0  0
M  END
>  <MODEL>
7

>  <REMARK>
 VINA RESULT:      -7.0      2.395      8.587
  Name = 
  9 active torsions:
  status: ('A' for Active; 'I' for Inactive)
    1  A    between atoms: C_3  and  C_20
    2  A    between atoms: C_3  and  C_24
    3  A    between atoms: C_7  and  C_11
    4  A    between atoms: O_10  and  C_31
    5  A    between atoms: N_16  and  C_38
    6  A    between atoms: C_19  and  C_27
    7  A    between atoms: C_19  and  C_31
    8  A    between atoms: C_20  and  C_22
    9  A    between atoms: C_22  and  C_38
                            x       y       z     vdW  Elec       q    Type
                         _______ _______ _______ _____ _____    ______ ____

>  <TORSDO>
F 9

$$$$
=
 OpenBabel11062419323D

 40 43  0  0  1  0  0  0  0  0999 V2000
  191.3910  171.9160  143.4850 C   0  0  0  0  0  0  0  0  0  0  0  0
  191.0910  171.1350  142.4510 C   0  0  0  0  0  2  0  0  0  0  0  0
  195.4120  171.2020  141.6170 C   0  0  0  0  0  3  0  0  0  0  0  0
  195.0170  171.7650  142.8350 C   0  0  0  0  0  0  0  0  0  0  0  0
  193.7340  171.4830  143.3060 O   0  0  0  0  0  0  0  0  0  0  0  0
  195.9060  172.5990  143.5460 C   0  0  0  0  0  0  0  0  0  0  0  0
  195.5350  173.1220  144.9180 C   0  0  2  0  0  3  0  0  0  0  0  0
  193.0420  173.2150  144.8780 C   0  0  0  0  0  2  0  0  0  0  0  0
  196.6650  171.4880  141.0760 C   0  0  0  0  0  0  0  0  0  0  0  0
  197.5350  172.3460  141.7480 C   0  0  0  0  0  3  0  0  0  0  0  0
  192.7760  172.5070  143.5530 C   0  0  2  0  0  3  0  0  0  0  0  0
  194.3140  174.0560  144.8370 C   0  0  1  0  0  3  0  0  0  0  0  0
  197.0510  170.9150  139.8330 N   0  0  0  0  0  1  0  0  0  0  0  0
  197.1580  172.8950  142.9760 C   0  0  0  0  0  3  0  0  0  0  0  0
  196.7060  173.6990  145.6760 C   0  0  0  0  0  3  0  0  0  0  0  0
  197.1880  173.0950  146.6210 O   0  0  0  0  0  0  0  0  0  0  0  0
  194.2720  175.1380  145.9290 C   0  0  2  0  0  3  0  0  0  0  0  0
  193.0210  175.1890  146.5530 O   0  0  0  0  0  1  0  0  0  0  0  0
  194.6580  177.4900  146.1420 O   0  0  0  0  0  0  0  0  0  0  0  0
  194.6500  176.4790  145.3860 C   0  0  0  0  0  0  0  0  0  0  0  0
  196.2840  176.6930  143.5600 C   0  0  0  0  0  1  0  0  0  0  0  0
  194.9480  176.6020  144.0290 O   0  0  0  0  0  0  0  0  0  0  0  0
  190.2790  172.3130  144.4160 C   0  0  0  0  0  2  0  0  0  0  0  0
  189.2340  173.1850  143.7310 C   0  0  0  0  0  2  0  0  0  0  0  0
  189.6910  174.6330  143.6260 C   0  0  0  0  0  2  0  0  0  0  0  0
  184.7370  177.0540  146.0790 C   0  0  0  0  0  1  0  0  0  0  0  0
  190.6370  177.0230  144.8540 C   0  0  0  0  0  1  0  0  0  0  0  0
  188.3010  177.5900  145.4210 C   0  0  2  0  0  3  0  0  0  0  0  0
  186.8530  175.6640  142.6650 C   0  0  0  0  0  1  0  0  0  0  0  0
  188.7170  175.5400  144.2540 N   0  0  0  0  0  0  0  0  0  0  0  0
  187.1800  177.3380  146.3950 C   0  0  2  0  0  3  0  0  0  0  0  0
  187.5730  177.6550  144.0860 C   0  0  1  0  0  3  0  0  0  0  0  0
  185.9510  177.8620  145.6680 C   0  0  0  0  0  0  0  0  0  0  0  0
  187.4550  177.9840  147.7480 C   0  0  0  0  0  1  0  0  0  0  0  0
  188.9270  176.9090  142.1620 C   0  0  0  0  0  1  0  0  0  0  0  0
  188.0200  176.4170  143.2920 C   0  0  0  0  0  0  0  0  0  0  0  0
  189.2940  176.4300  145.2800 C   0  0  0  0  0  0  0  0  0  0  0  0
  185.6700  179.3390  145.9390 C   0  0  0  0  0  1  0  0  0  0  0  0
  186.1710  177.6920  144.2920 O   0  0  0  0  0  0  0  0  0  0  0  0
  189.5170  175.6770  146.5870 C   0  0  0  0  0  1  0  0  0  0  0  0
  1 23  1  0  0  0  0
  2  1  2  0  0  0  0
  3  4  1  0  0  0  0
  4  5  1  0  0  0  0
  4  6  2  0  0  0  0
  5 11  1  0  0  0  0
  6  7  1  0  0  0  0
  7 15  1  6  0  0  0
  9  3  2  0  0  0  0
  9 10  1  0  0  0  0
 10 14  2  0  0  0  0
 11  1  1  1  0  0  0
 11  8  1  0  0  0  0
 12  8  1  0  0  0  0
 12  7  1  0  0  0  0
 12 17  1  1  0  0  0
 13  9  1  0  0  0  0
 14  6  1  0  0  0  0
 15 16  2  0  0  0  0
 17 18  1  6  0  0  0
 20 17  1  0  0  0  0
 20 19  2  0  0  0  0
 21 22  1  0  0  0  0
 22 20  1  0  0  0  0
 24 23  1  0  0  0  0
 25 24  1  0  0  0  0
 25 30  1  0  0  0  0
 27 37  1  0  0  0  0
 28 37  1  6  0  0  0
 28 31  1  0  0  0  0
 29 36  1  0  0  0  0
 30 37  1  0  0  0  0
 31 34  1  1  0  0  0
 32 39  1  1  0  0  0
 32 28  1  0  0  0  0
 33 38  1  0  0  0  0
 33 26  1  0  0  0  0
 33 31  1  0  0  0  0
 35 36  1  0  0  0  0
 36 32  1  0  0  0  0
 36 30  1  0  0  0  0
 37 40  1  0  0  0  0
 39 33  1  0  0  0  0
M  END
>  <MODEL>
8

>  <REMARK>
 VINA RESULT:      -6.9      2.282      8.504
  Name = 
  9 active torsions:
  status: ('A' for Active; 'I' for Inactive)
    1  A    between atoms: C_3  and  C_20
    2  A    between atoms: C_3  and  C_24
    3  A    between atoms: C_7  and  C_11
    4  A    between atoms: O_10  and  C_31
    5  A    between atoms: N_16  and  C_38
    6  A    between atoms: C_19  and  C_27
    7  A    between atoms: C_19  and  C_31
    8  A    between atoms: C_20  and  C_22
    9  A    between atoms: C_22  and  C_38
                            x       y       z     vdW  Elec       q    Type
                         _______ _______ _______ _____ _____    ______ ____

>  <TORSDO>
F 9

$$$$
=
 OpenBabel11062419323D

 40 43  0  0  1  0  0  0  0  0999 V2000
  192.8510  175.4620  145.2550 C   0  0  0  0  0  0  0  0  0  0  0  0
  192.8040  175.5020  146.5820 C   0  0  0  0  0  2  0  0  0  0  0  0
  194.5340  171.3310  145.7730 C   0  0  0  0  0  3  0  0  0  0  0  0
  194.0510  172.0270  144.6600 C   0  0  0  0  0  0  0  0  0  0  0  0
  193.9750  173.4180  144.7350 O   0  0  0  0  0  0  0  0  0  0  0  0
  193.6510  171.3200  143.5060 C   0  0  0  0  0  0  0  0  0  0  0  0
  193.2350  172.0660  142.2550 C   0  0  2  0  0  3  0  0  0  0  0  0
  192.3520  174.2370  143.1090 C   0  0  0  0  0  2  0  0  0  0  0  0
  194.5870  169.9380  145.7700 C   0  0  0  0  0  0  0  0  0  0  0  0
  194.1520  169.2260  144.6520 C   0  0  0  0  0  3  0  0  0  0  0  0
  192.7460  174.1200  144.5780 C   0  0  2  0  0  3  0  0  0  0  0  0
  191.9610  172.8910  142.5070 C   0  0  1  0  0  3  0  0  0  0  0  0
  195.0730  169.2410  146.9120 N   0  0  0  0  0  1  0  0  0  0  0  0
  193.6910  169.9130  143.5280 C   0  0  0  0  0  3  0  0  0  0  0  0
  193.1720  171.1890  141.0280 C   0  0  0  0  0  3  0  0  0  0  0  0
  193.9660  171.3470  140.1150 O   0  0  0  0  0  0  0  0  0  0  0  0
  191.0850  173.1000  141.2600 C   0  0  2  0  0  3  0  0  0  0  0  0
  190.8990  174.4590  140.9860 O   0  0  0  0  0  1  0  0  0  0  0  0
  189.7060  171.2750  141.9610 O   0  0  0  0  0  0  0  0  0  0  0  0
  189.7720  172.3980  141.3880 C   0  0  0  0  0  0  0  0  0  0  0  0
  188.2020  172.6600  139.5130 C   0  0  0  0  0  1  0  0  0  0  0  0
  188.6350  172.9780  140.8270 O   0  0  0  0  0  0  0  0  0  0  0  0
  192.8160  176.7670  144.5070 C   0  0  0  0  0  2  0  0  0  0  0  0
  191.4990  177.5090  144.7000 C   0  0  0  0  0  2  0  0  0  0  0  0
  190.3440  176.7940  144.0150 C   0  0  0  0  0  2  0  0  0  0  0  0
  185.9700  179.4530  147.2110 C   0  0  0  0  0  1  0  0  0  0  0  0
  187.9490  175.6700  142.9580 C   0  0  0  0  0  1  0  0  0  0  0  0
  186.6790  176.8940  144.6880 C   0  0  2  0  0  3  0  0  0  0  0  0
  189.4710  177.0470  147.0500 C   0  0  0  0  0  1  0  0  0  0  0  0
  189.0590  177.1540  144.6350 N   0  0  0  0  0  0  0  0  0  0  0  0
  186.0850  178.2270  145.0590 C   0  0  2  0  0  3  0  0  0  0  0  0
  187.2330  176.3960  146.0150 C   0  0  1  0  0  3  0  0  0  0  0  0
  185.8220  178.0970  146.5510 C   0  0  0  0  0  0  0  0  0  0  0  0
  184.8580  178.5520  144.2130 C   0  0  0  0  0  1  0  0  0  0  0  0
  189.2110  174.9360  145.7960 C   0  0  0  0  0  1  0  0  0  0  0  0
  188.7640  176.3970  145.8670 C   0  0  0  0  0  0  0  0  0  0  0  0
  187.8910  176.9760  143.7520 C   0  0  0  0  0  0  0  0  0  0  0  0
  184.4350  177.5440  146.8770 C   0  0  0  0  0  1  0  0  0  0  0  0
  186.7890  177.2240  147.0750 O   0  0  0  0  0  0  0  0  0  0  0  0
  187.7900  178.1210  142.7490 C   0  0  0  0  0  1  0  0  0  0  0  0
  1  2  2  0  0  0  0
  4  5  1  0  0  0  0
  4  3  2  0  0  0  0
  6 14  2  0  0  0  0
  6  4  1  0  0  0  0
  7 15  1  6  0  0  0
  7 12  1  0  0  0  0
  7  6  1  0  0  0  0
  8 11  1  0  0  0  0
  9  3  1  0  0  0  0
  9 13  1  0  0  0  0
 10  9  2  0  0  0  0
 11  5  1  0  0  0  0
 11  1  1  6  0  0  0
 12 17  1  6  0  0  0
 12  8  1  0  0  0  0
 14 10  1  0  0  0  0
 16 15  2  0  0  0  0
 17 18  1  1  0  0  0
 17 20  1  0  0  0  0
 20 19  2  0  0  0  0
 21 22  1  0  0  0  0
 22 20  1  0  0  0  0
 23 24  1  0  0  0  0
 23  1  1  0  0  0  0
 25 30  1  0  0  0  0
 25 24  1  0  0  0  0
 27 37  1  0  0  0  0
 28 37  1  6  0  0  0
 28 31  1  0  0  0  0
 28 32  1  0  0  0  0
 30 36  1  0  0  0  0
 31 34  1  6  0  0  0
 31 33  1  0  0  0  0
 32 39  1  1  0  0  0
 33 38  1  0  0  0  0
 33 39  1  0  0  0  0
 33 26  1  0  0  0  0
 35 36  1  0  0  0  0
 36 32  1  0  0  0  0
 36 29  1  0  0  0  0
 37 30  1  0  0  0  0
 40 37  1  0  0  0  0
M  END
>  <MODEL>
9

>  <REMARK>
 VINA RESULT:      -6.9      2.488      7.916
  Name = 
  9 active torsions:
  status: ('A' for Active; 'I' for Inactive)
    1  A    between atoms: C_3  and  C_20
    2  A    between atoms: C_3  and  C_24
    3  A    between atoms: C_7  and  C_11
    4  A    between atoms: O_10  and  C_31
    5  A    between atoms: N_16  and  C_38
    6  A    between atoms: C_19  and  C_27
    7  A    between atoms: C_19  and  C_31
    8  A    between atoms: C_20  and  C_22
    9  A    between atoms: C_22  and  C_38
                            x       y       z     vdW  Elec       q    Type
                         _______ _______ _______ _____ _____    ______ ____

>  <TORSDO>
F 9

$$$$
