=
 OpenBabel11072408353D

 26 29  0  0  1  0  0  0  0  0999 V2000
  188.6210  175.7120  144.2570 C   0  0  2  0  0  3  0  0  0  0  0  0
  185.8720  179.2480  142.7200 C   0  0  0  0  0  2  0  0  0  0  0  0
  187.0950  178.4450  143.0530 C   0  0  0  0  0  0  0  0  0  0  0  0
  184.6210  178.6260  143.2660 C   0  0  0  0  0  0  0  0  0  0  0  0
  188.1160  178.2560  142.0960 N   0  0  0  0  0  0  0  0  0  0  0  0
  184.4220  178.5350  144.5840 C   0  0  0  0  0  3  0  0  0  0  0  0
  189.2460  177.6220  142.7500 C   0  0  0  0  0  2  0  0  0  0  0  0
  188.7580  177.2500  144.1580 C   0  0  1  0  0  3  0  0  0  0  0  0
  187.4350  177.9580  144.2470 C   0  0  0  0  0  0  0  0  0  0  0  0
  185.4640  179.0050  145.5500 C   0  0  0  0  0  2  0  0  0  0  0  0
  183.3920  178.0420  142.1620 Cl  0  0  0  0  0  0  0  0  0  0  0  0
  186.6640  178.0630  145.5460 C   0  0  0  0  0  3  0  0  0  0  0  0
  190.0750  173.7650  145.3290 C   0  0  0  0  0  1  0  0  0  0  0  0
  188.6660  175.3860  146.8100 C   0  0  1  0  0  3  0  0  0  0  0  0
  188.9440  174.3900  147.7500 O   0  0  0  0  0  1  0  0  0  0  0  0
  189.9590  176.0830  146.4190 C   0  0  0  0  0  2  0  0  0  0  0  0
  189.3290  175.0900  145.4680 C   0  0  2  0  0  0  0  0  0  0  0  0
  189.0730  175.0300  142.9920 C   0  0  0  0  0  0  0  0  0  0  0  0
  190.2690  174.9410  142.7590 O   0  0  0  0  0  0  0  0  0  0  0  0
  188.3960  174.9710  140.6510 N   0  0  0  0  0  0  0  0  0  0  0  0
  188.1860  172.7440  140.4930 O   0  0  0  0  0  0  0  0  0  0  0  0
  188.7340  174.0600  138.4860 N   0  0  0  0  0  1  0  0  0  0  0  0
  188.4390  173.9500  139.8720 C   0  0  0  0  0  0  0  0  0  0  0  0
  188.9080  172.1620  142.7090 C   0  0  0  0  0  1  0  0  0  0  0  0
  188.0650  174.5150  141.9950 C   0  0  1  0  0  3  0  0  0  0  0  0
  187.9340  172.9750  141.8670 C   0  0  1  0  0  3  0  0  0  0  0  0
  1 18  1  6  0  0  0
  1 17  1  0  0  0  0
  2  3  1  0  0  0  0
  2  4  1  0  0  0  0
  3  9  1  0  0  0  0
  4  6  2  0  0  0  0
  5  7  1  0  0  0  0
  5  3  2  0  0  0  0
  6 10  1  0  0  0  0
  7  8  1  0  0  0  0
  8  9  1  0  0  0  0
  8  1  1  6  0  0  0
  9 12  2  0  0  0  0
 11  4  1  0  0  0  0
 12 10  1  0  0  0  0
 14 15  1  1  0  0  0
 16 14  1  0  0  0  0
 17 13  1  6  0  0  0
 17 16  1  0  0  0  0
 17 14  1  0  0  0  0
 19 18  2  0  0  0  0
 20 25  1  0  0  0  0
 21 26  1  0  0  0  0
 22 23  1  0  0  0  0
 23 21  1  0  0  0  0
 23 20  2  0  0  0  0
 25 18  1  1  0  0  0
 26 25  1  0  0  0  0
 26 24  1  1  0  0  0
M  END
>  <MODEL>
1

>  <REMARK>
 VINA RESULT:      -7.7      0.000      0.000
  Name = 
  4 active torsions:
  status: ('A' for Active; 'I' for Inactive)
    1  A    between atoms: C_2  and  C_4
    2  A    between atoms: C_2  and  C_21
    3  A    between atoms: C_4  and  C_13
    4  A    between atoms: C_4  and  C_26
                            x       y       z     vdW  Elec       q    Type
                         _______ _______ _______ _____ _____    ______ ____

>  <TORSDO>
F 4

$$$$
=
 OpenBabel11072408353D

 26 29  0  0  1  0  0  0  0  0999 V2000
  187.2060  177.8810  145.1180 C   0  0  2  0  0  3  0  0  0  0  0  0
  190.9430  175.0210  144.5870 C   0  0  0  0  0  2  0  0  0  0  0  0
  189.8230  175.7850  145.2290 C   0  0  0  0  0  0  0  0  0  0  0  0
  191.1450  175.4100  143.1530 C   0  0  0  0  0  0  0  0  0  0  0  0
  188.9160  175.1400  146.1000 N   0  0  0  0  0  0  0  0  0  0  0  0
  191.5570  176.6390  142.8300 C   0  0  0  0  0  3  0  0  0  0  0  0
  188.0770  176.1510  146.7170 C   0  0  0  0  0  3  0  0  0  0  0  0
  188.4090  177.4660  145.9970 C   0  0  1  0  0  3  0  0  0  0  0  0
  189.6230  177.1030  145.1900 C   0  0  0  0  0  0  0  0  0  0  0  0
  191.7810  177.6740  143.8870 C   0  0  0  0  0  2  0  0  0  0  0  0
  190.8660  174.2290  141.8890 Cl  0  0  0  0  0  0  0  0  0  0  0  0
  190.4500  178.1450  144.4670 C   0  0  0  0  0  2  0  0  0  0  0  0
  185.1210  176.7060  146.2660 C   0  0  0  0  0  1  0  0  0  0  0  0
  185.0420  179.2100  145.5370 C   0  0  1  0  0  3  0  0  0  0  0  0
  183.6790  178.9830  145.7470 O   0  0  0  0  0  1  0  0  0  0  0  0
  185.7780  179.1120  146.8640 C   0  0  0  0  0  2  0  0  0  0  0  0
  185.8730  177.9740  145.8700 C   0  0  2  0  0  0  0  0  0  0  0  0
  187.0570  176.9820  143.9180 C   0  0  0  0  0  0  0  0  0  0  0  0
  186.6010  175.8590  144.0700 O   0  0  0  0  0  0  0  0  0  0  0  0
  188.1060  176.3260  141.8170 N   0  0  0  0  0  0  0  0  0  0  0  0
  186.5400  177.1860  140.4610 O   0  0  0  0  0  0  0  0  0  0  0  0
  187.8790  175.2630  139.7070 N   0  0  0  0  0  1  0  0  0  0  0  0
  187.5290  176.2480  140.6710 C   0  0  0  0  0  0  0  0  0  0  0  0
  185.0090  177.9680  142.1390 C   0  0  0  0  0  1  0  0  0  0  0  0
  187.5190  177.4370  142.5560 C   0  0  1  0  0  3  0  0  0  0  0  0
  186.4350  178.0120  141.6070 C   0  0  1  0  0  3  0  0  0  0  0  0
  1 18  1  6  0  0  0
  1 17  1  0  0  0  0
  2  3  1  0  0  0  0
  3  5  1  0  0  0  0
  4  2  1  0  0  0  0
  5  7  2  0  0  0  0
  6  4  2  0  0  0  0
  6 10  1  0  0  0  0
  8  1  1  6  0  0  0
  8  7  1  0  0  0  0
  9  3  2  0  0  0  0
  9  8  1  0  0  0  0
 10 12  1  0  0  0  0
 11  4  1  0  0  0  0
 12  9  1  0  0  0  0
 14 15  1  1  0  0  0
 14 17  1  0  0  0  0
 14 16  1  0  0  0  0
 17 13  1  1  0  0  0
 17 16  1  0  0  0  0
 18 19  2  0  0  0  0
 20 25  1  0  0  0  0
 21 23  1  0  0  0  0
 21 26  1  0  0  0  0
 22 23  1  0  0  0  0
 23 20  2  0  0  0  0
 25 18  1  1  0  0  0
 26 24  1  1  0  0  0
 26 25  1  0  0  0  0
M  END
>  <MODEL>
2

>  <REMARK>
 VINA RESULT:      -7.0      3.071      5.117
  Name = 
  4 active torsions:
  status: ('A' for Active; 'I' for Inactive)
    1  A    between atoms: C_2  and  C_4
    2  A    between atoms: C_2  and  C_21
    3  A    between atoms: C_4  and  C_13
    4  A    between atoms: C_4  and  C_26
                            x       y       z     vdW  Elec       q    Type
                         _______ _______ _______ _____ _____    ______ ____

>  <TORSDO>
F 4

$$$$
=
 OpenBabel11072408353D

 26 29  0  0  1  0  0  0  0  0999 V2000
  188.5900  176.6900  144.4340 C   0  0  2  0  0  3  0  0  0  0  0  0
  192.7670  175.8040  146.4830 C   0  0  0  0  0  2  0  0  0  0  0  0
  191.4380  176.4340  146.1890 C   0  0  0  0  0  0  0  0  0  0  0  0
  193.1750  174.8230  145.4230 C   0  0  0  0  0  0  0  0  0  0  0  0
  190.4960  176.6450  147.2210 N   0  0  0  0  0  0  0  0  0  0  0  0
  193.4400  175.2320  144.1800 C   0  0  0  0  0  3  0  0  0  0  0  0
  189.4040  177.4390  146.6900 C   0  0  0  0  0  3  0  0  0  0  0  0
  189.6530  177.5330  145.1770 C   0  0  1  0  0  3  0  0  0  0  0  0
  191.0410  176.9750  145.0370 C   0  0  0  0  0  0  0  0  0  0  0  0
  193.2890  176.6710  143.7970 C   0  0  0  0  0  2  0  0  0  0  0  0
  193.3350  173.1270  145.8310 Cl  0  0  0  0  0  0  0  0  0  0  0  0
  191.8140  177.0590  143.7370 C   0  0  0  0  0  2  0  0  0  0  0  0
  188.9850  178.0860  142.2110 C   0  0  0  0  0  1  0  0  0  0  0  0
  187.7790  175.7730  142.1700 C   0  0  1  0  0  3  0  0  0  0  0  0
  187.4450  176.2350  140.8940 O   0  0  0  0  0  1  0  0  0  0  0  0
  189.2800  175.5390  142.2440 C   0  0  0  0  0  2  0  0  0  0  0  0
  188.6810  176.7610  142.9050 C   0  0  2  0  0  0  0  0  0  0  0  0
  187.1940  177.0350  144.8830 C   0  0  0  0  0  0  0  0  0  0  0  0
  186.5460  176.2030  145.5010 O   0  0  0  0  0  0  0  0  0  0  0  0
  185.5360  178.1890  143.5190 N   0  0  0  0  0  0  0  0  0  0  0  0
  184.5720  179.3350  145.1880 O   0  0  0  0  0  0  0  0  0  0  0  0
  183.2570  178.7630  143.1880 N   0  0  0  0  0  1  0  0  0  0  0  0
  184.4610  178.7530  143.9430 C   0  0  0  0  0  0  0  0  0  0  0  0
  185.8460  178.4350  147.0160 C   0  0  0  0  0  1  0  0  0  0  0  0
  186.5770  178.3630  144.5230 C   0  0  1  0  0  3  0  0  0  0  0  0
  185.8910  179.1480  145.6710 C   0  0  1  0  0  3  0  0  0  0  0  0
  1 18  1  6  0  0  0
  3  2  1  0  0  0  0
  3  5  1  0  0  0  0
  4 11  1  0  0  0  0
  4  2  1  0  0  0  0
  6  4  2  0  0  0  0
  7  5  2  0  0  0  0
  8  1  1  6  0  0  0
  8  7  1  0  0  0  0
  9  8  1  0  0  0  0
  9  3  2  0  0  0  0
 10  6  1  0  0  0  0
 12 10  1  0  0  0  0
 12  9  1  0  0  0  0
 14 15  1  6  0  0  0
 14 16  1  0  0  0  0
 14 17  1  0  0  0  0
 16 17  1  0  0  0  0
 17 13  1  6  0  0  0
 17  1  1  0  0  0  0
 18 19  2  0  0  0  0
 20 23  2  0  0  0  0
 20 25  1  0  0  0  0
 21 26  1  0  0  0  0
 22 23  1  0  0  0  0
 23 21  1  0  0  0  0
 25 18  1  1  0  0  0
 25 26  1  0  0  0  0
 26 24  1  1  0  0  0
M  END
>  <MODEL>
3

>  <REMARK>
 VINA RESULT:      -6.9      3.732      6.636
  Name = 
  4 active torsions:
  status: ('A' for Active; 'I' for Inactive)
    1  A    between atoms: C_2  and  C_4
    2  A    between atoms: C_2  and  C_21
    3  A    between atoms: C_4  and  C_13
    4  A    between atoms: C_4  and  C_26
                            x       y       z     vdW  Elec       q    Type
                         _______ _______ _______ _____ _____    ______ ____

>  <TORSDO>
F 4

$$$$
=
 OpenBabel11072408353D

 26 29  0  0  1  0  0  0  0  0999 V2000
  189.4700  175.1770  143.4570 C   0  0  2  0  0  3  0  0  0  0  0  0
  186.5950  178.5570  145.1110 C   0  0  0  0  0  2  0  0  0  0  0  0
  187.6450  177.8650  144.2930 C   0  0  0  0  0  0  0  0  0  0  0  0
  186.1190  177.7120  146.2550 C   0  0  0  0  0  0  0  0  0  0  0  0
  187.6350  177.9530  142.8830 N   0  0  0  0  0  0  0  0  0  0  0  0
  186.9430  177.3900  147.2560 C   0  0  0  0  0  3  0  0  0  0  0  0
  188.8610  177.3630  142.3790 C   0  0  0  0  0  2  0  0  0  0  0  0
  189.5440  176.7170  143.5930 C   0  0  1  0  0  3  0  0  0  0  0  0
  188.7320  177.2390  144.7450 C   0  0  0  0  0  0  0  0  0  0  0  0
  188.3760  177.8220  147.2370 C   0  0  0  0  0  2  0  0  0  0  0  0
  184.4550  177.1670  146.2930 Cl  0  0  0  0  0  0  0  0  0  0  0  0
  189.1590  177.0430  146.1840 C   0  0  0  0  0  3  0  0  0  0  0  0
  191.8630  174.9470  144.5840 C   0  0  0  0  0  1  0  0  0  0  0  0
  190.2640  172.8990  144.3550 C   0  0  1  0  0  3  0  0  0  0  0  0
  191.4530  172.2350  144.6670 O   0  0  0  0  0  1  0  0  0  0  0  0
  189.8230  173.7300  145.5500 C   0  0  0  0  0  2  0  0  0  0  0  0
  190.4510  174.4140  144.3550 C   0  0  2  0  0  0  0  0  0  0  0  0
  189.6350  174.7370  142.0260 C   0  0  0  0  0  0  0  0  0  0  0  0
  190.7060  174.9170  141.4670 O   0  0  0  0  0  0  0  0  0  0  0  0
  188.2050  174.8970  140.0580 N   0  0  0  0  0  0  0  0  0  0  0  0
  188.4400  172.7690  139.3870 O   0  0  0  0  0  0  0  0  0  0  0  0
  187.9470  174.5200  137.7280 N   0  0  0  0  0  1  0  0  0  0  0  0
  188.1910  174.0860  139.0600 C   0  0  0  0  0  0  0  0  0  0  0  0
  190.0040  172.0420  141.0590 C   0  0  0  0  0  1  0  0  0  0  0  0
  188.4760  174.1350  141.2690 C   0  0  1  0  0  3  0  0  0  0  0  0
  188.6440  172.6710  140.7860 C   0  0  1  0  0  3  0  0  0  0  0  0
  1 18  1  6  0  0  0
  1 17  1  0  0  0  0
  2  4  1  0  0  0  0
  3  9  1  0  0  0  0
  3  2  1  0  0  0  0
  4 11  1  0  0  0  0
  4  6  2  0  0  0  0
  5  3  2  0  0  0  0
  7  5  1  0  0  0  0
  7  8  1  0  0  0  0
  8  1  1  6  0  0  0
  8  9  1  0  0  0  0
  9 12  2  0  0  0  0
 10  6  1  0  0  0  0
 12 10  1  0  0  0  0
 14 17  1  0  0  0  0
 14 15  1  1  0  0  0
 14 16  1  0  0  0  0
 17 13  1  1  0  0  0
 17 16  1  0  0  0  0
 19 18  2  0  0  0  0
 20 25  1  0  0  0  0
 21 26  1  0  0  0  0
 22 23  1  0  0  0  0
 23 21  1  0  0  0  0
 23 20  2  0  0  0  0
 25 18  1  6  0  0  0
 26 24  1  6  0  0  0
 26 25  1  0  0  0  0
M  END
>  <MODEL>
4

>  <REMARK>
 VINA RESULT:      -6.6      1.818      2.361
  Name = 
  4 active torsions:
  status: ('A' for Active; 'I' for Inactive)
    1  A    between atoms: C_2  and  C_4
    2  A    between atoms: C_2  and  C_21
    3  A    between atoms: C_4  and  C_13
    4  A    between atoms: C_4  and  C_26
                            x       y       z     vdW  Elec       q    Type
                         _______ _______ _______ _____ _____    ______ ____

>  <TORSDO>
F 4

$$$$
=
 OpenBabel11072408353D

 26 29  0  0  1  0  0  0  0  0999 V2000
  191.7570  175.5950  145.0100 C   0  0  2  0  0  3  0  0  0  0  0  0
  187.8750  178.0630  143.8850 C   0  0  0  0  0  2  0  0  0  0  0  0
  189.3160  177.7130  144.1100 C   0  0  0  0  0  0  0  0  0  0  0  0
  186.9480  177.0030  144.4000 C   0  0  0  0  0  0  0  0  0  0  0  0
  190.2850  177.9700  143.1140 N   0  0  0  0  0  0  0  0  0  0  0  0
  186.8670  176.7420  145.7070 C   0  0  0  0  0  3  0  0  0  0  0  0
  191.5990  177.7190  143.6770 C   0  0  0  0  0  2  0  0  0  0  0  0
  191.3490  177.0870  145.0550 C   0  0  1  0  0  3  0  0  0  0  0  0
  189.8700  177.2810  145.2430 C   0  0  0  0  0  0  0  0  0  0  0  0
  187.7350  177.4660  146.6880 C   0  0  0  0  0  2  0  0  0  0  0  0
  185.9370  176.1180  143.2750 Cl  0  0  0  0  0  0  0  0  0  0  0  0
  189.1850  177.0040  146.5640 C   0  0  0  0  0  3  0  0  0  0  0  0
  194.0970  175.5820  143.7570 C   0  0  0  0  0  1  0  0  0  0  0  0
  193.7300  174.2480  145.9680 C   0  0  1  0  0  3  0  0  0  0  0  0
  194.9310  173.6730  145.5440 O   0  0  0  0  0  1  0  0  0  0  0  0
  193.9680  175.7100  146.3140 C   0  0  0  0  0  2  0  0  0  0  0  0
  193.2720  175.3520  145.0200 C   0  0  2  0  0  0  0  0  0  0  0  0
  191.1290  174.8810  143.8420 C   0  0  0  0  0  0  0  0  0  0  0  0
  191.6710  174.9400  142.7480 O   0  0  0  0  0  0  0  0  0  0  0  0
  189.0210  174.2590  142.7870 N   0  0  0  0  0  0  0  0  0  0  0  0
  189.1410  172.0640  143.2320 O   0  0  0  0  0  0  0  0  0  0  0  0
  187.8810  172.8380  141.2650 N   0  0  0  0  0  1  0  0  0  0  0  0
  188.6740  173.0760  142.4210 C   0  0  0  0  0  0  0  0  0  0  0  0
  191.3000  172.0340  144.2870 C   0  0  0  0  0  1  0  0  0  0  0  0
  189.8190  174.1510  144.0020 C   0  0  1  0  0  3  0  0  0  0  0  0
  189.8980  172.6290  144.2880 C   0  0  1  0  0  3  0  0  0  0  0  0
  1 18  1  6  0  0  0
  1 17  1  0  0  0  0
  2  3  1  0  0  0  0
  2  4  1  0  0  0  0
  3  9  1  0  0  0  0
  4  6  2  0  0  0  0
  5  7  1  0  0  0  0
  5  3  2  0  0  0  0
  6 10  1  0  0  0  0
  7  8  1  0  0  0  0
  8  1  1  6  0  0  0
  8  9  1  0  0  0  0
  9 12  2  0  0  0  0
 11  4  1  0  0  0  0
 12 10  1  0  0  0  0
 14 15  1  6  0  0  0
 14 16  1  0  0  0  0
 17 13  1  6  0  0  0
 17 14  1  0  0  0  0
 17 16  1  0  0  0  0
 19 18  2  0  0  0  0
 20 25  1  0  0  0  0
 21 26  1  0  0  0  0
 22 23  1  0  0  0  0
 23 20  2  0  0  0  0
 23 21  1  0  0  0  0
 25 18  1  6  0  0  0
 25 26  1  0  0  0  0
 26 24  1  6  0  0  0
M  END
>  <MODEL>
5

>  <REMARK>
 VINA RESULT:      -6.5      2.612      3.318
  Name = 
  4 active torsions:
  status: ('A' for Active; 'I' for Inactive)
    1  A    between atoms: C_2  and  C_4
    2  A    between atoms: C_2  and  C_21
    3  A    between atoms: C_4  and  C_13
    4  A    between atoms: C_4  and  C_26
                            x       y       z     vdW  Elec       q    Type
                         _______ _______ _______ _____ _____    ______ ____

>  <TORSDO>
F 4

$$$$
=
 OpenBabel11072408353D

 26 29  0  0  1  0  0  0  0  0999 V2000
  187.9230  176.7120  145.1010 C   0  0  2  0  0  3  0  0  0  0  0  0
  192.4030  175.1770  145.0780 C   0  0  0  0  0  2  0  0  0  0  0  0
  190.9220  175.2310  144.8450 C   0  0  0  0  0  0  0  0  0  0  0  0
  192.8740  176.2760  145.9840 C   0  0  0  0  0  0  0  0  0  0  0  0
  190.3840  174.9880  143.5610 N   0  0  0  0  0  0  0  0  0  0  0  0
  192.4920  176.3170  147.2630 C   0  0  0  0  0  3  0  0  0  0  0  0
  188.9400  174.9100  143.6760 C   0  0  0  0  0  2  0  0  0  0  0  0
  188.6130  175.3280  145.1180 C   0  0  1  0  0  3  0  0  0  0  0  0
  189.9680  175.3610  145.7670 C   0  0  0  0  0  0  0  0  0  0  0  0
  191.5450  175.2970  147.8130 C   0  0  0  0  0  2  0  0  0  0  0  0
  193.9620  177.5010  145.3640 Cl  0  0  0  0  0  0  0  0  0  0  0  0
  190.1390  175.5180  147.2630 C   0  0  0  0  0  3  0  0  0  0  0  0
  186.5370  176.0430  147.2640 C   0  0  0  0  0  1  0  0  0  0  0  0
  186.6840  178.5180  146.4530 C   0  0  1  0  0  3  0  0  0  0  0  0
  185.6240  178.6300  147.3570 O   0  0  0  0  0  1  0  0  0  0  0  0
  187.9570  178.1770  147.2110 C   0  0  0  0  0  2  0  0  0  0  0  0
  187.2460  177.1000  146.4220 C   0  0  2  0  0  0  0  0  0  0  0  0
  186.9390  176.8300  143.9650 C   0  0  0  0  0  0  0  0  0  0  0  0
  186.0020  176.0480  143.9070 O   0  0  0  0  0  0  0  0  0  0  0  0
  187.3470  177.2120  141.5930 N   0  0  0  0  0  0  0  0  0  0  0  0
  185.6690  178.6660  141.2670 O   0  0  0  0  0  0  0  0  0  0  0  0
  186.4630  177.2850  139.3910 N   0  0  0  0  0  1  0  0  0  0  0  0
  186.5130  177.7060  140.7480 C   0  0  0  0  0  0  0  0  0  0  0  0
  184.7210  178.6100  143.4740 C   0  0  0  0  0  1  0  0  0  0  0  0
  187.1380  177.8600  142.8810 C   0  0  1  0  0  3  0  0  0  0  0  0
  185.9710  178.8530  142.6390 C   0  0  1  0  0  3  0  0  0  0  0  0
  1 18  1  6  0  0  0
  1 17  1  0  0  0  0
  2  4  1  0  0  0  0
  3  2  1  0  0  0  0
  3  9  1  0  0  0  0
  4  6  2  0  0  0  0
  5  7  1  0  0  0  0
  5  3  2  0  0  0  0
  6 10  1  0  0  0  0
  7  8  1  0  0  0  0
  8  1  1  6  0  0  0
  8  9  1  0  0  0  0
  9 12  2  0  0  0  0
 11  4  1  0  0  0  0
 12 10  1  0  0  0  0
 14 16  1  0  0  0  0
 14 15  1  1  0  0  0
 17 14  1  0  0  0  0
 17 16  1  0  0  0  0
 17 13  1  1  0  0  0
 19 18  2  0  0  0  0
 20 25  1  0  0  0  0
 21 26  1  0  0  0  0
 22 23  1  0  0  0  0
 23 21  1  0  0  0  0
 23 20  2  0  0  0  0
 25 18  1  1  0  0  0
 26 25  1  0  0  0  0
 26 24  1  1  0  0  0
M  END
>  <MODEL>
6

>  <REMARK>
 VINA RESULT:      -6.5      3.349      5.572
  Name = 
  4 active torsions:
  status: ('A' for Active; 'I' for Inactive)
    1  A    between atoms: C_2  and  C_4
    2  A    between atoms: C_2  and  C_21
    3  A    between atoms: C_4  and  C_13
    4  A    between atoms: C_4  and  C_26
                            x       y       z     vdW  Elec       q    Type
                         _______ _______ _______ _____ _____    ______ ____

>  <TORSDO>
F 4

$$$$
=
 OpenBabel11072408353D

 26 29  0  0  1  0  0  0  0  0999 V2000
  190.4400  175.3830  144.4890 C   0  0  2  0  0  3  0  0  0  0  0  0
  195.1300  174.7850  144.7570 C   0  0  0  0  0  2  0  0  0  0  0  0
  193.6580  174.5030  144.8350 C   0  0  0  0  0  0  0  0  0  0  0  0
  195.4160  176.2320  144.4840 C   0  0  0  0  0  0  0  0  0  0  0  0
  193.1150  173.3370  144.2500 N   0  0  0  0  0  0  0  0  0  0  0  0
  195.1000  177.1710  145.3800 C   0  0  0  0  0  3  0  0  0  0  0  0
  191.7240  173.2300  144.6500 C   0  0  0  0  0  2  0  0  0  0  0  0
  191.3940  174.5450  145.3720 C   0  0  1  0  0  3  0  0  0  0  0  0
  192.7460  175.1800  145.5330 C   0  0  0  0  0  0  0  0  0  0  0  0
  194.4080  176.8100  146.6570 C   0  0  0  0  0  2  0  0  0  0  0  0
  196.2010  176.6910  142.9870 Cl  0  0  0  0  0  0  0  0  0  0  0  0
  192.9590  176.4120  146.3890 C   0  0  0  0  0  3  0  0  0  0  0  0
  188.5270  175.5810  146.3200 C   0  0  0  0  0  1  0  0  0  0  0  0
  188.8720  177.4250  144.5060 C   0  0  1  0  0  3  0  0  0  0  0  0
  187.6080  177.7910  144.9750 O   0  0  0  0  0  1  0  0  0  0  0  0
  189.8970  177.6300  145.6110 C   0  0  0  0  0  2  0  0  0  0  0  0
  189.4300  176.2300  145.2750 C   0  0  2  0  0  0  0  0  0  0  0  0
  189.7170  174.5270  143.4820 C   0  0  0  0  0  0  0  0  0  0  0  0
  189.1280  173.5270  143.8640 O   0  0  0  0  0  0  0  0  0  0  0  0
  190.1490  173.6920  141.2320 N   0  0  0  0  0  0  0  0  0  0  0  0
  188.2470  174.4350  140.3050 O   0  0  0  0  0  0  0  0  0  0  0  0
  189.3630  172.4530  139.3660 N   0  0  0  0  0  1  0  0  0  0  0  0
  189.2750  173.5170  140.3060 C   0  0  0  0  0  0  0  0  0  0  0  0
  187.2300  175.3590  142.2760 C   0  0  0  0  0  1  0  0  0  0  0  0
  189.7680  174.8620  142.0120 C   0  0  1  0  0  3  0  0  0  0  0  0
  188.4490  175.3560  141.3630 C   0  0  1  0  0  3  0  0  0  0  0  0
  1 18  1  6  0  0  0
  1 17  1  0  0  0  0
  2  3  1  0  0  0  0
  3  9  1  0  0  0  0
  4  2  1  0  0  0  0
  4  6  2  0  0  0  0
  5  7  1  0  0  0  0
  5  3  2  0  0  0  0
  6 10  1  0  0  0  0
  7  8  1  0  0  0  0
  8  1  1  6  0  0  0
  8  9  1  0  0  0  0
  9 12  2  0  0  0  0
 11  4  1  0  0  0  0
 12 10  1  0  0  0  0
 14 15  1  1  0  0  0
 14 17  1  0  0  0  0
 14 16  1  0  0  0  0
 17 16  1  0  0  0  0
 17 13  1  1  0  0  0
 18 19  2  0  0  0  0
 20 25  1  0  0  0  0
 21 23  1  0  0  0  0
 21 26  1  0  0  0  0
 22 23  1  0  0  0  0
 23 20  2  0  0  0  0
 25 18  1  1  0  0  0
 26 25  1  0  0  0  0
 26 24  1  1  0  0  0
M  END
>  <MODEL>
7

>  <REMARK>
 VINA RESULT:      -6.4      3.929      5.979
  Name = 
  4 active torsions:
  status: ('A' for Active; 'I' for Inactive)
    1  A    between atoms: C_2  and  C_4
    2  A    between atoms: C_2  and  C_21
    3  A    between atoms: C_4  and  C_13
    4  A    between atoms: C_4  and  C_26
                            x       y       z     vdW  Elec       q    Type
                         _______ _______ _______ _____ _____    ______ ____

>  <TORSDO>
F 4

$$$$
=
 OpenBabel11072408353D

 26 29  0  0  1  0  0  0  0  0999 V2000
  188.9970  174.0580  142.7810 C   0  0  2  0  0  3  0  0  0  0  0  0
  186.6090  177.8130  144.4030 C   0  0  0  0  0  2  0  0  0  0  0  0
  187.3930  176.9180  143.4880 C   0  0  0  0  0  0  0  0  0  0  0  0
  186.5390  177.2710  145.8000 C   0  0  0  0  0  0  0  0  0  0  0  0
  186.9540  176.6760  142.1670 N   0  0  0  0  0  0  0  0  0  0  0  0
  187.6400  177.1670  146.5490 C   0  0  0  0  0  3  0  0  0  0  0  0
  187.9960  175.9490  141.4640 C   0  0  0  0  0  2  0  0  0  0  0  0
  189.0410  175.5840  142.5290 C   0  0  1  0  0  3  0  0  0  0  0  0
  188.5920  176.3840  143.7200 C   0  0  0  0  0  0  0  0  0  0  0  0
  188.9800  177.5420  145.9970 C   0  0  0  0  0  2  0  0  0  0  0  0
  184.9890  176.7980  146.4670 Cl  0  0  0  0  0  0  0  0  0  0  0  0
  189.4420  176.5160  144.9660 C   0  0  0  0  0  3  0  0  0  0  0  0
  191.5910  174.0570  143.3470 C   0  0  0  0  0  1  0  0  0  0  0  0
  190.0560  172.0490  143.9930 C   0  0  1  0  0  3  0  0  0  0  0  0
  191.3070  171.4550  144.1730 O   0  0  0  0  0  1  0  0  0  0  0  0
  189.8710  173.1540  145.0210 C   0  0  0  0  0  2  0  0  0  0  0  0
  190.1840  173.5140  143.5860 C   0  0  2  0  0  0  0  0  0  0  0  0
  188.8510  173.2860  141.4950 C   0  0  0  0  0  0  0  0  0  0  0  0
  187.7970  172.7140  141.2620 O   0  0  0  0  0  0  0  0  0  0  0  0
  190.4610  171.7850  140.4480 N   0  0  0  0  0  0  0  0  0  0  0  0
  190.0800  172.4250  138.3320 O   0  0  0  0  0  0  0  0  0  0  0  0
  190.8900  170.1450  138.7860 N   0  0  0  0  0  1  0  0  0  0  0  0
  190.4860  171.4410  139.2090 C   0  0  0  0  0  0  0  0  0  0  0  0
  188.3080  173.9920  138.7500 C   0  0  0  0  0  1  0  0  0  0  0  0
  190.0080  173.1670  140.5350 C   0  0  1  0  0  3  0  0  0  0  0  0
  189.7420  173.5880  139.0660 C   0  0  1  0  0  3  0  0  0  0  0  0
  1 18  1  6  0  0  0
  1 17  1  0  0  0  0
  2  4  1  0  0  0  0
  3  9  1  0  0  0  0
  3  2  1  0  0  0  0
  4 11  1  0  0  0  0
  4  6  2  0  0  0  0
  5  3  2  0  0  0  0
  7  5  1  0  0  0  0
  7  8  1  0  0  0  0
  8  1  1  1  0  0  0
  8  9  1  0  0  0  0
  9 12  2  0  0  0  0
 10  6  1  0  0  0  0
 12 10  1  0  0  0  0
 14 15  1  1  0  0  0
 14 16  1  0  0  0  0
 17 13  1  6  0  0  0
 17 14  1  0  0  0  0
 17 16  1  0  0  0  0
 19 18  2  0  0  0  0
 20 25  1  0  0  0  0
 21 26  1  0  0  0  0
 21 23  1  0  0  0  0
 22 23  1  0  0  0  0
 23 20  2  0  0  0  0
 25 18  1  1  0  0  0
 26 24  1  1  0  0  0
 26 25  1  0  0  0  0
M  END
>  <MODEL>
8

>  <REMARK>
 VINA RESULT:      -6.3      2.262      3.346
  Name = 
  4 active torsions:
  status: ('A' for Active; 'I' for Inactive)
    1  A    between atoms: C_2  and  C_4
    2  A    between atoms: C_2  and  C_21
    3  A    between atoms: C_4  and  C_13
    4  A    between atoms: C_4  and  C_26
                            x       y       z     vdW  Elec       q    Type
                         _______ _______ _______ _____ _____    ______ ____

>  <TORSDO>
F 4

$$$$
=
 OpenBabel11072408353D

 26 29  0  0  1  0  0  0  0  0999 V2000
  190.1150  175.8020  144.0550 C   0  0  2  0  0  3  0  0  0  0  0  0
  194.5190  174.4810  142.9190 C   0  0  0  0  0  2  0  0  0  0  0  0
  193.0200  174.5400  142.9490 C   0  0  0  0  0  0  0  0  0  0  0  0
  195.1400  175.3270  143.9900 C   0  0  0  0  0  0  0  0  0  0  0  0
  192.2770  174.6150  141.7490 N   0  0  0  0  0  0  0  0  0  0  0  0
  194.9740  175.0280  145.2810 C   0  0  0  0  0  3  0  0  0  0  0  0
  190.8710  174.4590  142.0700 C   0  0  0  0  0  2  0  0  0  0  0  0
  190.7880  174.4840  143.6040 C   0  0  1  0  0  3  0  0  0  0  0  0
  192.2310  174.3970  144.0140 C   0  0  0  0  0  0  0  0  0  0  0  0
  194.1220  173.8690  145.6940 C   0  0  0  0  0  2  0  0  0  0  0  0
  196.1210  176.7070  143.5400 Cl  0  0  0  0  0  0  0  0  0  0  0  0
  192.6460  174.1740  145.4530 C   0  0  0  0  0  3  0  0  0  0  0  0
  189.2880  174.8230  146.3790 C   0  0  0  0  0  1  0  0  0  0  0  0
  189.7410  177.3720  146.0600 C   0  0  1  0  0  3  0  0  0  0  0  0
  189.0330  177.4080  147.2640 O   0  0  0  0  0  1  0  0  0  0  0  0
  191.0690  176.6650  146.2790 C   0  0  0  0  0  2  0  0  0  0  0  0
  189.9440  175.9400  145.5730 C   0  0  2  0  0  0  0  0  0  0  0  0
  188.7920  176.0160  143.3670 C   0  0  0  0  0  0  0  0  0  0  0  0
  187.9940  175.0920  143.3130 O   0  0  0  0  0  0  0  0  0  0  0  0
  188.0620  177.1190  141.3190 N   0  0  0  0  0  0  0  0  0  0  0  0
  186.4360  178.3520  142.2490 O   0  0  0  0  0  0  0  0  0  0  0  0
  186.2630  177.6970  139.8820 N   0  0  0  0  0  1  0  0  0  0  0  0
  186.9370  177.7120  141.1340 C   0  0  0  0  0  0  0  0  0  0  0  0
  186.6110  177.5300  144.4990 C   0  0  0  0  0  1  0  0  0  0  0  0
  188.4760  177.3320  142.7000 C   0  0  1  0  0  3  0  0  0  0  0  0
  187.3370  178.1760  143.3280 C   0  0  1  0  0  3  0  0  0  0  0  0
  1 18  1  6  0  0  0
  1 17  1  0  0  0  0
  2  3  1  0  0  0  0
  2  4  1  0  0  0  0
  3  9  1  0  0  0  0
  4  6  2  0  0  0  0
  5  7  1  0  0  0  0
  5  3  2  0  0  0  0
  6 10  1  0  0  0  0
  7  8  1  0  0  0  0
  8  9  1  0  0  0  0
  8  1  1  6  0  0  0
  9 12  2  0  0  0  0
 11  4  1  0  0  0  0
 12 10  1  0  0  0  0
 14 16  1  0  0  0  0
 14 15  1  1  0  0  0
 17 14  1  0  0  0  0
 17 16  1  0  0  0  0
 17 13  1  1  0  0  0
 19 18  2  0  0  0  0
 20 25  1  0  0  0  0
 21 26  1  0  0  0  0
 22 23  1  0  0  0  0
 23 20  2  0  0  0  0
 23 21  1  0  0  0  0
 25 26  1  0  0  0  0
 25 18  1  1  0  0  0
 26 24  1  1  0  0  0
M  END
>  <MODEL>
9

>  <REMARK>
 VINA RESULT:      -6.2      3.838      6.173
  Name = 
  4 active torsions:
  status: ('A' for Active; 'I' for Inactive)
    1  A    between atoms: C_2  and  C_4
    2  A    between atoms: C_2  and  C_21
    3  A    between atoms: C_4  and  C_13
    4  A    between atoms: C_4  and  C_26
                            x       y       z     vdW  Elec       q    Type
                         _______ _______ _______ _____ _____    ______ ____

>  <TORSDO>
F 4

$$$$
