=
 OpenBabel11072409393D

 25 27  0  0  0  0  0  0  0  0999 V2000
  188.5710  177.2850  146.3520 C   0  0  0  0  0  0  0  0  0  0  0  0
  187.4840  177.6880  147.1270 C   0  0  0  0  0  3  0  0  0  0  0  0
  184.9570  178.2410  144.5340 C   0  0  0  0  0  0  0  0  0  0  0  0
  186.2980  177.9950  146.4470 C   0  0  0  0  0  0  0  0  0  0  0  0
  184.0580  178.6330  145.8840 S   0  0  0  0  0  0  0  0  0  0  0  0
  187.3380  177.4840  144.2640 C   0  0  0  0  0  0  0  0  0  0  0  0
  188.5050  177.1860  144.9820 C   0  0  0  0  0  0  0  0  0  0  0  0
  186.2170  177.8960  145.0210 C   0  0  0  0  0  0  0  0  0  0  0  0
  189.8420  176.9280  146.7500 C   0  0  0  0  0  3  0  0  0  0  0  0
  185.1740  178.3960  147.0950 N   0  0  0  0  0  0  0  0  0  0  0  0
  190.4710  176.6290  145.5400 C   0  0  0  0  0  0  0  0  0  0  0  0
  189.6590  176.7900  144.5120 O   0  0  0  0  0  0  0  0  0  0  0  0
  192.2380  175.3560  144.3640 O   0  0  0  0  0  0  0  0  0  0  0  0
  192.7230  176.5650  146.2480 O   0  0  0  0  0  1  0  0  0  0  0  0
  191.8620  176.1890  145.4100 C   0  0  0  0  0  0  0  0  0  0  0  0
  184.0930  178.2730  142.0360 C   0  0  0  0  0  0  0  0  0  0  0  0
  184.4870  178.2560  143.1750 C   0  0  0  0  0  0  0  0  0  0  0  0
  183.6120  178.2990  140.6540 C   0  0  0  0  0  2  0  0  0  0  0  0
  182.1240  178.0070  140.6320 C   0  0  0  0  0  2  0  0  0  0  0  0
  181.4440  178.8420  141.5600 O   0  0  0  0  0  0  0  0  0  0  0  0
  180.2730  179.5300  141.2320 C   0  0  0  0  0  0  0  0  0  0  0  0
  179.0540  179.0760  141.7180 O   0  0  0  0  0  1  0  0  0  0  0  0
  180.3070  180.5540  140.5000 O   0  0  0  0  0  0  0  0  0  0  0  0
  187.2780  177.3790  142.8370 N   0  0  0  0  0  2  0  0  0  0  0  0
  187.8520  178.2960  142.0240 O   0  0  0  0  0  1  0  0  0  0  0  0
  1  9  1  0  0  0  0
  1  2  2  0  0  0  0
  3  8  2  0  0  0  0
  3  5  1  0  0  0  0
  4 10  2  0  0  0  0
  4  2  1  0  0  0  0
  5 10  1  0  0  0  0
  6  7  2  0  0  0  0
  6  8  1  0  0  0  0
  7  1  1  0  0  0  0
  8  4  1  0  0  0  0
 11  9  2  0  0  0  0
 12  7  1  0  0  0  0
 12 11  1  0  0  0  0
 13 15  2  0  0  0  0
 15 11  1  0  0  0  0
 15 14  1  0  0  0  0
 16 17  3  0  0  0  0
 17  3  1  0  0  0  0
 18 16  1  0  0  0  0
 19 18  1  0  0  0  0
 19 20  1  0  0  0  0
 21 20  1  0  0  0  0
 21 22  1  0  0  0  0
 23 21  2  0  0  0  0
 24  6  1  0  0  0  0
 25 24  1  0  0  0  0
M  END
>  <MODEL>
1

>  <REMARK>
 VINA RESULT:      -6.6      0.000      0.000
  Name = 
  7 active torsions:
  status: ('A' for Active; 'I' for Inactive)
    1  A    between atoms: C_1  and  O_24
    2  A    between atoms: C_4  and  C_19
    3  A    between atoms: C_11  and  N_14
    4  A    between atoms: C_13  and  C_22
    5  A    between atoms: C_15  and  C_22
    6  A    between atoms: C_15  and  O_24
    7  A    between atoms: C_17  and  C_23
                            x       y       z     vdW  Elec       q    Type
                         _______ _______ _______ _____ _____    ______ ____

>  <TORSDO>
F 7

$$$$
=
 OpenBabel11072409393D

 25 27  0  0  0  0  0  0  0  0999 V2000
  193.1800  175.4590  145.8680 C   0  0  0  0  0  0  0  0  0  0  0  0
  192.2670  175.0270  146.8280 C   0  0  0  0  0  3  0  0  0  0  0  0
  189.1590  176.4490  145.5100 C   0  0  0  0  0  0  0  0  0  0  0  0
  190.9280  175.3990  146.6440 C   0  0  0  0  0  0  0  0  0  0  0  0
  188.5620  175.6990  146.8750 S   0  0  0  0  0  0  0  0  0  0  0  0
  191.4800  176.6070  144.5600 C   0  0  0  0  0  0  0  0  0  0  0  0
  192.8080  176.2150  144.7810 C   0  0  0  0  0  0  0  0  0  0  0  0
  190.5280  176.1850  145.5170 C   0  0  0  0  0  0  0  0  0  0  0  0
  194.5400  175.2440  145.7990 C   0  0  0  0  0  3  0  0  0  0  0  0
  189.9490  175.0350  147.5120 N   0  0  0  0  0  0  0  0  0  0  0  0
  194.8990  175.9140  144.6280 C   0  0  0  0  0  0  0  0  0  0  0  0
  193.8570  176.4790  144.0470 O   0  0  0  0  0  0  0  0  0  0  0  0
  197.1460  174.9360  144.2760 O   0  0  0  0  0  1  0  0  0  0  0  0
  196.6360  177.0180  143.4690 O   0  0  0  0  0  0  0  0  0  0  0  0
  196.2610  175.9910  144.0950 C   0  0  0  0  0  0  0  0  0  0  0  0
  187.7360  177.8040  143.7420 C   0  0  0  0  0  0  0  0  0  0  0  0
  188.3860  177.1880  144.5490 C   0  0  0  0  0  0  0  0  0  0  0  0
  186.9460  178.5460  142.7590 C   0  0  0  0  0  2  0  0  0  0  0  0
  185.5720  178.8390  143.3330 C   0  0  0  0  0  2  0  0  0  0  0  0
  185.6920  179.5500  144.5590 O   0  0  0  0  0  0  0  0  0  0  0  0
  185.0980  179.1070  145.7430 C   0  0  0  0  0  0  0  0  0  0  0  0
  185.8860  178.8980  146.8670 O   0  0  0  0  0  1  0  0  0  0  0  0
  183.8580  178.8940  145.8050 O   0  0  0  0  0  0  0  0  0  0  0  0
  191.1010  177.3950  143.4260 N   0  0  0  0  0  2  0  0  0  0  0  0
  191.2510  178.7400  143.4030 O   0  0  0  0  0  1  0  0  0  0  0  0
  1  2  2  0  0  0  0
  3  8  2  0  0  0  0
  3  5  1  0  0  0  0
  4  2  1  0  0  0  0
  4 10  2  0  0  0  0
  5 10  1  0  0  0  0
  6  7  2  0  0  0  0
  6  8  1  0  0  0  0
  7  1  1  0  0  0  0
  8  4  1  0  0  0  0
  9  1  1  0  0  0  0
 11  9  2  0  0  0  0
 12 11  1  0  0  0  0
 12  7  1  0  0  0  0
 14 15  2  0  0  0  0
 15 13  1  0  0  0  0
 15 11  1  0  0  0  0
 16 17  3  0  0  0  0
 17  3  1  0  0  0  0
 18 19  1  0  0  0  0
 18 16  1  0  0  0  0
 19 20  1  0  0  0  0
 20 21  1  0  0  0  0
 21 23  2  0  0  0  0
 21 22  1  0  0  0  0
 24  6  1  0  0  0  0
 25 24  1  0  0  0  0
M  END
>  <MODEL>
2

>  <REMARK>
 VINA RESULT:      -6.5      3.510      5.093
  Name = 
  7 active torsions:
  status: ('A' for Active; 'I' for Inactive)
    1  A    between atoms: C_1  and  O_24
    2  A    between atoms: C_4  and  C_19
    3  A    between atoms: C_11  and  N_14
    4  A    between atoms: C_13  and  C_22
    5  A    between atoms: C_15  and  C_22
    6  A    between atoms: C_15  and  O_24
    7  A    between atoms: C_17  and  C_23
                            x       y       z     vdW  Elec       q    Type
                         _______ _______ _______ _____ _____    ______ ____

>  <TORSDO>
F 7

$$$$
=
 OpenBabel11072409393D

 25 27  0  0  0  0  0  0  0  0999 V2000
  184.1930  178.5860  144.1300 C   0  0  0  0  0  0  0  0  0  0  0  0
  184.2130  179.0180  145.4550 C   0  0  0  0  0  3  0  0  0  0  0  0
  187.2960  177.4400  146.6460 C   0  0  0  0  0  0  0  0  0  0  0  0
  185.2890  178.5920  146.2450 C   0  0  0  0  0  0  0  0  0  0  0  0
  186.8250  178.2160  148.0460 S   0  0  0  0  0  0  0  0  0  0  0  0
  186.2650  177.3320  144.3570 C   0  0  0  0  0  0  0  0  0  0  0  0
  185.1730  177.7780  143.6000 C   0  0  0  0  0  0  0  0  0  0  0  0
  186.3150  177.7520  145.7060 C   0  0  0  0  0  0  0  0  0  0  0  0
  183.2680  178.8460  143.1410 C   0  0  0  0  0  3  0  0  0  0  0  0
  185.4170  178.9510  147.5490 N   0  0  0  0  0  0  0  0  0  0  0  0
  183.7820  178.1480  142.0460 C   0  0  0  0  0  0  0  0  0  0  0  0
  184.9070  177.5260  142.3450 O   0  0  0  0  0  0  0  0  0  0  0  0
  181.8660  178.5700  140.5360 O   0  0  0  0  0  1  0  0  0  0  0  0
  183.7990  177.6330  139.7410 O   0  0  0  0  0  0  0  0  0  0  0  0
  183.1600  178.1010  140.7210 C   0  0  0  0  0  0  0  0  0  0  0  0
  189.4720  175.9680  146.3540 C   0  0  0  0  0  0  0  0  0  0  0  0
  188.4800  176.6400  146.4850 C   0  0  0  0  0  0  0  0  0  0  0  0
  190.6790  175.1540  146.2020 C   0  0  0  0  0  2  0  0  0  0  0  0
  191.8120  176.0230  145.6890 C   0  0  0  0  0  2  0  0  0  0  0  0
  192.7370  176.2950  146.7340 O   0  0  0  0  0  0  0  0  0  0  0  0
  194.1030  176.4640  146.4990 C   0  0  0  0  0  0  0  0  0  0  0  0
  194.9120  175.3490  146.3280 O   0  0  0  0  0  0  0  0  0  0  0  0
  194.6130  177.6150  146.4430 O   0  0  0  0  0  1  0  0  0  0  0  0
  187.2810  176.4900  143.7990 N   0  0  0  0  0  2  0  0  0  0  0  0
  188.2300  176.9680  142.9610 O   0  0  0  0  0  1  0  0  0  0  0  0
  1  2  2  0  0  0  0
  2  4  1  0  0  0  0
  3  5  1  0  0  0  0
  4 10  2  0  0  0  0
  6  8  1  0  0  0  0
  7  1  1  0  0  0  0
  7  6  2  0  0  0  0
  8  4  1  0  0  0  0
  8  3  2  0  0  0  0
  9  1  1  0  0  0  0
 10  5  1  0  0  0  0
 11 12  1  0  0  0  0
 11  9  2  0  0  0  0
 12  7  1  0  0  0  0
 13 15  1  0  0  0  0
 14 15  2  0  0  0  0
 15 11  1  0  0  0  0
 16 17  3  0  0  0  0
 17  3  1  0  0  0  0
 18 16  1  0  0  0  0
 19 18  1  0  0  0  0
 19 20  1  0  0  0  0
 21 20  1  0  0  0  0
 22 21  2  0  0  0  0
 23 21  1  0  0  0  0
 24  6  1  0  0  0  0
 25 24  1  0  0  0  0
M  END
>  <MODEL>
3

>  <REMARK>
 VINA RESULT:      -6.3      1.668      8.510
  Name = 
  7 active torsions:
  status: ('A' for Active; 'I' for Inactive)
    1  A    between atoms: C_1  and  O_24
    2  A    between atoms: C_4  and  C_19
    3  A    between atoms: C_11  and  N_14
    4  A    between atoms: C_13  and  C_22
    5  A    between atoms: C_15  and  C_22
    6  A    between atoms: C_15  and  O_24
    7  A    between atoms: C_17  and  C_23
                            x       y       z     vdW  Elec       q    Type
                         _______ _______ _______ _____ _____    ______ ____

>  <TORSDO>
F 7

$$$$
=
 OpenBabel11072409393D

 25 27  0  0  0  0  0  0  0  0999 V2000
  183.6000  178.2320  140.9600 C   0  0  0  0  0  0  0  0  0  0  0  0
  184.7620  177.9730  140.2350 C   0  0  0  0  0  3  0  0  0  0  0  0
  187.1980  177.6120  142.9470 C   0  0  0  0  0  0  0  0  0  0  0  0
  185.9390  177.7750  140.9710 C   0  0  0  0  0  0  0  0  0  0  0  0
  188.2010  177.3570  141.6380 S   0  0  0  0  0  0  0  0  0  0  0  0
  184.7380  178.1000  143.1060 C   0  0  0  0  0  0  0  0  0  0  0  0
  183.5840  178.2940  142.3340 C   0  0  0  0  0  0  0  0  0  0  0  0
  185.9350  177.8370  142.4010 C   0  0  0  0  0  0  0  0  0  0  0  0
  182.3200  178.4630  140.5040 C   0  0  0  0  0  3  0  0  0  0  0  0
  187.1300  177.5140  140.3740 N   0  0  0  0  0  0  0  0  0  0  0  0
  181.6010  178.6550  141.6850 C   0  0  0  0  0  0  0  0  0  0  0  0
  182.3720  178.5490  142.7510 O   0  0  0  0  0  0  0  0  0  0  0  0
  179.3060  178.0600  142.3980 O   0  0  0  0  0  1  0  0  0  0  0  0
  179.7040  179.9830  141.2190 O   0  0  0  0  0  0  0  0  0  0  0  0
  180.1650  178.9390  141.7510 C   0  0  0  0  0  0  0  0  0  0  0  0
  187.9200  177.5540  145.4890 C   0  0  0  0  0  0  0  0  0  0  0  0
  187.5930  177.5820  144.3290 C   0  0  0  0  0  0  0  0  0  0  0  0
  188.3110  177.5200  146.8980 C   0  0  0  0  0  2  0  0  0  0  0  0
  189.8220  177.4320  147.0000 C   0  0  0  0  0  2  0  0  0  0  0  0
  190.2060  176.1840  147.5640 O   0  0  0  0  0  0  0  0  0  0  0  0
  189.7870  174.9610  147.0340 C   0  0  0  0  0  0  0  0  0  0  0  0
  190.3090  174.5260  145.8240 O   0  0  0  0  0  0  0  0  0  0  0  0
  188.9410  174.2490  147.6380 O   0  0  0  0  0  1  0  0  0  0  0  0
  184.7130  178.1680  144.5370 N   0  0  0  0  0  2  0  0  0  0  0  0
  184.5370  179.3340  145.1990 O   0  0  0  0  0  1  0  0  0  0  0  0
  1  7  1  0  0  0  0
  2  1  2  0  0  0  0
  2  4  1  0  0  0  0
  3 17  1  0  0  0  0
  4  8  1  0  0  0  0
  5  3  1  0  0  0  0
  6 24  1  0  0  0  0
  7 12  1  0  0  0  0
  7  6  2  0  0  0  0
  8  3  2  0  0  0  0
  8  6  1  0  0  0  0
  9  1  1  0  0  0  0
  9 11  2  0  0  0  0
 10  4  2  0  0  0  0
 10  5  1  0  0  0  0
 11 15  1  0  0  0  0
 11 12  1  0  0  0  0
 14 15  2  0  0  0  0
 15 13  1  0  0  0  0
 16 18  1  0  0  0  0
 17 16  3  0  0  0  0
 18 19  1  0  0  0  0
 19 20  1  0  0  0  0
 21 20  1  0  0  0  0
 21 23  1  0  0  0  0
 22 21  2  0  0  0  0
 24 25  1  0  0  0  0
M  END
>  <MODEL>
4

>  <REMARK>
 VINA RESULT:      -6.3      2.265      8.733
  Name = 
  7 active torsions:
  status: ('A' for Active; 'I' for Inactive)
    1  A    between atoms: C_1  and  O_24
    2  A    between atoms: C_4  and  C_19
    3  A    between atoms: C_11  and  N_14
    4  A    between atoms: C_13  and  C_22
    5  A    between atoms: C_15  and  C_22
    6  A    between atoms: C_15  and  O_24
    7  A    between atoms: C_17  and  C_23
                            x       y       z     vdW  Elec       q    Type
                         _______ _______ _______ _____ _____    ______ ____

>  <TORSDO>
F 7

$$$$
=
 OpenBabel11072409393D

 25 27  0  0  0  0  0  0  0  0999 V2000
  185.4220  178.0360  144.3340 C   0  0  0  0  0  0  0  0  0  0  0  0
  185.8670  178.0100  145.6540 C   0  0  0  0  0  3  0  0  0  0  0  0
  189.4240  177.2800  145.1650 C   0  0  0  0  0  0  0  0  0  0  0  0
  187.2290  177.7490  145.8600 C   0  0  0  0  0  0  0  0  0  0  0  0
  189.3870  177.3700  146.8310 S   0  0  0  0  0  0  0  0  0  0  0  0
  187.6280  177.5540  143.4290 C   0  0  0  0  0  0  0  0  0  0  0  0
  186.2610  177.8190  143.2660 C   0  0  0  0  0  0  0  0  0  0  0  0
  188.1120  177.5210  144.7560 C   0  0  0  0  0  0  0  0  0  0  0  0
  184.1530  178.2650  143.8450 C   0  0  0  0  0  3  0  0  0  0  0  0
  187.7780  177.7010  147.1010 N   0  0  0  0  0  0  0  0  0  0  0  0
  184.3310  178.1640  142.4650 C   0  0  0  0  0  0  0  0  0  0  0  0
  185.5850  177.8990  142.1490 O   0  0  0  0  0  0  0  0  0  0  0  0
  181.9600  178.5700  141.8780 O   0  0  0  0  0  1  0  0  0  0  0  0
  183.5310  178.2490  140.2440 O   0  0  0  0  0  0  0  0  0  0  0  0
  183.2660  178.3280  141.4720 C   0  0  0  0  0  0  0  0  0  0  0  0
  191.5630  176.8010  143.6890 C   0  0  0  0  0  0  0  0  0  0  0  0
  190.5880  177.0220  144.3610 C   0  0  0  0  0  0  0  0  0  0  0  0
  192.7480  176.5290  142.8760 C   0  0  0  0  0  2  0  0  0  0  0  0
  193.7670  175.7710  143.7070 C   0  0  0  0  0  2  0  0  0  0  0  0
  194.3970  176.6470  144.6330 O   0  0  0  0  0  0  0  0  0  0  0  0
  194.6270  176.2910  145.9640 C   0  0  0  0  0  0  0  0  0  0  0  0
  194.1590  177.1110  146.9820 O   0  0  0  0  0  1  0  0  0  0  0  0
  195.2540  175.2370  146.2530 O   0  0  0  0  0  0  0  0  0  0  0  0
  188.4950  177.3280  142.3110 N   0  0  0  0  0  2  0  0  0  0  0  0
  188.9890  178.3430  141.5660 O   0  0  0  0  0  1  0  0  0  0  0  0
  1  2  2  0  0  0  0
  2  4  1  0  0  0  0
  3  5  1  0  0  0  0
  4 10  2  0  0  0  0
  5 10  1  0  0  0  0
  6  8  1  0  0  0  0
  7  6  2  0  0  0  0
  7  1  1  0  0  0  0
  8  3  2  0  0  0  0
  8  4  1  0  0  0  0
  9  1  1  0  0  0  0
 11  9  2  0  0  0  0
 12 11  1  0  0  0  0
 12  7  1  0  0  0  0
 14 15  2  0  0  0  0
 15 13  1  0  0  0  0
 15 11  1  0  0  0  0
 16 17  3  0  0  0  0
 17  3  1  0  0  0  0
 18 16  1  0  0  0  0
 18 19  1  0  0  0  0
 19 20  1  0  0  0  0
 20 21  1  0  0  0  0
 21 23  2  0  0  0  0
 21 22  1  0  0  0  0
 24  6  1  0  0  0  0
 25 24  1  0  0  0  0
M  END
>  <MODEL>
5

>  <REMARK>
 VINA RESULT:      -6.3      2.083      8.624
  Name = 
  7 active torsions:
  status: ('A' for Active; 'I' for Inactive)
    1  A    between atoms: C_1  and  O_24
    2  A    between atoms: C_4  and  C_19
    3  A    between atoms: C_11  and  N_14
    4  A    between atoms: C_13  and  C_22
    5  A    between atoms: C_15  and  C_22
    6  A    between atoms: C_15  and  O_24
    7  A    between atoms: C_17  and  C_23
                            x       y       z     vdW  Elec       q    Type
                         _______ _______ _______ _____ _____    ______ ____

>  <TORSDO>
F 7

$$$$
=
 OpenBabel11072409393D

 25 27  0  0  0  0  0  0  0  0999 V2000
  189.9230  174.7510  142.3220 C   0  0  0  0  0  0  0  0  0  0  0  0
  190.8950  174.9540  143.3000 C   0  0  0  0  0  3  0  0  0  0  0  0
  188.9390  176.6940  145.8620 C   0  0  0  0  0  0  0  0  0  0  0  0
  190.4920  175.6170  144.4680 C   0  0  0  0  0  0  0  0  0  0  0  0
  190.4210  176.6550  146.6260 S   0  0  0  0  0  0  0  0  0  0  0  0
  188.1790  175.8370  143.6260 C   0  0  0  0  0  0  0  0  0  0  0  0
  188.6220  175.1720  142.4730 C   0  0  0  0  0  0  0  0  0  0  0  0
  189.1410  176.0600  144.6370 C   0  0  0  0  0  0  0  0  0  0  0  0
  190.0370  174.1380  141.0920 C   0  0  0  0  0  3  0  0  0  0  0  0
  191.3500  175.8690  145.4900 N   0  0  0  0  0  0  0  0  0  0  0  0
  188.7450  174.2400  140.5750 C   0  0  0  0  0  0  0  0  0  0  0  0
  187.9290  174.8550  141.4110 O   0  0  0  0  0  0  0  0  0  0  0  0
  188.3080  172.3650  139.0190 O   0  0  0  0  0  1  0  0  0  0  0  0
  187.9840  174.5340  138.3590 O   0  0  0  0  0  0  0  0  0  0  0  0
  188.3270  173.7310  139.2670 C   0  0  0  0  0  0  0  0  0  0  0  0
  186.7190  177.7350  146.8510 C   0  0  0  0  0  0  0  0  0  0  0  0
  187.7300  177.2590  146.3980 C   0  0  0  0  0  0  0  0  0  0  0  0
  185.4950  178.3130  147.4060 C   0  0  0  0  0  2  0  0  0  0  0  0
  184.3190  177.9520  146.5170 C   0  0  0  0  0  2  0  0  0  0  0  0
  183.9670  179.0560  145.6930 O   0  0  0  0  0  0  0  0  0  0  0  0
  184.4460  179.2000  144.3890 C   0  0  0  0  0  0  0  0  0  0  0  0
  183.6850  178.7330  143.3250 O   0  0  0  0  0  0  0  0  0  0  0  0
  185.5580  179.7470  144.1640 O   0  0  0  0  0  1  0  0  0  0  0  0
  186.8230  176.2730  143.7750 N   0  0  0  0  0  2  0  0  0  0  0  0
  186.0620  176.6310  142.7150 O   0  0  0  0  0  1  0  0  0  0  0  0
  1  7  1  0  0  0  0
  1  2  2  0  0  0  0
  2  4  1  0  0  0  0
  3 17  1  0  0  0  0
  3  5  1  0  0  0  0
  4  8  1  0  0  0  0
  4 10  2  0  0  0  0
  6 24  1  0  0  0  0
  6  8  1  0  0  0  0
  7  6  2  0  0  0  0
  8  3  2  0  0  0  0
  9  1  1  0  0  0  0
 10  5  1  0  0  0  0
 11  9  2  0  0  0  0
 11 12  1  0  0  0  0
 12  7  1  0  0  0  0
 13 15  1  0  0  0  0
 14 15  2  0  0  0  0
 15 11  1  0  0  0  0
 16 18  1  0  0  0  0
 17 16  3  0  0  0  0
 19 18  1  0  0  0  0
 20 19  1  0  0  0  0
 21 20  1  0  0  0  0
 22 21  2  0  0  0  0
 23 21  1  0  0  0  0
 25 24  1  0  0  0  0
M  END
>  <MODEL>
6

>  <REMARK>
 VINA RESULT:      -6.2      3.728      5.577
  Name = 
  7 active torsions:
  status: ('A' for Active; 'I' for Inactive)
    1  A    between atoms: C_1  and  O_24
    2  A    between atoms: C_4  and  C_19
    3  A    between atoms: C_11  and  N_14
    4  A    between atoms: C_13  and  C_22
    5  A    between atoms: C_15  and  C_22
    6  A    between atoms: C_15  and  O_24
    7  A    between atoms: C_17  and  C_23
                            x       y       z     vdW  Elec       q    Type
                         _______ _______ _______ _____ _____    ______ ____

>  <TORSDO>
F 7

$$$$
=
 OpenBabel11072409393D

 25 27  0  0  0  0  0  0  0  0999 V2000
  184.0940  178.6360  144.1700 C   0  0  0  0  0  0  0  0  0  0  0  0
  184.1160  179.0490  145.5010 C   0  0  0  0  0  3  0  0  0  0  0  0
  187.1140  177.3230  146.7060 C   0  0  0  0  0  0  0  0  0  0  0  0
  185.1630  178.5660  146.2980 C   0  0  0  0  0  0  0  0  0  0  0  0
  186.6590  178.0990  148.1100 S   0  0  0  0  0  0  0  0  0  0  0  0
  186.1070  177.2910  144.4030 C   0  0  0  0  0  0  0  0  0  0  0  0
  185.0440  177.7950  143.6400 C   0  0  0  0  0  0  0  0  0  0  0  0
  186.1590  177.6900  145.7590 C   0  0  0  0  0  0  0  0  0  0  0  0
  183.1930  178.9500  143.1740 C   0  0  0  0  0  3  0  0  0  0  0  0
  185.2900  178.9010  147.6080 N   0  0  0  0  0  0  0  0  0  0  0  0
  183.6900  178.2460  142.0760 C   0  0  0  0  0  0  0  0  0  0  0  0
  184.7840  177.5710  142.3790 O   0  0  0  0  0  0  0  0  0  0  0  0
  181.8060  178.7540  140.5530 O   0  0  0  0  0  1  0  0  0  0  0  0
  183.7200  177.7770  139.7610 O   0  0  0  0  0  0  0  0  0  0  0  0
  183.0830  178.2430  140.7420 C   0  0  0  0  0  0  0  0  0  0  0  0
  189.2300  175.7660  146.4170 C   0  0  0  0  0  0  0  0  0  0  0  0
  188.2640  176.4740  146.5470 C   0  0  0  0  0  0  0  0  0  0  0  0
  190.4070  174.9100  146.2620 C   0  0  0  0  0  2  0  0  0  0  0  0
  190.5920  174.5680  144.7950 C   0  0  0  0  0  2  0  0  0  0  0  0
  189.7040  173.5250  144.4160 O   0  0  0  0  0  0  0  0  0  0  0  0
  189.3410  173.2960  143.0870 C   0  0  0  0  0  0  0  0  0  0  0  0
  189.7670  174.1750  142.1000 O   0  0  0  0  0  0  0  0  0  0  0  0
  188.6310  172.3040  142.7710 O   0  0  0  0  0  1  0  0  0  0  0  0
  187.0930  176.4140  143.8450 N   0  0  0  0  0  2  0  0  0  0  0  0
  188.0950  176.8670  143.0570 O   0  0  0  0  0  1  0  0  0  0  0  0
  1  2  2  0  0  0  0
  2  4  1  0  0  0  0
  3  5  1  0  0  0  0
  4 10  2  0  0  0  0
  6  8  1  0  0  0  0
  7  1  1  0  0  0  0
  7  6  2  0  0  0  0
  8  4  1  0  0  0  0
  8  3  2  0  0  0  0
  9  1  1  0  0  0  0
 10  5  1  0  0  0  0
 11 12  1  0  0  0  0
 11  9  2  0  0  0  0
 12  7  1  0  0  0  0
 13 15  1  0  0  0  0
 14 15  2  0  0  0  0
 15 11  1  0  0  0  0
 16 17  3  0  0  0  0
 17  3  1  0  0  0  0
 18 16  1  0  0  0  0
 19 18  1  0  0  0  0
 20 19  1  0  0  0  0
 21 20  1  0  0  0  0
 22 21  2  0  0  0  0
 23 21  1  0  0  0  0
 24  6  1  0  0  0  0
 25 24  1  0  0  0  0
M  END
>  <MODEL>
7

>  <REMARK>
 VINA RESULT:      -6.1      2.230      7.437
  Name = 
  7 active torsions:
  status: ('A' for Active; 'I' for Inactive)
    1  A    between atoms: C_1  and  O_24
    2  A    between atoms: C_4  and  C_19
    3  A    between atoms: C_11  and  N_14
    4  A    between atoms: C_13  and  C_22
    5  A    between atoms: C_15  and  C_22
    6  A    between atoms: C_15  and  O_24
    7  A    between atoms: C_17  and  C_23
                            x       y       z     vdW  Elec       q    Type
                         _______ _______ _______ _____ _____    ______ ____

>  <TORSDO>
F 7

$$$$
=
 OpenBabel11072409393D

 25 27  0  0  0  0  0  0  0  0999 V2000
  191.9830  175.3740  143.5260 C   0  0  0  0  0  0  0  0  0  0  0  0
  191.3680  174.7390  142.4490 C   0  0  0  0  0  3  0  0  0  0  0  0
  188.1760  176.5310  142.3230 C   0  0  0  0  0  0  0  0  0  0  0  0
  190.0840  175.1800  142.0990 C   0  0  0  0  0  0  0  0  0  0  0  0
  187.9530  175.4800  141.0470 S   0  0  0  0  0  0  0  0  0  0  0  0
  190.0950  176.8610  143.9110 C   0  0  0  0  0  0  0  0  0  0  0  0
  191.3770  176.3900  144.2290 C   0  0  0  0  0  0  0  0  0  0  0  0
  189.4440  176.2370  142.8220 C   0  0  0  0  0  0  0  0  0  0  0  0
  193.2250  175.1470  144.0800 C   0  0  0  0  0  3  0  0  0  0  0  0
  189.3880  174.6380  141.0670 N   0  0  0  0  0  0  0  0  0  0  0  0
  193.2750  176.0810  145.1160 C   0  0  0  0  0  0  0  0  0  0  0  0
  192.1710  176.8020  145.1820 O   0  0  0  0  0  0  0  0  0  0  0  0
  195.3120  175.2170  146.2290 O   0  0  0  0  0  0  0  0  0  0  0  0
  194.5660  177.3440  146.6390 O   0  0  0  0  0  1  0  0  0  0  0  0
  194.4080  176.2530  146.0290 C   0  0  0  0  0  0  0  0  0  0  0  0
  186.4530  178.3610  143.1400 C   0  0  0  0  0  0  0  0  0  0  0  0
  187.2370  177.5250  142.7690 C   0  0  0  0  0  0  0  0  0  0  0  0
  185.5040  179.3810  143.5890 C   0  0  0  0  0  2  0  0  0  0  0  0
  184.2460  178.7070  144.1050 C   0  0  0  0  0  2  0  0  0  0  0  0
  184.0970  178.9420  145.4990 O   0  0  0  0  0  0  0  0  0  0  0  0
  184.6570  178.1020  146.4650 C   0  0  0  0  0  0  0  0  0  0  0  0
  185.1580  176.8630  146.0860 O   0  0  0  0  0  0  0  0  0  0  0  0
  184.7120  178.4510  147.6740 O   0  0  0  0  0  1  0  0  0  0  0  0
  189.4720  177.9190  144.6480 N   0  0  0  0  0  2  0  0  0  0  0  0
  188.8830  177.7090  145.8480 O   0  0  0  0  0  1  0  0  0  0  0  0
  1  9  1  0  0  0  0
  1  7  1  0  0  0  0
  2  1  2  0  0  0  0
  3 17  1  0  0  0  0
  3  8  2  0  0  0  0
  4  2  1  0  0  0  0
  4  8  1  0  0  0  0
  5 10  1  0  0  0  0
  5  3  1  0  0  0  0
  6  7  2  0  0  0  0
  6 24  1  0  0  0  0
  7 12  1  0  0  0  0
  8  6  1  0  0  0  0
  9 11  2  0  0  0  0
 10  4  2  0  0  0  0
 11 12  1  0  0  0  0
 11 15  1  0  0  0  0
 15 13  2  0  0  0  0
 15 14  1  0  0  0  0
 16 18  1  0  0  0  0
 17 16  3  0  0  0  0
 18 19  1  0  0  0  0
 19 20  1  0  0  0  0
 20 21  1  0  0  0  0
 21 23  1  0  0  0  0
 22 21  2  0  0  0  0
 24 25  1  0  0  0  0
M  END
>  <MODEL>
8

>  <REMARK>
 VINA RESULT:      -6.1      3.534      4.976
  Name = 
  7 active torsions:
  status: ('A' for Active; 'I' for Inactive)
    1  A    between atoms: C_1  and  O_24
    2  A    between atoms: C_4  and  C_19
    3  A    between atoms: C_11  and  N_14
    4  A    between atoms: C_13  and  C_22
    5  A    between atoms: C_15  and  C_22
    6  A    between atoms: C_15  and  O_24
    7  A    between atoms: C_17  and  C_23
                            x       y       z     vdW  Elec       q    Type
                         _______ _______ _______ _____ _____    ______ ____

>  <TORSDO>
F 7

$$$$
=
 OpenBabel11072409393D

 25 27  0  0  0  0  0  0  0  0999 V2000
  186.8410  176.7760  144.1650 C   0  0  0  0  0  0  0  0  0  0  0  0
  187.0460  176.1750  142.9240 C   0  0  0  0  0  3  0  0  0  0  0  0
  190.2970  174.5750  143.4640 C   0  0  0  0  0  0  0  0  0  0  0  0
  188.2340  175.4490  142.7580 C   0  0  0  0  0  0  0  0  0  0  0  0
  190.0180  174.1090  141.8860 S   0  0  0  0  0  0  0  0  0  0  0  0
  188.9460  175.9570  145.0700 C   0  0  0  0  0  0  0  0  0  0  0  0
  187.7480  176.6740  145.1950 C   0  0  0  0  0  0  0  0  0  0  0  0
  189.1850  175.3360  143.8220 C   0  0  0  0  0  0  0  0  0  0  0  0
  185.7780  177.5390  144.6010 C   0  0  0  0  0  3  0  0  0  0  0  0
  188.5420  174.8200  141.5950 N   0  0  0  0  0  0  0  0  0  0  0  0
  186.1400  177.8510  145.9120 C   0  0  0  0  0  0  0  0  0  0  0  0
  187.3080  177.3280  146.2380 O   0  0  0  0  0  0  0  0  0  0  0  0
  185.9400  179.6040  147.6490 O   0  0  0  0  0  1  0  0  0  0  0  0
  184.0860  178.5020  146.8790 O   0  0  0  0  0  0  0  0  0  0  0  0
  185.3340  178.6600  146.8300 C   0  0  0  0  0  0  0  0  0  0  0  0
  192.4100  173.9350  144.9170 C   0  0  0  0  0  0  0  0  0  0  0  0
  191.4470  174.2280  144.2530 C   0  0  0  0  0  0  0  0  0  0  0  0
  193.5740  173.5760  145.7270 C   0  0  0  0  0  2  0  0  0  0  0  0
  194.7220  174.5150  145.4040 C   0  0  0  0  0  2  0  0  0  0  0  0
  194.9040  175.4500  146.4590 O   0  0  0  0  0  0  0  0  0  0  0  0
  194.2590  176.6890  146.4810 C   0  0  0  0  0  0  0  0  0  0  0  0
  193.0060  176.7980  147.0690 O   0  0  0  0  0  1  0  0  0  0  0  0
  194.7980  177.7090  145.9750 O   0  0  0  0  0  0  0  0  0  0  0  0
  189.8850  175.8560  146.1470 N   0  0  0  0  0  2  0  0  0  0  0  0
  189.6550  175.0830  147.2330 O   0  0  0  0  0  1  0  0  0  0  0  0
  1  9  1  0  0  0  0
  1  7  1  0  0  0  0
  2  1  2  0  0  0  0
  3  8  2  0  0  0  0
  3 17  1  0  0  0  0
  4  2  1  0  0  0  0
  4  8  1  0  0  0  0
  5  3  1  0  0  0  0
  6  7  2  0  0  0  0
  6 24  1  0  0  0  0
  7 12  1  0  0  0  0
  8  6  1  0  0  0  0
  9 11  2  0  0  0  0
 10  5  1  0  0  0  0
 10  4  2  0  0  0  0
 11 12  1  0  0  0  0
 11 15  1  0  0  0  0
 15 14  2  0  0  0  0
 15 13  1  0  0  0  0
 16 18  1  0  0  0  0
 17 16  3  0  0  0  0
 19 18  1  0  0  0  0
 19 20  1  0  0  0  0
 20 21  1  0  0  0  0
 21 22  1  0  0  0  0
 23 21  2  0  0  0  0
 24 25  1  0  0  0  0
M  END
>  <MODEL>
9

>  <REMARK>
 VINA RESULT:      -6.1      4.142      8.903
  Name = 
  7 active torsions:
  status: ('A' for Active; 'I' for Inactive)
    1  A    between atoms: C_1  and  O_24
    2  A    between atoms: C_4  and  C_19
    3  A    between atoms: C_11  and  N_14
    4  A    between atoms: C_13  and  C_22
    5  A    between atoms: C_15  and  C_22
    6  A    between atoms: C_15  and  O_24
    7  A    between atoms: C_17  and  C_23
                            x       y       z     vdW  Elec       q    Type
                         _______ _______ _______ _____ _____    ______ ____

>  <TORSDO>
F 7

$$$$
