=
 OpenBabel11062422303D

 43 47  0  0  1  0  0  0  0  0999 V2000
  187.3080  177.3250  146.0610 C   0  0  1  0  0  3  0  0  0  0  0  0
  191.7620  173.6190  138.8550 C   0  0  0  0  0  2  0  0  0  0  0  0
  187.3950  177.5830  144.5500 C   0  0  1  0  0  3  0  0  0  0  0  0
  187.6350  172.7950  141.1650 O   0  0  0  0  0  0  0  0  0  0  0  0
  192.6800  174.8720  144.5290 C   0  0  0  0  0  3  0  0  0  0  0  0
  190.7030  174.9540  146.4710 C   0  0  0  0  0  0  0  0  0  0  0  0
  192.0010  176.6760  147.6480 N   0  0  0  0  0  1  0  0  0  0  0  0
  188.2130  175.5120  141.7690 C   0  0  0  0  0  2  0  0  0  0  0  0
  186.5130  179.7450  143.9270 O   0  0  0  0  0  1  0  0  0  0  0  0
  190.4340  172.0660  143.3270 C   0  0  0  0  0  2  0  0  0  0  0  0
  184.8100  178.1040  144.5270 C   0  0  2  0  0  0  0  0  0  0  0  0
  184.5610  178.9230  145.8000 C   0  0  0  0  0  2  0  0  0  0  0  0
  192.1740  173.2930  142.0350 C   0  0  0  0  0  0  0  0  0  0  0  0
  190.6650  171.5610  140.8230 C   0  0  2  0  0  0  0  0  0  0  0  0
  191.8370  175.7740  146.5580 C   0  0  0  0  0  0  0  0  0  0  0  0
  192.9370  174.2830  141.8600 O   0  0  0  0  0  0  0  0  0  0  0  0
  188.5480  176.9110  146.5480 O   0  0  0  0  0  0  0  0  0  0  0  0
  188.3730  176.6160  142.7950 C   0  0  0  0  0  2  0  0  0  0  0  0
  189.6310  175.0020  147.5150 C   0  0  0  0  0  2  0  0  0  0  0  0
  188.7270  173.0420  141.7440 C   0  0  0  0  0  0  0  0  0  0  0  0
  186.8310  178.5360  146.8450 C   0  0  0  0  0  2  0  0  0  0  0  0
  187.5320  176.3600  143.8830 O   0  0  0  0  0  0  0  0  0  0  0  0
  190.0240  171.8590  139.4460 C   0  0  0  0  0  2  0  0  0  0  0  0
  192.6760  172.6560  139.6200 C   0  0  0  0  0  2  0  0  0  0  0  0
  192.7930  175.7080  145.5940 N   0  0  0  0  0  0  0  0  0  0  0  0
  188.3430  175.5890  146.9560 C   0  0  0  0  0  2  0  0  0  0  0  0
  189.6970  171.9130  141.9920 C   0  0  2  0  0  3  0  0  0  0  0  0
  191.5600  174.0390  144.3870 C   0  0  0  0  0  0  0  0  0  0  0  0
  185.3250  178.4400  147.0320 C   0  0  0  0  0  2  0  0  0  0  0  0
  192.0710  172.2310  140.9650 C   0  0  1  0  0  3  0  0  0  0  0  0
  189.0400  174.3780  142.1410 N   0  0  0  0  0  2  0  0  0  0  0  0
  184.6420  176.7420  144.8010 O   0  0  0  0  0  1  0  0  0  0  0  0
  191.4140  173.1520  143.2540 N   0  0  0  0  0  0  0  0  0  0  0  0
  190.2700  173.3020  139.0060 C   0  0  0  0  0  2  0  0  0  0  0  0
  190.5760  174.0880  145.3830 C   0  0  0  0  0  3  0  0  0  0  0  0
  186.2180  178.3780  143.9490 C   0  0  2  0  0  3  0  0  0  0  0  0
  190.9620  169.3960  139.8810 O   0  0  0  0  0  0  0  0  0  0  0  0
  190.8700  170.0750  140.8930 C   0  0  0  0  0  3  0  0  0  0  0  0
  183.7540  178.5410  143.5060 C   0  0  0  0  0  2  0  0  0  0  0  0
  184.0770  178.1320  142.0690 C   0  0  0  0  0  2  0  0  0  0  0  0
  181.6490  178.6020  141.7280 O   0  0  0  0  0  1  0  0  0  0  0  0
  182.9290  177.7810  140.0110 O   0  0  0  0  0  0  0  0  0  0  0  0
  182.8590  178.1570  141.2100 C   0  0  0  0  0  0  0  0  0  0  0  0
  1 17  1  0  0  0  0
  1 21  1  1  0  0  0
  2 34  1  0  0  0  0
  2 24  1  0  0  0  0
  3 22  1  6  0  0  0
  3  1  1  0  0  0  0
  4 20  2  0  0  0  0
  5 25  1  0  0  0  0
  6 15  1  0  0  0  0
  6 19  1  0  0  0  0
  8 31  1  0  0  0  0
  8 18  1  0  0  0  0
 11 32  1  1  0  0  0
 11 12  1  0  0  0  0
 12 29  1  0  0  0  0
 13 33  1  0  0  0  0
 14 38  1  1  0  0  0
 14 30  1  0  0  0  0
 14 27  1  0  0  0  0
 15  7  1  0  0  0  0
 16 13  2  0  0  0  0
 17 26  1  0  0  0  0
 18 22  1  0  0  0  0
 20 27  1  0  0  0  0
 20 31  1  0  0  0  0
 21 29  1  0  0  0  0
 23 14  1  0  0  0  0
 25 15  2  0  0  0  0
 26 19  1  0  0  0  0
 27 10  1  1  0  0  0
 28  5  2  0  0  0  0
 28 35  1  0  0  0  0
 30 24  1  6  0  0  0
 30 13  1  0  0  0  0
 33 10  1  0  0  0  0
 33 28  1  0  0  0  0
 34 23  1  0  0  0  0
 35  6  2  0  0  0  0
 36  9  1  1  0  0  0
 36 11  1  0  0  0  0
 36  3  1  0  0  0  0
 37 38  2  0  0  0  0
 39 11  1  0  0  0  0
 40 39  1  0  0  0  0
 42 43  2  0  0  0  0
 43 41  1  0  0  0  0
 43 40  1  0  0  0  0
M  END
>  <MODEL>
1

>  <REMARK>
 VINA RESULT:      -8.9      0.000      0.000
  Name = 
  4 active torsions:
  status: ('A' for Active; 'I' for Inactive)
    1  A    between atoms: C_7  and  C_11
    2  A    between atoms: C_7  and  C_37
    3  A    between atoms: C_11  and  C_16
    4  A    between atoms: C_19  and  C_28
                            x       y       z     vdW  Elec       q    Type
                         _______ _______ _______ _____ _____    ______ ____

>  <TORSDO>
F 4

$$$$
=
 OpenBabel11062422303D

 43 47  0  0  1  0  0  0  0  0999 V2000
  187.3730  177.1110  145.5880 C   0  0  1  0  0  3  0  0  0  0  0  0
  194.3890  174.8410  140.0100 C   0  0  0  0  0  2  0  0  0  0  0  0
  187.8600  177.5100  144.1880 C   0  0  1  0  0  3  0  0  0  0  0  0
  189.9880  173.1420  140.8970 O   0  0  0  0  0  0  0  0  0  0  0  0
  193.3140  175.7320  145.7250 C   0  0  0  0  0  3  0  0  0  0  0  0
  190.8660  175.3130  146.9580 C   0  0  0  0  0  0  0  0  0  0  0  0
  191.4080  177.1180  148.5340 N   0  0  0  0  0  1  0  0  0  0  0  0
  189.8430  175.8550  141.7360 C   0  0  0  0  0  2  0  0  0  0  0  0
  186.8200  179.5410  143.3900 O   0  0  0  0  0  1  0  0  0  0  0  0
  192.0930  172.7050  143.7970 C   0  0  0  0  0  2  0  0  0  0  0  0
  185.3510  177.5930  143.3790 C   0  0  2  0  0  0  0  0  0  0  0  0
  184.5840  178.2460  144.5370 C   0  0  0  0  0  2  0  0  0  0  0  0
  193.8820  174.3130  143.1490 C   0  0  0  0  0  0  0  0  0  0  0  0
  193.1550  172.4660  141.4740 C   0  0  2  0  0  0  0  0  0  0  0  0
  191.7490  176.3000  147.4190 C   0  0  0  0  0  0  0  0  0  0  0  0
  194.4640  175.4280  143.2510 O   0  0  0  0  0  0  0  0  0  0  0  0
  188.4640  176.8700  146.4240 O   0  0  0  0  0  0  0  0  0  0  0  0
  189.4800  176.8770  142.7950 C   0  0  0  0  0  2  0  0  0  0  0  0
  189.5410  175.0910  147.6180 C   0  0  0  0  0  2  0  0  0  0  0  0
  190.7900  173.5170  141.7930 C   0  0  0  0  0  0  0  0  0  0  0  0
  186.4660  178.1530  146.2230 C   0  0  0  0  0  2  0  0  0  0  0  0
  188.4150  176.3910  143.5590 O   0  0  0  0  0  0  0  0  0  0  0  0
  192.9120  172.7710  139.9770 C   0  0  0  0  0  2  0  0  0  0  0  0
  195.1940  173.9820  140.9910 C   0  0  0  0  0  2  0  0  0  0  0  0
  192.9450  176.4790  146.7990 N   0  0  0  0  0  0  0  0  0  0  0  0
  188.3950  175.5010  146.7060 C   0  0  0  0  0  2  0  0  0  0  0  0
  191.8330  172.5490  142.2950 C   0  0  2  0  0  3  0  0  0  0  0  0
  192.4640  174.7390  145.2160 C   0  0  0  0  0  0  0  0  0  0  0  0
  185.0190  177.7910  145.9290 C   0  0  0  0  0  2  0  0  0  0  0  0
  194.3030  173.3460  142.0670 C   0  0  1  0  0  3  0  0  0  0  0  0
  190.7160  174.8470  142.3100 N   0  0  0  0  0  2  0  0  0  0  0  0
  185.3640  176.2040  143.5440 O   0  0  0  0  0  1  0  0  0  0  0  0
  192.8310  173.9410  144.0660 N   0  0  0  0  0  0  0  0  0  0  0  0
  193.0070  174.2680  139.6800 C   0  0  0  0  0  2  0  0  0  0  0  0
  191.2340  174.5360  145.8580 C   0  0  0  0  0  3  0  0  0  0  0  0
  186.7910  178.1480  143.2770 C   0  0  2  0  0  3  0  0  0  0  0  0
  194.4790  170.6850  142.3320 O   0  0  0  0  0  0  0  0  0  0  0  0
  193.6010  171.0350  141.5570 C   0  0  0  0  0  3  0  0  0  0  0  0
  184.5880  177.9350  142.0950 C   0  0  0  0  0  2  0  0  0  0  0  0
  183.1510  178.3990  142.3340 C   0  0  0  0  0  2  0  0  0  0  0  0
  180.8900  178.0830  141.3230 O   0  0  0  0  0  1  0  0  0  0  0  0
  182.7820  177.7730  140.0650 O   0  0  0  0  0  0  0  0  0  0  0  0
  182.2720  178.0650  141.1770 C   0  0  0  0  0  0  0  0  0  0  0  0
  1 21  1  1  0  0  0
  1 17  1  0  0  0  0
  2 24  1  0  0  0  0
  3 22  1  6  0  0  0
  3  1  1  0  0  0  0
  4 20  2  0  0  0  0
  5 25  1  0  0  0  0
  6 15  1  0  0  0  0
  6 19  1  0  0  0  0
  8 31  1  0  0  0  0
  8 18  1  0  0  0  0
 10 33  1  0  0  0  0
 11 32  1  1  0  0  0
 11 12  1  0  0  0  0
 12 29  1  0  0  0  0
 13 16  2  0  0  0  0
 13 33  1  0  0  0  0
 14 38  1  1  0  0  0
 14 30  1  0  0  0  0
 14 27  1  0  0  0  0
 15  7  1  0  0  0  0
 17 26  1  0  0  0  0
 18 22  1  0  0  0  0
 20 27  1  0  0  0  0
 20 31  1  0  0  0  0
 23 14  1  0  0  0  0
 25 15  2  0  0  0  0
 26 19  1  0  0  0  0
 27 10  1  1  0  0  0
 28  5  2  0  0  0  0
 28 35  1  0  0  0  0
 29 21  1  0  0  0  0
 30 24  1  6  0  0  0
 30 13  1  0  0  0  0
 33 28  1  0  0  0  0
 34 23  1  0  0  0  0
 34  2  1  0  0  0  0
 35  6  2  0  0  0  0
 36 11  1  0  0  0  0
 36  9  1  1  0  0  0
 36  3  1  0  0  0  0
 38 37  2  0  0  0  0
 39 40  1  0  0  0  0
 39 11  1  0  0  0  0
 42 43  2  0  0  0  0
 43 41  1  0  0  0  0
 43 40  1  0  0  0  0
M  END
>  <MODEL>
2

>  <REMARK>
 VINA RESULT:      -8.3      1.567      1.861
  Name = 
  4 active torsions:
  status: ('A' for Active; 'I' for Inactive)
    1  A    between atoms: C_7  and  C_11
    2  A    between atoms: C_7  and  C_37
    3  A    between atoms: C_11  and  C_16
    4  A    between atoms: C_19  and  C_28
                            x       y       z     vdW  Elec       q    Type
                         _______ _______ _______ _____ _____    ______ ____

>  <TORSDO>
F 4

$$$$
=
 OpenBabel11062422303D

 43 47  0  0  1  0  0  0  0  0999 V2000
  189.6770  176.7510  144.8330 C   0  0  1  0  0  3  0  0  0  0  0  0
  194.8560  171.2070  139.5470 C   0  0  0  0  0  2  0  0  0  0  0  0
  189.9000  176.5300  143.3300 C   0  0  1  0  0  3  0  0  0  0  0  0
  190.5480  170.9450  141.6500 O   0  0  0  0  0  0  0  0  0  0  0  0
  195.2150  174.2030  144.5970 C   0  0  0  0  0  3  0  0  0  0  0  0
  193.0640  174.7890  146.2450 C   0  0  0  0  0  0  0  0  0  0  0  0
  194.2130  176.8510  146.9260 N   0  0  0  0  0  1  0  0  0  0  0  0
  191.0140  173.7400  141.4170 C   0  0  0  0  0  2  0  0  0  0  0  0
  189.0370  178.3470  141.9900 O   0  0  0  0  0  1  0  0  0  0  0  0
  193.1460  171.0580  144.1540 C   0  0  0  0  0  2  0  0  0  0  0  0
  187.3180  176.8940  142.9310 C   0  0  2  0  0  0  0  0  0  0  0  0
  186.9360  178.0560  143.8580 C   0  0  0  0  0  2  0  0  0  0  0  0
  194.9750  171.9050  142.6910 C   0  0  0  0  0  0  0  0  0  0  0  0
  193.6200  169.8130  141.9630 C   0  0  2  0  0  0  0  0  0  0  0  0
  194.1690  175.6490  146.1640 C   0  0  0  0  0  0  0  0  0  0  0  0
  195.7310  172.8270  142.2780 O   0  0  0  0  0  0  0  0  0  0  0  0
  190.8740  176.5690  145.5260 O   0  0  0  0  0  0  0  0  0  0  0  0
  191.0560  175.1140  142.0540 C   0  0  0  0  0  2  0  0  0  0  0  0
  191.8990  175.1080  147.1290 C   0  0  0  0  0  2  0  0  0  0  0  0
  191.5760  171.4120  142.2090 C   0  0  0  0  0  0  0  0  0  0  0  0
  189.1050  178.1210  145.1560 C   0  0  0  0  0  2  0  0  0  0  0  0
  190.1220  175.1690  143.0940 O   0  0  0  0  0  0  0  0  0  0  0  0
  193.1050  169.6370  140.5140 C   0  0  0  0  0  2  0  0  0  0  0  0
  195.7130  170.5740  140.6470 C   0  0  0  0  0  2  0  0  0  0  0  0
  195.2120  175.3330  145.3520 N   0  0  0  0  0  0  0  0  0  0  0  0
  190.6580  175.4300  146.3100 C   0  0  0  0  0  2  0  0  0  0  0  0
  192.5410  170.4630  142.8790 C   0  0  2  0  0  3  0  0  0  0  0  0
  194.1300  173.3140  144.6310 C   0  0  0  0  0  0  0  0  0  0  0  0
  187.5900  178.0160  145.2380 C   0  0  0  0  0  2  0  0  0  0  0  0
  194.9940  170.5600  142.0030 C   0  0  1  0  0  3  0  0  0  0  0  0
  191.8240  172.8190  142.1920 N   0  0  0  0  0  2  0  0  0  0  0  0
  187.1520  175.6790  143.6030 O   0  0  0  0  0  1  0  0  0  0  0  0
  194.1080  172.1130  143.8250 N   0  0  0  0  0  0  0  0  0  0  0  0
  193.3630  170.8810  139.6660 C   0  0  0  0  0  2  0  0  0  0  0  0
  193.0560  173.6230  145.4770 C   0  0  0  0  0  3  0  0  0  0  0  0
  188.7690  177.0430  142.4150 C   0  0  2  0  0  3  0  0  0  0  0  0
  194.8370  168.1660  143.1760 O   0  0  0  0  0  0  0  0  0  0  0  0
  193.8460  168.4330  142.5120 C   0  0  0  0  0  3  0  0  0  0  0  0
  186.3540  176.9410  141.7410 C   0  0  0  0  0  2  0  0  0  0  0  0
  185.6780  178.2990  141.5460 C   0  0  0  0  0  2  0  0  0  0  0  0
  183.6980  177.8790  140.0840 O   0  0  0  0  0  0  0  0  0  0  0  0
  183.4280  178.2680  142.3280 O   0  0  0  0  0  1  0  0  0  0  0  0
  184.2080  178.1510  141.3480 C   0  0  0  0  0  0  0  0  0  0  0  0
  1 21  1  6  0  0  0
  1 17  1  0  0  0  0
  2 34  1  0  0  0  0
  2 24  1  0  0  0  0
  3 22  1  1  0  0  0
  3  1  1  0  0  0  0
  4 20  2  0  0  0  0
  5 28  2  0  0  0  0
  5 25  1  0  0  0  0
  6 19  1  0  0  0  0
  8 18  1  0  0  0  0
  8 31  1  0  0  0  0
 11 32  1  1  0  0  0
 11 12  1  0  0  0  0
 12 29  1  0  0  0  0
 13 33  1  0  0  0  0
 14 30  1  0  0  0  0
 14 38  1  1  0  0  0
 14 27  1  0  0  0  0
 15  6  1  0  0  0  0
 15  7  1  0  0  0  0
 16 13  2  0  0  0  0
 17 26  1  0  0  0  0
 18 22  1  0  0  0  0
 20 27  1  0  0  0  0
 21 29  1  0  0  0  0
 23 14  1  0  0  0  0
 25 15  2  0  0  0  0
 26 19  1  0  0  0  0
 27 10  1  1  0  0  0
 28 35  1  0  0  0  0
 30 24  1  6  0  0  0
 30 13  1  0  0  0  0
 31 20  1  0  0  0  0
 33 10  1  0  0  0  0
 33 28  1  0  0  0  0
 34 23  1  0  0  0  0
 35  6  2  0  0  0  0
 36  9  1  1  0  0  0
 36 11  1  0  0  0  0
 36  3  1  0  0  0  0
 38 37  2  0  0  0  0
 39 11  1  0  0  0  0
 40 39  1  0  0  0  0
 41 43  2  0  0  0  0
 43 40  1  0  0  0  0
 43 42  1  0  0  0  0
M  END
>  <MODEL>
3

>  <REMARK>
 VINA RESULT:      -7.9      2.374      3.116
  Name = 
  4 active torsions:
  status: ('A' for Active; 'I' for Inactive)
    1  A    between atoms: C_7  and  C_11
    2  A    between atoms: C_7  and  C_37
    3  A    between atoms: C_11  and  C_16
    4  A    between atoms: C_19  and  C_28
                            x       y       z     vdW  Elec       q    Type
                         _______ _______ _______ _____ _____    ______ ____

>  <TORSDO>
F 4

$$$$
=
 OpenBabel11062422303D

 43 47  0  0  1  0  0  0  0  0999 V2000
  187.9690  176.8450  145.2380 C   0  0  1  0  0  3  0  0  0  0  0  0
  195.5080  174.1590  140.6060 C   0  0  0  0  0  2  0  0  0  0  0  0
  188.5750  177.0960  143.8500 C   0  0  1  0  0  3  0  0  0  0  0  0
  191.0760  172.4450  141.2890 O   0  0  0  0  0  0  0  0  0  0  0  0
  193.8980  175.6630  146.0610 C   0  0  0  0  0  3  0  0  0  0  0  0
  191.3550  175.3160  147.1120 C   0  0  0  0  0  0  0  0  0  0  0  0
  191.7170  177.3040  148.5090 N   0  0  0  0  0  1  0  0  0  0  0  0
  190.8050  175.2300  141.7910 C   0  0  0  0  0  2  0  0  0  0  0  0
  187.5750  178.9910  142.7320 O   0  0  0  0  0  1  0  0  0  0  0  0
  192.9150  172.4020  144.3960 C   0  0  0  0  0  2  0  0  0  0  0  0
  186.1490  177.0130  142.8170 C   0  0  2  0  0  0  0  0  0  0  0  0
  185.2680  177.7710  143.8190 C   0  0  0  0  0  2  0  0  0  0  0  0
  194.7250  173.9770  143.7270 C   0  0  0  0  0  0  0  0  0  0  0  0
  194.1890  171.9310  142.2200 C   0  0  2  0  0  0  0  0  0  0  0  0
  192.1740  176.3750  147.5320 C   0  0  0  0  0  0  0  0  0  0  0  0
  195.2750  175.1120  143.7500 O   0  0  0  0  0  0  0  0  0  0  0  0
  188.9840  176.7320  146.1890 O   0  0  0  0  0  0  0  0  0  0  0  0
  190.3280  176.3550  142.6880 C   0  0  0  0  0  2  0  0  0  0  0  0
  189.9800  175.1330  147.6730 C   0  0  0  0  0  2  0  0  0  0  0  0
  191.7860  172.9420  142.2040 C   0  0  0  0  0  0  0  0  0  0  0  0
  186.9890  177.9250  145.6640 C   0  0  0  0  0  2  0  0  0  0  0  0
  189.2060  175.9280  143.4060 O   0  0  0  0  0  0  0  0  0  0  0  0
  194.0790  172.0560  140.6820 C   0  0  0  0  0  2  0  0  0  0  0  0
  196.2350  173.4400  141.7470 C   0  0  0  0  0  2  0  0  0  0  0  0
  193.4180  176.5170  147.0030 N   0  0  0  0  0  0  0  0  0  0  0  0
  188.9150  175.4030  146.6210 C   0  0  0  0  0  2  0  0  0  0  0  0
  192.7960  172.0680  142.9060 C   0  0  2  0  0  3  0  0  0  0  0  0
  193.1160  174.5940  145.5970 C   0  0  0  0  0  0  0  0  0  0  0  0
  185.5820  177.4900  145.2870 C   0  0  0  0  0  2  0  0  0  0  0  0
  195.2620  172.9060  142.8070 C   0  0  1  0  0  3  0  0  0  0  0  0
  191.6400  174.3200  142.5540 N   0  0  0  0  0  2  0  0  0  0  0  0
  186.1730  175.6530  143.1430 O   0  0  0  0  0  1  0  0  0  0  0  0
  193.6020  173.6820  144.5840 N   0  0  0  0  0  0  0  0  0  0  0  0
  194.1720  173.5110  140.2230 C   0  0  0  0  0  2  0  0  0  0  0  0
  191.8370  174.4300  146.1460 C   0  0  0  0  0  3  0  0  0  0  0  0
  187.5820  177.5940  142.7790 C   0  0  2  0  0  3  0  0  0  0  0  0
  195.1190  169.8210  141.6300 O   0  0  0  0  0  0  0  0  0  0  0  0
  194.6520  170.5320  142.5080 C   0  0  0  0  0  3  0  0  0  0  0  0
  185.5010  177.1840  141.4390 C   0  0  0  0  0  2  0  0  0  0  0  0
  184.6330  178.4360  141.3150 C   0  0  0  0  0  2  0  0  0  0  0  0
  182.9090  177.6160  139.7060 O   0  0  0  0  0  0  0  0  0  0  0  0
  182.3190  178.2230  141.8370 O   0  0  0  0  0  1  0  0  0  0  0  0
  183.2240  178.0900  140.9740 C   0  0  0  0  0  0  0  0  0  0  0  0
  1 21  1  1  0  0  0
  1 17  1  0  0  0  0
  2 24  1  0  0  0  0
  3 22  1  6  0  0  0
  3  1  1  0  0  0  0
  4 20  2  0  0  0  0
  5 25  1  0  0  0  0
  6 15  1  0  0  0  0
  6 19  1  0  0  0  0
  8 31  1  0  0  0  0
  8 18  1  0  0  0  0
 10 33  1  0  0  0  0
 11 32  1  1  0  0  0
 11 12  1  0  0  0  0
 12 29  1  0  0  0  0
 13 16  2  0  0  0  0
 13 33  1  0  0  0  0
 14 38  1  1  0  0  0
 14 30  1  0  0  0  0
 14 27  1  0  0  0  0
 15  7  1  0  0  0  0
 17 26  1  0  0  0  0
 18 22  1  0  0  0  0
 20 31  1  0  0  0  0
 20 27  1  0  0  0  0
 23 14  1  0  0  0  0
 25 15  2  0  0  0  0
 26 19  1  0  0  0  0
 27 10  1  1  0  0  0
 28  5  2  0  0  0  0
 28 35  1  0  0  0  0
 29 21  1  0  0  0  0
 30 24  1  6  0  0  0
 30 13  1  0  0  0  0
 33 28  1  0  0  0  0
 34  2  1  0  0  0  0
 34 23  1  0  0  0  0
 35  6  2  0  0  0  0
 36  9  1  1  0  0  0
 36 11  1  0  0  0  0
 36  3  1  0  0  0  0
 37 38  2  0  0  0  0
 39 11  1  0  0  0  0
 40 39  1  0  0  0  0
 41 43  2  0  0  0  0
 43 40  1  0  0  0  0
 43 42  1  0  0  0  0
M  END
>  <MODEL>
4

>  <REMARK>
 VINA RESULT:      -7.6      1.987      2.626
  Name = 
  4 active torsions:
  status: ('A' for Active; 'I' for Inactive)
    1  A    between atoms: C_7  and  C_11
    2  A    between atoms: C_7  and  C_37
    3  A    between atoms: C_11  and  C_16
    4  A    between atoms: C_19  and  C_28
                            x       y       z     vdW  Elec       q    Type
                         _______ _______ _______ _____ _____    ______ ____

>  <TORSDO>
F 4

$$$$
=
 OpenBabel11062422303D

 43 47  0  0  1  0  0  0  0  0999 V2000
  191.9420  175.5080  145.7260 C   0  0  1  0  0  3  0  0  0  0  0  0
  191.0290  172.8330  136.9220 C   0  0  0  0  0  2  0  0  0  0  0  0
  191.2050  176.0120  144.4780 C   0  0  1  0  0  3  0  0  0  0  0  0
  188.8320  171.8580  141.0780 O   0  0  0  0  0  0  0  0  0  0  0  0
  195.1280  173.0590  141.1360 C   0  0  0  0  0  3  0  0  0  0  0  0
  194.6100  172.9190  143.8560 C   0  0  0  0  0  0  0  0  0  0  0  0
  196.5720  174.3440  144.2510 N   0  0  0  0  0  1  0  0  0  0  0  0
  190.0260  174.3990  141.5280 C   0  0  0  0  0  2  0  0  0  0  0  0
  190.4410  178.2930  144.7100 O   0  0  0  0  0  1  0  0  0  0  0  0
  192.2250  170.6230  141.1480 C   0  0  0  0  0  2  0  0  0  0  0  0
  189.1540  176.6700  145.9980 C   0  0  2  0  0  0  0  0  0  0  0  0
  189.7780  177.2750  147.2630 C   0  0  0  0  0  2  0  0  0  0  0  0
  193.0970  171.9530  139.2320 C   0  0  0  0  0  0  0  0  0  0  0  0
  190.9420  170.5360  138.9280 C   0  0  2  0  0  0  0  0  0  0  0  0
  195.7010  173.6500  143.3640 C   0  0  0  0  0  0  0  0  0  0  0  0
  193.7630  172.9150  138.7590 O   0  0  0  0  0  0  0  0  0  0  0  0
  193.1700  174.9510  145.3650 O   0  0  0  0  0  0  0  0  0  0  0  0
  190.8870  175.3030  142.3880 C   0  0  0  0  0  2  0  0  0  0  0  0
  194.3250  172.8500  145.3240 C   0  0  0  0  0  2  0  0  0  0  0  0
  190.0830  171.9440  140.9470 C   0  0  0  0  0  0  0  0  0  0  0  0
  192.1620  176.5930  146.7670 C   0  0  0  0  0  2  0  0  0  0  0  0
  190.7720  174.9140  143.7260 O   0  0  0  0  0  0  0  0  0  0  0  0
  189.6910  171.0960  138.2110 C   0  0  0  0  0  2  0  0  0  0  0  0
  192.0680  171.7070  136.9150 C   0  0  0  0  0  2  0  0  0  0  0  0
  195.9350  173.6960  142.0250 N   0  0  0  0  0  0  0  0  0  0  0  0
  193.0440  173.5920  145.6720 C   0  0  0  0  0  2  0  0  0  0  0  0
  190.8550  170.7380  140.4710 C   0  0  2  0  0  3  0  0  0  0  0  0
  194.0160  172.3240  141.5740 C   0  0  0  0  0  0  0  0  0  0  0  0
  191.0220  176.5490  147.7720 C   0  0  0  0  0  2  0  0  0  0  0  0
  192.2650  171.0950  138.3080 C   0  0  1  0  0  3  0  0  0  0  0  0
  190.7500  173.1750  141.2340 N   0  0  0  0  0  2  0  0  0  0  0  0
  188.9770  175.2930  146.1710 O   0  0  0  0  0  1  0  0  0  0  0  0
  193.1380  171.6500  140.6430 N   0  0  0  0  0  0  0  0  0  0  0  0
  189.8500  172.5770  137.8670 C   0  0  0  0  0  2  0  0  0  0  0  0
  193.7760  172.2580  142.9530 C   0  0  0  0  0  3  0  0  0  0  0  0
  190.0200  176.9600  144.7510 C   0  0  2  0  0  3  0  0  0  0  0  0
  190.4230  168.5540  137.7180 O   0  0  0  0  0  0  0  0  0  0  0  0
  190.9390  169.0510  138.7080 C   0  0  0  0  0  3  0  0  0  0  0  0
  187.7820  177.3300  145.8230 C   0  0  0  0  0  2  0  0  0  0  0  0
  186.7120  176.7960  146.7760 C   0  0  0  0  0  2  0  0  0  0  0  0
  185.8530  178.9760  147.6380 O   0  0  0  0  0  1  0  0  0  0  0  0
  184.4640  177.5390  146.5130 O   0  0  0  0  0  0  0  0  0  0  0  0
  185.6120  177.7830  146.9660 C   0  0  0  0  0  0  0  0  0  0  0  0
  1 21  1  1  0  0  0
  2 34  1  0  0  0  0
  3 22  1  1  0  0  0
  3 36  1  0  0  0  0
  3  1  1  0  0  0  0
  5 28  2  0  0  0  0
  5 25  1  0  0  0  0
  6 19  1  0  0  0  0
  8 18  1  0  0  0  0
 11 32  1  1  0  0  0
 11 12  1  0  0  0  0
 12 29  1  0  0  0  0
 13 33  1  0  0  0  0
 14 38  1  6  0  0  0
 14 27  1  0  0  0  0
 15  6  1  0  0  0  0
 15  7  1  0  0  0  0
 16 13  2  0  0  0  0
 17 26  1  0  0  0  0
 17  1  1  0  0  0  0
 18 22  1  0  0  0  0
 19 26  1  0  0  0  0
 20  4  2  0  0  0  0
 20 31  1  0  0  0  0
 21 29  1  0  0  0  0
 23 14  1  0  0  0  0
 24  2  1  0  0  0  0
 25 15  2  0  0  0  0
 27 20  1  0  0  0  0
 27 10  1  6  0  0  0
 28 35  1  0  0  0  0
 30 24  1  6  0  0  0
 30 14  1  0  0  0  0
 30 13  1  0  0  0  0
 31  8  1  0  0  0  0
 33 10  1  0  0  0  0
 33 28  1  0  0  0  0
 34 23  1  0  0  0  0
 35  6  2  0  0  0  0
 36  9  1  1  0  0  0
 36 11  1  0  0  0  0
 37 38  2  0  0  0  0
 39 11  1  0  0  0  0
 39 40  1  0  0  0  0
 40 43  1  0  0  0  0
 42 43  2  0  0  0  0
 43 41  1  0  0  0  0
M  END
>  <MODEL>
5

>  <REMARK>
 VINA RESULT:      -7.6      2.872      4.335
  Name = 
  4 active torsions:
  status: ('A' for Active; 'I' for Inactive)
    1  A    between atoms: C_7  and  C_11
    2  A    between atoms: C_7  and  C_37
    3  A    between atoms: C_11  and  C_16
    4  A    between atoms: C_19  and  C_28
                            x       y       z     vdW  Elec       q    Type
                         _______ _______ _______ _____ _____    ______ ____

>  <TORSDO>
F 4

$$$$
=
 OpenBabel11062422303D

 43 47  0  0  1  0  0  0  0  0999 V2000
  192.9780  172.8510  141.4940 C   0  0  1  0  0  3  0  0  0  0  0  0
  185.6450  176.4160  145.8560 C   0  0  0  0  0  2  0  0  0  0  0  0
  191.6150  172.3440  141.9830 C   0  0  1  0  0  3  0  0  0  0  0  0
  187.1240  176.0610  141.3030 O   0  0  0  0  0  0  0  0  0  0  0  0
  191.5160  176.7950  145.9140 C   0  0  0  0  0  3  0  0  0  0  0  0
  193.1500  176.3660  143.7150 C   0  0  0  0  0  0  0  0  0  0  0  0
  194.8960  175.5480  145.2370 N   0  0  0  0  0  1  0  0  0  0  0  0
  188.5020  173.9530  142.6230 C   0  0  0  0  0  2  0  0  0  0  0  0
  191.4910  169.9300  142.0380 O   0  0  0  0  0  1  0  0  0  0  0  0
  189.3380  178.2250  143.1610 C   0  0  0  0  0  2  0  0  0  0  0  0
  191.4150  170.8850  139.7940 C   0  0  2  0  0  0  0  0  0  0  0  0
  192.8210  170.3120  139.5730 C   0  0  0  0  0  2  0  0  0  0  0  0
  188.6470  177.5170  145.4460 C   0  0  0  0  0  0  0  0  0  0  0  0
  186.8380  178.2560  143.7350 C   0  0  2  0  0  0  0  0  0  0  0  0
  193.5930  176.0760  145.0140 C   0  0  0  0  0  0  0  0  0  0  0  0
  188.8390  176.8780  146.5180 O   0  0  0  0  0  0  0  0  0  0  0  0
  193.4850  173.7960  142.3870 O   0  0  0  0  0  0  0  0  0  0  0  0
  189.7980  173.2290  142.9250 C   0  0  0  0  0  2  0  0  0  0  0  0
  194.0290  176.1280  142.5270 C   0  0  0  0  0  2  0  0  0  0  0  0
  187.8780  176.3720  142.2640 C   0  0  0  0  0  0  0  0  0  0  0  0
  193.9940  171.7380  141.2990 C   0  0  0  0  0  2  0  0  0  0  0  0
  190.6660  173.3620  141.8370 O   0  0  0  0  0  0  0  0  0  0  0  0
  185.5240  177.4630  143.5420 C   0  0  0  0  0  2  0  0  0  0  0  0
  186.2300  177.7880  146.2050 C   0  0  0  0  0  2  0  0  0  0  0  0
  192.7720  176.3010  146.0740 N   0  0  0  0  0  0  0  0  0  0  0  0
  193.4950  174.9940  141.6650 C   0  0  0  0  0  2  0  0  0  0  0  0
  187.9310  177.8100  142.7180 C   0  0  2  0  0  3  0  0  0  0  0  0
  191.0190  177.0910  144.6360 C   0  0  0  0  0  0  0  0  0  0  0  0
  193.9610  171.2900  139.8470 C   0  0  0  0  0  2  0  0  0  0  0  0
  187.3270  178.2160  145.2210 C   0  0  1  0  0  3  0  0  0  0  0  0
  188.6540  175.3670  142.9180 N   0  0  0  0  0  2  0  0  0  0  0  0
  191.2900  172.1050  139.1210 O   0  0  0  0  0  1  0  0  0  0  0  0
  189.6800  177.6040  144.4420 N   0  0  0  0  0  0  0  0  0  0  0  0
  185.5210  176.1650  144.3490 C   0  0  0  0  0  2  0  0  0  0  0  0
  191.8630  176.8760  143.5380 C   0  0  0  0  0  3  0  0  0  0  0  0
  191.1090  171.0550  141.3010 C   0  0  2  0  0  3  0  0  0  0  0  0
  185.5660  180.2620  143.8880 O   0  0  0  0  0  0  0  0  0  0  0  0
  186.5310  179.6890  143.4050 C   0  0  0  0  0  3  0  0  0  0  0  0
  190.4270  169.8810  139.1920 C   0  0  0  0  0  2  0  0  0  0  0  0
  189.6970  170.3980  137.9520 C   0  0  0  0  0  2  0  0  0  0  0  0
  191.1890  168.8790  136.6480 O   0  0  0  0  0  1  0  0  0  0  0  0
  190.3480  170.7870  135.6940 O   0  0  0  0  0  0  0  0  0  0  0  0
  190.4270  170.0400  136.7020 C   0  0  0  0  0  0  0  0  0  0  0  0
  1 21  1  1  0  0  0
  1  3  1  0  0  0  0
  1 17  1  0  0  0  0
  2 24  1  0  0  0  0
  3 22  1  6  0  0  0
  4 20  2  0  0  0  0
  5 25  1  0  0  0  0
  6 15  1  0  0  0  0
  8 31  1  0  0  0  0
  8 18  1  0  0  0  0
 10 33  1  0  0  0  0
 11 32  1  6  0  0  0
 11 36  1  0  0  0  0
 12 11  1  0  0  0  0
 12 29  1  0  0  0  0
 13 16  2  0  0  0  0
 14 38  1  6  0  0  0
 14 30  1  0  0  0  0
 15  7  1  0  0  0  0
 15 25  2  0  0  0  0
 19  6  1  0  0  0  0
 20 27  1  0  0  0  0
 20 31  1  0  0  0  0
 22 18  1  0  0  0  0
 23 14  1  0  0  0  0
 23 34  1  0  0  0  0
 26 17  1  0  0  0  0
 26 19  1  0  0  0  0
 27 10  1  1  0  0  0
 27 14  1  0  0  0  0
 28  5  2  0  0  0  0
 29 21  1  0  0  0  0
 30 13  1  0  0  0  0
 30 24  1  1  0  0  0
 33 28  1  0  0  0  0
 33 13  1  0  0  0  0
 34  2  1  0  0  0  0
 35  6  2  0  0  0  0
 35 28  1  0  0  0  0
 36  3  1  0  0  0  0
 36  9  1  1  0  0  0
 38 37  2  0  0  0  0
 39 11  1  0  0  0  0
 40 39  1  0  0  0  0
 41 43  1  0  0  0  0
 42 43  2  0  0  0  0
 43 40  1  0  0  0  0
M  END
>  <MODEL>
6

>  <REMARK>
 VINA RESULT:      -7.3      2.197      8.340
  Name = 
  4 active torsions:
  status: ('A' for Active; 'I' for Inactive)
    1  A    between atoms: C_7  and  C_11
    2  A    between atoms: C_7  and  C_37
    3  A    between atoms: C_11  and  C_16
    4  A    between atoms: C_19  and  C_28
                            x       y       z     vdW  Elec       q    Type
                         _______ _______ _______ _____ _____    ______ ____

>  <TORSDO>
F 4

$$$$
=
 OpenBabel11062422303D

 43 47  0  0  1  0  0  0  0  0999 V2000
  191.0410  176.4390  145.6490 C   0  0  1  0  0  3  0  0  0  0  0  0
  191.7210  171.4690  137.8820 C   0  0  0  0  0  2  0  0  0  0  0  0
  190.2380  176.2830  144.3500 C   0  0  1  0  0  3  0  0  0  0  0  0
  189.8400  170.8170  142.2500 O   0  0  0  0  0  0  0  0  0  0  0  0
  195.1760  174.3250  141.6920 C   0  0  0  0  0  3  0  0  0  0  0  0
  194.5990  174.6950  144.3790 C   0  0  0  0  0  0  0  0  0  0  0  0
  195.8370  176.8160  144.3000 N   0  0  0  0  0  1  0  0  0  0  0  0
  189.9370  173.6450  141.9750 C   0  0  0  0  0  2  0  0  0  0  0  0
  188.6440  178.0700  144.0260 O   0  0  0  0  0  1  0  0  0  0  0  0
  193.4370  171.0480  142.4700 C   0  0  0  0  0  2  0  0  0  0  0  0
  188.0090  176.4630  145.7490 C   0  0  2  0  0  0  0  0  0  0  0  0
  188.2810  177.5630  146.7840 C   0  0  0  0  0  2  0  0  0  0  0  0
  193.8360  172.0750  140.2370 C   0  0  0  0  0  0  0  0  0  0  0  0
  192.4130  169.9110  140.4120 C   0  0  2  0  0  0  0  0  0  0  0  0
  195.3510  175.6380  143.6640 C   0  0  0  0  0  0  0  0  0  0  0  0
  194.1050  173.0640  139.5010 O   0  0  0  0  0  0  0  0  0  0  0  0
  192.4060  176.3260  145.3850 O   0  0  0  0  0  0  0  0  0  0  0  0
  190.3340  174.9980  142.5310 C   0  0  0  0  0  2  0  0  0  0  0  0
  194.2810  174.8980  145.8280 C   0  0  0  0  0  2  0  0  0  0  0  0
  190.9660  171.3420  142.0410 C   0  0  0  0  0  0  0  0  0  0  0  0
  190.7680  177.7510  146.3650 C   0  0  0  0  0  2  0  0  0  0  0  0
  190.3030  174.9500  143.9280 O   0  0  0  0  0  0  0  0  0  0  0  0
  191.0850  169.7410  139.6360 C   0  0  0  0  0  2  0  0  0  0  0  0
  193.1120  170.8690  138.1140 C   0  0  0  0  0  2  0  0  0  0  0  0
  195.6230  175.4270  142.3490 N   0  0  0  0  0  0  0  0  0  0  0  0
  192.7960  175.1510  146.0360 C   0  0  0  0  0  2  0  0  0  0  0  0
  192.1680  170.4490  141.8540 C   0  0  2  0  0  3  0  0  0  0  0  0
  194.4090  173.3560  142.3570 C   0  0  0  0  0  0  0  0  0  0  0  0
  189.6780  177.5290  147.4020 C   0  0  0  0  0  2  0  0  0  0  0  0
  193.4510  170.7580  139.6060 C   0  0  1  0  0  3  0  0  0  0  0  0
  191.0910  172.7640  141.9690 N   0  0  0  0  0  2  0  0  0  0  0  0
  188.3670  175.2180  146.2770 O   0  0  0  0  0  1  0  0  0  0  0  0
  193.9110  172.1820  141.6740 N   0  0  0  0  0  0  0  0  0  0  0  0
  190.6810  171.0280  138.9170 C   0  0  0  0  0  2  0  0  0  0  0  0
  194.1360  173.5560  143.7180 C   0  0  0  0  0  3  0  0  0  0  0  0
  188.7660  176.7370  144.4280 C   0  0  2  0  0  3  0  0  0  0  0  0
  194.1680  168.3050  140.3350 O   0  0  0  0  0  0  0  0  0  0  0  0
  192.9930  168.5360  140.5810 C   0  0  0  0  0  3  0  0  0  0  0  0
  186.5010  176.4740  145.4770 C   0  0  0  0  0  2  0  0  0  0  0  0
  185.7060  177.3580  146.4380 C   0  0  0  0  0  2  0  0  0  0  0  0
  185.6610  179.2260  144.7820 O   0  0  0  0  0  0  0  0  0  0  0  0
  183.7650  178.6440  145.9330 O   0  0  0  0  0  1  0  0  0  0  0  0
  184.9860  178.4420  145.7100 C   0  0  0  0  0  0  0  0  0  0  0  0
  1 21  1  6  0  0  0
  2 24  1  0  0  0  0
  2 34  1  0  0  0  0
  3 22  1  1  0  0  0
  3 36  1  0  0  0  0
  3  1  1  0  0  0  0
  5 25  2  0  0  0  0
  5 28  1  0  0  0  0
  6 19  1  0  0  0  0
  8 18  1  0  0  0  0
 11 32  1  1  0  0  0
 11 12  1  0  0  0  0
 12 29  1  0  0  0  0
 13 33  1  0  0  0  0
 14 38  1  1  0  0  0
 14 27  1  0  0  0  0
 15  7  1  0  0  0  0
 15  6  2  0  0  0  0
 16 13  2  0  0  0  0
 17  1  1  0  0  0  0
 17 26  1  0  0  0  0
 18 22  1  0  0  0  0
 19 26  1  0  0  0  0
 20  4  2  0  0  0  0
 21 29  1  0  0  0  0
 23 14  1  0  0  0  0
 25 15  1  0  0  0  0
 27 20  1  0  0  0  0
 27 10  1  6  0  0  0
 28 35  2  0  0  0  0
 30 24  1  6  0  0  0
 30 13  1  0  0  0  0
 30 14  1  0  0  0  0
 31  8  1  0  0  0  0
 31 20  1  0  0  0  0
 33 28  1  0  0  0  0
 33 10  1  0  0  0  0
 34 23  1  0  0  0  0
 35  6  1  0  0  0  0
 36  9  1  1  0  0  0
 36 11  1  0  0  0  0
 37 38  2  0  0  0  0
 39 11  1  0  0  0  0
 39 40  1  0  0  0  0
 41 43  2  0  0  0  0
 43 42  1  0  0  0  0
 43 40  1  0  0  0  0
M  END
>  <MODEL>
7

>  <REMARK>
 VINA RESULT:      -7.3      2.511      3.695
  Name = 
  4 active torsions:
  status: ('A' for Active; 'I' for Inactive)
    1  A    between atoms: C_7  and  C_11
    2  A    between atoms: C_7  and  C_37
    3  A    between atoms: C_11  and  C_16
    4  A    between atoms: C_19  and  C_28
                            x       y       z     vdW  Elec       q    Type
                         _______ _______ _______ _____ _____    ______ ____

>  <TORSDO>
F 4

$$$$
=
 OpenBabel11062422303D

 43 47  0  0  1  0  0  0  0  0999 V2000
  195.2430  172.3740  140.0350 C   0  0  1  0  0  3  0  0  0  0  0  0
  190.0330  174.8150  147.2730 C   0  0  0  0  0  2  0  0  0  0  0  0
  194.4040  171.6540  141.1000 C   0  0  1  0  0  3  0  0  0  0  0  0
  189.3530  174.2650  142.5530 O   0  0  0  0  0  0  0  0  0  0  0  0
  195.0340  176.4010  144.6130 C   0  0  0  0  0  3  0  0  0  0  0  0
  195.5610  176.0750  141.9100 C   0  0  0  0  0  0  0  0  0  0  0  0
  197.9410  175.8110  142.4580 N   0  0  0  0  0  1  0  0  0  0  0  0
  191.6280  172.6490  143.0980 C   0  0  0  0  0  2  0  0  0  0  0  0
  194.8890  169.2890  141.2170 O   0  0  0  0  0  1  0  0  0  0  0  0
  191.5870  177.0340  143.1700 C   0  0  0  0  0  2  0  0  0  0  0  0
  193.5950  169.9500  139.2570 C   0  0  2  0  0  0  0  0  0  0  0  0
  194.8430  169.6580  138.4140 C   0  0  0  0  0  2  0  0  0  0  0  0
  192.1800  176.4590  145.5200 C   0  0  0  0  0  0  0  0  0  0  0  0
  189.6800  176.6130  144.8330 C   0  0  2  0  0  0  0  0  0  0  0  0
  196.5930  176.0300  142.8600 C   0  0  0  0  0  0  0  0  0  0  0  0
  192.9760  175.9980  146.3840 O   0  0  0  0  0  0  0  0  0  0  0  0
  195.8580  173.4970  140.5890 O   0  0  0  0  0  0  0  0  0  0  0  0
  193.0520  172.2460  142.7710 C   0  0  0  0  0  2  0  0  0  0  0  0
  195.8430  175.8920  140.4520 C   0  0  0  0  0  2  0  0  0  0  0  0
  190.3610  174.8300  143.0570 C   0  0  0  0  0  0  0  0  0  0  0  0
  196.2930  171.4800  139.3980 C   0  0  0  0  0  2  0  0  0  0  0  0
  193.2810  172.4320  141.4040 O   0  0  0  0  0  0  0  0  0  0  0  0
  188.6460  175.5490  145.2710 C   0  0  0  0  0  2  0  0  0  0  0  0
  190.3710  176.3090  147.3070 C   0  0  0  0  0  2  0  0  0  0  0  0
  196.3060  176.1990  144.1770 N   0  0  0  0  0  0  0  0  0  0  0  0
  195.2620  174.5830  139.9380 C   0  0  0  0  0  2  0  0  0  0  0  0
  190.2730  176.2900  143.4290 C   0  0  2  0  0  3  0  0  0  0  0  0
  193.9640  176.4430  143.7080 C   0  0  0  0  0  0  0  0  0  0  0  0
  195.7200  170.8750  138.1270 C   0  0  0  0  0  2  0  0  0  0  0  0
  190.7760  176.8410  145.9260 C   0  0  1  0  0  3  0  0  0  0  0  0
  191.5600  174.0870  143.2830 N   0  0  0  0  0  2  0  0  0  0  0  0
  192.8990  171.0340  138.7130 O   0  0  0  0  0  1  0  0  0  0  0  0
  192.6010  176.6440  144.1520 N   0  0  0  0  0  0  0  0  0  0  0  0
  189.3100  174.3770  145.9950 C   0  0  0  0  0  2  0  0  0  0  0  0
  194.2510  176.2860  142.3450 C   0  0  0  0  0  3  0  0  0  0  0  0
  193.9660  170.2210  140.7340 C   0  0  2  0  0  3  0  0  0  0  0  0
  187.9390  177.9840  143.9660 O   0  0  0  0  0  0  0  0  0  0  0  0
  188.9310  177.9050  144.6760 C   0  0  0  0  0  3  0  0  0  0  0  0
  192.7080  168.7020  139.1830 C   0  0  0  0  0  2  0  0  0  0  0  0
  191.4400  168.7930  140.0310 C   0  0  0  0  0  2  0  0  0  0  0  0
  190.0700  170.8800  140.0350 O   0  0  0  0  0  1  0  0  0  0  0  0
  189.9090  169.3840  138.3050 O   0  0  0  0  0  0  0  0  0  0  0  0
  190.4310  169.6940  139.4060 C   0  0  0  0  0  0  0  0  0  0  0  0
  1 21  1  1  0  0  0
  1 17  1  0  0  0  0
  1  3  1  0  0  0  0
  2 24  1  0  0  0  0
  3 22  1  6  0  0  0
  4 20  2  0  0  0  0
  6 35  2  0  0  0  0
  6 15  1  0  0  0  0
  7 15  1  0  0  0  0
  8 31  1  0  0  0  0
 10 33  1  0  0  0  0
 11 32  1  6  0  0  0
 11 36  1  0  0  0  0
 12 11  1  0  0  0  0
 13 30  1  0  0  0  0
 13 16  2  0  0  0  0
 14 38  1  6  0  0  0
 14 23  1  0  0  0  0
 14 30  1  0  0  0  0
 15 25  2  0  0  0  0
 18  8  1  0  0  0  0
 19  6  1  0  0  0  0
 20 31  1  0  0  0  0
 20 27  1  0  0  0  0
 22 18  1  0  0  0  0
 23 34  1  0  0  0  0
 25  5  1  0  0  0  0
 26 19  1  0  0  0  0
 26 17  1  0  0  0  0
 27 10  1  1  0  0  0
 27 14  1  0  0  0  0
 28 33  1  0  0  0  0
 28  5  2  0  0  0  0
 29 12  1  0  0  0  0
 29 21  1  0  0  0  0
 30 24  1  1  0  0  0
 33 13  1  0  0  0  0
 34  2  1  0  0  0  0
 35 28  1  0  0  0  0
 36  3  1  0  0  0  0
 36  9  1  6  0  0  0
 37 38  2  0  0  0  0
 39 11  1  0  0  0  0
 39 40  1  0  0  0  0
 42 43  2  0  0  0  0
 43 40  1  0  0  0  0
 43 41  1  0  0  0  0
M  END
>  <MODEL>
8

>  <REMARK>
 VINA RESULT:      -6.5      3.188      9.063
  Name = 
  4 active torsions:
  status: ('A' for Active; 'I' for Inactive)
    1  A    between atoms: C_7  and  C_11
    2  A    between atoms: C_7  and  C_37
    3  A    between atoms: C_11  and  C_16
    4  A    between atoms: C_19  and  C_28
                            x       y       z     vdW  Elec       q    Type
                         _______ _______ _______ _____ _____    ______ ____

>  <TORSDO>
F 4

$$$$
=
 OpenBabel11062422303D

 43 47  0  0  1  0  0  0  0  0999 V2000
  190.3350  173.1630  139.2710 C   0  0  1  0  0  3  0  0  0  0  0  0
  197.8290  174.1140  144.6020 C   0  0  0  0  0  2  0  0  0  0  0  0
  191.7760  173.6590  139.0920 C   0  0  1  0  0  3  0  0  0  0  0  0
  195.8900  170.6080  141.9570 O   0  0  0  0  0  0  0  0  0  0  0  0
  191.9890  174.7360  144.9290 C   0  0  0  0  0  3  0  0  0  0  0  0
  190.1580  173.2940  143.4260 C   0  0  0  0  0  0  0  0  0  0  0  0
  188.6510  175.2340  143.4950 N   0  0  0  0  0  1  0  0  0  0  0  0
  194.8180  172.9820  140.8180 C   0  0  0  0  0  2  0  0  0  0  0  0
  192.0760  174.9150  137.0490 O   0  0  0  0  0  1  0  0  0  0  0  0
  193.7450  171.3810  144.7580 C   0  0  0  0  0  2  0  0  0  0  0  0
  191.8390  172.5100  136.7190 C   0  0  2  0  0  0  0  0  0  0  0  0
  190.4610  172.7950  136.1060 C   0  0  0  0  0  2  0  0  0  0  0  0
  194.7310  173.5970  145.3230 C   0  0  0  0  0  0  0  0  0  0  0  0
  196.2840  171.5290  145.0910 C   0  0  2  0  0  0  0  0  0  0  0  0
  189.8820  174.6050  143.8400 C   0  0  0  0  0  0  0  0  0  0  0  0
  194.7030  174.8590  145.3230 O   0  0  0  0  0  0  0  0  0  0  0  0
  189.8630  173.5110  140.5370 O   0  0  0  0  0  0  0  0  0  0  0  0
  193.6170  173.7760  140.3440 C   0  0  0  0  0  2  0  0  0  0  0  0
  189.1730  172.5180  142.6090 C   0  0  0  0  0  2  0  0  0  0  0  0
  195.2260  171.3680  142.7130 C   0  0  0  0  0  0  0  0  0  0  0  0
  189.3850  173.6950  138.2100 C   0  0  0  0  0  2  0  0  0  0  0  0
  192.6290  172.8950  139.8960 O   0  0  0  0  0  0  0  0  0  0  0  0
  197.6220  171.5950  144.3160 C   0  0  0  0  0  2  0  0  0  0  0  0
  197.1910  173.7910  145.9570 C   0  0  0  0  0  2  0  0  0  0  0  0
  190.7960  175.2860  144.5810 N   0  0  0  0  0  0  0  0  0  0  0  0
  189.6890  172.2890  141.1960 C   0  0  0  0  0  2  0  0  0  0  0  0
  195.1210  171.0320  144.1810 C   0  0  2  0  0  3  0  0  0  0  0  0
  192.3210  173.4320  144.5310 C   0  0  0  0  0  0  0  0  0  0  0  0
  189.2910  172.6810  137.0810 C   0  0  0  0  0  2  0  0  0  0  0  0
  195.9650  172.8780  145.8150 C   0  0  1  0  0  3  0  0  0  0  0  0
  194.5990  172.5360  142.1820 N   0  0  0  0  0  2  0  0  0  0  0  0
  191.8020  171.3010  137.4220 O   0  0  0  0  0  1  0  0  0  0  0  0
  193.5900  172.8330  144.8790 N   0  0  0  0  0  0  0  0  0  0  0  0
  197.8050  172.9410  143.6160 C   0  0  0  0  0  2  0  0  0  0  0  0
  191.3790  172.7160  143.7800 C   0  0  0  0  0  3  0  0  0  0  0  0
  192.2940  173.6670  137.6390 C   0  0  2  0  0  3  0  0  0  0  0  0
  197.3920  169.7020  146.1380 O   0  0  0  0  0  0  0  0  0  0  0  0
  196.4500  170.4800  146.1530 C   0  0  0  0  0  3  0  0  0  0  0  0
  192.8230  172.3770  135.5520 C   0  0  0  0  0  2  0  0  0  0  0  0
  193.8110  171.2210  135.7050 C   0  0  0  0  0  2  0  0  0  0  0  0
  195.3620  171.8820  137.5460 O   0  0  0  0  0  1  0  0  0  0  0  0
  196.0590  171.9310  135.3620 O   0  0  0  0  0  0  0  0  0  0  0  0
  195.1380  171.6980  136.1870 C   0  0  0  0  0  0  0  0  0  0  0  0
  1 21  1  6  0  0  0
  1 17  1  0  0  0  0
  2 24  1  0  0  0  0
  3  1  1  0  0  0  0
  3 22  1  1  0  0  0
  4 20  2  0  0  0  0
  6 35  2  0  0  0  0
  6 15  1  0  0  0  0
  7 15  1  0  0  0  0
  8 31  1  0  0  0  0
 10 33  1  0  0  0  0
 11 32  1  1  0  0  0
 11 36  1  0  0  0  0
 12 11  1  0  0  0  0
 12 29  1  0  0  0  0
 13 16  2  0  0  0  0
 13 30  1  0  0  0  0
 14 30  1  0  0  0  0
 14 38  1  1  0  0  0
 15 25  2  0  0  0  0
 17 26  1  0  0  0  0
 18  8  1  0  0  0  0
 19  6  1  0  0  0  0
 20 27  1  0  0  0  0
 22 18  1  0  0  0  0
 23 14  1  0  0  0  0
 25  5  1  0  0  0  0
 26 19  1  0  0  0  0
 27 10  1  1  0  0  0
 27 14  1  0  0  0  0
 28 33  1  0  0  0  0
 28  5  2  0  0  0  0
 29 21  1  0  0  0  0
 30 24  1  6  0  0  0
 31 20  1  0  0  0  0
 33 13  1  0  0  0  0
 34 23  1  0  0  0  0
 34  2  1  0  0  0  0
 35 28  1  0  0  0  0
 36  9  1  6  0  0  0
 36  3  1  0  0  0  0
 37 38  2  0  0  0  0
 39 40  1  0  0  0  0
 39 11  1  0  0  0  0
 40 43  1  0  0  0  0
 42 43  2  0  0  0  0
 43 41  1  0  0  0  0
M  END
>  <MODEL>
9

>  <REMARK>
 VINA RESULT:      -6.5      4.514      8.625
  Name = 
  4 active torsions:
  status: ('A' for Active; 'I' for Inactive)
    1  A    between atoms: C_7  and  C_11
    2  A    between atoms: C_7  and  C_37
    3  A    between atoms: C_11  and  C_16
    4  A    between atoms: C_19  and  C_28
                            x       y       z     vdW  Elec       q    Type
                         _______ _______ _______ _____ _____    ______ ____

>  <TORSDO>
F 4

$$$$
