=
 OpenBabel11062423023D

 62 67  0  0  1  0  0  0  0  0999 V2000
  193.8430  171.8180  137.5770 C   0  0  2  0  0  3  0  0  0  0  0  0
  194.0500  174.0350  136.7070 O   0  0  0  0  0  0  0  0  0  0  0  0
  192.5720  171.0860  137.9960 C   0  0  0  0  0  2  0  0  0  0  0  0
  191.9070  173.0110  139.4120 C   0  0  0  0  0  0  0  0  0  0  0  0
  192.3480  175.0010  142.4880 C   0  0  0  0  0  2  0  0  0  0  0  0
  190.7240  173.5190  139.8060 C   0  0  0  0  0  3  0  0  0  0  0  0
  190.0620  174.2420  142.9910 C   0  0  0  0  0  2  0  0  0  0  0  0
  188.8250  172.1400  139.0030 C   0  0  0  0  0  1  0  0  0  0  0  0
  195.6430  173.6300  141.2690 C   0  0  2  0  0  3  0  0  0  0  0  0
  189.7110  172.9210  143.3030 O   0  0  0  0  0  0  0  0  0  0  0  0
  193.6450  173.3190  137.6120 C   0  0  0  0  0  0  0  0  0  0  0  0
  192.1570  171.5290  139.3890 C   0  0  0  0  0  2  0  0  0  0  0  0
  193.8270  174.8200  139.6970 C   0  0  0  0  0  2  0  0  0  0  0  0
  195.8490  176.2490  141.1410 C   0  0  0  0  0  1  0  0  0  0  0  0
  194.2520  174.2440  141.0710 C   0  0  1  0  0  0  0  0  0  0  0  0
  189.7410  171.6240  141.2590 C   0  0  0  0  0  2  0  0  0  0  0  0
  190.5040  172.0980  142.4860 C   0  0  0  0  0  2  0  0  0  0  0  0
  189.5000  172.7300  140.2250 C   0  0  1  0  0  3  0  0  0  0  0  0
  193.1710  173.7950  142.0400 C   0  0  0  0  0  2  0  0  0  0  0  0
  191.4080  174.6130  143.6240 C   0  0  2  0  0  3  0  0  0  0  0  0
  195.3120  175.0100  141.8760 C   0  0  1  0  0  3  0  0  0  0  0  0
  192.9360  173.9400  138.7880 C   0  0  2  0  0  3  0  0  0  0  0  0
  194.3280  171.3310  136.2850 N   0  0  0  0  0  2  0  0  0  0  0  0
  195.3560  170.3390  136.1100 C   0  0  0  0  0  0  0  0  0  0  0  0
  195.9030  170.1060  134.8170 N   0  0  0  0  0  1  0  0  0  0  0  0
  195.7460  169.6500  137.0880 O   0  0  0  0  0  0  0  0  0  0  0  0
  196.6820  173.7670  140.1520 C   0  0  0  0  0  2  0  0  0  0  0  0
  197.4570  172.4770  139.9170 C   0  0  0  0  0  2  0  0  0  0  0  0
  196.5530  171.2540  140.0370 C   0  0  0  0  0  2  0  0  0  0  0  0
  197.9410  169.3360  140.4310 O   0  0  0  0  0  1  0  0  0  0  0  0
  197.0420  170.2090  141.0460 C   0  0  2  0  0  3  0  0  0  0  0  0
  193.4960  169.4330  141.9050 C   0  0  0  0  0  2  0  0  0  0  0  0
  196.2550  169.3860  144.0790 O   0  0  0  0  0  1  0  0  0  0  0  0
  194.6280  169.4930  140.9020 C   0  0  0  0  0  2  0  0  0  0  0  0
  195.9050  169.4250  141.7140 C   0  0  2  0  0  3  0  0  0  0  0  0
  195.5550  170.0280  143.0590 C   0  0  1  0  0  3  0  0  0  0  0  0
  194.0700  169.8420  143.2520 C   0  0  0  0  0  2  0  0  0  0  0  0
  191.2780  175.7190  144.5850 N   0  0  0  0  0  0  0  0  0  0  0  0
  189.8910  175.8110  145.0850 C   0  0  1  0  0  3  0  0  0  0  0  0
  189.3330  174.0560  146.6260 O   0  0  0  0  0  1  0  0  0  0  0  0
  189.7290  175.3920  146.5460 C   0  0  0  0  0  2  0  0  0  0  0  0
  189.3280  177.1930  144.8240 C   0  0  0  0  0  2  0  0  0  0  0  0
  188.2870  177.4730  145.7100 O   0  0  0  0  0  0  0  0  0  0  0  0
  187.1280  177.1690  144.9830 C   0  0  2  0  0  3  0  0  0  0  0  0
  185.8480  177.6070  142.8410 C   0  0  2  0  0  3  0  0  0  0  0  0
  185.6360  178.6260  143.7910 O   0  0  0  0  0  0  0  0  0  0  0  0
  186.9320  178.0660  143.7510 C   0  0  1  0  0  3  0  0  0  0  0  0
  185.9950  178.1670  141.4150 C   0  0  2  0  0  3  0  0  0  0  0  0
  184.7490  178.1780  140.7860 O   0  0  0  0  0  1  0  0  0  0  0  0
  187.0130  177.4940  140.5360 C   0  0  0  0  0  3  0  0  0  0  0  0
  186.6900  177.0760  139.4340 O   0  0  0  0  0  0  0  0  0  0  0  0
  185.9000  177.2140  145.8900 C   0  0  0  0  0  2  0  0  0  0  0  0
  186.2740  177.0810  147.3610 C   0  0  0  0  0  1  0  0  0  0  0  0
  192.2040  175.4630  145.6970 C   0  0  0  0  0  2  0  0  0  0  0  0
  195.7370  173.1280  145.0160 C   0  0  0  0  0  2  0  0  0  0  0  0
  195.9970  174.5610  145.4930 C   0  0  2  0  0  3  0  0  0  0  0  0
  194.7330  175.4430  145.6150 C   0  0  1  0  0  3  0  0  0  0  0  0
  193.4320  174.7110  145.2140 C   0  0  1  0  0  3  0  0  0  0  0  0
  194.6530  175.8930  146.9230 F   0  0  0  0  0  0  0  0  0  0  0  0
  194.5120  172.5650  145.6770 C   0  0  0  0  0  3  0  0  0  0  0  0
  196.9330  175.1700  144.6740 F   0  0  0  0  0  0  0  0  0  0  0  0
  193.4090  173.3200  145.7670 C   0  0  0  0  0  3  0  0  0  0  0  0
  1 23  1  6  0  0  0
  1 11  1  0  0  0  0
  1  3  1  0  0  0  0
  2 11  2  0  0  0  0
  3 12  1  0  0  0  0
  4  6  2  0  0  0  0
  5 20  1  0  0  0  0
  6 18  1  0  0  0  0
  7 10  1  0  0  0  0
  7 20  1  0  0  0  0
  9 27  1  6  0  0  0
  9 21  1  0  0  0  0
 11 22  1  0  0  0  0
 12  4  1  0  0  0  0
 15 13  1  6  0  0  0
 15  9  1  0  0  0  0
 15 21  1  0  0  0  0
 15 19  1  0  0  0  0
 16 17  1  0  0  0  0
 17 10  1  0  0  0  0
 18  8  1  6  0  0  0
 18 16  1  0  0  0  0
 19  5  1  0  0  0  0
 20 38  1  1  0  0  0
 21 14  1  6  0  0  0
 22  4  1  0  0  0  0
 22 13  1  1  0  0  0
 24 23  1  0  0  0  0
 24 26  2  0  0  0  0
 25 24  1  0  0  0  0
 28 29  1  0  0  0  0
 28 27  1  0  0  0  0
 29 31  1  0  0  0  0
 31 30  1  6  0  0  0
 32 37  1  0  0  0  0
 34 35  1  0  0  0  0
 34 32  1  0  0  0  0
 35 31  1  6  0  0  0
 35 36  1  0  0  0  0
 36 37  1  0  0  0  0
 36 33  1  1  0  0  0
 38 39  1  0  0  0  0
 38 54  1  0  0  0  0
 39 42  1  1  0  0  0
 39 41  1  0  0  0  0
 41 40  1  0  0  0  0
 42 43  1  0  0  0  0
 44 43  1  0  0  0  0
 44 52  1  1  0  0  0
 45 48  1  6  0  0  0
 45 47  1  0  0  0  0
 45 46  1  0  0  0  0
 47 46  1  0  0  0  0
 47 44  1  1  0  0  0
 48 49  1  6  0  0  0
 50 48  1  0  0  0  0
 51 50  2  0  0  0  0
 52 53  1  0  0  0  0
 55 56  1  0  0  0  0
 55 60  1  0  0  0  0
 56 61  1  6  0  0  0
 56 57  1  0  0  0  0
 57 59  1  1  0  0  0
 58 57  1  0  0  0  0
 58 54  1  1  0  0  0
 58 62  1  0  0  0  0
 60 62  2  0  0  0  0
M  END
>  <MODEL>
1

>  <REMARK>
 VINA RESULT:      -6.2      0.000      0.000
  Name = 
  18 active torsions:
  status: ('A' for Active; 'I' for Inactive)
    1  A    between atoms: C_1  and  N_24
    2  A    between atoms: C_2  and  C_11
    3  A    between atoms: O_4  and  C_10
    4  A    between atoms: O_4  and  C_14
    5  A    between atoms: C_8  and  C_11
    6  A    between atoms: C_10  and  C_35
    7  A    between atoms: C_14  and  C_27
    8  A    between atoms: C_14  and  C_53
    9  A    between atoms: C_18  and  C_55
   10  A    between atoms: C_28  and  C_36
   11  A    between atoms: C_28  and  C_46
   12  A    between atoms: C_29  and  C_46
   13  A    between atoms: C_35  and  C_48
   14  A    between atoms: C_35  and  N_49
   15  A    between atoms: C_36  and  C_43
   16  A    between atoms: C_43  and  C_45
   17  A    between atoms: N_49  and  C_55
   18  A    between atoms: N_49  and  C_58
                            x       y       z     vdW  Elec       q    Type
                         _______ _______ _______ _____ _____    ______ ____

>  <TORSDO>
F 18

$$$$
=
 OpenBabel11062423023D

 62 67  0  0  1  0  0  0  0  0999 V2000
  190.2220  176.9490  146.7180 C   0  0  2  0  0  3  0  0  0  0  0  0
  189.9360  174.8600  147.8440 O   0  0  0  0  0  0  0  0  0  0  0  0
  189.2230  177.6830  145.8280 C   0  0  0  0  0  2  0  0  0  0  0  0
  188.8730  175.6230  144.4910 C   0  0  0  0  0  0  0  0  0  0  0  0
  190.0910  173.2230  141.9660 C   0  0  0  0  0  2  0  0  0  0  0  0
  187.8370  175.1280  143.7880 C   0  0  0  0  0  3  0  0  0  0  0  0
  188.1650  174.0230  140.6620 C   0  0  0  0  0  2  0  0  0  0  0  0
  185.9150  176.6950  143.7670 C   0  0  0  0  0  1  0  0  0  0  0  0
  192.9340  174.5750  144.0430 C   0  0  2  0  0  3  0  0  0  0  0  0
  188.0540  175.3070  140.1090 O   0  0  0  0  0  0  0  0  0  0  0  0
  189.9090  175.4690  146.7840 C   0  0  0  0  0  0  0  0  0  0  0  0
  189.2360  177.0810  144.4330 C   0  0  0  0  0  2  0  0  0  0  0  0
  190.6110  173.6980  145.0510 C   0  0  0  0  0  2  0  0  0  0  0  0
  192.8490  171.9890  144.5160 C   0  0  0  0  0  1  0  0  0  0  0  0
  191.5030  174.0630  143.8390 C   0  0  1  0  0  0  0  0  0  0  0  0
  187.5470  176.8600  141.8950 C   0  0  0  0  0  2  0  0  0  0  0  0
  188.6160  176.1900  141.0470 C   0  0  0  0  0  2  0  0  0  0  0  0
  186.8880  175.9150  142.9070 C   0  0  1  0  0  3  0  0  0  0  0  0
  190.8340  174.4340  142.5260 C   0  0  0  0  0  2  0  0  0  0  0  0
  189.6030  173.5030  140.5500 C   0  0  2  0  0  3  0  0  0  0  0  0
  192.6900  173.1460  143.5150 C   0  0  1  0  0  3  0  0  0  0  0  0
  189.5600  174.7340  145.5160 C   0  0  2  0  0  3  0  0  0  0  0  0
  190.3100  177.5780  148.0370 N   0  0  0  0  0  2  0  0  0  0  0  0
  191.5140  177.6870  148.8200 C   0  0  0  0  0  0  0  0  0  0  0  0
  191.4400  178.1140  150.1760 N   0  0  0  0  0  1  0  0  0  0  0  0
  192.6330  177.4430  148.3000 O   0  0  0  0  0  0  0  0  0  0  0  0
  193.5450  174.5350  145.4470 C   0  0  0  0  0  2  0  0  0  0  0  0
  194.7690  175.4320  145.5750 C   0  0  0  0  0  2  0  0  0  0  0  0
  196.0100  174.7680  144.9880 C   0  0  0  0  0  2  0  0  0  0  0  0
  197.2120  173.4920  146.6270 O   0  0  0  0  0  1  0  0  0  0  0  0
  196.3120  173.3800  145.5660 C   0  0  2  0  0  3  0  0  0  0  0  0
  196.1690  171.3360  142.4490 C   0  0  0  0  0  2  0  0  0  0  0  0
  197.3460  170.3100  145.5960 O   0  0  0  0  0  1  0  0  0  0  0  0
  196.2760  172.6760  143.1440 C   0  0  0  0  0  2  0  0  0  0  0  0
  196.8340  172.3850  144.5220 C   0  0  2  0  0  3  0  0  0  0  0  0
  196.3770  170.9770  144.8470 C   0  0  1  0  0  3  0  0  0  0  0  0
  196.1600  170.2700  143.5320 C   0  0  0  0  0  2  0  0  0  0  0  0
  189.6870  172.2890  139.7260 N   0  0  0  0  0  0  0  0  0  0  0  0
  190.4880  172.5410  138.5100 C   0  0  1  0  0  3  0  0  0  0  0  0
  189.6600  171.7060  136.4170 O   0  0  0  0  0  1  0  0  0  0  0  0
  189.6500  172.8170  137.2610 C   0  0  0  0  0  2  0  0  0  0  0  0
  191.5040  173.6350  138.7670 C   0  0  0  0  0  2  0  0  0  0  0  0
  192.3660  173.7690  137.6760 O   0  0  0  0  0  0  0  0  0  0  0  0
  193.4130  172.8820  137.9580 C   0  0  2  0  0  3  0  0  0  0  0  0
  194.8050  173.9110  139.8090 C   0  0  2  0  0  3  0  0  0  0  0  0
  195.4280  172.7700  139.2620 O   0  0  0  0  0  0  0  0  0  0  0  0
  194.7170  173.5900  138.3580 C   0  0  1  0  0  3  0  0  0  0  0  0
  195.8150  175.0330  140.1070 C   0  0  2  0  0  3  0  0  0  0  0  0
  197.0970  174.4920  140.2170 O   0  0  0  0  0  1  0  0  0  0  0  0
  195.5140  175.9020  141.2970 C   0  0  0  0  0  3  0  0  0  0  0  0
  195.7460  177.1020  141.2540 O   0  0  0  0  0  0  0  0  0  0  0  0
  193.6460  171.9380  136.7800 C   0  0  0  0  0  2  0  0  0  0  0  0
  195.1210  171.6100  136.5970 C   0  0  0  0  0  1  0  0  0  0  0  0
  190.3110  171.2330  140.5360 C   0  0  0  0  0  2  0  0  0  0  0  0
  193.0440  168.5010  138.6740 C   0  0  0  0  0  2  0  0  0  0  0  0
  193.6170  169.2640  139.8750 C   0  0  2  0  0  3  0  0  0  0  0  0
  192.6770  170.3410  140.4660 C   0  0  1  0  0  3  0  0  0  0  0  0
  191.3300  170.4590  139.7190 C   0  0  1  0  0  3  0  0  0  0  0  0
  192.4670  170.0340  141.8010 F   0  0  0  0  0  0  0  0  0  0  0  0
  191.5970  168.1680  138.9010 C   0  0  0  0  0  3  0  0  0  0  0  0
  194.8400  169.8200  139.5430 F   0  0  0  0  0  0  0  0  0  0  0  0
  190.7780  169.1040  139.3960 C   0  0  0  0  0  3  0  0  0  0  0  0
  1 11  1  0  0  0  0
  1 23  1  1  0  0  0
  3  1  1  0  0  0  0
  4 22  1  0  0  0  0
  5 19  1  0  0  0  0
  6  4  2  0  0  0  0
  9 27  1  1  0  0  0
 10  7  1  0  0  0  0
 10 17  1  0  0  0  0
 11  2  2  0  0  0  0
 12  4  1  0  0  0  0
 12  3  1  0  0  0  0
 15 19  1  6  0  0  0
 15  9  1  0  0  0  0
 15 13  1  0  0  0  0
 16 18  1  0  0  0  0
 17 16  1  0  0  0  0
 18  8  1  1  0  0  0
 18  6  1  0  0  0  0
 20 38  1  6  0  0  0
 20  7  1  0  0  0  0
 20  5  1  0  0  0  0
 21 15  1  0  0  0  0
 21  9  1  0  0  0  0
 21 14  1  1  0  0  0
 22 13  1  6  0  0  0
 22 11  1  0  0  0  0
 23 24  1  0  0  0  0
 24 25  1  0  0  0  0
 26 24  2  0  0  0  0
 27 28  1  0  0  0  0
 29 31  1  0  0  0  0
 29 28  1  0  0  0  0
 31 30  1  1  0  0  0
 32 34  1  0  0  0  0
 32 37  1  0  0  0  0
 34 35  1  0  0  0  0
 35 36  1  0  0  0  0
 35 31  1  1  0  0  0
 36 33  1  1  0  0  0
 37 36  1  0  0  0  0
 38 54  1  0  0  0  0
 39 41  1  6  0  0  0
 39 42  1  0  0  0  0
 39 38  1  0  0  0  0
 40 41  1  0  0  0  0
 43 44  1  0  0  0  0
 43 42  1  0  0  0  0
 44 52  1  6  0  0  0
 45 48  1  6  0  0  0
 46 45  1  0  0  0  0
 47 44  1  1  0  0  0
 47 46  1  0  0  0  0
 47 45  1  0  0  0  0
 48 49  1  1  0  0  0
 48 50  1  0  0  0  0
 51 50  2  0  0  0  0
 53 52  1  0  0  0  0
 55 60  1  0  0  0  0
 55 56  1  0  0  0  0
 56 61  1  6  0  0  0
 56 57  1  0  0  0  0
 57 59  1  1  0  0  0
 58 57  1  0  0  0  0
 58 54  1  1  0  0  0
 60 62  2  0  0  0  0
 62 58  1  0  0  0  0
M  END
>  <MODEL>
2

>  <REMARK>
 VINA RESULT:      -5.9      2.793      8.515
  Name = 
  18 active torsions:
  status: ('A' for Active; 'I' for Inactive)
    1  A    between atoms: C_1  and  N_24
    2  A    between atoms: C_2  and  C_11
    3  A    between atoms: O_4  and  C_10
    4  A    between atoms: O_4  and  C_14
    5  A    between atoms: C_8  and  C_11
    6  A    between atoms: C_10  and  C_35
    7  A    between atoms: C_14  and  C_27
    8  A    between atoms: C_14  and  C_53
    9  A    between atoms: C_18  and  C_55
   10  A    between atoms: C_28  and  C_36
   11  A    between atoms: C_28  and  C_46
   12  A    between atoms: C_29  and  C_46
   13  A    between atoms: C_35  and  C_48
   14  A    between atoms: C_35  and  N_49
   15  A    between atoms: C_36  and  C_43
   16  A    between atoms: C_43  and  C_45
   17  A    between atoms: N_49  and  C_55
   18  A    between atoms: N_49  and  C_58
                            x       y       z     vdW  Elec       q    Type
                         _______ _______ _______ _____ _____    ______ ____

>  <TORSDO>
F 18

$$$$
=
 OpenBabel11062423023D

 62 67  0  0  1  0  0  0  0  0999 V2000
  192.7780  176.3680  145.8260 C   0  0  2  0  0  3  0  0  0  0  0  0
  191.4910  177.9050  144.5260 O   0  0  0  0  0  0  0  0  0  0  0  0
  194.2840  176.1280  145.7830 C   0  0  0  0  0  2  0  0  0  0  0  0
  194.1870  175.8480  143.3190 C   0  0  0  0  0  0  0  0  0  0  0  0
  193.2920  173.8000  140.3830 C   0  0  0  0  0  2  0  0  0  0  0  0
  195.0560  176.0760  142.3160 C   0  0  0  0  0  3  0  0  0  0  0  0
  195.7180  173.8000  139.9750 C   0  0  0  0  0  2  0  0  0  0  0  0
  197.2530  176.8480  143.1680 C   0  0  0  0  0  1  0  0  0  0  0  0
  190.8380  173.2860  143.2010 C   0  0  2  0  0  3  0  0  0  0  0  0
  196.6610  173.1350  140.7720 O   0  0  0  0  0  0  0  0  0  0  0  0
  192.2850  176.9750  144.5300 C   0  0  0  0  0  0  0  0  0  0  0  0
  194.6290  175.2220  144.6130 C   0  0  0  0  0  2  0  0  0  0  0  0
  191.7120  175.6820  142.3770 C   0  0  0  0  0  2  0  0  0  0  0  0
  189.4650  174.3340  141.2180 C   0  0  0  0  0  1  0  0  0  0  0  0
  191.7690  174.1350  142.3260 C   0  0  1  0  0  0  0  0  0  0  0  0
  196.9590  174.4030  142.8120 C   0  0  0  0  0  2  0  0  0  0  0  0
  196.2250  173.2780  142.1000 C   0  0  0  0  0  2  0  0  0  0  0  0
  196.5450  175.8000  142.3350 C   0  0  1  0  0  3  0  0  0  0  0  0
  193.0490  173.4660  141.8530 C   0  0  0  0  0  2  0  0  0  0  0  0
  194.4410  172.9650  139.8290 C   0  0  2  0  0  3  0  0  0  0  0  0
  190.5890  173.3920  141.6820 C   0  0  1  0  0  3  0  0  0  0  0  0
  192.7810  176.4180  143.2210 C   0  0  2  0  0  3  0  0  0  0  0  0
  192.4050  177.1490  147.0060 N   0  0  0  0  0  2  0  0  0  0  0  0
  191.7080  176.6280  148.1540 C   0  0  0  0  0  0  0  0  0  0  0  0
  191.2010  177.5210  149.1400 N   0  0  0  0  0  1  0  0  0  0  0  0
  191.5800  175.3860  148.3080 O   0  0  0  0  0  0  0  0  0  0  0  0
  189.7170  173.9770  143.9830 C   0  0  0  0  0  2  0  0  0  0  0  0
  190.0780  174.2000  145.4450 C   0  0  0  0  0  2  0  0  0  0  0  0
  188.9640  174.9280  146.1900 C   0  0  0  0  0  2  0  0  0  0  0  0
  188.6290  177.1970  146.8990 O   0  0  0  0  0  1  0  0  0  0  0  0
  188.7810  176.3920  145.7690 C   0  0  2  0  0  3  0  0  0  0  0  0
  186.8380  178.1780  143.1330 C   0  0  0  0  0  2  0  0  0  0  0  0
  185.5610  176.6380  146.0210 O   0  0  0  0  0  1  0  0  0  0  0  0
  188.0480  177.3770  143.5660 C   0  0  0  0  0  2  0  0  0  0  0  0
  187.6150  176.6060  144.7960 C   0  0  2  0  0  3  0  0  0  0  0  0
  186.5310  177.4510  145.4350 C   0  0  1  0  0  3  0  0  0  0  0  0
  185.9160  178.2830  144.3370 C   0  0  0  0  0  2  0  0  0  0  0  0
  194.1810  172.5950  138.4300 N   0  0  0  0  0  0  0  0  0  0  0  0
  194.6670  171.2260  138.1570 C   0  0  1  0  0  3  0  0  0  0  0  0
  195.6950  170.7880  136.0320 O   0  0  0  0  0  1  0  0  0  0  0  0
  195.9610  171.1790  137.3450 C   0  0  0  0  0  2  0  0  0  0  0  0
  194.7740  170.4390  139.4460 C   0  0  0  0  0  2  0  0  0  0  0  0
  195.5730  169.3080  139.2640 O   0  0  0  0  0  0  0  0  0  0  0  0
  195.6970  168.7670  140.5500 C   0  0  2  0  0  3  0  0  0  0  0  0
  193.8960  168.8440  142.3310 C   0  0  2  0  0  3  0  0  0  0  0  0
  195.1830  168.9870  142.8860 O   0  0  0  0  0  0  0  0  0  0  0  0
  194.9740  169.5910  141.6270 C   0  0  1  0  0  3  0  0  0  0  0  0
  192.8700  169.7760  143.0000 C   0  0  2  0  0  3  0  0  0  0  0  0
  192.7200  169.4190  144.3420 O   0  0  0  0  0  1  0  0  0  0  0  0
  191.5250  169.8740  142.3360 C   0  0  0  0  0  3  0  0  0  0  0  0
  191.3960  169.5570  141.1630 O   0  0  0  0  0  0  0  0  0  0  0  0
  197.1690  168.5740  140.9090 C   0  0  0  0  0  2  0  0  0  0  0  0
  197.9410  169.8860  140.8690 C   0  0  0  0  0  1  0  0  0  0  0  0
  192.7310  172.6750  138.2020 C   0  0  0  0  0  2  0  0  0  0  0  0
  190.8890  170.0890  135.3180 C   0  0  0  0  0  2  0  0  0  0  0  0
  190.4120  169.8850  136.7600 C   0  0  2  0  0  3  0  0  0  0  0  0
  191.1660  170.7250  137.8170 C   0  0  1  0  0  3  0  0  0  0  0  0
  192.2820  171.6100  137.2170 C   0  0  1  0  0  3  0  0  0  0  0  0
  190.2340  171.5050  138.4840 F   0  0  0  0  0  0  0  0  0  0  0  0
  191.1510  171.5430  135.0480 C   0  0  0  0  0  3  0  0  0  0  0  0
  190.4580  168.5420  137.0890 F   0  0  0  0  0  0  0  0  0  0  0  0
  191.8200  172.2680  135.9530 C   0  0  0  0  0  3  0  0  0  0  0  0
  1 23  1  1  0  0  0
  2 11  2  0  0  0  0
  3  1  1  0  0  0  0
  4 12  1  0  0  0  0
  5 19  1  0  0  0  0
  6 18  1  0  0  0  0
  6  4  2  0  0  0  0
  7 10  1  0  0  0  0
  9 27  1  1  0  0  0
 10 17  1  0  0  0  0
 11  1  1  0  0  0  0
 12  3  1  0  0  0  0
 15 19  1  6  0  0  0
 15 13  1  0  0  0  0
 15  9  1  0  0  0  0
 17 16  1  0  0  0  0
 18 16  1  0  0  0  0
 18  8  1  1  0  0  0
 20 38  1  6  0  0  0
 20  7  1  0  0  0  0
 20  5  1  0  0  0  0
 21 14  1  1  0  0  0
 21 15  1  0  0  0  0
 21  9  1  0  0  0  0
 22 13  1  1  0  0  0
 22  4  1  0  0  0  0
 22 11  1  0  0  0  0
 23 24  1  0  0  0  0
 24 26  2  0  0  0  0
 24 25  1  0  0  0  0
 27 28  1  0  0  0  0
 28 29  1  0  0  0  0
 31 29  1  0  0  0  0
 31 30  1  1  0  0  0
 32 34  1  0  0  0  0
 32 37  1  0  0  0  0
 34 35  1  0  0  0  0
 35 36  1  0  0  0  0
 35 31  1  1  0  0  0
 36 33  1  6  0  0  0
 37 36  1  0  0  0  0
 39 41  1  1  0  0  0
 39 38  1  0  0  0  0
 39 42  1  0  0  0  0
 40 41  1  0  0  0  0
 43 42  1  0  0  0  0
 43 44  1  0  0  0  0
 44 52  1  1  0  0  0
 45 46  1  0  0  0  0
 45 48  1  1  0  0  0
 47 44  1  6  0  0  0
 47 45  1  0  0  0  0
 47 46  1  0  0  0  0
 48 49  1  1  0  0  0
 50 48  1  0  0  0  0
 51 50  2  0  0  0  0
 53 52  1  0  0  0  0
 54 38  1  0  0  0  0
 55 56  1  0  0  0  0
 56 61  1  1  0  0  0
 56 57  1  0  0  0  0
 57 59  1  6  0  0  0
 58 57  1  0  0  0  0
 58 54  1  1  0  0  0
 60 55  1  0  0  0  0
 60 62  2  0  0  0  0
 62 58  1  0  0  0  0
M  END
>  <MODEL>
3

>  <REMARK>
 VINA RESULT:      -5.9      2.839     10.152
  Name = 
  18 active torsions:
  status: ('A' for Active; 'I' for Inactive)
    1  A    between atoms: C_1  and  N_24
    2  A    between atoms: C_2  and  C_11
    3  A    between atoms: O_4  and  C_10
    4  A    between atoms: O_4  and  C_14
    5  A    between atoms: C_8  and  C_11
    6  A    between atoms: C_10  and  C_35
    7  A    between atoms: C_14  and  C_27
    8  A    between atoms: C_14  and  C_53
    9  A    between atoms: C_18  and  C_55
   10  A    between atoms: C_28  and  C_36
   11  A    between atoms: C_28  and  C_46
   12  A    between atoms: C_29  and  C_46
   13  A    between atoms: C_35  and  C_48
   14  A    between atoms: C_35  and  N_49
   15  A    between atoms: C_36  and  C_43
   16  A    between atoms: C_43  and  C_45
   17  A    between atoms: N_49  and  C_55
   18  A    between atoms: N_49  and  C_58
                            x       y       z     vdW  Elec       q    Type
                         _______ _______ _______ _____ _____    ______ ____

>  <TORSDO>
F 18

$$$$
=
 OpenBabel11062423023D

 62 67  0  0  1  0  0  0  0  0999 V2000
  193.6790  169.9460  138.9430 C   0  0  2  0  0  3  0  0  0  0  0  0
  195.3350  171.5040  139.6810 O   0  0  0  0  0  0  0  0  0  0  0  0
  192.6240  170.1370  137.8580 C   0  0  0  0  0  2  0  0  0  0  0  0
  191.9020  172.2660  138.9070 C   0  0  0  0  0  0  0  0  0  0  0  0
  190.1280  174.0380  141.6140 C   0  0  0  0  0  2  0  0  0  0  0  0
  191.3640  173.4070  138.4360 C   0  0  0  0  0  3  0  0  0  0  0  0
  188.6580  174.7980  139.7940 C   0  0  0  0  0  2  0  0  0  0  0  0
  190.9180  173.2680  136.0000 C   0  0  0  0  0  1  0  0  0  0  0  0
  191.7500  170.8800  142.8880 C   0  0  2  0  0  3  0  0  0  0  0  0
  187.7760  173.9720  139.0830 O   0  0  0  0  0  0  0  0  0  0  0  0
  194.1480  171.2790  139.4890 C   0  0  0  0  0  0  0  0  0  0  0  0
  191.4470  170.9200  138.4140 C   0  0  0  0  0  2  0  0  0  0  0  0
  192.9650  172.6700  141.3040 C   0  0  0  0  0  2  0  0  0  0  0  0
  192.9130  172.8650  144.1630 C   0  0  0  0  0  1  0  0  0  0  0  0
  191.6970  172.1470  142.0240 C   0  0  1  0  0  0  0  0  0  0  0  0
  189.0700  172.6300  137.5390 C   0  0  0  0  0  2  0  0  0  0  0  0
  188.4350  172.7430  138.9160 C   0  0  0  0  0  2  0  0  0  0  0  0
  190.3030  173.5240  137.3600 C   0  0  1  0  0  3  0  0  0  0  0  0
  190.3340  172.5310  141.4730 C   0  0  0  0  0  2  0  0  0  0  0  0
  188.6900  174.4150  141.2780 C   0  0  2  0  0  3  0  0  0  0  0  0
  191.6340  172.2680  143.5530 C   0  0  1  0  0  3  0  0  0  0  0  0
  193.1300  172.3450  139.8000 C   0  0  2  0  0  3  0  0  0  0  0  0
  194.7750  169.1010  138.4680 N   0  0  0  0  0  2  0  0  0  0  0  0
  195.4640  169.2710  137.2150 C   0  0  0  0  0  0  0  0  0  0  0  0
  196.3570  168.2620  136.7560 N   0  0  0  0  0  1  0  0  0  0  0  0
  195.3090  170.3230  136.5430 O   0  0  0  0  0  0  0  0  0  0  0  0
  193.1110  170.2470  143.1950 C   0  0  0  0  0  2  0  0  0  0  0  0
  193.0690  169.3450  144.4210 C   0  0  0  0  0  2  0  0  0  0  0  0
  194.4620  169.1360  145.0070 C   0  0  0  0  0  2  0  0  0  0  0  0
  196.2490  168.2130  143.6970 O   0  0  0  0  0  1  0  0  0  0  0  0
  195.6050  169.4080  144.0200 C   0  0  2  0  0  3  0  0  0  0  0  0
  196.8020  172.2380  146.1360 C   0  0  0  0  0  2  0  0  0  0  0  0
  197.3530  171.7920  142.6960 O   0  0  0  0  0  1  0  0  0  0  0  0
  196.3770  170.7930  145.9820 C   0  0  0  0  0  2  0  0  0  0  0  0
  196.6170  170.4440  144.5280 C   0  0  2  0  0  3  0  0  0  0  0  0
  196.4710  171.7500  143.7750 C   0  0  1  0  0  3  0  0  0  0  0  0
  196.7900  172.8580  144.7490 C   0  0  0  0  0  2  0  0  0  0  0  0
  188.2300  175.5130  142.1410 N   0  0  0  0  0  0  0  0  0  0  0  0
  189.3100  175.9420  143.0540 C   0  0  1  0  0  3  0  0  0  0  0  0
  191.2830  177.3030  142.9160 O   0  0  0  0  0  1  0  0  0  0  0  0
  189.9020  177.3090  142.7140 C   0  0  0  0  0  2  0  0  0  0  0  0
  188.8440  175.8650  144.4930 C   0  0  0  0  0  2  0  0  0  0  0  0
  189.7250  175.0940  145.2530 O   0  0  0  0  0  0  0  0  0  0  0  0
  190.0730  175.9270  146.3230 C   0  0  2  0  0  3  0  0  0  0  0  0
  188.2710  177.1310  147.6370 C   0  0  2  0  0  3  0  0  0  0  0  0
  189.4850  177.8470  147.6430 O   0  0  0  0  0  0  0  0  0  0  0  0
  189.1680  177.1630  146.4490 C   0  0  1  0  0  3  0  0  0  0  0  0
  187.0530  178.0600  147.4840 C   0  0  2  0  0  3  0  0  0  0  0  0
  187.1280  179.0880  148.4260 O   0  0  0  0  0  1  0  0  0  0  0  0
  185.7020  177.4040  147.5390 C   0  0  0  0  0  3  0  0  0  0  0  0
  184.7720  177.8580  146.8880 O   0  0  0  0  0  0  0  0  0  0  0  0
  191.5410  176.3360  146.2280 C   0  0  0  0  0  2  0  0  0  0  0  0
  192.4580  175.3290  146.9090 C   0  0  0  0  0  1  0  0  0  0  0  0
  187.8210  176.6280  141.2760 C   0  0  0  0  0  2  0  0  0  0  0  0
  183.8760  178.2650  141.6680 C   0  0  0  0  0  2  0  0  0  0  0  0
  184.8010  178.5280  142.8620 C   0  0  2  0  0  3  0  0  0  0  0  0
  186.1790  177.8300  142.7790 C   0  0  1  0  0  3  0  0  0  0  0  0
  186.3610  176.9770  141.5030 C   0  0  1  0  0  3  0  0  0  0  0  0
  187.1560  178.8100  142.8520 F   0  0  0  0  0  0  0  0  0  0  0  0
  184.6470  178.3160  140.3800 C   0  0  0  0  0  3  0  0  0  0  0  0
  184.1600  178.1900  144.0410 F   0  0  0  0  0  0  0  0  0  0  0  0
  185.8320  177.6970  140.3010 C   0  0  0  0  0  3  0  0  0  0  0  0
  1 23  1  6  0  0  0
  1 11  1  0  0  0  0
  3 12  1  0  0  0  0
  3  1  1  0  0  0  0
  4 22  1  0  0  0  0
  6  4  2  0  0  0  0
  7 20  1  0  0  0  0
  9 27  1  1  0  0  0
  9 21  1  0  0  0  0
 10  7  1  0  0  0  0
 11  2  2  0  0  0  0
 11 22  1  0  0  0  0
 12  4  1  0  0  0  0
 15 13  1  6  0  0  0
 15  9  1  0  0  0  0
 15 21  1  0  0  0  0
 16 17  1  0  0  0  0
 17 10  1  0  0  0  0
 18  8  1  6  0  0  0
 18 16  1  0  0  0  0
 18  6  1  0  0  0  0
 19  5  1  0  0  0  0
 19 15  1  0  0  0  0
 20  5  1  0  0  0  0
 20 38  1  1  0  0  0
 21 14  1  1  0  0  0
 22 13  1  1  0  0  0
 24 23  1  0  0  0  0
 25 24  1  0  0  0  0
 26 24  2  0  0  0  0
 27 28  1  0  0  0  0
 28 29  1  0  0  0  0
 31 30  1  1  0  0  0
 31 29  1  0  0  0  0
 34 32  1  0  0  0  0
 35 31  1  6  0  0  0
 35 34  1  0  0  0  0
 36 33  1  6  0  0  0
 36 35  1  0  0  0  0
 36 37  1  0  0  0  0
 37 32  1  0  0  0  0
 38 39  1  0  0  0  0
 39 41  1  6  0  0  0
 39 42  1  0  0  0  0
 41 40  1  0  0  0  0
 42 43  1  0  0  0  0
 43 44  1  0  0  0  0
 44 52  1  6  0  0  0
 45 48  1  6  0  0  0
 45 46  1  0  0  0  0
 47 44  1  1  0  0  0
 47 45  1  0  0  0  0
 47 46  1  0  0  0  0
 48 50  1  0  0  0  0
 48 49  1  1  0  0  0
 51 50  2  0  0  0  0
 52 53  1  0  0  0  0
 54 38  1  0  0  0  0
 55 56  1  0  0  0  0
 56 61  1  1  0  0  0
 57 59  1  6  0  0  0
 57 56  1  0  0  0  0
 58 54  1  6  0  0  0
 58 57  1  0  0  0  0
 60 55  1  0  0  0  0
 62 60  2  0  0  0  0
 62 58  1  0  0  0  0
M  END
>  <MODEL>
4

>  <REMARK>
 VINA RESULT:      -5.8      2.886      5.711
  Name = 
  18 active torsions:
  status: ('A' for Active; 'I' for Inactive)
    1  A    between atoms: C_1  and  N_24
    2  A    between atoms: C_2  and  C_11
    3  A    between atoms: O_4  and  C_10
    4  A    between atoms: O_4  and  C_14
    5  A    between atoms: C_8  and  C_11
    6  A    between atoms: C_10  and  C_35
    7  A    between atoms: C_14  and  C_27
    8  A    between atoms: C_14  and  C_53
    9  A    between atoms: C_18  and  C_55
   10  A    between atoms: C_28  and  C_36
   11  A    between atoms: C_28  and  C_46
   12  A    between atoms: C_29  and  C_46
   13  A    between atoms: C_35  and  C_48
   14  A    between atoms: C_35  and  N_49
   15  A    between atoms: C_36  and  C_43
   16  A    between atoms: C_43  and  C_45
   17  A    between atoms: N_49  and  C_55
   18  A    between atoms: N_49  and  C_58
                            x       y       z     vdW  Elec       q    Type
                         _______ _______ _______ _____ _____    ______ ____

>  <TORSDO>
F 18

$$$$
=
 OpenBabel11062423023D

 62 67  0  0  1  0  0  0  0  0999 V2000
  190.2810  176.9410  146.4830 C   0  0  2  0  0  3  0  0  0  0  0  0
  190.0550  174.9000  147.7060 O   0  0  0  0  0  0  0  0  0  0  0  0
  189.2650  177.6010  145.5560 C   0  0  0  0  0  2  0  0  0  0  0  0
  188.9830  175.4710  144.3170 C   0  0  0  0  0  0  0  0  0  0  0  0
  190.2860  172.9930  141.9120 C   0  0  0  0  0  2  0  0  0  0  0  0
  187.9660  174.9110  143.6340 C   0  0  0  0  0  3  0  0  0  0  0  0
  188.3420  173.6720  140.5650 C   0  0  0  0  0  2  0  0  0  0  0  0
  185.9980  176.4170  143.5340 C   0  0  0  0  0  1  0  0  0  0  0  0
  193.0770  174.5280  143.9310 C   0  0  2  0  0  3  0  0  0  0  0  0
  188.1940  174.9240  139.9520 O   0  0  0  0  0  0  0  0  0  0  0  0
  190.0140  175.4570  146.6170 C   0  0  0  0  0  0  0  0  0  0  0  0
  189.3030  176.9350  144.1910 C   0  0  0  0  0  2  0  0  0  0  0  0
  190.7770  173.6290  144.9730 C   0  0  0  0  0  2  0  0  0  0  0  0
  193.0680  171.9660  144.5260 C   0  0  0  0  0  1  0  0  0  0  0  0
  191.6630  173.9640  143.7470 C   0  0  1  0  0  0  0  0  0  0  0  0
  187.6320  176.5430  141.6610 C   0  0  0  0  0  2  0  0  0  0  0  0
  188.7250  175.8670  140.8490 C   0  0  0  0  0  2  0  0  0  0  0  0
  186.9980  175.6270  142.7150 C   0  0  1  0  0  3  0  0  0  0  0  0
  190.9890  174.2510  142.4160 C   0  0  0  0  0  2  0  0  0  0  0  0
  189.7960  173.1910  140.4820 C   0  0  2  0  0  3  0  0  0  0  0  0
  192.8790  173.0680  143.4700 C   0  0  1  0  0  3  0  0  0  0  0  0
  189.6920  174.6530  145.3840 C   0  0  2  0  0  3  0  0  0  0  0  0
  190.3450  177.6340  147.7710 N   0  0  0  0  0  2  0  0  0  0  0  0
  191.5100  177.7030  148.6140 C   0  0  0  0  0  0  0  0  0  0  0  0
  191.3950  178.2090  149.9390 N   0  0  0  0  0  1  0  0  0  0  0  0
  192.6350  177.3560  148.1710 O   0  0  0  0  0  0  0  0  0  0  0  0
  193.6820  174.5730  145.3380 C   0  0  0  0  0  2  0  0  0  0  0  0
  194.9510  175.4130  145.3990 C   0  0  0  0  0  2  0  0  0  0  0  0
  196.0410  174.8420  144.4960 C   0  0  0  0  0  2  0  0  0  0  0  0
  196.2120  177.1490  143.8550 O   0  0  0  0  0  1  0  0  0  0  0  0
  196.6620  175.8660  143.5380 C   0  0  2  0  0  3  0  0  0  0  0  0
  194.5740  175.3410  140.4920 C   0  0  0  0  0  2  0  0  0  0  0  0
  197.3210  173.4130  141.5280 O   0  0  0  0  0  1  0  0  0  0  0  0
  195.1540  176.2520  141.5530 C   0  0  0  0  0  2  0  0  0  0  0  0
  196.4010  175.5550  142.0590 C   0  0  2  0  0  3  0  0  0  0  0  0
  196.1400  174.0770  141.8590 C   0  0  1  0  0  3  0  0  0  0  0  0
  195.1430  173.9530  140.7340 C   0  0  0  0  0  2  0  0  0  0  0  0
  189.9210  171.9420  139.7170 N   0  0  0  0  0  0  0  0  0  0  0  0
  190.4620  172.2120  138.3690 C   0  0  1  0  0  3  0  0  0  0  0  0
  190.1750  171.6810  136.0450 O   0  0  0  0  0  1  0  0  0  0  0  0
  189.4830  171.9070  137.2350 C   0  0  0  0  0  2  0  0  0  0  0  0
  191.0010  173.6250  138.2910 C   0  0  0  0  0  2  0  0  0  0  0  0
  192.3830  173.6120  138.0950 O   0  0  0  0  0  0  0  0  0  0  0  0
  192.5370  173.8790  136.7290 C   0  0  2  0  0  3  0  0  0  0  0  0
  194.9480  173.3640  137.3150 C   0  0  2  0  0  3  0  0  0  0  0  0
  194.4290  172.4390  136.3870 O   0  0  0  0  0  0  0  0  0  0  0  0
  193.9930  173.7750  136.2500 C   0  0  1  0  0  3  0  0  0  0  0  0
  196.4000  173.7560  136.9920 C   0  0  2  0  0  3  0  0  0  0  0  0
  197.2660  172.7600  137.4490 O   0  0  0  0  0  1  0  0  0  0  0  0
  196.8540  175.1020  137.4830 C   0  0  0  0  0  3  0  0  0  0  0  0
  196.9910  176.0280  136.6960 O   0  0  0  0  0  0  0  0  0  0  0  0
  191.9460  175.2440  136.3810 C   0  0  0  0  0  2  0  0  0  0  0  0
  193.0260  176.2610  136.0370 C   0  0  0  0  0  1  0  0  0  0  0  0
  190.8200  171.0450  140.4570 C   0  0  0  0  0  2  0  0  0  0  0  0
  193.8990  168.9390  138.3390 C   0  0  0  0  0  2  0  0  0  0  0  0
  194.4010  169.8430  139.4700 C   0  0  2  0  0  3  0  0  0  0  0  0
  193.3070  170.7000  140.1500 C   0  0  1  0  0  3  0  0  0  0  0  0
  191.9010  170.4950  139.5430 C   0  0  1  0  0  3  0  0  0  0  0  0
  193.3040  170.3910  141.5000 F   0  0  0  0  0  0  0  0  0  0  0  0
  192.5930  168.2990  138.7130 C   0  0  0  0  0  3  0  0  0  0  0  0
  195.4300  170.6480  139.0130 F   0  0  0  0  0  0  0  0  0  0  0  0
  191.6370  169.0430  139.2840 C   0  0  0  0  0  3  0  0  0  0  0  0
  1 11  1  0  0  0  0
  1 23  1  1  0  0  0
  3  1  1  0  0  0  0
  4 22  1  0  0  0  0
  5 19  1  0  0  0  0
  6  4  2  0  0  0  0
  9 27  1  1  0  0  0
 10  7  1  0  0  0  0
 10 17  1  0  0  0  0
 11  2  2  0  0  0  0
 12  4  1  0  0  0  0
 12  3  1  0  0  0  0
 15 19  1  6  0  0  0
 15  9  1  0  0  0  0
 15 13  1  0  0  0  0
 16 18  1  0  0  0  0
 17 16  1  0  0  0  0
 18  8  1  1  0  0  0
 18  6  1  0  0  0  0
 20 38  1  6  0  0  0
 20  7  1  0  0  0  0
 20  5  1  0  0  0  0
 21 15  1  0  0  0  0
 21  9  1  0  0  0  0
 21 14  1  1  0  0  0
 22 13  1  6  0  0  0
 22 11  1  0  0  0  0
 23 24  1  0  0  0  0
 24 25  1  0  0  0  0
 26 24  2  0  0  0  0
 27 28  1  0  0  0  0
 29 28  1  0  0  0  0
 31 30  1  1  0  0  0
 31 29  1  0  0  0  0
 32 37  1  0  0  0  0
 32 34  1  0  0  0  0
 34 35  1  0  0  0  0
 35 31  1  1  0  0  0
 36 33  1  6  0  0  0
 36 35  1  0  0  0  0
 37 36  1  0  0  0  0
 38 54  1  0  0  0  0
 39 41  1  6  0  0  0
 39 38  1  0  0  0  0
 40 41  1  0  0  0  0
 42 39  1  0  0  0  0
 43 42  1  0  0  0  0
 44 52  1  1  0  0  0
 44 43  1  0  0  0  0
 45 48  1  6  0  0  0
 46 45  1  0  0  0  0
 47 46  1  0  0  0  0
 47 44  1  1  0  0  0
 47 45  1  0  0  0  0
 48 49  1  1  0  0  0
 48 50  1  0  0  0  0
 51 50  2  0  0  0  0
 53 52  1  0  0  0  0
 55 60  1  0  0  0  0
 55 56  1  0  0  0  0
 56 61  1  6  0  0  0
 56 57  1  0  0  0  0
 57 59  1  1  0  0  0
 58 57  1  0  0  0  0
 58 54  1  1  0  0  0
 60 62  2  0  0  0  0
 62 58  1  0  0  0  0
M  END
>  <MODEL>
5

>  <REMARK>
 VINA RESULT:      -5.7      2.921      8.683
  Name = 
  18 active torsions:
  status: ('A' for Active; 'I' for Inactive)
    1  A    between atoms: C_1  and  N_24
    2  A    between atoms: C_2  and  C_11
    3  A    between atoms: O_4  and  C_10
    4  A    between atoms: O_4  and  C_14
    5  A    between atoms: C_8  and  C_11
    6  A    between atoms: C_10  and  C_35
    7  A    between atoms: C_14  and  C_27
    8  A    between atoms: C_14  and  C_53
    9  A    between atoms: C_18  and  C_55
   10  A    between atoms: C_28  and  C_36
   11  A    between atoms: C_28  and  C_46
   12  A    between atoms: C_29  and  C_46
   13  A    between atoms: C_35  and  C_48
   14  A    between atoms: C_35  and  N_49
   15  A    between atoms: C_36  and  C_43
   16  A    between atoms: C_43  and  C_45
   17  A    between atoms: N_49  and  C_55
   18  A    between atoms: N_49  and  C_58
                            x       y       z     vdW  Elec       q    Type
                         _______ _______ _______ _____ _____    ______ ____

>  <TORSDO>
F 18

$$$$
=
 OpenBabel11062423023D

 62 67  0  0  1  0  0  0  0  0999 V2000
  188.4350  174.7380  140.2120 C   0  0  2  0  0  3  0  0  0  0  0  0
  187.3680  173.5690  142.0040 O   0  0  0  0  0  0  0  0  0  0  0  0
  188.8480  174.1950  138.8480 C   0  0  0  0  0  2  0  0  0  0  0  0
  190.0310  172.3050  139.9370 C   0  0  0  0  0  0  0  0  0  0  0  0
  192.9220  171.0410  141.8510 C   0  0  0  0  0  2  0  0  0  0  0  0
  190.3050  171.0380  139.5750 C   0  0  0  0  0  3  0  0  0  0  0  0
  193.3620  169.7340  139.8140 C   0  0  0  0  0  2  0  0  0  0  0  0
  189.5310  170.5610  137.2670 C   0  0  0  0  0  1  0  0  0  0  0  0
  192.0320  174.5560  142.8910 C   0  0  2  0  0  3  0  0  0  0  0  0
  193.7790  170.2790  138.5910 O   0  0  0  0  0  0  0  0  0  0  0  0
  188.3130  173.6230  141.2290 C   0  0  0  0  0  0  0  0  0  0  0  0
  190.1650  173.4470  138.9680 C   0  0  0  0  0  2  0  0  0  0  0  0
  190.2500  172.5800  142.5670 C   0  0  0  0  0  2  0  0  0  0  0  0
  191.6640  173.0500  145.0160 C   0  0  0  0  0  1  0  0  0  0  0  0
  191.6960  173.1250  142.4530 C   0  0  1  0  0  0  0  0  0  0  0  0
  191.8750  171.3480  137.5480 C   0  0  0  0  0  2  0  0  0  0  0  0
  193.0920  171.4960  138.4470 C   0  0  0  0  0  2  0  0  0  0  0  0
  190.7270  170.5670  138.1980 C   0  0  1  0  0  3  0  0  0  0  0  0
  192.6400  172.4860  141.4480 C   0  0  0  0  0  2  0  0  0  0  0  0
  194.0330  170.4530  140.9900 C   0  0  2  0  0  3  0  0  0  0  0  0
  192.4840  173.3560  143.7510 C   0  0  1  0  0  3  0  0  0  0  0  0
  189.3810  172.5610  141.2880 C   0  0  2  0  0  3  0  0  0  0  0  0
  187.2250  175.5560  140.1070 N   0  0  0  0  0  2  0  0  0  0  0  0
  187.0850  176.8910  140.6270 C   0  0  0  0  0  0  0  0  0  0  0  0
  185.8010  177.5040  140.6660 N   0  0  0  0  0  1  0  0  0  0  0  0
  188.0970  177.5320  141.0110 O   0  0  0  0  0  0  0  0  0  0  0  0
  190.9690  175.3780  143.6260 C   0  0  0  0  0  2  0  0  0  0  0  0
  191.4750  176.7560  144.0290 C   0  0  0  0  0  2  0  0  0  0  0  0
  190.3210  177.7080  144.3290 C   0  0  0  0  0  2  0  0  0  0  0  0
  190.5810  176.7900  146.5320 O   0  0  0  0  0  1  0  0  0  0  0  0
  189.7220  177.5450  145.7310 C   0  0  2  0  0  3  0  0  0  0  0  0
  186.3480  176.7900  144.3320 C   0  0  0  0  0  2  0  0  0  0  0  0
  187.1050  177.7210  147.6330 O   0  0  0  0  0  1  0  0  0  0  0  0
  187.8510  176.6100  144.3220 C   0  0  0  0  0  2  0  0  0  0  0  0
  188.3150  176.9320  145.7270 C   0  0  2  0  0  3  0  0  0  0  0  0
  187.2990  177.9180  146.2670 C   0  0  1  0  0  3  0  0  0  0  0  0
  186.0110  177.6760  145.5200 C   0  0  0  0  0  2  0  0  0  0  0  0
  194.8740  169.5450  141.7840 N   0  0  0  0  0  0  0  0  0  0  0  0
  196.2890  169.9690  141.7310 C   0  0  1  0  0  3  0  0  0  0  0  0
  197.3550  169.2650  139.6980 O   0  0  0  0  0  1  0  0  0  0  0  0
  197.2140  168.9590  141.0520 C   0  0  0  0  0  2  0  0  0  0  0  0
  196.4020  171.3480  141.1150 C   0  0  0  0  0  2  0  0  0  0  0  0
  196.9520  172.2490  142.0280 O   0  0  0  0  0  0  0  0  0  0  0  0
  196.0900  173.3520  141.9810 C   0  0  2  0  0  3  0  0  0  0  0  0
  195.3400  174.1900  139.7100 C   0  0  2  0  0  3  0  0  0  0  0  0
  195.3020  175.2120  140.6810 O   0  0  0  0  0  0  0  0  0  0  0  0
  196.3610  174.2840  140.7900 C   0  0  1  0  0  3  0  0  0  0  0  0
  195.8630  174.6990  138.3560 C   0  0  2  0  0  3  0  0  0  0  0  0
  194.8730  175.4540  137.7250 O   0  0  0  0  0  1  0  0  0  0  0  0
  196.3980  173.6570  137.4130 C   0  0  0  0  0  3  0  0  0  0  0  0
  197.3660  172.9810  137.7310 O   0  0  0  0  0  0  0  0  0  0  0  0
  196.1380  174.1250  143.2980 C   0  0  0  0  0  2  0  0  0  0  0  0
  197.5030  174.7550  143.5390 C   0  0  0  0  0  1  0  0  0  0  0  0
  194.3860  169.5710  143.1700 C   0  0  0  0  0  2  0  0  0  0  0  0
  197.1870  169.6040  146.4190 C   0  0  0  0  0  2  0  0  0  0  0  0
  196.3560  170.8840  146.2750 C   0  0  2  0  0  3  0  0  0  0  0  0
  195.4390  170.9250  145.0300 C   0  0  1  0  0  3  0  0  0  0  0  0
  195.5460  169.6610  144.1460 C   0  0  1  0  0  3  0  0  0  0  0  0
  194.1370  171.1040  145.4660 F   0  0  0  0  0  0  0  0  0  0  0  0
  196.3620  168.3970  146.0760 C   0  0  0  0  0  3  0  0  0  0  0  0
  197.1840  171.9920  146.3000 F   0  0  0  0  0  0  0  0  0  0  0  0
  195.5820  168.4230  144.9880 C   0  0  0  0  0  3  0  0  0  0  0  0
  1 23  1  6  0  0  0
  1 11  1  0  0  0  0
  3 12  1  0  0  0  0
  3  1  1  0  0  0  0
  4 22  1  0  0  0  0
  6  4  2  0  0  0  0
  7 20  1  0  0  0  0
  9 27  1  1  0  0  0
  9 21  1  0  0  0  0
 10  7  1  0  0  0  0
 11 22  1  0  0  0  0
 11  2  2  0  0  0  0
 12  4  1  0  0  0  0
 15 19  1  6  0  0  0
 15 13  1  0  0  0  0
 15  9  1  0  0  0  0
 15 21  1  0  0  0  0
 16 18  1  0  0  0  0
 16 17  1  0  0  0  0
 17 10  1  0  0  0  0
 18  8  1  6  0  0  0
 18  6  1  0  0  0  0
 19  5  1  0  0  0  0
 20 38  1  1  0  0  0
 20  5  1  0  0  0  0
 21 14  1  1  0  0  0
 22 13  1  1  0  0  0
 23 24  1  0  0  0  0
 24 25  1  0  0  0  0
 24 26  2  0  0  0  0
 27 28  1  0  0  0  0
 28 29  1  0  0  0  0
 29 31  1  0  0  0  0
 31 30  1  1  0  0  0
 32 37  1  0  0  0  0
 34 32  1  0  0  0  0
 34 35  1  0  0  0  0
 35 31  1  6  0  0  0
 35 36  1  0  0  0  0
 36 33  1  1  0  0  0
 37 36  1  0  0  0  0
 38 54  1  0  0  0  0
 39 41  1  6  0  0  0
 39 38  1  0  0  0  0
 40 41  1  0  0  0  0
 42 39  1  0  0  0  0
 42 43  1  0  0  0  0
 44 43  1  0  0  0  0
 44 52  1  1  0  0  0
 45 48  1  6  0  0  0
 45 46  1  0  0  0  0
 45 47  1  0  0  0  0
 46 47  1  0  0  0  0
 47 44  1  1  0  0  0
 48 49  1  6  0  0  0
 50 51  2  0  0  0  0
 50 48  1  0  0  0  0
 52 53  1  0  0  0  0
 56 61  1  6  0  0  0
 56 55  1  0  0  0  0
 57 59  1  1  0  0  0
 57 56  1  0  0  0  0
 58 54  1  6  0  0  0
 58 62  1  0  0  0  0
 58 57  1  0  0  0  0
 60 55  1  0  0  0  0
 62 60  2  0  0  0  0
M  END
>  <MODEL>
6

>  <REMARK>
 VINA RESULT:      -5.7      2.454      8.408
  Name = 
  18 active torsions:
  status: ('A' for Active; 'I' for Inactive)
    1  A    between atoms: C_1  and  N_24
    2  A    between atoms: C_2  and  C_11
    3  A    between atoms: O_4  and  C_10
    4  A    between atoms: O_4  and  C_14
    5  A    between atoms: C_8  and  C_11
    6  A    between atoms: C_10  and  C_35
    7  A    between atoms: C_14  and  C_27
    8  A    between atoms: C_14  and  C_53
    9  A    between atoms: C_18  and  C_55
   10  A    between atoms: C_28  and  C_36
   11  A    between atoms: C_28  and  C_46
   12  A    between atoms: C_29  and  C_46
   13  A    between atoms: C_35  and  C_48
   14  A    between atoms: C_35  and  N_49
   15  A    between atoms: C_36  and  C_43
   16  A    between atoms: C_43  and  C_45
   17  A    between atoms: N_49  and  C_55
   18  A    between atoms: N_49  and  C_58
                            x       y       z     vdW  Elec       q    Type
                         _______ _______ _______ _____ _____    ______ ____

>  <TORSDO>
F 18

$$$$
=
 OpenBabel11062423023D

 62 67  0  0  1  0  0  0  0  0999 V2000
  193.9550  171.5350  137.4180 C   0  0  2  0  0  3  0  0  0  0  0  0
  194.8380  173.6650  136.7900 O   0  0  0  0  0  0  0  0  0  0  0  0
  192.5150  171.0420  137.3050 C   0  0  0  0  0  2  0  0  0  0  0  0
  191.7050  173.0800  138.4640 C   0  0  0  0  0  0  0  0  0  0  0  0
  191.3010  175.0220  141.5760 C   0  0  0  0  0  2  0  0  0  0  0  0
  190.5640  173.7930  138.4190 C   0  0  0  0  0  3  0  0  0  0  0  0
  188.9000  174.6790  141.1650 C   0  0  0  0  0  2  0  0  0  0  0  0
  188.8960  172.7480  136.9090 C   0  0  0  0  0  1  0  0  0  0  0  0
  194.5340  173.0780  141.5940 C   0  0  2  0  0  3  0  0  0  0  0  0
  188.2420  173.4460  141.2640 O   0  0  0  0  0  0  0  0  0  0  0  0
  194.0120  173.0480  137.4480 C   0  0  0  0  0  0  0  0  0  0  0  0
  191.6940  171.5760  138.4660 C   0  0  0  0  0  2  0  0  0  0  0  0
  193.6580  174.5340  139.5210 C   0  0  0  0  0  2  0  0  0  0  0  0
  195.2090  175.6190  141.6730 C   0  0  0  0  0  1  0  0  0  0  0  0
  193.4390  173.9210  140.9260 C   0  0  1  0  0  0  0  0  0  0  0  0
  188.8090  172.1240  139.3170 C   0  0  0  0  0  2  0  0  0  0  0  0
  189.1320  172.4830  140.7590 C   0  0  0  0  0  2  0  0  0  0  0  0
  189.1590  173.2350  138.3190 C   0  0  1  0  0  3  0  0  0  0  0  0
  192.0170  173.6840  141.4070 C   0  0  0  0  0  2  0  0  0  0  0  0
  189.9570  174.8250  142.2660 C   0  0  2  0  0  3  0  0  0  0  0  0
  194.2370  174.5060  142.1000 C   0  0  1  0  0  3  0  0  0  0  0  0
  193.0330  173.8050  138.3070 C   0  0  2  0  0  3  0  0  0  0  0  0
  194.7950  170.9470  136.3740 N   0  0  0  0  0  2  0  0  0  0  0  0
  195.8670  170.0150  136.6060 C   0  0  0  0  0  0  0  0  0  0  0  0
  196.7580  169.6820  135.5460 N   0  0  0  0  0  1  0  0  0  0  0  0
  195.9970  169.4630  137.7290 O   0  0  0  0  0  0  0  0  0  0  0  0
  195.9200  173.0120  140.9460 C   0  0  0  0  0  2  0  0  0  0  0  0
  196.3970  171.5810  140.7370 C   0  0  0  0  0  2  0  0  0  0  0  0
  195.2300  170.5980  140.7420 C   0  0  0  0  0  2  0  0  0  0  0  0
  195.7310  168.3630  141.4580 O   0  0  0  0  0  1  0  0  0  0  0  0
  195.2580  169.5980  141.9040 C   0  0  2  0  0  3  0  0  0  0  0  0
  191.6610  170.3380  142.5600 C   0  0  0  0  0  2  0  0  0  0  0  0
  194.1730  169.7800  144.9510 O   0  0  0  0  0  1  0  0  0  0  0  0
  192.7520  169.7750  141.6740 C   0  0  0  0  0  2  0  0  0  0  0  0
  193.9010  169.4330  142.6010 C   0  0  2  0  0  3  0  0  0  0  0  0
  193.7750  170.3950  143.7640 C   0  0  1  0  0  3  0  0  0  0  0  0
  192.3220  170.7950  143.8490 C   0  0  0  0  0  2  0  0  0  0  0  0
  189.6680  175.9540  143.1630 N   0  0  0  0  0  0  0  0  0  0  0  0
  190.8040  176.8990  143.1900 C   0  0  1  0  0  3  0  0  0  0  0  0
  191.3410  179.1830  143.6970 O   0  0  0  0  0  1  0  0  0  0  0  0
  190.3920  178.3670  143.0810 C   0  0  0  0  0  2  0  0  0  0  0  0
  191.6740  176.6400  144.4020 C   0  0  0  0  0  2  0  0  0  0  0  0
  190.9030  176.6300  145.5660 O   0  0  0  0  0  0  0  0  0  0  0  0
  191.6920  175.9360  146.4920 C   0  0  2  0  0  3  0  0  0  0  0  0
  193.9990  174.9010  146.3260 C   0  0  2  0  0  3  0  0  0  0  0  0
  193.0580  173.9920  146.8480 O   0  0  0  0  0  0  0  0  0  0  0  0
  192.5910  174.8700  145.8460 C   0  0  1  0  0  3  0  0  0  0  0  0
  194.9740  174.2250  145.3460 C   0  0  2  0  0  3  0  0  0  0  0  0
  195.2140  172.9120  145.7550 O   0  0  0  0  0  1  0  0  0  0  0  0
  196.2750  174.9370  145.1010 C   0  0  0  0  0  3  0  0  0  0  0  0
  197.2280  174.3300  144.6340 O   0  0  0  0  0  0  0  0  0  0  0  0
  190.8180  175.3220  147.5840 C   0  0  0  0  0  2  0  0  0  0  0  0
  189.5050  174.7880  147.0290 C   0  0  0  0  0  1  0  0  0  0  0  0
  188.4580  176.6270  142.6690 C   0  0  0  0  0  2  0  0  0  0  0  0
  186.0010  178.3250  145.7470 C   0  0  0  0  0  2  0  0  0  0  0  0
  185.6890  178.8210  144.3310 C   0  0  2  0  0  3  0  0  0  0  0  0
  186.6560  178.3090  143.2380 C   0  0  1  0  0  3  0  0  0  0  0  0
  187.7770  177.3970  143.7860 C   0  0  1  0  0  3  0  0  0  0  0  0
  185.9050  177.6370  142.2870 F   0  0  0  0  0  0  0  0  0  0  0  0
  186.3820  176.8730  145.7280 C   0  0  0  0  0  3  0  0  0  0  0  0
  185.6320  180.2040  144.3150 F   0  0  0  0  0  0  0  0  0  0  0  0
  187.2340  176.4300  144.7930 C   0  0  0  0  0  3  0  0  0  0  0  0
  1 23  1  6  0  0  0
  1 11  1  0  0  0  0
  2 11  2  0  0  0  0
  3  1  1  0  0  0  0
  3 12  1  0  0  0  0
  4 12  1  0  0  0  0
  5 20  1  0  0  0  0
  6  4  2  0  0  0  0
  7 10  1  0  0  0  0
  7 20  1  0  0  0  0
  9 27  1  6  0  0  0
  9 21  1  0  0  0  0
 11 22  1  0  0  0  0
 15 13  1  6  0  0  0
 15 19  1  0  0  0  0
 15  9  1  0  0  0  0
 15 21  1  0  0  0  0
 16 17  1  0  0  0  0
 17 10  1  0  0  0  0
 18  8  1  6  0  0  0
 18  6  1  0  0  0  0
 18 16  1  0  0  0  0
 19  5  1  0  0  0  0
 20 38  1  1  0  0  0
 21 14  1  6  0  0  0
 22  4  1  0  0  0  0
 22 13  1  1  0  0  0
 23 24  1  0  0  0  0
 24 26  2  0  0  0  0
 25 24  1  0  0  0  0
 28 29  1  0  0  0  0
 28 27  1  0  0  0  0
 29 31  1  0  0  0  0
 31 30  1  6  0  0  0
 32 37  1  0  0  0  0
 34 32  1  0  0  0  0
 34 35  1  0  0  0  0
 35 31  1  6  0  0  0
 35 36  1  0  0  0  0
 36 37  1  0  0  0  0
 36 33  1  1  0  0  0
 38 39  1  0  0  0  0
 39 41  1  1  0  0  0
 39 42  1  0  0  0  0
 41 40  1  0  0  0  0
 42 43  1  0  0  0  0
 43 44  1  0  0  0  0
 44 52  1  1  0  0  0
 45 48  1  6  0  0  0
 45 46  1  0  0  0  0
 47 45  1  0  0  0  0
 47 44  1  1  0  0  0
 47 46  1  0  0  0  0
 48 49  1  1  0  0  0
 50 48  1  0  0  0  0
 51 50  2  0  0  0  0
 53 52  1  0  0  0  0
 54 38  1  0  0  0  0
 56 61  1  1  0  0  0
 56 55  1  0  0  0  0
 57 59  1  6  0  0  0
 57 58  1  0  0  0  0
 57 56  1  0  0  0  0
 58 54  1  6  0  0  0
 58 62  1  0  0  0  0
 60 55  1  0  0  0  0
 62 60  2  0  0  0  0
M  END
>  <MODEL>
7

>  <REMARK>
 VINA RESULT:      -5.7      2.656      5.363
  Name = 
  18 active torsions:
  status: ('A' for Active; 'I' for Inactive)
    1  A    between atoms: C_1  and  N_24
    2  A    between atoms: C_2  and  C_11
    3  A    between atoms: O_4  and  C_10
    4  A    between atoms: O_4  and  C_14
    5  A    between atoms: C_8  and  C_11
    6  A    between atoms: C_10  and  C_35
    7  A    between atoms: C_14  and  C_27
    8  A    between atoms: C_14  and  C_53
    9  A    between atoms: C_18  and  C_55
   10  A    between atoms: C_28  and  C_36
   11  A    between atoms: C_28  and  C_46
   12  A    between atoms: C_29  and  C_46
   13  A    between atoms: C_35  and  C_48
   14  A    between atoms: C_35  and  N_49
   15  A    between atoms: C_36  and  C_43
   16  A    between atoms: C_43  and  C_45
   17  A    between atoms: N_49  and  C_55
   18  A    between atoms: N_49  and  C_58
                            x       y       z     vdW  Elec       q    Type
                         _______ _______ _______ _____ _____    ______ ____

>  <TORSDO>
F 18

$$$$
=
 OpenBabel11062423023D

 62 67  0  0  1  0  0  0  0  0999 V2000
  192.4070  175.7940  145.9680 C   0  0  2  0  0  3  0  0  0  0  0  0
  192.2760  177.6030  144.4120 O   0  0  0  0  0  0  0  0  0  0  0  0
  193.5390  174.7860  146.1460 C   0  0  0  0  0  2  0  0  0  0  0  0
  193.5090  174.2940  143.7150 C   0  0  0  0  0  0  0  0  0  0  0  0
  191.8910  172.6880  140.8130 C   0  0  0  0  0  2  0  0  0  0  0  0
  194.4420  173.8970  142.8280 C   0  0  0  0  0  3  0  0  0  0  0  0
  193.9510  171.3460  140.7430 C   0  0  0  0  0  2  0  0  0  0  0  0
  196.6260  173.4800  143.9260 C   0  0  0  0  0  1  0  0  0  0  0  0
  189.3290  173.9180  143.2930 C   0  0  2  0  0  3  0  0  0  0  0  0
  194.3120  170.3870  141.7000 O   0  0  0  0  0  0  0  0  0  0  0  0
  192.4320  176.4020  144.5820 C   0  0  0  0  0  0  0  0  0  0  0  0
  193.4300  173.6970  145.0930 C   0  0  0  0  0  2  0  0  0  0  0  0
  191.4300  175.3550  142.4530 C   0  0  0  0  0  2  0  0  0  0  0  0
  188.9160  175.2780  141.0800 C   0  0  0  0  0  1  0  0  0  0  0  0
  190.6400  174.0240  142.5030 C   0  0  1  0  0  0  0  0  0  0  0  0
  195.0810  171.5450  143.6820 C   0  0  0  0  0  2  0  0  0  0  0  0
  193.9150  170.9040  142.9450 C   0  0  0  0  0  2  0  0  0  0  0  0
  195.5340  172.8750  143.0680 C   0  0  1  0  0  3  0  0  0  0  0  0
  191.3850  172.7230  142.2530 C   0  0  0  0  0  2  0  0  0  0  0  0
  192.4420  171.3080  140.4740 C   0  0  2  0  0  3  0  0  0  0  0  0
  189.3040  173.9490  141.7500 C   0  0  1  0  0  3  0  0  0  0  0  0
  192.6530  175.5070  143.3900 C   0  0  2  0  0  3  0  0  0  0  0  0
  192.4220  176.7940  147.0360 N   0  0  0  0  0  2  0  0  0  0  0  0
  191.6590  176.7120  148.2540 C   0  0  0  0  0  0  0  0  0  0  0  0
  191.5780  177.8420  149.1160 N   0  0  0  0  0  1  0  0  0  0  0  0
  191.0950  175.6360  148.5780 O   0  0  0  0  0  0  0  0  0  0  0  0
  188.7040  175.1920  143.8690 C   0  0  0  0  0  2  0  0  0  0  0  0
  188.9830  175.3560  145.3570 C   0  0  0  0  0  2  0  0  0  0  0  0
  188.8550  176.8120  145.7910 C   0  0  0  0  0  2  0  0  0  0  0  0
  187.1010  176.0880  147.2610 O   0  0  0  0  0  1  0  0  0  0  0  0
  187.5170  177.1520  146.4590 C   0  0  2  0  0  3  0  0  0  0  0  0
  185.8860  179.2410  143.8340 C   0  0  0  0  0  2  0  0  0  0  0  0
  184.3420  177.7750  146.6280 O   0  0  0  0  0  1  0  0  0  0  0  0
  186.9780  178.2880  144.2730 C   0  0  0  0  0  2  0  0  0  0  0  0
  186.4170  177.5360  145.4620 C   0  0  2  0  0  3  0  0  0  0  0  0
  185.4210  178.4830  146.0990 C   0  0  1  0  0  3  0  0  0  0  0  0
  184.9460  179.4180  145.0140 C   0  0  0  0  0  2  0  0  0  0  0  0
  192.1400  170.9620  139.0770 N   0  0  0  0  0  0  0  0  0  0  0  0
  192.0360  169.4970  138.9170 C   0  0  1  0  0  3  0  0  0  0  0  0
  190.4590  168.2660  140.2450 O   0  0  0  0  0  1  0  0  0  0  0  0
  190.6110  168.9580  139.0430 C   0  0  0  0  0  2  0  0  0  0  0  0
  192.6970  169.0600  137.6260 C   0  0  0  0  0  2  0  0  0  0  0  0
  194.0850  169.1800  137.7220 O   0  0  0  0  0  0  0  0  0  0  0  0
  194.4860  169.5440  136.4300 C   0  0  2  0  0  3  0  0  0  0  0  0
  195.4730  171.6180  137.5010 C   0  0  2  0  0  3  0  0  0  0  0  0
  196.3400  170.5120  137.6120 O   0  0  0  0  0  0  0  0  0  0  0  0
  195.5960  170.6070  136.4160 C   0  0  1  0  0  3  0  0  0  0  0  0
  196.2340  172.9180  137.1870 C   0  0  2  0  0  3  0  0  0  0  0  0
  196.2410  173.7400  138.3150 O   0  0  0  0  0  1  0  0  0  0  0  0
  195.7640  173.6920  135.9860 C   0  0  0  0  0  3  0  0  0  0  0  0
  196.5750  174.2540  135.2640 O   0  0  0  0  0  0  0  0  0  0  0  0
  193.2840  170.0040  135.6070 C   0  0  0  0  0  2  0  0  0  0  0  0
  193.6830  170.9880  134.5160 C   0  0  0  0  0  1  0  0  0  0  0  0
  190.8690  171.6050  138.7160 C   0  0  0  0  0  2  0  0  0  0  0  0
  191.2410  174.1670  135.2960 C   0  0  0  0  0  2  0  0  0  0  0  0
  189.8140  174.0240  135.8380 C   0  0  2  0  0  3  0  0  0  0  0  0
  189.6580  173.0020  136.9880 C   0  0  1  0  0  3  0  0  0  0  0  0
  190.9800  172.2980  137.3690 C   0  0  1  0  0  3  0  0  0  0  0  0
  189.1320  173.6700  138.0820 F   0  0  0  0  0  0  0  0  0  0  0  0
  192.2360  174.1720  136.4200 C   0  0  0  0  0  3  0  0  0  0  0  0
  188.9430  173.7240  134.8050 F   0  0  0  0  0  0  0  0  0  0  0  0
  192.1140  173.2760  137.4080 C   0  0  0  0  0  3  0  0  0  0  0  0
  1  3  1  0  0  0  0
  1 23  1  1  0  0  0
  2 11  2  0  0  0  0
  4 12  1  0  0  0  0
  5 19  1  0  0  0  0
  6 18  1  0  0  0  0
  6  4  2  0  0  0  0
  7 10  1  0  0  0  0
  9 27  1  1  0  0  0
 10 17  1  0  0  0  0
 11  1  1  0  0  0  0
 12  3  1  0  0  0  0
 13 15  1  0  0  0  0
 15 19  1  6  0  0  0
 15  9  1  0  0  0  0
 17 16  1  0  0  0  0
 18 16  1  0  0  0  0
 18  8  1  1  0  0  0
 20 38  1  6  0  0  0
 20  7  1  0  0  0  0
 20  5  1  0  0  0  0
 21 14  1  1  0  0  0
 21 15  1  0  0  0  0
 21  9  1  0  0  0  0
 22 13  1  1  0  0  0
 22  4  1  0  0  0  0
 22 11  1  0  0  0  0
 23 24  1  0  0  0  0
 24 26  2  0  0  0  0
 24 25  1  0  0  0  0
 27 28  1  0  0  0  0
 28 29  1  0  0  0  0
 29 31  1  0  0  0  0
 31 30  1  6  0  0  0
 32 34  1  0  0  0  0
 32 37  1  0  0  0  0
 34 35  1  0  0  0  0
 35 36  1  0  0  0  0
 35 31  1  1  0  0  0
 36 33  1  6  0  0  0
 37 36  1  0  0  0  0
 39 42  1  6  0  0  0
 39 41  1  0  0  0  0
 39 38  1  0  0  0  0
 41 40  1  0  0  0  0
 42 43  1  0  0  0  0
 44 52  1  6  0  0  0
 44 43  1  0  0  0  0
 45 48  1  6  0  0  0
 45 46  1  0  0  0  0
 47 44  1  1  0  0  0
 47 45  1  0  0  0  0
 47 46  1  0  0  0  0
 48 49  1  1  0  0  0
 50 48  1  0  0  0  0
 51 50  2  0  0  0  0
 53 52  1  0  0  0  0
 54 38  1  0  0  0  0
 55 56  1  0  0  0  0
 55 60  1  0  0  0  0
 56 61  1  6  0  0  0
 56 57  1  0  0  0  0
 57 58  1  0  0  0  0
 57 59  1  1  0  0  0
 58 62  1  0  0  0  0
 58 54  1  1  0  0  0
 60 62  2  0  0  0  0
M  END
>  <MODEL>
8

>  <REMARK>
 VINA RESULT:      -5.7      3.155     10.404
  Name = 
  18 active torsions:
  status: ('A' for Active; 'I' for Inactive)
    1  A    between atoms: C_1  and  N_24
    2  A    between atoms: C_2  and  C_11
    3  A    between atoms: O_4  and  C_10
    4  A    between atoms: O_4  and  C_14
    5  A    between atoms: C_8  and  C_11
    6  A    between atoms: C_10  and  C_35
    7  A    between atoms: C_14  and  C_27
    8  A    between atoms: C_14  and  C_53
    9  A    between atoms: C_18  and  C_55
   10  A    between atoms: C_28  and  C_36
   11  A    between atoms: C_28  and  C_46
   12  A    between atoms: C_29  and  C_46
   13  A    between atoms: C_35  and  C_48
   14  A    between atoms: C_35  and  N_49
   15  A    between atoms: C_36  and  C_43
   16  A    between atoms: C_43  and  C_45
   17  A    between atoms: N_49  and  C_55
   18  A    between atoms: N_49  and  C_58
                            x       y       z     vdW  Elec       q    Type
                         _______ _______ _______ _____ _____    ______ ____

>  <TORSDO>
F 18

$$$$
=
 OpenBabel11062423023D

 62 67  0  0  1  0  0  0  0  0999 V2000
  190.2400  176.8510  146.5300 C   0  0  2  0  0  3  0  0  0  0  0  0
  189.9260  174.8120  147.7370 O   0  0  0  0  0  0  0  0  0  0  0  0
  189.2620  177.5510  145.5920 C   0  0  0  0  0  2  0  0  0  0  0  0
  188.9260  175.4380  144.3360 C   0  0  0  0  0  0  0  0  0  0  0  0
  190.1790  172.9300  141.9360 C   0  0  0  0  0  2  0  0  0  0  0  0
  187.9010  174.9170  143.6350 C   0  0  0  0  0  3  0  0  0  0  0  0
  188.2810  173.6820  140.5640 C   0  0  0  0  0  2  0  0  0  0  0  0
  185.9870  176.4900  143.5140 C   0  0  0  0  0  1  0  0  0  0  0  0
  192.9900  174.3570  144.0060 C   0  0  2  0  0  3  0  0  0  0  0  0
  188.1850  174.9420  139.9570 O   0  0  0  0  0  0  0  0  0  0  0  0
  189.9200  175.3760  146.6510 C   0  0  0  0  0  0  0  0  0  0  0  0
  189.2970  176.8910  144.2240 C   0  0  0  0  0  2  0  0  0  0  0  0
  190.6450  173.5310  145.0080 C   0  0  0  0  0  2  0  0  0  0  0  0
  192.8850  171.7940  144.5850 C   0  0  0  0  0  1  0  0  0  0  0  0
  191.5600  173.8430  143.7970 C   0  0  1  0  0  0  0  0  0  0  0  0
  187.6520  176.5700  141.6670 C   0  0  0  0  0  2  0  0  0  0  0  0
  188.7340  175.8610  140.8670 C   0  0  0  0  0  2  0  0  0  0  0  0
  186.9720  175.6710  142.7050 C   0  0  1  0  0  3  0  0  0  0  0  0
  190.9170  174.1610  142.4580 C   0  0  0  0  0  2  0  0  0  0  0  0
  189.7180  173.1530  140.5000 C   0  0  2  0  0  3  0  0  0  0  0  0
  192.7490  172.9080  143.5340 C   0  0  1  0  0  3  0  0  0  0  0  0
  189.5900  174.5900  145.4090 C   0  0  2  0  0  3  0  0  0  0  0  0
  190.3080  177.5340  147.8230 N   0  0  0  0  0  2  0  0  0  0  0  0
  191.4900  177.6420  148.6380 C   0  0  0  0  0  0  0  0  0  0  0  0
  191.3880  178.1300  149.9710 N   0  0  0  0  0  1  0  0  0  0  0  0
  192.6160  177.3430  148.1650 O   0  0  0  0  0  0  0  0  0  0  0  0
  193.5750  174.3740  145.4220 C   0  0  0  0  0  2  0  0  0  0  0  0
  194.7510  175.3320  145.5540 C   0  0  0  0  0  2  0  0  0  0  0  0
  196.0800  174.5840  145.5800 C   0  0  0  0  0  2  0  0  0  0  0  0
  196.2630  175.5890  143.4080 O   0  0  0  0  0  1  0  0  0  0  0  0
  196.9540  174.8150  144.3410 C   0  0  2  0  0  3  0  0  0  0  0  0
  197.5310  172.4060  141.5520 C   0  0  0  0  0  2  0  0  0  0  0  0
  196.4650  171.6480  144.8120 O   0  0  0  0  0  1  0  0  0  0  0  0
  197.8250  173.7210  142.2420 C   0  0  0  0  0  2  0  0  0  0  0  0
  197.4560  173.5170  143.6970 C   0  0  2  0  0  3  0  0  0  0  0  0
  196.3650  172.4660  143.6870 C   0  0  1  0  0  3  0  0  0  0  0  0
  196.5520  171.6480  142.4330 C   0  0  0  0  0  2  0  0  0  0  0  0
  189.8110  171.9040  139.7300 N   0  0  0  0  0  0  0  0  0  0  0  0
  190.4920  172.1410  138.4400 C   0  0  1  0  0  3  0  0  0  0  0  0
  188.8230  173.1560  137.0440 O   0  0  0  0  0  1  0  0  0  0  0  0
  189.5790  171.9980  137.2210 C   0  0  0  0  0  2  0  0  0  0  0  0
  191.2090  173.4750  138.4600 C   0  0  0  0  0  2  0  0  0  0  0  0
  192.1270  173.5540  137.4110 O   0  0  0  0  0  0  0  0  0  0  0  0
  193.3490  173.8090  138.0450 C   0  0  2  0  0  3  0  0  0  0  0  0
  194.7930  172.4960  136.4280 C   0  0  2  0  0  3  0  0  0  0  0  0
  195.5730  173.2470  137.3310 O   0  0  0  0  0  0  0  0  0  0  0  0
  194.3820  172.6890  137.8460 C   0  0  1  0  0  3  0  0  0  0  0  0
  195.3900  171.1020  136.1700 C   0  0  2  0  0  3  0  0  0  0  0  0
  196.7590  171.2170  135.9260 O   0  0  0  0  0  1  0  0  0  0  0  0
  194.7380  170.2870  135.0870 C   0  0  0  0  0  3  0  0  0  0  0  0
  194.5070  169.1000  135.2670 O   0  0  0  0  0  0  0  0  0  0  0  0
  193.1320  174.0920  139.5300 C   0  0  0  0  0  2  0  0  0  0  0  0
  194.4180  173.9440  140.3310 C   0  0  0  0  0  1  0  0  0  0  0  0
  190.5660  170.9310  140.5320 C   0  0  0  0  0  2  0  0  0  0  0  0
  193.7590  168.7300  138.6980 C   0  0  0  0  0  2  0  0  0  0  0  0
  194.1620  169.5270  139.9440 C   0  0  2  0  0  3  0  0  0  0  0  0
  193.0440  170.4220  140.5310 C   0  0  1  0  0  3  0  0  0  0  0  0
  191.7220  170.3560  139.7330 C   0  0  1  0  0  3  0  0  0  0  0  0
  192.8380  170.0360  141.8450 F   0  0  0  0  0  0  0  0  0  0  0  0
  192.3760  168.1670  138.8550 C   0  0  0  0  0  3  0  0  0  0  0  0
  195.2930  170.2800  139.6800 F   0  0  0  0  0  0  0  0  0  0  0  0
  191.4020  168.9450  139.3450 C   0  0  0  0  0  3  0  0  0  0  0  0
  1 11  1  0  0  0  0
  1 23  1  1  0  0  0
  3  1  1  0  0  0  0
  4 22  1  0  0  0  0
  5 19  1  0  0  0  0
  6  4  2  0  0  0  0
  9 27  1  1  0  0  0
 10  7  1  0  0  0  0
 10 17  1  0  0  0  0
 11  2  2  0  0  0  0
 12  4  1  0  0  0  0
 12  3  1  0  0  0  0
 15 19  1  6  0  0  0
 15  9  1  0  0  0  0
 15 13  1  0  0  0  0
 16 18  1  0  0  0  0
 17 16  1  0  0  0  0
 18  8  1  1  0  0  0
 18  6  1  0  0  0  0
 20 38  1  6  0  0  0
 20  7  1  0  0  0  0
 20  5  1  0  0  0  0
 21 15  1  0  0  0  0
 21  9  1  0  0  0  0
 21 14  1  1  0  0  0
 22 13  1  6  0  0  0
 22 11  1  0  0  0  0
 23 24  1  0  0  0  0
 24 25  1  0  0  0  0
 26 24  2  0  0  0  0
 27 28  1  0  0  0  0
 28 29  1  0  0  0  0
 31 30  1  6  0  0  0
 31 29  1  0  0  0  0
 32 34  1  0  0  0  0
 32 37  1  0  0  0  0
 34 35  1  0  0  0  0
 35 31  1  6  0  0  0
 36 35  1  0  0  0  0
 36 33  1  1  0  0  0
 37 36  1  0  0  0  0
 38 54  1  0  0  0  0
 39 41  1  6  0  0  0
 39 42  1  0  0  0  0
 39 38  1  0  0  0  0
 40 41  1  0  0  0  0
 43 44  1  0  0  0  0
 43 42  1  0  0  0  0
 44 52  1  1  0  0  0
 45 48  1  1  0  0  0
 45 46  1  0  0  0  0
 45 47  1  0  0  0  0
 46 47  1  0  0  0  0
 47 44  1  6  0  0  0
 48 49  1  6  0  0  0
 50 51  2  0  0  0  0
 50 48  1  0  0  0  0
 52 53  1  0  0  0  0
 55 60  1  0  0  0  0
 55 56  1  0  0  0  0
 56 61  1  6  0  0  0
 56 57  1  0  0  0  0
 57 59  1  1  0  0  0
 58 57  1  0  0  0  0
 58 54  1  1  0  0  0
 60 62  2  0  0  0  0
 62 58  1  0  0  0  0
M  END
>  <MODEL>
9

>  <REMARK>
 VINA RESULT:      -5.7      2.818      8.593
  Name = 
  18 active torsions:
  status: ('A' for Active; 'I' for Inactive)
    1  A    between atoms: C_1  and  N_24
    2  A    between atoms: C_2  and  C_11
    3  A    between atoms: O_4  and  C_10
    4  A    between atoms: O_4  and  C_14
    5  A    between atoms: C_8  and  C_11
    6  A    between atoms: C_10  and  C_35
    7  A    between atoms: C_14  and  C_27
    8  A    between atoms: C_14  and  C_53
    9  A    between atoms: C_18  and  C_55
   10  A    between atoms: C_28  and  C_36
   11  A    between atoms: C_28  and  C_46
   12  A    between atoms: C_29  and  C_46
   13  A    between atoms: C_35  and  C_48
   14  A    between atoms: C_35  and  N_49
   15  A    between atoms: C_36  and  C_43
   16  A    between atoms: C_43  and  C_45
   17  A    between atoms: N_49  and  C_55
   18  A    between atoms: N_49  and  C_58
                            x       y       z     vdW  Elec       q    Type
                         _______ _______ _______ _____ _____    ______ ____

>  <TORSDO>
F 18

$$$$
