=
 OpenBabel11062420303D

 53 60  0  0  1  0  0  0  0  0999 V2000
  191.4600  173.2510  137.3460 N   0  0  0  0  0  0  0  0  0  0  0  0
  188.1980  174.2810  139.1000 C   0  0  0  0  0  2  0  0  0  0  0  0
  190.0020  173.3260  137.3740 C   0  0  1  0  0  3  0  0  0  0  0  0
  190.7550  172.9430  139.6900 C   0  0  1  0  0  3  0  0  0  0  0  0
  191.9600  172.9820  138.7390 C   0  0  1  0  0  3  0  0  0  0  0  0
  188.2520  172.8540  139.5940 C   0  0  0  0  0  2  0  0  0  0  0  0
  189.5530  173.4760  138.8700 C   0  0  0  0  0  0  0  0  0  0  0  0
  192.1640  174.7710  136.5420 S   0  0  0  0  0  3  0  0  0  0  0  0
  193.3440  175.1520  137.3560 O   0  0  0  0  0  1  0  0  0  0  0  0
  193.0420  174.2490  135.1460 O   0  0  0  0  0  1  0  0  0  0  0  0
  188.9620  174.9390  135.5500 N   0  0  0  0  0  0  0  0  0  0  0  0
  189.4080  174.2330  136.3850 C   0  0  0  0  0  0  0  0  0  0  0  0
  190.4800  171.7710  140.3500 O   0  0  0  0  0  0  0  0  0  0  0  0
  190.6430  171.8630  141.7780 C   0  0  0  0  0  2  0  0  0  0  0  0
  191.1440  173.2020  142.2930 C   0  0  0  0  0  2  0  0  0  0  0  0
  190.7950  173.2860  143.6990 O   0  0  0  0  0  0  0  0  0  0  0  0
  189.1720  177.8630  142.5220 C   0  0  0  0  0  2  0  0  0  0  0  0
  185.4750  178.0790  142.1670 P   0  0  1  0  0  0  0  0  0  0  0  0
  187.4040  175.9170  144.0080 C   0  0  1  0  0  3  0  0  0  0  0  0
  188.3290  176.8940  141.7180 C   0  0  1  0  0  3  0  0  0  0  0  0
  189.8120  175.4270  144.2470 C   0  0  2  0  0  3  0  0  0  0  0  0
  184.1320  178.3260  141.5040 O   0  0  0  0  0  0  0  0  0  0  0  0
  185.3330  176.7740  143.1480 O   0  0  0  0  0  0  0  0  0  0  0  0
  187.9440  175.6530  142.5840 C   0  0  1  0  0  3  0  0  0  0  0  0
  189.0710  177.7380  144.0830 C   0  0  0  0  0  2  0  0  0  0  0  0
  188.7220  176.3360  144.7240 C   0  0  1  0  0  0  0  0  0  0  0  0
  186.3140  177.0670  144.1100 C   0  0  1  0  0  3  0  0  0  0  0  0
  186.9600  177.6260  140.7120 S   0  0  0  0  0  0  0  0  0  0  0  0
  185.8300  179.4500  143.0570 O   0  0  0  0  0  1  0  0  0  0  0  0
  189.3760  175.1090  142.7590 C   0  0  2  0  0  3  0  0  0  0  0  0
  189.5290  173.9890  143.7990 C   0  0  1  0  0  3  0  0  0  0  0  0
  185.7100  177.1420  145.5040 C   0  0  0  0  0  2  0  0  0  0  0  0
  184.4620  177.7020  145.5420 F   0  0  0  0  0  0  0  0  0  0  0  0
  188.5820  176.1530  146.0670 O   0  0  0  0  0  0  0  0  0  0  0  0
  189.8810  177.6030  147.4400 C   0  0  0  0  0  1  0  0  0  0  0  0
  190.1890  175.1320  147.6000 C   0  0  0  0  0  1  0  0  0  0  0  0
  189.8490  176.2760  146.7100 C   0  0  0  0  0  3  0  0  0  0  0  0
  193.0010  171.9130  138.8590 C   0  0  0  0  0  2  0  0  0  0  0  0
  193.8350  171.9390  140.2150 C   0  0  0  0  0  2  0  0  0  0  0  0
  194.6960  173.2330  140.6290 S   0  0  0  0  0  0  0  0  0  0  0  0
  195.2310  172.5750  145.3830 C   0  0  0  0  0  2  0  0  0  0  0  0
  193.4650  175.9740  144.1100 S   0  0  0  0  0  0  0  0  0  0  0  0
  196.2630  171.0590  143.6830 C   0  0  0  0  0  3  0  0  0  0  0  0
  196.2360  171.8710  142.6100 C   0  0  0  0  0  3  0  0  0  0  0  0
  194.3310  174.8920  145.3700 C   0  0  0  0  0  2  0  0  0  0  0  0
  194.8550  173.8850  143.2510 C   0  0  0  0  0  0  0  0  0  0  0  0
  194.2300  175.0260  142.8510 O   0  0  0  0  0  0  0  0  0  0  0  0
  195.3280  171.1980  144.9040 C   0  0  1  0  0  3  0  0  0  0  0  0
  194.9920  173.7480  144.7120 C   0  0  0  0  0  0  0  0  0  0  0  0
  195.3250  173.0260  142.3040 C   0  0  2  0  0  3  0  0  0  0  0  0
  195.6890  170.2340  146.0110 N   0  0  0  0  0  0  0  0  0  0  0  0
  196.9980  170.0020  146.3750 O   0  0  0  0  0  0  0  0  0  0  0  0
  194.7640  169.6990  146.6960 O   0  0  0  0  0  0  0  0  0  0  0  0
  1  3  1  0  0  0  0
  1  5  1  0  0  0  0
  2  6  1  0  0  0  0
  3 12  1  6  0  0  0
  3  7  1  0  0  0  0
  4 13  1  6  0  0  0
  5 38  1  6  0  0  0
  5  4  1  0  0  0  0
  7  2  1  0  0  0  0
  7  6  1  0  0  0  0
  7  4  1  0  0  0  0
  8  1  1  0  0  0  0
  8  9  1  0  0  0  0
 10  8  1  0  0  0  0
 11 12  3  0  0  0  0
 13 14  1  0  0  0  0
 14 15  1  0  0  0  0
 15 16  1  0  0  0  0
 16 31  1  0  0  0  0
 17 25  1  0  0  0  0
 18 22  2  6  0  0  0
 18 29  1  0  0  0  0
 18 23  1  0  0  0  0
 19 27  1  0  0  0  0
 19 26  1  0  0  0  0
 20 17  1  0  0  0  0
 20 24  1  0  0  0  0
 21 26  1  0  0  0  0
 23 27  1  0  0  0  0
 24 30  1  0  0  0  0
 24 19  1  0  0  0  0
 25 26  1  0  0  0  0
 26 34  1  0  0  0  0
 27 32  1  0  0  0  0
 28 20  1  0  0  0  0
 28 18  1  0  0  0  0
 30 31  1  0  0  0  0
 30 21  1  0  0  0  0
 31 21  1  0  0  0  0
 32 33  1  0  0  0  0
 34 37  1  0  0  0  0
 37 35  1  0  0  0  0
 37 36  1  0  0  0  0
 38 39  1  0  0  0  0
 39 40  1  0  0  0  0
 40 50  1  0  0  0  0
 42 45  1  0  0  0  0
 43 48  1  0  0  0  0
 44 43  2  0  0  0  0
 46 49  2  0  0  0  0
 47 46  1  0  0  0  0
 47 42  1  0  0  0  0
 48 41  1  0  0  0  0
 48 51  1  0  0  0  0
 49 45  1  0  0  0  0
 49 41  1  0  0  0  0
 50 44  1  0  0  0  0
 50 46  1  0  0  0  0
 51 52  2  0  0  0  0
 51 53  2  0  0  0  0
M  END
>  <MODEL>
1

>  <REMARK>
 VINA RESULT:      -7.1      0.000      0.000
  Name = 
  14 active torsions:
  status: ('A' for Active; 'I' for Inactive)
    1  A    between atoms: C_1  and  C_4
    2  A    between atoms: S_2  and  N_5
    3  A    between atoms: O_3  and  C_17
    4  A    between atoms: O_3  and  C_23
    5  A    between atoms: C_4  and  C_30
    6  A    between atoms: C_10  and  C_52
    7  A    between atoms: N_15  and  C_45
    8  A    between atoms: S_16  and  C_51
    9  A    between atoms: C_21  and  C_32
   10  A    between atoms: C_23  and  C_36
   11  A    between atoms: O_27  and  C_31
   12  A    between atoms: O_27  and  C_50
   13  A    between atoms: C_36  and  O_53
   14  A    between atoms: C_44  and  O_53
                            x       y       z     vdW  Elec       q    Type
                         _______ _______ _______ _____ _____    ______ ____

>  <TORSDO>
F 14

$$$$
=
 OpenBabel11062420303D

 53 60  0  0  1  0  0  0  0  0999 V2000
  188.8560  177.4930  145.9380 N   0  0  0  0  0  0  0  0  0  0  0  0
  185.2170  177.0950  144.7630 C   0  0  0  0  0  2  0  0  0  0  0  0
  187.4570  177.9130  145.9700 C   0  0  1  0  0  3  0  0  0  0  0  0
  187.9480  177.1940  143.6630 C   0  0  1  0  0  3  0  0  0  0  0  0
  189.2070  177.0780  144.5350 C   0  0  1  0  0  3  0  0  0  0  0  0
  185.6360  178.1560  143.7710 C   0  0  0  0  0  2  0  0  0  0  0  0
  186.7730  177.4180  144.6470 C   0  0  0  0  0  0  0  0  0  0  0  0
  189.1660  176.2000  147.2360 S   0  0  0  0  0  3  0  0  0  0  0  0
  189.4170  174.9370  146.5010 O   0  0  0  0  0  1  0  0  0  0  0  0
  190.7830  176.4280  147.8060 O   0  0  0  0  0  1  0  0  0  0  0  0
  186.1550  177.4810  148.2350 N   0  0  0  0  0  0  0  0  0  0  0  0
  186.7620  177.6620  147.2370 C   0  0  0  0  0  0  0  0  0  0  0  0
  187.9550  178.0860  142.6190 O   0  0  0  0  0  0  0  0  0  0  0  0
  188.2440  177.4780  141.3460 C   0  0  0  0  0  2  0  0  0  0  0  0
  187.2610  176.4120  140.8920 C   0  0  0  0  0  2  0  0  0  0  0  0
  187.6790  175.1550  141.4840 O   0  0  0  0  0  0  0  0  0  0  0  0
  189.5330  171.3520  138.8250 C   0  0  0  0  0  2  0  0  0  0  0  0
  192.6800  172.1950  137.0280 P   0  0  1  0  0  0  0  0  0  0  0  0
  191.3310  173.5330  139.8880 C   0  0  1  0  0  3  0  0  0  0  0  0
  189.7340  172.5960  137.9830 C   0  0  1  0  0  3  0  0  0  0  0  0
  189.2140  173.3170  141.1390 C   0  0  2  0  0  3  0  0  0  0  0  0
  193.6290  172.3980  135.8610 O   0  0  0  0  0  0  0  0  0  0  0  0
  192.9600  173.3740  138.1310 O   0  0  0  0  0  0  0  0  0  0  0  0
  190.1930  173.7930  138.8750 C   0  0  1  0  0  3  0  0  0  0  0  0
  190.2660  171.3290  140.2120 C   0  0  0  0  0  2  0  0  0  0  0  0
  190.5630  172.6950  140.9500 C   0  0  1  0  0  0  0  0  0  0  0  0
  192.5680  172.7210  139.3120 C   0  0  1  0  0  3  0  0  0  0  0  0
  190.6580  172.3810  136.3950 S   0  0  0  0  0  0  0  0  0  0  0  0
  193.0270  170.6910  137.6720 O   0  0  0  0  0  1  0  0  0  0  0  0
  188.8960  173.9030  139.7030 C   0  0  2  0  0  3  0  0  0  0  0  0
  188.9800  174.8180  140.9340 C   0  0  1  0  0  3  0  0  0  0  0  0
  193.7130  172.6630  140.3120 C   0  0  0  0  0  2  0  0  0  0  0  0
  193.8890  171.4350  140.8890 F   0  0  0  0  0  0  0  0  0  0  0  0
  191.2240  172.7610  142.1400 O   0  0  0  0  0  0  0  0  0  0  0  0
  191.8890  170.7940  143.3070 C   0  0  0  0  0  1  0  0  0  0  0  0
  190.1200  172.2710  144.2660 C   0  0  0  0  0  1  0  0  0  0  0  0
  190.7470  171.7460  143.0200 C   0  0  0  0  0  3  0  0  0  0  0  0
  190.4980  177.6180  144.0040 C   0  0  0  0  0  2  0  0  0  0  0  0
  191.6070  176.5190  143.6950 C   0  0  0  0  0  2  0  0  0  0  0  0
  192.9360  176.4130  144.5940 S   0  0  0  0  0  0  0  0  0  0  0  0
  196.3460  173.1160  143.6830 C   0  0  0  0  0  2  0  0  0  0  0  0
  196.2650  176.4580  141.4210 S   0  0  0  0  0  0  0  0  0  0  0  0
  194.4610  172.7090  145.2750 C   0  0  0  0  0  3  0  0  0  0  0  0
  193.5960  173.6470  144.8470 C   0  0  0  0  0  3  0  0  0  0  0  0
  196.7670  174.6960  141.8110 C   0  0  0  0  0  2  0  0  0  0  0  0
  194.8440  175.0940  143.1990 C   0  0  0  0  0  0  0  0  0  0  0  0
  194.8600  176.2250  142.4410 O   0  0  0  0  0  0  0  0  0  0  0  0
  195.9880  172.7670  145.0560 C   0  0  1  0  0  3  0  0  0  0  0  0
  195.9060  174.1270  142.8660 C   0  0  0  0  0  0  0  0  0  0  0  0
  193.8620  174.9390  144.1290 C   0  0  2  0  0  3  0  0  0  0  0  0
  196.6800  171.5060  145.5220 N   0  0  0  0  0  0  0  0  0  0  0  0
  196.0930  170.6460  146.4250 O   0  0  0  0  0  0  0  0  0  0  0  0
  197.7840  171.1720  144.9940 O   0  0  0  0  0  0  0  0  0  0  0  0
  1  3  1  0  0  0  0
  1  8  1  0  0  0  0
  3 12  1  1  0  0  0
  4 13  1  6  0  0  0
  4  5  1  0  0  0  0
  4  7  1  0  0  0  0
  5 38  1  6  0  0  0
  5  1  1  0  0  0  0
  6  7  1  0  0  0  0
  6  2  1  0  0  0  0
  7  2  1  0  0  0  0
  7  3  1  0  0  0  0
  8 10  1  0  0  0  0
  9  8  1  0  0  0  0
 12 11  3  0  0  0  0
 14 13  1  0  0  0  0
 15 14  1  0  0  0  0
 15 16  1  0  0  0  0
 17 25  1  0  0  0  0
 18 22  2  6  0  0  0
 18 29  1  0  0  0  0
 18 23  1  0  0  0  0
 19 26  1  0  0  0  0
 20 17  1  0  0  0  0
 20 24  1  0  0  0  0
 23 27  1  0  0  0  0
 24 30  1  0  0  0  0
 24 19  1  0  0  0  0
 25 26  1  0  0  0  0
 26 21  1  0  0  0  0
 26 34  1  0  0  0  0
 27 19  1  0  0  0  0
 27 32  1  0  0  0  0
 28 18  1  0  0  0  0
 28 20  1  0  0  0  0
 30 31  1  0  0  0  0
 30 21  1  0  0  0  0
 31 21  1  0  0  0  0
 31 16  1  0  0  0  0
 32 33  1  0  0  0  0
 34 37  1  0  0  0  0
 37 35  1  0  0  0  0
 37 36  1  0  0  0  0
 39 38  1  0  0  0  0
 39 40  1  0  0  0  0
 41 48  1  0  0  0  0
 42 45  1  0  0  0  0
 42 47  1  0  0  0  0
 44 43  2  0  0  0  0
 45 49  1  0  0  0  0
 46 50  1  0  0  0  0
 47 46  1  0  0  0  0
 48 43  1  0  0  0  0
 48 51  1  0  0  0  0
 49 46  2  0  0  0  0
 49 41  1  0  0  0  0
 50 40  1  0  0  0  0
 50 44  1  0  0  0  0
 51 52  2  0  0  0  0
 53 51  2  0  0  0  0
M  END
>  <MODEL>
2

>  <REMARK>
 VINA RESULT:      -6.5      3.616      7.378
  Name = 
  14 active torsions:
  status: ('A' for Active; 'I' for Inactive)
    1  A    between atoms: C_1  and  C_4
    2  A    between atoms: S_2  and  N_5
    3  A    between atoms: O_3  and  C_17
    4  A    between atoms: O_3  and  C_23
    5  A    between atoms: C_4  and  C_30
    6  A    between atoms: C_10  and  C_52
    7  A    between atoms: N_15  and  C_45
    8  A    between atoms: S_16  and  C_51
    9  A    between atoms: C_21  and  C_32
   10  A    between atoms: C_23  and  C_36
   11  A    between atoms: O_27  and  C_31
   12  A    between atoms: O_27  and  C_50
   13  A    between atoms: C_36  and  O_53
   14  A    between atoms: C_44  and  O_53
                            x       y       z     vdW  Elec       q    Type
                         _______ _______ _______ _____ _____    ______ ____

>  <TORSDO>
F 14

$$$$
=
 OpenBabel11062420303D

 53 60  0  0  1  0  0  0  0  0999 V2000
  191.5240  172.3000  138.1970 N   0  0  0  0  0  0  0  0  0  0  0  0
  190.4920  168.6370  138.7400 C   0  0  0  0  0  2  0  0  0  0  0  0
  191.8400  170.8740  138.1750 C   0  0  1  0  0  3  0  0  0  0  0  0
  190.3260  171.2540  140.0830 C   0  0  1  0  0  3  0  0  0  0  0  0
  190.6270  172.5800  139.3710 C   0  0  1  0  0  3  0  0  0  0  0  0
  191.1160  168.8750  140.0960 C   0  0  0  0  0  2  0  0  0  0  0  0
  190.8380  170.1410  139.1350 C   0  0  0  0  0  0  0  0  0  0  0  0
  190.8460  172.8300  136.5500 S   0  0  0  0  0  3  0  0  0  0  0  0
  190.0340  174.0430  136.8160 O   0  0  0  0  0  1  0  0  0  0  0  0
  192.1280  173.6270  135.7050 O   0  0  0  0  0  1  0  0  0  0  0  0
  192.1690  169.8610  135.7510 N   0  0  0  0  0  0  0  0  0  0  0  0
  192.0520  170.3050  136.8390 C   0  0  0  0  0  0  0  0  0  0  0  0
  190.7500  171.0950  141.3790 O   0  0  0  0  0  0  0  0  0  0  0  0
  189.7780  171.5110  142.3570 C   0  0  0  0  0  2  0  0  0  0  0  0
  190.3290  171.8050  143.7430 C   0  0  0  0  0  2  0  0  0  0  0  0
  190.6730  173.2140  143.7840 O   0  0  0  0  0  0  0  0  0  0  0  0
  189.1740  177.7990  142.4820 C   0  0  0  0  0  2  0  0  0  0  0  0
  185.4770  178.1370  142.2410 P   0  0  1  0  0  0  0  0  0  0  0  0
  187.3910  175.9780  144.1010 C   0  0  1  0  0  3  0  0  0  0  0  0
  188.2700  176.8320  141.7450 C   0  0  1  0  0  3  0  0  0  0  0  0
  189.7860  175.4090  144.2800 C   0  0  2  0  0  3  0  0  0  0  0  0
  184.1210  178.4080  141.6130 O   0  0  0  0  0  0  0  0  0  0  0  0
  185.3230  176.8770  143.2770 O   0  0  0  0  0  0  0  0  0  0  0  0
  187.8710  175.6400  142.6710 C   0  0  1  0  0  3  0  0  0  0  0  0
  189.1220  177.7380  144.0490 C   0  0  0  0  0  2  0  0  0  0  0  0
  188.7460  176.3750  144.7550 C   0  0  1  0  0  0  0  0  0  0  0  0
  186.3460  177.1700  144.1940 C   0  0  1  0  0  3  0  0  0  0  0  0
  186.8930  177.5740  140.7570 S   0  0  0  0  0  0  0  0  0  0  0  0
  185.9100  179.5270  143.0640 O   0  0  0  0  0  1  0  0  0  0  0  0
  189.2880  175.0500  142.8200 C   0  0  2  0  0  3  0  0  0  0  0  0
  189.4370  173.9670  143.8980 C   0  0  1  0  0  3  0  0  0  0  0  0
  185.7930  177.3210  145.6020 C   0  0  0  0  0  2  0  0  0  0  0  0
  185.2820  176.1660  146.1290 F   0  0  0  0  0  0  0  0  0  0  0  0
  188.6460  176.2490  146.1080 O   0  0  0  0  0  0  0  0  0  0  0  0
  189.6800  177.8710  147.5140 C   0  0  0  0  0  1  0  0  0  0  0  0
  190.4770  175.5060  147.5490 C   0  0  0  0  0  1  0  0  0  0  0  0
  189.8850  176.5960  146.7230 C   0  0  0  0  0  3  0  0  0  0  0  0
  190.9990  173.7690  140.2010 C   0  0  0  0  0  2  0  0  0  0  0  0
  192.4450  173.6970  140.8630 C   0  0  0  0  0  2  0  0  0  0  0  0
  193.0040  174.9110  141.7580 S   0  0  0  0  0  0  0  0  0  0  0  0
  196.4360  173.0700  144.6160 C   0  0  0  0  0  2  0  0  0  0  0  0
  194.0590  175.9720  146.1070 S   0  0  0  0  0  0  0  0  0  0  0  0
  196.2660  172.5250  142.1810 C   0  0  0  0  0  3  0  0  0  0  0  0
  195.5240  173.5690  141.7670 C   0  0  0  0  0  3  0  0  0  0  0  0
  195.5870  174.8880  146.0830 C   0  0  0  0  0  2  0  0  0  0  0  0
  194.7300  174.7700  143.8390 C   0  0  0  0  0  0  0  0  0  0  0  0
  193.9240  175.7260  144.3780 O   0  0  0  0  0  0  0  0  0  0  0  0
  196.2950  171.9980  143.6320 C   0  0  1  0  0  3  0  0  0  0  0  0
  195.7590  174.2550  144.7600 C   0  0  0  0  0  0  0  0  0  0  0  0
  194.5540  174.4210  142.5350 C   0  0  2  0  0  3  0  0  0  0  0  0
  197.3270  170.9110  143.8230 N   0  0  0  0  0  0  0  0  0  0  0  0
  197.7320  170.5050  145.0770 O   0  0  0  0  0  0  0  0  0  0  0  0
  197.7610  170.2810  142.8110 O   0  0  0  0  0  0  0  0  0  0  0  0
  1  5  1  0  0  0  0
  2  7  1  0  0  0  0
  2  6  1  0  0  0  0
  3 12  1  6  0  0  0
  3  1  1  0  0  0  0
  3  7  1  0  0  0  0
  4 13  1  1  0  0  0
  5  4  1  0  0  0  0
  5 38  1  1  0  0  0
  7  4  1  0  0  0  0
  7  6  1  0  0  0  0
  8  9  1  0  0  0  0
  8  1  1  0  0  0  0
 10  8  1  0  0  0  0
 11 12  3  0  0  0  0
 13 14  1  0  0  0  0
 14 15  1  0  0  0  0
 15 16  1  0  0  0  0
 16 31  1  0  0  0  0
 17 25  1  0  0  0  0
 18 22  2  6  0  0  0
 18 29  1  0  0  0  0
 18 23  1  0  0  0  0
 19 27  1  0  0  0  0
 19 26  1  0  0  0  0
 20 17  1  0  0  0  0
 20 24  1  0  0  0  0
 21 26  1  0  0  0  0
 23 27  1  0  0  0  0
 24 30  1  0  0  0  0
 24 19  1  0  0  0  0
 25 26  1  0  0  0  0
 26 34  1  0  0  0  0
 27 32  1  0  0  0  0
 28 20  1  0  0  0  0
 28 18  1  0  0  0  0
 30 31  1  0  0  0  0
 30 21  1  0  0  0  0
 31 21  1  0  0  0  0
 32 33  1  0  0  0  0
 34 37  1  0  0  0  0
 37 35  1  0  0  0  0
 37 36  1  0  0  0  0
 38 39  1  0  0  0  0
 39 40  1  0  0  0  0
 40 50  1  0  0  0  0
 41 49  1  0  0  0  0
 43 48  1  0  0  0  0
 44 43  2  0  0  0  0
 44 50  1  0  0  0  0
 45 42  1  0  0  0  0
 46 47  1  0  0  0  0
 46 49  2  0  0  0  0
 47 42  1  0  0  0  0
 48 51  1  0  0  0  0
 48 41  1  0  0  0  0
 49 45  1  0  0  0  0
 50 46  1  0  0  0  0
 51 52  2  0  0  0  0
 53 51  2  0  0  0  0
M  END
>  <MODEL>
3

>  <REMARK>
 VINA RESULT:      -6.5      1.677      2.240
  Name = 
  14 active torsions:
  status: ('A' for Active; 'I' for Inactive)
    1  A    between atoms: C_1  and  C_4
    2  A    between atoms: S_2  and  N_5
    3  A    between atoms: O_3  and  C_17
    4  A    between atoms: O_3  and  C_23
    5  A    between atoms: C_4  and  C_30
    6  A    between atoms: C_10  and  C_52
    7  A    between atoms: N_15  and  C_45
    8  A    between atoms: S_16  and  C_51
    9  A    between atoms: C_21  and  C_32
   10  A    between atoms: C_23  and  C_36
   11  A    between atoms: O_27  and  C_31
   12  A    between atoms: O_27  and  C_50
   13  A    between atoms: C_36  and  O_53
   14  A    between atoms: C_44  and  O_53
                            x       y       z     vdW  Elec       q    Type
                         _______ _______ _______ _____ _____    ______ ____

>  <TORSDO>
F 14

$$$$
=
 OpenBabel11062420303D

 53 60  0  0  1  0  0  0  0  0999 V2000
  185.7800  176.9970  143.7650 N   0  0  0  0  0  0  0  0  0  0  0  0
  187.5730  177.6810  147.0960 C   0  0  0  0  0  2  0  0  0  0  0  0
  185.8850  176.8210  145.2110 C   0  0  1  0  0  3  0  0  0  0  0  0
  188.1820  176.9060  144.3200 C   0  0  1  0  0  3  0  0  0  0  0  0
  187.1650  177.0200  143.1770 C   0  0  1  0  0  3  0  0  0  0  0  0
  188.2490  176.3700  146.7670 C   0  0  0  0  0  2  0  0  0  0  0  0
  187.3730  177.1010  145.6270 C   0  0  0  0  0  0  0  0  0  0  0  0
  184.7410  178.4870  143.3760 S   0  0  0  0  0  3  0  0  0  0  0  0
  185.6760  179.6380  143.3400 O   0  0  0  0  0  1  0  0  0  0  0  0
  184.4040  178.4460  141.6800 O   0  0  0  0  0  1  0  0  0  0  0  0
  184.0030  177.9830  146.6660 N   0  0  0  0  0  0  0  0  0  0  0  0
  184.8220  177.4600  145.9940 C   0  0  0  0  0  0  0  0  0  0  0  0
  189.0080  175.8090  144.3560 O   0  0  0  0  0  0  0  0  0  0  0  0
  190.3090  176.0870  144.9100 C   0  0  0  0  0  2  0  0  0  0  0  0
  191.4770  175.4310  144.1930 C   0  0  0  0  0  2  0  0  0  0  0  0
  191.2150  175.5120  142.7680 O   0  0  0  0  0  0  0  0  0  0  0  0
  194.4340  172.1350  140.9800 C   0  0  0  0  0  2  0  0  0  0  0  0
  196.7590  173.5120  138.4230 P   0  0  1  0  0  0  0  0  0  0  0  0
  195.1110  175.0780  140.9960 C   0  0  1  0  0  3  0  0  0  0  0  0
  194.0060  172.9810  139.7980 C   0  0  1  0  0  3  0  0  0  0  0  0
  193.3920  174.4630  142.6570 C   0  0  2  0  0  3  0  0  0  0  0  0
  197.4490  173.6700  137.0790 O   0  0  0  0  0  0  0  0  0  0  0  0
  196.5380  175.0030  139.0660 O   0  0  0  0  0  0  0  0  0  0  0  0
  193.9240  174.4870  140.2020 C   0  0  1  0  0  3  0  0  0  0  0  0
  195.1740  172.8900  142.1400 C   0  0  0  0  0  2  0  0  0  0  0  0
  194.8630  174.4200  142.3850 C   0  0  1  0  0  0  0  0  0  0  0  0
  196.5480  174.6960  140.4370 C   0  0  1  0  0  3  0  0  0  0  0  0
  194.8380  172.6290  138.1840 S   0  0  0  0  0  0  0  0  0  0  0  0
  197.7820  172.6020  139.3830 O   0  0  0  0  0  1  0  0  0  0  0  0
  192.7650  174.3360  141.2080 C   0  0  2  0  0  3  0  0  0  0  0  0
  192.4950  175.5670  142.0860 C   0  0  1  0  0  3  0  0  0  0  0  0
  197.6490  175.4560  141.1610 C   0  0  0  0  0  2  0  0  0  0  0  0
  197.2650  176.6790  141.6370 F   0  0  0  0  0  0  0  0  0  0  0  0
  195.4880  175.1540  143.3480 O   0  0  0  0  0  0  0  0  0  0  0  0
  197.3050  174.2970  144.6280 C   0  0  0  0  0  1  0  0  0  0  0  0
  195.1030  174.7200  145.7230 C   0  0  0  0  0  1  0  0  0  0  0  0
  195.7990  174.3270  144.4660 C   0  0  0  0  0  3  0  0  0  0  0  0
  187.3630  176.1760  141.9550 C   0  0  0  0  0  2  0  0  0  0  0  0
  187.9840  174.7370  142.2300 C   0  0  0  0  0  2  0  0  0  0  0  0
  188.7680  173.9420  141.0720 S   0  0  0  0  0  0  0  0  0  0  0  0
  191.7640  170.3710  142.3360 C   0  0  0  0  0  2  0  0  0  0  0  0
  190.6300  170.6370  138.4720 S   0  0  0  0  0  0  0  0  0  0  0  0
  190.6550  171.8620  144.0090 C   0  0  0  0  0  3  0  0  0  0  0  0
  189.6380  172.3260  143.2590 C   0  0  0  0  0  3  0  0  0  0  0  0
  191.3470  169.7600  139.9630 C   0  0  0  0  0  2  0  0  0  0  0  0
  190.0770  171.5790  140.8890 C   0  0  0  0  0  0  0  0  0  0  0  0
  189.7350  171.6630  139.5740 O   0  0  0  0  0  0  0  0  0  0  0  0
  191.9780  171.3090  143.4360 C   0  0  1  0  0  3  0  0  0  0  0  0
  190.9870  170.4650  141.2090 C   0  0  0  0  0  0  0  0  0  0  0  0
  189.5330  172.4660  141.7670 C   0  0  2  0  0  3  0  0  0  0  0  0
  192.8680  170.7320  144.5120 N   0  0  0  0  0  0  0  0  0  0  0  0
  192.9710  169.3730  144.7190 O   0  0  0  0  0  0  0  0  0  0  0  0
  193.6210  171.5070  145.1780 O   0  0  0  0  0  0  0  0  0  0  0  0
  1  3  1  0  0  0  0
  3  7  1  0  0  0  0
  3 12  1  1  0  0  0
  4 13  1  1  0  0  0
  4  7  1  0  0  0  0
  5 38  1  6  0  0  0
  5  1  1  0  0  0  0
  5  4  1  0  0  0  0
  6  2  1  0  0  0  0
  7  6  1  0  0  0  0
  7  2  1  0  0  0  0
  8  1  1  0  0  0  0
  9  8  1  0  0  0  0
 10  8  1  0  0  0  0
 12 11  3  0  0  0  0
 13 14  1  0  0  0  0
 15 14  1  0  0  0  0
 16 15  1  0  0  0  0
 17 25  1  0  0  0  0
 18 22  2  6  0  0  0
 18 23  1  0  0  0  0
 18 29  1  0  0  0  0
 19 26  1  0  0  0  0
 20 24  1  0  0  0  0
 20 17  1  0  0  0  0
 23 27  1  0  0  0  0
 24 19  1  0  0  0  0
 24 30  1  0  0  0  0
 25 26  1  0  0  0  0
 26 21  1  0  0  0  0
 26 34  1  0  0  0  0
 27 19  1  0  0  0  0
 27 32  1  0  0  0  0
 28 18  1  0  0  0  0
 28 20  1  0  0  0  0
 30 31  1  0  0  0  0
 30 21  1  0  0  0  0
 31 21  1  0  0  0  0
 31 16  1  0  0  0  0
 32 33  1  0  0  0  0
 34 37  1  0  0  0  0
 37 35  1  0  0  0  0
 37 36  1  0  0  0  0
 38 39  1  0  0  0  0
 40 50  1  0  0  0  0
 40 39  1  0  0  0  0
 41 48  1  0  0  0  0
 42 47  1  0  0  0  0
 42 45  1  0  0  0  0
 44 43  2  0  0  0  0
 45 49  1  0  0  0  0
 46 49  2  0  0  0  0
 46 50  1  0  0  0  0
 47 46  1  0  0  0  0
 48 43  1  0  0  0  0
 48 51  1  0  0  0  0
 49 41  1  0  0  0  0
 50 44  1  0  0  0  0
 51 52  2  0  0  0  0
 51 53  2  0  0  0  0
M  END
>  <MODEL>
4

>  <REMARK>
 VINA RESULT:      -6.5      4.005      8.309
  Name = 
  14 active torsions:
  status: ('A' for Active; 'I' for Inactive)
    1  A    between atoms: C_1  and  C_4
    2  A    between atoms: S_2  and  N_5
    3  A    between atoms: O_3  and  C_17
    4  A    between atoms: O_3  and  C_23
    5  A    between atoms: C_4  and  C_30
    6  A    between atoms: C_10  and  C_52
    7  A    between atoms: N_15  and  C_45
    8  A    between atoms: S_16  and  C_51
    9  A    between atoms: C_21  and  C_32
   10  A    between atoms: C_23  and  C_36
   11  A    between atoms: O_27  and  C_31
   12  A    between atoms: O_27  and  C_50
   13  A    between atoms: C_36  and  O_53
   14  A    between atoms: C_44  and  O_53
                            x       y       z     vdW  Elec       q    Type
                         _______ _______ _______ _____ _____    ______ ____

>  <TORSDO>
F 14

$$$$
=
 OpenBabel11062420303D

 53 60  0  0  1  0  0  0  0  0999 V2000
  186.9190  178.2100  143.6070 N   0  0  0  0  0  0  0  0  0  0  0  0
  183.4360  177.9040  142.0080 C   0  0  0  0  0  2  0  0  0  0  0  0
  185.5990  178.7650  143.3220 C   0  0  1  0  0  3  0  0  0  0  0  0
  186.2720  177.4410  141.3540 C   0  0  1  0  0  3  0  0  0  0  0  0
  187.3820  177.4210  142.4130 C   0  0  1  0  0  3  0  0  0  0  0  0
  184.1190  178.6310  140.8720 C   0  0  0  0  0  2  0  0  0  0  0  0
  185.0240  178.0260  142.0630 C   0  0  0  0  0  0  0  0  0  0  0  0
  186.8820  177.2620  145.2050 S   0  0  0  0  0  3  0  0  0  0  0  0
  188.0210  176.3130  145.1410 O   0  0  0  0  0  1  0  0  0  0  0  0
  187.5470  178.2940  146.4250 O   0  0  0  0  0  1  0  0  0  0  0  0
  183.9720  179.0400  145.3930 N   0  0  0  0  0  0  0  0  0  0  0  0
  184.7220  178.9150  144.4890 C   0  0  0  0  0  0  0  0  0  0  0  0
  186.5310  178.0350  140.1440 O   0  0  0  0  0  0  0  0  0  0  0  0
  186.4770  177.1210  139.0320 C   0  0  0  0  0  2  0  0  0  0  0  0
  187.3260  175.8690  139.1730 C   0  0  0  0  0  2  0  0  0  0  0  0
  187.4200  175.2570  137.8600 O   0  0  0  0  0  0  0  0  0  0  0  0
  191.1830  173.4350  140.5980 C   0  0  0  0  0  2  0  0  0  0  0  0
  191.0550  169.7420  141.0220 P   0  0  1  0  0  0  0  0  0  0  0  0
  189.7990  171.7330  138.5230 C   0  0  1  0  0  3  0  0  0  0  0  0
  189.9470  172.6610  141.0070 C   0  0  1  0  0  3  0  0  0  0  0  0
  189.5590  174.1560  138.1150 C   0  0  2  0  0  3  0  0  0  0  0  0
  190.9760  168.4040  141.7350 O   0  0  0  0  0  1  0  0  0  0  0  0
  190.1790  169.6430  139.6410 O   0  0  0  0  0  0  0  0  0  0  0  0
  189.0760  172.3180  139.7570 C   0  0  1  0  0  3  0  0  0  0  0  0
  191.6170  173.3040  139.0950 C   0  0  0  0  0  2  0  0  0  0  0  0
  190.5170  173.0110  137.9990 C   0  0  1  0  0  0  0  0  0  0  0  0
  190.8480  170.5850  138.8420 C   0  0  1  0  0  3  0  0  0  0  0  0
  190.1960  171.2810  142.2130 S   0  0  0  0  0  0  0  0  0  0  0  0
  192.6700  170.0070  140.6770 O   0  0  0  0  0  0  0  0  0  0  0  0
  188.7090  173.7710  139.3940 C   0  0  2  0  0  3  0  0  0  0  0  0
  188.0430  173.9560  138.0230 C   0  0  1  0  0  3  0  0  0  0  0  0
  191.3810  169.9450  137.5690 C   0  0  0  0  0  2  0  0  0  0  0  0
  190.4810  169.9140  136.5400 F   0  0  0  0  0  0  0  0  0  0  0  0
  190.8160  172.8490  136.6790 O   0  0  0  0  0  0  0  0  0  0  0  0
  193.0190  172.6970  135.7850 C   0  0  0  0  0  1  0  0  0  0  0  0
  191.6700  174.7650  135.4230 C   0  0  0  0  0  1  0  0  0  0  0  0
  191.9610  173.6280  136.3400 C   0  0  0  0  0  3  0  0  0  0  0  0
  188.7920  177.6740  141.9770 C   0  0  0  0  0  2  0  0  0  0  0  0
  189.8920  176.8020  142.7290 C   0  0  0  0  0  2  0  0  0  0  0  0
  191.3100  177.4390  143.1390 S   0  0  0  0  0  0  0  0  0  0  0  0
  192.6750  173.8410  146.0580 C   0  0  0  0  0  2  0  0  0  0  0  0
  190.3990  176.7950  147.6010 S   0  0  0  0  0  0  0  0  0  0  0  0
  193.5610  174.1090  143.7340 C   0  0  0  0  0  3  0  0  0  0  0  0
  193.2790  175.4090  143.5330 C   0  0  0  0  0  3  0  0  0  0  0  0
  191.5610  175.3310  147.7060 C   0  0  0  0  0  2  0  0  0  0  0  0
  191.8300  176.1510  145.4620 C   0  0  0  0  0  0  0  0  0  0  0  0
  191.0390  177.1180  146.0020 O   0  0  0  0  0  0  0  0  0  0  0  0
  192.8290  173.2060  144.7500 C   0  0  1  0  0  3  0  0  0  0  0  0
  192.2160  175.0860  146.4060 C   0  0  0  0  0  0  0  0  0  0  0  0
  192.2210  176.2700  144.1640 C   0  0  2  0  0  3  0  0  0  0  0  0
  193.4590  171.8360  144.8530 N   0  0  0  0  0  0  0  0  0  0  0  0
  193.2040  170.8470  143.9280 O   0  0  0  0  0  0  0  0  0  0  0  0
  194.3250  171.6160  145.7550 O   0  0  0  0  0  0  0  0  0  0  0  0
  1  8  1  0  0  0  0
  2  7  1  0  0  0  0
  3  1  1  0  0  0  0
  3 12  1  1  0  0  0
  4 13  1  6  0  0  0
  4  7  1  0  0  0  0
  4  5  1  0  0  0  0
  5 38  1  6  0  0  0
  5  1  1  0  0  0  0
  6  2  1  0  0  0  0
  6  7  1  0  0  0  0
  7  3  1  0  0  0  0
  8 10  1  0  0  0  0
  9  8  1  0  0  0  0
 12 11  3  0  0  0  0
 14 15  1  0  0  0  0
 14 13  1  0  0  0  0
 16 31  1  0  0  0  0
 16 15  1  0  0  0  0
 17 20  1  0  0  0  0
 18 29  2  6  0  0  0
 18 22  1  0  0  0  0
 18 28  1  0  0  0  0
 19 27  1  0  0  0  0
 19 24  1  0  0  0  0
 20 28  1  0  0  0  0
 21 30  1  0  0  0  0
 23 18  1  0  0  0  0
 24 20  1  0  0  0  0
 25 17  1  0  0  0  0
 26 21  1  0  0  0  0
 26 19  1  0  0  0  0
 26 25  1  0  0  0  0
 27 23  1  0  0  0  0
 30 24  1  0  0  0  0
 31 21  1  0  0  0  0
 31 30  1  0  0  0  0
 32 27  1  0  0  0  0
 33 32  1  0  0  0  0
 34 26  1  0  0  0  0
 35 37  1  0  0  0  0
 36 37  1  0  0  0  0
 37 34  1  0  0  0  0
 38 39  1  0  0  0  0
 39 40  1  0  0  0  0
 40 50  1  0  0  0  0
 41 49  1  0  0  0  0
 42 45  1  0  0  0  0
 43 48  1  0  0  0  0
 44 43  2  0  0  0  0
 44 50  1  0  0  0  0
 46 47  1  0  0  0  0
 46 49  2  0  0  0  0
 47 42  1  0  0  0  0
 48 51  1  0  0  0  0
 48 41  1  0  0  0  0
 49 45  1  0  0  0  0
 50 46  1  0  0  0  0
 51 53  2  0  0  0  0
 52 51  2  0  0  0  0
M  END
>  <MODEL>
5

>  <REMARK>
 VINA RESULT:      -6.3      3.975      7.987
  Name = 
  14 active torsions:
  status: ('A' for Active; 'I' for Inactive)
    1  A    between atoms: C_1  and  C_4
    2  A    between atoms: S_2  and  N_5
    3  A    between atoms: O_3  and  C_17
    4  A    between atoms: O_3  and  C_23
    5  A    between atoms: C_4  and  C_30
    6  A    between atoms: C_10  and  C_52
    7  A    between atoms: N_15  and  C_45
    8  A    between atoms: S_16  and  C_51
    9  A    between atoms: C_21  and  C_32
   10  A    between atoms: C_23  and  C_36
   11  A    between atoms: O_27  and  C_31
   12  A    between atoms: O_27  and  C_50
   13  A    between atoms: C_36  and  O_53
   14  A    between atoms: C_44  and  O_53
                            x       y       z     vdW  Elec       q    Type
                         _______ _______ _______ _____ _____    ______ ____

>  <TORSDO>
F 14

$$$$
=
 OpenBabel11062420303D

 53 60  0  0  1  0  0  0  0  0999 V2000
  187.0910  176.3370  142.9440 N   0  0  0  0  0  0  0  0  0  0  0  0
  188.8290  177.4410  146.1900 C   0  0  0  0  0  2  0  0  0  0  0  0
  187.0250  176.7560  144.3410 C   0  0  1  0  0  3  0  0  0  0  0  0
  189.0620  175.3910  144.0860 C   0  0  1  0  0  3  0  0  0  0  0  0
  188.3060  175.4710  142.7530 C   0  0  1  0  0  3  0  0  0  0  0  0
  188.7310  175.9650  146.5040 C   0  0  0  0  0  2  0  0  0  0  0  0
  188.4190  176.4640  145.0010 C   0  0  0  0  0  0  0  0  0  0  0  0
  187.0040  177.8200  141.8270 S   0  0  0  0  0  3  0  0  0  0  0  0
  188.4010  178.2980  141.6760 O   0  0  0  0  0  1  0  0  0  0  0  0
  186.8160  177.2310  140.2120 O   0  0  0  0  0  1  0  0  0  0  0  0
  185.9880  179.1560  144.7580 N   0  0  0  0  0  0  0  0  0  0  0  0
  186.4220  178.0740  144.5670 C   0  0  0  0  0  0  0  0  0  0  0  0
  189.1880  174.1680  144.6960 O   0  0  0  0  0  0  0  0  0  0  0  0
  190.3210  173.4080  144.2320 C   0  0  0  0  0  2  0  0  0  0  0  0
  190.3040  171.9290  144.5820 C   0  0  0  0  0  2  0  0  0  0  0  0
  191.6490  171.4210  144.3900 O   0  0  0  0  0  0  0  0  0  0  0  0
  196.4320  172.6580  143.6380 C   0  0  0  0  0  2  0  0  0  0  0  0
  197.0440  174.2850  140.3490 P   0  0  1  0  0  0  0  0  0  0  0  0
  194.2000  174.1620  142.2690 C   0  0  1  0  0  3  0  0  0  0  0  0
  195.9160  172.1350  142.3130 C   0  0  1  0  0  3  0  0  0  0  0  0
  193.4780  173.0040  144.3260 C   0  0  2  0  0  3  0  0  0  0  0  0
  197.6280  174.4930  138.9630 O   0  0  0  0  0  0  0  0  0  0  0  0
  195.4750  174.7580  140.3240 O   0  0  0  0  0  0  0  0  0  0  0  0
  194.4690  172.6570  142.0440 C   0  0  1  0  0  3  0  0  0  0  0  0
  195.7210  173.9380  144.2020 C   0  0  0  0  0  2  0  0  0  0  0  0
  194.2100  174.2100  143.8250 C   0  0  1  0  0  0  0  0  0  0  0  0
  195.2980  175.1370  141.6660 C   0  0  1  0  0  3  0  0  0  0  0  0
  197.0800  172.2240  140.8780 S   0  0  0  0  0  0  0  0  0  0  0  0
  197.9320  175.2430  141.3930 O   0  0  0  0  0  1  0  0  0  0  0  0
  193.7940  171.9180  143.2180 C   0  0  2  0  0  3  0  0  0  0  0  0
  192.3520  172.3480  143.5200 C   0  0  1  0  0  3  0  0  0  0  0  0
  194.8730  176.5930  141.7720 C   0  0  0  0  0  2  0  0  0  0  0  0
  193.5190  176.7830  141.7410 F   0  0  0  0  0  0  0  0  0  0  0  0
  193.5330  175.3150  144.2450 O   0  0  0  0  0  0  0  0  0  0  0  0
  194.5450  176.9200  145.6840 C   0  0  0  0  0  1  0  0  0  0  0  0
  192.6590  175.5160  146.5200 C   0  0  0  0  0  1  0  0  0  0  0  0
  193.8380  175.5830  145.6120 C   0  0  0  0  0  3  0  0  0  0  0  0
  188.0860  174.2080  141.9790 C   0  0  0  0  0  2  0  0  0  0  0  0
  188.9400  174.0870  140.6410 C   0  0  0  0  0  2  0  0  0  0  0  0
  188.5470  173.0170  139.5060 S   0  0  0  0  0  0  0  0  0  0  0  0
  191.2500  174.8760  135.9610 C   0  0  0  0  0  2  0  0  0  0  0  0
  187.3620  175.9380  136.1570 S   0  0  0  0  0  0  0  0  0  0  0  0
  192.0700  173.0670  137.4810 C   0  0  0  0  0  3  0  0  0  0  0  0
  190.8910  172.5980  137.9300 C   0  0  0  0  0  3  0  0  0  0  0  0
  189.0210  175.7590  135.3080 C   0  0  0  0  0  2  0  0  0  0  0  0
  189.1150  174.2070  137.1420 C   0  0  0  0  0  0  0  0  0  0  0  0
  187.8140  174.6060  137.2020 O   0  0  0  0  0  0  0  0  0  0  0  0
  192.2840  174.4890  136.9190 C   0  0  1  0  0  3  0  0  0  0  0  0
  189.8820  174.8060  136.0340 C   0  0  0  0  0  0  0  0  0  0  0  0
  189.5640  173.2910  138.0430 C   0  0  2  0  0  3  0  0  0  0  0  0
  193.6760  174.6780  136.3620 N   0  0  0  0  0  0  0  0  0  0  0  0
  193.9830  174.3740  135.0530 O   0  0  0  0  0  0  0  0  0  0  0  0
  194.5650  175.2270  137.0820 O   0  0  0  0  0  0  0  0  0  0  0  0
  1  3  1  0  0  0  0
  2  6  1  0  0  0  0
  3 12  1  6  0  0  0
  3  7  1  0  0  0  0
  4 13  1  1  0  0  0
  4  7  1  0  0  0  0
  5 38  1  1  0  0  0
  5  1  1  0  0  0  0
  5  4  1  0  0  0  0
  7  2  1  0  0  0  0
  7  6  1  0  0  0  0
  8  1  1  0  0  0  0
  9  8  1  0  0  0  0
 10  8  1  0  0  0  0
 12 11  3  0  0  0  0
 14 15  1  0  0  0  0
 14 13  1  0  0  0  0
 16 15  1  0  0  0  0
 17 25  1  0  0  0  0
 18 22  2  6  0  0  0
 18 28  1  0  0  0  0
 18 29  1  0  0  0  0
 19 26  1  0  0  0  0
 20 17  1  0  0  0  0
 23 18  1  0  0  0  0
 23 27  1  0  0  0  0
 24 19  1  0  0  0  0
 24 20  1  0  0  0  0
 24 30  1  0  0  0  0
 26 25  1  0  0  0  0
 26 34  1  0  0  0  0
 26 21  1  0  0  0  0
 27 32  1  0  0  0  0
 27 19  1  0  0  0  0
 28 20  1  0  0  0  0
 30 31  1  0  0  0  0
 30 21  1  0  0  0  0
 31 21  1  0  0  0  0
 31 16  1  0  0  0  0
 33 32  1  0  0  0  0
 34 37  1  0  0  0  0
 37 35  1  0  0  0  0
 37 36  1  0  0  0  0
 39 38  1  0  0  0  0
 40 39  1  0  0  0  0
 41 49  1  0  0  0  0
 41 48  1  0  0  0  0
 42 47  1  0  0  0  0
 43 44  2  0  0  0  0
 44 50  1  0  0  0  0
 45 49  1  0  0  0  0
 45 42  1  0  0  0  0
 46 47  1  0  0  0  0
 46 50  1  0  0  0  0
 48 43  1  0  0  0  0
 49 46  2  0  0  0  0
 50 40  1  0  0  0  0
 51 48  1  0  0  0  0
 51 53  2  0  0  0  0
 52 51  2  0  0  0  0
M  END
>  <MODEL>
6

>  <REMARK>
 VINA RESULT:      -6.3      3.548      8.342
  Name = 
  14 active torsions:
  status: ('A' for Active; 'I' for Inactive)
    1  A    between atoms: C_1  and  C_4
    2  A    between atoms: S_2  and  N_5
    3  A    between atoms: O_3  and  C_17
    4  A    between atoms: O_3  and  C_23
    5  A    between atoms: C_4  and  C_30
    6  A    between atoms: C_10  and  C_52
    7  A    between atoms: N_15  and  C_45
    8  A    between atoms: S_16  and  C_51
    9  A    between atoms: C_21  and  C_32
   10  A    between atoms: C_23  and  C_36
   11  A    between atoms: O_27  and  C_31
   12  A    between atoms: O_27  and  C_50
   13  A    between atoms: C_36  and  O_53
   14  A    between atoms: C_44  and  O_53
                            x       y       z     vdW  Elec       q    Type
                         _______ _______ _______ _____ _____    ______ ____

>  <TORSDO>
F 14

$$$$
=
 OpenBabel11062420303D

 53 60  0  0  1  0  0  0  0  0999 V2000
  193.4480  175.3700  142.2470 N   0  0  0  0  0  0  0  0  0  0  0  0
  194.9430  173.5600  145.2910 C   0  0  0  0  0  2  0  0  0  0  0  0
  193.9520  175.3930  143.6170 C   0  0  1  0  0  3  0  0  0  0  0  0
  192.7890  173.2420  143.3070 C   0  0  1  0  0  3  0  0  0  0  0  0
  192.6990  174.0840  142.0260 C   0  0  1  0  0  3  0  0  0  0  0  0
  193.4900  173.4810  145.7010 C   0  0  0  0  0  2  0  0  0  0  0  0
  193.8500  173.9380  144.1960 C   0  0  0  0  0  0  0  0  0  0  0  0
  194.8340  175.6830  141.0490 S   0  0  0  0  0  3  0  0  0  0  0  0
  195.6700  174.4570  141.0650 O   0  0  0  0  0  1  0  0  0  0  0  0
  194.1910  175.4690  139.4580 O   0  0  0  0  0  1  0  0  0  0  0  0
  196.2220  176.7270  143.9020 N   0  0  0  0  0  0  0  0  0  0  0  0
  195.2140  176.1180  143.8020 C   0  0  0  0  0  0  0  0  0  0  0  0
  191.6290  172.9490  143.9810 O   0  0  0  0  0  0  0  0  0  0  0  0
  191.2420  171.5640  143.8840 C   0  0  0  0  0  2  0  0  0  0  0  0
  190.5650  171.1650  142.5840 C   0  0  0  0  0  2  0  0  0  0  0  0
  190.8180  169.7510  142.3790 O   0  0  0  0  0  0  0  0  0  0  0  0
  193.6280  171.9630  138.8890 C   0  0  0  0  0  2  0  0  0  0  0  0
  194.2810  169.8090  135.9270 P   0  0  1  0  0  0  0  0  0  0  0  0
  191.6760  169.7770  138.1630 C   0  0  1  0  0  3  0  0  0  0  0  0
  194.0960  170.5240  138.9610 C   0  0  1  0  0  3  0  0  0  0  0  0
  191.1210  170.9160  140.2810 C   0  0  2  0  0  3  0  0  0  0  0  0
  195.0760  169.0250  134.8980 O   0  0  0  0  0  0  0  0  0  0  0  0
  192.9170  168.9690  136.2730 O   0  0  0  0  0  0  0  0  0  0  0  0
  192.8780  169.5580  139.1080 C   0  0  1  0  0  3  0  0  0  0  0  0
  192.1330  172.1840  138.4680 C   0  0  0  0  0  2  0  0  0  0  0  0
  191.0660  171.0630  138.7920 C   0  0  1  0  0  0  0  0  0  0  0  0
  192.0550  170.0170  136.6400 C   0  0  1  0  0  3  0  0  0  0  0  0
  195.3830  170.0090  137.7360 S   0  0  0  0  0  0  0  0  0  0  0  0
  193.9060  171.2800  135.2240 O   0  0  0  0  0  1  0  0  0  0  0  0
  192.4290  170.0510  140.4990 C   0  0  2  0  0  3  0  0  0  0  0  0
  191.0550  169.5450  140.9620 C   0  0  1  0  0  3  0  0  0  0  0  0
  190.8200  170.0460  135.7530 C   0  0  0  0  0  2  0  0  0  0  0  0
  190.7020  171.1780  134.9950 F   0  0  0  0  0  0  0  0  0  0  0  0
  189.7570  171.1650  138.4290 O   0  0  0  0  0  0  0  0  0  0  0  0
  188.9850  173.0410  137.1810 C   0  0  0  0  0  1  0  0  0  0  0  0
  188.1930  172.6950  139.5220 C   0  0  0  0  0  1  0  0  0  0  0  0
  189.3180  172.5150  138.5620 C   0  0  0  0  0  3  0  0  0  0  0  0
  191.3700  174.2160  141.3490 C   0  0  0  0  0  2  0  0  0  0  0  0
  190.3910  175.2880  142.0000 C   0  0  0  0  0  2  0  0  0  0  0  0
  188.9470  174.8540  142.5590 S   0  0  0  0  0  0  0  0  0  0  0  0
  185.9250  178.0680  144.5260 C   0  0  0  0  0  2  0  0  0  0  0  0
  186.1230  177.8440  140.5010 S   0  0  0  0  0  0  0  0  0  0  0  0
  187.5780  176.7640  145.8750 C   0  0  0  0  0  3  0  0  0  0  0  0
  188.4350  176.4080  144.9000 C   0  0  0  0  0  3  0  0  0  0  0  0
  185.6820  178.6650  142.1250 C   0  0  0  0  0  2  0  0  0  0  0  0
  187.3520  177.0360  142.7090 C   0  0  0  0  0  0  0  0  0  0  0  0
  187.3760  176.9610  141.3500 O   0  0  0  0  0  0  0  0  0  0  0  0
  186.0990  177.1390  145.6410 C   0  0  1  0  0  3  0  0  0  0  0  0
  186.4140  178.0400  143.2440 C   0  0  0  0  0  0  0  0  0  0  0  0
  188.1950  176.2440  143.4260 C   0  0  2  0  0  3  0  0  0  0  0  0
  185.4280  177.6310  146.9030 N   0  0  0  0  0  0  0  0  0  0  0  0
  184.2100  178.2740  146.8750 O   0  0  0  0  0  0  0  0  0  0  0  0
  185.9470  177.3590  148.0290 O   0  0  0  0  0  0  0  0  0  0  0  0
  1  3  1  0  0  0  0
  2  6  1  0  0  0  0
  3 12  1  6  0  0  0
  3  7  1  0  0  0  0
  4 13  1  1  0  0  0
  4  7  1  0  0  0  0
  5 38  1  1  0  0  0
  5  1  1  0  0  0  0
  5  4  1  0  0  0  0
  7  2  1  0  0  0  0
  7  6  1  0  0  0  0
  8  9  1  0  0  0  0
  8  1  1  0  0  0  0
 10  8  1  0  0  0  0
 12 11  3  0  0  0  0
 14 13  1  0  0  0  0
 15 14  1  0  0  0  0
 16 15  1  0  0  0  0
 17 20  1  0  0  0  0
 18 22  2  6  0  0  0
 18 23  1  0  0  0  0
 18 28  1  0  0  0  0
 19 26  1  0  0  0  0
 19 24  1  0  0  0  0
 20 24  1  0  0  0  0
 21 30  1  0  0  0  0
 21 31  1  0  0  0  0
 23 27  1  0  0  0  0
 24 30  1  0  0  0  0
 25 26  1  0  0  0  0
 25 17  1  0  0  0  0
 26 21  1  0  0  0  0
 27 19  1  0  0  0  0
 28 20  1  0  0  0  0
 29 18  1  0  0  0  0
 30 31  1  0  0  0  0
 31 16  1  0  0  0  0
 32 27  1  0  0  0  0
 33 32  1  0  0  0  0
 34 37  1  0  0  0  0
 34 26  1  0  0  0  0
 35 37  1  0  0  0  0
 37 36  1  0  0  0  0
 38 39  1  0  0  0  0
 39 40  1  0  0  0  0
 40 50  1  0  0  0  0
 41 48  1  0  0  0  0
 42 47  1  0  0  0  0
 42 45  1  0  0  0  0
 44 43  2  0  0  0  0
 45 49  1  0  0  0  0
 46 49  2  0  0  0  0
 46 50  1  0  0  0  0
 47 46  1  0  0  0  0
 48 43  1  0  0  0  0
 48 51  1  0  0  0  0
 49 41  1  0  0  0  0
 50 44  1  0  0  0  0
 51 53  2  0  0  0  0
 52 51  2  0  0  0  0
M  END
>  <MODEL>
7

>  <REMARK>
 VINA RESULT:      -6.2      4.085      9.217
  Name = 
  14 active torsions:
  status: ('A' for Active; 'I' for Inactive)
    1  A    between atoms: C_1  and  C_4
    2  A    between atoms: S_2  and  N_5
    3  A    between atoms: O_3  and  C_17
    4  A    between atoms: O_3  and  C_23
    5  A    between atoms: C_4  and  C_30
    6  A    between atoms: C_10  and  C_52
    7  A    between atoms: N_15  and  C_45
    8  A    between atoms: S_16  and  C_51
    9  A    between atoms: C_21  and  C_32
   10  A    between atoms: C_23  and  C_36
   11  A    between atoms: O_27  and  C_31
   12  A    between atoms: O_27  and  C_50
   13  A    between atoms: C_36  and  O_53
   14  A    between atoms: C_44  and  O_53
                            x       y       z     vdW  Elec       q    Type
                         _______ _______ _______ _____ _____    ______ ____

>  <TORSDO>
F 14

$$$$
=
 OpenBabel11062420303D

 53 60  0  0  1  0  0  0  0  0999 V2000
  192.0070  170.0330  138.7470 N   0  0  0  0  0  0  0  0  0  0  0  0
  191.6630  172.4320  135.7630 C   0  0  0  0  0  2  0  0  0  0  0  0
  191.4560  170.3560  137.4340 C   0  0  1  0  0  3  0  0  0  0  0  0
  191.5810  172.4630  138.7080 C   0  0  1  0  0  3  0  0  0  0  0  0
  192.0680  171.2910  139.5710 C   0  0  1  0  0  3  0  0  0  0  0  0
  190.4290  172.8710  136.5190 C   0  0  0  0  0  2  0  0  0  0  0  0
  191.4980  171.9150  137.2610 C   0  0  0  0  0  0  0  0  0  0  0  0
  193.6260  169.1410  138.5600 S   0  0  0  0  0  3  0  0  0  0  0  0
  194.6620  170.1970  138.4510 O   0  0  0  0  0  1  0  0  0  0  0  0
  194.0800  168.5750  140.1300 O   0  0  0  0  0  1  0  0  0  0  0  0
  192.3900  168.9090  135.4230 N   0  0  0  0  0  0  0  0  0  0  0  0
  191.9570  169.5300  136.3300 C   0  0  0  0  0  0  0  0  0  0  0  0
  190.4490  173.1360  139.0950 O   0  0  0  0  0  0  0  0  0  0  0  0
  189.3610  172.2670  139.4640 C   0  0  0  0  0  2  0  0  0  0  0  0
  188.3300  172.8730  140.4020 C   0  0  0  0  0  2  0  0  0  0  0  0
  188.5430  174.3080  140.4130 O   0  0  0  0  0  0  0  0  0  0  0  0
  186.8140  178.6860  142.0910 C   0  0  0  0  0  2  0  0  0  0  0  0
  184.8690  178.4000  145.2490 P   0  0  1  0  0  0  0  0  0  0  0  0
  187.3520  176.3950  143.9820 C   0  0  1  0  0  3  0  0  0  0  0  0
  185.7120  177.6750  142.3310 C   0  0  1  0  0  3  0  0  0  0  0  0
  188.6220  176.2360  141.8720 C   0  0  2  0  0  3  0  0  0  0  0  0
  183.6850  178.5040  146.1940 O   0  0  0  0  0  1  0  0  0  0  0  0
  185.6750  177.0130  145.5860 O   0  0  0  0  0  0  0  0  0  0  0  0
  186.3080  176.3260  142.8450 C   0  0  1  0  0  3  0  0  0  0  0  0
  188.1690  178.4240  142.8360 C   0  0  0  0  0  2  0  0  0  0  0  0
  188.5780  176.9390  143.1930 C   0  0  1  0  0  0  0  0  0  0  0  0
  186.9740  177.3650  145.1810 C   0  0  1  0  0  3  0  0  0  0  0  0
  184.2130  178.2810  143.2290 S   0  0  0  0  0  0  0  0  0  0  0  0
  185.8370  179.7310  145.5450 O   0  0  0  0  0  0  0  0  0  0  0  0
  187.0900  175.9790  141.5620 C   0  0  2  0  0  3  0  0  0  0  0  0
  188.0810  174.8130  141.6930 C   0  0  1  0  0  3  0  0  0  0  0  0
  187.9600  177.2410  146.3330 C   0  0  0  0  0  2  0  0  0  0  0  0
  188.1860  175.9550  146.7390 F   0  0  0  0  0  0  0  0  0  0  0  0
  189.7200  176.6310  143.8690 O   0  0  0  0  0  0  0  0  0  0  0  0
  191.6960  177.9130  143.5170 C   0  0  0  0  0  1  0  0  0  0  0  0
  191.6340  175.5140  142.8350 C   0  0  0  0  0  1  0  0  0  0  0  0
  190.8480  176.7670  143.0070 C   0  0  0  0  0  3  0  0  0  0  0  0
  191.5540  171.1720  140.9720 C   0  0  0  0  0  2  0  0  0  0  0  0
  192.3830  171.9870  142.0600 C   0  0  0  0  0  2  0  0  0  0  0  0
  193.9870  172.0700  141.9820 S   0  0  0  0  0  0  0  0  0  0  0  0
  195.0080  175.9880  144.6150 C   0  0  0  0  0  2  0  0  0  0  0  0
  196.5580  175.7260  140.8980 S   0  0  0  0  0  0  0  0  0  0  0  0
  193.8250  173.9960  145.5570 C   0  0  0  0  0  3  0  0  0  0  0  0
  194.1850  173.0700  144.6490 C   0  0  0  0  0  3  0  0  0  0  0  0
  196.4490  176.4150  142.6360 C   0  0  0  0  0  2  0  0  0  0  0  0
  195.3130  174.2990  142.7560 C   0  0  0  0  0  0  0  0  0  0  0  0
  195.8250  174.2510  141.4950 O   0  0  0  0  0  0  0  0  0  0  0  0
  193.7980  175.5160  145.2860 C   0  0  1  0  0  3  0  0  0  0  0  0
  195.6670  175.5170  143.5080 C   0  0  0  0  0  0  0  0  0  0  0  0
  194.5890  173.2400  143.2130 C   0  0  2  0  0  3  0  0  0  0  0  0
  193.4900  176.3120  146.5330 N   0  0  0  0  0  0  0  0  0  0  0  0
  194.2280  177.4210  146.8880 O   0  0  0  0  0  0  0  0  0  0  0  0
  192.4650  176.0190  147.2200 O   0  0  0  0  0  0  0  0  0  0  0  0
  1  5  1  0  0  0  0
  2  6  1  0  0  0  0
  2  7  1  0  0  0  0
  3 12  1  6  0  0  0
  3  1  1  0  0  0  0
  4 13  1  1  0  0  0
  4  5  1  0  0  0  0
  5 38  1  1  0  0  0
  6  7  1  0  0  0  0
  7  3  1  0  0  0  0
  7  4  1  0  0  0  0
  8  1  1  0  0  0  0
  8 10  1  0  0  0  0
  9  8  1  0  0  0  0
 11 12  3  0  0  0  0
 13 14  1  0  0  0  0
 14 15  1  0  0  0  0
 15 16  1  0  0  0  0
 16 31  1  0  0  0  0
 17 20  1  0  0  0  0
 17 25  1  0  0  0  0
 18 29  2  1  0  0  0
 18 23  1  0  0  0  0
 18 22  1  0  0  0  0
 19 27  1  0  0  0  0
 20 24  1  0  0  0  0
 20 28  1  0  0  0  0
 21 26  1  0  0  0  0
 24 19  1  0  0  0  0
 25 26  1  0  0  0  0
 26 34  1  0  0  0  0
 26 19  1  0  0  0  0
 27 23  1  0  0  0  0
 27 32  1  0  0  0  0
 28 18  1  0  0  0  0
 30 31  1  0  0  0  0
 30 21  1  0  0  0  0
 30 24  1  0  0  0  0
 31 21  1  0  0  0  0
 32 33  1  0  0  0  0
 36 37  1  0  0  0  0
 37 35  1  0  0  0  0
 37 34  1  0  0  0  0
 38 39  1  0  0  0  0
 40 39  1  0  0  0  0
 40 50  1  0  0  0  0
 41 48  1  0  0  0  0
 42 47  1  0  0  0  0
 42 45  1  0  0  0  0
 44 43  2  0  0  0  0
 45 49  1  0  0  0  0
 46 50  1  0  0  0  0
 46 49  2  0  0  0  0
 47 46  1  0  0  0  0
 48 43  1  0  0  0  0
 48 51  1  0  0  0  0
 49 41  1  0  0  0  0
 50 44  1  0  0  0  0
 51 52  2  0  0  0  0
 51 53  2  0  0  0  0
M  END
>  <MODEL>
8

>  <REMARK>
 VINA RESULT:      -6.2      3.016      3.855
  Name = 
  14 active torsions:
  status: ('A' for Active; 'I' for Inactive)
    1  A    between atoms: C_1  and  C_4
    2  A    between atoms: S_2  and  N_5
    3  A    between atoms: O_3  and  C_17
    4  A    between atoms: O_3  and  C_23
    5  A    between atoms: C_4  and  C_30
    6  A    between atoms: C_10  and  C_52
    7  A    between atoms: N_15  and  C_45
    8  A    between atoms: S_16  and  C_51
    9  A    between atoms: C_21  and  C_32
   10  A    between atoms: C_23  and  C_36
   11  A    between atoms: O_27  and  C_31
   12  A    between atoms: O_27  and  C_50
   13  A    between atoms: C_36  and  O_53
   14  A    between atoms: C_44  and  O_53
                            x       y       z     vdW  Elec       q    Type
                         _______ _______ _______ _____ _____    ______ ____

>  <TORSDO>
F 14

$$$$
=
 OpenBabel11062420303D

 53 60  0  0  1  0  0  0  0  0999 V2000
  188.3020  177.2420  145.0610 N   0  0  0  0  0  0  0  0  0  0  0  0
  187.7150  175.3200  141.7850 C   0  0  0  0  0  2  0  0  0  0  0  0
  188.3530  177.1710  143.6030 C   0  0  1  0  0  3  0  0  0  0  0  0
  188.8800  174.9200  144.4610 C   0  0  1  0  0  3  0  0  0  0  0  0
  188.6530  175.8930  145.6260 C   0  0  1  0  0  3  0  0  0  0  0  0
  189.1720  174.9620  141.9710 C   0  0  0  0  0  2  0  0  0  0  0  0
  188.3780  175.6560  143.1930 C   0  0  0  0  0  0  0  0  0  0  0  0
  186.6610  177.9180  145.6110 S   0  0  0  0  0  3  0  0  0  0  0  0
  185.7390  176.7570  145.6610 O   0  0  0  0  0  1  0  0  0  0  0  0
  186.7610  178.1700  147.3200 O   0  0  0  0  0  1  0  0  0  0  0  0
  186.6460  178.7250  142.3070 N   0  0  0  0  0  0  0  0  0  0  0  0
  187.4140  178.0560  142.9050 C   0  0  0  0  0  0  0  0  0  0  0  0
  190.1260  174.3660  144.3040 O   0  0  0  0  0  0  0  0  0  0  0  0
  190.1540  172.9420  144.5250 C   0  0  0  0  0  2  0  0  0  0  0  0
  191.3320  172.2080  143.9070 C   0  0  0  0  0  2  0  0  0  0  0  0
  190.7980  171.1050  143.1290 O   0  0  0  0  0  0  0  0  0  0  0  0
  193.3200  174.3790  140.3200 C   0  0  0  0  0  2  0  0  0  0  0  0
  195.7650  172.7810  138.0160 P   0  0  1  0  0  0  0  0  0  0  0  0
  192.8680  171.5440  139.3830 C   0  0  1  0  0  3  0  0  0  0  0  0
  194.3180  173.3150  140.7310 C   0  0  1  0  0  3  0  0  0  0  0  0
  191.2210  172.2910  141.0630 C   0  0  2  0  0  3  0  0  0  0  0  0
  197.1070  172.4550  137.3850 O   0  0  0  0  0  1  0  0  0  0  0  0
  194.8730  171.4070  138.0700 O   0  0  0  0  0  0  0  0  0  0  0  0
  193.6680  171.8970  140.6570 C   0  0  1  0  0  3  0  0  0  0  0  0
  192.1040  173.8910  139.4580 C   0  0  0  0  0  2  0  0  0  0  0  0
  191.5920  172.4040  139.6180 C   0  0  1  0  0  0  0  0  0  0  0  0
  193.5740  171.9400  138.0170 C   0  0  1  0  0  3  0  0  0  0  0  0
  196.0190  173.4550  140.0180 S   0  0  0  0  0  0  0  0  0  0  0  0
  195.0350  173.9190  137.0310 O   0  0  0  0  0  0  0  0  0  0  0  0
  192.6270  172.1220  141.7730 C   0  0  2  0  0  3  0  0  0  0  0  0
  191.5440  171.0390  141.8860 C   0  0  1  0  0  3  0  0  0  0  0  0
  192.8100  171.4020  136.8170 C   0  0  0  0  0  2  0  0  0  0  0  0
  192.1890  170.2050  137.0400 F   0  0  0  0  0  0  0  0  0  0  0  0
  190.5650  171.8950  138.8810 O   0  0  0  0  0  0  0  0  0  0  0  0
  189.5710  173.1220  137.0980 C   0  0  0  0  0  1  0  0  0  0  0  0
  188.2630  172.6660  139.1740 C   0  0  0  0  0  1  0  0  0  0  0  0
  189.6140  172.9190  138.5980 C   0  0  0  0  0  3  0  0  0  0  0  0
  189.6360  175.8990  146.7550 C   0  0  0  0  0  2  0  0  0  0  0  0
  191.1650  175.8990  146.3110 C   0  0  0  0  0  2  0  0  0  0  0  0
  192.2300  174.9230  147.0190 S   0  0  0  0  0  0  0  0  0  0  0  0
  195.8130  174.6340  143.7930 C   0  0  0  0  0  2  0  0  0  0  0  0
  194.3390  171.2040  145.3240 S   0  0  0  0  0  0  0  0  0  0  0  0
  195.0460  176.8040  144.7730 C   0  0  0  0  0  3  0  0  0  0  0  0
  194.4250  176.3460  145.8760 C   0  0  0  0  0  3  0  0  0  0  0  0
  195.6160  172.2400  144.4300 C   0  0  0  0  0  2  0  0  0  0  0  0
  194.3020  173.8350  145.6580 C   0  0  0  0  0  0  0  0  0  0  0  0
  193.8040  172.6610  146.1360 O   0  0  0  0  0  0  0  0  0  0  0  0
  195.2870  175.9660  143.4990 C   0  0  1  0  0  3  0  0  0  0  0  0
  195.3960  173.6770  144.6840 C   0  0  0  0  0  0  0  0  0  0  0  0
  193.8000  175.0060  146.1380 C   0  0  2  0  0  3  0  0  0  0  0  0
  196.1320  176.7010  142.4840 N   0  0  0  0  0  0  0  0  0  0  0  0
  195.6680  176.9810  141.2170 O   0  0  0  0  0  0  0  0  0  0  0  0
  197.2600  177.1650  142.8350 O   0  0  0  0  0  0  0  0  0  0  0  0
  1  8  1  0  0  0  0
  1  5  1  0  0  0  0
  2  6  1  0  0  0  0
  2  7  1  0  0  0  0
  3 12  1  6  0  0  0
  3  1  1  0  0  0  0
  4 13  1  6  0  0  0
  4  5  1  0  0  0  0
  5 38  1  6  0  0  0
  6  7  1  0  0  0  0
  7  3  1  0  0  0  0
  7  4  1  0  0  0  0
  8  9  1  0  0  0  0
  8 10  1  0  0  0  0
 11 12  3  0  0  0  0
 13 14  1  0  0  0  0
 15 14  1  0  0  0  0
 16 15  1  0  0  0  0
 17 20  1  0  0  0  0
 18 29  2  6  0  0  0
 18 23  1  0  0  0  0
 18 28  1  0  0  0  0
 19 26  1  0  0  0  0
 19 24  1  0  0  0  0
 21 30  1  0  0  0  0
 21 31  1  0  0  0  0
 22 18  1  0  0  0  0
 24 20  1  0  0  0  0
 24 30  1  0  0  0  0
 25 26  1  0  0  0  0
 25 17  1  0  0  0  0
 26 21  1  0  0  0  0
 27 23  1  0  0  0  0
 27 19  1  0  0  0  0
 28 20  1  0  0  0  0
 30 31  1  0  0  0  0
 31 16  1  0  0  0  0
 32 33  1  0  0  0  0
 32 27  1  0  0  0  0
 34 26  1  0  0  0  0
 35 37  1  0  0  0  0
 37 34  1  0  0  0  0
 37 36  1  0  0  0  0
 39 38  1  0  0  0  0
 39 40  1  0  0  0  0
 41 49  1  0  0  0  0
 42 47  1  0  0  0  0
 43 44  2  0  0  0  0
 44 50  1  0  0  0  0
 45 49  1  0  0  0  0
 45 42  1  0  0  0  0
 46 47  1  0  0  0  0
 46 50  1  0  0  0  0
 48 41  1  0  0  0  0
 48 43  1  0  0  0  0
 49 46  2  0  0  0  0
 50 40  1  0  0  0  0
 51 53  2  0  0  0  0
 51 48  1  0  0  0  0
 52 51  2  0  0  0  0
M  END
>  <MODEL>
9

>  <REMARK>
 VINA RESULT:      -6.2      3.797      8.057
  Name = 
  14 active torsions:
  status: ('A' for Active; 'I' for Inactive)
    1  A    between atoms: C_1  and  C_4
    2  A    between atoms: S_2  and  N_5
    3  A    between atoms: O_3  and  C_17
    4  A    between atoms: O_3  and  C_23
    5  A    between atoms: C_4  and  C_30
    6  A    between atoms: C_10  and  C_52
    7  A    between atoms: N_15  and  C_45
    8  A    between atoms: S_16  and  C_51
    9  A    between atoms: C_21  and  C_32
   10  A    between atoms: C_23  and  C_36
   11  A    between atoms: O_27  and  C_31
   12  A    between atoms: O_27  and  C_50
   13  A    between atoms: C_36  and  O_53
   14  A    between atoms: C_44  and  O_53
                            x       y       z     vdW  Elec       q    Type
                         _______ _______ _______ _____ _____    ______ ____

>  <TORSDO>
F 14

$$$$
