=
 OpenBabel11062418473D

 43 45  0  0  1  0  0  0  0  0999 V2000
  188.7100  177.2580  144.9880 C   0  0  2  0  0  3  0  0  0  0  0  0
  188.8440  176.9640  143.5280 C   0  0  1  0  0  3  0  0  0  0  0  0
  191.1270  176.9900  143.7260 C   0  0  0  0  0  2  0  0  0  0  0  0
  189.9180  176.4430  144.5000 C   0  0  2  0  0  0  0  0  0  0  0  0
  190.9780  177.3480  145.1440 C   0  0  1  0  0  3  0  0  0  0  0  0
  187.9830  175.8080  143.0090 C   0  0  2  0  0  3  0  0  0  0  0  0
  188.8090  174.7370  142.6570 O   0  0  0  0  0  1  0  0  0  0  0  0
  187.1650  176.2410  141.7940 C   0  0  2  0  0  3  0  0  0  0  0  0
  187.8260  175.8800  140.6160 O   0  0  0  0  0  1  0  0  0  0  0  0
  186.9730  177.7540  141.8110 C   0  0  0  0  0  2  0  0  0  0  0  0
  184.5110  178.1600  141.3610 C   0  0  0  0  0  0  0  0  0  0  0  0
  185.6200  178.1390  142.2170 N   0  0  0  0  0  0  0  0  0  0  0  0
  185.1450  178.4080  143.5650 C   0  0  2  0  0  3  0  0  0  0  0  0
  183.6810  178.5740  143.5010 N   0  0  0  0  0  0  0  0  0  0  0  0
  183.2700  178.4240  142.0990 C   0  0  0  0  0  3  0  0  0  0  0  0
  184.5770  177.9460  140.1210 O   0  0  0  0  0  0  0  0  0  0  0  0
  185.7490  179.6300  144.0670 N   0  0  0  0  0  1  0  0  0  0  0  0
  191.8830  176.4810  146.0120 C   0  0  0  0  0  2  0  0  0  0  0  0
  193.2890  176.3210  145.4250 C   0  0  1  0  0  3  0  0  0  0  0  0
  194.3150  176.9220  146.3780 C   0  0  0  0  0  2  0  0  0  0  0  0
  194.9350  178.0260  145.7950 O   0  0  0  0  0  1  0  0  0  0  0  0
  193.6380  174.8630  145.0600 C   0  0  1  0  0  3  0  0  0  0  0  0
  194.9330  174.4640  145.6070 N   0  0  0  0  0  2  0  0  0  0  0  0
  195.3900  173.4340  144.8520 O   0  0  0  0  0  0  0  0  0  0  0  0
  196.1120  174.0360  143.8180 C   0  0  2  0  0  3  0  0  0  0  0  0
  195.8610  173.2850  142.5230 C   0  0  0  0  0  1  0  0  0  0  0  0
  197.5940  174.0030  144.1370 C   0  0  0  0  0  2  0  0  0  0  0  0
  197.9280  172.7780  144.7150 O   0  0  0  0  0  1  0  0  0  0  0  0
  192.5480  173.8720  145.4880 C   0  0  0  0  0  2  0  0  0  0  0  0
  192.3350  173.4570  143.0070 N   0  0  0  0  0  2  0  0  0  0  0  0
  190.9760  172.3340  144.5440 O   0  0  0  0  0  0  0  0  0  0  0  0
  191.8920  173.1770  144.3380 C   0  0  0  0  0  0  0  0  0  0  0  0
  191.7600  172.8190  141.8260 C   0  0  2  0  0  3  0  0  0  0  0  0
  192.6570  171.6900  141.3340 C   0  0  0  0  0  1  0  0  0  0  0  0
  191.5040  173.8490  140.7250 C   0  0  0  0  0  2  0  0  0  0  0  0
  189.3620  172.8280  139.9360 O   0  0  0  0  0  1  0  0  0  0  0  0
  190.6220  173.3260  139.6340 C   0  0  0  0  0  0  0  0  0  0  0  0
  191.0070  173.3710  138.4360 O   0  0  0  0  0  0  0  0  0  0  0  0
  187.7550  176.3440  145.7830 C   0  0  2  0  0  3  0  0  0  0  0  0
  187.1690  178.0090  147.2530 C   0  0  0  0  0  1  0  0  0  0  0  0
  186.6720  177.0250  146.3840 O   0  0  0  0  0  0  0  0  0  0  0  0
  189.0450  174.7390  147.4980 C   0  0  0  0  0  3  0  0  0  0  0  0
  188.4660  175.4620  146.7270 C   0  0  0  0  0  0  0  0  0  0  0  0
  1 39  1  1  0  0  0
  2  6  1  1  0  0  0
  2  4  1  0  0  0  0
  2  1  1  0  0  0  0
  3  5  1  0  0  0  0
  4  3  1  1  0  0  0
  4  1  1  0  0  0  0
  4  5  1  0  0  0  0
  5 18  1  1  0  0  0
  6  7  1  6  0  0  0
  8  9  1  6  0  0  0
  8 10  1  0  0  0  0
  8  6  1  0  0  0  0
 10 12  1  0  0  0  0
 11 15  1  0  0  0  0
 11 12  1  0  0  0  0
 12 13  1  0  0  0  0
 13 17  1  6  0  0  0
 14 13  1  0  0  0  0
 15 14  2  0  0  0  0
 16 11  2  0  0  0  0
 19 18  1  1  0  0  0
 19 20  1  0  0  0  0
 21 20  1  0  0  0  0
 22 19  1  0  0  0  0
 22 29  1  1  0  0  0
 22 23  1  0  0  0  0
 24 23  1  0  0  0  0
 25 26  1  6  0  0  0
 25 27  1  0  0  0  0
 25 24  1  0  0  0  0
 27 28  1  0  0  0  0
 30 32  1  0  0  0  0
 32 31  2  0  0  0  0
 32 29  1  0  0  0  0
 33 34  1  6  0  0  0
 33 30  1  0  0  0  0
 35 33  1  0  0  0  0
 37 36  1  0  0  0  0
 37 35  1  0  0  0  0
 38 37  2  0  0  0  0
 39 41  1  0  0  0  0
 39 43  1  1  0  0  0
 41 40  1  0  0  0  0
 43 42  3  0  0  0  0
M  END
>  <MODEL>
1

>  <REMARK>
 VINA RESULT:      -5.8      0.000      0.000
  Name = 
  20 active torsions:
  status: ('A' for Active; 'I' for Inactive)
    1  A    between atoms: C_2  and  C_14
    2  A    between atoms: C_2  and  C_26
    3  A    between atoms: C_2  and  N_42
    4  A    between atoms: O_3  and  C_27
    5  A    between atoms: O_3  and  N_42
    6  A    between atoms: C_4  and  N_10
    7  A    between atoms: C_4  and  C_33
    8  A    between atoms: C_5  and  C_19
    9  A    between atoms: C_8  and  C_16
   10  A    between atoms: C_11  and  N_17
   11  A    between atoms: C_11  and  C_20
   12  A    between atoms: C_14  and  C_34
   13  A    between atoms: O_15  and  C_19
   14  A    between atoms: C_16  and  C_33
   15  A    between atoms: C_18  and  C_26
   16  A    between atoms: C_19  and  C_36
   17  A    between atoms: C_20  and  C_32
   18  A    between atoms: C_23  and  C_27
   19  A    between atoms: C_26  and  C_38
   20  A    between atoms: C_38  and  C_41
                            x       y       z     vdW  Elec       q    Type
                         _______ _______ _______ _____ _____    ______ ____

>  <TORSDO>
F 20

$$$$
=
 OpenBabel11062418473D

 43 45  0  0  1  0  0  0  0  0999 V2000
  190.7580  175.3310  144.4120 C   0  0  2  0  0  3  0  0  0  0  0  0
  189.4900  174.9920  145.1270 C   0  0  1  0  0  3  0  0  0  0  0  0
  189.9390  172.7580  144.8780 C   0  0  0  0  0  2  0  0  0  0  0  0
  190.6950  174.0430  145.2490 C   0  0  2  0  0  0  0  0  0  0  0  0
  191.1470  173.1090  144.1170 C   0  0  1  0  0  3  0  0  0  0  0  0
  189.2580  175.7390  146.4450 C   0  0  2  0  0  3  0  0  0  0  0  0
  188.5930  174.8980  147.3420 O   0  0  0  0  0  1  0  0  0  0  0  0
  188.4260  177.0000  146.2180 C   0  0  2  0  0  3  0  0  0  0  0  0
  188.5490  177.8600  147.3130 O   0  0  0  0  0  1  0  0  0  0  0  0
  186.9570  176.6270  146.0420 C   0  0  0  0  0  2  0  0  0  0  0  0
  184.9160  178.0930  145.7050 C   0  0  0  0  0  0  0  0  0  0  0  0
  186.2000  177.6650  145.3410 N   0  0  0  0  0  0  0  0  0  0  0  0
  186.6700  178.5350  144.2760 C   0  0  2  0  0  3  0  0  0  0  0  0
  185.6200  179.5370  144.0140 N   0  0  0  0  0  0  0  0  0  0  0  0
  184.4960  179.2570  144.9180 C   0  0  0  0  0  3  0  0  0  0  0  0
  184.2310  177.5580  146.6170 O   0  0  0  0  0  0  0  0  0  0  0  0
  186.9070  177.7570  143.0710 N   0  0  0  0  0  1  0  0  0  0  0  0
  192.3420  172.3030  144.6100 C   0  0  0  0  0  2  0  0  0  0  0  0
  193.5820  172.4800  143.7270 C   0  0  1  0  0  3  0  0  0  0  0  0
  194.2660  171.1330  143.5260 C   0  0  0  0  0  2  0  0  0  0  0  0
  193.9270  170.2550  144.5540 O   0  0  0  0  0  1  0  0  0  0  0  0
  193.2810  173.1720  142.3810 C   0  0  1  0  0  3  0  0  0  0  0  0
  194.2860  174.1830  142.0580 N   0  0  0  0  0  2  0  0  0  0  0  0
  194.8730  174.5540  143.2240 O   0  0  0  0  0  0  0  0  0  0  0  0
  195.9910  175.3020  142.8430 C   0  0  2  0  0  3  0  0  0  0  0  0
  196.0850  176.5450  143.7100 C   0  0  0  0  0  1  0  0  0  0  0  0
  195.8640  175.7150  141.3890 C   0  0  0  0  0  2  0  0  0  0  0  0
  196.1470  177.0730  141.2550 O   0  0  0  0  0  1  0  0  0  0  0  0
  193.1370  172.1730  141.2260 C   0  0  0  0  0  2  0  0  0  0  0  0
  191.0950  173.2940  140.2510 N   0  0  0  0  0  2  0  0  0  0  0  0
  191.1680  170.9780  140.5730 O   0  0  0  0  0  0  0  0  0  0  0  0
  191.7460  172.0940  140.6790 C   0  0  0  0  0  0  0  0  0  0  0  0
  189.7450  173.3110  139.6950 C   0  0  2  0  0  3  0  0  0  0  0  0
  189.7830  173.5610  138.1930 C   0  0  0  0  0  1  0  0  0  0  0  0
  188.8780  174.3490  140.4120 C   0  0  0  0  0  2  0  0  0  0  0  0
  188.3060  172.4460  141.9300 O   0  0  0  0  0  0  0  0  0  0  0  0
  188.1550  173.7850  141.5940 C   0  0  0  0  0  0  0  0  0  0  0  0
  187.4360  174.5320  142.3090 O   0  0  0  0  0  1  0  0  0  0  0  0
  191.6790  176.3550  145.1070 C   0  0  2  0  0  3  0  0  0  0  0  0
  191.4850  177.2800  143.0130 C   0  0  0  0  0  1  0  0  0  0  0  0
  192.0790  177.4270  144.2760 O   0  0  0  0  0  0  0  0  0  0  0  0
  193.7400  175.2010  146.3710 C   0  0  0  0  0  3  0  0  0  0  0  0
  192.8140  175.7210  145.8010 C   0  0  0  0  0  0  0  0  0  0  0  0
  1 39  1  1  0  0  0
  1  2  1  0  0  0  0
  1  4  1  0  0  0  0
  2  4  1  0  0  0  0
  2  6  1  1  0  0  0
  4  3  1  1  0  0  0
  5 18  1  1  0  0  0
  5  3  1  0  0  0  0
  5  4  1  0  0  0  0
  6  7  1  1  0  0  0
  8  6  1  0  0  0  0
  8  9  1  1  0  0  0
 10  8  1  0  0  0  0
 11 16  2  0  0  0  0
 12 11  1  0  0  0  0
 12 10  1  0  0  0  0
 13 17  1  6  0  0  0
 13 12  1  0  0  0  0
 14 13  1  0  0  0  0
 14 15  2  0  0  0  0
 15 11  1  0  0  0  0
 19 20  1  6  0  0  0
 19 18  1  0  0  0  0
 20 21  1  0  0  0  0
 22 29  1  6  0  0  0
 22 19  1  0  0  0  0
 23 22  1  0  0  0  0
 23 24  1  0  0  0  0
 25 24  1  0  0  0  0
 25 26  1  1  0  0  0
 27 25  1  0  0  0  0
 28 27  1  0  0  0  0
 30 32  1  0  0  0  0
 31 32  2  0  0  0  0
 32 29  1  0  0  0  0
 33 34  1  6  0  0  0
 33 30  1  0  0  0  0
 33 35  1  0  0  0  0
 35 37  1  0  0  0  0
 37 36  2  0  0  0  0
 37 38  1  0  0  0  0
 39 43  1  6  0  0  0
 40 41  1  0  0  0  0
 41 39  1  0  0  0  0
 43 42  3  0  0  0  0
M  END
>  <MODEL>
2

>  <REMARK>
 VINA RESULT:      -5.5      2.243      4.284
  Name = 
  20 active torsions:
  status: ('A' for Active; 'I' for Inactive)
    1  A    between atoms: C_2  and  C_14
    2  A    between atoms: C_2  and  C_26
    3  A    between atoms: C_2  and  N_42
    4  A    between atoms: O_3  and  C_27
    5  A    between atoms: O_3  and  N_42
    6  A    between atoms: C_4  and  N_10
    7  A    between atoms: C_4  and  C_33
    8  A    between atoms: C_5  and  C_19
    9  A    between atoms: C_8  and  C_16
   10  A    between atoms: C_11  and  N_17
   11  A    between atoms: C_11  and  C_20
   12  A    between atoms: C_14  and  C_34
   13  A    between atoms: O_15  and  C_19
   14  A    between atoms: C_16  and  C_33
   15  A    between atoms: C_18  and  C_26
   16  A    between atoms: C_19  and  C_36
   17  A    between atoms: C_20  and  C_32
   18  A    between atoms: C_23  and  C_27
   19  A    between atoms: C_26  and  C_38
   20  A    between atoms: C_38  and  C_41
                            x       y       z     vdW  Elec       q    Type
                         _______ _______ _______ _____ _____    ______ ____

>  <TORSDO>
F 20

$$$$
=
 OpenBabel11062418473D

 43 45  0  0  1  0  0  0  0  0999 V2000
  189.4050  173.1720  141.4730 C   0  0  2  0  0  3  0  0  0  0  0  0
  189.0740  174.0270  142.6540 C   0  0  1  0  0  3  0  0  0  0  0  0
  190.1980  172.5770  144.0290 C   0  0  0  0  0  2  0  0  0  0  0  0
  190.3910  173.2310  142.6520 C   0  0  2  0  0  0  0  0  0  0  0  0
  190.4550  171.7120  142.8680 C   0  0  1  0  0  3  0  0  0  0  0  0
  189.3500  175.5240  142.4800 C   0  0  2  0  0  3  0  0  0  0  0  0
  189.7500  176.0670  143.7050 O   0  0  0  0  0  1  0  0  0  0  0  0
  188.1040  176.2540  141.9820 C   0  0  2  0  0  3  0  0  0  0  0  0
  188.1860  177.6150  142.2960 O   0  0  0  0  0  1  0  0  0  0  0  0
  186.8610  175.6670  142.6440 C   0  0  0  0  0  2  0  0  0  0  0  0
  185.1750  177.5610  142.6560 C   0  0  0  0  0  0  0  0  0  0  0  0
  186.0530  176.6880  143.3130 N   0  0  0  0  0  0  0  0  0  0  0  0
  185.8820  176.8830  144.7430 C   0  0  2  0  0  3  0  0  0  0  0  0
  184.8390  177.9070  144.9380 N   0  0  0  0  0  0  0  0  0  0  0  0
  184.3880  178.3490  143.6110 C   0  0  0  0  0  3  0  0  0  0  0  0
  185.0620  177.6310  141.4030 O   0  0  0  0  0  0  0  0  0  0  0  0
  187.1280  177.3460  145.3310 N   0  0  0  0  0  1  0  0  0  0  0  0
  191.9170  171.2860  142.8340 C   0  0  0  0  0  2  0  0  0  0  0  0
  192.4720  170.9580  144.2240 C   0  0  1  0  0  3  0  0  0  0  0  0
  192.8900  169.4940  144.2790 C   0  0  0  0  0  2  0  0  0  0  0  0
  192.8270  168.9210  143.0100 O   0  0  0  0  0  1  0  0  0  0  0  0
  193.6170  171.8940  144.6630 C   0  0  1  0  0  3  0  0  0  0  0  0
  194.8670  171.1610  144.8620 N   0  0  0  0  0  2  0  0  0  0  0  0
  195.8570  171.8940  144.2940 O   0  0  0  0  0  0  0  0  0  0  0  0
  196.9070  171.8570  145.2160 C   0  0  2  0  0  3  0  0  0  0  0  0
  196.7890  170.6050  146.0650 C   0  0  0  0  0  1  0  0  0  0  0  0
  196.8480  173.0780  146.1130 C   0  0  0  0  0  2  0  0  0  0  0  0
  196.8370  174.2370  145.3380 O   0  0  0  0  0  1  0  0  0  0  0  0
  193.8300  173.0600  143.6890 C   0  0  0  0  0  2  0  0  0  0  0  0
  193.1590  174.5120  145.6420 N   0  0  0  0  0  2  0  0  0  0  0  0
  193.2390  175.3690  143.4670 O   0  0  0  0  0  0  0  0  0  0  0  0
  193.3860  174.3790  144.2370 C   0  0  0  0  0  0  0  0  0  0  0  0
  192.7340  175.7630  146.2660 C   0  0  2  0  0  3  0  0  0  0  0  0
  193.9410  176.6010  146.6670 C   0  0  0  0  0  1  0  0  0  0  0  0
  191.8220  175.4890  147.4630 C   0  0  0  0  0  2  0  0  0  0  0  0
  190.1480  177.2640  146.9190 O   0  0  0  0  0  0  0  0  0  0  0  0
  190.4130  175.9390  147.2340 C   0  0  0  0  0  0  0  0  0  0  0  0
  189.4680  175.1080  147.2930 O   0  0  0  0  0  1  0  0  0  0  0  0
  190.0110  173.8980  140.2550 C   0  0  2  0  0  3  0  0  0  0  0  0
  188.3060  172.7370  139.2440 C   0  0  0  0  0  1  0  0  0  0  0  0
  189.2640  173.7470  139.0640 O   0  0  0  0  0  0  0  0  0  0  0  0
  192.6140  173.3550  139.9200 C   0  0  0  0  0  3  0  0  0  0  0  0
  191.4430  173.5990  140.0680 C   0  0  0  0  0  0  0  0  0  0  0  0
  1 39  1  6  0  0  0
  1  4  1  0  0  0  0
  1  2  1  0  0  0  0
  2  6  1  6  0  0  0
  4  2  1  0  0  0  0
  4  5  1  0  0  0  0
  4  3  1  6  0  0  0
  5 18  1  1  0  0  0
  5  3  1  0  0  0  0
  6  7  1  1  0  0  0
  8  9  1  1  0  0  0
  8  6  1  0  0  0  0
  8 10  1  0  0  0  0
 10 12  1  0  0  0  0
 11 12  1  0  0  0  0
 11 15  1  0  0  0  0
 12 13  1  0  0  0  0
 13 14  1  0  0  0  0
 13 17  1  6  0  0  0
 15 14  2  0  0  0  0
 16 11  2  0  0  0  0
 19 18  1  6  0  0  0
 19 20  1  0  0  0  0
 19 22  1  0  0  0  0
 21 20  1  0  0  0  0
 22 29  1  6  0  0  0
 22 23  1  0  0  0  0
 24 23  1  0  0  0  0
 24 25  1  0  0  0  0
 25 26  1  1  0  0  0
 25 27  1  0  0  0  0
 28 27  1  0  0  0  0
 29 32  1  0  0  0  0
 30 33  1  0  0  0  0
 31 32  2  0  0  0  0
 32 30  1  0  0  0  0
 33 34  1  1  0  0  0
 33 35  1  0  0  0  0
 36 37  2  0  0  0  0
 37 38  1  0  0  0  0
 37 35  1  0  0  0  0
 39 43  1  6  0  0  0
 41 40  1  0  0  0  0
 41 39  1  0  0  0  0
 42 43  3  0  0  0  0
M  END
>  <MODEL>
3

>  <REMARK>
 VINA RESULT:      -5.3      2.206      5.192
  Name = 
  20 active torsions:
  status: ('A' for Active; 'I' for Inactive)
    1  A    between atoms: C_2  and  C_14
    2  A    between atoms: C_2  and  C_26
    3  A    between atoms: C_2  and  N_42
    4  A    between atoms: O_3  and  C_27
    5  A    between atoms: O_3  and  N_42
    6  A    between atoms: C_4  and  N_10
    7  A    between atoms: C_4  and  C_33
    8  A    between atoms: C_5  and  C_19
    9  A    between atoms: C_8  and  C_16
   10  A    between atoms: C_11  and  N_17
   11  A    between atoms: C_11  and  C_20
   12  A    between atoms: C_14  and  C_34
   13  A    between atoms: O_15  and  C_19
   14  A    between atoms: C_16  and  C_33
   15  A    between atoms: C_18  and  C_26
   16  A    between atoms: C_19  and  C_36
   17  A    between atoms: C_20  and  C_32
   18  A    between atoms: C_23  and  C_27
   19  A    between atoms: C_26  and  C_38
   20  A    between atoms: C_38  and  C_41
                            x       y       z     vdW  Elec       q    Type
                         _______ _______ _______ _____ _____    ______ ____

>  <TORSDO>
F 20

$$$$
=
 OpenBabel11062418473D

 43 45  0  0  1  0  0  0  0  0999 V2000
  189.7210  176.4580  145.0770 C   0  0  2  0  0  3  0  0  0  0  0  0
  189.2990  176.9430  143.7270 C   0  0  1  0  0  3  0  0  0  0  0  0
  191.4950  177.1970  143.1230 C   0  0  0  0  0  2  0  0  0  0  0  0
  190.6230  176.1730  143.8650 C   0  0  2  0  0  0  0  0  0  0  0  0
  191.8920  176.7850  144.4770 C   0  0  1  0  0  3  0  0  0  0  0  0
  188.2470  176.0830  143.0190 C   0  0  2  0  0  3  0  0  0  0  0  0
  188.5480  176.0140  141.6560 O   0  0  0  0  0  1  0  0  0  0  0  0
  186.8490  176.6690  143.2030 C   0  0  2  0  0  3  0  0  0  0  0  0
  186.2340  176.8470  141.9590 O   0  0  0  0  0  1  0  0  0  0  0  0
  186.9420  178.0200  143.9070 C   0  0  0  0  0  2  0  0  0  0  0  0
  184.7570  178.8270  144.9090 C   0  0  0  0  0  0  0  0  0  0  0  0
  185.9770  178.1440  145.0010 N   0  0  0  0  0  0  0  0  0  0  0  0
  186.0140  177.4760  146.2920 C   0  0  2  0  0  3  0  0  0  0  0  0
  184.7450  177.7640  146.9850 N   0  0  0  0  0  0  0  0  0  0  0  0
  183.9400  178.6300  146.1120 C   0  0  0  0  0  3  0  0  0  0  0  0
  184.4020  179.4970  143.9030 O   0  0  0  0  0  0  0  0  0  0  0  0
  187.1220  177.9880  147.0810 N   0  0  0  0  0  1  0  0  0  0  0  0
  193.0030  175.7440  144.4140 C   0  0  0  0  0  2  0  0  0  0  0  0
  194.3410  176.3330  143.9560 C   0  0  1  0  0  3  0  0  0  0  0  0
  195.1400  176.7980  145.1660 C   0  0  0  0  0  2  0  0  0  0  0  0
  194.6640  176.1920  146.3280 O   0  0  0  0  0  1  0  0  0  0  0  0
  195.1610  175.3740  143.0670 C   0  0  1  0  0  3  0  0  0  0  0  0
  195.0190  173.9850  143.4990 N   0  0  0  0  0  2  0  0  0  0  0  0
  196.2140  173.5980  144.0100 O   0  0  0  0  0  0  0  0  0  0  0  0
  195.9170  173.0920  145.2790 C   0  0  2  0  0  3  0  0  0  0  0  0
  196.9850  173.5360  146.2620 C   0  0  0  0  0  1  0  0  0  0  0  0
  195.8780  171.5770  145.2330 C   0  0  0  0  0  2  0  0  0  0  0  0
  196.7100  171.0500  146.2210 O   0  0  0  0  0  1  0  0  0  0  0  0
  194.8130  175.5110  141.5790 C   0  0  0  0  0  2  0  0  0  0  0  0
  192.6950  174.1770  141.2480 N   0  0  0  0  0  2  0  0  0  0  0  0
  194.7300  173.4620  140.3430 O   0  0  0  0  0  0  0  0  0  0  0  0
  194.1000  174.3180  141.0240 C   0  0  0  0  0  0  0  0  0  0  0  0
  191.9160  173.0530  140.7370 C   0  0  2  0  0  3  0  0  0  0  0  0
  190.4710  173.4670  140.4900 C   0  0  0  0  0  1  0  0  0  0  0  0
  192.0000  171.8580  141.6880 C   0  0  0  0  0  2  0  0  0  0  0  0
  191.6180  170.2090  139.8480 O   0  0  0  0  0  0  0  0  0  0  0  0
  191.3400  170.6320  141.1400 C   0  0  0  0  0  0  0  0  0  0  0  0
  190.5570  169.9600  141.8640 O   0  0  0  0  0  1  0  0  0  0  0  0
  189.0750  175.1440  145.5620 C   0  0  2  0  0  3  0  0  0  0  0  0
  190.1190  175.1640  147.6080 C   0  0  0  0  0  1  0  0  0  0  0  0
  188.8760  175.0810  146.9600 O   0  0  0  0  0  0  0  0  0  0  0  0
  190.3070  172.9700  144.5960 C   0  0  0  0  0  3  0  0  0  0  0  0
  189.7510  173.9470  145.0300 C   0  0  0  0  0  0  0  0  0  0  0  0
  1 39  1  6  0  0  0
  2  6  1  6  0  0  0
  2  4  1  0  0  0  0
  2  1  1  0  0  0  0
  3  5  1  0  0  0  0
  4  3  1  6  0  0  0
  4  5  1  0  0  0  0
  4  1  1  0  0  0  0
  5 18  1  6  0  0  0
  6  7  1  6  0  0  0
  6  8  1  0  0  0  0
  8  9  1  6  0  0  0
  8 10  1  0  0  0  0
 10 12  1  0  0  0  0
 11 12  1  0  0  0  0
 11 15  1  0  0  0  0
 12 13  1  0  0  0  0
 13 14  1  0  0  0  0
 13 17  1  1  0  0  0
 15 14  2  0  0  0  0
 16 11  2  0  0  0  0
 19 18  1  1  0  0  0
 19 20  1  0  0  0  0
 20 21  1  0  0  0  0
 22 29  1  6  0  0  0
 22 23  1  0  0  0  0
 22 19  1  0  0  0  0
 23 24  1  0  0  0  0
 24 25  1  0  0  0  0
 25 26  1  1  0  0  0
 27 25  1  0  0  0  0
 27 28  1  0  0  0  0
 31 32  2  0  0  0  0
 32 30  1  0  0  0  0
 32 29  1  0  0  0  0
 33 34  1  1  0  0  0
 33 30  1  0  0  0  0
 33 35  1  0  0  0  0
 36 37  2  0  0  0  0
 37 35  1  0  0  0  0
 37 38  1  0  0  0  0
 39 43  1  1  0  0  0
 39 41  1  0  0  0  0
 41 40  1  0  0  0  0
 42 43  3  0  0  0  0
M  END
>  <MODEL>
4

>  <REMARK>
 VINA RESULT:      -5.3      2.173      2.889
  Name = 
  20 active torsions:
  status: ('A' for Active; 'I' for Inactive)
    1  A    between atoms: C_2  and  C_14
    2  A    between atoms: C_2  and  C_26
    3  A    between atoms: C_2  and  N_42
    4  A    between atoms: O_3  and  C_27
    5  A    between atoms: O_3  and  N_42
    6  A    between atoms: C_4  and  N_10
    7  A    between atoms: C_4  and  C_33
    8  A    between atoms: C_5  and  C_19
    9  A    between atoms: C_8  and  C_16
   10  A    between atoms: C_11  and  N_17
   11  A    between atoms: C_11  and  C_20
   12  A    between atoms: C_14  and  C_34
   13  A    between atoms: O_15  and  C_19
   14  A    between atoms: C_16  and  C_33
   15  A    between atoms: C_18  and  C_26
   16  A    between atoms: C_19  and  C_36
   17  A    between atoms: C_20  and  C_32
   18  A    between atoms: C_23  and  C_27
   19  A    between atoms: C_26  and  C_38
   20  A    between atoms: C_38  and  C_41
                            x       y       z     vdW  Elec       q    Type
                         _______ _______ _______ _____ _____    ______ ____

>  <TORSDO>
F 20

$$$$
=
 OpenBabel11062418473D

 43 45  0  0  1  0  0  0  0  0999 V2000
  189.0010  177.3550  144.9800 C   0  0  2  0  0  3  0  0  0  0  0  0
  188.9830  176.9590  143.5380 C   0  0  1  0  0  3  0  0  0  0  0  0
  191.2380  176.5530  143.6140 C   0  0  0  0  0  2  0  0  0  0  0  0
  189.9980  176.2950  144.4850 C   0  0  2  0  0  0  0  0  0  0  0  0
  191.2500  177.0110  145.0120 C   0  0  1  0  0  3  0  0  0  0  0  0
  187.8860  175.9660  143.1430 C   0  0  2  0  0  3  0  0  0  0  0  0
  188.4650  174.7250  142.8610 O   0  0  0  0  0  1  0  0  0  0  0  0
  187.1190  176.4600  141.9180 C   0  0  2  0  0  3  0  0  0  0  0  0
  187.8380  176.1760  140.7530 O   0  0  0  0  0  1  0  0  0  0  0  0
  186.9050  177.9670  142.0140 C   0  0  0  0  0  2  0  0  0  0  0  0
  184.4460  178.2190  141.4480 C   0  0  0  0  0  0  0  0  0  0  0  0
  185.5210  178.3130  142.3420 N   0  0  0  0  0  0  0  0  0  0  0  0
  184.9810  178.6520  143.6490 C   0  0  2  0  0  3  0  0  0  0  0  0
  183.5150  178.7420  143.5210 N   0  0  0  0  0  0  0  0  0  0  0  0
  183.1670  178.4730  142.1190 C   0  0  0  0  0  3  0  0  0  0  0  0
  184.5710  177.9220  140.2300 O   0  0  0  0  0  0  0  0  0  0  0  0
  185.5080  179.9350  144.0830 N   0  0  0  0  0  1  0  0  0  0  0  0
  192.0270  176.0350  145.8860 C   0  0  0  0  0  2  0  0  0  0  0  0
  193.1760  175.3520  145.1370 C   0  0  1  0  0  3  0  0  0  0  0  0
  194.5090  175.9020  145.6280 C   0  0  0  0  0  2  0  0  0  0  0  0
  194.4560  177.2920  145.7290 O   0  0  0  0  0  1  0  0  0  0  0  0
  193.1310  173.8120  145.2180 C   0  0  1  0  0  3  0  0  0  0  0  0
  192.6440  173.2200  143.9740 N   0  0  0  0  0  2  0  0  0  0  0  0
  191.9050  172.1320  144.3090 O   0  0  0  0  0  0  0  0  0  0  0  0
  190.6310  172.3890  143.7930 C   0  0  2  0  0  3  0  0  0  0  0  0
  189.5900  172.1330  144.8690 C   0  0  0  0  0  1  0  0  0  0  0  0
  190.3610  171.4800  142.6100 C   0  0  0  0  0  2  0  0  0  0  0  0
  191.2700  170.4220  142.6070 O   0  0  0  0  0  1  0  0  0  0  0  0
  194.4860  173.2040  145.6050 C   0  0  0  0  0  2  0  0  0  0  0  0
  195.1490  171.1540  144.2900 N   0  0  0  0  0  2  0  0  0  0  0  0
  195.8290  173.2900  143.6260 O   0  0  0  0  0  0  0  0  0  0  0  0
  195.2040  172.5730  144.4550 C   0  0  0  0  0  0  0  0  0  0  0  0
  195.8100  170.4530  143.1930 C   0  0  2  0  0  3  0  0  0  0  0  0
  194.8460  170.2360  142.0330 C   0  0  0  0  0  1  0  0  0  0  0  0
  196.4080  169.1310  143.6770 C   0  0  0  0  0  2  0  0  0  0  0  0
  196.1370  168.5080  146.0840 O   0  0  0  0  0  1  0  0  0  0  0  0
  196.8540  169.1830  145.1040 C   0  0  0  0  0  0  0  0  0  0  0  0
  197.9020  169.8090  145.4150 O   0  0  0  0  0  0  0  0  0  0  0  0
  187.9430  176.6880  145.8830 C   0  0  2  0  0  3  0  0  0  0  0  0
  185.8690  177.0610  146.7960 C   0  0  0  0  0  1  0  0  0  0  0  0
  187.1510  177.6030  146.6150 O   0  0  0  0  0  0  0  0  0  0  0  0
  188.9700  174.7510  147.4230 C   0  0  0  0  0  3  0  0  0  0  0  0
  188.5070  175.6210  146.7290 C   0  0  0  0  0  0  0  0  0  0  0  0
  1 39  1  1  0  0  0
  2  6  1  1  0  0  0
  2  4  1  0  0  0  0
  2  1  1  0  0  0  0
  3  5  1  0  0  0  0
  4  3  1  1  0  0  0
  4  1  1  0  0  0  0
  4  5  1  0  0  0  0
  5 18  1  1  0  0  0
  6  7  1  6  0  0  0
  8  9  1  6  0  0  0
  8 10  1  0  0  0  0
  8  6  1  0  0  0  0
 10 12  1  0  0  0  0
 11 15  1  0  0  0  0
 11 12  1  0  0  0  0
 12 13  1  0  0  0  0
 13 17  1  6  0  0  0
 14 13  1  0  0  0  0
 15 14  2  0  0  0  0
 16 11  2  0  0  0  0
 19 22  1  0  0  0  0
 19 20  1  1  0  0  0
 19 18  1  0  0  0  0
 20 21  1  0  0  0  0
 22 29  1  6  0  0  0
 23 24  1  0  0  0  0
 23 22  1  0  0  0  0
 25 24  1  0  0  0  0
 25 26  1  1  0  0  0
 27 25  1  0  0  0  0
 28 27  1  0  0  0  0
 30 32  1  0  0  0  0
 31 32  2  0  0  0  0
 32 29  1  0  0  0  0
 33 34  1  6  0  0  0
 33 35  1  0  0  0  0
 33 30  1  0  0  0  0
 35 37  1  0  0  0  0
 37 38  2  0  0  0  0
 37 36  1  0  0  0  0
 39 41  1  0  0  0  0
 39 43  1  1  0  0  0
 41 40  1  0  0  0  0
 43 42  3  0  0  0  0
M  END
>  <MODEL>
5

>  <REMARK>
 VINA RESULT:      -5.2      1.837      3.939
  Name = 
  20 active torsions:
  status: ('A' for Active; 'I' for Inactive)
    1  A    between atoms: C_2  and  C_14
    2  A    between atoms: C_2  and  C_26
    3  A    between atoms: C_2  and  N_42
    4  A    between atoms: O_3  and  C_27
    5  A    between atoms: O_3  and  N_42
    6  A    between atoms: C_4  and  N_10
    7  A    between atoms: C_4  and  C_33
    8  A    between atoms: C_5  and  C_19
    9  A    between atoms: C_8  and  C_16
   10  A    between atoms: C_11  and  N_17
   11  A    between atoms: C_11  and  C_20
   12  A    between atoms: C_14  and  C_34
   13  A    between atoms: O_15  and  C_19
   14  A    between atoms: C_16  and  C_33
   15  A    between atoms: C_18  and  C_26
   16  A    between atoms: C_19  and  C_36
   17  A    between atoms: C_20  and  C_32
   18  A    between atoms: C_23  and  C_27
   19  A    between atoms: C_26  and  C_38
   20  A    between atoms: C_38  and  C_41
                            x       y       z     vdW  Elec       q    Type
                         _______ _______ _______ _____ _____    ______ ____

>  <TORSDO>
F 20

$$$$
=
 OpenBabel11062418473D

 43 45  0  0  1  0  0  0  0  0999 V2000
  185.8640  177.0530  142.6400 C   0  0  2  0  0  3  0  0  0  0  0  0
  184.5910  177.4120  143.3370 C   0  0  1  0  0  3  0  0  0  0  0  0
  185.6260  177.1740  145.3680 C   0  0  0  0  0  2  0  0  0  0  0  0
  185.9330  177.7840  143.9910 C   0  0  2  0  0  0  0  0  0  0  0  0
  186.8510  176.7550  144.6690 C   0  0  1  0  0  3  0  0  0  0  0  0
  183.8840  178.6660  142.8110 C   0  0  2  0  0  3  0  0  0  0  0  0
  183.4620  179.4470  143.8900 O   0  0  0  0  0  1  0  0  0  0  0  0
  182.6780  178.2920  141.9510 C   0  0  2  0  0  3  0  0  0  0  0  0
  182.9380  178.5780  140.6070 O   0  0  0  0  0  1  0  0  0  0  0  0
  181.4560  179.0870  142.4000 C   0  0  0  0  0  2  0  0  0  0  0  0
  179.8060  179.6560  140.5610 C   0  0  0  0  0  0  0  0  0  0  0  0
  180.2790  178.8110  141.5740 N   0  0  0  0  0  0  0  0  0  0  0  0
  179.4970  177.5870  141.5300 C   0  0  2  0  0  3  0  0  0  0  0  0
  178.5300  177.7090  140.4230 N   0  0  0  0  0  0  0  0  0  0  0  0
  178.7170  179.0290  139.8050 C   0  0  0  0  0  3  0  0  0  0  0  0
  180.2840  180.7970  140.3180 O   0  0  0  0  0  0  0  0  0  0  0  0
  178.7800  177.4130  142.7810 N   0  0  0  0  0  1  0  0  0  0  0  0
  188.0620  177.4910  145.2270 C   0  0  0  0  0  2  0  0  0  0  0  0
  189.0940  176.5450  145.8510 C   0  0  1  0  0  3  0  0  0  0  0  0
  188.4090  175.6280  146.8570 C   0  0  0  0  0  2  0  0  0  0  0  0
  189.3020  174.6650  147.3270 O   0  0  0  0  0  1  0  0  0  0  0  0
  189.9010  175.7440  144.8080 C   0  0  1  0  0  3  0  0  0  0  0  0
  189.0400  175.2140  143.7520 N   0  0  0  0  0  2  0  0  0  0  0  0
  189.6240  175.5200  142.5660 O   0  0  0  0  0  0  0  0  0  0  0  0
  189.0340  174.6560  141.6390 C   0  0  2  0  0  3  0  0  0  0  0  0
  188.0940  173.7080  142.3610 C   0  0  0  0  0  1  0  0  0  0  0  0
  190.1070  173.8520  140.9290 C   0  0  0  0  0  2  0  0  0  0  0  0
  189.6530  172.5530  140.7000 O   0  0  0  0  0  1  0  0  0  0  0  0
  191.0510  176.5580  144.2020 C   0  0  0  0  0  2  0  0  0  0  0  0
  193.5580  176.5040  144.4990 N   0  0  0  0  0  2  0  0  0  0  0  0
  192.3710  174.5900  143.8690 O   0  0  0  0  0  0  0  0  0  0  0  0
  192.3500  175.8160  144.1660 C   0  0  0  0  0  0  0  0  0  0  0  0
  194.8670  175.8590  144.4990 C   0  0  2  0  0  3  0  0  0  0  0  0
  195.1200  175.1540  145.8260 C   0  0  0  0  0  1  0  0  0  0  0  0
  195.9710  176.8720  144.1870 C   0  0  0  0  0  2  0  0  0  0  0  0
  196.2500  176.7510  141.7050 O   0  0  0  0  0  0  0  0  0  0  0  0
  196.7650  176.5090  142.9720 C   0  0  0  0  0  0  0  0  0  0  0  0
  197.9180  176.0160  143.0950 O   0  0  0  0  0  1  0  0  0  0  0  0
  186.3160  178.0050  141.5140 C   0  0  2  0  0  3  0  0  0  0  0  0
  186.8970  176.7660  139.6680 C   0  0  0  0  0  1  0  0  0  0  0  0
  185.9120  177.6000  140.2200 O   0  0  0  0  0  0  0  0  0  0  0  0
  188.9280  178.5900  141.6410 C   0  0  0  0  0  3  0  0  0  0  0  0
  187.7520  178.3290  141.5840 C   0  0  0  0  0  0  0  0  0  0  0  0
  1 39  1  6  0  0  0
  1  2  1  0  0  0  0
  1  4  1  0  0  0  0
  2  6  1  6  0  0  0
  2  4  1  0  0  0  0
  4  5  1  0  0  0  0
  4  3  1  1  0  0  0
  5 18  1  1  0  0  0
  5  3  1  0  0  0  0
  6  7  1  1  0  0  0
  8  9  1  6  0  0  0
  8 10  1  0  0  0  0
  8  6  1  0  0  0  0
 11 12  1  0  0  0  0
 12 10  1  0  0  0  0
 13 12  1  0  0  0  0
 13 17  1  1  0  0  0
 14 13  1  0  0  0  0
 15 14  2  0  0  0  0
 15 11  1  0  0  0  0
 16 11  2  0  0  0  0
 19 18  1  6  0  0  0
 19 20  1  0  0  0  0
 20 21  1  0  0  0  0
 22 29  1  6  0  0  0
 22 19  1  0  0  0  0
 23 22  1  0  0  0  0
 24 23  1  0  0  0  0
 25 26  1  1  0  0  0
 25 24  1  0  0  0  0
 27 25  1  0  0  0  0
 28 27  1  0  0  0  0
 30 33  1  0  0  0  0
 31 32  2  0  0  0  0
 32 29  1  0  0  0  0
 32 30  1  0  0  0  0
 33 34  1  1  0  0  0
 35 33  1  0  0  0  0
 36 37  2  0  0  0  0
 37 38  1  0  0  0  0
 37 35  1  0  0  0  0
 39 43  1  6  0  0  0
 40 41  1  0  0  0  0
 41 39  1  0  0  0  0
 43 42  3  0  0  0  0
M  END
>  <MODEL>
6

>  <REMARK>
 VINA RESULT:      -5.1      2.764      5.969
  Name = 
  20 active torsions:
  status: ('A' for Active; 'I' for Inactive)
    1  A    between atoms: C_2  and  C_14
    2  A    between atoms: C_2  and  C_26
    3  A    between atoms: C_2  and  N_42
    4  A    between atoms: O_3  and  C_27
    5  A    between atoms: O_3  and  N_42
    6  A    between atoms: C_4  and  N_10
    7  A    between atoms: C_4  and  C_33
    8  A    between atoms: C_5  and  C_19
    9  A    between atoms: C_8  and  C_16
   10  A    between atoms: C_11  and  N_17
   11  A    between atoms: C_11  and  C_20
   12  A    between atoms: C_14  and  C_34
   13  A    between atoms: O_15  and  C_19
   14  A    between atoms: C_16  and  C_33
   15  A    between atoms: C_18  and  C_26
   16  A    between atoms: C_19  and  C_36
   17  A    between atoms: C_20  and  C_32
   18  A    between atoms: C_23  and  C_27
   19  A    between atoms: C_26  and  C_38
   20  A    between atoms: C_38  and  C_41
                            x       y       z     vdW  Elec       q    Type
                         _______ _______ _______ _____ _____    ______ ____

>  <TORSDO>
F 20

$$$$
=
 OpenBabel11062418473D

 43 45  0  0  1  0  0  0  0  0999 V2000
  190.5010  175.7970  145.5690 C   0  0  2  0  0  3  0  0  0  0  0  0
  190.1610  176.7950  144.5090 C   0  0  1  0  0  3  0  0  0  0  0  0
  192.3920  177.1490  144.1180 C   0  0  0  0  0  2  0  0  0  0  0  0
  191.4490  175.9630  144.3700 C   0  0  2  0  0  0  0  0  0  0  0  0
  192.7080  176.2180  145.2110 C   0  0  1  0  0  3  0  0  0  0  0  0
  189.1140  176.3380  143.4880 C   0  0  2  0  0  3  0  0  0  0  0  0
  189.2700  177.0680  142.3070 O   0  0  0  0  0  1  0  0  0  0  0  0
  187.7000  176.5420  144.0290 C   0  0  2  0  0  3  0  0  0  0  0  0
  186.7730  176.4970  142.9830 O   0  0  0  0  0  1  0  0  0  0  0  0
  187.6010  177.8990  144.7210 C   0  0  0  0  0  2  0  0  0  0  0  0
  185.3540  179.0710  144.8050 C   0  0  0  0  0  0  0  0  0  0  0  0
  186.2760  178.1350  145.2950 N   0  0  0  0  0  0  0  0  0  0  0  0
  185.6150  177.3690  146.3390 C   0  0  2  0  0  3  0  0  0  0  0  0
  184.2310  177.8650  146.4540 N   0  0  0  0  0  0  0  0  0  0  0  0
  184.0590  178.9540  145.4830 C   0  0  0  0  0  3  0  0  0  0  0  0
  185.6070  179.8840  143.8760 O   0  0  0  0  0  0  0  0  0  0  0  0
  186.3040  177.5610  147.6040 N   0  0  0  0  0  1  0  0  0  0  0  0
  193.7820  175.2280  144.7750 C   0  0  0  0  0  2  0  0  0  0  0  0
  194.5920  175.7250  143.5720 C   0  0  1  0  0  3  0  0  0  0  0  0
  195.8710  176.3980  144.0560 C   0  0  0  0  0  2  0  0  0  0  0  0
  196.5660  176.9540  142.9840 O   0  0  0  0  0  1  0  0  0  0  0  0
  194.8880  174.6220  142.5350 C   0  0  1  0  0  3  0  0  0  0  0  0
  194.9270  173.2970  143.1520 N   0  0  0  0  0  2  0  0  0  0  0  0
  196.2170  173.0490  143.4910 O   0  0  0  0  0  0  0  0  0  0  0  0
  196.1830  171.8290  144.1720 C   0  0  2  0  0  3  0  0  0  0  0  0
  195.3070  171.9640  145.4040 C   0  0  0  0  0  1  0  0  0  0  0  0
  197.5850  171.4360  144.5960 C   0  0  0  0  0  2  0  0  0  0  0  0
  197.5270  170.5990  145.7100 O   0  0  0  0  0  1  0  0  0  0  0  0
  193.8980  174.6370  141.3630 C   0  0  0  0  0  2  0  0  0  0  0  0
  193.8390  174.8500  138.8480 N   0  0  0  0  0  2  0  0  0  0  0  0
  195.5590  175.8150  140.1050 O   0  0  0  0  0  0  0  0  0  0  0  0
  194.4980  175.1330  140.0850 C   0  0  0  0  0  0  0  0  0  0  0  0
  194.3450  175.3020  137.5550 C   0  0  2  0  0  3  0  0  0  0  0  0
  193.1970  175.6970  136.6340 C   0  0  0  0  0  1  0  0  0  0  0  0
  195.2300  174.2310  136.9150 C   0  0  0  0  0  2  0  0  0  0  0  0
  197.3780  173.2970  137.7920 O   0  0  0  0  0  1  0  0  0  0  0  0
  196.6750  174.3780  137.2780 C   0  0  0  0  0  0  0  0  0  0  0  0
  197.2650  175.4740  137.0840 O   0  0  0  0  0  0  0  0  0  0  0  0
  189.7840  174.4340  145.4780 C   0  0  2  0  0  3  0  0  0  0  0  0
  188.9150  175.1100  147.4940 C   0  0  0  0  0  1  0  0  0  0  0  0
  189.2240  173.9940  146.6990 O   0  0  0  0  0  0  0  0  0  0  0  0
  191.2820  172.5560  144.2910 C   0  0  0  0  0  3  0  0  0  0  0  0
  190.6090  173.4000  144.8270 C   0  0  0  0  0  0  0  0  0  0  0  0
  1 39  1  6  0  0  0
  2  6  1  6  0  0  0
  2  1  1  0  0  0  0
  3  5  1  0  0  0  0
  4  3  1  6  0  0  0
  4  2  1  0  0  0  0
  4  5  1  0  0  0  0
  4  1  1  0  0  0  0
  5 18  1  6  0  0  0
  6  7  1  6  0  0  0
  6  8  1  0  0  0  0
  8  9  1  6  0  0  0
  8 10  1  0  0  0  0
 10 12  1  0  0  0  0
 11 12  1  0  0  0  0
 11 15  1  0  0  0  0
 12 13  1  0  0  0  0
 13 14  1  0  0  0  0
 13 17  1  1  0  0  0
 15 14  2  0  0  0  0
 16 11  2  0  0  0  0
 19 20  1  1  0  0  0
 19 18  1  0  0  0  0
 21 20  1  0  0  0  0
 22 29  1  6  0  0  0
 22 23  1  0  0  0  0
 22 19  1  0  0  0  0
 23 24  1  0  0  0  0
 24 25  1  0  0  0  0
 25 27  1  0  0  0  0
 25 26  1  1  0  0  0
 27 28  1  0  0  0  0
 30 32  1  0  0  0  0
 32 31  2  0  0  0  0
 32 29  1  0  0  0  0
 33 34  1  6  0  0  0
 33 30  1  0  0  0  0
 35 37  1  0  0  0  0
 35 33  1  0  0  0  0
 37 36  1  0  0  0  0
 38 37  2  0  0  0  0
 39 43  1  1  0  0  0
 39 41  1  0  0  0  0
 41 40  1  0  0  0  0
 42 43  3  0  0  0  0
M  END
>  <MODEL>
7

>  <REMARK>
 VINA RESULT:      -5.1      3.086      3.919
  Name = 
  20 active torsions:
  status: ('A' for Active; 'I' for Inactive)
    1  A    between atoms: C_2  and  C_14
    2  A    between atoms: C_2  and  C_26
    3  A    between atoms: C_2  and  N_42
    4  A    between atoms: O_3  and  C_27
    5  A    between atoms: O_3  and  N_42
    6  A    between atoms: C_4  and  N_10
    7  A    between atoms: C_4  and  C_33
    8  A    between atoms: C_5  and  C_19
    9  A    between atoms: C_8  and  C_16
   10  A    between atoms: C_11  and  N_17
   11  A    between atoms: C_11  and  C_20
   12  A    between atoms: C_14  and  C_34
   13  A    between atoms: O_15  and  C_19
   14  A    between atoms: C_16  and  C_33
   15  A    between atoms: C_18  and  C_26
   16  A    between atoms: C_19  and  C_36
   17  A    between atoms: C_20  and  C_32
   18  A    between atoms: C_23  and  C_27
   19  A    between atoms: C_26  and  C_38
   20  A    between atoms: C_38  and  C_41
                            x       y       z     vdW  Elec       q    Type
                         _______ _______ _______ _____ _____    ______ ____

>  <TORSDO>
F 20

$$$$
=
 OpenBabel11062418473D

 43 45  0  0  1  0  0  0  0  0999 V2000
  189.1210  175.1070  143.6170 C   0  0  2  0  0  3  0  0  0  0  0  0
  189.0160  174.9920  145.1040 C   0  0  1  0  0  3  0  0  0  0  0  0
  190.1770  173.0160  145.0400 C   0  0  0  0  0  2  0  0  0  0  0  0
  190.2500  174.4080  144.3930 C   0  0  2  0  0  0  0  0  0  0  0  0
  190.2100  173.1100  143.5730 C   0  0  1  0  0  3  0  0  0  0  0  0
  189.3950  176.2520  145.8890 C   0  0  2  0  0  3  0  0  0  0  0  0
  189.7610  175.8940  147.1900 O   0  0  0  0  0  1  0  0  0  0  0  0
  188.2270  177.2340  145.9410 C   0  0  2  0  0  3  0  0  0  0  0  0
  188.1760  177.8570  147.1920 O   0  0  0  0  0  1  0  0  0  0  0  0
  186.9150  176.4920  145.7030 C   0  0  0  0  0  2  0  0  0  0  0  0
  184.8410  177.9480  145.7930 C   0  0  0  0  0  0  0  0  0  0  0  0
  185.8960  177.3470  145.0930 N   0  0  0  0  0  0  0  0  0  0  0  0
  185.8660  177.8530  143.7300 C   0  0  2  0  0  3  0  0  0  0  0  0
  184.7530  178.8150  143.6300 N   0  0  0  0  0  0  0  0  0  0  0  0
  184.0900  178.8760  144.9400 C   0  0  0  0  0  3  0  0  0  0  0  0
  184.5970  177.7350  147.0110 O   0  0  0  0  0  0  0  0  0  0  0  0
  185.6450  176.7580  142.8010 N   0  0  0  0  0  1  0  0  0  0  0  0
  191.6150  172.8310  143.0520 C   0  0  0  0  0  2  0  0  0  0  0  0
  192.5940  172.4420  144.1660 C   0  0  1  0  0  3  0  0  0  0  0  0
  193.1440  171.0460  143.9020 C   0  0  0  0  0  2  0  0  0  0  0  0
  192.2410  170.0760  144.3330 O   0  0  0  0  0  1  0  0  0  0  0  0
  193.7250  173.4700  144.3730 C   0  0  1  0  0  3  0  0  0  0  0  0
  193.6060  174.1520  145.6610 N   0  0  0  0  0  2  0  0  0  0  0  0
  194.8210  174.6820  145.9490 O   0  0  0  0  0  0  0  0  0  0  0  0
  194.5600  176.0060  146.3120 C   0  0  2  0  0  3  0  0  0  0  0  0
  193.1190  176.1290  146.7720 C   0  0  0  0  0  1  0  0  0  0  0  0
  194.7860  176.9200  145.1230 C   0  0  0  0  0  2  0  0  0  0  0  0
  195.9390  176.5350  144.4400 O   0  0  0  0  0  1  0  0  0  0  0  0
  195.1190  172.8480  144.2240 C   0  0  0  0  0  2  0  0  0  0  0  0
  195.2220  174.2540  142.1300 N   0  0  0  0  0  2  0  0  0  0  0  0
  197.0070  172.8770  142.7520 O   0  0  0  0  0  0  0  0  0  0  0  0
  195.8460  173.3060  142.9990 C   0  0  0  0  0  0  0  0  0  0  0  0
  195.8600  174.7640  140.9190 C   0  0  2  0  0  3  0  0  0  0  0  0
  195.7210  176.2790  140.8340 C   0  0  0  0  0  1  0  0  0  0  0  0
  195.2860  174.0810  139.6760 C   0  0  0  0  0  2  0  0  0  0  0  0
  193.6850  172.2340  140.2050 O   0  0  0  0  0  1  0  0  0  0  0  0
  193.8960  173.5690  139.8840 C   0  0  0  0  0  0  0  0  0  0  0  0
  192.9150  174.3560  139.8040 O   0  0  0  0  0  0  0  0  0  0  0  0
  189.6270  176.4580  143.0720 C   0  0  2  0  0  3  0  0  0  0  0  0
  188.9520  178.3440  141.9470 C   0  0  0  0  0  1  0  0  0  0  0  0
  188.9000  176.9410  141.9600 O   0  0  0  0  0  0  0  0  0  0  0  0
  192.2760  176.4830  142.6630 C   0  0  0  0  0  3  0  0  0  0  0  0
  191.0840  176.4710  142.8460 C   0  0  0  0  0  0  0  0  0  0  0  0
  1 39  1  1  0  0  0
  1  4  1  0  0  0  0
  1  2  1  0  0  0  0
  2  6  1  1  0  0  0
  4  3  1  1  0  0  0
  4  2  1  0  0  0  0
  5 18  1  1  0  0  0
  5  4  1  0  0  0  0
  5  3  1  0  0  0  0
  6  8  1  0  0  0  0
  6  7  1  1  0  0  0
  8  9  1  1  0  0  0
 10  8  1  0  0  0  0
 11 16  2  0  0  0  0
 12 10  1  0  0  0  0
 12 11  1  0  0  0  0
 13 17  1  6  0  0  0
 13 12  1  0  0  0  0
 14 13  1  0  0  0  0
 14 15  2  0  0  0  0
 15 11  1  0  0  0  0
 19 18  1  6  0  0  0
 19 22  1  0  0  0  0
 20 19  1  0  0  0  0
 20 21  1  0  0  0  0
 22 29  1  1  0  0  0
 22 23  1  0  0  0  0
 23 24  1  0  0  0  0
 24 25  1  0  0  0  0
 25 26  1  6  0  0  0
 27 25  1  0  0  0  0
 28 27  1  0  0  0  0
 30 32  1  0  0  0  0
 31 32  2  0  0  0  0
 32 29  1  0  0  0  0
 33 34  1  6  0  0  0
 33 30  1  0  0  0  0
 35 37  1  0  0  0  0
 35 33  1  0  0  0  0
 37 36  1  0  0  0  0
 38 37  2  0  0  0  0
 39 43  1  6  0  0  0
 40 41  1  0  0  0  0
 41 39  1  0  0  0  0
 42 43  3  0  0  0  0
M  END
>  <MODEL>
8

>  <REMARK>
 VINA RESULT:      -5.0      2.089      4.368
  Name = 
  20 active torsions:
  status: ('A' for Active; 'I' for Inactive)
    1  A    between atoms: C_2  and  C_14
    2  A    between atoms: C_2  and  C_26
    3  A    between atoms: C_2  and  N_42
    4  A    between atoms: O_3  and  C_27
    5  A    between atoms: O_3  and  N_42
    6  A    between atoms: C_4  and  N_10
    7  A    between atoms: C_4  and  C_33
    8  A    between atoms: C_5  and  C_19
    9  A    between atoms: C_8  and  C_16
   10  A    between atoms: C_11  and  N_17
   11  A    between atoms: C_11  and  C_20
   12  A    between atoms: C_14  and  C_34
   13  A    between atoms: O_15  and  C_19
   14  A    between atoms: C_16  and  C_33
   15  A    between atoms: C_18  and  C_26
   16  A    between atoms: C_19  and  C_36
   17  A    between atoms: C_20  and  C_32
   18  A    between atoms: C_23  and  C_27
   19  A    between atoms: C_26  and  C_38
   20  A    between atoms: C_38  and  C_41
                            x       y       z     vdW  Elec       q    Type
                         _______ _______ _______ _____ _____    ______ ____

>  <TORSDO>
F 20

$$$$
=
 OpenBabel11062418473D

 43 45  0  0  1  0  0  0  0  0999 V2000
  190.5310  176.8130  145.3130 C   0  0  2  0  0  3  0  0  0  0  0  0
  190.0510  177.0400  143.9150 C   0  0  1  0  0  3  0  0  0  0  0  0
  192.1650  176.6530  143.1190 C   0  0  0  0  0  2  0  0  0  0  0  0
  191.2070  176.0540  144.1590 C   0  0  2  0  0  0  0  0  0  0  0  0
  192.6350  176.5010  144.5030 C   0  0  1  0  0  3  0  0  0  0  0  0
  188.7740  176.2880  143.5280 C   0  0  2  0  0  3  0  0  0  0  0  0
  188.9810  175.6160  142.3200 O   0  0  0  0  0  1  0  0  0  0  0  0
  187.5970  177.2500  143.3800 C   0  0  2  0  0  3  0  0  0  0  0  0
  187.7020  177.9560  142.1770 O   0  0  0  0  0  1  0  0  0  0  0  0
  187.5910  178.2430  144.5390 C   0  0  0  0  0  2  0  0  0  0  0  0
  185.2790  179.1790  144.9990 C   0  0  0  0  0  0  0  0  0  0  0  0
  186.3100  178.2620  145.2470 N   0  0  0  0  0  0  0  0  0  0  0  0
  185.8080  177.2790  146.1930 C   0  0  2  0  0  3  0  0  0  0  0  0
  184.4070  177.6230  146.5010 N   0  0  0  0  0  0  0  0  0  0  0  0
  184.0650  178.8370  145.7470 C   0  0  0  0  0  3  0  0  0  0  0  0
  185.3840  180.1530  144.2060 O   0  0  0  0  0  0  0  0  0  0  0  0
  186.5950  177.3220  147.4140 N   0  0  0  0  0  1  0  0  0  0  0  0
  193.5050  175.2580  144.6380 C   0  0  0  0  0  2  0  0  0  0  0  0
  193.8200  174.6050  143.2880 C   0  0  1  0  0  3  0  0  0  0  0  0
  195.3100  174.7230  142.9950 C   0  0  0  0  0  2  0  0  0  0  0  0
  195.7410  176.0370  143.1720 O   0  0  0  0  0  1  0  0  0  0  0  0
  193.3330  173.1450  143.1850 C   0  0  1  0  0  3  0  0  0  0  0  0
  193.2560  172.5080  144.4980 N   0  0  0  0  0  2  0  0  0  0  0  0
  193.9530  171.3460  144.4230 O   0  0  0  0  0  0  0  0  0  0  0  0
  194.6880  171.2890  145.6110 C   0  0  2  0  0  3  0  0  0  0  0  0
  196.0640  171.8860  145.3820 C   0  0  0  0  0  1  0  0  0  0  0  0
  194.8360  169.8470  146.0570 C   0  0  0  0  0  2  0  0  0  0  0  0
  195.5880  169.1360  145.1220 O   0  0  0  0  0  1  0  0  0  0  0  0
  191.9920  173.0230  142.4510 C   0  0  0  0  0  2  0  0  0  0  0  0
  191.0430  172.9180  140.1140 N   0  0  0  0  0  2  0  0  0  0  0  0
  193.2190  172.1940  140.5710 O   0  0  0  0  0  0  0  0  0  0  0  0
  192.1360  172.6740  141.0030 C   0  0  0  0  0  0  0  0  0  0  0  0
  191.0970  172.6180  138.6860 C   0  0  2  0  0  3  0  0  0  0  0  0
  191.7680  173.7530  137.9220 C   0  0  0  0  0  1  0  0  0  0  0  0
  189.6980  172.3290  138.1390 C   0  0  0  0  0  2  0  0  0  0  0  0
  187.8600  172.6700  139.8000 O   0  0  0  0  0  1  0  0  0  0  0  0
  188.6400  173.1790  138.7710 C   0  0  0  0  0  0  0  0  0  0  0  0
  188.4800  174.3700  138.3940 O   0  0  0  0  0  0  0  0  0  0  0  0
  189.7040  175.8290  146.1660 C   0  0  2  0  0  3  0  0  0  0  0  0
  191.1500  175.4800  147.9170 C   0  0  0  0  0  1  0  0  0  0  0  0
  189.8870  175.9790  147.5600 O   0  0  0  0  0  0  0  0  0  0  0  0
  189.9640  173.2860  145.3600 C   0  0  0  0  0  3  0  0  0  0  0  0
  189.8490  174.4310  145.7220 C   0  0  0  0  0  0  0  0  0  0  0  0
  1 39  1  1  0  0  0
  2  6  1  1  0  0  0
  2  4  1  0  0  0  0
  2  1  1  0  0  0  0
  3  5  1  0  0  0  0
  4  3  1  6  0  0  0
  4  5  1  0  0  0  0
  4  1  1  0  0  0  0
  5 18  1  6  0  0  0
  6  7  1  6  0  0  0
  8  9  1  6  0  0  0
  8  6  1  0  0  0  0
  8 10  1  0  0  0  0
 10 12  1  0  0  0  0
 11 12  1  0  0  0  0
 11 15  1  0  0  0  0
 12 13  1  0  0  0  0
 13 14  1  0  0  0  0
 13 17  1  1  0  0  0
 15 14  2  0  0  0  0
 16 11  2  0  0  0  0
 19 20  1  1  0  0  0
 19 18  1  0  0  0  0
 20 21  1  0  0  0  0
 22 29  1  1  0  0  0
 22 19  1  0  0  0  0
 22 23  1  0  0  0  0
 24 23  1  0  0  0  0
 24 25  1  0  0  0  0
 25 26  1  6  0  0  0
 25 27  1  0  0  0  0
 28 27  1  0  0  0  0
 30 32  1  0  0  0  0
 31 32  2  0  0  0  0
 32 29  1  0  0  0  0
 33 34  1  6  0  0  0
 33 30  1  0  0  0  0
 35 33  1  0  0  0  0
 35 37  1  0  0  0  0
 37 36  1  0  0  0  0
 38 37  2  0  0  0  0
 39 43  1  6  0  0  0
 39 41  1  0  0  0  0
 41 40  1  0  0  0  0
 42 43  3  0  0  0  0
M  END
>  <MODEL>
9

>  <REMARK>
 VINA RESULT:      -4.9      2.356      3.133
  Name = 
  20 active torsions:
  status: ('A' for Active; 'I' for Inactive)
    1  A    between atoms: C_2  and  C_14
    2  A    between atoms: C_2  and  C_26
    3  A    between atoms: C_2  and  N_42
    4  A    between atoms: O_3  and  C_27
    5  A    between atoms: O_3  and  N_42
    6  A    between atoms: C_4  and  N_10
    7  A    between atoms: C_4  and  C_33
    8  A    between atoms: C_5  and  C_19
    9  A    between atoms: C_8  and  C_16
   10  A    between atoms: C_11  and  N_17
   11  A    between atoms: C_11  and  C_20
   12  A    between atoms: C_14  and  C_34
   13  A    between atoms: O_15  and  C_19
   14  A    between atoms: C_16  and  C_33
   15  A    between atoms: C_18  and  C_26
   16  A    between atoms: C_19  and  C_36
   17  A    between atoms: C_20  and  C_32
   18  A    between atoms: C_23  and  C_27
   19  A    between atoms: C_26  and  C_38
   20  A    between atoms: C_38  and  C_41
                            x       y       z     vdW  Elec       q    Type
                         _______ _______ _______ _____ _____    ______ ____

>  <TORSDO>
F 20

$$$$
