=
 OpenBabel11062422443D

 29 31  0  0  1  0  0  0  0  0999 V2000
  189.3270  175.9940  142.3500 C   0  0  0  0  0  0  0  0  0  0  0  0
  188.8330  173.7490  141.6970 C   0  0  0  0  0  3  0  0  0  0  0  0
  190.4550  177.9380  143.0710 N   0  0  0  0  0  2  0  0  0  0  0  0
  189.1610  177.4500  142.5570 C   0  0  2  0  0  3  0  0  0  0  0  0
  190.0980  173.3840  142.0680 N   0  0  0  0  0  0  0  0  0  0  0  0
  190.5790  175.6140  142.7130 C   0  0  0  0  0  0  0  0  0  0  0  0
  191.3560  176.7750  143.1920 C   0  0  2  0  0  3  0  0  0  0  0  0
  190.9870  174.2890  142.5700 C   0  0  0  0  0  3  0  0  0  0  0  0
  188.4130  175.0810  141.8260 C   0  0  0  0  0  3  0  0  0  0  0  0
  185.9710  178.3070  145.3240 C   0  0  0  0  0  0  0  0  0  0  0  0
  188.1950  177.4310  144.8960 C   0  0  0  0  0  3  0  0  0  0  0  0
  185.8430  178.6180  143.9650 C   0  0  0  0  0  3  0  0  0  0  0  0
  186.8840  178.3390  143.0740 C   0  0  0  0  0  3  0  0  0  0  0  0
  187.1530  177.7110  145.7850 C   0  0  0  0  0  3  0  0  0  0  0  0
  188.0640  177.7480  143.5340 C   0  0  0  0  0  0  0  0  0  0  0  0
  185.0940  178.5980  147.6280 O   0  0  0  0  0  1  0  0  0  0  0  0
  184.8710  178.6050  146.2560 C   0  0  0  0  0  0  0  0  0  0  0  0
  183.7190  178.8700  145.8210 O   0  0  0  0  0  0  0  0  0  0  0  0
  191.7470  176.5780  144.6510 C   0  0  0  0  0  2  0  0  0  0  0  0
  193.0920  177.0820  144.8840 N   0  0  0  0  0  2  0  0  0  0  0  0
  193.7070  176.2410  145.9010 C   0  0  1  0  0  3  0  0  0  0  0  0
  192.8130  175.0430  146.1880 C   0  0  0  0  0  1  0  0  0  0  0  0
  195.1290  175.8350  145.4840 C   0  0  2  0  0  3  0  0  0  0  0  0
  195.3430  175.8590  144.0000 C   0  0  0  0  0  0  0  0  0  0  0  0
  194.7110  174.9140  143.2030 O   0  0  0  0  0  0  0  0  0  0  0  0
  196.1080  176.7090  143.4710 O   0  0  0  0  0  1  0  0  0  0  0  0
  195.5400  174.4950  146.0830 C   0  0  0  0  0  2  0  0  0  0  0  0
  196.9450  172.8120  145.8480 C   0  0  0  0  0  1  0  0  0  0  0  0
  196.8560  174.1970  145.7290 O   0  0  0  0  0  0  0  0  0  0  0  0
  1  4  1  0  0  0  0
  1  6  1  0  0  0  0
  2  9  1  0  0  0  0
  2  5  2  0  0  0  0
  3  7  1  0  0  0  0
  4  3  1  0  0  0  0
  4 15  1  1  0  0  0
  5  8  1  0  0  0  0
  6  7  1  0  0  0  0
  7 19  1  1  0  0  0
  8  6  2  0  0  0  0
  9  1  2  0  0  0  0
 10 14  1  0  0  0  0
 10 17  1  0  0  0  0
 11 14  2  0  0  0  0
 12 10  2  0  0  0  0
 13 15  2  0  0  0  0
 13 12  1  0  0  0  0
 15 11  1  0  0  0  0
 17 16  1  0  0  0  0
 18 17  2  0  0  0  0
 19 20  1  0  0  0  0
 20 21  1  0  0  0  0
 21 22  1  6  0  0  0
 23 21  1  0  0  0  0
 23 27  1  6  0  0  0
 24 23  1  0  0  0  0
 25 24  2  0  0  0  0
 26 24  1  0  0  0  0
 29 28  1  0  0  0  0
 29 27  1  0  0  0  0
M  END
>  <MODEL>
1

>  <REMARK>
 VINA RESULT:      -6.5      0.000      0.000
  Name = 
  9 active torsions:
  status: ('A' for Active; 'I' for Inactive)
    1  A    between atoms: C_1  and  N_2
    2  A    between atoms: C_1  and  C_6
    3  A    between atoms: N_2  and  C_18
    4  A    between atoms: C_6  and  C_7
    5  A    between atoms: C_6  and  C_28
    6  A    between atoms: C_8  and  C_9
    7  A    between atoms: C_17  and  C_24
    8  A    between atoms: C_18  and  C_26
    9  A    between atoms: O_22  and  C_28
                            x       y       z     vdW  Elec       q    Type
                         _______ _______ _______ _____ _____    ______ ____

>  <TORSDO>
F 9

$$$$
=
 OpenBabel11062422443D

 29 31  0  0  1  0  0  0  0  0999 V2000
  190.6310  175.7030  146.9700 C   0  0  0  0  0  0  0  0  0  0  0  0
  192.4450  177.0660  147.7190 C   0  0  0  0  0  3  0  0  0  0  0  0
  189.3600  174.0290  145.8950 N   0  0  0  0  0  2  0  0  0  0  0  0
  189.2710  175.1250  146.8790 C   0  0  2  0  0  3  0  0  0  0  0  0
  193.2740  176.4000  146.8590 N   0  0  0  0  0  0  0  0  0  0  0  0
  191.4690  175.0520  146.1220 C   0  0  0  0  0  0  0  0  0  0  0  0
  190.7470  173.9890  145.3940 C   0  0  2  0  0  3  0  0  0  0  0  0
  192.8180  175.3940  146.0590 C   0  0  0  0  0  3  0  0  0  0  0  0
  191.0870  176.7260  147.8000 C   0  0  0  0  0  3  0  0  0  0  0  0
  186.3600  178.0600  145.6620 C   0  0  0  0  0  0  0  0  0  0  0  0
  188.4700  176.9170  145.2830 C   0  0  0  0  0  3  0  0  0  0  0  0
  186.1620  177.2890  146.8150 C   0  0  0  0  0  3  0  0  0  0  0  0
  187.1100  176.3370  147.2010 C   0  0  0  0  0  3  0  0  0  0  0  0
  187.5200  177.8690  144.8990 C   0  0  0  0  0  3  0  0  0  0  0  0
  188.2650  176.1450  146.4380 C   0  0  0  0  0  0  0  0  0  0  0  0
  184.0800  179.0290  145.8080 O   0  0  0  0  0  1  0  0  0  0  0  0
  185.3570  179.0590  145.2610 C   0  0  0  0  0  0  0  0  0  0  0  0
  185.6440  179.9510  144.4180 O   0  0  0  0  0  0  0  0  0  0  0  0
  190.7620  174.2760  143.8980 C   0  0  0  0  0  2  0  0  0  0  0  0
  189.4040  174.4530  143.4070 N   0  0  0  0  0  2  0  0  0  0  0  0
  189.2800  173.6920  142.1710 C   0  0  1  0  0  3  0  0  0  0  0  0
  188.7810  172.2870  142.4800 C   0  0  0  0  0  1  0  0  0  0  0  0
  188.3880  174.4320  141.1620 C   0  0  2  0  0  3  0  0  0  0  0  0
  188.7900  174.2010  139.7350 C   0  0  0  0  0  0  0  0  0  0  0  0
  190.0210  173.6260  139.4560 O   0  0  0  0  0  1  0  0  0  0  0  0
  188.0340  174.5450  138.7880 O   0  0  0  0  0  0  0  0  0  0  0  0
  188.2820  175.9190  141.4760 C   0  0  0  0  0  2  0  0  0  0  0  0
  186.7020  177.2780  140.7580 C   0  0  0  0  0  1  0  0  0  0  0  0
  186.9470  176.2680  141.6850 O   0  0  0  0  0  0  0  0  0  0  0  0
  1  9  1  0  0  0  0
  2  9  2  0  0  0  0
  3  4  1  0  0  0  0
  4 15  1  6  0  0  0
  4  1  1  0  0  0  0
  5  2  1  0  0  0  0
  6  1  2  0  0  0  0
  7 19  1  6  0  0  0
  7  3  1  0  0  0  0
  7  6  1  0  0  0  0
  8  6  1  0  0  0  0
  8  5  2  0  0  0  0
 10 12  1  0  0  0  0
 11 15  2  0  0  0  0
 12 13  2  0  0  0  0
 14 11  1  0  0  0  0
 14 10  2  0  0  0  0
 15 13  1  0  0  0  0
 17 10  1  0  0  0  0
 17 16  1  0  0  0  0
 18 17  2  0  0  0  0
 20 19  1  0  0  0  0
 21 22  1  1  0  0  0
 21 20  1  0  0  0  0
 23 27  1  1  0  0  0
 23 21  1  0  0  0  0
 24 23  1  0  0  0  0
 25 24  1  0  0  0  0
 26 24  2  0  0  0  0
 27 29  1  0  0  0  0
 28 29  1  0  0  0  0
M  END
>  <MODEL>
2

>  <REMARK>
 VINA RESULT:      -6.5      3.207      5.962
  Name = 
  9 active torsions:
  status: ('A' for Active; 'I' for Inactive)
    1  A    between atoms: C_1  and  N_2
    2  A    between atoms: C_1  and  C_6
    3  A    between atoms: N_2  and  C_18
    4  A    between atoms: C_6  and  C_7
    5  A    between atoms: C_6  and  C_28
    6  A    between atoms: C_8  and  C_9
    7  A    between atoms: C_17  and  C_24
    8  A    between atoms: C_18  and  C_26
    9  A    between atoms: O_22  and  C_28
                            x       y       z     vdW  Elec       q    Type
                         _______ _______ _______ _____ _____    ______ ____

>  <TORSDO>
F 9

$$$$
=
 OpenBabel11062422443D

 29 31  0  0  1  0  0  0  0  0999 V2000
  188.9660  175.5310  142.2890 C   0  0  0  0  0  0  0  0  0  0  0  0
  188.2090  173.2970  141.9060 C   0  0  0  0  0  3  0  0  0  0  0  0
  190.3310  177.4100  142.7070 N   0  0  0  0  0  2  0  0  0  0  0  0
  188.9520  177.0090  142.3700 C   0  0  2  0  0  3  0  0  0  0  0  0
  189.4690  172.8440  142.1870 N   0  0  0  0  0  0  0  0  0  0  0  0
  190.2110  175.0640  142.5650 C   0  0  0  0  0  0  0  0  0  0  0  0
  191.1320  176.1810  142.8530 C   0  0  2  0  0  3  0  0  0  0  0  0
  190.4820  173.6980  142.5110 C   0  0  0  0  0  3  0  0  0  0  0  0
  187.9250  174.6700  141.9460 C   0  0  0  0  0  3  0  0  0  0  0  0
  186.1600  178.4190  145.3330 C   0  0  0  0  0  0  0  0  0  0  0  0
  188.1330  177.1250  144.7610 C   0  0  0  0  0  3  0  0  0  0  0  0
  186.0230  178.7850  143.9880 C   0  0  0  0  0  3  0  0  0  0  0  0
  186.9340  178.3250  143.0330 C   0  0  0  0  0  3  0  0  0  0  0  0
  187.2200  177.5860  145.7140 C   0  0  0  0  0  3  0  0  0  0  0  0
  187.9940  177.4960  143.4140 C   0  0  0  0  0  0  0  0  0  0  0  0
  185.6430  179.4020  147.5530 O   0  0  0  0  0  1  0  0  0  0  0  0
  185.1970  178.9090  146.3330 C   0  0  0  0  0  0  0  0  0  0  0  0
  183.9600  178.8870  146.0920 O   0  0  0  0  0  0  0  0  0  0  0  0
  191.6550  176.0740  144.2800 C   0  0  0  0  0  2  0  0  0  0  0  0
  192.6480  177.1070  144.5300 N   0  0  0  0  0  2  0  0  0  0  0  0
  193.7350  176.4990  145.2860 C   0  0  1  0  0  3  0  0  0  0  0  0
  193.2590  176.1630  146.6920 C   0  0  0  0  0  1  0  0  0  0  0  0
  194.3000  175.2800  144.5410 C   0  0  2  0  0  3  0  0  0  0  0  0
  194.8440  174.2250  145.4580 C   0  0  0  0  0  0  0  0  0  0  0  0
  194.1210  173.0580  145.6640 O   0  0  0  0  0  0  0  0  0  0  0  0
  195.9360  174.3960  146.0640 O   0  0  0  0  0  1  0  0  0  0  0  0
  195.3230  175.6780  143.4840 C   0  0  0  0  0  2  0  0  0  0  0  0
  197.1580  176.8300  143.0750 C   0  0  0  0  0  1  0  0  0  0  0  0
  196.0500  176.7870  143.9180 O   0  0  0  0  0  0  0  0  0  0  0  0
  1  4  1  0  0  0  0
  1  6  1  0  0  0  0
  2  9  1  0  0  0  0
  2  5  2  0  0  0  0
  3  7  1  0  0  0  0
  4  3  1  0  0  0  0
  4 15  1  1  0  0  0
  5  8  1  0  0  0  0
  6  7  1  0  0  0  0
  7 19  1  1  0  0  0
  8  6  2  0  0  0  0
  9  1  2  0  0  0  0
 10 14  1  0  0  0  0
 10 17  1  0  0  0  0
 11 14  2  0  0  0  0
 12 10  2  0  0  0  0
 13 15  2  0  0  0  0
 13 12  1  0  0  0  0
 15 11  1  0  0  0  0
 17 16  1  0  0  0  0
 18 17  2  0  0  0  0
 19 20  1  0  0  0  0
 20 21  1  0  0  0  0
 21 22  1  1  0  0  0
 23 27  1  6  0  0  0
 23 21  1  0  0  0  0
 23 24  1  0  0  0  0
 24 25  2  0  0  0  0
 24 26  1  0  0  0  0
 27 29  1  0  0  0  0
 28 29  1  0  0  0  0
M  END
>  <MODEL>
3

>  <REMARK>
 VINA RESULT:      -6.5      0.948      1.666
  Name = 
  9 active torsions:
  status: ('A' for Active; 'I' for Inactive)
    1  A    between atoms: C_1  and  N_2
    2  A    between atoms: C_1  and  C_6
    3  A    between atoms: N_2  and  C_18
    4  A    between atoms: C_6  and  C_7
    5  A    between atoms: C_6  and  C_28
    6  A    between atoms: C_8  and  C_9
    7  A    between atoms: C_17  and  C_24
    8  A    between atoms: C_18  and  C_26
    9  A    between atoms: O_22  and  C_28
                            x       y       z     vdW  Elec       q    Type
                         _______ _______ _______ _____ _____    ______ ____

>  <TORSDO>
F 9

$$$$
=
 OpenBabel11062422443D

 29 31  0  0  1  0  0  0  0  0999 V2000
  190.5530  175.7620  147.0100 C   0  0  0  0  0  0  0  0  0  0  0  0
  192.3510  177.1240  147.7990 C   0  0  0  0  0  3  0  0  0  0  0  0
  189.3030  174.0980  145.8960 N   0  0  0  0  0  2  0  0  0  0  0  0
  189.1980  175.1780  146.8960 C   0  0  2  0  0  3  0  0  0  0  0  0
  193.1930  176.4760  146.9370 N   0  0  0  0  0  0  0  0  0  0  0  0
  191.4030  175.1300  146.1610 C   0  0  0  0  0  0  0  0  0  0  0  0
  190.6950  174.0740  145.4090 C   0  0  2  0  0  3  0  0  0  0  0  0
  192.7510  175.4800  146.1170 C   0  0  0  0  0  3  0  0  0  0  0  0
  190.9940  176.7740  147.8600 C   0  0  0  0  0  3  0  0  0  0  0  0
  186.3210  178.1100  145.5920 C   0  0  0  0  0  0  0  0  0  0  0  0
  187.0320  176.4470  147.2140 C   0  0  0  0  0  3  0  0  0  0  0  0
  187.4770  177.8570  144.8430 C   0  0  0  0  0  3  0  0  0  0  0  0
  188.4060  176.9060  145.2740 C   0  0  0  0  0  3  0  0  0  0  0  0
  186.1040  177.3990  146.7800 C   0  0  0  0  0  3  0  0  0  0  0  0
  188.1910  176.1990  146.4600 C   0  0  0  0  0  0  0  0  0  0  0  0
  185.7040  180.0410  144.1610 O   0  0  0  0  0  0  0  0  0  0  0  0
  185.3480  179.1130  145.1330 C   0  0  0  0  0  0  0  0  0  0  0  0
  184.1840  179.1420  145.6140 O   0  0  0  0  0  1  0  0  0  0  0  0
  190.7240  174.3840  143.9180 C   0  0  0  0  0  2  0  0  0  0  0  0
  189.3690  174.4350  143.3880 N   0  0  0  0  0  2  0  0  0  0  0  0
  189.3570  173.6880  142.1390 C   0  0  1  0  0  3  0  0  0  0  0  0
  188.9880  172.2370  142.4100 C   0  0  0  0  0  1  0  0  0  0  0  0
  188.4280  174.3570  141.1130 C   0  0  2  0  0  3  0  0  0  0  0  0
  188.8160  174.0770  139.6910 C   0  0  0  0  0  0  0  0  0  0  0  0
  190.1190  173.7000  139.3990 O   0  0  0  0  0  1  0  0  0  0  0  0
  187.9790  174.2050  138.7570 O   0  0  0  0  0  0  0  0  0  0  0  0
  188.2800  175.8530  141.3650 C   0  0  0  0  0  2  0  0  0  0  0  0
  186.7760  177.4470  141.1360 C   0  0  0  0  0  1  0  0  0  0  0  0
  186.9480  176.1610  141.6420 O   0  0  0  0  0  0  0  0  0  0  0  0
  1  9  1  0  0  0  0
  2  9  2  0  0  0  0
  3  4  1  0  0  0  0
  4 15  1  6  0  0  0
  4  1  1  0  0  0  0
  5  2  1  0  0  0  0
  6  1  2  0  0  0  0
  7 19  1  6  0  0  0
  7  3  1  0  0  0  0
  7  6  1  0  0  0  0
  8  6  1  0  0  0  0
  8  5  2  0  0  0  0
 10 14  1  0  0  0  0
 12 13  1  0  0  0  0
 12 10  2  0  0  0  0
 13 15  2  0  0  0  0
 14 11  2  0  0  0  0
 15 11  1  0  0  0  0
 16 17  2  0  0  0  0
 17 10  1  0  0  0  0
 17 18  1  0  0  0  0
 20 19  1  0  0  0  0
 21 22  1  1  0  0  0
 21 20  1  0  0  0  0
 23 27  1  6  0  0  0
 23 21  1  0  0  0  0
 24 23  1  0  0  0  0
 25 24  1  0  0  0  0
 26 24  2  0  0  0  0
 27 29  1  0  0  0  0
 28 29  1  0  0  0  0
M  END
>  <MODEL>
4

>  <REMARK>
 VINA RESULT:      -6.4      3.211      5.946
  Name = 
  9 active torsions:
  status: ('A' for Active; 'I' for Inactive)
    1  A    between atoms: C_1  and  N_2
    2  A    between atoms: C_1  and  C_6
    3  A    between atoms: N_2  and  C_18
    4  A    between atoms: C_6  and  C_7
    5  A    between atoms: C_6  and  C_28
    6  A    between atoms: C_8  and  C_9
    7  A    between atoms: C_17  and  C_24
    8  A    between atoms: C_18  and  C_26
    9  A    between atoms: O_22  and  C_28
                            x       y       z     vdW  Elec       q    Type
                         _______ _______ _______ _____ _____    ______ ____

>  <TORSDO>
F 9

$$$$
=
 OpenBabel11062422443D

 29 31  0  0  1  0  0  0  0  0999 V2000
  192.6920  175.4910  145.8120 C   0  0  0  0  0  0  0  0  0  0  0  0
  194.3340  177.1270  146.3930 C   0  0  0  0  0  3  0  0  0  0  0  0
  191.5040  173.7850  144.6950 N   0  0  0  0  0  2  0  0  0  0  0  0
  191.5280  174.5850  145.9350 C   0  0  2  0  0  3  0  0  0  0  0  0
  194.9440  176.9140  145.1880 N   0  0  0  0  0  0  0  0  0  0  0  0
  193.3110  175.2920  144.6200 C   0  0  0  0  0  0  0  0  0  0  0  0
  192.6200  174.2410  143.8450 C   0  0  2  0  0  3  0  0  0  0  0  0
  194.4610  176.0060  144.2910 C   0  0  0  0  0  3  0  0  0  0  0  0
  193.1810  176.4080  146.7410 C   0  0  0  0  0  3  0  0  0  0  0  0
  187.8420  176.7580  146.4390 C   0  0  0  0  0  0  0  0  0  0  0  0
  189.9460  176.4430  145.2670 C   0  0  0  0  0  3  0  0  0  0  0  0
  188.1480  175.6660  147.2610 C   0  0  0  0  0  3  0  0  0  0  0  0
  189.3450  174.9650  147.0890 C   0  0  0  0  0  3  0  0  0  0  0  0
  188.7480  177.1430  145.4410 C   0  0  0  0  0  3  0  0  0  0  0  0
  190.2470  175.3470  146.0920 C   0  0  0  0  0  0  0  0  0  0  0  0
  186.1640  178.4240  145.6830 O   0  0  0  0  0  0  0  0  0  0  0  0
  186.5790  177.4900  146.6250 C   0  0  0  0  0  0  0  0  0  0  0  0
  185.8610  177.2790  147.6390 O   0  0  0  0  0  1  0  0  0  0  0  0
  192.0730  174.8210  142.5470 C   0  0  0  0  0  2  0  0  0  0  0  0
  191.5680  173.7570  141.6940 N   0  0  0  0  0  2  0  0  0  0  0  0
  190.3010  174.2050  141.1340 C   0  0  1  0  0  3  0  0  0  0  0  0
  189.9400  173.3520  139.9270 C   0  0  0  0  0  1  0  0  0  0  0  0
  189.2020  174.2110  142.2080 C   0  0  2  0  0  3  0  0  0  0  0  0
  188.5430  172.8760  142.3900 C   0  0  0  0  0  0  0  0  0  0  0  0
  189.2350  171.8530  143.0220 O   0  0  0  0  0  1  0  0  0  0  0  0
  187.3800  172.6650  141.9530 O   0  0  0  0  0  0  0  0  0  0  0  0
  188.1740  175.3110  141.9690 C   0  0  0  0  0  2  0  0  0  0  0  0
  187.8010  177.4450  141.5620 C   0  0  0  0  0  1  0  0  0  0  0  0
  188.8040  176.5550  141.9390 O   0  0  0  0  0  0  0  0  0  0  0  0
  1  4  1  0  0  0  0
  1  9  1  0  0  0  0
  2  9  2  0  0  0  0
  3  4  1  0  0  0  0
  4 15  1  6  0  0  0
  5  2  1  0  0  0  0
  6  1  2  0  0  0  0
  7 19  1  6  0  0  0
  7  6  1  0  0  0  0
  7  3  1  0  0  0  0
  8  6  1  0  0  0  0
  8  5  2  0  0  0  0
 10 17  1  0  0  0  0
 10 12  1  0  0  0  0
 11 14  1  0  0  0  0
 11 15  2  0  0  0  0
 13 12  2  0  0  0  0
 14 10  2  0  0  0  0
 15 13  1  0  0  0  0
 16 17  2  0  0  0  0
 17 18  1  0  0  0  0
 20 19  1  0  0  0  0
 21 22  1  6  0  0  0
 21 20  1  0  0  0  0
 21 23  1  0  0  0  0
 23 27  1  6  0  0  0
 23 24  1  0  0  0  0
 24 25  1  0  0  0  0
 26 24  2  0  0  0  0
 28 29  1  0  0  0  0
 29 27  1  0  0  0  0
M  END
>  <MODEL>
5

>  <REMARK>
 VINA RESULT:      -6.3      3.075      5.917
  Name = 
  9 active torsions:
  status: ('A' for Active; 'I' for Inactive)
    1  A    between atoms: C_1  and  N_2
    2  A    between atoms: C_1  and  C_6
    3  A    between atoms: N_2  and  C_18
    4  A    between atoms: C_6  and  C_7
    5  A    between atoms: C_6  and  C_28
    6  A    between atoms: C_8  and  C_9
    7  A    between atoms: C_17  and  C_24
    8  A    between atoms: C_18  and  C_26
    9  A    between atoms: O_22  and  C_28
                            x       y       z     vdW  Elec       q    Type
                         _______ _______ _______ _____ _____    ______ ____

>  <TORSDO>
F 9

$$$$
=
 OpenBabel11062422443D

 29 31  0  0  1  0  0  0  0  0999 V2000
  190.6080  175.7910  147.0130 C   0  0  0  0  0  0  0  0  0  0  0  0
  192.2890  177.1650  148.0150 C   0  0  0  0  0  3  0  0  0  0  0  0
  189.5080  174.1710  145.6960 N   0  0  0  0  0  2  0  0  0  0  0  0
  189.2930  175.1570  146.7730 C   0  0  2  0  0  3  0  0  0  0  0  0
  193.2080  176.6310  147.1550 N   0  0  0  0  0  0  0  0  0  0  0  0
  191.5350  175.2730  146.1670 C   0  0  0  0  0  0  0  0  0  0  0  0
  190.9250  174.2520  145.2910 C   0  0  2  0  0  3  0  0  0  0  0  0
  192.8640  175.6880  146.2310 C   0  0  0  0  0  3  0  0  0  0  0  0
  190.9500  176.7480  147.9680 C   0  0  0  0  0  3  0  0  0  0  0  0
  186.3400  178.0440  145.5420 C   0  0  0  0  0  0  0  0  0  0  0  0
  187.1360  176.4200  147.1630 C   0  0  0  0  0  3  0  0  0  0  0  0
  187.4630  177.7830  144.7450 C   0  0  0  0  0  3  0  0  0  0  0  0
  188.4170  176.8460  145.1530 C   0  0  0  0  0  3  0  0  0  0  0  0
  186.1830  177.3570  146.7540 C   0  0  0  0  0  3  0  0  0  0  0  0
  188.2600  176.1630  146.3630 C   0  0  0  0  0  0  0  0  0  0  0  0
  184.0480  178.9920  145.6140 O   0  0  0  0  0  1  0  0  0  0  0  0
  185.3410  179.0330  145.1070 C   0  0  0  0  0  0  0  0  0  0  0  0
  185.6470  179.9260  144.2720 O   0  0  0  0  0  0  0  0  0  0  0  0
  191.0190  174.6880  143.8350 C   0  0  0  0  0  2  0  0  0  0  0  0
  190.0820  173.9280  143.0210 N   0  0  0  0  0  2  0  0  0  0  0  0
  190.2440  174.3630  141.6410 C   0  0  1  0  0  3  0  0  0  0  0  0
  191.1920  173.4220  140.9120 C   0  0  0  0  0  1  0  0  0  0  0  0
  188.8800  174.4900  140.9450 C   0  0  2  0  0  3  0  0  0  0  0  0
  187.9750  175.4950  141.5930 C   0  0  0  0  0  0  0  0  0  0  0  0
  188.1630  176.8470  141.3430 O   0  0  0  0  0  0  0  0  0  0  0  0
  187.0620  175.1290  142.3810 O   0  0  0  0  0  1  0  0  0  0  0  0
  188.1900  173.1400  140.7890 C   0  0  0  0  0  2  0  0  0  0  0  0
  188.1940  173.8020  138.6860 C   0  0  0  0  0  1  0  0  0  0  0  0
  188.3480  172.6710  139.4840 O   0  0  0  0  0  0  0  0  0  0  0  0
  1  9  1  0  0  0  0
  3  4  1  0  0  0  0
  4 15  1  6  0  0  0
  4  1  1  0  0  0  0
  5  2  1  0  0  0  0
  6  8  1  0  0  0  0
  6  1  2  0  0  0  0
  7 19  1  6  0  0  0
  7  3  1  0  0  0  0
  7  6  1  0  0  0  0
  8  5  2  0  0  0  0
  9  2  2  0  0  0  0
 10 14  1  0  0  0  0
 12 13  1  0  0  0  0
 12 10  2  0  0  0  0
 13 15  2  0  0  0  0
 14 11  2  0  0  0  0
 15 11  1  0  0  0  0
 17 10  1  0  0  0  0
 17 16  1  0  0  0  0
 18 17  2  0  0  0  0
 20 19  1  0  0  0  0
 21 22  1  6  0  0  0
 21 20  1  0  0  0  0
 23 27  1  1  0  0  0
 23 24  1  0  0  0  0
 23 21  1  0  0  0  0
 24 26  1  0  0  0  0
 25 24  2  0  0  0  0
 28 29  1  0  0  0  0
 29 27  1  0  0  0  0
M  END
>  <MODEL>
6

>  <REMARK>
 VINA RESULT:      -6.2      3.390      5.851
  Name = 
  9 active torsions:
  status: ('A' for Active; 'I' for Inactive)
    1  A    between atoms: C_1  and  N_2
    2  A    between atoms: C_1  and  C_6
    3  A    between atoms: N_2  and  C_18
    4  A    between atoms: C_6  and  C_7
    5  A    between atoms: C_6  and  C_28
    6  A    between atoms: C_8  and  C_9
    7  A    between atoms: C_17  and  C_24
    8  A    between atoms: C_18  and  C_26
    9  A    between atoms: O_22  and  C_28
                            x       y       z     vdW  Elec       q    Type
                         _______ _______ _______ _____ _____    ______ ____

>  <TORSDO>
F 9

$$$$
=
 OpenBabel11062422443D

 29 31  0  0  1  0  0  0  0  0999 V2000
  192.6370  175.4380  145.7620 C   0  0  0  0  0  0  0  0  0  0  0  0
  194.4010  177.0370  145.9750 C   0  0  0  0  0  3  0  0  0  0  0  0
  191.2580  173.6920  144.9760 N   0  0  0  0  0  2  0  0  0  0  0  0
  191.4620  174.6110  146.1130 C   0  0  2  0  0  3  0  0  0  0  0  0
  194.8550  176.6710  144.7380 N   0  0  0  0  0  0  0  0  0  0  0  0
  193.1020  175.0870  144.5360 C   0  0  0  0  0  0  0  0  0  0  0  0
  192.2830  174.0010  143.9610 C   0  0  2  0  0  3  0  0  0  0  0  0
  194.2340  175.7030  144.0040 C   0  0  0  0  0  3  0  0  0  0  0  0
  193.2700  176.4180  146.5260 C   0  0  0  0  0  3  0  0  0  0  0  0
  187.9360  176.9940  146.7880 C   0  0  0  0  0  0  0  0  0  0  0  0
  190.1670  176.7690  145.8550 C   0  0  0  0  0  3  0  0  0  0  0  0
  188.0140  175.6790  147.2640 C   0  0  0  0  0  3  0  0  0  0  0  0
  189.1600  174.9120  147.0390 C   0  0  0  0  0  3  0  0  0  0  0  0
  189.0190  177.5350  146.0820 C   0  0  0  0  0  3  0  0  0  0  0  0
  190.2400  175.4510  146.3330 C   0  0  0  0  0  0  0  0  0  0  0  0
  185.9290  177.5470  148.1390 O   0  0  0  0  0  1  0  0  0  0  0  0
  186.7250  177.7950  147.0280 C   0  0  0  0  0  0  0  0  0  0  0  0
  186.3980  178.7140  146.2290 O   0  0  0  0  0  0  0  0  0  0  0  0
  191.6100  174.4740  142.6790 C   0  0  0  0  0  2  0  0  0  0  0  0
  190.1630  174.4160  142.8200 N   0  0  0  0  0  2  0  0  0  0  0  0
  189.5800  175.0030  141.6210 C   0  0  1  0  0  3  0  0  0  0  0  0
  188.9870  173.9070  140.7480 C   0  0  0  0  0  1  0  0  0  0  0  0
  188.5590  176.0910  141.9880 C   0  0  2  0  0  3  0  0  0  0  0  0
  189.1640  177.4590  142.1020 C   0  0  0  0  0  0  0  0  0  0  0  0
  190.3980  177.6110  142.7180 O   0  0  0  0  0  1  0  0  0  0  0  0
  188.5550  178.4730  141.6680 O   0  0  0  0  0  0  0  0  0  0  0  0
  187.7610  175.7300  143.2350 C   0  0  0  0  0  2  0  0  0  0  0  0
  185.8310  176.7790  143.4240 C   0  0  0  0  0  1  0  0  0  0  0  0
  186.4080  175.6150  142.9200 O   0  0  0  0  0  0  0  0  0  0  0  0
  1  4  1  0  0  0  0
  1  9  1  0  0  0  0
  2  9  2  0  0  0  0
  3  4  1  0  0  0  0
  4 15  1  6  0  0  0
  5  2  1  0  0  0  0
  6  1  2  0  0  0  0
  7 19  1  6  0  0  0
  7  6  1  0  0  0  0
  7  3  1  0  0  0  0
  8  6  1  0  0  0  0
  8  5  2  0  0  0  0
 10 17  1  0  0  0  0
 10 12  1  0  0  0  0
 11 14  1  0  0  0  0
 11 15  2  0  0  0  0
 13 12  2  0  0  0  0
 14 10  2  0  0  0  0
 15 13  1  0  0  0  0
 17 16  1  0  0  0  0
 18 17  2  0  0  0  0
 19 20  1  0  0  0  0
 21 22  1  1  0  0  0
 21 23  1  0  0  0  0
 21 20  1  0  0  0  0
 23 24  1  0  0  0  0
 23 27  1  1  0  0  0
 24 25  1  0  0  0  0
 26 24  2  0  0  0  0
 29 27  1  0  0  0  0
 29 28  1  0  0  0  0
M  END
>  <MODEL>
7

>  <REMARK>
 VINA RESULT:      -6.1      2.743      5.851
  Name = 
  9 active torsions:
  status: ('A' for Active; 'I' for Inactive)
    1  A    between atoms: C_1  and  N_2
    2  A    between atoms: C_1  and  C_6
    3  A    between atoms: N_2  and  C_18
    4  A    between atoms: C_6  and  C_7
    5  A    between atoms: C_6  and  C_28
    6  A    between atoms: C_8  and  C_9
    7  A    between atoms: C_17  and  C_24
    8  A    between atoms: C_18  and  C_26
    9  A    between atoms: O_22  and  C_28
                            x       y       z     vdW  Elec       q    Type
                         _______ _______ _______ _____ _____    ______ ____

>  <TORSDO>
F 9

$$$$
=
 OpenBabel11062422443D

 29 31  0  0  1  0  0  0  0  0999 V2000
  190.6780  175.8070  146.9710 C   0  0  0  0  0  0  0  0  0  0  0  0
  192.3160  177.1720  148.0490 C   0  0  0  0  0  3  0  0  0  0  0  0
  189.6340  174.1800  145.6160 N   0  0  0  0  0  2  0  0  0  0  0  0
  189.3700  175.1870  146.6620 C   0  0  2  0  0  3  0  0  0  0  0  0
  193.2770  176.6120  147.2540 N   0  0  0  0  0  0  0  0  0  0  0  0
  191.6450  175.2610  146.1900 C   0  0  0  0  0  0  0  0  0  0  0  0
  191.0730  174.2340  145.2960 C   0  0  2  0  0  3  0  0  0  0  0  0
  192.9740  175.6580  146.3270 C   0  0  0  0  0  3  0  0  0  0  0  0
  190.9770  176.7740  147.9290 C   0  0  0  0  0  3  0  0  0  0  0  0
  186.4990  178.1030  145.3140 C   0  0  0  0  0  0  0  0  0  0  0  0
  188.6280  176.9700  145.0280 C   0  0  0  0  0  3  0  0  0  0  0  0
  186.2560  177.3350  146.4600 C   0  0  0  0  0  3  0  0  0  0  0  0
  187.1920  176.3900  146.8890 C   0  0  0  0  0  3  0  0  0  0  0  0
  187.6900  177.9150  144.6010 C   0  0  0  0  0  3  0  0  0  0  0  0
  188.3790  176.2010  146.1760 C   0  0  0  0  0  0  0  0  0  0  0  0
  185.8600  180.0700  143.9420 O   0  0  0  0  0  0  0  0  0  0  0  0
  185.5080  179.0960  144.8680 C   0  0  0  0  0  0  0  0  0  0  0  0
  184.3320  179.0720  145.3190 O   0  0  0  0  0  1  0  0  0  0  0  0
  191.2600  174.6440  143.8410 C   0  0  0  0  0  2  0  0  0  0  0  0
  190.0300  174.4270  143.0950 N   0  0  0  0  0  2  0  0  0  0  0  0
  190.3810  174.3340  141.6850 C   0  0  1  0  0  3  0  0  0  0  0  0
  191.8950  174.2990  141.5320 C   0  0  0  0  0  1  0  0  0  0  0  0
  189.6880  173.1290  141.0290 C   0  0  2  0  0  3  0  0  0  0  0  0
  188.6430  173.5180  140.0270 C   0  0  0  0  0  0  0  0  0  0  0  0
  188.1910  174.8300  139.9850 O   0  0  0  0  0  1  0  0  0  0  0  0
  188.1510  172.6640  139.2410 O   0  0  0  0  0  0  0  0  0  0  0  0
  189.1330  172.1560  142.0630 C   0  0  0  0  0  2  0  0  0  0  0  0
  190.4760  170.6260  141.2180 C   0  0  0  0  0  1  0  0  0  0  0  0
  190.1120  171.2290  142.4200 O   0  0  0  0  0  0  0  0  0  0  0  0
  1  9  1  0  0  0  0
  3  4  1  0  0  0  0
  4 15  1  6  0  0  0
  4  1  1  0  0  0  0
  5  2  1  0  0  0  0
  6  8  1  0  0  0  0
  6  1  2  0  0  0  0
  7 19  1  6  0  0  0
  7  3  1  0  0  0  0
  7  6  1  0  0  0  0
  8  5  2  0  0  0  0
  9  2  2  0  0  0  0
 10 12  1  0  0  0  0
 11 15  2  0  0  0  0
 12 13  2  0  0  0  0
 14 11  1  0  0  0  0
 14 10  2  0  0  0  0
 15 13  1  0  0  0  0
 16 17  2  0  0  0  0
 17 10  1  0  0  0  0
 17 18  1  0  0  0  0
 20 19  1  0  0  0  0
 21 22  1  1  0  0  0
 21 20  1  0  0  0  0
 23 21  1  0  0  0  0
 23 27  1  1  0  0  0
 24 23  1  0  0  0  0
 25 24  1  0  0  0  0
 26 24  2  0  0  0  0
 27 29  1  0  0  0  0
 28 29  1  0  0  0  0
M  END
>  <MODEL>
8

>  <REMARK>
 VINA RESULT:      -6.1      3.133      5.497
  Name = 
  9 active torsions:
  status: ('A' for Active; 'I' for Inactive)
    1  A    between atoms: C_1  and  N_2
    2  A    between atoms: C_1  and  C_6
    3  A    between atoms: N_2  and  C_18
    4  A    between atoms: C_6  and  C_7
    5  A    between atoms: C_6  and  C_28
    6  A    between atoms: C_8  and  C_9
    7  A    between atoms: C_17  and  C_24
    8  A    between atoms: C_18  and  C_26
    9  A    between atoms: O_22  and  C_28
                            x       y       z     vdW  Elec       q    Type
                         _______ _______ _______ _____ _____    ______ ____

>  <TORSDO>
F 9

$$$$
=
 OpenBabel11062422443D

 29 31  0  0  1  0  0  0  0  0999 V2000
  191.7440  176.0010  144.6600 C   0  0  0  0  0  0  0  0  0  0  0  0
  192.8350  174.6750  146.3230 C   0  0  0  0  0  3  0  0  0  0  0  0
  190.4270  177.6390  143.5880 N   0  0  0  0  0  2  0  0  0  0  0  0
  191.3970  176.5570  143.3330 C   0  0  2  0  0  3  0  0  0  0  0  0
  192.1290  175.3400  147.2870 N   0  0  0  0  0  0  0  0  0  0  0  0
  191.0520  176.6510  145.6310 C   0  0  0  0  0  0  0  0  0  0  0  0
  190.1870  177.6920  145.0420 C   0  0  2  0  0  3  0  0  0  0  0  0
  191.2420  176.3280  146.9730 C   0  0  0  0  0  3  0  0  0  0  0  0
  192.6610  174.9970  144.9690 C   0  0  0  0  0  3  0  0  0  0  0  0
  189.7220  173.5350  140.7580 C   0  0  0  0  0  0  0  0  0  0  0  0
  189.4070  175.3700  142.3180 C   0  0  0  0  0  3  0  0  0  0  0  0
  191.1100  173.6830  140.8820 C   0  0  0  0  0  3  0  0  0  0  0  0
  191.6450  174.6670  141.7170 C   0  0  0  0  0  3  0  0  0  0  0  0
  188.8740  174.3850  141.4810 C   0  0  0  0  0  3  0  0  0  0  0  0
  190.7980  175.5160  142.4370 C   0  0  0  0  0  0  0  0  0  0  0  0
  189.9220  171.3790  139.5450 O   0  0  0  0  0  1  0  0  0  0  0  0
  189.1660  172.4980  139.8750 C   0  0  0  0  0  0  0  0  0  0  0  0
  188.0010  172.6120  139.4090 O   0  0  0  0  0  0  0  0  0  0  0  0
  188.7240  177.3830  145.3320 C   0  0  0  0  0  2  0  0  0  0  0  0
  187.8710  177.9840  144.3180 N   0  0  0  0  0  2  0  0  0  0  0  0
  186.4930  177.6510  144.6480 C   0  0  1  0  0  3  0  0  0  0  0  0
  186.4650  176.6100  145.7570 C   0  0  0  0  0  1  0  0  0  0  0  0
  185.6960  178.9170  145.0000 C   0  0  2  0  0  3  0  0  0  0  0  0
  185.1810  178.9210  146.4090 C   0  0  0  0  0  0  0  0  0  0  0  0
  183.9280  178.3900  146.6810 O   0  0  0  0  0  0  0  0  0  0  0  0
  185.8610  179.4240  147.3430 O   0  0  0  0  0  1  0  0  0  0  0  0
  184.5780  179.1860  143.9990 C   0  0  0  0  0  2  0  0  0  0  0  0
  183.8840  178.1940  142.1570 C   0  0  0  0  0  1  0  0  0  0  0  0
  184.9910  178.8290  142.7150 O   0  0  0  0  0  0  0  0  0  0  0  0
  1  9  2  0  0  0  0
  1  6  1  0  0  0  0
  2  5  2  0  0  0  0
  3  7  1  0  0  0  0
  4 15  1  6  0  0  0
  4  3  1  0  0  0  0
  4  1  1  0  0  0  0
  6  8  2  0  0  0  0
  7 19  1  6  0  0  0
  7  6  1  0  0  0  0
  8  5  1  0  0  0  0
  9  2  1  0  0  0  0
 10 12  2  0  0  0  0
 10 14  1  0  0  0  0
 11 15  1  0  0  0  0
 12 13  1  0  0  0  0
 13 15  2  0  0  0  0
 14 11  2  0  0  0  0
 16 17  1  0  0  0  0
 17 10  1  0  0  0  0
 18 17  2  0  0  0  0
 20 21  1  0  0  0  0
 20 19  1  0  0  0  0
 21 23  1  0  0  0  0
 21 22  1  1  0  0  0
 23 27  1  6  0  0  0
 23 24  1  0  0  0  0
 24 25  2  0  0  0  0
 24 26  1  0  0  0  0
 28 29  1  0  0  0  0
 29 27  1  0  0  0  0
M  END
>  <MODEL>
9

>  <REMARK>
 VINA RESULT:      -6.1      3.342      8.015
  Name = 
  9 active torsions:
  status: ('A' for Active; 'I' for Inactive)
    1  A    between atoms: C_1  and  N_2
    2  A    between atoms: C_1  and  C_6
    3  A    between atoms: N_2  and  C_18
    4  A    between atoms: C_6  and  C_7
    5  A    between atoms: C_6  and  C_28
    6  A    between atoms: C_8  and  C_9
    7  A    between atoms: C_17  and  C_24
    8  A    between atoms: C_18  and  C_26
    9  A    between atoms: O_22  and  C_28
                            x       y       z     vdW  Elec       q    Type
                         _______ _______ _______ _____ _____    ______ ____

>  <TORSDO>
F 9

$$$$
