=
 OpenBabel11062419053D

 32 37  0  0  1  0  0  0  0  0999 V2000
  186.4980  177.2000  140.3330 C   0  0  0  0  0  3  0  0  0  0  0  0
  187.6850  177.7170  144.3800 C   0  0  0  0  0  3  0  0  0  0  0  0
  186.5430  178.3250  143.8330 C   0  0  0  0  0  0  0  0  0  0  0  0
  188.1600  176.5940  142.2520 C   0  0  0  0  0  0  0  0  0  0  0  0
  189.7310  176.2250  144.1710 C   0  0  2  0  0  3  0  0  0  0  0  0
  185.2150  178.5940  141.7500 O   0  0  0  0  0  0  0  0  0  0  0  0
  188.5090  176.8850  143.5960 C   0  0  0  0  0  0  0  0  0  0  0  0
  190.5010  177.0990  145.5620 S   0  0  0  0  0  0  0  0  0  0  0  0
  191.8940  175.5570  143.8180 C   0  0  0  0  0  2  0  0  0  0  0  0
  189.0340  175.6720  141.4030 C   0  0  1  0  0  3  0  0  0  0  0  0
  190.7370  176.0950  143.1330 N   0  0  1  0  0  0  0  0  0  0  0  0
  185.2630  178.1180  140.4080 C   0  0  0  0  0  3  0  0  0  0  0  0
  190.2390  175.1090  142.1850 C   0  0  0  0  0  2  0  0  0  0  0  0
  186.2590  178.0740  142.4850 C   0  0  0  0  0  0  0  0  0  0  0  0
  187.0360  177.2460  141.7210 C   0  0  0  0  0  0  0  0  0  0  0  0
  192.1070  176.3810  145.0770 C   0  0  2  0  0  3  0  0  0  0  0  0
  189.0650  173.6040  140.0300 C   0  0  0  0  0  2  0  0  0  0  0  0
  188.2230  174.5630  139.4430 O   0  0  0  0  0  0  0  0  0  0  0  0
  188.2200  174.5040  140.8510 C   0  0  2  0  0  3  0  0  0  0  0  0
  185.5170  180.4030  144.3180 O   0  0  0  0  0  0  0  0  0  0  0  0
  185.6980  179.2030  144.6660 C   0  0  0  0  0  0  0  0  0  0  0  0
  185.1050  178.6970  145.8320 O   0  0  0  0  0  0  0  0  0  0  0  0
  185.7280  178.6000  147.0830 C   0  0  0  0  0  0  0  0  0  0  0  0
  185.9680  179.6500  147.7310 O   0  0  0  0  0  0  0  0  0  0  0  0
  186.0990  177.3400  147.6400 N   0  0  0  0  0  1  0  0  0  0  0  0
  192.6040  175.5420  146.1140 O   0  0  0  0  0  0  0  0  0  0  0  0
  194.6610  172.5010  145.5180 C   0  0  0  0  0  3  0  0  0  0  0  0
  195.9450  173.0370  145.6370 C   0  0  0  0  0  3  0  0  0  0  0  0
  193.5420  173.3240  145.6750 C   0  0  0  0  0  3  0  0  0  0  0  0
  196.1120  174.3980  145.9130 C   0  0  0  0  0  3  0  0  0  0  0  0
  194.9920  175.2220  146.0690 C   0  0  0  0  0  3  0  0  0  0  0  0
  193.7020  174.6920  145.9500 C   0  0  0  0  0  0  0  0  0  0  0  0
  1 12  2  0  0  0  0
  1 15  1  0  0  0  0
  3  2  1  0  0  0  0
  3 21  1  0  0  0  0
  4  7  1  0  0  0  0
  5  7  1  6  0  0  0
  5  8  1  0  0  0  0
  6 14  1  0  0  0  0
  7  2  2  0  0  0  0
  9 16  1  0  0  0  0
 10 13  1  1  0  0  0
 10  4  1  0  0  0  0
 11 13  1  6  0  0  0
 11  9  1  0  0  0  0
 11  5  1  0  0  0  0
 12  6  1  0  0  0  0
 14  3  2  0  0  0  0
 15  4  2  0  0  0  0
 15 14  1  0  0  0  0
 16  8  1  0  0  0  0
 16 26  1  1  0  0  0
 18 17  1  0  0  0  0
 18 19  1  0  0  0  0
 19 17  1  6  0  0  0
 19 10  1  0  0  0  0
 20 21  2  0  0  0  0
 21 22  1  0  0  0  0
 22 23  1  0  0  0  0
 23 25  1  0  0  0  0
 23 24  2  0  0  0  0
 27 28  2  0  0  0  0
 27 29  1  0  0  0  0
 28 30  1  0  0  0  0
 29 32  2  0  0  0  0
 30 31  2  0  0  0  0
 32 31  1  0  0  0  0
 32 26  1  0  0  0  0
M  END
>  <MODEL>
1

>  <REMARK>
 VINA RESULT:      -7.8      0.000      0.000
  Name = 
  6 active torsions:
  status: ('A' for Active; 'I' for Inactive)
    1  A    between atoms: C_4  and  C_25
    2  A    between atoms: C_9  and  O_22
    3  A    between atoms: O_15  and  C_31
    4  A    between atoms: O_15  and  C_32
    5  A    between atoms: C_17  and  C_29
    6  A    between atoms: O_22  and  C_25
                            x       y       z     vdW  Elec       q    Type
                         _______ _______ _______ _____ _____    ______ ____

>  <TORSDO>
F 6

$$$$
=
 OpenBabel11062419053D

 32 37  0  0  1  0  0  0  0  0999 V2000
  187.4140  176.8960  147.2710 C   0  0  0  0  0  3  0  0  0  0  0  0
  187.0210  176.9260  143.0410 C   0  0  0  0  0  3  0  0  0  0  0  0
  186.1910  177.6750  143.8930 C   0  0  0  0  0  0  0  0  0  0  0  0
  188.3060  176.0890  144.9550 C   0  0  0  0  0  0  0  0  0  0  0  0
  188.9450  175.3130  142.6580 C   0  0  2  0  0  3  0  0  0  0  0  0
  185.7110  178.1990  146.2740 O   0  0  0  0  0  0  0  0  0  0  0  0
  188.0480  176.1140  143.5600 C   0  0  0  0  0  0  0  0  0  0  0  0
  188.2150  174.8300  141.0690 S   0  0  0  0  0  0  0  0  0  0  0  0
  190.1010  173.3580  142.3490 C   0  0  0  0  0  2  0  0  0  0  0  0
  189.4350  175.2310  145.5230 C   0  0  1  0  0  3  0  0  0  0  0  0
  189.3410  174.0940  143.3390 N   0  0  1  0  0  0  0  0  0  0  0  0
  186.2380  177.8510  147.5500 C   0  0  0  0  0  3  0  0  0  0  0  0
  190.2260  174.4870  144.4260 C   0  0  0  0  0  2  0  0  0  0  0  0
  186.4250  177.5790  145.2710 C   0  0  0  0  0  0  0  0  0  0  0  0
  187.4370  176.8160  145.7850 C   0  0  0  0  0  0  0  0  0  0  0  0
  189.2970  173.3610  141.0580 C   0  0  2  0  0  3  0  0  0  0  0  0
  191.5100  175.2520  146.8850 C   0  0  0  0  0  2  0  0  0  0  0  0
  190.4100  175.6290  147.6720 O   0  0  0  0  0  0  0  0  0  0  0  0
  190.4090  176.0790  146.3380 C   0  0  2  0  0  3  0  0  0  0  0  0
  185.0660  179.7390  143.6200 O   0  0  0  0  0  0  0  0  0  0  0  0
  185.1120  178.5110  143.3330 C   0  0  0  0  0  0  0  0  0  0  0  0
  184.1510  177.9350  142.4890 O   0  0  0  0  0  0  0  0  0  0  0  0
  184.0130  178.1940  141.1190 C   0  0  0  0  0  0  0  0  0  0  0  0
  185.0400  178.4360  140.4360 O   0  0  0  0  0  0  0  0  0  0  0  0
  182.7380  178.1900  140.4800 N   0  0  0  0  0  1  0  0  0  0  0  0
  190.1850  173.4120  139.9470 O   0  0  0  0  0  0  0  0  0  0  0  0
  189.7670  172.3510  136.4060 C   0  0  0  0  0  3  0  0  0  0  0  0
  189.7170  170.9640  136.5630 C   0  0  0  0  0  3  0  0  0  0  0  0
  189.9220  173.1750  137.5240 C   0  0  0  0  0  3  0  0  0  0  0  0
  189.8230  170.4000  137.8380 C   0  0  0  0  0  3  0  0  0  0  0  0
  189.9790  171.2250  138.9570 C   0  0  0  0  0  3  0  0  0  0  0  0
  190.0310  172.6150  138.8080 C   0  0  0  0  0  0  0  0  0  0  0  0
  1 12  2  0  0  0  0
  2  7  2  0  0  0  0
  2  3  1  0  0  0  0
  3 14  2  0  0  0  0
  4 10  1  0  0  0  0
  4 15  2  0  0  0  0
  5  8  1  6  0  0  0
  5 11  1  0  0  0  0
  5  7  1  0  0  0  0
  6 12  1  0  0  0  0
  7  4  1  0  0  0  0
 10 13  1  6  0  0  0
 10 19  1  0  0  0  0
 11  9  1  6  0  0  0
 11 13  1  0  0  0  0
 14 15  1  0  0  0  0
 14  6  1  0  0  0  0
 15  1  1  0  0  0  0
 16 26  1  6  0  0  0
 16  8  1  0  0  0  0
 16  9  1  0  0  0  0
 17 18  1  0  0  0  0
 19 17  1  6  0  0  0
 19 18  1  0  0  0  0
 21 20  2  0  0  0  0
 21  3  1  0  0  0  0
 22 21  1  0  0  0  0
 23 22  1  0  0  0  0
 24 23  2  0  0  0  0
 25 23  1  0  0  0  0
 27 28  2  0  0  0  0
 27 29  1  0  0  0  0
 28 30  1  0  0  0  0
 29 32  2  0  0  0  0
 30 31  2  0  0  0  0
 32 31  1  0  0  0  0
 32 26  1  0  0  0  0
M  END
>  <MODEL>
2

>  <REMARK>
 VINA RESULT:      -7.5      2.711      6.243
  Name = 
  6 active torsions:
  status: ('A' for Active; 'I' for Inactive)
    1  A    between atoms: C_4  and  C_25
    2  A    between atoms: C_9  and  O_22
    3  A    between atoms: O_15  and  C_31
    4  A    between atoms: O_15  and  C_32
    5  A    between atoms: C_17  and  C_29
    6  A    between atoms: O_22  and  C_25
                            x       y       z     vdW  Elec       q    Type
                         _______ _______ _______ _____ _____    ______ ____

>  <TORSDO>
F 6

$$$$
=
 OpenBabel11062419053D

 32 37  0  0  1  0  0  0  0  0999 V2000
  185.7760  177.9300  146.0370 C   0  0  0  0  0  3  0  0  0  0  0  0
  186.1370  177.0720  141.8910 C   0  0  0  0  0  3  0  0  0  0  0  0
  185.0620  177.7970  142.4330 C   0  0  0  0  0  0  0  0  0  0  0  0
  187.1790  176.8790  144.1020 C   0  0  0  0  0  0  0  0  0  0  0  0
  188.3280  175.8140  142.1460 C   0  0  2  0  0  3  0  0  0  0  0  0
  184.0920  178.6670  144.5480 O   0  0  0  0  0  0  0  0  0  0  0  0
  187.1720  176.5860  142.7140 C   0  0  0  0  0  0  0  0  0  0  0  0
  187.9760  174.9050  140.6160 S   0  0  0  0  0  0  0  0  0  0  0  0
  189.8150  174.0940  142.4390 C   0  0  0  0  0  2  0  0  0  0  0  0
  188.3110  176.3790  144.9970 C   0  0  1  0  0  3  0  0  0  0  0  0
  188.7860  174.8470  143.1260 N   0  0  1  0  0  0  0  0  0  0  0  0
  184.4330  178.6780  145.9310 C   0  0  0  0  0  3  0  0  0  0  0  0
  189.3910  175.6030  144.2140 C   0  0  0  0  0  2  0  0  0  0  0  0
  185.0600  178.0150  143.8160 C   0  0  0  0  0  0  0  0  0  0  0  0
  186.0740  177.5720  144.6220 C   0  0  0  0  0  0  0  0  0  0  0  0
  189.2620  173.6960  141.0800 C   0  0  2  0  0  3  0  0  0  0  0  0
  189.9970  177.0460  146.6930 C   0  0  0  0  0  2  0  0  0  0  0  0
  188.7110  177.4260  147.1120 O   0  0  0  0  0  0  0  0  0  0  0  0
  188.9790  177.5380  145.7340 C   0  0  2  0  0  3  0  0  0  0  0  0
  184.2600  178.7040  140.3980 O   0  0  0  0  0  0  0  0  0  0  0  0
  183.9810  178.2890  141.5560 C   0  0  0  0  0  0  0  0  0  0  0  0
  182.6570  178.2910  142.0190 O   0  0  0  0  0  0  0  0  0  0  0  0
  181.5210  178.5150  141.2300 C   0  0  0  0  0  0  0  0  0  0  0  0
  181.4060  177.9060  140.1360 O   0  0  0  0  0  0  0  0  0  0  0  0
  180.4930  179.4160  141.6350 N   0  0  0  0  0  1  0  0  0  0  0  0
  190.3130  173.7020  140.1200 O   0  0  0  0  0  0  0  0  0  0  0  0
  190.0680  170.9540  137.6250 C   0  0  0  0  0  3  0  0  0  0  0  0
  190.1130  171.6880  136.4370 C   0  0  0  0  0  3  0  0  0  0  0  0
  190.1330  171.6130  138.8560 C   0  0  0  0  0  3  0  0  0  0  0  0
  190.2240  173.0810  136.4790 C   0  0  0  0  0  3  0  0  0  0  0  0
  190.2890  173.7410  137.7110 C   0  0  0  0  0  3  0  0  0  0  0  0
  190.2430  173.0130  138.9060 C   0  0  0  0  0  0  0  0  0  0  0  0
  2  3  2  0  0  0  0
  2  7  1  0  0  0  0
  3 14  1  0  0  0  0
  4 15  1  0  0  0  0
  4 10  1  0  0  0  0
  5  8  1  6  0  0  0
  5  7  1  0  0  0  0
  5 11  1  0  0  0  0
  6 12  1  0  0  0  0
  7  4  2  0  0  0  0
  8 16  1  0  0  0  0
 10 13  1  6  0  0  0
 10 19  1  0  0  0  0
 11  9  1  6  0  0  0
 11 13  1  0  0  0  0
 12  1  2  0  0  0  0
 14  6  1  0  0  0  0
 14 15  2  0  0  0  0
 15  1  1  0  0  0  0
 16 26  1  6  0  0  0
 16  9  1  0  0  0  0
 17 18  1  0  0  0  0
 19 17  1  1  0  0  0
 19 18  1  0  0  0  0
 20 21  2  0  0  0  0
 21 22  1  0  0  0  0
 21  3  1  0  0  0  0
 23 25  1  0  0  0  0
 23 22  1  0  0  0  0
 24 23  2  0  0  0  0
 27 29  1  0  0  0  0
 28 30  1  0  0  0  0
 28 27  2  0  0  0  0
 29 32  2  0  0  0  0
 30 31  2  0  0  0  0
 31 32  1  0  0  0  0
 32 26  1  0  0  0  0
M  END
>  <MODEL>
3

>  <REMARK>
 VINA RESULT:      -7.3      3.367      6.191
  Name = 
  6 active torsions:
  status: ('A' for Active; 'I' for Inactive)
    1  A    between atoms: C_4  and  C_25
    2  A    between atoms: C_9  and  O_22
    3  A    between atoms: O_15  and  C_31
    4  A    between atoms: O_15  and  C_32
    5  A    between atoms: C_17  and  C_29
    6  A    between atoms: O_22  and  C_25
                            x       y       z     vdW  Elec       q    Type
                         _______ _______ _______ _____ _____    ______ ____

>  <TORSDO>
F 6

$$$$
=
 OpenBabel11062419053D

 32 37  0  0  1  0  0  0  0  0999 V2000
  194.9940  174.5570  141.8210 C   0  0  0  0  0  3  0  0  0  0  0  0
  190.7580  174.2410  141.8190 C   0  0  0  0  0  3  0  0  0  0  0  0
  191.5680  173.6850  140.8150 C   0  0  0  0  0  0  0  0  0  0  0  0
  192.7330  175.0440  143.0300 C   0  0  0  0  0  0  0  0  0  0  0  0
  190.4680  175.5370  143.9840 C   0  0  2  0  0  3  0  0  0  0  0  0
  193.9160  173.4250  140.0450 O   0  0  0  0  0  0  0  0  0  0  0  0
  191.3240  174.9430  142.9010 C   0  0  0  0  0  0  0  0  0  0  0  0
  188.7840  175.9860  143.4820 S   0  0  0  0  0  0  0  0  0  0  0  0
  190.1490  177.2820  145.4350 C   0  0  0  0  0  2  0  0  0  0  0  0
  193.3560  175.7810  144.2140 C   0  0  1  0  0  3  0  0  0  0  0  0
  191.1030  176.7400  144.4890 N   0  0  1  0  0  0  0  0  0  0  0  0
  195.2140  173.7990  140.4980 C   0  0  0  0  0  3  0  0  0  0  0  0
  192.2990  176.3180  145.2030 C   0  0  0  0  0  2  0  0  0  0  0  0
  192.9520  173.8580  140.9310 C   0  0  0  0  0  0  0  0  0  0  0  0
  193.5160  174.5130  141.9920 C   0  0  0  0  0  0  0  0  0  0  0  0
  188.7860  177.2860  144.7630 C   0  0  2  0  0  3  0  0  0  0  0  0
  194.9050  175.5770  146.1430 C   0  0  0  0  0  2  0  0  0  0  0  0
  195.6120  175.4380  144.9370 O   0  0  0  0  0  0  0  0  0  0  0  0
  194.3210  174.8750  144.9750 C   0  0  2  0  0  3  0  0  0  0  0  0
  191.1900  171.7320  139.5320 O   0  0  0  0  0  0  0  0  0  0  0  0
  190.9560  172.9630  139.6820 C   0  0  0  0  0  0  0  0  0  0  0  0
  190.1250  173.6500  138.7850 O   0  0  0  0  0  0  0  0  0  0  0  0
  188.7250  173.6650  138.8240 C   0  0  0  0  0  0  0  0  0  0  0  0
  188.1240  172.8450  139.5630 O   0  0  0  0  0  0  0  0  0  0  0  0
  187.9630  174.5870  138.0470 N   0  0  0  0  0  1  0  0  0  0  0  0
  187.7780  177.0230  145.7330 O   0  0  0  0  0  0  0  0  0  0  0  0
  184.2910  177.9650  146.6210 C   0  0  0  0  0  3  0  0  0  0  0  0
  184.0450  178.9520  145.6640 C   0  0  0  0  0  3  0  0  0  0  0  0
  185.5290  177.3170  146.6540 C   0  0  0  0  0  3  0  0  0  0  0  0
  185.0360  179.2910  144.7380 C   0  0  0  0  0  3  0  0  0  0  0  0
  186.2750  178.6430  144.7710 C   0  0  0  0  0  3  0  0  0  0  0  0
  186.5300  177.6540  145.7280 C   0  0  0  0  0  0  0  0  0  0  0  0
  1 15  1  0  0  0  0
  2  7  1  0  0  0  0
  3 14  1  0  0  0  0
  3  2  2  0  0  0  0
  4 10  1  0  0  0  0
  5  7  1  6  0  0  0
  5 11  1  0  0  0  0
  6 12  1  0  0  0  0
  6 14  1  0  0  0  0
  7  4  2  0  0  0  0
  8  5  1  0  0  0  0
  8 16  1  0  0  0  0
 10 19  1  0  0  0  0
 10 13  1  1  0  0  0
 11 13  1  1  0  0  0
 11  9  1  0  0  0  0
 12  1  2  0  0  0  0
 14 15  2  0  0  0  0
 15  4  1  0  0  0  0
 16  9  1  0  0  0  0
 16 26  1  1  0  0  0
 18 19  1  0  0  0  0
 18 17  1  0  0  0  0
 19 17  1  1  0  0  0
 20 21  2  0  0  0  0
 21  3  1  0  0  0  0
 22 23  1  0  0  0  0
 22 21  1  0  0  0  0
 23 24  2  0  0  0  0
 25 23  1  0  0  0  0
 27 29  1  0  0  0  0
 28 27  2  0  0  0  0
 30 31  2  0  0  0  0
 30 28  1  0  0  0  0
 31 32  1  0  0  0  0
 32 26  1  0  0  0  0
 32 29  2  0  0  0  0
M  END
>  <MODEL>
4

>  <REMARK>
 VINA RESULT:      -7.1      2.705      8.277
  Name = 
  6 active torsions:
  status: ('A' for Active; 'I' for Inactive)
    1  A    between atoms: C_4  and  C_25
    2  A    between atoms: C_9  and  O_22
    3  A    between atoms: O_15  and  C_31
    4  A    between atoms: O_15  and  C_32
    5  A    between atoms: C_17  and  C_29
    6  A    between atoms: O_22  and  C_25
                            x       y       z     vdW  Elec       q    Type
                         _______ _______ _______ _____ _____    ______ ____

>  <TORSDO>
F 6

$$$$
=
 OpenBabel11062419053D

 32 37  0  0  1  0  0  0  0  0999 V2000
  192.9370  172.4220  140.8540 C   0  0  0  0  0  3  0  0  0  0  0  0
  192.8080  176.2290  142.7370 C   0  0  0  0  0  3  0  0  0  0  0  0
  194.0080  175.5890  142.3840 C   0  0  0  0  0  0  0  0  0  0  0  0
  191.4950  174.3880  141.7880 C   0  0  0  0  0  0  0  0  0  0  0  0
  190.2720  176.3040  142.8450 C   0  0  2  0  0  3  0  0  0  0  0  0
  194.9620  173.5300  141.3720 O   0  0  0  0  0  0  0  0  0  0  0  0
  191.5620  175.6270  142.4760 C   0  0  0  0  0  0  0  0  0  0  0  0
  190.3720  177.4510  144.2460 S   0  0  0  0  0  0  0  0  0  0  0  0
  188.1300  176.0550  143.6230 C   0  0  0  0  0  2  0  0  0  0  0  0
  190.1470  173.7410  141.4770 C   0  0  1  0  0  3  0  0  0  0  0  0
  189.2830  175.2960  143.1820 N   0  0  1  0  0  0  0  0  0  0  0  0
  194.4730  172.3240  140.7920 C   0  0  0  0  0  3  0  0  0  0  0  0
  188.9530  174.5990  141.9470 C   0  0  0  0  0  2  0  0  0  0  0  0
  193.9150  174.3360  141.7660 C   0  0  0  0  0  0  0  0  0  0  0  0
  192.7100  173.7540  141.4820 C   0  0  0  0  0  0  0  0  0  0  0  0
  188.6200  177.0980  144.6150 C   0  0  2  0  0  3  0  0  0  0  0  0
  188.6900  172.8540  139.6730 C   0  0  0  0  0  2  0  0  0  0  0  0
  189.8660  172.0920  139.7650 O   0  0  0  0  0  0  0  0  0  0  0  0
  189.9990  173.4770  139.9800 C   0  0  2  0  0  3  0  0  0  0  0  0
  196.0010  176.6850  141.7280 O   0  0  0  0  0  0  0  0  0  0  0  0
  195.3060  176.2290  142.6770 C   0  0  0  0  0  0  0  0  0  0  0  0
  195.7530  176.3230  144.0030 O   0  0  0  0  0  0  0  0  0  0  0  0
  195.7070  175.2930  144.9500 C   0  0  0  0  0  0  0  0  0  0  0  0
  196.3710  174.2440  144.7480 O   0  0  0  0  0  0  0  0  0  0  0  0
  194.9250  175.4000  146.1380 N   0  0  0  0  0  1  0  0  0  0  0  0
  187.8400  178.2820  144.4810 O   0  0  0  0  0  0  0  0  0  0  0  0
  184.2140  179.0400  144.8120 C   0  0  0  0  0  3  0  0  0  0  0  0
  183.9970  178.6610  146.1380 C   0  0  0  0  0  3  0  0  0  0  0  0
  185.4880  178.9190  144.2500 C   0  0  0  0  0  3  0  0  0  0  0  0
  185.0540  178.1600  146.9040 C   0  0  0  0  0  3  0  0  0  0  0  0
  186.3290  178.0380  146.3420 C   0  0  0  0  0  3  0  0  0  0  0  0
  186.5540  178.4140  145.0130 C   0  0  0  0  0  0  0  0  0  0  0  0
  1 15  1  0  0  0  0
  3 21  1  0  0  0  0
  3  2  2  0  0  0  0
  4  7  2  0  0  0  0
  5  7  1  1  0  0  0
  5 11  1  0  0  0  0
  5  8  1  0  0  0  0
  6 14  1  0  0  0  0
  7  2  1  0  0  0  0
  8 16  1  0  0  0  0
  9 16  1  0  0  0  0
 10  4  1  0  0  0  0
 10 13  1  6  0  0  0
 11 13  1  6  0  0  0
 11  9  1  0  0  0  0
 12  1  2  0  0  0  0
 12  6  1  0  0  0  0
 14  3  1  0  0  0  0
 15 14  2  0  0  0  0
 15  4  1  0  0  0  0
 16 26  1  6  0  0  0
 17 18  1  0  0  0  0
 18 19  1  0  0  0  0
 19 17  1  1  0  0  0
 19 10  1  0  0  0  0
 20 21  2  0  0  0  0
 21 22  1  0  0  0  0
 22 23  1  0  0  0  0
 23 25  1  0  0  0  0
 24 23  2  0  0  0  0
 26 32  1  0  0  0  0
 27 28  1  0  0  0  0
 28 30  2  0  0  0  0
 29 27  2  0  0  0  0
 29 32  1  0  0  0  0
 31 30  1  0  0  0  0
 32 31  2  0  0  0  0
M  END
>  <MODEL>
5

>  <REMARK>
 VINA RESULT:      -7.1      2.798      8.003
  Name = 
  6 active torsions:
  status: ('A' for Active; 'I' for Inactive)
    1  A    between atoms: C_4  and  C_25
    2  A    between atoms: C_9  and  O_22
    3  A    between atoms: O_15  and  C_31
    4  A    between atoms: O_15  and  C_32
    5  A    between atoms: C_17  and  C_29
    6  A    between atoms: O_22  and  C_25
                            x       y       z     vdW  Elec       q    Type
                         _______ _______ _______ _____ _____    ______ ____

>  <TORSDO>
F 6

$$$$
=
 OpenBabel11062419053D

 32 37  0  0  1  0  0  0  0  0999 V2000
  192.0710  171.6590  140.0410 C   0  0  0  0  0  3  0  0  0  0  0  0
  192.4830  174.7660  142.9090 C   0  0  0  0  0  3  0  0  0  0  0  0
  193.5420  173.9190  142.5400 C   0  0  0  0  0  0  0  0  0  0  0  0
  190.9840  173.6620  141.3130 C   0  0  0  0  0  0  0  0  0  0  0  0
  190.0680  175.5280  142.7150 C   0  0  2  0  0  3  0  0  0  0  0  0
  194.1580  171.9860  141.1060 O   0  0  0  0  0  0  0  0  0  0  0  0
  191.2060  174.6250  142.3310 C   0  0  0  0  0  0  0  0  0  0  0  0
  190.1600  176.2220  144.3880 S   0  0  0  0  0  0  0  0  0  0  0  0
  187.8190  175.7140  143.1140 C   0  0  0  0  0  2  0  0  0  0  0  0
  189.6100  173.5200  140.6630 C   0  0  1  0  0  3  0  0  0  0  0  0
  188.8210  174.7920  142.6210 N   0  0  1  0  0  0  0  0  0  0  0  0
  193.5200  171.1480  140.1470 C   0  0  0  0  0  3  0  0  0  0  0  0
  188.5860  174.5390  141.2060 C   0  0  0  0  0  2  0  0  0  0  0  0
  193.2770  172.9340  141.5810 C   0  0  0  0  0  0  0  0  0  0  0  0
  192.0490  172.8050  140.9920 C   0  0  0  0  0  0  0  0  0  0  0  0
  188.3370  176.3010  144.4170 C   0  0  2  0  0  3  0  0  0  0  0  0
  188.3770  173.5020  138.5080 C   0  0  0  0  0  2  0  0  0  0  0  0
  189.3310  172.4720  138.5290 O   0  0  0  0  0  0  0  0  0  0  0  0
  189.7020  173.6820  139.1470 C   0  0  2  0  0  3  0  0  0  0  0  0
  195.2440  173.2480  144.0410 O   0  0  0  0  0  0  0  0  0  0  0  0
  194.8700  174.0740  143.1640 C   0  0  0  0  0  0  0  0  0  0  0  0
  195.7020  175.1360  142.7790 O   0  0  0  0  0  0  0  0  0  0  0  0
  195.9460  176.2910  143.5320 C   0  0  0  0  0  0  0  0  0  0  0  0
  196.9030  177.0410  143.2110 O   0  0  0  0  0  0  0  0  0  0  0  0
  195.1390  176.6380  144.6560 N   0  0  0  0  0  1  0  0  0  0  0  0
  187.9040  177.6520  144.5330 O   0  0  0  0  0  0  0  0  0  0  0  0
  184.6670  177.7250  146.3640 C   0  0  0  0  0  3  0  0  0  0  0  0
  184.0230  178.7700  145.6970 C   0  0  0  0  0  3  0  0  0  0  0  0
  185.9570  177.3450  145.9860 C   0  0  0  0  0  3  0  0  0  0  0  0
  184.6700  179.4350  144.6500 C   0  0  0  0  0  3  0  0  0  0  0  0
  185.9620  179.0540  144.2720 C   0  0  0  0  0  3  0  0  0  0  0  0
  186.6140  178.0100  144.9370 C   0  0  0  0  0  0  0  0  0  0  0  0
  1 12  2  0  0  0  0
  1 15  1  0  0  0  0
  3  2  1  0  0  0  0
  3 21  1  0  0  0  0
  4  7  1  0  0  0  0
  5  7  1  1  0  0  0
  5  8  1  0  0  0  0
  6 14  1  0  0  0  0
  7  2  2  0  0  0  0
  8 16  1  0  0  0  0
  9 16  1  0  0  0  0
 10 13  1  1  0  0  0
 10  4  1  0  0  0  0
 11 13  1  6  0  0  0
 11  5  1  0  0  0  0
 11  9  1  0  0  0  0
 12  6  1  0  0  0  0
 14  3  2  0  0  0  0
 15  4  2  0  0  0  0
 15 14  1  0  0  0  0
 16 26  1  6  0  0  0
 17 18  1  0  0  0  0
 18 19  1  0  0  0  0
 19 17  1  6  0  0  0
 19 10  1  0  0  0  0
 21 20  2  0  0  0  0
 22 21  1  0  0  0  0
 22 23  1  0  0  0  0
 23 25  1  0  0  0  0
 24 23  2  0  0  0  0
 26 32  1  0  0  0  0
 28 27  2  0  0  0  0
 29 27  1  0  0  0  0
 30 28  1  0  0  0  0
 31 30  2  0  0  0  0
 31 32  1  0  0  0  0
 32 29  2  0  0  0  0
M  END
>  <MODEL>
6

>  <REMARK>
 VINA RESULT:      -7.0      2.884      8.111
  Name = 
  6 active torsions:
  status: ('A' for Active; 'I' for Inactive)
    1  A    between atoms: C_4  and  C_25
    2  A    between atoms: C_9  and  O_22
    3  A    between atoms: O_15  and  C_31
    4  A    between atoms: O_15  and  C_32
    5  A    between atoms: C_17  and  C_29
    6  A    between atoms: O_22  and  C_25
                            x       y       z     vdW  Elec       q    Type
                         _______ _______ _______ _____ _____    ______ ____

>  <TORSDO>
F 6

$$$$
=
 OpenBabel11062419053D

 32 37  0  0  1  0  0  0  0  0999 V2000
  187.1460  176.9480  141.0750 C   0  0  0  0  0  3  0  0  0  0  0  0
  188.6380  175.6690  144.8430 C   0  0  0  0  0  3  0  0  0  0  0  0
  187.6430  176.6520  144.7060 C   0  0  0  0  0  0  0  0  0  0  0  0
  188.7200  175.3510  142.4120 C   0  0  0  0  0  0  0  0  0  0  0  0
  190.2610  173.9890  143.8450 C   0  0  2  0  0  3  0  0  0  0  0  0
  186.3050  177.9360  143.0530 O   0  0  0  0  0  0  0  0  0  0  0  0
  189.2000  175.0440  143.7120 C   0  0  0  0  0  0  0  0  0  0  0  0
  191.2890  174.1080  145.3350 S   0  0  0  0  0  0  0  0  0  0  0  0
  192.1840  173.0840  142.9880 C   0  0  0  0  0  2  0  0  0  0  0  0
  189.3050  174.6590  141.1830 C   0  0  1  0  0  3  0  0  0  0  0  0
  191.1510  174.0580  142.7010 N   0  0  1  0  0  0  0  0  0  0  0  0
  186.1670  177.9960  141.6360 C   0  0  0  0  0  3  0  0  0  0  0  0
  190.3850  173.6170  141.5440 C   0  0  0  0  0  2  0  0  0  0  0  0
  187.2360  176.9840  143.4080 C   0  0  0  0  0  0  0  0  0  0  0  0
  187.7540  176.3640  142.3030 C   0  0  0  0  0  0  0  0  0  0  0  0
  192.6530  173.3180  144.4150 C   0  0  2  0  0  3  0  0  0  0  0  0
  188.7830  173.2410  139.2140 C   0  0  0  0  0  2  0  0  0  0  0  0
  188.1900  174.5060  139.0700 O   0  0  0  0  0  0  0  0  0  0  0  0
  188.2110  173.9680  140.3720 C   0  0  2  0  0  3  0  0  0  0  0  0
  187.8480  177.8140  146.7580 O   0  0  0  0  0  0  0  0  0  0  0  0
  187.0740  177.3050  145.9020 C   0  0  0  0  0  0  0  0  0  0  0  0
  185.6830  177.3520  146.0740 O   0  0  0  0  0  0  0  0  0  0  0  0
  184.9500  178.4820  146.4590 C   0  0  0  0  0  0  0  0  0  0  0  0
  185.1900  179.0170  147.5710 O   0  0  0  0  0  0  0  0  0  0  0  0
  183.9380  179.0400  145.6240 N   0  0  0  0  0  1  0  0  0  0  0  0
  192.9940  172.0720  145.0130 O   0  0  0  0  0  0  0  0  0  0  0  0
  196.6290  172.3130  145.7620 C   0  0  0  0  0  3  0  0  0  0  0  0
  196.8970  170.9950  146.1380 C   0  0  0  0  0  3  0  0  0  0  0  0
  195.3350  172.6840  145.3860 C   0  0  0  0  0  3  0  0  0  0  0  0
  195.8710  170.0450  146.1380 C   0  0  0  0  0  3  0  0  0  0  0  0
  194.5750  170.4160  145.7620 C   0  0  0  0  0  3  0  0  0  0  0  0
  194.2990  171.7350  145.3860 C   0  0  0  0  0  0  0  0  0  0  0  0
  1 12  2  0  0  0  0
  1 15  1  0  0  0  0
  3  2  1  0  0  0  0
  3 21  1  0  0  0  0
  4  7  1  0  0  0  0
  5  7  1  6  0  0  0
  5  8  1  0  0  0  0
  6 14  1  0  0  0  0
  7  2  2  0  0  0  0
  9 16  1  0  0  0  0
 10 13  1  1  0  0  0
 10  4  1  0  0  0  0
 11 13  1  6  0  0  0
 11  9  1  0  0  0  0
 11  5  1  0  0  0  0
 12  6  1  0  0  0  0
 14  3  2  0  0  0  0
 15  4  2  0  0  0  0
 15 14  1  0  0  0  0
 16 26  1  1  0  0  0
 16  8  1  0  0  0  0
 18 17  1  0  0  0  0
 18 19  1  0  0  0  0
 19 17  1  6  0  0  0
 19 10  1  0  0  0  0
 21 22  1  0  0  0  0
 21 20  2  0  0  0  0
 22 23  1  0  0  0  0
 23 24  2  0  0  0  0
 25 23  1  0  0  0  0
 26 32  1  0  0  0  0
 27 28  1  0  0  0  0
 28 30  2  0  0  0  0
 29 32  1  0  0  0  0
 29 27  2  0  0  0  0
 31 30  1  0  0  0  0
 32 31  2  0  0  0  0
M  END
>  <MODEL>
7

>  <REMARK>
 VINA RESULT:      -7.0      1.863      2.425
  Name = 
  6 active torsions:
  status: ('A' for Active; 'I' for Inactive)
    1  A    between atoms: C_4  and  C_25
    2  A    between atoms: C_9  and  O_22
    3  A    between atoms: O_15  and  C_31
    4  A    between atoms: O_15  and  C_32
    5  A    between atoms: C_17  and  C_29
    6  A    between atoms: O_22  and  C_25
                            x       y       z     vdW  Elec       q    Type
                         _______ _______ _______ _____ _____    ______ ____

>  <TORSDO>
F 6

$$$$
=
 OpenBabel11062419053D

 32 37  0  0  1  0  0  0  0  0999 V2000
  184.2990  178.0080  143.6190 C   0  0  0  0  0  3  0  0  0  0  0  0
  188.0790  176.2870  142.7240 C   0  0  0  0  0  3  0  0  0  0  0  0
  187.1430  176.6350  141.7360 C   0  0  0  0  0  0  0  0  0  0  0  0
  186.6000  177.1320  144.4880 C   0  0  0  0  0  0  0  0  0  0  0  0
  188.8020  176.1360  145.1540 C   0  0  2  0  0  3  0  0  0  0  0  0
  184.8730  177.5750  141.3660 O   0  0  0  0  0  0  0  0  0  0  0  0
  187.8060  176.4990  144.0890 C   0  0  0  0  0  0  0  0  0  0  0  0
  189.9360  174.7870  144.7260 S   0  0  0  0  0  0  0  0  0  0  0  0
  189.1350  175.3080  147.2650 C   0  0  0  0  0  2  0  0  0  0  0  0
  186.3070  177.3900  145.9640 C   0  0  1  0  0  3  0  0  0  0  0  0
  188.0930  175.7370  146.3560 N   0  0  1  0  0  0  0  0  0  0  0  0
  183.8110  178.0930  142.1610 C   0  0  0  0  0  3  0  0  0  0  0  0
  187.4570  176.9350  146.8870 C   0  0  0  0  0  2  0  0  0  0  0  0
  185.9320  177.1960  142.1620 C   0  0  0  0  0  0  0  0  0  0  0  0
  185.6660  177.4330  143.4830 C   0  0  0  0  0  0  0  0  0  0  0  0
  190.0550  174.3710  146.4990 C   0  0  2  0  0  3  0  0  0  0  0  0
  185.5860  179.1020  147.6110 C   0  0  0  0  0  2  0  0  0  0  0  0
  184.6750  179.0430  146.5430 O   0  0  0  0  0  0  0  0  0  0  0  0
  186.0350  178.8710  146.2170 C   0  0  2  0  0  3  0  0  0  0  0  0
  186.9550  177.1630  139.4360 O   0  0  0  0  0  0  0  0  0  0  0  0
  187.4410  176.3940  140.3110 C   0  0  0  0  0  0  0  0  0  0  0  0
  188.2600  175.3160  139.9430 O   0  0  0  0  0  0  0  0  0  0  0  0
  188.0220  174.4440  138.8730 C   0  0  0  0  0  0  0  0  0  0  0  0
  187.6490  174.9160  137.7690 O   0  0  0  0  0  0  0  0  0  0  0  0
  188.1910  173.0340  139.0040 N   0  0  0  0  0  1  0  0  0  0  0  0
  191.3920  174.5410  146.9560 O   0  0  0  0  0  0  0  0  0  0  0  0
  194.2170  174.6540  144.5380 C   0  0  0  0  0  3  0  0  0  0  0  0
  194.4880  176.0240  144.5320 C   0  0  0  0  0  3  0  0  0  0  0  0
  193.1900  174.1490  145.3400 C   0  0  0  0  0  3  0  0  0  0  0  0
  193.7330  176.8910  145.3280 C   0  0  0  0  0  3  0  0  0  0  0  0
  192.7040  176.3850  146.1300 C   0  0  0  0  0  3  0  0  0  0  0  0
  192.4250  175.0140  146.1410 C   0  0  0  0  0  0  0  0  0  0  0  0
  2  7  1  0  0  0  0
  3 14  1  0  0  0  0
  3  2  2  0  0  0  0
  4 10  1  0  0  0  0
  5  7  1  6  0  0  0
  5 11  1  0  0  0  0
  6 12  1  0  0  0  0
  6 14  1  0  0  0  0
  7  4  2  0  0  0  0
  8  5  1  0  0  0  0
  8 16  1  0  0  0  0
 10 19  1  0  0  0  0
 10 13  1  1  0  0  0
 11 13  1  1  0  0  0
 11  9  1  0  0  0  0
 12  1  2  0  0  0  0
 14 15  2  0  0  0  0
 15  1  1  0  0  0  0
 15  4  1  0  0  0  0
 16 26  1  1  0  0  0
 16  9  1  0  0  0  0
 18 17  1  0  0  0  0
 19 18  1  0  0  0  0
 19 17  1  1  0  0  0
 20 21  2  0  0  0  0
 21  3  1  0  0  0  0
 22 21  1  0  0  0  0
 23 25  1  0  0  0  0
 23 22  1  0  0  0  0
 24 23  2  0  0  0  0
 27 29  1  0  0  0  0
 28 27  2  0  0  0  0
 28 30  1  0  0  0  0
 29 32  2  0  0  0  0
 30 31  2  0  0  0  0
 31 32  1  0  0  0  0
 32 26  1  0  0  0  0
M  END
>  <MODEL>
8

>  <REMARK>
 VINA RESULT:      -6.9      2.014      5.251
  Name = 
  6 active torsions:
  status: ('A' for Active; 'I' for Inactive)
    1  A    between atoms: C_4  and  C_25
    2  A    between atoms: C_9  and  O_22
    3  A    between atoms: O_15  and  C_31
    4  A    between atoms: O_15  and  C_32
    5  A    between atoms: C_17  and  C_29
    6  A    between atoms: O_22  and  C_25
                            x       y       z     vdW  Elec       q    Type
                         _______ _______ _______ _____ _____    ______ ____

>  <TORSDO>
F 6

$$$$
=
 OpenBabel11062419053D

 32 37  0  0  1  0  0  0  0  0999 V2000
  193.4940  173.9230  144.8690 C   0  0  0  0  0  3  0  0  0  0  0  0
  189.8980  173.5770  142.6330 C   0  0  0  0  0  3  0  0  0  0  0  0
  190.9610  172.6650  142.5200 C   0  0  0  0  0  0  0  0  0  0  0  0
  191.1040  174.8380  144.3570 C   0  0  0  0  0  0  0  0  0  0  0  0
  188.8410  175.6510  143.6480 C   0  0  2  0  0  3  0  0  0  0  0  0
  193.2500  172.1410  143.3320 O   0  0  0  0  0  0  0  0  0  0  0  0
  189.9730  174.6720  143.5150 C   0  0  0  0  0  0  0  0  0  0  0  0
  187.7930  175.8280  142.1780 S   0  0  0  0  0  0  0  0  0  0  0  0
  188.2210  177.8370  143.9510 C   0  0  0  0  0  2  0  0  0  0  0  0
  191.1820  176.0080  145.3350 C   0  0  1  0  0  3  0  0  0  0  0  0
  189.3770  176.9640  143.9560 N   0  0  1  0  0  0  0  0  0  0  0  0
  194.1830  172.6870  144.2600 C   0  0  0  0  0  3  0  0  0  0  0  0
  189.9180  176.8930  145.3060 C   0  0  0  0  0  2  0  0  0  0  0  0
  192.0930  172.8900  143.3140 C   0  0  0  0  0  0  0  0  0  0  0  0
  192.1670  173.9340  144.1950 C   0  0  0  0  0  0  0  0  0  0  0  0
  187.4290  177.5420  142.6870 C   0  0  2  0  0  3  0  0  0  0  0  0
  191.4360  176.6440  147.7210 C   0  0  0  0  0  2  0  0  0  0  0  0
  192.6120  176.0360  147.2540 O   0  0  0  0  0  0  0  0  0  0  0  0
  191.4000  175.5140  146.7630 C   0  0  2  0  0  3  0  0  0  0  0  0
  190.4410  170.4160  141.9940 O   0  0  0  0  0  0  0  0  0  0  0  0
  190.8700  171.5290  141.5820 C   0  0  0  0  0  0  0  0  0  0  0  0
  191.2590  171.6970  140.2450 O   0  0  0  0  0  0  0  0  0  0  0  0
  190.3950  171.9570  139.1740 C   0  0  0  0  0  0  0  0  0  0  0  0
  190.2360  173.1430  138.7890 O   0  0  0  0  0  0  0  0  0  0  0  0
  189.6900  170.9110  138.5090 N   0  0  0  0  0  1  0  0  0  0  0  0
  186.0390  177.6930  142.9530 O   0  0  0  0  0  0  0  0  0  0  0  0
  185.1890  176.9180  146.4900 C   0  0  0  0  0  3  0  0  0  0  0  0
  184.4270  178.0420  146.8180 C   0  0  0  0  0  3  0  0  0  0  0  0
  185.7300  176.7910  145.2080 C   0  0  0  0  0  3  0  0  0  0  0  0
  184.2050  179.0390  145.8640 C   0  0  0  0  0  3  0  0  0  0  0  0
  184.7470  178.9120  144.5810 C   0  0  0  0  0  3  0  0  0  0  0  0
  185.5130  177.7900  144.2450 C   0  0  0  0  0  0  0  0  0  0  0  0
  2  7  1  0  0  0  0
  3  2  2  0  0  0  0
  3 14  1  0  0  0  0
  4 10  1  0  0  0  0
  5  8  1  6  0  0  0
  5 11  1  0  0  0  0
  6 12  1  0  0  0  0
  7  5  1  0  0  0  0
  7  4  2  0  0  0  0
  8 16  1  0  0  0  0
 10 13  1  1  0  0  0
 10 19  1  0  0  0  0
 11  9  1  1  0  0  0
 11 13  1  0  0  0  0
 12  1  2  0  0  0  0
 14  6  1  0  0  0  0
 14 15  2  0  0  0  0
 15  4  1  0  0  0  0
 15  1  1  0  0  0  0
 16 26  1  1  0  0  0
 16  9  1  0  0  0  0
 18 17  1  0  0  0  0
 19 18  1  0  0  0  0
 19 17  1  1  0  0  0
 21 20  2  0  0  0  0
 21  3  1  0  0  0  0
 22 21  1  0  0  0  0
 23 22  1  0  0  0  0
 24 23  2  0  0  0  0
 25 23  1  0  0  0  0
 26 32  1  0  0  0  0
 27 28  1  0  0  0  0
 29 27  2  0  0  0  0
 30 28  2  0  0  0  0
 31 30  1  0  0  0  0
 32 31  2  0  0  0  0
 32 29  1  0  0  0  0
M  END
>  <MODEL>
9

>  <REMARK>
 VINA RESULT:      -6.8      2.655      8.553
  Name = 
  6 active torsions:
  status: ('A' for Active; 'I' for Inactive)
    1  A    between atoms: C_4  and  C_25
    2  A    between atoms: C_9  and  O_22
    3  A    between atoms: O_15  and  C_31
    4  A    between atoms: O_15  and  C_32
    5  A    between atoms: C_17  and  C_29
    6  A    between atoms: O_22  and  C_25
                            x       y       z     vdW  Elec       q    Type
                         _______ _______ _______ _____ _____    ______ ____

>  <TORSDO>
F 6

$$$$
