=
 OpenBabel11072409333D

 58 64  0  0  1  0  0  0  0  0999 V2000
  190.2270  175.8220  145.9800 C   0  0  1  0  0  0  0  0  0  0  0  0
  190.2040  175.1180  147.3310 C   0  0  0  0  0  1  0  0  0  0  0  0
  190.5280  176.1170  142.5900 C   0  0  0  0  0  2  0  0  0  0  0  0
  189.0600  175.3550  144.4080 C   0  0  2  0  0  3  0  0  0  0  0  0
  189.1270  176.2340  143.1600 C   0  0  2  0  0  3  0  0  0  0  0  0
  188.9300  176.1600  145.5620 O   0  0  0  0  0  0  0  0  0  0  0  0
  191.0430  176.9560  146.0180 O   0  0  0  0  0  1  0  0  0  0  0  0
  190.4640  174.9390  144.7570 C   0  0  1  0  0  0  0  0  0  0  0  0
  191.3960  175.5270  143.6870 C   0  0  1  0  0  3  0  0  0  0  0  0
  190.5410  173.4330  145.0100 C   0  0  0  0  0  1  0  0  0  0  0  0
  188.0870  175.8450  142.1000 C   0  0  2  0  0  3  0  0  0  0  0  0
  186.6140  178.7380  143.3910 C   0  0  0  0  0  2  0  0  0  0  0  0
  187.3100  178.2510  142.1410 C   0  0  0  0  0  2  0  0  0  0  0  0
  185.8560  176.5740  143.0930 C   0  0  0  0  0  2  0  0  0  0  0  0
  186.8920  176.8070  142.0070 C   0  0  2  0  0  3  0  0  0  0  0  0
  185.4570  177.8760  143.6250 N   0  0  0  0  0  0  0  0  0  0  0  0
  184.0890  178.6240  145.5330 C   0  0  0  0  0  1  0  0  0  0  0  0
  186.4830  178.1980  145.8420 C   0  0  0  0  0  1  0  0  0  0  0  0
  185.2470  177.7500  145.0730 C   0  0  0  0  0  3  0  0  0  0  0  0
  187.6300  174.4650  142.2850 N   0  0  0  0  0  2  0  0  0  0  0  0
  190.5860  170.9270  135.8100 C   0  0  0  0  0  1  0  0  0  0  0  0
  188.5030  174.3810  139.9550 C   0  0  0  0  0  2  0  0  0  0  0  0
  189.6440  171.7920  140.5820 N   0  0  0  0  0  2  0  0  0  0  0  0
  189.0020  173.8830  137.5530 C   0  0  0  0  0  3  0  0  0  0  0  0
  190.0530  171.8100  136.8780 C   0  0  0  0  0  0  0  0  0  0  0  0
  190.1020  171.3970  138.2120 C   0  0  0  0  0  3  0  0  0  0  0  0
  189.6070  172.2270  139.2200 C   0  0  0  0  0  0  0  0  0  0  0  0
  189.0320  173.4700  138.8880 C   0  0  0  0  0  0  0  0  0  0  0  0
  189.2570  172.6800  141.6700 C   0  0  0  0  0  2  0  0  0  0  0  0
  188.1180  173.5930  141.2130 C   0  0  1  0  0  3  0  0  0  0  0  0
  189.5120  173.0540  136.5490 C   0  0  0  0  0  3  0  0  0  0  0  0
  192.4800  174.5890  143.1460 C   0  0  0  0  0  2  0  0  0  0  0  0
  192.9920  175.0020  141.7730 C   0  0  0  0  0  2  0  0  0  0  0  0
  192.4430  174.0430  140.7360 C   0  0  0  0  0  2  0  0  0  0  0  0
  193.5590  173.5050  139.8440 C   0  0  1  0  0  3  0  0  0  0  0  0
  194.0420  172.1240  140.3090 C   0  0  1  0  0  3  0  0  0  0  0  0
  193.4800  170.9730  139.4740 C   0  0  0  0  0  2  0  0  0  0  0  0
  192.7850  169.9140  140.3110 C   0  0  0  0  0  1  0  0  0  0  0  0
  195.5570  172.0580  140.5210 C   0  0  0  0  0  2  0  0  0  0  0  0
  195.9110  172.3960  141.8890 N   0  0  0  0  0  2  0  0  0  0  0  0
  194.8970  171.8280  142.7710 C   0  0  0  0  0  2  0  0  0  0  0  0
  195.3250  171.9200  144.2320 C   0  0  1  0  0  0  0  0  0  0  0  0
  196.2940  170.7750  144.4720 C   0  0  0  0  0  1  0  0  0  0  0  0
  196.8710  173.4480  146.0910 S   0  0  0  0  0  0  0  0  0  0  0  0
  196.0930  173.2540  144.4290 C   0  0  2  0  0  3  0  0  0  0  0  0
  195.3980  174.2190  145.2920 C   0  0  2  0  0  3  0  0  0  0  0  0
  196.4810  175.7710  143.6790 C   0  0  0  0  0  3  0  0  0  0  0  0
  196.7660  176.9720  143.2980 N   0  0  0  0  0  2  0  0  0  0  0  0
  195.7310  175.5660  144.8710 N   0  0  0  0  0  2  0  0  0  0  0  0
  194.0700  171.7170  145.1080 C   0  0  0  0  0  2  0  0  0  0  0  0
  193.2470  170.6990  144.6230 O   0  0  0  0  0  1  0  0  0  0  0  0
  193.1190  173.4300  138.5150 O   0  0  0  0  0  0  0  0  0  0  0  0
  193.0620  176.2940  136.1320 C   0  0  0  0  0  2  0  0  0  0  0  0
  194.4260  175.9730  135.5260 C   0  0  0  0  0  2  0  0  0  0  0  0
  192.5350  175.0750  136.8840 C   0  0  0  0  0  2  0  0  0  0  0  0
  193.5630  174.6080  137.9090 C   0  0  2  0  0  3  0  0  0  0  0  0
  194.8960  174.3580  137.2030 C   0  0  0  0  0  2  0  0  0  0  0  0
  195.3680  175.5920  136.5800 N   0  0  0  0  0  2  0  0  0  0  0  0
  1  7  1  0  0  0  0
  1  2  1  1  0  0  0
  3  5  1  0  0  0  0
  3  9  1  0  0  0  0
  4  8  1  0  0  0  0
  4  6  1  1  0  0  0
  5 11  1  6  0  0  0
  5  4  1  0  0  0  0
  6  1  1  0  0  0  0
  8 10  1  1  0  0  0
  8  1  1  0  0  0  0
  9 32  1  6  0  0  0
  9  8  1  0  0  0  0
 11 20  1  1  0  0  0
 12 16  1  0  0  0  0
 13 12  1  0  0  0  0
 14 16  1  0  0  0  0
 15 11  1  1  0  0  0
 15 13  1  0  0  0  0
 15 14  1  0  0  0  0
 16 19  1  0  0  0  0
 19 17  1  0  0  0  0
 19 18  1  0  0  0  0
 21 25  1  0  0  0  0
 22 30  1  0  0  0  0
 23 29  1  0  0  0  0
 24 28  1  0  0  0  0
 25 26  2  0  0  0  0
 26 27  1  0  0  0  0
 27 23  1  0  0  0  0
 28 27  2  0  0  0  0
 28 22  1  0  0  0  0
 30 29  1  0  0  0  0
 30 20  1  1  0  0  0
 31 25  1  0  0  0  0
 31 24  2  0  0  0  0
 33 32  1  0  0  0  0
 34 33  1  0  0  0  0
 35 36  1  0  0  0  0
 35 34  1  1  0  0  0
 36 37  1  6  0  0  0
 36 39  1  0  0  0  0
 37 38  1  0  0  0  0
 39 40  1  0  0  0  0
 40 41  1  0  0  0  0
 41 42  1  0  0  0  0
 42 43  1  1  0  0  0
 42 50  1  0  0  0  0
 45 42  1  1  0  0  0
 45 46  1  0  0  0  0
 45 44  1  0  0  0  0
 46 49  1  6  0  0  0
 46 44  1  0  0  0  0
 47 49  1  0  0  0  0
 48 47  2  0  0  0  0
 51 50  1  0  0  0  0
 52 35  1  0  0  0  0
 53 55  1  0  0  0  0
 54 53  1  0  0  0  0
 54 58  1  0  0  0  0
 55 56  1  0  0  0  0
 56 52  1  6  0  0  0
 57 56  1  0  0  0  0
 58 57  1  0  0  0  0
M  END
>  <MODEL>
1

>  <REMARK>
 VINA RESULT:      -6.3      0.000      0.000
  Name = 
  20 active torsions:
  status: ('A' for Active; 'I' for Inactive)
    1  A    between atoms: O_2  and  C_18
    2  A    between atoms: O_2  and  C_28
    3  A    between atoms: C_5  and  C_47
    4  A    between atoms: C_8  and  C_9
    5  A    between atoms: C_8  and  C_18
    6  A    between atoms: C_9  and  C_29
    7  A    between atoms: C_12  and  C_47
    8  A    between atoms: C_17  and  C_25
    9  A    between atoms: C_17  and  N_52
   10  A    between atoms: C_18  and  C_25
   11  A    between atoms: C_24  and  C_25
   12  A    between atoms: C_29  and  C_44
   13  A    between atoms: C_31  and  C_48
   14  A    between atoms: C_35  and  C_47
   15  A    between atoms: C_35  and  N_52
   16  A    between atoms: C_39  and  N_58
   17  A    between atoms: N_41  and  C_48
   18  A    between atoms: N_41  and  C_50
   19  A    between atoms: C_48  and  C_57
   20  A    between atoms: C_54  and  N_56
                            x       y       z     vdW  Elec       q    Type
                         _______ _______ _______ _____ _____    ______ ____

>  <TORSDO>
F 20

$$$$
=
 OpenBabel11072409333D

 58 64  0  0  1  0  0  0  0  0999 V2000
  190.4940  171.6790  138.4340 C   0  0  1  0  0  0  0  0  0  0  0  0
  190.2250  170.2820  137.8900 C   0  0  0  0  0  1  0  0  0  0  0  0
  190.7800  174.1380  140.7880 C   0  0  0  0  0  2  0  0  0  0  0  0
  191.8470  172.1290  139.8550 C   0  0  2  0  0  3  0  0  0  0  0  0
  192.0740  173.5990  140.2080 C   0  0  2  0  0  3  0  0  0  0  0  0
  191.8690  171.9590  138.4520 O   0  0  0  0  0  0  0  0  0  0  0  0
  189.8040  172.6470  137.6990 O   0  0  0  0  0  1  0  0  0  0  0  0
  190.3700  171.8550  139.9450 C   0  0  1  0  0  0  0  0  0  0  0  0
  189.6900  173.1540  140.4060 C   0  0  1  0  0  3  0  0  0  0  0  0
  190.0970  170.5890  140.7590 C   0  0  0  0  0  1  0  0  0  0  0  0
  193.2280  173.8010  141.2020 C   0  0  2  0  0  3  0  0  0  0  0  0
  196.0470  175.8580  141.3710 C   0  0  0  0  0  2  0  0  0  0  0  0
  194.9380  175.4890  140.4120 C   0  0  0  0  0  2  0  0  0  0  0  0
  194.1630  175.6430  142.6940 C   0  0  0  0  0  2  0  0  0  0  0  0
  193.7350  175.2490  141.2920 C   0  0  2  0  0  3  0  0  0  0  0  0
  195.4300  176.3650  142.5950 N   0  0  0  0  0  0  0  0  0  0  0  0
  197.5980  175.4070  143.2680 C   0  0  0  0  0  1  0  0  0  0  0  0
  195.5940  174.9400  144.5990 C   0  0  0  0  0  1  0  0  0  0  0  0
  196.2760  175.9950  143.7380 C   0  0  0  0  0  3  0  0  0  0  0  0
  194.3330  172.8800  140.9270 N   0  0  0  0  0  2  0  0  0  0  0  0
  196.6850  169.0850  147.5050 C   0  0  0  0  0  1  0  0  0  0  0  0
  194.1990  171.1410  142.7040 C   0  0  0  0  0  2  0  0  0  0  0  0
  196.9740  171.6990  143.3220 N   0  0  0  0  0  2  0  0  0  0  0  0
  194.1140  169.8330  144.8370 C   0  0  0  0  0  3  0  0  0  0  0  0
  196.0520  169.6150  146.2700 C   0  0  0  0  0  0  0  0  0  0  0  0
  196.8000  170.3930  145.3830 C   0  0  0  0  0  3  0  0  0  0  0  0
  196.2090  170.8890  144.2190 C   0  0  0  0  0  0  0  0  0  0  0  0
  194.8500  170.6260  143.9530 C   0  0  0  0  0  0  0  0  0  0  0  0
  196.4330  172.1250  142.0380 C   0  0  0  0  0  2  0  0  0  0  0  0
  194.9290  172.3780  142.1680 C   0  0  1  0  0  3  0  0  0  0  0  0
  194.7140  169.3280  145.9940 C   0  0  0  0  0  3  0  0  0  0  0  0
  188.6170  173.0060  141.4910 C   0  0  0  0  0  2  0  0  0  0  0  0
  188.5910  174.1770  142.4630 C   0  0  0  0  0  2  0  0  0  0  0  0
  187.2040  174.7870  142.4580 C   0  0  0  0  0  2  0  0  0  0  0  0
  187.2490  176.2510  142.8880 C   0  0  1  0  0  3  0  0  0  0  0  0
  188.1260  177.0930  141.9480 C   0  0  1  0  0  3  0  0  0  0  0  0
  187.3180  177.9340  140.9600 C   0  0  0  0  0  2  0  0  0  0  0  0
  186.8530  177.1460  139.7480 C   0  0  0  0  0  1  0  0  0  0  0  0
  189.2170  177.8730  142.6850 C   0  0  0  0  0  2  0  0  0  0  0  0
  190.4260  177.0790  142.8260 N   0  0  0  0  0  2  0  0  0  0  0  0
  191.2460  177.6850  143.8680 C   0  0  0  0  0  2  0  0  0  0  0  0
  191.2880  176.8080  145.1160 C   0  0  1  0  0  0  0  0  0  0  0  0
  190.2120  177.3350  146.0500 C   0  0  0  0  0  1  0  0  0  0  0  0
  190.0200  174.4060  146.0110 S   0  0  0  0  0  0  0  0  0  0  0  0
  190.9040  175.3620  144.7030 C   0  0  2  0  0  3  0  0  0  0  0  0
  191.7330  174.3240  145.3320 C   0  0  2  0  0  3  0  0  0  0  0  0
  190.8390  172.1780  144.4500 C   0  0  0  0  0  3  0  0  0  0  0  0
  190.9280  171.1730  143.6430 N   0  0  0  0  0  2  0  0  0  0  0  0
  191.8400  173.1880  144.4370 N   0  0  0  0  0  2  0  0  0  0  0  0
  192.6710  176.9870  145.7760 C   0  0  0  0  0  2  0  0  0  0  0  0
  192.6410  176.7190  147.1460 O   0  0  0  0  0  1  0  0  0  0  0  0
  185.9520  176.7820  142.9270 O   0  0  0  0  0  0  0  0  0  0  0  0
  185.6090  178.9480  145.9400 C   0  0  0  0  0  2  0  0  0  0  0  0
  186.6790  178.2100  146.7400 C   0  0  0  0  0  2  0  0  0  0  0  0
  185.7470  178.6040  144.4600 C   0  0  0  0  0  2  0  0  0  0  0  0
  185.7170  177.0910  144.2690 C   0  0  2  0  0  3  0  0  0  0  0  0
  186.7960  176.4540  145.1450 C   0  0  0  0  0  2  0  0  0  0  0  0
  186.5430  176.7650  146.5500 N   0  0  0  0  0  2  0  0  0  0  0  0
  1  2  1  6  0  0  0
  1  6  1  0  0  0  0
  1  8  1  0  0  0  0
  4  6  1  6  0  0  0
  4  8  1  0  0  0  0
  4  5  1  0  0  0  0
  5  3  1  0  0  0  0
  5 11  1  1  0  0  0
  7  1  1  0  0  0  0
  8  9  1  0  0  0  0
  8 10  1  1  0  0  0
  9  3  1  0  0  0  0
  9 32  1  1  0  0  0
 11 20  1  6  0  0  0
 12 16  1  0  0  0  0
 13 15  1  0  0  0  0
 13 12  1  0  0  0  0
 15 11  1  1  0  0  0
 15 14  1  0  0  0  0
 16 14  1  0  0  0  0
 16 19  1  0  0  0  0
 17 19  1  0  0  0  0
 19 18  1  0  0  0  0
 22 28  1  0  0  0  0
 23 27  1  0  0  0  0
 24 31  1  0  0  0  0
 25 21  1  0  0  0  0
 26 25  1  0  0  0  0
 27 26  2  0  0  0  0
 28 27  1  0  0  0  0
 28 24  2  0  0  0  0
 29 30  1  0  0  0  0
 29 23  1  0  0  0  0
 30 20  1  6  0  0  0
 30 22  1  0  0  0  0
 31 25  2  0  0  0  0
 32 33  1  0  0  0  0
 34 33  1  0  0  0  0
 35 34  1  6  0  0  0
 35 52  1  0  0  0  0
 36 37  1  1  0  0  0
 36 39  1  0  0  0  0
 36 35  1  0  0  0  0
 38 37  1  0  0  0  0
 39 40  1  0  0  0  0
 40 41  1  0  0  0  0
 41 42  1  0  0  0  0
 42 50  1  0  0  0  0
 42 43  1  1  0  0  0
 45 42  1  1  0  0  0
 45 46  1  0  0  0  0
 45 44  1  0  0  0  0
 46 49  1  6  0  0  0
 46 44  1  0  0  0  0
 48 47  2  0  0  0  0
 49 47  1  0  0  0  0
 50 51  1  0  0  0  0
 53 54  1  0  0  0  0
 55 53  1  0  0  0  0
 56 52  1  6  0  0  0
 56 55  1  0  0  0  0
 56 57  1  0  0  0  0
 57 58  1  0  0  0  0
 58 54  1  0  0  0  0
M  END
>  <MODEL>
2

>  <REMARK>
 VINA RESULT:      -5.7      2.533      8.624
  Name = 
  20 active torsions:
  status: ('A' for Active; 'I' for Inactive)
    1  A    between atoms: O_2  and  C_18
    2  A    between atoms: O_2  and  C_28
    3  A    between atoms: C_5  and  C_47
    4  A    between atoms: C_8  and  C_9
    5  A    between atoms: C_8  and  C_18
    6  A    between atoms: C_9  and  C_29
    7  A    between atoms: C_12  and  C_47
    8  A    between atoms: C_17  and  C_25
    9  A    between atoms: C_17  and  N_52
   10  A    between atoms: C_18  and  C_25
   11  A    between atoms: C_24  and  C_25
   12  A    between atoms: C_29  and  C_44
   13  A    between atoms: C_31  and  C_48
   14  A    between atoms: C_35  and  C_47
   15  A    between atoms: C_35  and  N_52
   16  A    between atoms: C_39  and  N_58
   17  A    between atoms: N_41  and  C_48
   18  A    between atoms: N_41  and  C_50
   19  A    between atoms: C_48  and  C_57
   20  A    between atoms: C_54  and  N_56
                            x       y       z     vdW  Elec       q    Type
                         _______ _______ _______ _____ _____    ______ ____

>  <TORSDO>
F 20

$$$$
=
 OpenBabel11072409333D

 58 64  0  0  1  0  0  0  0  0999 V2000
  191.3340  175.4390  146.2760 C   0  0  1  0  0  0  0  0  0  0  0  0
  190.9390  176.8100  146.8090 C   0  0  0  0  0  1  0  0  0  0  0  0
  192.5310  173.1610  144.0290 C   0  0  0  0  0  2  0  0  0  0  0  0
  193.1640  174.9380  145.6050 C   0  0  2  0  0  3  0  0  0  0  0  0
  193.4260  173.4850  145.2100 C   0  0  2  0  0  3  0  0  0  0  0  0
  192.5270  174.9910  146.8650 O   0  0  0  0  0  0  0  0  0  0  0  0
  190.3090  174.5090  146.4720 O   0  0  0  0  0  1  0  0  0  0  0  0
  191.9330  175.4010  144.8720 C   0  0  1  0  0  0  0  0  0  0  0  0
  191.4640  174.2390  143.9830 C   0  0  1  0  0  3  0  0  0  0  0  0
  192.1740  176.7530  144.1980 C   0  0  0  0  0  1  0  0  0  0  0  0
  194.8960  173.2210  144.8520 C   0  0  2  0  0  3  0  0  0  0  0  0
  197.2380  170.6340  145.0390 C   0  0  0  0  0  2  0  0  0  0  0  0
  197.0680  172.0760  145.4600 C   0  0  0  0  0  2  0  0  0  0  0  0
  195.0210  170.8110  145.6730 C   0  0  0  0  0  2  0  0  0  0  0  0
  195.5980  172.2130  145.7750 C   0  0  2  0  0  3  0  0  0  0  0  0
  196.1350  169.8670  145.6140 N   0  0  0  0  0  0  0  0  0  0  0  0
  196.0440  169.1870  143.2470 C   0  0  0  0  0  1  0  0  0  0  0  0
  194.3060  168.4300  144.7990 C   0  0  0  0  0  1  0  0  0  0  0  0
  195.7840  168.7800  144.6900 C   0  0  0  0  0  3  0  0  0  0  0  0
  195.6570  174.4700  144.7730 N   0  0  0  0  0  2  0  0  0  0  0  0
  197.9410  175.3630  137.2110 C   0  0  0  0  0  1  0  0  0  0  0  0
  195.3150  174.6290  142.3120 C   0  0  0  0  0  2  0  0  0  0  0  0
  197.9310  175.8590  142.1270 N   0  0  0  0  0  2  0  0  0  0  0  0
  195.3800  174.4010  139.8200 C   0  0  0  0  0  3  0  0  0  0  0  0
  197.2700  175.1770  138.5230 C   0  0  0  0  0  0  0  0  0  0  0  0
  197.9030  175.6040  139.6950 C   0  0  0  0  0  3  0  0  0  0  0  0
  197.2730  175.4360  140.9300 C   0  0  0  0  0  0  0  0  0  0  0  0
  196.0120  174.8100  140.9970 C   0  0  0  0  0  0  0  0  0  0  0  0
  197.2550  175.8190  143.4170 C   0  0  0  0  0  2  0  0  0  0  0  0
  196.3170  174.6110  143.4720 C   0  0  1  0  0  3  0  0  0  0  0  0
  196.0080  174.5850  138.5850 C   0  0  0  0  0  3  0  0  0  0  0  0
  191.0530  174.6060  142.5530 C   0  0  0  0  0  2  0  0  0  0  0  0
  192.0940  174.2100  141.5160 C   0  0  0  0  0  2  0  0  0  0  0  0
  191.3940  173.5500  140.3450 C   0  0  0  0  0  2  0  0  0  0  0  0
  190.0020  173.0650  140.7440 C   0  0  1  0  0  3  0  0  0  0  0  0
  188.8980  173.9300  140.1180 C   0  0  1  0  0  3  0  0  0  0  0  0
  188.3750  173.3750  138.7930 C   0  0  0  0  0  2  0  0  0  0  0  0
  188.0330  174.4590  137.7870 C   0  0  0  0  0  1  0  0  0  0  0  0
  187.7980  174.3110  141.1120 C   0  0  0  0  0  2  0  0  0  0  0  0
  187.8540  175.7260  141.4390 N   0  0  0  0  0  2  0  0  0  0  0  0
  186.8770  175.9850  142.4900 C   0  0  0  0  0  2  0  0  0  0  0  0
  187.0430  177.3900  143.0610 C   0  0  1  0  0  0  0  0  0  0  0  0
  188.3580  177.9240  142.5210 C   0  0  0  0  0  1  0  0  0  0  0  0
  184.7870  178.9870  143.7970 S   0  0  0  0  0  0  0  0  0  0  0  0
  185.8970  178.2760  142.5050 C   0  0  2  0  0  3  0  0  0  0  0  0
  184.5740  177.6390  142.5560 C   0  0  2  0  0  3  0  0  0  0  0  0
  182.3960  178.4470  141.6700 C   0  0  0  0  0  3  0  0  0  0  0  0
  181.6780  178.8910  140.6920 N   0  0  0  0  0  2  0  0  0  0  0  0
  183.7640  178.1240  141.4550 N   0  0  0  0  0  2  0  0  0  0  0  0
  187.1320  177.2710  144.5970 C   0  0  0  0  0  2  0  0  0  0  0  0
  188.2350  177.9510  145.1170 O   0  0  0  0  0  1  0  0  0  0  0  0
  189.8300  171.7280  140.3620 O   0  0  0  0  0  0  0  0  0  0  0  0
  192.6380  169.2920  140.1050 C   0  0  0  0  0  2  0  0  0  0  0  0
  192.3460  168.6310  141.4510 C   0  0  0  0  0  2  0  0  0  0  0  0
  191.4210  170.0920  139.6520 C   0  0  0  0  0  2  0  0  0  0  0  0
  191.0080  171.0780  140.7400 C   0  0  2  0  0  3  0  0  0  0  0  0
  190.7840  170.3170  142.0470 C   0  0  0  0  0  2  0  0  0  0  0  0
  192.0180  169.6480  142.4510 N   0  0  0  0  0  2  0  0  0  0  0  0
  1  7  1  0  0  0  0
  1  2  1  1  0  0  0
  1  6  1  0  0  0  0
  3  5  1  0  0  0  0
  4  6  1  1  0  0  0
  5 11  1  6  0  0  0
  5  4  1  0  0  0  0
  8 10  1  6  0  0  0
  8  4  1  0  0  0  0
  8  1  1  0  0  0  0
  9 32  1  6  0  0  0
  9  3  1  0  0  0  0
  9  8  1  0  0  0  0
 11 20  1  1  0  0  0
 12 13  1  0  0  0  0
 12 16  1  0  0  0  0
 13 15  1  0  0  0  0
 14 15  1  0  0  0  0
 15 11  1  6  0  0  0
 16 14  1  0  0  0  0
 17 19  1  0  0  0  0
 19 18  1  0  0  0  0
 19 16  1  0  0  0  0
 21 25  1  0  0  0  0
 22 30  1  0  0  0  0
 23 29  1  0  0  0  0
 24 28  1  0  0  0  0
 25 31  1  0  0  0  0
 25 26  2  0  0  0  0
 26 27  1  0  0  0  0
 27 28  2  0  0  0  0
 27 23  1  0  0  0  0
 28 22  1  0  0  0  0
 29 30  1  0  0  0  0
 30 20  1  1  0  0  0
 31 24  2  0  0  0  0
 33 32  1  0  0  0  0
 34 33  1  0  0  0  0
 35 34  1  6  0  0  0
 36 37  1  6  0  0  0
 36 35  1  0  0  0  0
 36 39  1  0  0  0  0
 38 37  1  0  0  0  0
 39 40  1  0  0  0  0
 40 41  1  0  0  0  0
 41 42  1  0  0  0  0
 42 43  1  6  0  0  0
 42 50  1  0  0  0  0
 45 46  1  0  0  0  0
 45 42  1  1  0  0  0
 45 44  1  0  0  0  0
 46 49  1  6  0  0  0
 46 44  1  0  0  0  0
 48 47  2  0  0  0  0
 49 47  1  0  0  0  0
 50 51  1  0  0  0  0
 52 35  1  0  0  0  0
 53 54  1  0  0  0  0
 54 58  1  0  0  0  0
 55 53  1  0  0  0  0
 55 56  1  0  0  0  0
 56 52  1  6  0  0  0
 56 57  1  0  0  0  0
 57 58  1  0  0  0  0
M  END
>  <MODEL>
3

>  <REMARK>
 VINA RESULT:      -5.5      2.942      8.777
  Name = 
  20 active torsions:
  status: ('A' for Active; 'I' for Inactive)
    1  A    between atoms: O_2  and  C_18
    2  A    between atoms: O_2  and  C_28
    3  A    between atoms: C_5  and  C_47
    4  A    between atoms: C_8  and  C_9
    5  A    between atoms: C_8  and  C_18
    6  A    between atoms: C_9  and  C_29
    7  A    between atoms: C_12  and  C_47
    8  A    between atoms: C_17  and  C_25
    9  A    between atoms: C_17  and  N_52
   10  A    between atoms: C_18  and  C_25
   11  A    between atoms: C_24  and  C_25
   12  A    between atoms: C_29  and  C_44
   13  A    between atoms: C_31  and  C_48
   14  A    between atoms: C_35  and  C_47
   15  A    between atoms: C_35  and  N_52
   16  A    between atoms: C_39  and  N_58
   17  A    between atoms: N_41  and  C_48
   18  A    between atoms: N_41  and  C_50
   19  A    between atoms: C_48  and  C_57
   20  A    between atoms: C_54  and  N_56
                            x       y       z     vdW  Elec       q    Type
                         _______ _______ _______ _____ _____    ______ ____

>  <TORSDO>
F 20

$$$$
=
 OpenBabel11072409333D

 58 64  0  0  1  0  0  0  0  0999 V2000
  190.2150  176.0820  146.4680 C   0  0  1  0  0  0  0  0  0  0  0  0
  190.5430  175.2650  147.7110 C   0  0  0  0  0  1  0  0  0  0  0  0
  190.3730  177.0220  143.1870 C   0  0  0  0  0  2  0  0  0  0  0  0
  189.4950  175.3340  144.7430 C   0  0  2  0  0  3  0  0  0  0  0  0
  189.1110  176.3060  143.6280 C   0  0  2  0  0  3  0  0  0  0  0  0
  188.9420  175.7610  145.9720 O   0  0  0  0  0  0  0  0  0  0  0  0
  190.3110  177.4530  146.7270 O   0  0  0  0  0  1  0  0  0  0  0  0
  190.9020  175.6560  145.1730 C   0  0  1  0  0  0  0  0  0  0  0  0
  191.4020  176.8020  144.2810 C   0  0  1  0  0  3  0  0  0  0  0  0
  191.7560  174.3890  145.2400 C   0  0  0  0  0  1  0  0  0  0  0  0
  188.4490  175.6080  142.4310 C   0  0  2  0  0  3  0  0  0  0  0  0
  186.4030  178.4070  142.0010 C   0  0  0  0  0  2  0  0  0  0  0  0
  187.0240  177.2910  141.1930 C   0  0  0  0  0  2  0  0  0  0  0  0
  186.2680  176.5420  143.3610 C   0  0  0  0  0  2  0  0  0  0  0  0
  187.0270  176.1010  142.1220 C   0  0  2  0  0  3  0  0  0  0  0  0
  185.5900  177.8000  143.0530 N   0  0  0  0  0  0  0  0  0  0  0  0
  186.2020  177.9130  145.4380 C   0  0  0  0  0  1  0  0  0  0  0  0
  184.2370  179.1310  144.6240 C   0  0  0  0  0  1  0  0  0  0  0  0
  185.6340  178.6630  144.2420 C   0  0  0  0  0  3  0  0  0  0  0  0
  188.4710  174.1510  142.5870 N   0  0  0  0  0  2  0  0  0  0  0  0
  193.2310  169.5820  138.1530 C   0  0  0  0  0  1  0  0  0  0  0  0
  189.5580  172.0200  141.8970 C   0  0  0  0  0  2  0  0  0  0  0  0
  190.1710  173.2700  139.3560 N   0  0  0  0  0  2  0  0  0  0  0  0
  191.1240  170.1830  141.2330 C   0  0  0  0  0  3  0  0  0  0  0  0
  192.2870  170.2120  139.1100 C   0  0  0  0  0  0  0  0  0  0  0  0
  191.6750  171.4270  138.7880 C   0  0  0  0  0  3  0  0  0  0  0  0
  190.7820  172.0190  139.6840 C   0  0  0  0  0  0  0  0  0  0  0  0
  190.5210  171.4060  140.9250 C   0  0  0  0  0  0  0  0  0  0  0  0
  189.1410  173.8540  140.2040 C   0  0  0  0  0  2  0  0  0  0  0  0
  189.4330  173.5320  141.6710 C   0  0  1  0  0  3  0  0  0  0  0  0
  192.0060  169.5870  140.3270 C   0  0  0  0  0  3  0  0  0  0  0  0
  192.8270  176.6600  143.7340 C   0  0  0  0  0  2  0  0  0  0  0  0
  192.8700  176.0400  142.3440 C   0  0  0  0  0  2  0  0  0  0  0  0
  194.2650  176.2060  141.7760 C   0  0  0  0  0  2  0  0  0  0  0  0
  194.9750  174.8590  141.6660 C   0  0  1  0  0  3  0  0  0  0  0  0
  195.2000  174.4530  140.2020 C   0  0  1  0  0  3  0  0  0  0  0  0
  196.1040  173.2310  140.0460 C   0  0  0  0  0  2  0  0  0  0  0  0
  195.3590  171.9160  140.1990 C   0  0  0  0  0  1  0  0  0  0  0  0
  193.9010  174.3750  139.3950 C   0  0  0  0  0  2  0  0  0  0  0  0
  193.9420  175.2680  138.2490 N   0  0  0  0  0  2  0  0  0  0  0  0
  193.4260  174.5420  137.0930 C   0  0  0  0  0  2  0  0  0  0  0  0
  194.3000  174.7700  135.8640 C   0  0  1  0  0  0  0  0  0  0  0  0
  195.5560  175.4720  136.3520 C   0  0  0  0  0  1  0  0  0  0  0  0
  193.3130  172.1920  135.1190 S   0  0  0  0  0  0  0  0  0  0  0  0
  194.7100  173.3850  135.2980 C   0  0  2  0  0  3  0  0  0  0  0  0
  194.7220  172.3120  136.3030 C   0  0  2  0  0  3  0  0  0  0  0  0
  196.7890  171.0460  136.8550 C   0  0  0  0  0  3  0  0  0  0  0  0
  197.6810  170.1640  136.5440 N   0  0  0  0  0  2  0  0  0  0  0  0
  195.7320  171.3340  135.9480 N   0  0  0  0  0  2  0  0  0  0  0  0
  193.5340  175.7040  134.9030 C   0  0  0  0  0  2  0  0  0  0  0  0
  192.1720  175.7660  135.2020 O   0  0  0  0  0  1  0  0  0  0  0  0
  196.2040  174.9060  142.3380 O   0  0  0  0  0  0  0  0  0  0  0  0
  195.8450  174.4570  146.0190 C   0  0  0  0  0  2  0  0  0  0  0  0
  196.9850  173.4460  146.1280 C   0  0  0  0  0  2  0  0  0  0  0  0
  195.9500  175.2070  144.6950 C   0  0  0  0  0  2  0  0  0  0  0  0
  196.0000  174.2160  143.5360 C   0  0  2  0  0  3  0  0  0  0  0  0
  197.1450  173.2300  143.7690 C   0  0  0  0  0  2  0  0  0  0  0  0
  196.9260  172.4990  145.0140 N   0  0  0  0  0  2  0  0  0  0  0  0
  1  7  1  0  0  0  0
  1  2  1  1  0  0  0
  3  5  1  0  0  0  0
  3  9  1  0  0  0  0
  4  8  1  0  0  0  0
  4  6  1  1  0  0  0
  5 11  1  6  0  0  0
  5  4  1  0  0  0  0
  6  1  1  0  0  0  0
  8 10  1  1  0  0  0
  8  1  1  0  0  0  0
  9 32  1  6  0  0  0
  9  8  1  0  0  0  0
 11 20  1  1  0  0  0
 12 16  1  0  0  0  0
 13 12  1  0  0  0  0
 13 15  1  0  0  0  0
 15 11  1  1  0  0  0
 15 14  1  0  0  0  0
 16 14  1  0  0  0  0
 16 19  1  0  0  0  0
 19 18  1  0  0  0  0
 19 17  1  0  0  0  0
 21 25  1  0  0  0  0
 23 27  1  0  0  0  0
 23 29  1  0  0  0  0
 25 31  1  0  0  0  0
 26 25  2  0  0  0  0
 26 27  1  0  0  0  0
 27 28  2  0  0  0  0
 28 24  1  0  0  0  0
 28 22  1  0  0  0  0
 29 30  1  0  0  0  0
 30 22  1  0  0  0  0
 30 20  1  1  0  0  0
 31 24  2  0  0  0  0
 33 32  1  0  0  0  0
 34 33  1  0  0  0  0
 35 34  1  6  0  0  0
 35 52  1  0  0  0  0
 36 39  1  1  0  0  0
 36 35  1  0  0  0  0
 37 38  1  0  0  0  0
 37 36  1  0  0  0  0
 40 39  1  0  0  0  0
 41 40  1  0  0  0  0
 42 43  1  1  0  0  0
 42 41  1  0  0  0  0
 44 45  1  0  0  0  0
 44 46  1  0  0  0  0
 45 42  1  1  0  0  0
 45 46  1  0  0  0  0
 46 49  1  6  0  0  0
 48 47  2  0  0  0  0
 49 47  1  0  0  0  0
 50 51  1  0  0  0  0
 50 42  1  0  0  0  0
 53 54  1  0  0  0  0
 55 53  1  0  0  0  0
 56 52  1  6  0  0  0
 56 57  1  0  0  0  0
 56 55  1  0  0  0  0
 57 58  1  0  0  0  0
 58 54  1  0  0  0  0
M  END
>  <MODEL>
4

>  <REMARK>
 VINA RESULT:      -5.4      2.477      5.502
  Name = 
  20 active torsions:
  status: ('A' for Active; 'I' for Inactive)
    1  A    between atoms: O_2  and  C_18
    2  A    between atoms: O_2  and  C_28
    3  A    between atoms: C_5  and  C_47
    4  A    between atoms: C_8  and  C_9
    5  A    between atoms: C_8  and  C_18
    6  A    between atoms: C_9  and  C_29
    7  A    between atoms: C_12  and  C_47
    8  A    between atoms: C_17  and  C_25
    9  A    between atoms: C_17  and  N_52
   10  A    between atoms: C_18  and  C_25
   11  A    between atoms: C_24  and  C_25
   12  A    between atoms: C_29  and  C_44
   13  A    between atoms: C_31  and  C_48
   14  A    between atoms: C_35  and  C_47
   15  A    between atoms: C_35  and  N_52
   16  A    between atoms: C_39  and  N_58
   17  A    between atoms: N_41  and  C_48
   18  A    between atoms: N_41  and  C_50
   19  A    between atoms: C_48  and  C_57
   20  A    between atoms: C_54  and  N_56
                            x       y       z     vdW  Elec       q    Type
                         _______ _______ _______ _____ _____    ______ ____

>  <TORSDO>
F 20

$$$$
=
 OpenBabel11072409333D

 58 64  0  0  1  0  0  0  0  0999 V2000
  190.8790  171.7320  137.3050 C   0  0  1  0  0  0  0  0  0  0  0  0
  190.0500  170.6070  136.6990 C   0  0  0  0  0  1  0  0  0  0  0  0
  192.2750  173.6320  139.7770 C   0  0  0  0  0  2  0  0  0  0  0  0
  192.4090  171.4830  138.5910 C   0  0  2  0  0  3  0  0  0  0  0  0
  193.2120  172.7120  139.0170 C   0  0  2  0  0  3  0  0  0  0  0  0
  192.2530  171.4700  137.1860 O   0  0  0  0  0  0  0  0  0  0  0  0
  190.5610  172.9620  136.7230 O   0  0  0  0  0  1  0  0  0  0  0  0
  190.9520  171.7780  138.8300 C   0  0  1  0  0  0  0  0  0  0  0  0
  190.8630  173.1790  139.4540 C   0  0  1  0  0  3  0  0  0  0  0  0
  190.2770  170.6280  139.5790 C   0  0  0  0  0  1  0  0  0  0  0  0
  194.4280  172.3560  139.8850 C   0  0  2  0  0  3  0  0  0  0  0  0
  195.9130  175.0960  138.3060 C   0  0  0  0  0  2  0  0  0  0  0  0
  195.8160  174.4600  139.6740 C   0  0  0  0  0  2  0  0  0  0  0  0
  195.9680  172.8190  137.9080 C   0  0  0  0  0  2  0  0  0  0  0  0
  195.7490  172.9760  139.4030 C   0  0  2  0  0  3  0  0  0  0  0  0
  196.4490  174.0960  137.3840 N   0  0  0  0  0  0  0  0  0  0  0  0
  194.9240  175.5160  136.0680 C   0  0  0  0  0  1  0  0  0  0  0  0
  195.0360  173.1080  135.6240 C   0  0  0  0  0  1  0  0  0  0  0  0
  195.8580  174.3140  136.0570 C   0  0  0  0  0  3  0  0  0  0  0  0
  194.5620  170.9060  140.0430 N   0  0  0  0  0  2  0  0  0  0  0  0
  196.6600  169.0840  147.4910 C   0  0  0  0  0  1  0  0  0  0  0  0
  194.1920  170.6060  142.4860 C   0  0  0  0  0  2  0  0  0  0  0  0
  196.5930  168.9860  142.5510 N   0  0  0  0  0  2  0  0  0  0  0  0
  194.2810  170.6230  144.9880 C   0  0  0  0  0  3  0  0  0  0  0  0
  196.0300  169.4720  146.2030 C   0  0  0  0  0  0  0  0  0  0  0  0
  196.5950  169.0490  144.9970 C   0  0  0  0  0  3  0  0  0  0  0  0
  196.0020  169.4070  143.7840 C   0  0  0  0  0  0  0  0  0  0  0  0
  194.8500  170.2180  143.7770 C   0  0  0  0  0  0  0  0  0  0  0  0
  195.9350  169.2290  141.2750 C   0  0  0  0  0  2  0  0  0  0  0  0
  195.1890  170.5640  141.3230 C   0  0  1  0  0  3  0  0  0  0  0  0
  194.8710  170.2500  146.2000 C   0  0  0  0  0  3  0  0  0  0  0  0
  189.9060  173.3300  140.6410 C   0  0  0  0  0  2  0  0  0  0  0  0
  190.6200  173.6760  141.9400 C   0  0  0  0  0  2  0  0  0  0  0  0
  190.2410  175.0860  142.3480 C   0  0  0  0  0  2  0  0  0  0  0  0
  190.8050  175.4270  143.7250 C   0  0  1  0  0  3  0  0  0  0  0  0
  189.6970  175.5250  144.7840 C   0  0  1  0  0  3  0  0  0  0  0  0
  189.7300  174.3830  145.8000 C   0  0  0  0  0  2  0  0  0  0  0  0
  189.4780  174.8450  147.2240 C   0  0  0  0  0  1  0  0  0  0  0  0
  189.5900  176.9160  145.4140 C   0  0  0  0  0  2  0  0  0  0  0  0
  188.5020  177.6770  144.8220 N   0  0  0  0  0  2  0  0  0  0  0  0
  187.5370  177.9780  145.8730 C   0  0  0  0  0  2  0  0  0  0  0  0
  186.1120  177.9830  145.3280 C   0  0  1  0  0  0  0  0  0  0  0  0
  185.4550  179.2500  145.8490 C   0  0  0  0  0  1  0  0  0  0  0  0
  184.5450  178.1490  142.9410 S   0  0  0  0  0  0  0  0  0  0  0  0
  186.1870  178.0790  143.7810 C   0  0  2  0  0  3  0  0  0  0  0  0
  185.8280  176.8320  143.0900 C   0  0  2  0  0  3  0  0  0  0  0  0
  186.1440  177.4870  140.7120 C   0  0  0  0  0  3  0  0  0  0  0  0
  186.8120  177.4170  139.6090 N   0  0  0  0  0  2  0  0  0  0  0  0
  186.5690  176.7420  141.8470 N   0  0  0  0  0  2  0  0  0  0  0  0
  185.3790  176.7540  145.9030 C   0  0  0  0  0  2  0  0  0  0  0  0
  185.1280  176.8800  147.2700 O   0  0  0  0  0  1  0  0  0  0  0  0
  191.7460  174.4640  144.1120 O   0  0  0  0  0  0  0  0  0  0  0  0
  195.4040  174.7160  143.4500 C   0  0  0  0  0  2  0  0  0  0  0  0
  195.7350  175.2920  144.8250 C   0  0  0  0  0  2  0  0  0  0  0  0
  194.0180  174.0790  143.4810 C   0  0  0  0  0  2  0  0  0  0  0  0
  192.9900  175.0870  143.9840 C   0  0  2  0  0  3  0  0  0  0  0  0
  193.4410  175.6280  145.3410 C   0  0  0  0  0  2  0  0  0  0  0  0
  194.7360  176.2910  145.2060 N   0  0  0  0  0  2  0  0  0  0  0  0
  1  2  1  6  0  0  0
  1  8  1  0  0  0  0
  4  6  1  6  0  0  0
  4  8  1  0  0  0  0
  4  5  1  0  0  0  0
  5  3  1  0  0  0  0
  5 11  1  1  0  0  0
  6  1  1  0  0  0  0
  7  1  1  0  0  0  0
  8  9  1  0  0  0  0
  8 10  1  1  0  0  0
  9  3  1  0  0  0  0
  9 32  1  1  0  0  0
 11 20  1  6  0  0  0
 12 13  1  0  0  0  0
 14 15  1  0  0  0  0
 15 13  1  0  0  0  0
 15 11  1  6  0  0  0
 16 14  1  0  0  0  0
 16 12  1  0  0  0  0
 18 19  1  0  0  0  0
 19 17  1  0  0  0  0
 19 16  1  0  0  0  0
 22 28  1  0  0  0  0
 23 27  1  0  0  0  0
 24 31  1  0  0  0  0
 25 21  1  0  0  0  0
 26 25  1  0  0  0  0
 27 26  2  0  0  0  0
 28 27  1  0  0  0  0
 28 24  2  0  0  0  0
 29 30  1  0  0  0  0
 29 23  1  0  0  0  0
 30 20  1  6  0  0  0
 30 22  1  0  0  0  0
 31 25  2  0  0  0  0
 32 33  1  0  0  0  0
 33 34  1  0  0  0  0
 35 34  1  6  0  0  0
 35 52  1  0  0  0  0
 35 36  1  0  0  0  0
 36 39  1  1  0  0  0
 36 37  1  0  0  0  0
 37 38  1  0  0  0  0
 40 39  1  0  0  0  0
 40 41  1  0  0  0  0
 42 43  1  1  0  0  0
 42 41  1  0  0  0  0
 42 50  1  0  0  0  0
 44 46  1  0  0  0  0
 44 45  1  0  0  0  0
 45 42  1  1  0  0  0
 46 49  1  6  0  0  0
 46 45  1  0  0  0  0
 47 49  1  0  0  0  0
 48 47  2  0  0  0  0
 50 51  1  0  0  0  0
 53 55  1  0  0  0  0
 53 54  1  0  0  0  0
 54 58  1  0  0  0  0
 55 56  1  0  0  0  0
 56 52  1  1  0  0  0
 56 57  1  0  0  0  0
 58 57  1  0  0  0  0
M  END
>  <MODEL>
5

>  <REMARK>
 VINA RESULT:      -5.4      2.630      9.507
  Name = 
  20 active torsions:
  status: ('A' for Active; 'I' for Inactive)
    1  A    between atoms: O_2  and  C_18
    2  A    between atoms: O_2  and  C_28
    3  A    between atoms: C_5  and  C_47
    4  A    between atoms: C_8  and  C_9
    5  A    between atoms: C_8  and  C_18
    6  A    between atoms: C_9  and  C_29
    7  A    between atoms: C_12  and  C_47
    8  A    between atoms: C_17  and  C_25
    9  A    between atoms: C_17  and  N_52
   10  A    between atoms: C_18  and  C_25
   11  A    between atoms: C_24  and  C_25
   12  A    between atoms: C_29  and  C_44
   13  A    between atoms: C_31  and  C_48
   14  A    between atoms: C_35  and  C_47
   15  A    between atoms: C_35  and  N_52
   16  A    between atoms: C_39  and  N_58
   17  A    between atoms: N_41  and  C_48
   18  A    between atoms: N_41  and  C_50
   19  A    between atoms: C_48  and  C_57
   20  A    between atoms: C_54  and  N_56
                            x       y       z     vdW  Elec       q    Type
                         _______ _______ _______ _____ _____    ______ ____

>  <TORSDO>
F 20

$$$$
=
 OpenBabel11072409333D

 58 64  0  0  1  0  0  0  0  0999 V2000
  190.3200  176.0900  146.4710 C   0  0  1  0  0  0  0  0  0  0  0  0
  190.6970  175.3050  147.7210 C   0  0  0  0  0  1  0  0  0  0  0  0
  190.3830  176.9740  143.1720 C   0  0  0  0  0  2  0  0  0  0  0  0
  189.5850  175.2910  144.7760 C   0  0  2  0  0  3  0  0  0  0  0  0
  189.1500  176.2330  143.6530 C   0  0  2  0  0  3  0  0  0  0  0  0
  189.0460  175.7260  146.0080 O   0  0  0  0  0  0  0  0  0  0  0  0
  190.3840  177.4670  146.7040 O   0  0  0  0  0  1  0  0  0  0  0  0
  190.9910  175.6590  145.1690 C   0  0  1  0  0  0  0  0  0  0  0  0
  191.4410  176.8020  144.2460 C   0  0  1  0  0  3  0  0  0  0  0  0
  191.8810  174.4170  145.2400 C   0  0  0  0  0  1  0  0  0  0  0  0
  188.4830  175.4950  142.4830 C   0  0  2  0  0  3  0  0  0  0  0  0
  186.4410  178.3240  142.2970 C   0  0  0  0  0  2  0  0  0  0  0  0
  187.1560  177.3500  141.3890 C   0  0  0  0  0  2  0  0  0  0  0  0
  186.2060  176.2670  143.3270 C   0  0  0  0  0  2  0  0  0  0  0  0
  187.0890  176.0280  142.1150 C   0  0  2  0  0  3  0  0  0  0  0  0
  185.5400  177.5570  143.1550 N   0  0  0  0  0  0  0  0  0  0  0  0
  185.2470  179.7200  144.2970 C   0  0  0  0  0  1  0  0  0  0  0  0
  186.7360  178.0260  145.2570 C   0  0  0  0  0  1  0  0  0  0  0  0
  185.4520  178.2210  144.4620 C   0  0  0  0  0  3  0  0  0  0  0  0
  188.4400  174.0500  142.7200 N   0  0  0  0  0  2  0  0  0  0  0  0
  190.2390  171.2030  135.5200 C   0  0  0  0  0  1  0  0  0  0  0  0
  189.0820  174.2140  140.3210 C   0  0  0  0  0  2  0  0  0  0  0  0
  189.8620  171.4260  140.4410 N   0  0  0  0  0  2  0  0  0  0  0  0
  189.2870  174.0370  137.8320 C   0  0  0  0  0  3  0  0  0  0  0  0
  189.9440  171.9710  136.7560 C   0  0  0  0  0  0  0  0  0  0  0  0
  190.0450  171.3500  138.0030 C   0  0  0  0  0  3  0  0  0  0  0  0
  189.7730  172.0710  139.1680 C   0  0  0  0  0  0  0  0  0  0  0  0
  189.3700  173.4180  139.0820 C   0  0  0  0  0  0  0  0  0  0  0  0
  189.7130  172.1760  141.6820 C   0  0  0  0  0  2  0  0  0  0  0  0
  188.6920  173.2990  141.4880 C   0  0  1  0  0  3  0  0  0  0  0  0
  189.5730  173.3140  136.6700 C   0  0  0  0  0  3  0  0  0  0  0  0
  192.8570  176.6880  143.6720 C   0  0  0  0  0  2  0  0  0  0  0  0
  192.8840  176.0840  142.2750 C   0  0  0  0  0  2  0  0  0  0  0  0
  194.2910  176.1900  141.7210 C   0  0  0  0  0  2  0  0  0  0  0  0
  194.9920  174.8350  141.7470 C   0  0  1  0  0  3  0  0  0  0  0  0
  195.3460  174.3500  140.3330 C   0  0  1  0  0  3  0  0  0  0  0  0
  196.8420  174.1070  140.1340 C   0  0  0  0  0  2  0  0  0  0  0  0
  197.5580  175.2880  139.5040 C   0  0  0  0  0  1  0  0  0  0  0  0
  194.4580  173.1990  139.8540 C   0  0  0  0  0  2  0  0  0  0  0  0
  195.1590  172.3590  138.8980 N   0  0  0  0  0  2  0  0  0  0  0  0
  194.4860  172.4830  137.6090 C   0  0  0  0  0  2  0  0  0  0  0  0
  195.2300  171.7120  136.5230 C   0  0  1  0  0  0  0  0  0  0  0  0
  194.1730  170.9880  135.7070 C   0  0  0  0  0  1  0  0  0  0  0  0
  197.7080  173.0460  136.0120 S   0  0  0  0  0  0  0  0  0  0  0  0
  195.9350  172.7400  135.5990 C   0  0  2  0  0  3  0  0  0  0  0  0
  196.1730  174.0440  136.2320 C   0  0  2  0  0  3  0  0  0  0  0  0
  196.3250  176.4430  135.5920 C   0  0  0  0  0  3  0  0  0  0  0  0
  196.2980  177.3670  134.6900 N   0  0  0  0  0  2  0  0  0  0  0  0
  196.1280  175.0830  135.2210 N   0  0  0  0  0  2  0  0  0  0  0  0
  196.1400  170.6760  137.2150 C   0  0  0  0  0  2  0  0  0  0  0  0
  196.5140  169.6430  136.3530 O   0  0  0  0  0  1  0  0  0  0  0  0
  196.1550  174.9090  142.5270 O   0  0  0  0  0  0  0  0  0  0  0  0
  196.6540  173.8070  146.0510 C   0  0  0  0  0  2  0  0  0  0  0  0
  196.3600  172.3370  145.7590 C   0  0  0  0  0  2  0  0  0  0  0  0
  196.9570  174.5380  144.7460 C   0  0  0  0  0  2  0  0  0  0  0  0
  195.8200  174.3280  143.7520 C   0  0  2  0  0  3  0  0  0  0  0  0
  195.5850  172.8280  143.5690 C   0  0  0  0  0  2  0  0  0  0  0  0
  195.2210  172.2220  144.8470 N   0  0  0  0  0  2  0  0  0  0  0  0
  1  7  1  0  0  0  0
  1  2  1  1  0  0  0
  3  5  1  0  0  0  0
  3  9  1  0  0  0  0
  4  8  1  0  0  0  0
  4  6  1  1  0  0  0
  5 11  1  6  0  0  0
  5  4  1  0  0  0  0
  6  1  1  0  0  0  0
  8 10  1  1  0  0  0
  8  1  1  0  0  0  0
  9 32  1  6  0  0  0
  9  8  1  0  0  0  0
 11 20  1  1  0  0  0
 12 16  1  0  0  0  0
 13 15  1  0  0  0  0
 13 12  1  0  0  0  0
 15 11  1  1  0  0  0
 15 14  1  0  0  0  0
 16 14  1  0  0  0  0
 16 19  1  0  0  0  0
 17 19  1  0  0  0  0
 19 18  1  0  0  0  0
 21 25  1  0  0  0  0
 22 30  1  0  0  0  0
 23 29  1  0  0  0  0
 24 28  1  0  0  0  0
 25 26  2  0  0  0  0
 26 27  1  0  0  0  0
 27 23  1  0  0  0  0
 28 27  2  0  0  0  0
 28 22  1  0  0  0  0
 30 29  1  0  0  0  0
 30 20  1  1  0  0  0
 31 25  1  0  0  0  0
 31 24  2  0  0  0  0
 33 32  1  0  0  0  0
 34 33  1  0  0  0  0
 35 34  1  6  0  0  0
 35 52  1  0  0  0  0
 36 39  1  1  0  0  0
 36 35  1  0  0  0  0
 37 36  1  0  0  0  0
 38 37  1  0  0  0  0
 40 39  1  0  0  0  0
 41 40  1  0  0  0  0
 42 43  1  6  0  0  0
 42 50  1  0  0  0  0
 42 41  1  0  0  0  0
 44 46  1  0  0  0  0
 45 44  1  0  0  0  0
 45 46  1  0  0  0  0
 45 42  1  1  0  0  0
 46 49  1  6  0  0  0
 48 47  2  0  0  0  0
 49 47  1  0  0  0  0
 51 50  1  0  0  0  0
 54 53  1  0  0  0  0
 55 53  1  0  0  0  0
 56 52  1  6  0  0  0
 56 55  1  0  0  0  0
 57 56  1  0  0  0  0
 57 58  1  0  0  0  0
 58 54  1  0  0  0  0
M  END
>  <MODEL>
6

>  <REMARK>
 VINA RESULT:      -5.3      2.354      5.022
  Name = 
  20 active torsions:
  status: ('A' for Active; 'I' for Inactive)
    1  A    between atoms: O_2  and  C_18
    2  A    between atoms: O_2  and  C_28
    3  A    between atoms: C_5  and  C_47
    4  A    between atoms: C_8  and  C_9
    5  A    between atoms: C_8  and  C_18
    6  A    between atoms: C_9  and  C_29
    7  A    between atoms: C_12  and  C_47
    8  A    between atoms: C_17  and  C_25
    9  A    between atoms: C_17  and  N_52
   10  A    between atoms: C_18  and  C_25
   11  A    between atoms: C_24  and  C_25
   12  A    between atoms: C_29  and  C_44
   13  A    between atoms: C_31  and  C_48
   14  A    between atoms: C_35  and  C_47
   15  A    between atoms: C_35  and  N_52
   16  A    between atoms: C_39  and  N_58
   17  A    between atoms: N_41  and  C_48
   18  A    between atoms: N_41  and  C_50
   19  A    between atoms: C_48  and  C_57
   20  A    between atoms: C_54  and  N_56
                            x       y       z     vdW  Elec       q    Type
                         _______ _______ _______ _____ _____    ______ ____

>  <TORSDO>
F 20

$$$$
=
 OpenBabel11072409333D

 58 64  0  0  1  0  0  0  0  0999 V2000
  190.6650  172.6180  137.4760 C   0  0  1  0  0  0  0  0  0  0  0  0
  189.7300  171.7540  136.6390 C   0  0  0  0  0  1  0  0  0  0  0  0
  192.2250  173.7440  140.2990 C   0  0  0  0  0  2  0  0  0  0  0  0
  192.1470  171.9240  138.6490 C   0  0  2  0  0  3  0  0  0  0  0  0
  193.0690  172.9310  139.3350 C   0  0  2  0  0  3  0  0  0  0  0  0
  192.0050  172.2490  137.2810 O   0  0  0  0  0  0  0  0  0  0  0  0
  190.4830  173.9750  137.1950 O   0  0  0  0  0  1  0  0  0  0  0  0
  190.7260  172.3050  138.9690 C   0  0  1  0  0  0  0  0  0  0  0  0
  190.7770  173.5270  139.8990 C   0  0  1  0  0  3  0  0  0  0  0  0
  189.9270  171.0900  139.4430 C   0  0  0  0  0  1  0  0  0  0  0  0
  194.2320  172.2610  140.0810 C   0  0  2  0  0  3  0  0  0  0  0  0
  196.1090  175.1390  139.4480 C   0  0  0  0  0  2  0  0  0  0  0  0
  195.9650  174.0570  140.4930 C   0  0  0  0  0  2  0  0  0  0  0  0
  195.7320  173.1990  138.2470 C   0  0  0  0  0  2  0  0  0  0  0  0
  195.6180  172.8130  139.7110 C   0  0  2  0  0  3  0  0  0  0  0  0
  196.4090  174.4920  138.1720 N   0  0  0  0  0  0  0  0  0  0  0  0
  194.2880  175.3030  137.2160 C   0  0  0  0  0  1  0  0  0  0  0  0
  196.1330  174.6780  135.7300 C   0  0  0  0  0  1  0  0  0  0  0  0
  195.8040  175.2800  137.0890 C   0  0  0  0  0  3  0  0  0  0  0  0
  194.1940  170.8050  139.9270 N   0  0  0  0  0  2  0  0  0  0  0  0
  194.5680  168.3920  147.4920 C   0  0  0  0  0  1  0  0  0  0  0  0
  194.7520  171.0210  142.3440 C   0  0  0  0  0  2  0  0  0  0  0  0
  192.9020  168.8520  142.8640 N   0  0  0  0  0  2  0  0  0  0  0  0
  195.5560  170.7370  144.6980 C   0  0  0  0  0  3  0  0  0  0  0  0
  194.6110  169.0640  146.1690 C   0  0  0  0  0  0  0  0  0  0  0  0
  193.7450  168.6540  145.1510 C   0  0  0  0  0  3  0  0  0  0  0  0
  193.7790  169.2870  143.9070 C   0  0  0  0  0  0  0  0  0  0  0  0
  194.7050  170.3210  143.6700 C   0  0  0  0  0  0  0  0  0  0  0  0
  192.8180  169.5700  141.5980 C   0  0  0  0  0  2  0  0  0  0  0  0
  194.1920  170.1310  141.2280 C   0  0  1  0  0  3  0  0  0  0  0  0
  195.5090  170.1090  145.9450 C   0  0  0  0  0  3  0  0  0  0  0  0
  189.8280  173.4990  141.1020 C   0  0  0  0  0  2  0  0  0  0  0  0
  189.8040  174.8140  141.8700 C   0  0  0  0  0  2  0  0  0  0  0  0
  188.7010  174.7560  142.9070 C   0  0  0  0  0  2  0  0  0  0  0  0
  188.4790  176.1240  143.5460 C   0  0  1  0  0  3  0  0  0  0  0  0
  189.1770  177.2410  142.7550 C   0  0  1  0  0  3  0  0  0  0  0  0
  188.2020  178.1830  142.0490 C   0  0  0  0  0  2  0  0  0  0  0  0
  187.5000  177.5370  140.8680 C   0  0  0  0  0  1  0  0  0  0  0  0
  190.2630  177.9570  143.5610 C   0  0  0  0  0  2  0  0  0  0  0  0
  190.6120  177.2060  144.7550 N   0  0  0  0  0  2  0  0  0  0  0  0
  192.0620  177.0490  144.7830 C   0  0  0  0  0  2  0  0  0  0  0  0
  192.5050  176.2320  145.9920 C   0  0  1  0  0  0  0  0  0  0  0  0
  191.4640  176.4620  147.0740 C   0  0  0  0  0  1  0  0  0  0  0  0
  194.1060  173.8790  145.7040 S   0  0  0  0  0  0  0  0  0  0  0  0
  192.4720  174.7310  145.6000 C   0  0  2  0  0  3  0  0  0  0  0  0
  193.0690  174.4460  144.2880 C   0  0  2  0  0  3  0  0  0  0  0  0
  191.5320  172.5010  144.4850 C   0  0  0  0  0  3  0  0  0  0  0  0
  190.9280  171.4910  143.9530 N   0  0  0  0  0  2  0  0  0  0  0  0
  192.4020  173.3030  143.6950 N   0  0  0  0  0  2  0  0  0  0  0  0
  193.8650  176.7860  146.4670 C   0  0  0  0  0  2  0  0  0  0  0  0
  194.5140  177.5180  145.4710 O   0  0  0  0  0  1  0  0  0  0  0  0
  187.1070  176.3960  143.6370 O   0  0  0  0  0  0  0  0  0  0  0  0
  187.0690  177.2970  147.2520 C   0  0  0  0  0  2  0  0  0  0  0  0
  185.6230  177.7870  147.2380 C   0  0  0  0  0  2  0  0  0  0  0  0
  187.3330  176.4440  146.0150 C   0  0  0  0  0  2  0  0  0  0  0  0
  186.9640  177.2210  144.7550 C   0  0  2  0  0  3  0  0  0  0  0  0
  185.5160  177.6990  144.8670 C   0  0  0  0  0  2  0  0  0  0  0  0
  185.3690  178.5720  146.0290 N   0  0  0  0  0  2  0  0  0  0  0  0
  1  2  1  6  0  0  0
  1  8  1  0  0  0  0
  4  6  1  6  0  0  0
  4  8  1  0  0  0  0
  4  5  1  0  0  0  0
  5 11  1  1  0  0  0
  5  3  1  0  0  0  0
  6  1  1  0  0  0  0
  7  1  1  0  0  0  0
  8 10  1  1  0  0  0
  8  9  1  0  0  0  0
  9  3  1  0  0  0  0
  9 32  1  1  0  0  0
 11 20  1  6  0  0  0
 12 13  1  0  0  0  0
 14 15  1  0  0  0  0
 15 11  1  6  0  0  0
 15 13  1  0  0  0  0
 16 14  1  0  0  0  0
 16 12  1  0  0  0  0
 18 19  1  0  0  0  0
 19 17  1  0  0  0  0
 19 16  1  0  0  0  0
 22 28  1  0  0  0  0
 23 27  1  0  0  0  0
 24 31  1  0  0  0  0
 25 21  1  0  0  0  0
 26 25  1  0  0  0  0
 27 26  2  0  0  0  0
 28 27  1  0  0  0  0
 28 24  2  0  0  0  0
 29 23  1  0  0  0  0
 30 20  1  6  0  0  0
 30 29  1  0  0  0  0
 30 22  1  0  0  0  0
 31 25  2  0  0  0  0
 32 33  1  0  0  0  0
 33 34  1  0  0  0  0
 35 34  1  6  0  0  0
 35 52  1  0  0  0  0
 36 37  1  1  0  0  0
 36 35  1  0  0  0  0
 36 39  1  0  0  0  0
 38 37  1  0  0  0  0
 39 40  1  0  0  0  0
 40 41  1  0  0  0  0
 41 42  1  0  0  0  0
 42 50  1  0  0  0  0
 42 43  1  1  0  0  0
 45 44  1  0  0  0  0
 45 42  1  1  0  0  0
 46 49  1  6  0  0  0
 46 45  1  0  0  0  0
 46 44  1  0  0  0  0
 48 47  2  0  0  0  0
 49 47  1  0  0  0  0
 51 50  1  0  0  0  0
 54 53  1  0  0  0  0
 55 53  1  0  0  0  0
 56 52  1  6  0  0  0
 56 57  1  0  0  0  0
 56 55  1  0  0  0  0
 57 58  1  0  0  0  0
 58 54  1  0  0  0  0
M  END
>  <MODEL>
7

>  <REMARK>
 VINA RESULT:      -5.3      2.316      8.861
  Name = 
  20 active torsions:
  status: ('A' for Active; 'I' for Inactive)
    1  A    between atoms: O_2  and  C_18
    2  A    between atoms: O_2  and  C_28
    3  A    between atoms: C_5  and  C_47
    4  A    between atoms: C_8  and  C_9
    5  A    between atoms: C_8  and  C_18
    6  A    between atoms: C_9  and  C_29
    7  A    between atoms: C_12  and  C_47
    8  A    between atoms: C_17  and  C_25
    9  A    between atoms: C_17  and  N_52
   10  A    between atoms: C_18  and  C_25
   11  A    between atoms: C_24  and  C_25
   12  A    between atoms: C_29  and  C_44
   13  A    between atoms: C_31  and  C_48
   14  A    between atoms: C_35  and  C_47
   15  A    between atoms: C_35  and  N_52
   16  A    between atoms: C_39  and  N_58
   17  A    between atoms: N_41  and  C_48
   18  A    between atoms: N_41  and  C_50
   19  A    between atoms: C_48  and  C_57
   20  A    between atoms: C_54  and  N_56
                            x       y       z     vdW  Elec       q    Type
                         _______ _______ _______ _____ _____    ______ ____

>  <TORSDO>
F 20

$$$$
=
 OpenBabel11072409333D

 58 64  0  0  1  0  0  0  0  0999 V2000
  188.5060  174.0280  141.2800 C   0  0  1  0  0  0  0  0  0  0  0  0
  187.4360  174.4830  142.2650 C   0  0  0  0  0  1  0  0  0  0  0  0
  191.5530  172.8730  140.2560 C   0  0  0  0  0  2  0  0  0  0  0  0
  189.4260  172.2380  141.3110 C   0  0  2  0  0  3  0  0  0  0  0  0
  190.3960  171.8950  140.1810 C   0  0  2  0  0  3  0  0  0  0  0  0
  188.2210  172.7500  140.7770 O   0  0  0  0  0  0  0  0  0  0  0  0
  188.6520  174.9460  140.2360 O   0  0  0  0  0  1  0  0  0  0  0  0
  189.8330  173.5700  141.8810 C   0  0  1  0  0  0  0  0  0  0  0  0
  191.0920  174.0260  141.1290 C   0  0  1  0  0  3  0  0  0  0  0  0
  189.9050  173.5130  143.4080 C   0  0  0  0  0  1  0  0  0  0  0  0
  190.9140  170.4510  140.2580 C   0  0  2  0  0  3  0  0  0  0  0  0
  191.5630  168.9620  137.1650 C   0  0  0  0  0  2  0  0  0  0  0  0
  191.4220  168.5900  138.6230 C   0  0  0  0  0  2  0  0  0  0  0  0
  189.8380  170.2850  137.9540 C   0  0  0  0  0  2  0  0  0  0  0  0
  190.3670  169.5270  139.1580 C   0  0  2  0  0  3  0  0  0  0  0  0
  190.3230  169.6160  136.7480 N   0  0  0  0  0  0  0  0  0  0  0  0
  192.0540  171.1670  135.9320 C   0  0  0  0  0  1  0  0  0  0  0  0
  189.6940  171.8200  135.8440 C   0  0  0  0  0  1  0  0  0  0  0  0
  190.6420  170.6340  135.7380 C   0  0  0  0  0  3  0  0  0  0  0  0
  190.6820  169.8740  141.5840 N   0  0  0  0  0  2  0  0  0  0  0  0
  196.9560  169.9640  146.4650 C   0  0  0  0  0  1  0  0  0  0  0  0
  192.0730  170.7320  143.4620 C   0  0  0  0  0  2  0  0  0  0  0  0
  193.4420  168.1790  143.4850 N   0  0  0  0  0  2  0  0  0  0  0  0
  193.8840  171.5800  144.9680 C   0  0  0  0  0  3  0  0  0  0  0  0
  195.7020  170.1550  145.6930 C   0  0  0  0  0  0  0  0  0  0  0  0
  195.1630  169.0910  144.9650 C   0  0  0  0  0  3  0  0  0  0  0  0
  193.9810  169.2670  144.2420 C   0  0  0  0  0  0  0  0  0  0  0  0
  193.3480  170.5250  144.2240 C   0  0  0  0  0  0  0  0  0  0  0  0
  192.1480  168.2850  142.8250 C   0  0  0  0  0  2  0  0  0  0  0  0
  191.9370  169.7150  142.3230 C   0  0  1  0  0  3  0  0  0  0  0  0
  195.0600  171.3950  145.7010 C   0  0  0  0  0  3  0  0  0  0  0  0
  192.2200  174.6070  141.9890 C   0  0  0  0  0  2  0  0  0  0  0  0
  193.6020  174.1470  141.5460 C   0  0  0  0  0  2  0  0  0  0  0  0
  194.5570  175.3210  141.6230 C   0  0  0  0  0  2  0  0  0  0  0  0
  195.4230  175.2400  142.8780 C   0  0  1  0  0  3  0  0  0  0  0  0
  196.8570  174.7980  142.5500 C   0  0  1  0  0  3  0  0  0  0  0  0
  197.0820  173.2960  142.7250 C   0  0  0  0  0  2  0  0  0  0  0  0
  197.7620  172.9440  144.0360 C   0  0  0  0  0  1  0  0  0  0  0  0
  197.3670  175.3550  141.2190 C   0  0  0  0  0  2  0  0  0  0  0  0
  197.3960  174.3220  140.1960 N   0  0  0  0  0  2  0  0  0  0  0  0
  196.8130  174.8750  138.9790 C   0  0  0  0  0  2  0  0  0  0  0  0
  196.5860  173.7880  137.9340 C   0  0  1  0  0  0  0  0  0  0  0  0
  195.2180  173.1920  138.2210 C   0  0  0  0  0  1  0  0  0  0  0  0
  197.9410  174.0180  135.4250 S   0  0  0  0  0  0  0  0  0  0  0  0
  196.5360  174.4620  136.5370 C   0  0  2  0  0  3  0  0  0  0  0  0
  197.5130  175.5460  136.3650 C   0  0  2  0  0  3  0  0  0  0  0  0
  195.5680  176.7030  135.3350 C   0  0  0  0  0  3  0  0  0  0  0  0
  195.0890  177.5940  134.5310 N   0  0  0  0  0  2  0  0  0  0  0  0
  196.9760  176.5370  135.4520 N   0  0  0  0  0  2  0  0  0  0  0  0
  197.6660  172.7050  138.1330 C   0  0  0  0  0  2  0  0  0  0  0  0
  197.1170  171.4290  138.2720 O   0  0  0  0  0  1  0  0  0  0  0  0
  195.4460  176.4800  143.5290 O   0  0  0  0  0  0  0  0  0  0  0  0
  193.4280  175.0170  146.2980 C   0  0  0  0  0  2  0  0  0  0  0  0
  193.0890  176.3670  146.9260 C   0  0  0  0  0  2  0  0  0  0  0  0
  193.9170  175.2240  144.8680 C   0  0  0  0  0  2  0  0  0  0  0  0
  195.0770  176.2140  144.8500 C   0  0  2  0  0  3  0  0  0  0  0  0
  194.6430  177.5080  145.5380 C   0  0  0  0  0  2  0  0  0  0  0  0
  194.2690  177.2330  146.9240 N   0  0  0  0  0  2  0  0  0  0  0  0
  1  8  1  0  0  0  0
  1  2  1  1  0  0  0
  3  9  1  0  0  0  0
  4  6  1  6  0  0  0
  4  8  1  0  0  0  0
  5  3  1  0  0  0  0
  5 11  1  1  0  0  0
  5  4  1  0  0  0  0
  6  1  1  0  0  0  0
  7  1  1  0  0  0  0
  8 10  1  1  0  0  0
  9  8  1  0  0  0  0
  9 32  1  1  0  0  0
 11 20  1  1  0  0  0
 12 13  1  0  0  0  0
 13 15  1  0  0  0  0
 14 15  1  0  0  0  0
 15 11  1  1  0  0  0
 16 12  1  0  0  0  0
 16 14  1  0  0  0  0
 19 18  1  0  0  0  0
 19 17  1  0  0  0  0
 19 16  1  0  0  0  0
 22 28  1  0  0  0  0
 23 27  1  0  0  0  0
 24 31  1  0  0  0  0
 25 31  2  0  0  0  0
 25 21  1  0  0  0  0
 26 25  1  0  0  0  0
 27 26  2  0  0  0  0
 28 27  1  0  0  0  0
 28 24  2  0  0  0  0
 29 23  1  0  0  0  0
 30 20  1  1  0  0  0
 30 29  1  0  0  0  0
 30 22  1  0  0  0  0
 33 34  1  0  0  0  0
 33 32  1  0  0  0  0
 35 34  1  6  0  0  0
 35 52  1  0  0  0  0
 36 39  1  6  0  0  0
 36 37  1  0  0  0  0
 36 35  1  0  0  0  0
 37 38  1  0  0  0  0
 40 39  1  0  0  0  0
 41 40  1  0  0  0  0
 42 50  1  0  0  0  0
 42 43  1  1  0  0  0
 42 41  1  0  0  0  0
 44 46  1  0  0  0  0
 44 45  1  0  0  0  0
 45 42  1  1  0  0  0
 46 49  1  6  0  0  0
 46 45  1  0  0  0  0
 47 49  1  0  0  0  0
 48 47  2  0  0  0  0
 50 51  1  0  0  0  0
 53 54  1  0  0  0  0
 55 53  1  0  0  0  0
 56 52  1  6  0  0  0
 56 55  1  0  0  0  0
 56 57  1  0  0  0  0
 57 58  1  0  0  0  0
 58 54  1  0  0  0  0
M  END
>  <MODEL>
8

>  <REMARK>
 VINA RESULT:      -5.2      3.439      7.953
  Name = 
  20 active torsions:
  status: ('A' for Active; 'I' for Inactive)
    1  A    between atoms: O_2  and  C_18
    2  A    between atoms: O_2  and  C_28
    3  A    between atoms: C_5  and  C_47
    4  A    between atoms: C_8  and  C_9
    5  A    between atoms: C_8  and  C_18
    6  A    between atoms: C_9  and  C_29
    7  A    between atoms: C_12  and  C_47
    8  A    between atoms: C_17  and  C_25
    9  A    between atoms: C_17  and  N_52
   10  A    between atoms: C_18  and  C_25
   11  A    between atoms: C_24  and  C_25
   12  A    between atoms: C_29  and  C_44
   13  A    between atoms: C_31  and  C_48
   14  A    between atoms: C_35  and  C_47
   15  A    between atoms: C_35  and  N_52
   16  A    between atoms: C_39  and  N_58
   17  A    between atoms: N_41  and  C_48
   18  A    between atoms: N_41  and  C_50
   19  A    between atoms: C_48  and  C_57
   20  A    between atoms: C_54  and  N_56
                            x       y       z     vdW  Elec       q    Type
                         _______ _______ _______ _____ _____    ______ ____

>  <TORSDO>
F 20

$$$$
=
 OpenBabel11072409333D

 58 64  0  0  1  0  0  0  0  0999 V2000
  190.7790  176.1070  146.7310 C   0  0  1  0  0  0  0  0  0  0  0  0
  190.9740  175.2810  147.9960 C   0  0  0  0  0  1  0  0  0  0  0  0
  191.2670  177.0540  143.4850 C   0  0  0  0  0  2  0  0  0  0  0  0
  190.2200  175.3730  144.9420 C   0  0  2  0  0  3  0  0  0  0  0  0
  189.9580  176.3540  143.7990 C   0  0  2  0  0  3  0  0  0  0  0  0
  189.5560  175.8050  146.1120 O   0  0  0  0  0  0  0  0  0  0  0  0
  190.8670  177.4750  147.0040 O   0  0  0  0  0  1  0  0  0  0  0  0
  191.5820  175.6750  145.5070 C   0  0  1  0  0  0  0  0  0  0  0  0
  192.1820  176.8170  144.6720 C   0  0  1  0  0  3  0  0  0  0  0  0
  192.4100  174.3960  145.6510 C   0  0  0  0  0  1  0  0  0  0  0  0
  189.4070  175.6670  142.5400 C   0  0  2  0  0  3  0  0  0  0  0  0
  187.2660  178.4230  142.7230 C   0  0  0  0  0  2  0  0  0  0  0  0
  188.3190  177.8320  141.8140 C   0  0  0  0  0  2  0  0  0  0  0  0
  186.9170  176.1390  142.8130 C   0  0  0  0  0  2  0  0  0  0  0  0
  188.1540  176.3390  141.9550 C   0  0  2  0  0  3  0  0  0  0  0  0
  186.2190  177.4200  142.9060 N   0  0  0  0  0  0  0  0  0  0  0  0
  184.3910  178.3920  144.2430 C   0  0  0  0  0  1  0  0  0  0  0  0
  186.6510  178.2610  145.1820 C   0  0  0  0  0  1  0  0  0  0  0  0
  185.6640  177.5580  144.2600 C   0  0  0  0  0  3  0  0  0  0  0  0
  189.1710  174.2410  142.7730 N   0  0  0  0  0  2  0  0  0  0  0  0
  194.1230  169.2920  139.0060 C   0  0  0  0  0  1  0  0  0  0  0  0
  191.1040  172.6820  142.5910 C   0  0  0  0  0  2  0  0  0  0  0  0
  189.9560  171.7040  140.1160 N   0  0  0  0  0  2  0  0  0  0  0  0
  193.1890  171.4420  141.9710 C   0  0  0  0  0  3  0  0  0  0  0  0
  193.3430  170.1620  139.9230 C   0  0  0  0  0  0  0  0  0  0  0  0
  192.0310  170.5170  139.5990 C   0  0  0  0  0  3  0  0  0  0  0  0
  191.2930  171.3300  140.4610 C   0  0  0  0  0  0  0  0  0  0  0  0
  191.8820  171.8150  141.6450 C   0  0  0  0  0  0  0  0  0  0  0  0
  189.1130  172.4420  141.0480 C   0  0  0  0  0  2  0  0  0  0  0  0
  189.9690  173.4130  141.8640 C   0  0  1  0  0  3  0  0  0  0  0  0
  193.9180  170.6170  141.1110 C   0  0  0  0  0  3  0  0  0  0  0  0
  193.6510  176.6560  144.2650 C   0  0  0  0  0  2  0  0  0  0  0  0
  193.8210  176.0780  142.8680 C   0  0  0  0  0  2  0  0  0  0  0  0
  195.3000  175.9670  142.5590 C   0  0  0  0  0  2  0  0  0  0  0  0
  195.6420  174.5850  142.0090 C   0  0  1  0  0  3  0  0  0  0  0  0
  196.1210  174.6560  140.5510 C   0  0  1  0  0  3  0  0  0  0  0  0
  197.4610  175.3730  140.3900 C   0  0  0  0  0  2  0  0  0  0  0  0
  197.8370  175.6120  138.9380 C   0  0  0  0  0  1  0  0  0  0  0  0
  196.0440  173.3080  139.8280 C   0  0  0  0  0  2  0  0  0  0  0  0
  194.9490  173.2870  138.8730 N   0  0  0  0  0  2  0  0  0  0  0  0
  195.4870  173.6280  137.5610 C   0  0  0  0  0  2  0  0  0  0  0  0
  194.4260  173.4780  136.4750 C   0  0  1  0  0  0  0  0  0  0  0  0
  194.8470  172.2960  135.6190 C   0  0  0  0  0  1  0  0  0  0  0  0
  192.0910  171.8380  136.2780 S   0  0  0  0  0  0  0  0  0  0  0  0
  193.0800  173.1230  137.1600 C   0  0  2  0  0  3  0  0  0  0  0  0
  191.9010  173.6630  136.4680 C   0  0  2  0  0  3  0  0  0  0  0  0
  189.4910  173.8220  137.0630 C   0  0  0  0  0  3  0  0  0  0  0  0
  188.5640  174.0540  137.9310 N   0  0  0  0  0  2  0  0  0  0  0  0
  190.8590  173.9380  137.4390 N   0  0  0  0  0  2  0  0  0  0  0  0
  194.4410  174.7600  135.6170 C   0  0  0  0  0  2  0  0  0  0  0  0
  194.5760  175.9130  136.3930 O   0  0  0  0  0  1  0  0  0  0  0  0
  196.6260  173.9800  142.8020 O   0  0  0  0  0  0  0  0  0  0  0  0
  195.1150  172.0000  145.5730 C   0  0  0  0  0  2  0  0  0  0  0  0
  196.0600  170.8130  145.4000 C   0  0  0  0  0  2  0  0  0  0  0  0
  195.6940  173.2230  144.8670 C   0  0  0  0  0  2  0  0  0  0  0  0
  195.9980  172.8910  143.4100 C   0  0  2  0  0  3  0  0  0  0  0  0
  196.9120  171.6660  143.3540 C   0  0  0  0  0  2  0  0  0  0  0  0
  196.2500  170.5230  143.9780 N   0  0  0  0  0  2  0  0  0  0  0  0
  1  7  1  0  0  0  0
  1  2  1  1  0  0  0
  3  5  1  0  0  0  0
  3  9  1  0  0  0  0
  4  8  1  0  0  0  0
  4  6  1  1  0  0  0
  5 11  1  6  0  0  0
  5  4  1  0  0  0  0
  6  1  1  0  0  0  0
  8 10  1  1  0  0  0
  8  1  1  0  0  0  0
  9 32  1  6  0  0  0
  9  8  1  0  0  0  0
 11 20  1  1  0  0  0
 12 16  1  0  0  0  0
 13 15  1  0  0  0  0
 13 12  1  0  0  0  0
 14 16  1  0  0  0  0
 15 11  1  1  0  0  0
 15 14  1  0  0  0  0
 16 19  1  0  0  0  0
 17 19  1  0  0  0  0
 19 18  1  0  0  0  0
 21 25  1  0  0  0  0
 23 27  1  0  0  0  0
 23 29  1  0  0  0  0
 25 31  1  0  0  0  0
 26 25  2  0  0  0  0
 26 27  1  0  0  0  0
 27 28  2  0  0  0  0
 28 24  1  0  0  0  0
 28 22  1  0  0  0  0
 29 30  1  0  0  0  0
 30 22  1  0  0  0  0
 30 20  1  1  0  0  0
 31 24  2  0  0  0  0
 33 32  1  0  0  0  0
 34 33  1  0  0  0  0
 35 34  1  1  0  0  0
 35 52  1  0  0  0  0
 36 39  1  1  0  0  0
 36 35  1  0  0  0  0
 37 36  1  0  0  0  0
 38 37  1  0  0  0  0
 40 39  1  0  0  0  0
 41 40  1  0  0  0  0
 42 43  1  6  0  0  0
 42 41  1  0  0  0  0
 44 46  1  0  0  0  0
 44 45  1  0  0  0  0
 45 42  1  6  0  0  0
 46 45  1  0  0  0  0
 46 49  1  1  0  0  0
 47 49  1  0  0  0  0
 47 48  2  0  0  0  0
 50 51  1  0  0  0  0
 50 42  1  0  0  0  0
 54 53  1  0  0  0  0
 55 53  1  0  0  0  0
 56 52  1  1  0  0  0
 56 55  1  0  0  0  0
 57 56  1  0  0  0  0
 57 58  1  0  0  0  0
 58 54  1  0  0  0  0
M  END
>  <MODEL>
9

>  <REMARK>
 VINA RESULT:      -5.1      2.473      5.608
  Name = 
  20 active torsions:
  status: ('A' for Active; 'I' for Inactive)
    1  A    between atoms: O_2  and  C_18
    2  A    between atoms: O_2  and  C_28
    3  A    between atoms: C_5  and  C_47
    4  A    between atoms: C_8  and  C_9
    5  A    between atoms: C_8  and  C_18
    6  A    between atoms: C_9  and  C_29
    7  A    between atoms: C_12  and  C_47
    8  A    between atoms: C_17  and  C_25
    9  A    between atoms: C_17  and  N_52
   10  A    between atoms: C_18  and  C_25
   11  A    between atoms: C_24  and  C_25
   12  A    between atoms: C_29  and  C_44
   13  A    between atoms: C_31  and  C_48
   14  A    between atoms: C_35  and  C_47
   15  A    between atoms: C_35  and  N_52
   16  A    between atoms: C_39  and  N_58
   17  A    between atoms: N_41  and  C_48
   18  A    between atoms: N_41  and  C_50
   19  A    between atoms: C_48  and  C_57
   20  A    between atoms: C_54  and  N_56
                            x       y       z     vdW  Elec       q    Type
                         _______ _______ _______ _____ _____    ______ ____

>  <TORSDO>
F 20

$$$$
