=
 OpenBabel11062418343D

 54 60  0  0  1  0  0  0  0  0999 V2000
  189.2860  172.7990  143.1040 C   0  0  0  0  0  0  0  0  0  0  0  0
  193.6900  174.5910  144.4960 N   0  0  0  0  0  2  0  0  0  0  0  0
  193.6660  173.3360  143.7570 C   0  0  0  0  0  2  0  0  0  0  0  0
  188.5350  172.2240  142.3300 O   0  0  0  0  0  0  0  0  0  0  0  0
  191.3370  174.9990  144.1450 C   0  0  0  0  0  3  0  0  0  0  0  0
  192.7240  171.2290  143.7690 C   0  0  2  0  0  3  0  0  0  0  0  0
  191.4630  171.5600  142.9330 C   0  0  2  0  0  3  0  0  0  0  0  0
  189.1490  174.2840  143.3570 C   0  0  1  0  0  3  0  0  0  0  0  0
  193.1330  172.3220  144.5750 O   0  0  0  0  0  0  0  0  0  0  0  0
  192.7180  175.5030  143.9000 C   0  0  0  0  0  2  0  0  0  0  0  0
  190.3260  172.0080  143.8510 C   0  0  0  0  0  2  0  0  0  0  0  0
  190.4670  174.9500  143.1470 C   0  0  0  0  0  3  0  0  0  0  0  0
  190.9790  170.3680  142.1260 C   0  0  0  0  0  1  0  0  0  0  0  0
  194.5250  171.4890  141.9800 C   0  0  0  0  0  2  0  0  0  0  0  0
  196.2460  168.5340  145.0370 C   0  0  0  0  0  2  0  0  0  0  0  0
  195.6650  169.6590  147.0970 O   0  0  0  0  0  1  0  0  0  0  0  0
  196.6550  169.5570  146.1180 C   0  0  2  0  0  3  0  0  0  0  0  0
  196.3120  170.6860  143.3200 C   0  0  2  0  0  3  0  0  0  0  0  0
  193.8890  170.5400  143.0070 C   0  0  1  0  0  3  0  0  0  0  0  0
  195.8960  171.8780  142.5010 C   0  0  1  0  0  3  0  0  0  0  0  0
  195.0180  170.2020  143.9730 C   0  0  1  0  0  3  0  0  0  0  0  0
  197.0710  170.9510  145.5750 C   0  0  1  0  0  3  0  0  0  0  0  0
  195.0550  168.8360  144.3250 O   0  0  0  0  0  0  0  0  0  0  0  0
  197.4080  170.9690  144.1940 O   0  0  0  0  0  0  0  0  0  0  0  0
  196.1560  171.9620  145.8930 O   0  0  0  0  0  0  0  0  0  0  0  0
  196.9380  173.0910  146.1320 C   0  0  0  0  0  1  0  0  0  0  0  0
  196.8080  172.0670  141.3840 N   0  0  0  0  0  2  0  0  0  0  0  0
  195.6770  174.9160  138.0100 C   0  0  0  0  0  2  0  0  0  0  0  0
  197.9340  174.4320  136.9830 C   0  0  0  0  0  2  0  0  0  0  0  0
  195.2090  174.9720  139.4610 C   0  0  2  0  0  3  0  0  0  0  0  0
  196.0520  172.6730  140.3000 C   0  0  1  0  0  3  0  0  0  0  0  0
  197.7670  172.9430  137.2860 C   0  0  0  0  0  2  0  0  0  0  0  0
  197.1340  175.3450  137.9040 C   0  0  0  0  0  2  0  0  0  0  0  0
  196.1240  174.2000  140.4230 C   0  0  0  0  0  2  0  0  0  0  0  0
  193.8900  174.5250  139.5620 O   0  0  0  0  0  1  0  0  0  0  0  0
  196.5750  172.1510  138.9630 C   0  0  0  0  0  2  0  0  0  0  0  0
  197.8330  172.6830  138.6610 O   0  0  0  0  0  0  0  0  0  0  0  0
  188.1030  174.9390  142.4640 C   0  0  0  0  0  2  0  0  0  0  0  0
  185.6370  178.3000  142.5480 C   0  0  0  0  0  2  0  0  0  0  0  0
  186.7590  178.3160  143.3870 O   0  0  0  0  0  0  0  0  0  0  0  0
  187.0560  176.9670  143.6260 C   0  0  1  0  0  3  0  0  0  0  0  0
  188.1550  177.1420  141.4010 O   0  0  0  0  0  0  0  0  0  0  0  0
  188.1350  176.4550  142.6380 C   0  0  2  0  0  3  0  0  0  0  0  0
  186.0580  178.2750  141.0840 C   0  0  0  0  0  2  0  0  0  0  0  0
  186.8930  177.0320  140.7850 C   0  0  0  0  0  2  0  0  0  0  0  0
  187.8690  178.0690  147.1620 C   0  0  0  0  0  2  0  0  0  0  0  0
  187.3020  176.7480  145.1330 C   0  0  2  0  0  3  0  0  0  0  0  0
  186.1220  176.9020  146.0110 C   0  0  2  0  0  0  0  0  0  0  0  0
  186.9530  178.7140  148.2230 C   0  0  0  0  0  2  0  0  0  0  0  0
  187.1520  177.9800  145.8980 N   0  0  1  0  0  0  0  0  0  0  0  0
  186.2330  176.0810  147.1460 O   0  0  0  0  0  1  0  0  0  0  0  0
  185.7040  179.4140  147.6430 C   0  0  0  0  0  2  0  0  0  0  0  0
  184.5790  178.4350  147.2510 C   0  0  0  0  0  2  0  0  0  0  0  0
  184.8130  177.6750  145.9310 C   0  0  0  0  0  2  0  0  0  0  0  0
  1  8  1  0  0  0  0
  1 11  1  0  0  0  0
  3  2  1  0  0  0  0
  3  9  1  0  0  0  0
  4  1  2  0  0  0  0
  6  9  1  6  0  0  0
  7 13  1  1  0  0  0
  7  6  1  0  0  0  0
  7 11  1  0  0  0  0
  8 38  1  6  0  0  0
 10  5  1  0  0  0  0
 10  2  1  0  0  0  0
 12  8  1  0  0  0  0
 12  5  2  0  0  0  0
 14 20  1  0  0  0  0
 15 17  1  0  0  0  0
 17 16  1  1  0  0  0
 18 21  1  0  0  0  0
 18 24  1  1  0  0  0
 19 14  1  6  0  0  0
 19  6  1  0  0  0  0
 19 21  1  0  0  0  0
 20 27  1  6  0  0  0
 20 18  1  0  0  0  0
 21 23  1  6  0  0  0
 22 25  1  6  0  0  0
 22 17  1  0  0  0  0
 23 15  1  0  0  0  0
 24 22  1  0  0  0  0
 25 26  1  0  0  0  0
 28 30  1  0  0  0  0
 29 32  1  0  0  0  0
 29 33  1  0  0  0  0
 30 35  1  6  0  0  0
 30 34  1  0  0  0  0
 31 34  1  0  0  0  0
 31 27  1  1  0  0  0
 32 37  1  0  0  0  0
 33 28  1  0  0  0  0
 36 31  1  0  0  0  0
 37 36  1  0  0  0  0
 39 40  1  0  0  0  0
 41 40  1  1  0  0  0
 42 43  1  0  0  0  0
 43 38  1  6  0  0  0
 43 41  1  0  0  0  0
 44 39  1  0  0  0  0
 45 44  1  0  0  0  0
 45 42  1  0  0  0  0
 46 49  1  0  0  0  0
 47 41  1  6  0  0  0
 47 50  1  0  0  0  0
 47 48  1  0  0  0  0
 48 51  1  1  0  0  0
 50 48  1  0  0  0  0
 50 46  1  1  0  0  0
 52 49  1  0  0  0  0
 53 52  1  0  0  0  0
 54 48  1  0  0  0  0
 54 53  1  0  0  0  0
M  END
>  <MODEL>
1

>  <REMARK>
 VINA RESULT:      -8.6      0.000      0.000
  Name = 
  7 active torsions:
  status: ('A' for Active; 'I' for Inactive)
    1  A    between atoms: N_9  and  C_16
    2  A    between atoms: N_9  and  C_34
    3  A    between atoms: C_14  and  C_19
    4  A    between atoms: C_18  and  C_32
    5  A    between atoms: C_21  and  C_31
    6  A    between atoms: O_29  and  C_47
    7  A    between atoms: C_31  and  C_36
                            x       y       z     vdW  Elec       q    Type
                         _______ _______ _______ _____ _____    ______ ____

>  <TORSDO>
F 7

$$$$
=
 OpenBabel11062418343D

 54 60  0  0  1  0  0  0  0  0999 V2000
  193.0300  172.6300  139.4350 C   0  0  0  0  0  0  0  0  0  0  0  0
  188.3820  174.0040  140.4620 N   0  0  0  0  0  2  0  0  0  0  0  0
  189.4670  174.8300  140.9750 C   0  0  0  0  0  2  0  0  0  0  0  0
  194.2000  172.8510  139.1600 O   0  0  0  0  0  0  0  0  0  0  0  0
  189.8630  172.6550  139.1150 C   0  0  0  0  0  3  0  0  0  0  0  0
  191.4110  174.7240  142.2140 C   0  0  2  0  0  3  0  0  0  0  0  0
  192.3890  174.4460  141.0450 C   0  0  2  0  0  3  0  0  0  0  0  0
  192.1010  172.0000  138.4210 C   0  0  1  0  0  3  0  0  0  0  0  0
  190.1390  174.1350  141.9980 O   0  0  0  0  0  0  0  0  0  0  0  0
  188.7090  173.5980  139.0980 C   0  0  0  0  0  2  0  0  0  0  0  0
  192.5230  172.9410  140.8180 C   0  0  0  0  0  2  0  0  0  0  0  0
  190.8750  172.8380  138.2790 C   0  0  0  0  0  3  0  0  0  0  0  0
  193.7740  175.0120  141.3070 C   0  0  0  0  0  1  0  0  0  0  0  0
  189.8970  176.6920  142.8020 C   0  0  0  0  0  2  0  0  0  0  0  0
  193.5270  177.0610  145.5800 C   0  0  0  0  0  2  0  0  0  0  0  0
  193.7540  174.7640  146.3000 O   0  0  0  0  0  1  0  0  0  0  0  0
  193.1280  175.9750  146.6010 C   0  0  2  0  0  3  0  0  0  0  0  0
  190.8500  177.0980  144.9370 C   0  0  2  0  0  3  0  0  0  0  0  0
  191.3470  176.1920  142.7180 C   0  0  1  0  0  3  0  0  0  0  0  0
  189.5340  176.8060  144.2700 C   0  0  1  0  0  3  0  0  0  0  0  0
  191.8680  176.2750  144.1480 C   0  0  1  0  0  3  0  0  0  0  0  0
  191.5990  175.7970  146.8020 C   0  0  1  0  0  3  0  0  0  0  0  0
  193.1780  176.7930  144.2300 O   0  0  0  0  0  0  0  0  0  0  0  0
  190.8140  176.8930  146.3520 O   0  0  0  0  0  0  0  0  0  0  0  0
  191.1160  174.5810  146.3020 O   0  0  0  0  0  0  0  0  0  0  0  0
  189.8270  174.4660  146.8230 C   0  0  0  0  0  1  0  0  0  0  0  0
  188.6120  177.9140  144.4620 N   0  0  0  0  0  2  0  0  0  0  0  0
  184.4400  177.7450  146.2920 C   0  0  0  0  0  2  0  0  0  0  0  0
  183.6070  178.9790  144.2500 C   0  0  0  0  0  2  0  0  0  0  0  0
  185.7720  177.7870  147.0340 C   0  0  2  0  0  3  0  0  0  0  0  0
  187.4030  177.3770  145.0660 C   0  0  1  0  0  3  0  0  0  0  0  0
  184.4640  178.0910  143.3480 C   0  0  0  0  0  2  0  0  0  0  0  0
  184.1320  179.1030  145.6760 C   0  0  0  0  0  2  0  0  0  0  0  0
  186.9270  178.3230  146.1750 C   0  0  0  0  0  2  0  0  0  0  0  0
  186.0790  176.5260  147.5490 O   0  0  0  0  0  1  0  0  0  0  0  0
  186.3530  177.1470  143.9800 C   0  0  0  0  0  2  0  0  0  0  0  0
  185.8300  178.3550  143.5070 O   0  0  0  0  0  0  0  0  0  0  0  0
  192.7540  171.8240  137.0550 C   0  0  0  0  0  2  0  0  0  0  0  0
  192.7600  168.5160  134.5180 C   0  0  0  0  0  2  0  0  0  0  0  0
  193.9360  168.7650  135.2370 O   0  0  0  0  0  0  0  0  0  0  0  0
  193.9120  170.1400  135.5120 C   0  0  1  0  0  3  0  0  0  0  0  0
  192.4020  169.4220  137.3550 O   0  0  0  0  0  0  0  0  0  0  0  0
  193.3140  170.4120  136.9170 C   0  0  2  0  0  3  0  0  0  0  0  0
  191.6150  168.1680  135.4610 C   0  0  0  0  0  2  0  0  0  0  0  0
  191.3460  169.3170  136.4290 C   0  0  0  0  0  2  0  0  0  0  0  0
  196.7790  172.5730  136.0040 C   0  0  0  0  0  2  0  0  0  0  0  0
  195.2860  170.7600  135.1860 C   0  0  2  0  0  3  0  0  0  0  0  0
  196.4400  170.2020  135.9260 C   0  0  2  0  0  0  0  0  0  0  0  0
  197.9350  172.5320  137.0240 C   0  0  0  0  0  2  0  0  0  0  0  0
  195.8290  171.5120  136.3110 N   0  0  1  0  0  0  0  0  0  0  0  0
  197.6140  170.2900  135.1590 O   0  0  0  0  0  1  0  0  0  0  0  0
  197.6490  171.6730  138.2760 C   0  0  0  0  0  2  0  0  0  0  0  0
  197.7970  170.1590  138.0290 C   0  0  0  0  0  2  0  0  0  0  0  0
  196.6260  169.5090  137.2680 C   0  0  0  0  0  2  0  0  0  0  0  0
  1 11  1  0  0  0  0
  2  3  1  0  0  0  0
  3  9  1  0  0  0  0
  4  1  2  0  0  0  0
  6  9  1  6  0  0  0
  6 19  1  0  0  0  0
  7 13  1  1  0  0  0
  7  6  1  0  0  0  0
  8 38  1  6  0  0  0
  8  1  1  0  0  0  0
 10  5  1  0  0  0  0
 10  2  1  0  0  0  0
 11  7  1  0  0  0  0
 12  8  1  0  0  0  0
 12  5  2  0  0  0  0
 14 20  1  0  0  0  0
 15 17  1  0  0  0  0
 17 16  1  6  0  0  0
 17 22  1  0  0  0  0
 18 24  1  1  0  0  0
 19 14  1  1  0  0  0
 19 21  1  0  0  0  0
 20 27  1  6  0  0  0
 20 18  1  0  0  0  0
 21 23  1  6  0  0  0
 21 18  1  0  0  0  0
 22 25  1  6  0  0  0
 23 15  1  0  0  0  0
 24 22  1  0  0  0  0
 25 26  1  0  0  0  0
 28 30  1  0  0  0  0
 29 33  1  0  0  0  0
 30 35  1  6  0  0  0
 31 27  1  6  0  0  0
 31 34  1  0  0  0  0
 32 37  1  0  0  0  0
 32 29  1  0  0  0  0
 33 28  1  0  0  0  0
 34 30  1  0  0  0  0
 36 31  1  0  0  0  0
 37 36  1  0  0  0  0
 39 40  1  0  0  0  0
 39 44  1  0  0  0  0
 41 40  1  1  0  0  0
 41 43  1  0  0  0  0
 43 38  1  6  0  0  0
 43 42  1  0  0  0  0
 44 45  1  0  0  0  0
 45 42  1  0  0  0  0
 46 49  1  0  0  0  0
 47 41  1  1  0  0  0
 47 48  1  0  0  0  0
 47 50  1  0  0  0  0
 48 51  1  6  0  0  0
 48 50  1  0  0  0  0
 48 54  1  0  0  0  0
 49 52  1  0  0  0  0
 50 46  1  6  0  0  0
 53 52  1  0  0  0  0
 54 53  1  0  0  0  0
M  END
>  <MODEL>
2

>  <REMARK>
 VINA RESULT:      -7.6      3.470     11.018
  Name = 
  7 active torsions:
  status: ('A' for Active; 'I' for Inactive)
    1  A    between atoms: N_9  and  C_16
    2  A    between atoms: N_9  and  C_34
    3  A    between atoms: C_14  and  C_19
    4  A    between atoms: C_18  and  C_32
    5  A    between atoms: C_21  and  C_31
    6  A    between atoms: O_29  and  C_47
    7  A    between atoms: C_31  and  C_36
                            x       y       z     vdW  Elec       q    Type
                         _______ _______ _______ _____ _____    ______ ____

>  <TORSDO>
F 7

$$$$
=
 OpenBabel11062418343D

 54 60  0  0  1  0  0  0  0  0999 V2000
  196.3840  174.0720  141.2060 C   0  0  0  0  0  0  0  0  0  0  0  0
  191.6010  173.1390  142.1060 N   0  0  0  0  0  2  0  0  0  0  0  0
  192.1410  174.4220  142.5400 C   0  0  0  0  0  2  0  0  0  0  0  0
  197.3180  174.8020  140.9110 O   0  0  0  0  0  0  0  0  0  0  0  0
  193.6030  172.5570  140.8890 C   0  0  0  0  0  3  0  0  0  0  0  0
  193.8450  175.3590  143.7810 C   0  0  2  0  0  3  0  0  0  0  0  0
  194.8870  175.4870  142.6430 C   0  0  2  0  0  3  0  0  0  0  0  0
  195.9110  172.9960  140.2550 C   0  0  1  0  0  3  0  0  0  0  0  0
  193.0160  174.2180  143.6220 O   0  0  0  0  0  0  0  0  0  0  0  0
  192.1410  172.8290  140.7850 C   0  0  0  0  0  2  0  0  0  0  0  0
  195.7300  174.2160  142.5560 C   0  0  0  0  0  2  0  0  0  0  0  0
  194.4410  173.1320  140.0390 C   0  0  0  0  0  3  0  0  0  0  0  0
  195.8230  176.6640  142.8500 C   0  0  0  0  0  1  0  0  0  0  0  0
  192.0630  177.0330  143.0520 C   0  0  0  0  0  2  0  0  0  0  0  0
  191.8480  176.9260  147.6320 C   0  0  0  0  0  2  0  0  0  0  0  0
  191.9420  174.5410  148.0120 O   0  0  0  0  0  1  0  0  0  0  0  0
  191.0670  175.6020  147.7800 C   0  0  2  0  0  3  0  0  0  0  0  0
  190.8250  176.9630  145.0760 C   0  0  2  0  0  3  0  0  0  0  0  0
  193.0690  176.6530  144.1490 C   0  0  1  0  0  3  0  0  0  0  0  0
  190.6710  176.7650  143.5920 C   0  0  1  0  0  3  0  0  0  0  0  0
  192.2180  176.4170  145.3900 C   0  0  1  0  0  3  0  0  0  0  0  0
  190.0810  175.2930  146.6210 C   0  0  1  0  0  3  0  0  0  0  0  0
  192.7770  176.9740  146.5590 O   0  0  0  0  0  0  0  0  0  0  0  0
  189.7350  176.4180  145.8240 O   0  0  0  0  0  0  0  0  0  0  0  0
  190.4830  174.2090  145.8310 O   0  0  0  0  0  0  0  0  0  0  0  0
  189.3150  173.7630  145.2130 C   0  0  0  0  0  1  0  0  0  0  0  0
  189.7380  177.7380  143.0460 N   0  0  0  0  0  2  0  0  0  0  0  0
  185.1990  177.3750  142.8510 C   0  0  0  0  0  2  0  0  0  0  0  0
  185.3290  178.2920  140.4990 C   0  0  0  0  0  2  0  0  0  0  0  0
  186.0520  177.6250  144.0900 C   0  0  2  0  0  3  0  0  0  0  0  0
  188.4070  177.1590  143.1230 C   0  0  1  0  0  3  0  0  0  0  0  0
  186.5320  177.3960  140.2040 C   0  0  0  0  0  2  0  0  0  0  0  0
  185.1520  178.6220  141.9770 C   0  0  0  0  0  2  0  0  0  0  0  0
  187.4500  178.1710  143.7630 C   0  0  0  0  0  2  0  0  0  0  0  0
  186.1390  176.4640  144.8600 O   0  0  0  0  0  1  0  0  0  0  0  0
  187.9670  176.7110  141.7300 C   0  0  0  0  0  2  0  0  0  0  0  0
  187.6700  177.8050  140.9100 O   0  0  0  0  0  0  0  0  0  0  0  0
  196.6270  173.0420  138.9110 C   0  0  0  0  0  2  0  0  0  0  0  0
  196.8080  174.7410  135.1090 C   0  0  0  0  0  2  0  0  0  0  0  0
  195.5770  174.2020  135.5030 O   0  0  0  0  0  0  0  0  0  0  0  0
  195.8950  173.2320  136.4650 C   0  0  1  0  0  3  0  0  0  0  0  0
  196.0180  175.2140  137.9630 O   0  0  0  0  0  0  0  0  0  0  0  0
  195.7930  173.8180  137.8960 C   0  0  2  0  0  3  0  0  0  0  0  0
  197.1820  175.9300  135.9850 C   0  0  0  0  0  2  0  0  0  0  0  0
  197.2960  175.5060  137.4470 C   0  0  0  0  0  2  0  0  0  0  0  0
  193.5500  170.3700  137.2970 C   0  0  0  0  0  2  0  0  0  0  0  0
  195.1210  171.9310  136.1660 C   0  0  2  0  0  3  0  0  0  0  0  0
  193.7450  172.1000  135.6520 C   0  0  2  0  0  0  0  0  0  0  0  0
  192.0080  170.3380  137.3090 C   0  0  0  0  0  2  0  0  0  0  0  0
  194.0010  171.7370  137.0800 N   0  0  1  0  0  0  0  0  0  0  0  0
  193.3890  171.0280  134.8140 O   0  0  0  0  0  1  0  0  0  0  0  0
  191.3440  171.7250  137.4540 C   0  0  0  0  0  2  0  0  0  0  0  0
  191.3290  172.5370  136.1430 C   0  0  0  0  0  2  0  0  0  0  0  0
  192.6770  173.1790  135.7640 C   0  0  0  0  0  2  0  0  0  0  0  0
  1 11  1  0  0  0  0
  2  3  1  0  0  0  0
  3  9  1  0  0  0  0
  4  1  2  0  0  0  0
  6  9  1  6  0  0  0
  6 19  1  0  0  0  0
  7 13  1  1  0  0  0
  7  6  1  0  0  0  0
  8 38  1  6  0  0  0
  8  1  1  0  0  0  0
 10  5  1  0  0  0  0
 10  2  1  0  0  0  0
 11  7  1  0  0  0  0
 12  8  1  0  0  0  0
 12  5  2  0  0  0  0
 14 20  1  0  0  0  0
 15 17  1  0  0  0  0
 17 16  1  6  0  0  0
 18 21  1  0  0  0  0
 18 24  1  1  0  0  0
 19 14  1  6  0  0  0
 19 21  1  0  0  0  0
 20 27  1  6  0  0  0
 20 18  1  0  0  0  0
 21 23  1  1  0  0  0
 22 25  1  6  0  0  0
 22 17  1  0  0  0  0
 23 15  1  0  0  0  0
 24 22  1  0  0  0  0
 26 25  1  0  0  0  0
 28 30  1  0  0  0  0
 29 33  1  0  0  0  0
 30 35  1  6  0  0  0
 31 27  1  6  0  0  0
 31 34  1  0  0  0  0
 32 29  1  0  0  0  0
 32 37  1  0  0  0  0
 33 28  1  0  0  0  0
 34 30  1  0  0  0  0
 36 31  1  0  0  0  0
 37 36  1  0  0  0  0
 39 40  1  0  0  0  0
 39 44  1  0  0  0  0
 41 40  1  6  0  0  0
 41 43  1  0  0  0  0
 43 42  1  0  0  0  0
 43 38  1  1  0  0  0
 44 45  1  0  0  0  0
 45 42  1  0  0  0  0
 46 49  1  0  0  0  0
 47 41  1  1  0  0  0
 47 50  1  0  0  0  0
 48 51  1  6  0  0  0
 48 54  1  0  0  0  0
 48 47  1  0  0  0  0
 48 50  1  0  0  0  0
 49 52  1  0  0  0  0
 50 46  1  6  0  0  0
 53 52  1  0  0  0  0
 54 53  1  0  0  0  0
M  END
>  <MODEL>
3

>  <REMARK>
 VINA RESULT:      -7.3      3.138      9.949
  Name = 
  7 active torsions:
  status: ('A' for Active; 'I' for Inactive)
    1  A    between atoms: N_9  and  C_16
    2  A    between atoms: N_9  and  C_34
    3  A    between atoms: C_14  and  C_19
    4  A    between atoms: C_18  and  C_32
    5  A    between atoms: C_21  and  C_31
    6  A    between atoms: O_29  and  C_47
    7  A    between atoms: C_31  and  C_36
                            x       y       z     vdW  Elec       q    Type
                         _______ _______ _______ _____ _____    ______ ____

>  <TORSDO>
F 7

$$$$
=
 OpenBabel11062418343D

 54 60  0  0  1  0  0  0  0  0999 V2000
  195.5400  175.9440  142.6940 C   0  0  0  0  0  0  0  0  0  0  0  0
  193.9530  172.3830  145.7530 N   0  0  0  0  0  2  0  0  0  0  0  0
  192.9890  173.3810  145.3080 C   0  0  0  0  0  2  0  0  0  0  0  0
  195.4110  176.7160  141.7560 O   0  0  0  0  0  0  0  0  0  0  0  0
  195.6630  173.1620  144.2370 C   0  0  0  0  0  3  0  0  0  0  0  0
  192.6420  175.6600  145.1950 C   0  0  2  0  0  3  0  0  0  0  0  0
  193.2900  175.9010  143.8100 C   0  0  2  0  0  3  0  0  0  0  0  0
  196.4880  174.7690  142.6070 C   0  0  1  0  0  3  0  0  0  0  0  0
  193.2850  174.6170  145.9110 O   0  0  0  0  0  0  0  0  0  0  0  0
  194.7970  172.0120  144.6200 C   0  0  0  0  0  2  0  0  0  0  0  0
  194.7810  176.1970  143.9700 C   0  0  0  0  0  2  0  0  0  0  0  0
  195.7640  173.5150  142.9640 C   0  0  0  0  0  3  0  0  0  0  0  0
  192.6520  177.0650  143.0710 C   0  0  0  0  0  1  0  0  0  0  0  0
  190.4530  176.8430  144.6300 C   0  0  0  0  0  2  0  0  0  0  0  0
  189.5820  172.3640  144.1720 C   0  0  0  0  0  2  0  0  0  0  0  0
  191.5470  171.6650  142.9500 O   0  0  0  0  0  1  0  0  0  0  0  0
  190.2500  172.1540  142.7960 C   0  0  2  0  0  3  0  0  0  0  0  0
  189.4910  175.0200  143.4530 C   0  0  2  0  0  3  0  0  0  0  0  0
  191.0910  175.5760  145.2200 C   0  0  1  0  0  3  0  0  0  0  0  0
  189.8500  176.4720  143.2880 C   0  0  1  0  0  3  0  0  0  0  0  0
  190.6140  174.4460  144.3170 C   0  0  1  0  0  3  0  0  0  0  0  0
  190.2070  173.3890  141.8550 C   0  0  1  0  0  3  0  0  0  0  0  0
  190.2250  173.2930  145.0320 O   0  0  0  0  0  0  0  0  0  0  0  0
  189.2380  174.3660  142.2070 O   0  0  0  0  0  0  0  0  0  0  0  0
  191.4670  173.9660  141.6490 O   0  0  0  0  0  0  0  0  0  0  0  0
  191.7210  173.7940  140.2880 C   0  0  0  0  0  1  0  0  0  0  0  0
  188.6550  177.2660  143.0530 N   0  0  0  0  0  2  0  0  0  0  0  0
  185.3730  177.6440  146.1940 C   0  0  0  0  0  2  0  0  0  0  0  0
  184.0250  178.9260  144.4830 C   0  0  0  0  0  2  0  0  0  0  0  0
  186.8750  177.5400  146.4370 C   0  0  2  0  0  3  0  0  0  0  0  0
  187.6770  176.8930  144.0630 C   0  0  1  0  0  3  0  0  0  0  0  0
  184.4210  177.9210  143.4010 C   0  0  0  0  0  2  0  0  0  0  0  0
  185.0180  179.0160  145.6360 C   0  0  0  0  0  2  0  0  0  0  0  0
  187.7150  177.9130  145.2060 C   0  0  0  0  0  2  0  0  0  0  0  0
  187.2040  176.2620  146.8950 O   0  0  0  0  0  1  0  0  0  0  0  0
  186.3000  176.7680  143.4130 C   0  0  0  0  0  2  0  0  0  0  0  0
  185.7780  178.0200  143.0710 O   0  0  0  0  0  0  0  0  0  0  0  0
  197.1120  174.6180  141.2250 C   0  0  0  0  0  2  0  0  0  0  0  0
  196.7810  173.0970  137.3580 C   0  0  0  0  0  2  0  0  0  0  0  0
  196.4100  172.2470  138.4070 O   0  0  0  0  0  0  0  0  0  0  0  0
  197.1260  172.7070  139.5210 C   0  0  1  0  0  3  0  0  0  0  0  0
  195.2820  174.3740  139.6200 O   0  0  0  0  0  0  0  0  0  0  0  0
  196.2670  173.6830  140.3660 C   0  0  2  0  0  3  0  0  0  0  0  0
  195.8510  174.3020  137.2850 C   0  0  0  0  0  2  0  0  0  0  0  0
  195.9020  175.1010  138.5850 C   0  0  0  0  0  2  0  0  0  0  0  0
  197.7110  170.3920  142.4670 C   0  0  0  0  0  2  0  0  0  0  0  0
  197.7790  171.5130  140.2490 C   0  0  2  0  0  3  0  0  0  0  0  0
  197.0490  170.2290  140.1700 C   0  0  2  0  0  0  0  0  0  0  0  0
  196.8670  169.1970  142.9580 C   0  0  0  0  0  2  0  0  0  0  0  0
  196.9970  171.0790  141.4000 N   0  0  1  0  0  0  0  0  0  0  0  0
  197.9400  169.1440  140.2270 O   0  0  0  0  0  1  0  0  0  0  0  0
  195.3930  169.2270  142.4950 C   0  0  0  0  0  2  0  0  0  0  0  0
  195.2000  168.7780  141.0330 C   0  0  0  0  0  2  0  0  0  0  0  0
  195.5940  169.8270  139.9760 C   0  0  0  0  0  2  0  0  0  0  0  0
  1 11  1  0  0  0  0
  3  2  1  0  0  0  0
  3  9  1  0  0  0  0
  4  1  2  0  0  0  0
  5 10  1  0  0  0  0
  6 19  1  0  0  0  0
  6  9  1  6  0  0  0
  7 13  1  1  0  0  0
  7 11  1  0  0  0  0
  7  6  1  0  0  0  0
  8 38  1  6  0  0  0
  8  1  1  0  0  0  0
  8 12  1  0  0  0  0
 10  2  1  0  0  0  0
 12  5  2  0  0  0  0
 15 23  1  0  0  0  0
 17 16  1  1  0  0  0
 17 15  1  0  0  0  0
 18 24  1  6  0  0  0
 18 21  1  0  0  0  0
 19 14  1  6  0  0  0
 20 27  1  1  0  0  0
 20 18  1  0  0  0  0
 20 14  1  0  0  0  0
 21 23  1  1  0  0  0
 21 19  1  0  0  0  0
 22 25  1  1  0  0  0
 22 24  1  0  0  0  0
 22 17  1  0  0  0  0
 26 25  1  0  0  0  0
 28 30  1  0  0  0  0
 29 33  1  0  0  0  0
 30 35  1  6  0  0  0
 31 27  1  6  0  0  0
 31 34  1  0  0  0  0
 32 29  1  0  0  0  0
 33 28  1  0  0  0  0
 34 30  1  0  0  0  0
 36 31  1  0  0  0  0
 37 32  1  0  0  0  0
 37 36  1  0  0  0  0
 39 40  1  0  0  0  0
 41 40  1  6  0  0  0
 41 43  1  0  0  0  0
 42 43  1  0  0  0  0
 43 38  1  6  0  0  0
 44 39  1  0  0  0  0
 44 45  1  0  0  0  0
 45 42  1  0  0  0  0
 46 49  1  0  0  0  0
 47 41  1  6  0  0  0
 47 50  1  0  0  0  0
 48 51  1  1  0  0  0
 48 47  1  0  0  0  0
 48 50  1  0  0  0  0
 50 46  1  1  0  0  0
 52 49  1  0  0  0  0
 53 52  1  0  0  0  0
 54 48  1  0  0  0  0
 54 53  1  0  0  0  0
M  END
>  <MODEL>
4

>  <REMARK>
 VINA RESULT:      -7.1      2.151     10.201
  Name = 
  7 active torsions:
  status: ('A' for Active; 'I' for Inactive)
    1  A    between atoms: N_9  and  C_16
    2  A    between atoms: N_9  and  C_34
    3  A    between atoms: C_14  and  C_19
    4  A    between atoms: C_18  and  C_32
    5  A    between atoms: C_21  and  C_31
    6  A    between atoms: O_29  and  C_47
    7  A    between atoms: C_31  and  C_36
                            x       y       z     vdW  Elec       q    Type
                         _______ _______ _______ _____ _____    ______ ____

>  <TORSDO>
F 7

$$$$
=
 OpenBabel11062418343D

 54 60  0  0  1  0  0  0  0  0999 V2000
  189.3270  173.7080  142.5720 C   0  0  0  0  0  0  0  0  0  0  0  0
  192.2790  175.9800  145.8390 N   0  0  0  0  0  2  0  0  0  0  0  0
  192.8610  174.9400  145.0000 C   0  0  0  0  0  2  0  0  0  0  0  0
  189.0890  173.1820  141.4950 O   0  0  0  0  0  0  0  0  0  0  0  0
  190.1940  175.9830  144.6220 C   0  0  0  0  0  3  0  0  0  0  0  0
  192.5800  172.7400  144.3630 C   0  0  2  0  0  3  0  0  0  0  0  0
  191.6660  172.9920  143.1390 C   0  0  2  0  0  3  0  0  0  0  0  0
  188.7150  175.0430  142.9340 C   0  0  1  0  0  3  0  0  0  0  0  0
  192.3620  173.6860  145.3970 O   0  0  0  0  0  0  0  0  0  0  0  0
  191.3810  176.7910  145.0210 C   0  0  0  0  0  2  0  0  0  0  0  0
  190.1990  172.9920  143.5690 C   0  0  0  0  0  2  0  0  0  0  0  0
  189.7900  175.9850  143.3600 C   0  0  0  0  0  3  0  0  0  0  0  0
  191.8440  171.9370  142.0610 C   0  0  0  0  0  1  0  0  0  0  0  0
  194.2780  171.1480  143.3170 C   0  0  0  0  0  2  0  0  0  0  0  0
  196.0340  175.3490  142.7700 C   0  0  0  0  0  2  0  0  0  0  0  0
  194.0710  176.5410  142.0140 O   0  0  0  0  0  1  0  0  0  0  0  0
  195.1630  175.7920  141.5740 C   0  0  2  0  0  3  0  0  0  0  0  0
  195.3670  172.7920  141.9960 C   0  0  2  0  0  3  0  0  0  0  0  0
  194.0800  172.4800  144.0560 C   0  0  1  0  0  3  0  0  0  0  0  0
  194.6600  171.4680  141.8850 C   0  0  1  0  0  3  0  0  0  0  0  0
  194.6070  173.5380  143.0930 C   0  0  1  0  0  3  0  0  0  0  0  0
  194.7290  174.6450  140.6230 C   0  0  1  0  0  3  0  0  0  0  0  0
  195.3860  174.5270  143.7300 O   0  0  0  0  0  0  0  0  0  0  0  0
  195.5010  173.4580  140.7380 O   0  0  0  0  0  0  0  0  0  0  0  0
  193.3560  174.3720  140.6810 O   0  0  0  0  0  0  0  0  0  0  0  0
  192.9760  174.1630  139.3560 C   0  0  0  0  0  1  0  0  0  0  0  0
  195.5690  170.4500  141.3820 N   0  0  0  0  0  2  0  0  0  0  0  0
  193.6530  168.8880  137.5520 C   0  0  0  0  0  2  0  0  0  0  0  0
  195.9270  169.0660  136.4640 C   0  0  0  0  0  2  0  0  0  0  0  0
  192.9840  169.7060  138.6510 C   0  0  2  0  0  3  0  0  0  0  0  0
  194.8130  169.5980  140.4790 C   0  0  1  0  0  3  0  0  0  0  0  0
  196.5820  168.4640  137.7070 C   0  0  0  0  0  2  0  0  0  0  0  0
  194.5990  169.7620  136.7400 C   0  0  0  0  0  2  0  0  0  0  0  0
  193.9830  170.4720  139.5310 C   0  0  0  0  0  2  0  0  0  0  0  0
  192.1600  168.8900  139.4290 O   0  0  0  0  0  1  0  0  0  0  0  0
  195.7710  168.6580  139.7470 C   0  0  0  0  0  2  0  0  0  0  0  0
  196.5350  169.3430  138.7960 O   0  0  0  0  0  0  0  0  0  0  0  0
  187.9270  175.6600  141.7850 C   0  0  0  0  0  2  0  0  0  0  0  0
  184.4380  177.9370  141.9360 C   0  0  0  0  0  2  0  0  0  0  0  0
  185.3790  178.1520  142.9510 O   0  0  0  0  0  0  0  0  0  0  0  0
  186.1060  176.9560  143.0350 C   0  0  1  0  0  3  0  0  0  0  0  0
  187.3140  177.9230  141.0870 O   0  0  0  0  0  0  0  0  0  0  0  0
  187.4000  177.0350  142.1860 C   0  0  2  0  0  3  0  0  0  0  0  0
  185.0020  178.3440  140.5810 C   0  0  0  0  0  2  0  0  0  0  0  0
  186.2510  177.5310  140.2510 C   0  0  0  0  0  2  0  0  0  0  0  0
  187.3260  177.3230  146.6070 C   0  0  0  0  0  2  0  0  0  0  0  0
  186.2420  176.5340  144.5120 C   0  0  2  0  0  3  0  0  0  0  0  0
  185.2430  177.1030  145.4430 C   0  0  2  0  0  0  0  0  0  0  0  0
  186.7770  178.2080  147.7440 C   0  0  0  0  0  2  0  0  0  0  0  0
  186.6340  177.6480  145.3670 N   0  0  1  0  0  0  0  0  0  0  0  0
  185.0000  176.2240  146.5130 O   0  0  0  0  0  1  0  0  0  0  0  0
  185.9420  179.4160  147.2630 C   0  0  0  0  0  2  0  0  0  0  0  0
  184.5050  179.0410  146.8460 C   0  0  0  0  0  2  0  0  0  0  0  0
  184.3880  178.3620  145.4680 C   0  0  0  0  0  2  0  0  0  0  0  0
  1  8  1  0  0  0  0
  1 11  1  0  0  0  0
  3  9  1  0  0  0  0
  3  2  1  0  0  0  0
  4  1  2  0  0  0  0
  5 10  1  0  0  0  0
  6  9  1  1  0  0  0
  7 13  1  6  0  0  0
  7 11  1  0  0  0  0
  7  6  1  0  0  0  0
  8 38  1  6  0  0  0
  8 12  1  0  0  0  0
 10  2  1  0  0  0  0
 12  5  2  0  0  0  0
 15 23  1  0  0  0  0
 17 16  1  1  0  0  0
 17 15  1  0  0  0  0
 18 24  1  6  0  0  0
 18 21  1  0  0  0  0
 19 14  1  6  0  0  0
 19  6  1  0  0  0  0
 20 27  1  1  0  0  0
 20 18  1  0  0  0  0
 20 14  1  0  0  0  0
 21 23  1  1  0  0  0
 21 19  1  0  0  0  0
 22 25  1  1  0  0  0
 22 24  1  0  0  0  0
 22 17  1  0  0  0  0
 26 25  1  0  0  0  0
 28 30  1  0  0  0  0
 29 33  1  0  0  0  0
 29 32  1  0  0  0  0
 30 35  1  1  0  0  0
 30 34  1  0  0  0  0
 31 27  1  1  0  0  0
 32 37  1  0  0  0  0
 33 28  1  0  0  0  0
 34 31  1  0  0  0  0
 36 31  1  0  0  0  0
 37 36  1  0  0  0  0
 39 40  1  0  0  0  0
 41 40  1  1  0  0  0
 42 43  1  0  0  0  0
 43 38  1  6  0  0  0
 43 41  1  0  0  0  0
 44 39  1  0  0  0  0
 45 44  1  0  0  0  0
 45 42  1  0  0  0  0
 46 49  1  0  0  0  0
 47 41  1  6  0  0  0
 47 50  1  0  0  0  0
 47 48  1  0  0  0  0
 48 54  1  0  0  0  0
 48 51  1  1  0  0  0
 50 48  1  0  0  0  0
 50 46  1  1  0  0  0
 52 49  1  0  0  0  0
 53 52  1  0  0  0  0
 54 53  1  0  0  0  0
M  END
>  <MODEL>
5

>  <REMARK>
 VINA RESULT:      -7.1      2.350      3.695
  Name = 
  7 active torsions:
  status: ('A' for Active; 'I' for Inactive)
    1  A    between atoms: N_9  and  C_16
    2  A    between atoms: N_9  and  C_34
    3  A    between atoms: C_14  and  C_19
    4  A    between atoms: C_18  and  C_32
    5  A    between atoms: C_21  and  C_31
    6  A    between atoms: O_29  and  C_47
    7  A    between atoms: C_31  and  C_36
                            x       y       z     vdW  Elec       q    Type
                         _______ _______ _______ _____ _____    ______ ____

>  <TORSDO>
F 7

$$$$
=
 OpenBabel11062418343D

 54 60  0  0  1  0  0  0  0  0999 V2000
  191.7100  172.4310  144.1160 C   0  0  0  0  0  0  0  0  0  0  0  0
  194.9090  175.3580  146.5130 N   0  0  0  0  0  2  0  0  0  0  0  0
  195.4110  174.5670  145.3960 C   0  0  0  0  0  2  0  0  0  0  0  0
  191.2550  171.8970  143.1150 O   0  0  0  0  0  0  0  0  0  0  0  0
  192.6090  174.7870  146.0590 C   0  0  0  0  0  3  0  0  0  0  0  0
  195.5180  172.4070  144.5930 C   0  0  2  0  0  3  0  0  0  0  0  0
  194.1990  172.4200  143.7830 C   0  0  2  0  0  3  0  0  0  0  0  0
  190.9350  173.5110  144.8370 C   0  0  1  0  0  3  0  0  0  0  0  0
  195.4360  173.2080  145.7610 O   0  0  0  0  0  0  0  0  0  0  0  0
  193.6000  175.8950  146.1530 C   0  0  0  0  0  2  0  0  0  0  0  0
  193.0340  171.9700  144.6650 C   0  0  0  0  0  2  0  0  0  0  0  0
  191.8000  174.7140  145.0120 C   0  0  0  0  0  3  0  0  0  0  0  0
  194.2580  171.5050  142.5720 C   0  0  0  0  0  1  0  0  0  0  0  0
  197.0010  171.5190  142.7160 C   0  0  0  0  0  2  0  0  0  0  0  0
  197.5680  176.0690  142.6810 C   0  0  0  0  0  2  0  0  0  0  0  0
  195.2700  176.7910  142.8880 O   0  0  0  0  0  1  0  0  0  0  0  0
  196.2540  176.4440  141.9620 C   0  0  2  0  0  3  0  0  0  0  0  0
  197.1880  173.5830  141.5600 C   0  0  2  0  0  3  0  0  0  0  0  0
  196.8240  172.6140  143.7790 C   0  0  1  0  0  3  0  0  0  0  0  0
  196.7670  172.1530  141.3580 C   0  0  1  0  0  3  0  0  0  0  0  0
  196.7450  173.9130  142.9850 C   0  0  1  0  0  3  0  0  0  0  0  0
  195.7410  175.3880  140.9460 C   0  0  1  0  0  3  0  0  0  0  0  0
  197.4890  174.9620  143.5660 O   0  0  0  0  0  0  0  0  0  0  0  0
  196.7220  174.4510  140.5240 O   0  0  0  0  0  0  0  0  0  0  0  0
  194.5660  174.7490  141.3630 O   0  0  0  0  0  0  0  0  0  0  0  0
  193.8330  174.5490  140.1930 C   0  0  0  0  0  1  0  0  0  0  0  0
  197.6140  171.5110  140.3660 N   0  0  0  0  0  2  0  0  0  0  0  0
  194.8910  170.0300  137.0240 C   0  0  0  0  0  2  0  0  0  0  0  0
  196.6420  170.8250  135.3840 C   0  0  0  0  0  2  0  0  0  0  0  0
  194.4710  170.5480  138.3960 C   0  0  2  0  0  3  0  0  0  0  0  0
  196.7710  170.6260  139.5780 C   0  0  1  0  0  3  0  0  0  0  0  0
  197.7480  170.2380  136.2620 C   0  0  0  0  0  2  0  0  0  0  0  0
  195.3700  171.1780  136.1460 C   0  0  0  0  0  2  0  0  0  0  0  0
  195.5490  171.4040  139.0760 C   0  0  0  0  0  2  0  0  0  0  0  0
  194.0860  169.4860  139.2170 O   0  0  0  0  0  1  0  0  0  0  0  0
  197.5980  170.0110  138.4500 C   0  0  0  0  0  2  0  0  0  0  0  0
  197.8950  170.9520  137.4580 O   0  0  0  0  0  0  0  0  0  0  0  0
  189.6580  173.9080  144.1060 C   0  0  0  0  0  2  0  0  0  0  0  0
  187.2760  176.9740  142.5890 C   0  0  0  0  0  2  0  0  0  0  0  0
  188.1610  177.3110  143.6200 O   0  0  0  0  0  0  0  0  0  0  0  0
  188.3790  176.1160  144.3200 C   0  0  1  0  0  3  0  0  0  0  0  0
  189.9860  175.6960  142.4680 O   0  0  0  0  0  0  0  0  0  0  0  0
  189.6610  175.4060  143.8150 C   0  0  2  0  0  3  0  0  0  0  0  0
  188.0390  176.5440  141.3420 C   0  0  0  0  0  2  0  0  0  0  0  0
  188.9100  175.3260  141.6370 C   0  0  0  0  0  2  0  0  0  0  0  0
  187.9940  178.2750  147.4140 C   0  0  0  0  0  2  0  0  0  0  0  0
  188.2510  176.3700  145.8360 C   0  0  2  0  0  3  0  0  0  0  0  0
  186.8720  176.4340  146.3670 C   0  0  2  0  0  0  0  0  0  0  0  0
  186.7220  178.9130  148.0110 C   0  0  0  0  0  2  0  0  0  0  0  0
  187.6710  177.6760  146.1260 N   0  0  1  0  0  0  0  0  0  0  0  0
  186.8300  175.9970  147.7030 O   0  0  0  0  0  1  0  0  0  0  0  0
  185.5640  179.0860  147.0040 C   0  0  0  0  0  2  0  0  0  0  0  0
  184.7920  177.7810  146.7260 C   0  0  0  0  0  2  0  0  0  0  0  0
  185.5100  176.7910  145.7890 C   0  0  0  0  0  2  0  0  0  0  0  0
  1 11  1  0  0  0  0
  1  8  1  0  0  0  0
  3  9  1  0  0  0  0
  3  2  1  0  0  0  0
  4  1  2  0  0  0  0
  5 10  1  0  0  0  0
  6  9  1  1  0  0  0
  7 13  1  6  0  0  0
  7  6  1  0  0  0  0
  7 11  1  0  0  0  0
  8 38  1  6  0  0  0
  8 12  1  0  0  0  0
 10  2  1  0  0  0  0
 12  5  2  0  0  0  0
 15 23  1  0  0  0  0
 17 15  1  0  0  0  0
 17 16  1  1  0  0  0
 18 24  1  6  0  0  0
 18 21  1  0  0  0  0
 19 14  1  6  0  0  0
 19  6  1  0  0  0  0
 20 27  1  6  0  0  0
 20 18  1  0  0  0  0
 20 14  1  0  0  0  0
 21 23  1  1  0  0  0
 21 19  1  0  0  0  0
 22 25  1  1  0  0  0
 22 17  1  0  0  0  0
 24 22  1  0  0  0  0
 26 25  1  0  0  0  0
 28 30  1  0  0  0  0
 29 33  1  0  0  0  0
 29 32  1  0  0  0  0
 30 34  1  0  0  0  0
 30 35  1  1  0  0  0
 31 27  1  6  0  0  0
 32 37  1  0  0  0  0
 33 28  1  0  0  0  0
 34 31  1  0  0  0  0
 36 31  1  0  0  0  0
 37 36  1  0  0  0  0
 39 40  1  0  0  0  0
 41 40  1  6  0  0  0
 42 43  1  0  0  0  0
 43 38  1  6  0  0  0
 43 41  1  0  0  0  0
 44 45  1  0  0  0  0
 44 39  1  0  0  0  0
 45 42  1  0  0  0  0
 46 49  1  0  0  0  0
 47 41  1  6  0  0  0
 47 50  1  0  0  0  0
 47 48  1  0  0  0  0
 48 51  1  1  0  0  0
 50 48  1  0  0  0  0
 50 46  1  1  0  0  0
 52 49  1  0  0  0  0
 53 52  1  0  0  0  0
 54 48  1  0  0  0  0
 54 53  1  0  0  0  0
M  END
>  <MODEL>
6

>  <REMARK>
 VINA RESULT:      -7.1      2.100      3.693
  Name = 
  7 active torsions:
  status: ('A' for Active; 'I' for Inactive)
    1  A    between atoms: N_9  and  C_16
    2  A    between atoms: N_9  and  C_34
    3  A    between atoms: C_14  and  C_19
    4  A    between atoms: C_18  and  C_32
    5  A    between atoms: C_21  and  C_31
    6  A    between atoms: O_29  and  C_47
    7  A    between atoms: C_31  and  C_36
                            x       y       z     vdW  Elec       q    Type
                         _______ _______ _______ _____ _____    ______ ____

>  <TORSDO>
F 7

$$$$
=
 OpenBabel11062418343D

 54 60  0  0  1  0  0  0  0  0999 V2000
  189.8130  174.9060  145.2070 C   0  0  0  0  0  0  0  0  0  0  0  0
  194.5760  175.5480  146.4090 N   0  0  0  0  0  2  0  0  0  0  0  0
  194.2700  174.7220  145.2480 C   0  0  0  0  0  2  0  0  0  0  0  0
  188.8940  174.7760  144.4120 O   0  0  0  0  0  0  0  0  0  0  0  0
  192.2890  176.2770  146.6630 C   0  0  0  0  0  3  0  0  0  0  0  0
  193.0230  172.8970  144.5850 C   0  0  2  0  0  3  0  0  0  0  0  0
  191.7360  173.6580  144.1830 C   0  0  2  0  0  3  0  0  0  0  0  0
  189.9380  176.1560  146.0490 C   0  0  1  0  0  3  0  0  0  0  0  0
  193.6900  173.5130  145.6750 O   0  0  0  0  0  0  0  0  0  0  0  0
  193.6910  176.7090  146.4020 C   0  0  0  0  0  2  0  0  0  0  0  0
  190.8010  173.7840  145.3860 C   0  0  0  0  0  2  0  0  0  0  0  0
  191.3070  176.7270  145.8950 C   0  0  0  0  0  3  0  0  0  0  0  0
  190.9800  172.9600  143.0660 C   0  0  0  0  0  1  0  0  0  0  0  0
  194.5410  173.7150  142.7050 C   0  0  0  0  0  2  0  0  0  0  0  0
  196.3630  169.7510  144.1160 C   0  0  0  0  0  2  0  0  0  0  0  0
  196.2450  170.0520  146.5130 O   0  0  0  0  0  1  0  0  0  0  0  0
  197.0520  170.2740  145.3960 C   0  0  2  0  0  3  0  0  0  0  0  0
  196.4100  172.3830  143.3060 C   0  0  2  0  0  3  0  0  0  0  0  0
  193.9670  172.4850  143.4230 C   0  0  1  0  0  3  0  0  0  0  0  0
  196.0120  173.8130  143.0630 C   0  0  1  0  0  3  0  0  0  0  0  0
  195.1860  171.7550  143.9730 C   0  0  1  0  0  3  0  0  0  0  0  0
  197.5370  171.7470  145.3200 C   0  0  1  0  0  3  0  0  0  0  0  0
  195.1190  170.3560  143.7980 O   0  0  0  0  0  0  0  0  0  0  0  0
  197.6540  172.2630  144.0010 O   0  0  0  0  0  0  0  0  0  0  0  0
  196.8060  172.6110  146.1460 O   0  0  0  0  0  0  0  0  0  0  0  0
  197.5770  173.7700  146.2250 C   0  0  0  0  0  1  0  0  0  0  0  0
  196.7540  174.3600  141.9380 N   0  0  0  0  0  2  0  0  0  0  0  0
  195.3120  174.5740  137.6190 C   0  0  0  0  0  2  0  0  0  0  0  0
  197.7240  174.3130  136.9090 C   0  0  0  0  0  2  0  0  0  0  0  0
  194.6750  175.2330  138.8380 C   0  0  2  0  0  3  0  0  0  0  0  0
  195.9980  174.0660  140.7310 C   0  0  1  0  0  3  0  0  0  0  0  0
  197.9280  173.2240  137.9630 C   0  0  0  0  0  2  0  0  0  0  0  0
  196.6010  175.2900  137.2400 C   0  0  0  0  0  2  0  0  0  0  0  0
  195.6420  175.3780  140.0230 C   0  0  0  0  0  2  0  0  0  0  0  0
  193.5240  174.5400  139.2170 O   0  0  0  0  0  1  0  0  0  0  0  0
  196.8010  173.1060  139.8530 C   0  0  0  0  0  2  0  0  0  0  0  0
  197.8960  173.7450  139.2620 O   0  0  0  0  0  0  0  0  0  0  0  0
  188.9050  177.2160  145.6860 C   0  0  0  0  0  2  0  0  0  0  0  0
  185.6500  179.3110  147.2340 C   0  0  0  0  0  2  0  0  0  0  0  0
  185.4290  177.9770  146.8680 O   0  0  0  0  0  0  0  0  0  0  0  0
  186.3980  177.6990  145.8950 C   0  0  1  0  0  3  0  0  0  0  0  0
  187.8530  177.3840  147.8890 O   0  0  0  0  0  0  0  0  0  0  0  0
  187.6470  177.0370  146.5320 C   0  0  2  0  0  3  0  0  0  0  0  0
  186.6380  179.3970  148.3900 C   0  0  0  0  0  2  0  0  0  0  0  0
  187.9790  178.7830  147.9990 C   0  0  0  0  0  2  0  0  0  0  0  0
  184.4420  177.5410  142.6500 C   0  0  0  0  0  2  0  0  0  0  0  0
  185.7420  176.9840  144.6960 C   0  0  2  0  0  3  0  0  0  0  0  0
  186.5800  176.8510  143.4840 C   0  0  2  0  0  0  0  0  0  0  0  0
  184.9160  177.8060  141.2060 C   0  0  0  0  0  2  0  0  0  0  0  0
  185.5090  177.8910  143.5780 N   0  0  1  0  0  0  0  0  0  0  0  0
  186.2330  175.6950  142.7620 O   0  0  0  0  0  1  0  0  0  0  0  0
  186.1890  178.6760  141.1040 C   0  0  0  0  0  2  0  0  0  0  0  0
  187.4880  177.8990  141.4000 C   0  0  0  0  0  2  0  0  0  0  0  0
  187.7500  177.6230  142.8930 C   0  0  0  0  0  2  0  0  0  0  0  0
  1 11  1  0  0  0  0
  1  8  1  0  0  0  0
  3  9  1  0  0  0  0
  3  2  1  0  0  0  0
  4  1  2  0  0  0  0
  6  9  1  1  0  0  0
  7 13  1  6  0  0  0
  7  6  1  0  0  0  0
  7 11  1  0  0  0  0
  8 38  1  6  0  0  0
 10  2  1  0  0  0  0
 10  5  1  0  0  0  0
 12  8  1  0  0  0  0
 12  5  2  0  0  0  0
 14 20  1  0  0  0  0
 15 17  1  0  0  0  0
 17 16  1  1  0  0  0
 18 21  1  0  0  0  0
 18 24  1  1  0  0  0
 19 14  1  1  0  0  0
 19 21  1  0  0  0  0
 19  6  1  0  0  0  0
 20 27  1  6  0  0  0
 20 18  1  0  0  0  0
 21 23  1  6  0  0  0
 22 17  1  0  0  0  0
 22 25  1  1  0  0  0
 23 15  1  0  0  0  0
 24 22  1  0  0  0  0
 25 26  1  0  0  0  0
 28 30  1  0  0  0  0
 29 33  1  0  0  0  0
 29 32  1  0  0  0  0
 30 35  1  1  0  0  0
 30 34  1  0  0  0  0
 31 27  1  1  0  0  0
 32 37  1  0  0  0  0
 33 28  1  0  0  0  0
 34 31  1  0  0  0  0
 36 31  1  0  0  0  0
 37 36  1  0  0  0  0
 39 44  1  0  0  0  0
 40 39  1  0  0  0  0
 41 43  1  0  0  0  0
 41 40  1  1  0  0  0
 42 45  1  0  0  0  0
 43 38  1  6  0  0  0
 43 42  1  0  0  0  0
 45 44  1  0  0  0  0
 47 41  1  1  0  0  0
 48 51  1  6  0  0  0
 48 50  1  0  0  0  0
 48 47  1  0  0  0  0
 49 46  1  0  0  0  0
 50 46  1  6  0  0  0
 50 47  1  0  0  0  0
 52 49  1  0  0  0  0
 52 53  1  0  0  0  0
 53 54  1  0  0  0  0
 54 48  1  0  0  0  0
M  END
>  <MODEL>
7

>  <REMARK>
 VINA RESULT:      -7.1      1.603      3.328
  Name = 
  7 active torsions:
  status: ('A' for Active; 'I' for Inactive)
    1  A    between atoms: N_9  and  C_16
    2  A    between atoms: N_9  and  C_34
    3  A    between atoms: C_14  and  C_19
    4  A    between atoms: C_18  and  C_32
    5  A    between atoms: C_21  and  C_31
    6  A    between atoms: O_29  and  C_47
    7  A    between atoms: C_31  and  C_36
                            x       y       z     vdW  Elec       q    Type
                         _______ _______ _______ _____ _____    ______ ____

>  <TORSDO>
F 7

$$$$
=
 OpenBabel11062418343D

 54 60  0  0  1  0  0  0  0  0999 V2000
  192.0340  174.7060  144.0450 C   0  0  0  0  0  0  0  0  0  0  0  0
  190.7430  172.6270  139.7370 N   0  0  0  0  0  2  0  0  0  0  0  0
  192.1610  172.8480  139.9910 C   0  0  0  0  0  2  0  0  0  0  0  0
  192.7630  174.8470  145.0160 O   0  0  0  0  0  0  0  0  0  0  0  0
  190.1080  173.2290  141.9860 C   0  0  0  0  0  3  0  0  0  0  0  0
  193.6750  174.4850  140.5830 C   0  0  2  0  0  3  0  0  0  0  0  0
  193.5920  174.3010  142.1180 C   0  0  2  0  0  3  0  0  0  0  0  0
  190.6570  174.0960  144.1920 C   0  0  1  0  0  3  0  0  0  0  0  0
  192.4350  174.2270  139.9460 O   0  0  0  0  0  0  0  0  0  0  0  0
  190.1190  172.1440  140.9640 C   0  0  0  0  0  2  0  0  0  0  0  0
  192.4940  175.1930  142.6960 C   0  0  0  0  0  2  0  0  0  0  0  0
  190.5040  172.9720  143.2240 C   0  0  0  0  0  3  0  0  0  0  0  0
  194.8990  174.6490  142.8110 C   0  0  0  0  0  1  0  0  0  0  0  0
  194.8080  172.2930  139.9350 C   0  0  0  0  0  2  0  0  0  0  0  0
  195.9200  175.2730  136.6320 C   0  0  0  0  0  2  0  0  0  0  0  0
  193.7680  176.3020  136.2380 O   0  0  0  0  0  1  0  0  0  0  0  0
  194.5870  175.2390  135.8540 C   0  0  2  0  0  3  0  0  0  0  0  0
  195.1100  172.8450  137.6470 C   0  0  2  0  0  3  0  0  0  0  0  0
  194.8930  173.8250  139.8790 C   0  0  1  0  0  3  0  0  0  0  0  0
  194.4960  171.7980  138.5360 C   0  0  1  0  0  3  0  0  0  0  0  0
  194.8810  174.1590  138.3930 C   0  0  1  0  0  3  0  0  0  0  0  0
  193.8330  173.8830  135.9090 C   0  0  1  0  0  3  0  0  0  0  0  0
  195.8110  175.1610  138.0430 O   0  0  0  0  0  0  0  0  0  0  0  0
  194.6350  172.7770  136.3000 O   0  0  0  0  0  0  0  0  0  0  0  0
  192.6460  173.9430  136.6500 O   0  0  0  0  0  0  0  0  0  0  0  0
  191.7490  173.1330  135.9540 C   0  0  0  0  0  1  0  0  0  0  0  0
  195.1370  170.5100  138.3180 N   0  0  0  0  0  2  0  0  0  0  0  0
  191.3300  168.4600  136.8730 C   0  0  0  0  0  2  0  0  0  0  0  0
  192.1790  168.7740  134.5140 C   0  0  0  0  0  2  0  0  0  0  0  0
  191.5060  169.2940  138.1380 C   0  0  2  0  0  3  0  0  0  0  0  0
  194.0840  169.5160  138.1830 C   0  0  1  0  0  3  0  0  0  0  0  0
  193.5800  168.3430  134.9480 C   0  0  0  0  0  2  0  0  0  0  0  0
  191.3340  169.3550  135.6420 C   0  0  0  0  0  2  0  0  0  0  0  0
  192.7270  170.2240  138.0860 C   0  0  0  0  0  2  0  0  0  0  0  0
  191.5590  168.4650  139.2610 O   0  0  0  0  0  1  0  0  0  0  0  0
  194.3840  168.6210  136.9820 C   0  0  0  0  0  2  0  0  0  0  0  0
  194.1850  169.2990  135.7740 O   0  0  0  0  0  0  0  0  0  0  0  0
  190.3860  173.5900  145.6030 C   0  0  0  0  0  2  0  0  0  0  0  0
  189.6700  177.6130  146.4260 C   0  0  0  0  0  2  0  0  0  0  0  0
  188.5470  176.7930  146.2500 O   0  0  0  0  0  0  0  0  0  0  0  0
  188.9930  175.7320  145.4480 C   0  0  1  0  0  3  0  0  0  0  0  0
  189.8450  174.8670  147.6190 O   0  0  0  0  0  0  0  0  0  0  0  0
  189.4090  174.5190  146.3180 C   0  0  2  0  0  3  0  0  0  0  0  0
  190.4570  177.1910  147.6610 C   0  0  0  0  0  2  0  0  0  0  0  0
  190.9390  175.7490  147.5250 C   0  0  0  0  0  2  0  0  0  0  0  0
  185.9010  176.4790  143.3820 C   0  0  0  0  0  2  0  0  0  0  0  0
  187.9840  175.4840  144.3070 C   0  0  2  0  0  3  0  0  0  0  0  0
  188.2550  176.1940  143.0380 C   0  0  2  0  0  0  0  0  0  0  0  0
  185.7030  177.5120  142.2540 C   0  0  0  0  0  2  0  0  0  0  0  0
  187.2090  176.6780  143.9910 N   0  0  1  0  0  0  0  0  0  0  0  0
  187.7740  175.4570  141.9410 O   0  0  0  0  0  1  0  0  0  0  0  0
  186.7120  178.6810  142.2770 C   0  0  0  0  0  2  0  0  0  0  0  0
  188.0960  178.3090  141.7080 C   0  0  0  0  0  2  0  0  0  0  0  0
  188.9810  177.4750  142.6530 C   0  0  0  0  0  2  0  0  0  0  0  0
  1  8  1  0  0  0  0
  1  4  2  0  0  0  0
  2  3  1  0  0  0  0
  2 10  1  0  0  0  0
  5 12  2  0  0  0  0
  6  9  1  6  0  0  0
  6  7  1  0  0  0  0
  7 11  1  0  0  0  0
  7 13  1  1  0  0  0
  8 38  1  1  0  0  0
  9  3  1  0  0  0  0
 10  5  1  0  0  0  0
 11  1  1  0  0  0  0
 12  8  1  0  0  0  0
 15 23  1  0  0  0  0
 17 22  1  0  0  0  0
 17 16  1  1  0  0  0
 17 15  1  0  0  0  0
 18 24  1  6  0  0  0
 18 21  1  0  0  0  0
 18 20  1  0  0  0  0
 19 14  1  6  0  0  0
 19  6  1  0  0  0  0
 20 27  1  6  0  0  0
 20 14  1  0  0  0  0
 21 23  1  1  0  0  0
 21 19  1  0  0  0  0
 22 24  1  0  0  0  0
 22 25  1  1  0  0  0
 26 25  1  0  0  0  0
 28 30  1  0  0  0  0
 29 32  1  0  0  0  0
 29 33  1  0  0  0  0
 30 35  1  1  0  0  0
 31 27  1  6  0  0  0
 32 37  1  0  0  0  0
 33 28  1  0  0  0  0
 34 30  1  0  0  0  0
 34 31  1  0  0  0  0
 36 31  1  0  0  0  0
 37 36  1  0  0  0  0
 39 44  1  0  0  0  0
 40 39  1  0  0  0  0
 41 40  1  1  0  0  0
 41 43  1  0  0  0  0
 43 38  1  6  0  0  0
 43 42  1  0  0  0  0
 45 42  1  0  0  0  0
 45 44  1  0  0  0  0
 47 41  1  1  0  0  0
 48 51  1  6  0  0  0
 48 50  1  0  0  0  0
 48 47  1  0  0  0  0
 49 52  1  0  0  0  0
 49 46  1  0  0  0  0
 50 46  1  6  0  0  0
 50 47  1  0  0  0  0
 53 52  1  0  0  0  0
 53 54  1  0  0  0  0
 54 48  1  0  0  0  0
M  END
>  <MODEL>
8

>  <REMARK>
 VINA RESULT:      -7.0      3.272      6.439
  Name = 
  7 active torsions:
  status: ('A' for Active; 'I' for Inactive)
    1  A    between atoms: N_9  and  C_16
    2  A    between atoms: N_9  and  C_34
    3  A    between atoms: C_14  and  C_19
    4  A    between atoms: C_18  and  C_32
    5  A    between atoms: C_21  and  C_31
    6  A    between atoms: O_29  and  C_47
    7  A    between atoms: C_31  and  C_36
                            x       y       z     vdW  Elec       q    Type
                         _______ _______ _______ _____ _____    ______ ____

>  <TORSDO>
F 7

$$$$
=
 OpenBabel11062418343D

 54 60  0  0  1  0  0  0  0  0999 V2000
  196.8760  174.0800  141.8130 C   0  0  0  0  0  0  0  0  0  0  0  0
  192.0800  173.2110  142.6990 N   0  0  0  0  0  2  0  0  0  0  0  0
  192.6270  174.4990  143.1060 C   0  0  0  0  0  2  0  0  0  0  0  0
  197.8190  174.7950  141.5070 O   0  0  0  0  0  0  0  0  0  0  0  0
  194.0840  172.5820  141.5110 C   0  0  0  0  0  3  0  0  0  0  0  0
  194.3310  175.4500  144.3370 C   0  0  2  0  0  3  0  0  0  0  0  0
  195.3820  175.5420  143.2040 C   0  0  2  0  0  3  0  0  0  0  0  0
  196.4010  172.9850  140.8840 C   0  0  1  0  0  3  0  0  0  0  0  0
  193.4930  174.3130  144.1990 O   0  0  0  0  0  0  0  0  0  0  0  0
  192.6260  172.8640  141.3900 C   0  0  0  0  0  2  0  0  0  0  0  0
  196.2150  174.2610  143.1530 C   0  0  0  0  0  2  0  0  0  0  0  0
  194.9340  173.1290  140.6530 C   0  0  0  0  0  3  0  0  0  0  0  0
  196.3270  176.7160  143.3900 C   0  0  0  0  0  1  0  0  0  0  0  0
  192.6990  177.2160  143.4840 C   0  0  0  0  0  2  0  0  0  0  0  0
  191.9740  176.9570  148.0040 C   0  0  0  0  0  2  0  0  0  0  0  0
  191.9430  174.5570  148.2990 O   0  0  0  0  0  1  0  0  0  0  0  0
  191.1360  175.6590  148.0140 C   0  0  2  0  0  3  0  0  0  0  0  0
  191.2420  177.1220  145.3550 C   0  0  2  0  0  3  0  0  0  0  0  0
  193.5640  176.7590  144.6680 C   0  0  1  0  0  3  0  0  0  0  0  0
  191.2480  176.9830  143.8570 C   0  0  1  0  0  3  0  0  0  0  0  0
  192.5720  176.5130  145.7990 C   0  0  1  0  0  3  0  0  0  0  0  0
  190.2750  175.4290  146.7430 C   0  0  1  0  0  3  0  0  0  0  0  0
  193.0180  177.0060  147.0430 O   0  0  0  0  0  0  0  0  0  0  0  0
  190.0590  176.5930  145.9580 O   0  0  0  0  0  0  0  0  0  0  0  0
  190.7250  174.3580  145.9590 O   0  0  0  0  0  0  0  0  0  0  0  0
  189.5760  173.6280  145.6570 C   0  0  0  0  0  1  0  0  0  0  0  0
  190.4150  178.0100  143.2500 N   0  0  0  0  0  2  0  0  0  0  0  0
  186.6880  175.7790  141.8680 C   0  0  0  0  0  2  0  0  0  0  0  0
  185.3180  177.5790  142.9950 C   0  0  0  0  0  2  0  0  0  0  0  0
  188.0520  175.1810  142.1980 C   0  0  2  0  0  3  0  0  0  0  0  0
  189.4660  177.3420  142.3750 C   0  0  1  0  0  3  0  0  0  0  0  0
  186.2460  178.6550  142.4300 C   0  0  0  0  0  2  0  0  0  0  0  0
  185.9750  176.2110  143.1420 C   0  0  0  0  0  2  0  0  0  0  0  0
  188.9170  176.0950  143.0780 C   0  0  0  0  0  2  0  0  0  0  0  0
  188.7260  174.8370  141.0240 O   0  0  0  0  0  1  0  0  0  0  0  0
  188.3750  178.3290  141.9620 C   0  0  0  0  0  2  0  0  0  0  0  0
  187.5120  178.6140  143.0260 O   0  0  0  0  0  0  0  0  0  0  0  0
  197.1270  172.9940  139.5450 C   0  0  0  0  0  2  0  0  0  0  0  0
  197.2590  174.4250  135.6320 C   0  0  0  0  0  2  0  0  0  0  0  0
  196.0310  173.9220  136.0810 O   0  0  0  0  0  0  0  0  0  0  0  0
  196.3580  173.0190  137.1020 C   0  0  1  0  0  3  0  0  0  0  0  0
  196.5160  175.0990  138.4580 O   0  0  0  0  0  0  0  0  0  0  0  0
  196.2810  173.7030  138.4910 C   0  0  2  0  0  3  0  0  0  0  0  0
  197.6520  175.6690  136.4180 C   0  0  0  0  0  2  0  0  0  0  0  0
  197.7870  175.3470  137.9040 C   0  0  0  0  0  2  0  0  0  0  0  0
  195.2110  169.9670  135.1650 C   0  0  0  0  0  2  0  0  0  0  0  0
  195.5730  171.7060  136.9060 C   0  0  2  0  0  3  0  0  0  0  0  0
  196.2980  170.4610  137.2420 C   0  0  2  0  0  0  0  0  0  0  0  0
  195.9410  168.6300  134.9220 C   0  0  0  0  0  2  0  0  0  0  0  0
  196.1190  170.8970  135.8230 N   0  0  1  0  0  0  0  0  0  0  0  0
  195.4070  169.4670  137.6830 O   0  0  0  0  0  1  0  0  0  0  0  0
  197.4760  168.7040  135.0800 C   0  0  0  0  0  2  0  0  0  0  0  0
  197.9410  168.7040  136.5500 C   0  0  0  0  0  2  0  0  0  0  0  0
  197.7620  170.0450  137.2860 C   0  0  0  0  0  2  0  0  0  0  0  0
  1 11  1  0  0  0  0
  2  3  1  0  0  0  0
  3  9  1  0  0  0  0
  4  1  2  0  0  0  0
  6  9  1  6  0  0  0
  6 19  1  0  0  0  0
  7 13  1  1  0  0  0
  7  6  1  0  0  0  0
  8 38  1  6  0  0  0
  8  1  1  0  0  0  0
 10  5  1  0  0  0  0
 10  2  1  0  0  0  0
 11  7  1  0  0  0  0
 12  8  1  0  0  0  0
 12  5  2  0  0  0  0
 14 20  1  0  0  0  0
 15 17  1  0  0  0  0
 17 16  1  6  0  0  0
 18 21  1  0  0  0  0
 18 24  1  1  0  0  0
 19 14  1  6  0  0  0
 19 21  1  0  0  0  0
 20 27  1  6  0  0  0
 20 18  1  0  0  0  0
 21 23  1  1  0  0  0
 22 25  1  6  0  0  0
 22 17  1  0  0  0  0
 23 15  1  0  0  0  0
 24 22  1  0  0  0  0
 26 25  1  0  0  0  0
 28 30  1  0  0  0  0
 28 33  1  0  0  0  0
 29 33  1  0  0  0  0
 30 35  1  6  0  0  0
 30 34  1  0  0  0  0
 31 34  1  0  0  0  0
 31 27  1  1  0  0  0
 32 29  1  0  0  0  0
 32 37  1  0  0  0  0
 36 31  1  0  0  0  0
 36 37  1  0  0  0  0
 39 40  1  0  0  0  0
 39 44  1  0  0  0  0
 41 40  1  6  0  0  0
 41 43  1  0  0  0  0
 42 43  1  0  0  0  0
 43 38  1  1  0  0  0
 44 45  1  0  0  0  0
 45 42  1  0  0  0  0
 47 41  1  1  0  0  0
 47 48  1  0  0  0  0
 48 54  1  0  0  0  0
 48 51  1  1  0  0  0
 49 52  1  0  0  0  0
 49 46  1  0  0  0  0
 50 46  1  6  0  0  0
 50 47  1  0  0  0  0
 50 48  1  0  0  0  0
 52 53  1  0  0  0  0
 53 54  1  0  0  0  0
M  END
>  <MODEL>
9

>  <REMARK>
 VINA RESULT:      -6.7      3.086     10.608
  Name = 
  7 active torsions:
  status: ('A' for Active; 'I' for Inactive)
    1  A    between atoms: N_9  and  C_16
    2  A    between atoms: N_9  and  C_34
    3  A    between atoms: C_14  and  C_19
    4  A    between atoms: C_18  and  C_32
    5  A    between atoms: C_21  and  C_31
    6  A    between atoms: O_29  and  C_47
    7  A    between atoms: C_31  and  C_36
                            x       y       z     vdW  Elec       q    Type
                         _______ _______ _______ _____ _____    ______ ____

>  <TORSDO>
F 7

$$$$
