=
 OpenBabel11062420313D

 53 57  0  0  1  0  0  0  0  0999 V2000
  188.7020  176.3720  146.2820 C   0  0  2  0  0  3  0  0  0  0  0  0
  187.6020  178.1560  147.3740 O   0  0  0  0  0  0  0  0  0  0  0  0
  187.5070  176.8070  147.1160 C   0  0  1  0  0  3  0  0  0  0  0  0
  185.3350  177.1740  146.7570 C   0  0  0  0  0  2  0  0  0  0  0  0
  185.4750  178.6320  146.8240 C   0  0  0  0  0  2  0  0  0  0  0  0
  186.6790  177.8010  146.3530 C   0  0  0  0  0  0  0  0  0  0  0  0
  189.0610  174.4520  147.6400 O   0  0  0  0  0  0  0  0  0  0  0  0
  188.9620  174.9120  146.4710 C   0  0  0  0  0  0  0  0  0  0  0  0
  189.1240  174.0780  145.3610 O   0  0  0  0  0  0  0  0  0  0  0  0
  190.3910  173.5420  145.0000 C   0  0  0  0  0  2  0  0  0  0  0  0
  190.2480  172.1450  144.6190 N   0  0  0  0  0  2  0  0  0  0  0  0
  189.3060  172.0890  143.5840 N   0  0  0  0  0  2  0  0  0  0  0  0
  190.0540  172.1000  142.3390 C   0  0  0  0  0  2  0  0  0  0  0  0
  188.0770  174.6720  139.4290 C   0  0  0  0  0  3  0  0  0  0  0  0
  189.3640  172.9550  141.3330 C   0  0  0  0  0  0  0  0  0  0  0  0
  189.3490  172.5760  140.0530 C   0  0  0  0  0  3  0  0  0  0  0  0
  188.0860  175.0800  140.7040 C   0  0  0  0  0  0  0  0  0  0  0  0
  188.7010  173.4070  139.0370 C   0  0  0  0  0  0  0  0  0  0  0  0
  188.7440  174.2550  141.7940 C   0  0  0  0  0  2  0  0  0  0  0  0
  188.6850  173.0390  137.8340 O   0  0  0  0  0  0  0  0  0  0  0  0
  186.8740  176.5340  142.3600 N   0  0  0  0  0  2  0  0  0  0  0  0
  187.4540  176.3620  141.0630 C   0  0  0  0  0  0  0  0  0  0  0  0
  187.4210  177.3080  140.2290 O   0  0  0  0  0  0  0  0  0  0  0  0
  186.2930  177.7930  142.7980 C   0  0  0  0  0  2  0  0  0  0  0  0
  184.8250  177.5940  143.1260 C   0  0  0  0  0  2  0  0  0  0  0  0
  183.9980  178.6490  142.4080 C   0  0  0  0  0  2  0  0  0  0  0  0
  183.2040  178.0720  141.2330 C   0  0  2  0  0  3  0  0  0  0  0  0
  183.9800  178.0320  140.0710 O   0  0  0  0  0  1  0  0  0  0  0  0
  181.0570  178.0010  140.1540 O   0  0  0  0  0  1  0  0  0  0  0  0
  181.2070  179.0570  142.1720 O   0  0  0  0  0  1  0  0  0  0  0  0
  181.8710  178.7810  140.9760 C   0  0  0  0  0  3  0  0  0  0  0  0
  189.9230  177.2020  146.6610 C   0  0  0  0  0  2  0  0  0  0  0  0
  189.9120  177.5580  144.1970 C   0  0  0  0  0  1  0  0  0  0  0  0
  190.7820  177.4890  145.4370 C   0  0  2  0  0  3  0  0  0  0  0  0
  191.7520  176.4630  145.2660 O   0  0  0  0  0  0  0  0  0  0  0  0
  192.3620  176.2700  147.4660 O   0  0  0  0  0  0  0  0  0  0  0  0
  192.6780  176.1210  146.2560 C   0  0  0  0  0  0  0  0  0  0  0  0
  194.0070  173.1660  146.1200 F   0  0  0  0  0  0  0  0  0  0  0  0
  194.8260  177.8450  145.6500 O   0  0  0  0  0  1  0  0  0  0  0  0
  195.8210  176.1510  142.8560 C   0  0  1  0  0  3  0  0  0  0  0  0
  194.9000  176.5570  145.1130 C   0  0  1  0  0  3  0  0  0  0  0  0
  194.6410  175.1870  142.9820 C   0  0  2  0  0  0  0  0  0  0  0  0
  194.0300  175.5620  145.9010 C   0  0  2  0  0  3  0  0  0  0  0  0
  195.8370  176.7810  141.6110 O   0  0  0  0  0  1  0  0  0  0  0  0
  194.5760  176.5780  143.6210 C   0  0  2  0  0  3  0  0  0  0  0  0
  193.8750  174.1990  145.2120 C   0  0  1  0  0  3  0  0  0  0  0  0
  194.7590  173.9990  143.9670 C   0  0  2  0  0  3  0  0  0  0  0  0
  192.2550  175.1420  142.1850 C   0  0  0  0  0  1  0  0  0  0  0  0
  193.7110  175.0370  141.7730 C   0  0  0  0  0  3  0  0  0  0  0  0
  193.9510  173.7130  141.0750 C   0  0  0  0  0  1  0  0  0  0  0  0
  196.6180  173.8290  145.5230 O   0  0  0  0  0  1  0  0  0  0  0  0
  196.2000  173.5280  144.2250 C   0  0  1  0  0  3  0  0  0  0  0  0
  196.3300  172.0380  143.9770 C   0  0  0  0  0  1  0  0  0  0  0  0
  1  8  1  0  0  0  0
  1 32  1  1  0  0  0
  3  1  1  6  0  0  0
  3  2  1  0  0  0  0
  4  5  1  0  0  0  0
  6  4  1  0  0  0  0
  6  5  1  0  0  0  0
  6  3  1  0  0  0  0
  6  2  1  0  0  0  0
  8  7  2  0  0  0  0
  9  8  1  0  0  0  0
 10  9  1  0  0  0  0
 11 10  1  0  0  0  0
 12 11  1  0  0  0  0
 13 12  1  0  0  0  0
 14 17  2  0  0  0  0
 15 19  1  0  0  0  0
 15 13  1  0  0  0  0
 16 15  2  0  0  0  0
 17 22  1  0  0  0  0
 17 19  1  0  0  0  0
 18 14  1  0  0  0  0
 18 16  1  0  0  0  0
 20 18  2  0  0  0  0
 21 24  1  0  0  0  0
 22 21  1  0  0  0  0
 23 22  2  0  0  0  0
 24 25  1  0  0  0  0
 26 25  1  0  0  0  0
 27 28  1  6  0  0  0
 27 26  1  0  0  0  0
 29 31  1  0  0  0  0
 31 27  1  0  0  0  0
 31 30  1  0  0  0  0
 34 33  1  6  0  0  0
 34 32  1  0  0  0  0
 35 34  1  0  0  0  0
 35 37  1  0  0  0  0
 37 36  2  0  0  0  0
 40 44  1  6  0  0  0
 40 42  1  0  0  0  0
 40 45  1  0  0  0  0
 41 39  1  1  0  0  0
 41 43  1  0  0  0  0
 42 49  1  6  0  0  0
 42 45  1  0  0  0  0
 42 47  1  0  0  0  0
 43 37  1  6  0  0  0
 45 41  1  0  0  0  0
 46 43  1  0  0  0  0
 46 38  1  0  0  0  0
 47 52  1  0  0  0  0
 47 46  1  0  0  0  0
 49 48  1  0  0  0  0
 50 49  1  0  0  0  0
 52 51  1  0  0  0  0
 53 52  1  0  0  0  0
M  END
>  <MODEL>
1

>  <REMARK>
 VINA RESULT:      -6.7      0.000      0.000
  Name = 
  21 active torsions:
  status: ('A' for Active; 'I' for Inactive)
    1  A    between atoms: C_5  and  C_6
    2  A    between atoms: C_5  and  N_49
    3  A    between atoms: C_10  and  C_23
    4  A    between atoms: C_10  and  C_46
    5  A    between atoms: C_11  and  C_26
    6  A    between atoms: N_13  and  C_31
    7  A    between atoms: C_14  and  C_32
    8  A    between atoms: C_21  and  C_23
    9  A    between atoms: C_21  and  C_31
   10  A    between atoms: C_24  and  C_27
   11  A    between atoms: C_24  and  C_33
   12  A    between atoms: C_25  and  C_53
   13  A    between atoms: C_27  and  C_39
   14  A    between atoms: C_27  and  C_45
   15  A    between atoms: C_33  and  O_36
   16  A    between atoms: N_35  and  C_41
   17  A    between atoms: N_35  and  N_49
   18  A    between atoms: O_36  and  C_38
   19  A    between atoms: C_37  and  C_38
   20  A    between atoms: C_41  and  O_42
   21  A    between atoms: O_42  and  C_45
                            x       y       z     vdW  Elec       q    Type
                         _______ _______ _______ _____ _____    ______ ____

>  <TORSDO>
F 21

$$$$
=
 OpenBabel11062420313D

 53 57  0  0  1  0  0  0  0  0999 V2000
  192.5780  175.0790  144.6700 C   0  0  2  0  0  3  0  0  0  0  0  0
  193.2600  173.1260  145.8120 O   0  0  0  0  0  0  0  0  0  0  0  0
  193.7220  174.1300  144.9930 C   0  0  1  0  0  3  0  0  0  0  0  0
  194.8500  172.5350  143.9140 C   0  0  0  0  0  2  0  0  0  0  0  0
  194.1980  171.4470  144.6500 C   0  0  0  0  0  2  0  0  0  0  0  0
  193.4270  172.7620  144.4500 C   0  0  0  0  0  0  0  0  0  0  0  0
  194.2080  176.8100  144.7340 O   0  0  0  0  0  0  0  0  0  0  0  0
  193.1120  176.4120  144.2560 C   0  0  0  0  0  0  0  0  0  0  0  0
  192.3840  177.2180  143.3760 O   0  0  0  0  0  0  0  0  0  0  0  0
  191.6470  178.3490  143.8220 C   0  0  0  0  0  2  0  0  0  0  0  0
  190.2300  178.0250  143.8830 N   0  0  0  0  0  2  0  0  0  0  0  0
  189.8700  177.4890  142.6400 N   0  0  0  0  0  2  0  0  0  0  0  0
  189.2540  178.5660  141.8850 C   0  0  0  0  0  2  0  0  0  0  0  0
  185.0240  177.7640  141.2100 C   0  0  0  0  0  3  0  0  0  0  0  0
  187.8150  178.2650  141.6430 C   0  0  0  0  0  0  0  0  0  0  0  0
  187.4370  177.8010  140.4490 C   0  0  0  0  0  3  0  0  0  0  0  0
  185.3750  178.2380  142.4110 C   0  0  0  0  0  0  0  0  0  0  0  0
  186.0270  177.5200  140.1710 C   0  0  0  0  0  0  0  0  0  0  0  0
  186.8220  178.5440  142.7480 C   0  0  0  0  0  2  0  0  0  0  0  0
  185.6800  177.0760  139.0470 O   0  0  0  0  0  0  0  0  0  0  0  0
  184.6750  178.4140  144.8200 N   0  0  0  0  0  2  0  0  0  0  0  0
  184.3390  178.4780  143.4310 C   0  0  0  0  0  0  0  0  0  0  0  0
  183.1540  178.7380  143.0820 O   0  0  0  0  0  0  0  0  0  0  0  0
  183.7150  178.7030  145.8730 C   0  0  0  0  0  2  0  0  0  0  0  0
  184.3650  178.5030  147.2290 C   0  0  0  0  0  2  0  0  0  0  0  0
  185.6860  179.2550  147.2760 C   0  0  0  0  0  2  0  0  0  0  0  0
  186.8150  178.4200  147.8860 C   0  0  2  0  0  3  0  0  0  0  0  0
  187.6400  179.2030  148.6990 O   0  0  0  0  0  1  0  0  0  0  0  0
  188.9790  177.5860  147.2490 O   0  0  0  0  0  1  0  0  0  0  0  0
  187.1440  176.3510  146.6800 O   0  0  0  0  0  1  0  0  0  0  0  0
  187.6410  177.6440  146.8560 C   0  0  0  0  0  3  0  0  0  0  0  0
  191.6580  175.2050  145.8780 C   0  0  0  0  0  2  0  0  0  0  0  0
  189.5810  173.9510  146.4370 C   0  0  0  0  0  1  0  0  0  0  0  0
  190.2090  174.9480  145.4830 C   0  0  2  0  0  3  0  0  0  0  0  0
  190.1460  174.4290  144.1600 O   0  0  0  0  0  0  0  0  0  0  0  0
  188.0950  175.3100  143.6450 O   0  0  0  0  0  0  0  0  0  0  0  0
  188.9790  174.4490  143.3910 C   0  0  0  0  0  0  0  0  0  0  0  0
  188.2780  174.6790  140.2330 F   0  0  0  0  0  0  0  0  0  0  0  0
  189.0170  171.6700  143.8640 O   0  0  0  0  0  1  0  0  0  0  0  0
  191.0600  170.9220  141.2310 C   0  0  1  0  0  3  0  0  0  0  0  0
  189.3300  172.0770  142.5650 C   0  0  1  0  0  3  0  0  0  0  0  0
  191.2300  172.4050  140.9010 C   0  0  2  0  0  0  0  0  0  0  0  0
  188.7730  173.4790  142.2600 C   0  0  2  0  0  3  0  0  0  0  0  0
  192.2920  170.3000  141.4420 O   0  0  0  0  0  1  0  0  0  0  0  0
  190.8320  171.9670  142.3150 C   0  0  2  0  0  3  0  0  0  0  0  0
  189.2970  174.0780  140.9460 C   0  0  1  0  0  3  0  0  0  0  0  0
  190.1250  173.1100  140.0790 C   0  0  2  0  0  3  0  0  0  0  0  0
  192.6840  174.4480  141.1160 C   0  0  0  0  0  1  0  0  0  0  0  0
  192.6570  172.9590  140.8240 C   0  0  0  0  0  3  0  0  0  0  0  0
  193.2600  172.6950  139.4580 C   0  0  0  0  0  1  0  0  0  0  0  0
  187.9800  172.5340  139.0930 O   0  0  0  0  0  1  0  0  0  0  0  0
  189.3280  172.1770  139.1530 C   0  0  1  0  0  3  0  0  0  0  0  0
  189.9200  172.1740  137.7570 C   0  0  0  0  0  1  0  0  0  0  0  0
  1 32  1  1  0  0  0
  3  1  1  6  0  0  0
  3  2  1  0  0  0  0
  4  6  1  0  0  0  0
  4  5  1  0  0  0  0
  6  5  1  0  0  0  0
  6  3  1  0  0  0  0
  6  2  1  0  0  0  0
  8  1  1  0  0  0  0
  8  7  2  0  0  0  0
  9 10  1  0  0  0  0
  9  8  1  0  0  0  0
 10 11  1  0  0  0  0
 12 11  1  0  0  0  0
 13 12  1  0  0  0  0
 14 17  2  0  0  0  0
 15 13  1  0  0  0  0
 15 19  1  0  0  0  0
 16 15  2  0  0  0  0
 17 19  1  0  0  0  0
 17 22  1  0  0  0  0
 18 16  1  0  0  0  0
 18 14  1  0  0  0  0
 20 18  2  0  0  0  0
 21 24  1  0  0  0  0
 22 21  1  0  0  0  0
 23 22  2  0  0  0  0
 24 25  1  0  0  0  0
 25 26  1  0  0  0  0
 26 27  1  0  0  0  0
 27 28  1  6  0  0  0
 30 31  1  0  0  0  0
 31 29  1  0  0  0  0
 31 27  1  0  0  0  0
 34 32  1  0  0  0  0
 34 33  1  1  0  0  0
 35 34  1  0  0  0  0
 37 36  2  0  0  0  0
 37 35  1  0  0  0  0
 38 46  1  0  0  0  0
 40 44  1  1  0  0  0
 40 45  1  0  0  0  0
 41 39  1  1  0  0  0
 42 49  1  6  0  0  0
 42 40  1  0  0  0  0
 42 45  1  0  0  0  0
 43 41  1  0  0  0  0
 43 37  1  1  0  0  0
 45 41  1  0  0  0  0
 46 43  1  0  0  0  0
 47 42  1  0  0  0  0
 47 46  1  0  0  0  0
 49 48  1  0  0  0  0
 50 49  1  0  0  0  0
 51 52  1  0  0  0  0
 52 47  1  0  0  0  0
 53 52  1  0  0  0  0
M  END
>  <MODEL>
2

>  <REMARK>
 VINA RESULT:      -6.6      2.478      6.517
  Name = 
  21 active torsions:
  status: ('A' for Active; 'I' for Inactive)
    1  A    between atoms: C_5  and  C_6
    2  A    between atoms: C_5  and  N_49
    3  A    between atoms: C_10  and  C_23
    4  A    between atoms: C_10  and  C_46
    5  A    between atoms: C_11  and  C_26
    6  A    between atoms: N_13  and  C_31
    7  A    between atoms: C_14  and  C_32
    8  A    between atoms: C_21  and  C_23
    9  A    between atoms: C_21  and  C_31
   10  A    between atoms: C_24  and  C_27
   11  A    between atoms: C_24  and  C_33
   12  A    between atoms: C_25  and  C_53
   13  A    between atoms: C_27  and  C_39
   14  A    between atoms: C_27  and  C_45
   15  A    between atoms: C_33  and  O_36
   16  A    between atoms: N_35  and  C_41
   17  A    between atoms: N_35  and  N_49
   18  A    between atoms: O_36  and  C_38
   19  A    between atoms: C_37  and  C_38
   20  A    between atoms: C_41  and  O_42
   21  A    between atoms: O_42  and  C_45
                            x       y       z     vdW  Elec       q    Type
                         _______ _______ _______ _____ _____    ______ ____

>  <TORSDO>
F 21

$$$$
=
 OpenBabel11062420313D

 53 57  0  0  1  0  0  0  0  0999 V2000
  194.8160  175.3500  144.5080 C   0  0  2  0  0  3  0  0  0  0  0  0
  196.8770  175.7820  143.4340 O   0  0  0  0  0  0  0  0  0  0  0  0
  195.6040  176.2800  143.5990 C   0  0  1  0  0  3  0  0  0  0  0  0
  195.6580  176.7420  141.4160 C   0  0  0  0  0  2  0  0  0  0  0  0
  196.9190  176.0260  141.2010 C   0  0  0  0  0  2  0  0  0  0  0  0
  195.9980  175.5620  142.3400 C   0  0  0  0  0  0  0  0  0  0  0  0
  192.9380  176.7940  144.2900 O   0  0  0  0  0  0  0  0  0  0  0  0
  193.6150  176.0530  145.0520 C   0  0  0  0  0  0  0  0  0  0  0  0
  193.2690  175.9130  146.4000 O   0  0  0  0  0  0  0  0  0  0  0  0
  192.0330  176.3910  146.9150 C   0  0  0  0  0  2  0  0  0  0  0  0
  191.2640  175.2850  147.4650 N   0  0  0  0  0  2  0  0  0  0  0  0
  190.1310  175.1220  146.6580 N   0  0  0  0  0  2  0  0  0  0  0  0
  190.4460  174.0720  145.7050 C   0  0  0  0  0  2  0  0  0  0  0  0
  188.4320  174.8710  141.9240 C   0  0  0  0  0  3  0  0  0  0  0  0
  189.7410  174.3200  144.4160 C   0  0  0  0  0  0  0  0  0  0  0  0
  189.6130  173.3220  143.5380 C   0  0  0  0  0  3  0  0  0  0  0  0
  188.5560  175.8900  142.7810 C   0  0  0  0  0  0  0  0  0  0  0  0
  188.9480  173.5400  142.2530 C   0  0  0  0  0  0  0  0  0  0  0  0
  189.2360  175.7150  144.1260 C   0  0  0  0  0  2  0  0  0  0  0  0
  188.8250  172.5930  141.4350 O   0  0  0  0  0  0  0  0  0  0  0  0
  186.6720  177.5560  142.7130 N   0  0  0  0  0  2  0  0  0  0  0  0
  188.0300  177.2180  142.4150 C   0  0  0  0  0  0  0  0  0  0  0  0
  188.7750  178.0570  141.8370 O   0  0  0  0  0  0  0  0  0  0  0  0
  186.1130  178.8690  142.4360 C   0  0  0  0  0  2  0  0  0  0  0  0
  185.5370  179.4600  143.7090 C   0  0  0  0  0  2  0  0  0  0  0  0
  186.0950  178.7170  144.9120 C   0  0  0  0  0  2  0  0  0  0  0  0
  185.0170  177.9420  145.6760 C   0  0  2  0  0  3  0  0  0  0  0  0
  184.0260  178.8010  146.1600 O   0  0  0  0  0  1  0  0  0  0  0  0
  186.7530  176.4400  146.3920 O   0  0  0  0  0  1  0  0  0  0  0  0
  185.7890  177.7900  147.9610 O   0  0  0  0  0  1  0  0  0  0  0  0
  185.5660  177.0540  146.7960 C   0  0  0  0  0  3  0  0  0  0  0  0
  195.7140  174.8450  145.6300 C   0  0  0  0  0  2  0  0  0  0  0  0
  197.1560  172.8210  145.4710 C   0  0  0  0  0  1  0  0  0  0  0  0
  195.7370  173.3220  145.6610 C   0  0  2  0  0  3  0  0  0  0  0  0
  194.9160  172.7990  144.6240 O   0  0  0  0  0  0  0  0  0  0  0  0
  194.1380  170.9820  145.7830 O   0  0  0  0  0  0  0  0  0  0  0  0
  194.3680  171.5130  144.6640 C   0  0  0  0  0  0  0  0  0  0  0  0
  191.6660  170.3520  143.3000 F   0  0  0  0  0  0  0  0  0  0  0  0
  196.4140  170.6590  142.9210 O   0  0  0  0  0  1  0  0  0  0  0  0
  194.8930  171.7670  140.0710 C   0  0  1  0  0  3  0  0  0  0  0  0
  195.1530  170.8420  142.3470 C   0  0  1  0  0  3  0  0  0  0  0  0
  193.7530  172.3830  140.8810 C   0  0  2  0  0  0  0  0  0  0  0  0
  194.0340  170.7670  143.4010 C   0  0  2  0  0  3  0  0  0  0  0  0
  195.5140  172.7170  139.2570 O   0  0  0  0  0  1  0  0  0  0  0  0
  195.1170  172.1320  141.5320 C   0  0  2  0  0  3  0  0  0  0  0  0
  192.6610  171.2090  142.8730 C   0  0  1  0  0  3  0  0  0  0  0  0
  192.6020  171.4620  141.3550 C   0  0  2  0  0  3  0  0  0  0  0  0
  192.5300  174.4020  141.7530 C   0  0  0  0  0  1  0  0  0  0  0  0
  193.4510  173.8710  140.6710 C   0  0  0  0  0  3  0  0  0  0  0  0
  192.8270  174.1030  139.3090 C   0  0  0  0  0  1  0  0  0  0  0  0
  191.5430  169.2900  141.0910 O   0  0  0  0  0  1  0  0  0  0  0  0
  192.3700  170.2270  140.4690 C   0  0  1  0  0  3  0  0  0  0  0  0
  191.7750  170.6290  139.1340 C   0  0  0  0  0  1  0  0  0  0  0  0
  1  8  1  0  0  0  0
  1 32  1  1  0  0  0
  2  3  1  0  0  0  0
  3  1  1  1  0  0  0
  4  6  1  0  0  0  0
  5  4  1  0  0  0  0
  5  6  1  0  0  0  0
  6  2  1  0  0  0  0
  6  3  1  0  0  0  0
  7  8  2  0  0  0  0
  8  9  1  0  0  0  0
  9 10  1  0  0  0  0
 10 11  1  0  0  0  0
 12 11  1  0  0  0  0
 13 12  1  0  0  0  0
 14 18  1  0  0  0  0
 14 17  2  0  0  0  0
 15 13  1  0  0  0  0
 16 15  2  0  0  0  0
 17 19  1  0  0  0  0
 18 16  1  0  0  0  0
 19 15  1  0  0  0  0
 20 18  2  0  0  0  0
 22 21  1  0  0  0  0
 22 17  1  0  0  0  0
 23 22  2  0  0  0  0
 24 21  1  0  0  0  0
 24 25  1  0  0  0  0
 25 26  1  0  0  0  0
 26 27  1  0  0  0  0
 27 28  1  1  0  0  0
 27 31  1  0  0  0  0
 29 31  1  0  0  0  0
 31 30  1  0  0  0  0
 32 34  1  0  0  0  0
 34 33  1  6  0  0  0
 35 37  1  0  0  0  0
 35 34  1  0  0  0  0
 37 36  2  0  0  0  0
 40 44  1  6  0  0  0
 40 42  1  0  0  0  0
 40 45  1  0  0  0  0
 41 39  1  1  0  0  0
 41 43  1  0  0  0  0
 42 49  1  6  0  0  0
 42 47  1  0  0  0  0
 42 45  1  0  0  0  0
 43 37  1  1  0  0  0
 45 41  1  0  0  0  0
 46 38  1  0  0  0  0
 46 43  1  0  0  0  0
 47 46  1  0  0  0  0
 49 48  1  0  0  0  0
 50 49  1  0  0  0  0
 52 51  1  0  0  0  0
 52 47  1  0  0  0  0
 53 52  1  0  0  0  0
M  END
>  <MODEL>
3

>  <REMARK>
 VINA RESULT:      -6.4      2.543      5.822
  Name = 
  21 active torsions:
  status: ('A' for Active; 'I' for Inactive)
    1  A    between atoms: C_5  and  C_6
    2  A    between atoms: C_5  and  N_49
    3  A    between atoms: C_10  and  C_23
    4  A    between atoms: C_10  and  C_46
    5  A    between atoms: C_11  and  C_26
    6  A    between atoms: N_13  and  C_31
    7  A    between atoms: C_14  and  C_32
    8  A    between atoms: C_21  and  C_23
    9  A    between atoms: C_21  and  C_31
   10  A    between atoms: C_24  and  C_27
   11  A    between atoms: C_24  and  C_33
   12  A    between atoms: C_25  and  C_53
   13  A    between atoms: C_27  and  C_39
   14  A    between atoms: C_27  and  C_45
   15  A    between atoms: C_33  and  O_36
   16  A    between atoms: N_35  and  C_41
   17  A    between atoms: N_35  and  N_49
   18  A    between atoms: O_36  and  C_38
   19  A    between atoms: C_37  and  C_38
   20  A    between atoms: C_41  and  O_42
   21  A    between atoms: O_42  and  C_45
                            x       y       z     vdW  Elec       q    Type
                         _______ _______ _______ _____ _____    ______ ____

>  <TORSDO>
F 21

$$$$
=
 OpenBabel11062420313D

 53 57  0  0  1  0  0  0  0  0999 V2000
  188.2220  177.6780  145.5630 C   0  0  2  0  0  3  0  0  0  0  0  0
  186.4040  177.1310  146.9700 O   0  0  0  0  0  0  0  0  0  0  0  0
  186.7990  177.1490  145.6520 C   0  0  1  0  0  3  0  0  0  0  0  0
  184.7560  177.9240  145.1990 C   0  0  0  0  0  2  0  0  0  0  0  0
  184.4100  178.1040  146.6120 C   0  0  0  0  0  2  0  0  0  0  0  0
  185.8870  178.2080  146.2000 C   0  0  0  0  0  0  0  0  0  0  0  0
  189.9050  177.9420  143.9020 O   0  0  0  0  0  0  0  0  0  0  0  0
  188.7360  177.5510  144.1650 C   0  0  0  0  0  0  0  0  0  0  0  0
  187.9140  177.0350  143.1590 O   0  0  0  0  0  0  0  0  0  0  0  0
  188.2810  175.8940  142.3960 C   0  0  0  0  0  2  0  0  0  0  0  0
  187.8120  176.0390  141.0270 N   0  0  0  0  0  2  0  0  0  0  0  0
  188.3060  174.9490  140.2980 N   0  0  0  0  0  2  0  0  0  0  0  0
  188.8090  173.9930  141.2680 C   0  0  0  0  0  2  0  0  0  0  0  0
  191.1020  170.8530  139.2990 C   0  0  0  0  0  3  0  0  0  0  0  0
  189.6110  172.9410  140.5830 C   0  0  0  0  0  0  0  0  0  0  0  0
  189.8970  173.0780  139.2860 C   0  0  0  0  0  3  0  0  0  0  0  0
  190.8210  170.6870  140.5960 C   0  0  0  0  0  0  0  0  0  0  0  0
  190.6610  172.0490  138.5780 C   0  0  0  0  0  0  0  0  0  0  0  0
  190.0330  171.7230  141.3740 C   0  0  0  0  0  2  0  0  0  0  0  0
  190.9320  172.1890  137.3580 O   0  0  0  0  0  0  0  0  0  0  0  0
  192.0740  169.5740  142.4720 N   0  0  0  0  0  2  0  0  0  0  0  0
  191.2750  169.4680  141.2900 C   0  0  0  0  0  0  0  0  0  0  0  0
  190.9620  168.3300  140.8420 O   0  0  0  0  0  0  0  0  0  0  0  0
  192.4990  168.4140  143.2370 C   0  0  0  0  0  2  0  0  0  0  0  0
  193.3930  168.8530  144.3820 C   0  0  0  0  0  2  0  0  0  0  0  0
  194.7500  168.1790  144.2550 C   0  0  0  0  0  2  0  0  0  0  0  0
  195.8490  168.9270  145.0150 C   0  0  2  0  0  3  0  0  0  0  0  0
  195.3110  169.7080  146.0420 O   0  0  0  0  0  1  0  0  0  0  0  0
  197.0650  169.0650  142.9460 O   0  0  0  0  0  1  0  0  0  0  0  0
  196.1840  170.9900  143.8010 O   0  0  0  0  0  1  0  0  0  0  0  0
  196.7670  169.7610  144.1180 C   0  0  0  0  0  3  0  0  0  0  0  0
  189.1120  176.9290  146.5470 C   0  0  0  0  0  2  0  0  0  0  0  0
  188.9930  174.6090  147.4450 C   0  0  0  0  0  1  0  0  0  0  0  0
  189.1780  175.4480  146.1950 C   0  0  2  0  0  3  0  0  0  0  0  0
  190.4380  175.1390  145.6110 O   0  0  0  0  0  0  0  0  0  0  0  0
  189.6930  173.2970  144.4710 O   0  0  0  0  0  0  0  0  0  0  0  0
  190.6010  174.1550  144.6320 C   0  0  0  0  0  0  0  0  0  0  0  0
  191.7680  175.9290  142.1820 F   0  0  0  0  0  0  0  0  0  0  0  0
  192.4600  172.0470  144.8710 O   0  0  0  0  0  1  0  0  0  0  0  0
  195.2220  174.0550  144.9020 C   0  0  1  0  0  3  0  0  0  0  0  0
  192.9530  173.2470  144.3520 C   0  0  1  0  0  3  0  0  0  0  0  0
  194.3500  175.3100  144.8800 C   0  0  2  0  0  0  0  0  0  0  0  0
  191.8280  174.1150  143.7610 C   0  0  2  0  0  3  0  0  0  0  0  0
  196.0900  174.0540  145.9960 O   0  0  0  0  0  1  0  0  0  0  0  0
  193.7850  173.9830  145.3990 C   0  0  2  0  0  3  0  0  0  0  0  0
  192.2720  175.5420  143.4080 C   0  0  1  0  0  3  0  0  0  0  0  0
  193.7870  175.7950  143.5220 C   0  0  2  0  0  3  0  0  0  0  0  0
  193.3110  176.5170  146.8290 C   0  0  0  0  0  1  0  0  0  0  0  0
  194.5630  176.3460  145.9890 C   0  0  0  0  0  3  0  0  0  0  0  0
  194.9690  177.6830  145.4000 C   0  0  0  0  0  1  0  0  0  0  0  0
  194.0560  174.3480  141.5880 O   0  0  0  0  0  1  0  0  0  0  0  0
  194.6360  175.3970  142.3040 C   0  0  1  0  0  3  0  0  0  0  0  0
  194.8500  176.5860  141.3880 C   0  0  0  0  0  1  0  0  0  0  0  0
  1 32  1  1  0  0  0
  3  1  1  1  0  0  0
  3  6  1  0  0  0  0
  3  2  1  0  0  0  0
  4  6  1  0  0  0  0
  4  5  1  0  0  0  0
  6  5  1  0  0  0  0
  6  2  1  0  0  0  0
  7  8  2  0  0  0  0
  8  1  1  0  0  0  0
  9  8  1  0  0  0  0
 10  9  1  0  0  0  0
 11 10  1  0  0  0  0
 12 11  1  0  0  0  0
 12 13  1  0  0  0  0
 14 17  2  0  0  0  0
 15 13  1  0  0  0  0
 15 19  1  0  0  0  0
 16 15  2  0  0  0  0
 17 22  1  0  0  0  0
 17 19  1  0  0  0  0
 18 16  1  0  0  0  0
 18 14  1  0  0  0  0
 20 18  2  0  0  0  0
 21 24  1  0  0  0  0
 22 21  1  0  0  0  0
 23 22  2  0  0  0  0
 24 25  1  0  0  0  0
 26 25  1  0  0  0  0
 26 27  1  0  0  0  0
 27 28  1  1  0  0  0
 29 31  1  0  0  0  0
 30 31  1  0  0  0  0
 31 27  1  0  0  0  0
 34 32  1  0  0  0  0
 34 33  1  1  0  0  0
 35 34  1  0  0  0  0
 36 37  2  0  0  0  0
 37 35  1  0  0  0  0
 38 46  1  0  0  0  0
 40 45  1  0  0  0  0
 40 44  1  1  0  0  0
 41 39  1  1  0  0  0
 41 45  1  0  0  0  0
 42 40  1  0  0  0  0
 42 45  1  0  0  0  0
 42 49  1  1  0  0  0
 43 41  1  0  0  0  0
 43 37  1  1  0  0  0
 46 47  1  0  0  0  0
 46 43  1  0  0  0  0
 47 42  1  0  0  0  0
 49 48  1  0  0  0  0
 50 49  1  0  0  0  0
 51 52  1  0  0  0  0
 52 47  1  0  0  0  0
 53 52  1  0  0  0  0
M  END
>  <MODEL>
4

>  <REMARK>
 VINA RESULT:      -6.2      2.654      7.218
  Name = 
  21 active torsions:
  status: ('A' for Active; 'I' for Inactive)
    1  A    between atoms: C_5  and  C_6
    2  A    between atoms: C_5  and  N_49
    3  A    between atoms: C_10  and  C_23
    4  A    between atoms: C_10  and  C_46
    5  A    between atoms: C_11  and  C_26
    6  A    between atoms: N_13  and  C_31
    7  A    between atoms: C_14  and  C_32
    8  A    between atoms: C_21  and  C_23
    9  A    between atoms: C_21  and  C_31
   10  A    between atoms: C_24  and  C_27
   11  A    between atoms: C_24  and  C_33
   12  A    between atoms: C_25  and  C_53
   13  A    between atoms: C_27  and  C_39
   14  A    between atoms: C_27  and  C_45
   15  A    between atoms: C_33  and  O_36
   16  A    between atoms: N_35  and  C_41
   17  A    between atoms: N_35  and  N_49
   18  A    between atoms: O_36  and  C_38
   19  A    between atoms: C_37  and  C_38
   20  A    between atoms: C_41  and  O_42
   21  A    between atoms: O_42  and  C_45
                            x       y       z     vdW  Elec       q    Type
                         _______ _______ _______ _____ _____    ______ ____

>  <TORSDO>
F 21

$$$$
=
 OpenBabel11062420313D

 53 57  0  0  1  0  0  0  0  0999 V2000
  188.5710  173.0810  140.5140 C   0  0  2  0  0  3  0  0  0  0  0  0
  188.0060  175.3650  140.2860 O   0  0  0  0  0  0  0  0  0  0  0  0
  189.0140  174.5240  140.7020 C   0  0  1  0  0  3  0  0  0  0  0  0
  189.2750  175.9220  142.4210 C   0  0  0  0  0  2  0  0  0  0  0  0
  188.0730  176.6960  142.0950 C   0  0  0  0  0  2  0  0  0  0  0  0
  188.1220  175.2130  141.6940 C   0  0  0  0  0  0  0  0  0  0  0  0
  189.1670  172.3730  142.7060 O   0  0  0  0  0  0  0  0  0  0  0  0
  189.3000  172.1880  141.4660 C   0  0  0  0  0  0  0  0  0  0  0  0
  190.1430  171.1840  140.9810 O   0  0  0  0  0  0  0  0  0  0  0  0
  190.9670  170.4100  141.8440 C   0  0  0  0  0  2  0  0  0  0  0  0
  192.2860  171.0150  141.9450 N   0  0  0  0  0  2  0  0  0  0  0  0
  192.9560  170.3820  143.0010 N   0  0  0  0  0  2  0  0  0  0  0  0
  192.3280  170.8410  144.2270 C   0  0  0  0  0  2  0  0  0  0  0  0
  193.6680  174.8500  145.2870 C   0  0  0  0  0  3  0  0  0  0  0  0
  192.8050  172.2110  144.5660 C   0  0  0  0  0  0  0  0  0  0  0  0
  194.1180  172.4480  144.6330 C   0  0  0  0  0  3  0  0  0  0  0  0
  192.3480  174.6370  145.2380 C   0  0  0  0  0  0  0  0  0  0  0  0
  194.6190  173.7770  144.9880 C   0  0  0  0  0  0  0  0  0  0  0  0
  191.7800  173.2790  144.8740 C   0  0  0  0  0  2  0  0  0  0  0  0
  195.8560  173.9940  145.0410 O   0  0  0  0  0  0  0  0  0  0  0  0
  190.2840  175.4980  146.3870 N   0  0  0  0  0  2  0  0  0  0  0  0
  191.4200  175.7380  145.5510 C   0  0  0  0  0  0  0  0  0  0  0  0
  191.6230  176.8910  145.0820 O   0  0  0  0  0  0  0  0  0  0  0  0
  189.3680  176.5540  146.7860 C   0  0  0  0  0  2  0  0  0  0  0  0
  188.1540  176.5520  145.8750 C   0  0  0  0  0  2  0  0  0  0  0  0
  186.8920  176.6970  146.7100 C   0  0  0  0  0  2  0  0  0  0  0  0
  186.2850  178.1000  146.6160 C   0  0  2  0  0  3  0  0  0  0  0  0
  185.5750  178.4210  147.7770 O   0  0  0  0  0  1  0  0  0  0  0  0
  184.1780  178.8390  145.7260 O   0  0  0  0  0  1  0  0  0  0  0  0
  186.0520  179.1840  144.4690 O   0  0  0  0  0  1  0  0  0  0  0  0
  185.4240  178.3220  145.3700 C   0  0  0  0  0  3  0  0  0  0  0  0
  188.8050  172.6550  139.0700 C   0  0  0  0  0  2  0  0  0  0  0  0
  189.3800  174.1670  137.1770 C   0  0  0  0  0  1  0  0  0  0  0  0
  189.9040  173.4940  138.4310 C   0  0  2  0  0  3  0  0  0  0  0  0
  191.0120  172.6700  138.0870 O   0  0  0  0  0  0  0  0  0  0  0  0
  192.9740  171.7270  138.8030 O   0  0  0  0  0  0  0  0  0  0  0  0
  192.2520  172.7570  138.7280 C   0  0  0  0  0  0  0  0  0  0  0  0
  192.0670  174.2240  141.6140 F   0  0  0  0  0  0  0  0  0  0  0  0
  193.5700  174.6470  137.1030 O   0  0  0  0  0  1  0  0  0  0  0  0
  196.1240  175.2310  139.2950 C   0  0  1  0  0  3  0  0  0  0  0  0
  193.8550  174.7060  138.4700 C   0  0  1  0  0  3  0  0  0  0  0  0
  195.5970  174.1570  140.2450 C   0  0  2  0  0  0  0  0  0  0  0  0
  192.7410  174.0560  139.3100 C   0  0  2  0  0  3  0  0  0  0  0  0
  197.4470  174.9840  138.9260 O   0  0  0  0  0  1  0  0  0  0  0  0
  195.2350  174.1190  138.7560 C   0  0  2  0  0  3  0  0  0  0  0  0
  193.1150  173.8660  140.7880 C   0  0  1  0  0  3  0  0  0  0  0  0
  194.4420  174.5240  141.2090 C   0  0  2  0  0  3  0  0  0  0  0  0
  195.8050  171.7560  140.9720 C   0  0  0  0  0  1  0  0  0  0  0  0
  196.5570  173.0360  140.6580 C   0  0  0  0  0  3  0  0  0  0  0  0
  197.3800  173.4540  141.8610 C   0  0  0  0  0  1  0  0  0  0  0  0
  193.1830  176.3320  142.2350 O   0  0  0  0  0  1  0  0  0  0  0  0
  194.3740  176.0150  141.5790 C   0  0  1  0  0  3  0  0  0  0  0  0
  195.5550  176.4070  142.4450 C   0  0  0  0  0  1  0  0  0  0  0  0
  1 32  1  6  0  0  0
  1  8  1  0  0  0  0
  2  3  1  0  0  0  0
  2  6  1  0  0  0  0
  3  1  1  6  0  0  0
  3  6  1  0  0  0  0
  5  4  1  0  0  0  0
  6  5  1  0  0  0  0
  6  4  1  0  0  0  0
  8  7  2  0  0  0  0
  9  8  1  0  0  0  0
  9 10  1  0  0  0  0
 10 11  1  0  0  0  0
 11 12  1  0  0  0  0
 12 13  1  0  0  0  0
 13 15  1  0  0  0  0
 15 16  2  0  0  0  0
 15 19  1  0  0  0  0
 16 18  1  0  0  0  0
 17 14  2  0  0  0  0
 17 22  1  0  0  0  0
 18 20  2  0  0  0  0
 18 14  1  0  0  0  0
 19 17  1  0  0  0  0
 21 24  1  0  0  0  0
 22 21  1  0  0  0  0
 23 22  2  0  0  0  0
 25 26  1  0  0  0  0
 25 24  1  0  0  0  0
 27 26  1  0  0  0  0
 27 28  1  1  0  0  0
 30 31  1  0  0  0  0
 31 29  1  0  0  0  0
 31 27  1  0  0  0  0
 34 33  1  6  0  0  0
 34 32  1  0  0  0  0
 35 34  1  0  0  0  0
 35 37  1  0  0  0  0
 37 36  2  0  0  0  0
 40 44  1  6  0  0  0
 40 42  1  0  0  0  0
 41 39  1  6  0  0  0
 41 45  1  0  0  0  0
 41 43  1  0  0  0  0
 42 49  1  1  0  0  0
 42 47  1  0  0  0  0
 43 37  1  6  0  0  0
 43 46  1  0  0  0  0
 45 40  1  0  0  0  0
 45 42  1  0  0  0  0
 46 47  1  0  0  0  0
 46 38  1  0  0  0  0
 47 52  1  0  0  0  0
 49 48  1  0  0  0  0
 49 50  1  0  0  0  0
 52 51  1  0  0  0  0
 52 53  1  0  0  0  0
M  END
>  <MODEL>
5

>  <REMARK>
 VINA RESULT:      -6.0      2.644      6.156
  Name = 
  21 active torsions:
  status: ('A' for Active; 'I' for Inactive)
    1  A    between atoms: C_5  and  C_6
    2  A    between atoms: C_5  and  N_49
    3  A    between atoms: C_10  and  C_23
    4  A    between atoms: C_10  and  C_46
    5  A    between atoms: C_11  and  C_26
    6  A    between atoms: N_13  and  C_31
    7  A    between atoms: C_14  and  C_32
    8  A    between atoms: C_21  and  C_23
    9  A    between atoms: C_21  and  C_31
   10  A    between atoms: C_24  and  C_27
   11  A    between atoms: C_24  and  C_33
   12  A    between atoms: C_25  and  C_53
   13  A    between atoms: C_27  and  C_39
   14  A    between atoms: C_27  and  C_45
   15  A    between atoms: C_33  and  O_36
   16  A    between atoms: N_35  and  C_41
   17  A    between atoms: N_35  and  N_49
   18  A    between atoms: O_36  and  C_38
   19  A    between atoms: C_37  and  C_38
   20  A    between atoms: C_41  and  O_42
   21  A    between atoms: O_42  and  C_45
                            x       y       z     vdW  Elec       q    Type
                         _______ _______ _______ _____ _____    ______ ____

>  <TORSDO>
F 21

$$$$
=
 OpenBabel11062420313D

 53 57  0  0  1  0  0  0  0  0999 V2000
  189.5730  176.1470  144.4080 C   0  0  2  0  0  3  0  0  0  0  0  0
  188.6130  176.7280  146.4870 O   0  0  0  0  0  0  0  0  0  0  0  0
  188.3910  175.9860  145.3500 C   0  0  1  0  0  3  0  0  0  0  0  0
  186.2900  176.7330  145.4470 C   0  0  0  0  0  2  0  0  0  0  0  0
  186.5790  177.6810  146.5280 C   0  0  0  0  0  2  0  0  0  0  0  0
  187.7110  177.3080  145.5570 C   0  0  0  0  0  0  0  0  0  0  0  0
  189.5760  174.0140  143.3530 O   0  0  0  0  0  0  0  0  0  0  0  0
  189.4120  175.2560  143.2180 C   0  0  0  0  0  0  0  0  0  0  0  0
  189.1170  175.8040  141.9660 O   0  0  0  0  0  0  0  0  0  0  0  0
  188.2740  176.9390  141.8190 C   0  0  0  0  0  2  0  0  0  0  0  0
  187.2870  176.6940  140.7780 N   0  0  0  0  0  2  0  0  0  0  0  0
  186.6700  177.9180  140.4910 N   0  0  0  0  0  2  0  0  0  0  0  0
  185.3400  177.6080  139.9960 C   0  0  0  0  0  2  0  0  0  0  0  0
  182.2850  178.7920  142.8690 C   0  0  0  0  0  3  0  0  0  0  0  0
  184.3120  178.0380  140.9850 C   0  0  0  0  0  0  0  0  0  0  0  0
  184.6990  178.4300  142.2010 C   0  0  0  0  0  3  0  0  0  0  0  0
  181.8710  178.3940  141.6610 C   0  0  0  0  0  0  0  0  0  0  0  0
  183.7110  178.8340  143.2030 C   0  0  0  0  0  0  0  0  0  0  0  0
  182.8540  177.9660  140.5890 C   0  0  0  0  0  2  0  0  0  0  0  0
  184.0830  179.2090  144.3440 O   0  0  0  0  0  0  0  0  0  0  0  0
  179.9770  178.4760  140.0080 N   0  0  0  0  0  2  0  0  0  0  0  0
  180.4280  178.3580  141.3610 C   0  0  0  0  0  0  0  0  0  0  0  0
  179.5900  178.2270  142.2950 O   0  0  0  0  0  0  0  0  0  0  0  0
  178.5740  178.3830  139.6400 C   0  0  0  0  0  2  0  0  0  0  0  0
  178.2130  179.5210  138.7020 C   0  0  0  0  0  2  0  0  0  0  0  0
  178.4620  180.8500  139.3980 C   0  0  0  0  0  2  0  0  0  0  0  0
  178.2900  182.0450  138.4560 C   0  0  2  0  0  3  0  0  0  0  0  0
  179.3370  182.1150  137.5320 O   0  0  0  0  0  1  0  0  0  0  0  0
  177.8700  183.1740  140.5370 O   0  0  0  0  0  1  0  0  0  0  0  0
  179.2300  184.2010  139.0170 O   0  0  0  0  0  1  0  0  0  0  0  0
  178.1090  183.3840  139.1780 C   0  0  0  0  0  3  0  0  0  0  0  0
  190.8680  175.8440  145.1510 C   0  0  0  0  0  2  0  0  0  0  0  0
  191.3390  177.9820  143.9660 C   0  0  0  0  0  1  0  0  0  0  0  0
  191.8850  176.9570  144.9410 C   0  0  2  0  0  3  0  0  0  0  0  0
  193.0980  176.4220  144.4220 O   0  0  0  0  0  0  0  0  0  0  0  0
  194.5040  177.4590  145.9040 O   0  0  0  0  0  0  0  0  0  0  0  0
  194.3170  176.5080  145.1000 C   0  0  0  0  0  0  0  0  0  0  0  0
  194.9240  173.5300  146.2310 F   0  0  0  0  0  0  0  0  0  0  0  0
  196.5690  177.0840  143.5020 O   0  0  0  0  0  1  0  0  0  0  0  0
  196.4850  174.1510  141.7560 C   0  0  1  0  0  3  0  0  0  0  0  0
  196.2400  175.7330  143.6370 C   0  0  1  0  0  3  0  0  0  0  0  0
  195.1950  173.7310  142.4600 C   0  0  2  0  0  0  0  0  0  0  0  0
  195.3960  175.4780  144.8990 C   0  0  2  0  0  3  0  0  0  0  0  0
  196.3330  174.1530  140.3680 O   0  0  0  0  0  1  0  0  0  0  0  0
  195.5780  175.2120  142.3640 C   0  0  2  0  0  3  0  0  0  0  0  0
  194.7970  174.0650  144.9640 C   0  0  1  0  0  3  0  0  0  0  0  0
  195.2940  173.1010  143.8700 C   0  0  2  0  0  3  0  0  0  0  0  0
  192.9090  174.4260  141.6660 C   0  0  0  0  0  1  0  0  0  0  0  0
  193.9910  173.3650  141.5850 C   0  0  0  0  0  3  0  0  0  0  0  0
  193.4210  172.0210  141.9950 C   0  0  0  0  0  1  0  0  0  0  0  0
  196.9720  172.4480  145.5020 O   0  0  0  0  0  1  0  0  0  0  0  0
  196.6230  172.3800  144.1520 C   0  0  1  0  0  3  0  0  0  0  0  0
  196.5500  170.9310  143.7130 C   0  0  0  0  0  1  0  0  0  0  0  0
  1 32  1  1  0  0  0
  3  1  1  6  0  0  0
  3  6  1  0  0  0  0
  3  2  1  0  0  0  0
  4  6  1  0  0  0  0
  4  5  1  0  0  0  0
  6  2  1  0  0  0  0
  6  5  1  0  0  0  0
  8  7  2  0  0  0  0
  8  1  1  0  0  0  0
  9  8  1  0  0  0  0
 10  9  1  0  0  0  0
 11 10  1  0  0  0  0
 12 11  1  0  0  0  0
 13 12  1  0  0  0  0
 13 15  1  0  0  0  0
 14 18  1  0  0  0  0
 15 16  2  0  0  0  0
 16 18  1  0  0  0  0
 17 14  2  0  0  0  0
 18 20  2  0  0  0  0
 19 15  1  0  0  0  0
 19 17  1  0  0  0  0
 21 22  1  0  0  0  0
 22 17  1  0  0  0  0
 22 23  2  0  0  0  0
 24 21  1  0  0  0  0
 25 26  1  0  0  0  0
 25 24  1  0  0  0  0
 27 28  1  6  0  0  0
 27 31  1  0  0  0  0
 27 26  1  0  0  0  0
 30 31  1  0  0  0  0
 31 29  1  0  0  0  0
 34 33  1  6  0  0  0
 34 32  1  0  0  0  0
 35 34  1  0  0  0  0
 35 37  1  0  0  0  0
 37 36  2  0  0  0  0
 40 44  1  6  0  0  0
 40 45  1  0  0  0  0
 40 42  1  0  0  0  0
 41 39  1  6  0  0  0
 41 43  1  0  0  0  0
 42 49  1  6  0  0  0
 42 47  1  0  0  0  0
 43 46  1  0  0  0  0
 43 37  1  6  0  0  0
 45 42  1  0  0  0  0
 45 41  1  0  0  0  0
 46 38  1  0  0  0  0
 47 52  1  0  0  0  0
 47 46  1  0  0  0  0
 49 48  1  0  0  0  0
 49 50  1  0  0  0  0
 52 51  1  0  0  0  0
 53 52  1  0  0  0  0
M  END
>  <MODEL>
6

>  <REMARK>
 VINA RESULT:      -5.9      2.709      5.019
  Name = 
  21 active torsions:
  status: ('A' for Active; 'I' for Inactive)
    1  A    between atoms: C_5  and  C_6
    2  A    between atoms: C_5  and  N_49
    3  A    between atoms: C_10  and  C_23
    4  A    between atoms: C_10  and  C_46
    5  A    between atoms: C_11  and  C_26
    6  A    between atoms: N_13  and  C_31
    7  A    between atoms: C_14  and  C_32
    8  A    between atoms: C_21  and  C_23
    9  A    between atoms: C_21  and  C_31
   10  A    between atoms: C_24  and  C_27
   11  A    between atoms: C_24  and  C_33
   12  A    between atoms: C_25  and  C_53
   13  A    between atoms: C_27  and  C_39
   14  A    between atoms: C_27  and  C_45
   15  A    between atoms: C_33  and  O_36
   16  A    between atoms: N_35  and  C_41
   17  A    between atoms: N_35  and  N_49
   18  A    between atoms: O_36  and  C_38
   19  A    between atoms: C_37  and  C_38
   20  A    between atoms: C_41  and  O_42
   21  A    between atoms: O_42  and  C_45
                            x       y       z     vdW  Elec       q    Type
                         _______ _______ _______ _____ _____    ______ ____

>  <TORSDO>
F 21

$$$$
=
 OpenBabel11062420313D

 53 57  0  0  1  0  0  0  0  0999 V2000
  187.4390  177.4080  143.6680 C   0  0  2  0  0  3  0  0  0  0  0  0
  185.1890  177.2460  144.3720 O   0  0  0  0  0  0  0  0  0  0  0  0
  186.0270  177.9610  143.5470 C   0  0  1  0  0  3  0  0  0  0  0  0
  184.9380  179.7770  144.2520 C   0  0  0  0  0  2  0  0  0  0  0  0
  184.1930  179.0440  145.2810 C   0  0  0  0  0  2  0  0  0  0  0  0
  185.5770  178.5200  144.8660 C   0  0  0  0  0  0  0  0  0  0  0  0
  189.0440  178.0220  142.0220 O   0  0  0  0  0  0  0  0  0  0  0  0
  188.0640  177.2850  142.3160 C   0  0  0  0  0  0  0  0  0  0  0  0
  187.5430  176.3870  141.3800 O   0  0  0  0  0  0  0  0  0  0  0  0
  188.3000  175.2900  140.8850 C   0  0  0  0  0  2  0  0  0  0  0  0
  187.8490  174.0550  141.5070 N   0  0  0  0  0  2  0  0  0  0  0  0
  188.5400  173.0020  140.8930 N   0  0  0  0  0  2  0  0  0  0  0  0
  188.2210  173.0630  139.4780 C   0  0  0  0  0  2  0  0  0  0  0  0
  191.7520  171.9780  137.1660 C   0  0  0  0  0  3  0  0  0  0  0  0
  189.4190  172.7110  138.6660 C   0  0  0  0  0  0  0  0  0  0  0  0
  189.2640  172.3830  137.3810 C   0  0  0  0  0  3  0  0  0  0  0  0
  191.9340  172.2920  138.4540 C   0  0  0  0  0  0  0  0  0  0  0  0
  190.4180  172.0070  136.5620 C   0  0  0  0  0  0  0  0  0  0  0  0
  190.7700  172.6880  139.3430 C   0  0  0  0  0  2  0  0  0  0  0  0
  190.2650  171.7070  135.3510 O   0  0  0  0  0  0  0  0  0  0  0  0
  193.5040  171.6180  140.3000 N   0  0  0  0  0  2  0  0  0  0  0  0
  193.2890  172.2450  139.0320 C   0  0  0  0  0  0  0  0  0  0  0  0
  194.2600  172.7590  138.4120 O   0  0  0  0  0  0  0  0  0  0  0  0
  194.8240  171.4830  140.8930 C   0  0  0  0  0  2  0  0  0  0  0  0
  194.9720  172.4590  142.0450 C   0  0  0  0  0  2  0  0  0  0  0  0
  196.3550  173.0900  142.0020 C   0  0  0  0  0  2  0  0  0  0  0  0
  196.6750  173.7070  140.6380 C   0  0  2  0  0  3  0  0  0  0  0  0
  197.9030  173.2480  140.1510 O   0  0  0  0  0  1  0  0  0  0  0  0
  197.7170  175.7560  139.9330 O   0  0  0  0  0  1  0  0  0  0  0  0
  195.4370  175.6920  140.0320 O   0  0  0  0  0  1  0  0  0  0  0  0
  196.6190  175.2370  140.6200 C   0  0  0  0  0  3  0  0  0  0  0  0
  187.4060  176.0640  144.3830 C   0  0  0  0  0  2  0  0  0  0  0  0
  187.4420  176.3300  146.8580 C   0  0  0  0  0  1  0  0  0  0  0  0
  188.2890  176.0900  145.6240 C   0  0  2  0  0  3  0  0  0  0  0  0
  189.2570  177.1260  145.5150 O   0  0  0  0  0  0  0  0  0  0  0  0
  190.1960  177.7580  147.5070 O   0  0  0  0  0  0  0  0  0  0  0  0
  190.3550  177.2340  146.3730 C   0  0  0  0  0  0  0  0  0  0  0  0
  192.5240  175.1810  147.6360 F   0  0  0  0  0  0  0  0  0  0  0  0
  191.6410  178.2260  144.0680 O   0  0  0  0  0  1  0  0  0  0  0  0
  192.5410  175.1630  142.8560 C   0  0  1  0  0  3  0  0  0  0  0  0
  192.0230  176.9480  144.4840 C   0  0  1  0  0  3  0  0  0  0  0  0
  191.7970  174.4600  143.9910 C   0  0  2  0  0  0  0  0  0  0  0  0
  191.7120  176.7190  145.9730 C   0  0  2  0  0  3  0  0  0  0  0  0
  192.0920  174.7330  141.6060 O   0  0  0  0  0  1  0  0  0  0  0  0
  191.4100  175.8840  143.5770 C   0  0  2  0  0  3  0  0  0  0  0  0
  191.8750  175.2580  146.4190 C   0  0  1  0  0  3  0  0  0  0  0  0
  192.5000  174.3260  145.3640 C   0  0  2  0  0  3  0  0  0  0  0  0
  189.8040  173.1360  144.7740 C   0  0  0  0  0  1  0  0  0  0  0  0
  190.7400  173.4170  143.6130 C   0  0  0  0  0  3  0  0  0  0  0  0
  191.3980  172.1270  143.1640 C   0  0  0  0  0  1  0  0  0  0  0  0
  194.6030  175.2450  146.1630 O   0  0  0  0  0  1  0  0  0  0  0  0
  194.0360  174.3120  145.2930 C   0  0  1  0  0  3  0  0  0  0  0  0
  194.5740  172.9290  145.6020 C   0  0  0  0  0  1  0  0  0  0  0  0
  1 32  1  6  0  0  0
  2  6  1  0  0  0  0
  3  1  1  1  0  0  0
  3  2  1  0  0  0  0
  3  6  1  0  0  0  0
  4  6  1  0  0  0  0
  4  5  1  0  0  0  0
  6  5  1  0  0  0  0
  7  8  2  0  0  0  0
  8  1  1  0  0  0  0
  9  8  1  0  0  0  0
 10  9  1  0  0  0  0
 10 11  1  0  0  0  0
 12 11  1  0  0  0  0
 13 12  1  0  0  0  0
 14 17  2  0  0  0  0
 15 19  1  0  0  0  0
 15 13  1  0  0  0  0
 16 15  2  0  0  0  0
 17 22  1  0  0  0  0
 17 19  1  0  0  0  0
 18 14  1  0  0  0  0
 18 16  1  0  0  0  0
 20 18  2  0  0  0  0
 21 24  1  0  0  0  0
 22 21  1  0  0  0  0
 23 22  2  0  0  0  0
 24 25  1  0  0  0  0
 26 25  1  0  0  0  0
 27 28  1  1  0  0  0
 27 26  1  0  0  0  0
 29 31  1  0  0  0  0
 30 31  1  0  0  0  0
 31 27  1  0  0  0  0
 32 34  1  0  0  0  0
 34 33  1  1  0  0  0
 35 34  1  0  0  0  0
 35 37  1  0  0  0  0
 37 36  2  0  0  0  0
 40 44  1  6  0  0  0
 40 45  1  0  0  0  0
 40 42  1  0  0  0  0
 41 39  1  6  0  0  0
 41 43  1  0  0  0  0
 42 49  1  6  0  0  0
 42 47  1  0  0  0  0
 43 37  1  6  0  0  0
 43 46  1  0  0  0  0
 45 42  1  0  0  0  0
 45 41  1  0  0  0  0
 46 38  1  0  0  0  0
 47 46  1  0  0  0  0
 49 48  1  0  0  0  0
 50 49  1  0  0  0  0
 52 47  1  0  0  0  0
 52 53  1  0  0  0  0
 52 51  1  0  0  0  0
M  END
>  <MODEL>
7

>  <REMARK>
 VINA RESULT:      -5.9      2.440      6.616
  Name = 
  21 active torsions:
  status: ('A' for Active; 'I' for Inactive)
    1  A    between atoms: C_5  and  C_6
    2  A    between atoms: C_5  and  N_49
    3  A    between atoms: C_10  and  C_23
    4  A    between atoms: C_10  and  C_46
    5  A    between atoms: C_11  and  C_26
    6  A    between atoms: N_13  and  C_31
    7  A    between atoms: C_14  and  C_32
    8  A    between atoms: C_21  and  C_23
    9  A    between atoms: C_21  and  C_31
   10  A    between atoms: C_24  and  C_27
   11  A    between atoms: C_24  and  C_33
   12  A    between atoms: C_25  and  C_53
   13  A    between atoms: C_27  and  C_39
   14  A    between atoms: C_27  and  C_45
   15  A    between atoms: C_33  and  O_36
   16  A    between atoms: N_35  and  C_41
   17  A    between atoms: N_35  and  N_49
   18  A    between atoms: O_36  and  C_38
   19  A    between atoms: C_37  and  C_38
   20  A    between atoms: C_41  and  O_42
   21  A    between atoms: O_42  and  C_45
                            x       y       z     vdW  Elec       q    Type
                         _______ _______ _______ _____ _____    ______ ____

>  <TORSDO>
F 21

$$$$
=
 OpenBabel11062420313D

 53 57  0  0  1  0  0  0  0  0999 V2000
  190.1150  173.8930  142.1120 C   0  0  2  0  0  3  0  0  0  0  0  0
  187.7930  174.1050  141.7280 O   0  0  0  0  0  0  0  0  0  0  0  0
  188.9930  174.7580  141.5580 C   0  0  1  0  0  3  0  0  0  0  0  0
  187.9140  176.6050  142.1930 C   0  0  0  0  0  2  0  0  0  0  0  0
  186.6990  175.8770  142.5730 C   0  0  0  0  0  2  0  0  0  0  0  0
  188.0490  175.1470  142.6590 C   0  0  0  0  0  0  0  0  0  0  0  0
  191.5590  173.6320  140.2400 O   0  0  0  0  0  0  0  0  0  0  0  0
  191.3860  174.1580  141.3720 C   0  0  0  0  0  0  0  0  0  0  0  0
  192.3820  174.9540  141.9470 O   0  0  0  0  0  0  0  0  0  0  0  0
  192.0730  176.0530  142.7940 C   0  0  0  0  0  2  0  0  0  0  0  0
  193.1590  176.2740  143.7360 N   0  0  0  0  0  2  0  0  0  0  0  0
  192.5810  176.5640  144.9790 N   0  0  0  0  0  2  0  0  0  0  0  0
  191.4620  177.4530  144.7210 C   0  0  0  0  0  2  0  0  0  0  0  0
  187.8920  176.1000  146.8230 C   0  0  0  0  0  3  0  0  0  0  0  0
  190.2570  176.9900  145.4650 C   0  0  0  0  0  0  0  0  0  0  0  0
  190.3690  175.9700  146.3200 C   0  0  0  0  0  3  0  0  0  0  0  0
  187.7520  177.1170  145.9650 C   0  0  0  0  0  0  0  0  0  0  0  0
  189.1980  175.4760  147.0470 C   0  0  0  0  0  0  0  0  0  0  0  0
  188.9330  177.6650  145.1870 C   0  0  0  0  0  2  0  0  0  0  0  0
  189.3130  174.5200  147.8560 O   0  0  0  0  0  0  0  0  0  0  0  0
  186.2040  178.6110  144.6620 N   0  0  0  0  0  2  0  0  0  0  0  0
  186.4210  177.7170  145.7580 C   0  0  0  0  0  0  0  0  0  0  0  0
  185.4740  177.4460  146.5470 O   0  0  0  0  0  0  0  0  0  0  0  0
  184.9010  179.1850  144.3660 C   0  0  0  0  0  2  0  0  0  0  0  0
  184.4310  178.7150  143.0020 C   0  0  0  0  0  2  0  0  0  0  0  0
  182.9290  178.9200  142.8840 C   0  0  0  0  0  2  0  0  0  0  0  0
  182.3380  178.2230  141.6550 C   0  0  2  0  0  3  0  0  0  0  0  0
  183.0480  178.5520  140.4970 O   0  0  0  0  0  1  0  0  0  0  0  0
  180.5110  179.7790  141.8160 O   0  0  0  0  0  1  0  0  0  0  0  0
  180.4500  178.2250  140.1450 O   0  0  0  0  0  1  0  0  0  0  0  0
  180.8380  178.4690  141.4640 C   0  0  0  0  0  3  0  0  0  0  0  0
  189.7230  172.4240  142.0250 C   0  0  0  0  0  2  0  0  0  0  0  0
  189.7060  172.7330  144.4960 C   0  0  0  0  0  1  0  0  0  0  0  0
  189.9040  171.7350  143.3710 C   0  0  2  0  0  3  0  0  0  0  0  0
  191.2110  171.1810  143.4670 O   0  0  0  0  0  0  0  0  0  0  0  0
  190.8300  169.4300  142.0390 O   0  0  0  0  0  0  0  0  0  0  0  0
  191.6700  170.1650  142.6230 C   0  0  0  0  0  0  0  0  0  0  0  0
  193.9020  171.3810  140.6100 F   0  0  0  0  0  0  0  0  0  0  0  0
  193.0710  168.1750  144.0470 O   0  0  0  0  0  1  0  0  0  0  0  0
  195.7240  170.1670  144.8590 C   0  0  1  0  0  3  0  0  0  0  0  0
  193.8370  169.2390  143.5630 C   0  0  1  0  0  3  0  0  0  0  0  0
  195.0510  171.3800  144.2170 C   0  0  2  0  0  0  0  0  0  0  0  0
  193.1410  169.9500  142.3880 C   0  0  2  0  0  3  0  0  0  0  0  0
  196.0490  170.4090  146.1950 O   0  0  0  0  0  1  0  0  0  0  0  0
  194.2110  170.1910  144.6960 C   0  0  2  0  0  3  0  0  0  0  0  0
  193.8110  171.2720  141.9840 C   0  0  1  0  0  3  0  0  0  0  0  0
  195.1540  171.5560  142.6830 C   0  0  2  0  0  3  0  0  0  0  0  0
  193.4260  173.1090  145.0540 C   0  0  0  0  0  1  0  0  0  0  0  0
  194.8660  172.6320  145.0810 C   0  0  0  0  0  3  0  0  0  0  0  0
  195.7820  173.7450  144.6110 C   0  0  0  0  0  1  0  0  0  0  0  0
  196.0640  169.8370  141.2270 O   0  0  0  0  0  1  0  0  0  0  0  0
  196.3990  170.9130  142.0510 C   0  0  1  0  0  3  0  0  0  0  0  0
  197.1890  171.9370  141.2610 C   0  0  0  0  0  1  0  0  0  0  0  0
  1 32  1  6  0  0  0
  2  6  1  0  0  0  0
  3  2  1  0  0  0  0
  3  1  1  1  0  0  0
  3  6  1  0  0  0  0
  4  5  1  0  0  0  0
  4  6  1  0  0  0  0
  5  6  1  0  0  0  0
  7  8  2  0  0  0  0
  8  9  1  0  0  0  0
  8  1  1  0  0  0  0
  9 10  1  0  0  0  0
 10 11  1  0  0  0  0
 11 12  1  0  0  0  0
 13 12  1  0  0  0  0
 13 15  1  0  0  0  0
 14 18  1  0  0  0  0
 15 16  2  0  0  0  0
 16 18  1  0  0  0  0
 17 14  2  0  0  0  0
 18 20  2  0  0  0  0
 19 15  1  0  0  0  0
 19 17  1  0  0  0  0
 21 22  1  0  0  0  0
 22 17  1  0  0  0  0
 22 23  2  0  0  0  0
 24 21  1  0  0  0  0
 25 24  1  0  0  0  0
 26 25  1  0  0  0  0
 27 28  1  6  0  0  0
 27 26  1  0  0  0  0
 30 31  1  0  0  0  0
 31 27  1  0  0  0  0
 31 29  1  0  0  0  0
 32 34  1  0  0  0  0
 34 35  1  0  0  0  0
 34 33  1  1  0  0  0
 36 37  2  0  0  0  0
 37 35  1  0  0  0  0
 38 46  1  0  0  0  0
 40 44  1  1  0  0  0
 41 39  1  1  0  0  0
 41 45  1  0  0  0  0
 42 45  1  0  0  0  0
 42 40  1  0  0  0  0
 42 49  1  1  0  0  0
 43 37  1  1  0  0  0
 43 41  1  0  0  0  0
 45 40  1  0  0  0  0
 46 43  1  0  0  0  0
 46 47  1  0  0  0  0
 47 42  1  0  0  0  0
 48 49  1  0  0  0  0
 50 49  1  0  0  0  0
 51 52  1  0  0  0  0
 52 47  1  0  0  0  0
 53 52  1  0  0  0  0
M  END
>  <MODEL>
8

>  <REMARK>
 VINA RESULT:      -5.9      2.750      5.624
  Name = 
  21 active torsions:
  status: ('A' for Active; 'I' for Inactive)
    1  A    between atoms: C_5  and  C_6
    2  A    between atoms: C_5  and  N_49
    3  A    between atoms: C_10  and  C_23
    4  A    between atoms: C_10  and  C_46
    5  A    between atoms: C_11  and  C_26
    6  A    between atoms: N_13  and  C_31
    7  A    between atoms: C_14  and  C_32
    8  A    between atoms: C_21  and  C_23
    9  A    between atoms: C_21  and  C_31
   10  A    between atoms: C_24  and  C_27
   11  A    between atoms: C_24  and  C_33
   12  A    between atoms: C_25  and  C_53
   13  A    between atoms: C_27  and  C_39
   14  A    between atoms: C_27  and  C_45
   15  A    between atoms: C_33  and  O_36
   16  A    between atoms: N_35  and  C_41
   17  A    between atoms: N_35  and  N_49
   18  A    between atoms: O_36  and  C_38
   19  A    between atoms: C_37  and  C_38
   20  A    between atoms: C_41  and  O_42
   21  A    between atoms: O_42  and  C_45
                            x       y       z     vdW  Elec       q    Type
                         _______ _______ _______ _____ _____    ______ ____

>  <TORSDO>
F 21

$$$$
=
 OpenBabel11062420313D

 53 57  0  0  1  0  0  0  0  0999 V2000
  193.3340  174.2750  143.0890 C   0  0  2  0  0  3  0  0  0  0  0  0
  193.1710  176.3650  144.1790 O   0  0  0  0  0  0  0  0  0  0  0  0
  193.8590  175.1730  144.1980 C   0  0  1  0  0  3  0  0  0  0  0  0
  193.6770  175.2690  146.4200 C   0  0  0  0  0  2  0  0  0  0  0  0
  192.7690  176.4200  146.3890 C   0  0  0  0  0  2  0  0  0  0  0  0
  192.7700  175.4550  145.1930 C   0  0  0  0  0  0  0  0  0  0  0  0
  195.5450  173.4040  142.9800 O   0  0  0  0  0  0  0  0  0  0  0  0
  194.3180  173.1880  142.7930 C   0  0  0  0  0  0  0  0  0  0  0  0
  193.8790  171.9620  142.2840 O   0  0  0  0  0  0  0  0  0  0  0  0
  192.5000  171.6260  142.2120 C   0  0  0  0  0  2  0  0  0  0  0  0
  192.1460  170.7390  143.3090 N   0  0  0  0  0  2  0  0  0  0  0  0
  191.5090  171.5140  144.2860 N   0  0  0  0  0  2  0  0  0  0  0  0
  190.2980  172.0370  143.6780 C   0  0  0  0  0  2  0  0  0  0  0  0
  189.0250  175.7320  145.6070 C   0  0  0  0  0  3  0  0  0  0  0  0
  189.8860  173.2970  144.3570 C   0  0  0  0  0  0  0  0  0  0  0  0
  189.7680  173.3140  145.6870 C   0  0  0  0  0  3  0  0  0  0  0  0
  189.1260  175.7380  144.2720 C   0  0  0  0  0  0  0  0  0  0  0  0
  189.3400  174.5300  146.3820 C   0  0  0  0  0  0  0  0  0  0  0  0
  189.5650  174.5050  143.5060 C   0  0  0  0  0  2  0  0  0  0  0  0
  189.2390  174.5400  147.6350 O   0  0  0  0  0  0  0  0  0  0  0  0
  187.6220  177.0040  142.7040 N   0  0  0  0  0  2  0  0  0  0  0  0
  188.7950  176.9630  143.5230 C   0  0  0  0  0  0  0  0  0  0  0  0
  189.5440  177.9750  143.6000 O   0  0  0  0  0  0  0  0  0  0  0  0
  187.2060  178.2020  141.9910 C   0  0  0  0  0  2  0  0  0  0  0  0
  186.3100  179.0430  142.8800 C   0  0  0  0  0  2  0  0  0  0  0  0
  185.3880  178.1350  143.6770 C   0  0  0  0  0  2  0  0  0  0  0  0
  185.7770  178.0540  145.1560 C   0  0  2  0  0  3  0  0  0  0  0  0
  185.6600  176.7480  145.6380 O   0  0  0  0  0  1  0  0  0  0  0  0
  183.6710  178.6870  146.1270 O   0  0  0  0  0  1  0  0  0  0  0  0
  185.5680  179.0780  147.3350 O   0  0  0  0  0  1  0  0  0  0  0  0
  185.0200  179.0380  146.0520 C   0  0  0  0  0  3  0  0  0  0  0  0
  193.0440  175.1070  141.8470 C   0  0  0  0  0  2  0  0  0  0  0  0
  195.0340  176.1980  140.8240 C   0  0  0  0  0  1  0  0  0  0  0  0
  194.1610  174.9580  140.8230 C   0  0  2  0  0  3  0  0  0  0  0  0
  193.6140  174.7760  139.5220 O   0  0  0  0  0  0  0  0  0  0  0  0
  195.4660  174.1570  138.3250 O   0  0  0  0  0  0  0  0  0  0  0  0
  194.2350  174.0020  138.5380 C   0  0  0  0  0  0  0  0  0  0  0  0
  193.3080  170.9280  138.9950 F   0  0  0  0  0  0  0  0  0  0  0  0
  193.3700  174.5740  135.9150 O   0  0  0  0  0  1  0  0  0  0  0  0
  190.1890  173.4170  136.3640 C   0  0  1  0  0  3  0  0  0  0  0  0
  192.6410  173.6030  136.6050 C   0  0  1  0  0  3  0  0  0  0  0  0
  190.4630  173.1440  137.8420 C   0  0  2  0  0  0  0  0  0  0  0  0
  193.4630  172.9800  137.7470 C   0  0  2  0  0  3  0  0  0  0  0  0
  189.0930  174.2660  136.1940 O   0  0  0  0  0  1  0  0  0  0  0  0
  191.3040  174.1700  137.0760 C   0  0  2  0  0  3  0  0  0  0  0  0
  192.6350  172.0960  138.6910 C   0  0  1  0  0  3  0  0  0  0  0  0
  191.1890  171.8330  138.2290 C   0  0  2  0  0  3  0  0  0  0  0  0
  190.1470  173.7840  140.2560 C   0  0  0  0  0  1  0  0  0  0  0  0
  189.5250  173.7840  138.8720 C   0  0  0  0  0  3  0  0  0  0  0  0
  188.1950  173.0570  138.9090 C   0  0  0  0  0  1  0  0  0  0  0  0
  192.0660  169.7850  137.2570 O   0  0  0  0  0  1  0  0  0  0  0  0
  190.9940  170.6790  137.2310 C   0  0  1  0  0  3  0  0  0  0  0  0
  189.7020  169.9390  137.5140 C   0  0  0  0  0  1  0  0  0  0  0  0
  1 32  1  6  0  0  0
  2  3  1  0  0  0  0
  2  6  1  0  0  0  0
  3  1  1  6  0  0  0
  3  6  1  0  0  0  0
  5  4  1  0  0  0  0
  6  5  1  0  0  0  0
  6  4  1  0  0  0  0
  8  7  2  0  0  0  0
  8  1  1  0  0  0  0
  9  8  1  0  0  0  0
 10  9  1  0  0  0  0
 10 11  1  0  0  0  0
 11 12  1  0  0  0  0
 13 12  1  0  0  0  0
 13 15  1  0  0  0  0
 14 18  1  0  0  0  0
 15 16  2  0  0  0  0
 16 18  1  0  0  0  0
 17 14  2  0  0  0  0
 18 20  2  0  0  0  0
 19 17  1  0  0  0  0
 19 15  1  0  0  0  0
 21 22  1  0  0  0  0
 22 23  2  0  0  0  0
 22 17  1  0  0  0  0
 24 21  1  0  0  0  0
 24 25  1  0  0  0  0
 25 26  1  0  0  0  0
 26 27  1  0  0  0  0
 27 28  1  1  0  0  0
 27 31  1  0  0  0  0
 31 29  1  0  0  0  0
 31 30  1  0  0  0  0
 34 33  1  6  0  0  0
 34 32  1  0  0  0  0
 35 34  1  0  0  0  0
 36 37  2  0  0  0  0
 37 35  1  0  0  0  0
 40 44  1  1  0  0  0
 40 45  1  0  0  0  0
 40 42  1  0  0  0  0
 41 39  1  1  0  0  0
 41 45  1  0  0  0  0
 41 43  1  0  0  0  0
 42 47  1  0  0  0  0
 42 49  1  1  0  0  0
 43 37  1  1  0  0  0
 43 46  1  0  0  0  0
 45 42  1  0  0  0  0
 46 38  1  0  0  0  0
 47 46  1  0  0  0  0
 49 50  1  0  0  0  0
 49 48  1  0  0  0  0
 52 51  1  0  0  0  0
 52 53  1  0  0  0  0
 52 47  1  0  0  0  0
M  END
>  <MODEL>
9

>  <REMARK>
 VINA RESULT:      -5.8      2.684      6.621
  Name = 
  21 active torsions:
  status: ('A' for Active; 'I' for Inactive)
    1  A    between atoms: C_5  and  C_6
    2  A    between atoms: C_5  and  N_49
    3  A    between atoms: C_10  and  C_23
    4  A    between atoms: C_10  and  C_46
    5  A    between atoms: C_11  and  C_26
    6  A    between atoms: N_13  and  C_31
    7  A    between atoms: C_14  and  C_32
    8  A    between atoms: C_21  and  C_23
    9  A    between atoms: C_21  and  C_31
   10  A    between atoms: C_24  and  C_27
   11  A    between atoms: C_24  and  C_33
   12  A    between atoms: C_25  and  C_53
   13  A    between atoms: C_27  and  C_39
   14  A    between atoms: C_27  and  C_45
   15  A    between atoms: C_33  and  O_36
   16  A    between atoms: N_35  and  C_41
   17  A    between atoms: N_35  and  N_49
   18  A    between atoms: O_36  and  C_38
   19  A    between atoms: C_37  and  C_38
   20  A    between atoms: C_41  and  O_42
   21  A    between atoms: O_42  and  C_45
                            x       y       z     vdW  Elec       q    Type
                         _______ _______ _______ _____ _____    ______ ____

>  <TORSDO>
F 21

$$$$
