=
 OpenBabel11062420573D

 31 34  0  0  1  0  0  0  0  0999 V2000
  191.5790  173.1090  143.1390 C   0  0  2  0  0  3  0  0  0  0  0  0
  189.7360  175.5630  142.3570 O   0  0  0  0  0  0  0  0  0  0  0  0
  189.9070  175.0800  143.6620 C   0  0  1  0  0  3  0  0  0  0  0  0
  190.4350  172.5840  142.2820 C   0  0  0  0  0  2  0  0  0  0  0  0
  188.8070  174.0940  139.5580 N   0  0  0  0  0  1  0  0  0  0  0  0
  190.3740  173.3350  141.1040 O   0  0  0  0  0  0  0  0  0  0  0  0
  188.6240  174.8660  141.8630 C   0  0  0  0  0  2  0  0  0  0  0  0
  189.0310  173.7090  140.9400 C   0  0  1  0  0  3  0  0  0  0  0  0
  191.1840  173.1860  144.4920 O   0  0  0  0  0  0  0  0  0  0  0  0
  191.2830  174.4150  143.8050 C   0  0  1  0  0  0  0  0  0  0  0  0
  192.4890  175.2720  144.2370 C   0  0  1  0  0  3  0  0  0  0  0  0
  192.4390  176.7240  143.7580 C   0  0  0  0  0  1  0  0  0  0  0  0
  192.8640  175.0990  145.7180 C   0  0  1  0  0  3  0  0  0  0  0  0
  194.3650  173.1060  145.6120 O   0  0  0  0  0  0  0  0  0  0  0  0
  194.2150  174.4680  145.8550 C   0  0  0  0  0  0  0  0  0  0  0  0
  195.2200  175.1620  146.1680 O   0  0  0  0  0  1  0  0  0  0  0  0
  192.7590  176.4070  146.5120 C   0  0  0  0  0  2  0  0  0  0  0  0
  191.7130  176.3090  147.5800 C   0  0  0  0  0  3  0  0  0  0  0  0
  191.2200  175.2300  147.8710 O   0  0  0  0  0  0  0  0  0  0  0  0
  189.7600  176.1690  144.6220 N   0  0  0  0  0  2  0  0  0  0  0  0
  185.5780  178.6730  144.2290 C   0  0  0  0  0  0  0  0  0  0  0  0
  183.9950  178.6640  146.0710 C   0  0  0  0  0  3  0  0  0  0  0  0
  187.6670  177.4040  144.4400 C   0  0  0  0  0  3  0  0  0  0  0  0
  186.0530  177.4080  146.2610 C   0  0  0  0  0  0  0  0  0  0  0  0
  184.3640  179.0840  144.7900 C   0  0  0  0  0  3  0  0  0  0  0  0
  186.8980  176.5770  147.0030 C   0  0  0  0  0  3  0  0  0  0  0  0
  184.8370  177.8270  146.8050 C   0  0  0  0  0  3  0  0  0  0  0  0
  188.1200  176.1620  146.4680 C   0  0  0  0  0  3  0  0  0  0  0  0
  185.9270  179.1470  142.8580 C   0  0  0  0  0  1  0  0  0  0  0  0
  188.5080  176.5710  145.1840 C   0  0  0  0  0  0  0  0  0  0  0  0
  186.4360  177.8300  144.9640 C   0  0  0  0  0  0  0  0  0  0  0  0
  1  4  1  6  0  0  0
  1 10  1  0  0  0  0
  1  9  1  0  0  0  0
  2  3  1  0  0  0  0
  3 10  1  0  0  0  0
  3 20  1  1  0  0  0
  6  4  1  0  0  0  0
  7  2  1  0  0  0  0
  8  5  1  6  0  0  0
  8  6  1  0  0  0  0
  8  7  1  0  0  0  0
 10 11  1  1  0  0  0
 10  9  1  0  0  0  0
 11 12  1  1  0  0  0
 11 13  1  0  0  0  0
 13 15  1  0  0  0  0
 13 17  1  6  0  0  0
 14 15  2  0  0  0  0
 15 16  1  0  0  0  0
 17 18  1  0  0  0  0
 18 19  2  0  0  0  0
 20 30  1  0  0  0  0
 21 25  2  0  0  0  0
 21 31  1  0  0  0  0
 22 27  2  0  0  0  0
 23 31  2  0  0  0  0
 23 30  1  0  0  0  0
 24 27  1  0  0  0  0
 24 26  2  0  0  0  0
 25 22  1  0  0  0  0
 28 26  1  0  0  0  0
 29 21  1  0  0  0  0
 30 28  2  0  0  0  0
 31 24  1  0  0  0  0
M  END
>  <MODEL>
1

>  <REMARK>
 VINA RESULT:      -7.6      0.000      0.000
  Name = 
  7 active torsions:
  status: ('A' for Active; 'I' for Inactive)
    1  A    between atoms: C_3  and  C_20
    2  A    between atoms: C_3  and  C_26
    3  A    between atoms: C_8  and  N_11
    4  A    between atoms: N_11  and  C_25
    5  A    between atoms: C_18  and  C_26
    6  A    between atoms: C_26  and  C_29
    7  A    between atoms: C_28  and  C_29
                            x       y       z     vdW  Elec       q    Type
                         _______ _______ _______ _____ _____    ______ ____

>  <TORSDO>
F 7

$$$$
=
 OpenBabel11062420573D

 31 34  0  0  1  0  0  0  0  0999 V2000
  190.4300  173.2080  144.8670 C   0  0  2  0  0  3  0  0  0  0  0  0
  190.2530  174.7760  142.1200 O   0  0  0  0  0  0  0  0  0  0  0  0
  189.5960  175.1570  143.2980 C   0  0  1  0  0  3  0  0  0  0  0  0
  189.7190  172.3140  143.8600 C   0  0  0  0  0  2  0  0  0  0  0  0
  190.2660  171.9620  140.4060 N   0  0  0  0  0  1  0  0  0  0  0  0
  190.5060  172.2190  142.7070 O   0  0  0  0  0  0  0  0  0  0  0  0
  189.3330  173.9580  141.4490 C   0  0  0  0  0  2  0  0  0  0  0  0
  189.6520  172.4660  141.6210 C   0  0  1  0  0  3  0  0  0  0  0  0
  189.5100  174.0860  145.4790 O   0  0  0  0  0  0  0  0  0  0  0  0
  190.3760  174.6630  144.5240 C   0  0  1  0  0  0  0  0  0  0  0  0
  191.4610  175.5690  145.1390 C   0  0  1  0  0  3  0  0  0  0  0  0
  191.1260  176.1000  146.5340 C   0  0  0  0  0  1  0  0  0  0  0  0
  192.8840  175.0050  144.9940 C   0  0  1  0  0  3  0  0  0  0  0  0
  192.9790  176.5230  143.0130 O   0  0  0  0  0  0  0  0  0  0  0  0
  193.4890  175.4190  143.6880 C   0  0  0  0  0  0  0  0  0  0  0  0
  194.4690  174.7890  143.2050 O   0  0  0  0  0  1  0  0  0  0  0  0
  193.7860  175.3620  146.1810 C   0  0  0  0  0  2  0  0  0  0  0  0
  194.5610  176.6160  145.9140 C   0  0  0  0  0  3  0  0  0  0  0  0
  194.5400  177.5420  146.7100 O   0  0  0  0  0  0  0  0  0  0  0  0
  189.4410  176.6070  143.3380 N   0  0  0  0  0  2  0  0  0  0  0  0
  185.6970  177.5390  146.3420 C   0  0  0  0  0  0  0  0  0  0  0  0
  183.8810  178.9670  145.5910 C   0  0  0  0  0  3  0  0  0  0  0  0
  187.5720  177.0890  144.8250 C   0  0  0  0  0  3  0  0  0  0  0  0
  185.7410  178.5240  144.1090 C   0  0  0  0  0  0  0  0  0  0  0  0
  184.4690  178.1680  146.5760 C   0  0  0  0  0  3  0  0  0  0  0  0
  186.3690  178.6990  142.8730 C   0  0  0  0  0  3  0  0  0  0  0  0
  184.5160  179.1450  144.3610 C   0  0  0  0  0  3  0  0  0  0  0  0
  187.5900  178.0720  142.6130 C   0  0  0  0  0  3  0  0  0  0  0  0
  186.2850  176.6980  147.4250 C   0  0  0  0  0  1  0  0  0  0  0  0
  188.1980  177.2680  143.5880 C   0  0  0  0  0  0  0  0  0  0  0  0
  186.3440  177.7120  145.1020 C   0  0  0  0  0  0  0  0  0  0  0  0
  1  4  1  6  0  0  0
  1  9  1  0  0  0  0
  2  3  1  0  0  0  0
  3 20  1  1  0  0  0
  3 10  1  0  0  0  0
  6  4  1  0  0  0  0
  7  8  1  0  0  0  0
  7  2  1  0  0  0  0
  8  5  1  6  0  0  0
  8  6  1  0  0  0  0
 10  1  1  0  0  0  0
 10 11  1  1  0  0  0
 10  9  1  0  0  0  0
 11 12  1  1  0  0  0
 13 11  1  0  0  0  0
 13 17  1  1  0  0  0
 14 15  2  0  0  0  0
 15 13  1  0  0  0  0
 16 15  1  0  0  0  0
 18 17  1  0  0  0  0
 18 19  2  0  0  0  0
 20 30  1  0  0  0  0
 21 25  1  0  0  0  0
 21 29  1  0  0  0  0
 22 25  2  0  0  0  0
 23 31  1  0  0  0  0
 24 27  2  0  0  0  0
 24 31  1  0  0  0  0
 26 24  1  0  0  0  0
 27 22  1  0  0  0  0
 28 26  2  0  0  0  0
 28 30  1  0  0  0  0
 30 23  2  0  0  0  0
 31 21  2  0  0  0  0
M  END
>  <MODEL>
2

>  <REMARK>
 VINA RESULT:      -7.5      1.525      2.577
  Name = 
  7 active torsions:
  status: ('A' for Active; 'I' for Inactive)
    1  A    between atoms: C_3  and  C_20
    2  A    between atoms: C_3  and  C_26
    3  A    between atoms: C_8  and  N_11
    4  A    between atoms: N_11  and  C_25
    5  A    between atoms: C_18  and  C_26
    6  A    between atoms: C_26  and  C_29
    7  A    between atoms: C_28  and  C_29
                            x       y       z     vdW  Elec       q    Type
                         _______ _______ _______ _____ _____    ______ ____

>  <TORSDO>
F 7

$$$$
=
 OpenBabel11062420573D

 31 34  0  0  1  0  0  0  0  0999 V2000
  191.0070  172.5960  144.3300 C   0  0  2  0  0  3  0  0  0  0  0  0
  190.2730  174.7890  142.1660 O   0  0  0  0  0  0  0  0  0  0  0  0
  189.7970  174.7810  143.4840 C   0  0  1  0  0  3  0  0  0  0  0  0
  190.1990  171.9200  143.2310 C   0  0  0  0  0  2  0  0  0  0  0  0
  190.1860  172.5290  139.7700 N   0  0  0  0  0  1  0  0  0  0  0  0
  190.7880  172.2110  141.9960 O   0  0  0  0  0  0  0  0  0  0  0  0
  189.3090  174.0780  141.4370 C   0  0  0  0  0  2  0  0  0  0  0  0
  189.7510  172.6350  141.1510 C   0  0  1  0  0  3  0  0  0  0  0  0
  190.1460  173.1830  145.2820 O   0  0  0  0  0  0  0  0  0  0  0  0
  190.8010  174.0760  144.4060 C   0  0  1  0  0  0  0  0  0  0  0  0
  191.9110  174.9050  145.0820 C   0  0  1  0  0  3  0  0  0  0  0  0
  191.8650  174.8970  146.6110 C   0  0  0  0  0  1  0  0  0  0  0  0
  193.3060  174.6650  144.4830 C   0  0  1  0  0  3  0  0  0  0  0  0
  195.0880  176.3420  143.9850 O   0  0  0  0  0  1  0  0  0  0  0  0
  193.7930  175.8850  143.7630 C   0  0  0  0  0  0  0  0  0  0  0  0
  193.0500  176.4870  142.9420 O   0  0  0  0  0  0  0  0  0  0  0  0
  194.3190  174.1700  145.5210 C   0  0  0  0  0  2  0  0  0  0  0  0
  194.7180  172.7500  145.2540 C   0  0  0  0  0  3  0  0  0  0  0  0
  194.1880  171.8310  145.8590 O   0  0  0  0  0  0  0  0  0  0  0  0
  189.5550  176.1470  143.9370 N   0  0  0  0  0  2  0  0  0  0  0  0
  185.2540  178.4600  144.1860 C   0  0  0  0  0  0  0  0  0  0  0  0
  184.0450  178.5250  146.2920 C   0  0  0  0  0  3  0  0  0  0  0  0
  187.4060  177.2880  144.0770 C   0  0  0  0  0  3  0  0  0  0  0  0
  186.1630  177.3630  146.1680 C   0  0  0  0  0  0  0  0  0  0  0  0
  184.1470  178.8660  144.9400 C   0  0  0  0  0  3  0  0  0  0  0  0
  187.1710  176.6200  146.7870 C   0  0  0  0  0  3  0  0  0  0  0  0
  185.0500  177.7750  146.9040 C   0  0  0  0  0  3  0  0  0  0  0  0
  188.2910  176.2130  146.0580 C   0  0  0  0  0  3  0  0  0  0  0  0
  185.3160  178.8470  142.7460 C   0  0  0  0  0  1  0  0  0  0  0  0
  188.4120  176.5420  144.7000 C   0  0  0  0  0  0  0  0  0  0  0  0
  186.2750  177.7050  144.7970 C   0  0  0  0  0  0  0  0  0  0  0  0
  1  4  1  6  0  0  0
  1 10  1  0  0  0  0
  1  9  1  0  0  0  0
  2  3  1  0  0  0  0
  3 20  1  1  0  0  0
  3 10  1  0  0  0  0
  6  4  1  0  0  0  0
  7  2  1  0  0  0  0
  8  5  1  6  0  0  0
  8  7  1  0  0  0  0
  8  6  1  0  0  0  0
 10 11  1  1  0  0  0
 10  9  1  0  0  0  0
 11 12  1  1  0  0  0
 13 11  1  0  0  0  0
 13 17  1  1  0  0  0
 15 14  1  0  0  0  0
 15 13  1  0  0  0  0
 16 15  2  0  0  0  0
 18 17  1  0  0  0  0
 18 19  2  0  0  0  0
 20 30  1  0  0  0  0
 21 31  2  0  0  0  0
 21 25  1  0  0  0  0
 22 27  1  0  0  0  0
 23 30  2  0  0  0  0
 23 31  1  0  0  0  0
 24 26  1  0  0  0  0
 24 27  2  0  0  0  0
 25 22  2  0  0  0  0
 28 26  2  0  0  0  0
 29 21  1  0  0  0  0
 30 28  1  0  0  0  0
 31 24  1  0  0  0  0
M  END
>  <MODEL>
3

>  <REMARK>
 VINA RESULT:      -7.4      1.253      2.053
  Name = 
  7 active torsions:
  status: ('A' for Active; 'I' for Inactive)
    1  A    between atoms: C_3  and  C_20
    2  A    between atoms: C_3  and  C_26
    3  A    between atoms: C_8  and  N_11
    4  A    between atoms: N_11  and  C_25
    5  A    between atoms: C_18  and  C_26
    6  A    between atoms: C_26  and  C_29
    7  A    between atoms: C_28  and  C_29
                            x       y       z     vdW  Elec       q    Type
                         _______ _______ _______ _____ _____    ______ ____

>  <TORSDO>
F 7

$$$$
=
 OpenBabel11062420573D

 31 34  0  0  1  0  0  0  0  0999 V2000
  190.6940  172.6150  143.4670 C   0  0  2  0  0  3  0  0  0  0  0  0
  189.5130  174.9000  141.6180 O   0  0  0  0  0  0  0  0  0  0  0  0
  189.4180  174.8790  143.0170 C   0  0  1  0  0  3  0  0  0  0  0  0
  189.5790  172.0090  142.6250 C   0  0  0  0  0  2  0  0  0  0  0  0
  188.6470  172.7140  139.3100 N   0  0  0  0  0  1  0  0  0  0  0  0
  189.8210  172.3050  141.2790 O   0  0  0  0  0  0  0  0  0  0  0  0
  188.3490  174.2570  141.1740 C   0  0  0  0  0  2  0  0  0  0  0  0
  188.6160  172.8020  140.7580 C   0  0  1  0  0  3  0  0  0  0  0  0
  190.1610  173.2160  144.6270 O   0  0  0  0  0  0  0  0  0  0  0  0
  190.5970  174.1000  143.6160 C   0  0  1  0  0  0  0  0  0  0  0  0
  191.8930  174.8550  143.9700 C   0  0  1  0  0  3  0  0  0  0  0  0
  192.1540  176.1000  143.1190 C   0  0  0  0  0  1  0  0  0  0  0  0
  192.0900  175.0600  145.4810 C   0  0  1  0  0  3  0  0  0  0  0  0
  193.8060  173.2650  145.7390 O   0  0  0  0  0  0  0  0  0  0  0  0
  193.4490  174.5990  145.9090 C   0  0  0  0  0  0  0  0  0  0  0  0
  194.2790  175.4110  146.4000 O   0  0  0  0  0  1  0  0  0  0  0  0
  191.8080  176.5010  145.9250 C   0  0  0  0  0  2  0  0  0  0  0  0
  190.8110  176.5370  147.0420 C   0  0  0  0  0  3  0  0  0  0  0  0
  189.9530  175.6740  147.1390 O   0  0  0  0  0  0  0  0  0  0  0  0
  189.3860  176.2420  143.5370 N   0  0  0  0  0  2  0  0  0  0  0  0
  185.6590  177.5210  146.4330 C   0  0  0  0  0  0  0  0  0  0  0  0
  183.9480  179.0290  145.5940 C   0  0  0  0  0  3  0  0  0  0  0  0
  187.5260  176.8970  144.9690 C   0  0  0  0  0  3  0  0  0  0  0  0
  185.8010  178.4130  144.1650 C   0  0  0  0  0  0  0  0  0  0  0  0
  184.4690  178.2340  146.6190 C   0  0  0  0  0  3  0  0  0  0  0  0
  186.4590  178.5000  142.9350 C   0  0  0  0  0  3  0  0  0  0  0  0
  184.6130  179.1190  144.3700 C   0  0  0  0  0  3  0  0  0  0  0  0
  187.6420  177.7890  142.7220 C   0  0  0  0  0  3  0  0  0  0  0  0
  186.1750  176.6880  147.5580 C   0  0  0  0  0  1  0  0  0  0  0  0
  188.1820  176.9880  143.7380 C   0  0  0  0  0  0  0  0  0  0  0  0
  186.3350  177.6050  145.1990 C   0  0  0  0  0  0  0  0  0  0  0  0
  1  4  1  6  0  0  0
  1 10  1  0  0  0  0
  1  9  1  0  0  0  0
  2  3  1  0  0  0  0
  3 20  1  1  0  0  0
  3 10  1  0  0  0  0
  6  4  1  0  0  0  0
  7  2  1  0  0  0  0
  8  5  1  6  0  0  0
  8  7  1  0  0  0  0
  8  6  1  0  0  0  0
 10 11  1  1  0  0  0
 10  9  1  0  0  0  0
 11 12  1  6  0  0  0
 11 13  1  0  0  0  0
 13 15  1  0  0  0  0
 13 17  1  6  0  0  0
 14 15  2  0  0  0  0
 15 16  1  0  0  0  0
 17 18  1  0  0  0  0
 18 19  2  0  0  0  0
 20 30  1  0  0  0  0
 21 25  1  0  0  0  0
 21 29  1  0  0  0  0
 22 25  2  0  0  0  0
 23 31  1  0  0  0  0
 24 27  2  0  0  0  0
 24 31  1  0  0  0  0
 26 24  1  0  0  0  0
 27 22  1  0  0  0  0
 28 26  2  0  0  0  0
 28 30  1  0  0  0  0
 30 23  2  0  0  0  0
 31 21  2  0  0  0  0
M  END
>  <MODEL>
4

>  <REMARK>
 VINA RESULT:      -7.3      0.962      1.914
  Name = 
  7 active torsions:
  status: ('A' for Active; 'I' for Inactive)
    1  A    between atoms: C_3  and  C_20
    2  A    between atoms: C_3  and  C_26
    3  A    between atoms: C_8  and  N_11
    4  A    between atoms: N_11  and  C_25
    5  A    between atoms: C_18  and  C_26
    6  A    between atoms: C_26  and  C_29
    7  A    between atoms: C_28  and  C_29
                            x       y       z     vdW  Elec       q    Type
                         _______ _______ _______ _____ _____    ______ ____

>  <TORSDO>
F 7

$$$$
=
 OpenBabel11062420573D

 31 34  0  0  1  0  0  0  0  0999 V2000
  191.4190  176.2730  142.9860 C   0  0  2  0  0  3  0  0  0  0  0  0
  191.2910  175.1690  145.9520 O   0  0  0  0  0  0  0  0  0  0  0  0
  190.2340  175.8150  145.2970 C   0  0  1  0  0  3  0  0  0  0  0  0
  192.3920  177.0830  143.8310 C   0  0  0  0  0  2  0  0  0  0  0  0
  194.4150  176.0530  146.5140 N   0  0  0  0  0  1  0  0  0  0  0  0
  193.2410  176.2010  144.5100 O   0  0  0  0  0  0  0  0  0  0  0  0
  191.9830  176.1970  146.6080 C   0  0  0  0  0  2  0  0  0  0  0  0
  193.2520  176.6140  145.8510 C   0  0  1  0  0  3  0  0  0  0  0  0
  190.1180  176.8120  143.0830 O   0  0  0  0  0  0  0  0  0  0  0  0
  190.3420  175.6050  143.7800 C   0  0  1  0  0  0  0  0  0  0  0  0
  189.6540  174.3830  143.1410 C   0  0  1  0  0  3  0  0  0  0  0  0
  188.6310  174.7280  142.0560 C   0  0  0  0  0  1  0  0  0  0  0  0
  190.6320  173.2570  142.7630 C   0  0  1  0  0  3  0  0  0  0  0  0
  189.7220  172.2290  144.8500 O   0  0  0  0  0  1  0  0  0  0  0  0
  190.6670  172.2040  143.8280 C   0  0  0  0  0  0  0  0  0  0  0  0
  191.5300  171.2850  143.7960 O   0  0  0  0  0  0  0  0  0  0  0  0
  190.3450  172.6630  141.3790 C   0  0  0  0  0  2  0  0  0  0  0  0
  191.5160  172.8390  140.4620 C   0  0  0  0  0  3  0  0  0  0  0  0
  192.1260  173.8970  140.4270 O   0  0  0  0  0  0  0  0  0  0  0  0
  188.9570  175.3160  145.7950 N   0  0  0  0  0  2  0  0  0  0  0  0
  185.2150  177.8390  143.9140 C   0  0  0  0  0  0  0  0  0  0  0  0
  183.7100  179.0410  145.3950 C   0  0  0  0  0  3  0  0  0  0  0  0
  187.0820  176.5720  144.8750 C   0  0  0  0  0  3  0  0  0  0  0  0
  185.5490  177.7770  146.3300 C   0  0  0  0  0  0  0  0  0  0  0  0
  184.1000  178.6630  144.1070 C   0  0  0  0  0  3  0  0  0  0  0  0
  186.2740  177.3430  147.4440 C   0  0  0  0  0  3  0  0  0  0  0  0
  184.4320  178.5980  146.5050 C   0  0  0  0  0  3  0  0  0  0  0  0
  187.3970  176.5290  147.2750 C   0  0  0  0  0  3  0  0  0  0  0  0
  185.5900  177.4620  142.5200 C   0  0  0  0  0  1  0  0  0  0  0  0
  187.8030  176.1370  145.9910 C   0  0  0  0  0  0  0  0  0  0  0  0
  185.9510  177.3900  145.0280 C   0  0  0  0  0  0  0  0  0  0  0  0
  1  9  1  0  0  0  0
  1 10  1  0  0  0  0
  1  4  1  1  0  0  0
  2  7  1  0  0  0  0
  3 20  1  1  0  0  0
  3  2  1  0  0  0  0
  4  6  1  0  0  0  0
  6  8  1  0  0  0  0
  8  5  1  1  0  0  0
  8  7  1  0  0  0  0
  9 10  1  0  0  0  0
 10 11  1  6  0  0  0
 10  3  1  0  0  0  0
 11 12  1  6  0  0  0
 13 17  1  6  0  0  0
 13 11  1  0  0  0  0
 13 15  1  0  0  0  0
 15 14  1  0  0  0  0
 16 15  2  0  0  0  0
 18 17  1  0  0  0  0
 19 18  2  0  0  0  0
 20 30  1  0  0  0  0
 21 25  2  0  0  0  0
 21 31  1  0  0  0  0
 22 27  2  0  0  0  0
 23 31  2  0  0  0  0
 23 30  1  0  0  0  0
 24 27  1  0  0  0  0
 24 26  2  0  0  0  0
 25 22  1  0  0  0  0
 28 26  1  0  0  0  0
 29 21  1  0  0  0  0
 30 28  2  0  0  0  0
 31 24  1  0  0  0  0
M  END
>  <MODEL>
5

>  <REMARK>
 VINA RESULT:      -7.3      1.850      4.329
  Name = 
  7 active torsions:
  status: ('A' for Active; 'I' for Inactive)
    1  A    between atoms: C_3  and  C_20
    2  A    between atoms: C_3  and  C_26
    3  A    between atoms: C_8  and  N_11
    4  A    between atoms: N_11  and  C_25
    5  A    between atoms: C_18  and  C_26
    6  A    between atoms: C_26  and  C_29
    7  A    between atoms: C_28  and  C_29
                            x       y       z     vdW  Elec       q    Type
                         _______ _______ _______ _____ _____    ______ ____

>  <TORSDO>
F 7

$$$$
=
 OpenBabel11062420573D

 31 34  0  0  1  0  0  0  0  0999 V2000
  186.9520  177.0940  142.1220 C   0  0  2  0  0  3  0  0  0  0  0  0
  189.2540  175.3860  143.4700 O   0  0  0  0  0  0  0  0  0  0  0  0
  189.3280  176.7630  143.2170 C   0  0  1  0  0  3  0  0  0  0  0  0
  187.4720  176.1060  141.0870 C   0  0  0  0  0  2  0  0  0  0  0  0
  188.6130  172.8100  141.5190 N   0  0  0  0  0  1  0  0  0  0  0  0
  187.4450  174.8200  141.6390 O   0  0  0  0  0  0  0  0  0  0  0  0
  189.7940  174.7850  142.3240 C   0  0  0  0  0  2  0  0  0  0  0  0
  188.7030  174.2520  141.3830 C   0  0  1  0  0  3  0  0  0  0  0  0
  187.7480  178.2590  142.1330 O   0  0  0  0  0  0  0  0  0  0  0  0
  187.9230  177.3790  143.2240 C   0  0  1  0  0  0  0  0  0  0  0  0
  187.3440  177.9130  144.5480 C   0  0  1  0  0  3  0  0  0  0  0  0
  186.3170  179.0360  144.3840 C   0  0  0  0  0  1  0  0  0  0  0  0
  186.9250  176.8030  145.5260 C   0  0  1  0  0  3  0  0  0  0  0  0
  188.1990  175.4560  147.2000 O   0  0  0  0  0  1  0  0  0  0  0  0
  187.8940  176.7040  146.6650 C   0  0  0  0  0  0  0  0  0  0  0  0
  188.4500  177.7360  147.1270 O   0  0  0  0  0  0  0  0  0  0  0  0
  185.4800  176.9570  146.0150 C   0  0  0  0  0  2  0  0  0  0  0  0
  185.4370  177.4800  147.4180 C   0  0  0  0  0  3  0  0  0  0  0  0
  185.1590  178.6480  147.6390 O   0  0  0  0  0  0  0  0  0  0  0  0
  190.1780  177.4100  144.2110 N   0  0  0  0  0  2  0  0  0  0  0  0
  194.7700  175.9120  143.4510 C   0  0  0  0  0  0  0  0  0  0  0  0
  196.0330  174.9330  145.2810 C   0  0  0  0  0  3  0  0  0  0  0  0
  192.4710  176.6650  143.8520 C   0  0  0  0  0  3  0  0  0  0  0  0
  193.7680  175.6910  145.6660 C   0  0  0  0  0  0  0  0  0  0  0  0
  195.9440  175.3300  143.9440 C   0  0  0  0  0  3  0  0  0  0  0  0
  192.6820  175.8630  146.5280 C   0  0  0  0  0  3  0  0  0  0  0  0
  194.9480  175.1140  146.1400 C   0  0  0  0  0  3  0  0  0  0  0  0
  191.4960  176.4310  146.0560 C   0  0  0  0  0  3  0  0  0  0  0  0
  194.7240  176.3200  142.0170 C   0  0  0  0  0  1  0  0  0  0  0  0
  191.3860  176.8380  144.7180 C   0  0  0  0  0  0  0  0  0  0  0  0
  193.6690  176.0950  144.3110 C   0  0  0  0  0  0  0  0  0  0  0  0
  1  4  1  6  0  0  0
  1  9  1  0  0  0  0
  1 10  1  0  0  0  0
  3 10  1  0  0  0  0
  3  2  1  0  0  0  0
  3 20  1  1  0  0  0
  4  6  1  0  0  0  0
  7  2  1  0  0  0  0
  8  5  1  1  0  0  0
  8  6  1  0  0  0  0
  8  7  1  0  0  0  0
  9 10  1  0  0  0  0
 10 11  1  1  0  0  0
 11 12  1  6  0  0  0
 11 13  1  0  0  0  0
 13 17  1  1  0  0  0
 13 15  1  0  0  0  0
 15 16  2  0  0  0  0
 15 14  1  0  0  0  0
 17 18  1  0  0  0  0
 18 19  2  0  0  0  0
 20 30  1  0  0  0  0
 21 25  2  0  0  0  0
 21 31  1  0  0  0  0
 22 27  2  0  0  0  0
 23 31  2  0  0  0  0
 23 30  1  0  0  0  0
 24 27  1  0  0  0  0
 24 26  2  0  0  0  0
 25 22  1  0  0  0  0
 28 26  1  0  0  0  0
 29 21  1  0  0  0  0
 30 28  2  0  0  0  0
 31 24  1  0  0  0  0
M  END
>  <MODEL>
6

>  <REMARK>
 VINA RESULT:      -7.1      2.298      6.592
  Name = 
  7 active torsions:
  status: ('A' for Active; 'I' for Inactive)
    1  A    between atoms: C_3  and  C_20
    2  A    between atoms: C_3  and  C_26
    3  A    between atoms: C_8  and  N_11
    4  A    between atoms: N_11  and  C_25
    5  A    between atoms: C_18  and  C_26
    6  A    between atoms: C_26  and  C_29
    7  A    between atoms: C_28  and  C_29
                            x       y       z     vdW  Elec       q    Type
                         _______ _______ _______ _____ _____    ______ ____

>  <TORSDO>
F 7

$$$$
=
 OpenBabel11062420573D

 31 34  0  0  1  0  0  0  0  0999 V2000
  193.3060  174.6180  142.5520 C   0  0  2  0  0  3  0  0  0  0  0  0
  191.8260  175.5000  145.2090 O   0  0  0  0  0  0  0  0  0  0  0  0
  191.2390  175.4940  143.9360 C   0  0  1  0  0  3  0  0  0  0  0  0
  193.9800  175.8820  143.0670 C   0  0  0  0  0  2  0  0  0  0  0  0
  194.5650  176.9130  146.3760 N   0  0  0  0  0  1  0  0  0  0  0  0
  194.3290  175.6910  144.4080 O   0  0  0  0  0  0  0  0  0  0  0  0
  192.3570  176.7910  145.3490 C   0  0  0  0  0  2  0  0  0  0  0  0
  193.8720  176.8210  145.1030 C   0  0  1  0  0  3  0  0  0  0  0  0
  192.1820  174.9470  141.7630 O   0  0  0  0  0  0  0  0  0  0  0  0
  191.9070  174.4340  143.0500 C   0  0  1  0  0  0  0  0  0  0  0  0
  191.3410  173.0000  143.0380 C   0  0  1  0  0  3  0  0  0  0  0  0
  190.9670  172.4550  144.4180 C   0  0  0  0  0  1  0  0  0  0  0  0
  190.2800  172.7700  141.9500 C   0  0  1  0  0  3  0  0  0  0  0  0
  191.1370  172.3670  139.6390 O   0  0  0  0  0  0  0  0  0  0  0  0
  190.7980  171.8520  140.8860 C   0  0  0  0  0  0  0  0  0  0  0  0
  190.9510  170.6210  141.1170 O   0  0  0  0  0  1  0  0  0  0  0  0
  188.9410  172.2870  142.5210 C   0  0  0  0  0  2  0  0  0  0  0  0
  187.7990  173.0850  141.9710 C   0  0  0  0  0  3  0  0  0  0  0  0
  187.9900  173.9390  141.1190 O   0  0  0  0  0  0  0  0  0  0  0  0
  189.8060  175.2420  144.0470 N   0  0  0  0  0  2  0  0  0  0  0  0
  186.1220  177.8220  145.9650 C   0  0  0  0  0  0  0  0  0  0  0  0
  184.9780  179.4780  144.6040 C   0  0  0  0  0  3  0  0  0  0  0  0
  187.9730  176.5430  144.9890 C   0  0  0  0  0  3  0  0  0  0  0  0
  186.8130  178.2180  143.6580 C   0  0  0  0  0  0  0  0  0  0  0  0
  185.1290  178.7980  145.8160 C   0  0  0  0  0  3  0  0  0  0  0  0
  187.6470  177.9260  142.5750 C   0  0  0  0  0  3  0  0  0  0  0  0
  185.8190  179.1890  143.5280 C   0  0  0  0  0  3  0  0  0  0  0  0
  188.6380  176.9480  142.6970 C   0  0  0  0  0  3  0  0  0  0  0  0
  186.2450  177.1250  147.2780 C   0  0  0  0  0  1  0  0  0  0  0  0
  188.8070  176.2560  143.9040 C   0  0  0  0  0  0  0  0  0  0  0  0
  186.9730  177.5230  144.8830 C   0  0  0  0  0  0  0  0  0  0  0  0
  1 10  1  0  0  0  0
  1  4  1  1  0  0  0
  2  7  1  0  0  0  0
  3 20  1  1  0  0  0
  3  2  1  0  0  0  0
  4  6  1  0  0  0  0
  6  8  1  0  0  0  0
  8  7  1  0  0  0  0
  8  5  1  1  0  0  0
  9  1  1  0  0  0  0
  9 10  1  0  0  0  0
 10 11  1  1  0  0  0
 10  3  1  0  0  0  0
 11 12  1  1  0  0  0
 13 17  1  1  0  0  0
 13 11  1  0  0  0  0
 14 15  2  0  0  0  0
 15 16  1  0  0  0  0
 15 13  1  0  0  0  0
 18 17  1  0  0  0  0
 19 18  2  0  0  0  0
 21 29  1  0  0  0  0
 22 25  2  0  0  0  0
 24 31  1  0  0  0  0
 25 21  1  0  0  0  0
 26 28  2  0  0  0  0
 26 24  1  0  0  0  0
 27 24  2  0  0  0  0
 27 22  1  0  0  0  0
 28 30  1  0  0  0  0
 30 20  1  0  0  0  0
 30 23  2  0  0  0  0
 31 23  1  0  0  0  0
 31 21  2  0  0  0  0
M  END
>  <MODEL>
7

>  <REMARK>
 VINA RESULT:      -7.0      1.826      4.835
  Name = 
  7 active torsions:
  status: ('A' for Active; 'I' for Inactive)
    1  A    between atoms: C_3  and  C_20
    2  A    between atoms: C_3  and  C_26
    3  A    between atoms: C_8  and  N_11
    4  A    between atoms: N_11  and  C_25
    5  A    between atoms: C_18  and  C_26
    6  A    between atoms: C_26  and  C_29
    7  A    between atoms: C_28  and  C_29
                            x       y       z     vdW  Elec       q    Type
                         _______ _______ _______ _____ _____    ______ ____

>  <TORSDO>
F 7

$$$$
=
 OpenBabel11062420573D

 31 34  0  0  1  0  0  0  0  0999 V2000
  191.3630  173.6500  143.3330 C   0  0  2  0  0  3  0  0  0  0  0  0
  192.9760  176.3740  143.2350 O   0  0  0  0  0  0  0  0  0  0  0  0
  191.5920  176.2620  143.0500 C   0  0  1  0  0  3  0  0  0  0  0  0
  192.2930  173.6030  142.1280 C   0  0  0  0  0  2  0  0  0  0  0  0
  195.5310  174.9160  141.7510 N   0  0  0  0  0  1  0  0  0  0  0  0
  193.5920  173.9050  142.5500 O   0  0  0  0  0  0  0  0  0  0  0  0
  193.5160  176.2740  141.9440 C   0  0  0  0  0  2  0  0  0  0  0  0
  194.0830  174.8750  141.6620 C   0  0  1  0  0  3  0  0  0  0  0  0
  190.1570  174.3010  142.9970 O   0  0  0  0  0  0  0  0  0  0  0  0
  191.0540  175.0370  143.8020 C   0  0  1  0  0  0  0  0  0  0  0  0
  190.5890  175.1960  145.2620 C   0  0  1  0  0  3  0  0  0  0  0  0
  189.7560  174.0270  145.7930 C   0  0  0  0  0  1  0  0  0  0  0  0
  191.7010  175.6720  146.2110 C   0  0  1  0  0  3  0  0  0  0  0  0
  191.3440  175.2520  148.6470 O   0  0  0  0  0  1  0  0  0  0  0  0
  191.1340  176.0680  147.5400 C   0  0  0  0  0  0  0  0  0  0  0  0
  190.4870  177.1420  147.6690 O   0  0  0  0  0  0  0  0  0  0  0  0
  192.8350  174.6490  146.3540 C   0  0  0  0  0  2  0  0  0  0  0  0
  194.1710  175.2900  146.1390 C   0  0  0  0  0  3  0  0  0  0  0  0
  195.1170  174.6350  145.7300 O   0  0  0  0  0  0  0  0  0  0  0  0
  190.9260  177.4780  143.5060 N   0  0  0  0  0  2  0  0  0  0  0  0
  186.4780  177.9550  145.4810 C   0  0  0  0  0  0  0  0  0  0  0  0
  184.5680  178.3990  144.0470 C   0  0  0  0  0  3  0  0  0  0  0  0
  188.7030  177.7270  144.4750 C   0  0  0  0  0  3  0  0  0  0  0  0
  186.7700  178.1830  143.0690 C   0  0  0  0  0  0  0  0  0  0  0  0
  185.1050  178.1760  145.3180 C   0  0  0  0  0  3  0  0  0  0  0  0
  187.5960  178.1810  141.9420 C   0  0  0  0  0  3  0  0  0  0  0  0
  185.3980  178.4040  142.9250 C   0  0  0  0  0  3  0  0  0  0  0  0
  188.9670  177.9510  142.0790 C   0  0  0  0  0  3  0  0  0  0  0  0
  187.0040  177.7230  146.8580 C   0  0  0  0  0  1  0  0  0  0  0  0
  189.5270  177.7270  143.3450 C   0  0  0  0  0  0  0  0  0  0  0  0
  187.3230  177.9550  144.3540 C   0  0  0  0  0  0  0  0  0  0  0  0
  1  4  1  6  0  0  0
  1 10  1  0  0  0  0
  3  2  1  0  0  0  0
  3 20  1  1  0  0  0
  3 10  1  0  0  0  0
  4  6  1  0  0  0  0
  7  2  1  0  0  0  0
  8  5  1  1  0  0  0
  8  7  1  0  0  0  0
  8  6  1  0  0  0  0
  9  1  1  0  0  0  0
  9 10  1  0  0  0  0
 10 11  1  1  0  0  0
 11 12  1  1  0  0  0
 11 13  1  0  0  0  0
 13 17  1  1  0  0  0
 13 15  1  0  0  0  0
 15 16  2  0  0  0  0
 15 14  1  0  0  0  0
 18 17  1  0  0  0  0
 19 18  2  0  0  0  0
 21 29  1  0  0  0  0
 22 25  2  0  0  0  0
 24 31  1  0  0  0  0
 25 21  1  0  0  0  0
 26 28  2  0  0  0  0
 26 24  1  0  0  0  0
 27 24  2  0  0  0  0
 27 22  1  0  0  0  0
 28 30  1  0  0  0  0
 30 20  1  0  0  0  0
 30 23  2  0  0  0  0
 31 23  1  0  0  0  0
 31 21  2  0  0  0  0
M  END
>  <MODEL>
8

>  <REMARK>
 VINA RESULT:      -6.7      2.068      3.532
  Name = 
  7 active torsions:
  status: ('A' for Active; 'I' for Inactive)
    1  A    between atoms: C_3  and  C_20
    2  A    between atoms: C_3  and  C_26
    3  A    between atoms: C_8  and  N_11
    4  A    between atoms: N_11  and  C_25
    5  A    between atoms: C_18  and  C_26
    6  A    between atoms: C_26  and  C_29
    7  A    between atoms: C_28  and  C_29
                            x       y       z     vdW  Elec       q    Type
                         _______ _______ _______ _____ _____    ______ ____

>  <TORSDO>
F 7

$$$$
=
 OpenBabel11062420573D

 31 34  0  0  1  0  0  0  0  0999 V2000
  193.2000  176.0110  144.0570 C   0  0  2  0  0  3  0  0  0  0  0  0
  190.3400  175.5300  145.3320 O   0  0  0  0  0  0  0  0  0  0  0  0
  190.5790  176.2860  144.1770 C   0  0  1  0  0  3  0  0  0  0  0  0
  193.1690  176.6970  145.4160 C   0  0  0  0  0  2  0  0  0  0  0  0
  191.5690  175.7060  148.3840 N   0  0  0  0  0  1  0  0  0  0  0  0
  192.7470  175.7720  146.3770 O   0  0  0  0  0  0  0  0  0  0  0  0
  190.3990  176.4580  146.3820 C   0  0  0  0  0  2  0  0  0  0  0  0
  191.7420  176.4060  147.1240 C   0  0  1  0  0  3  0  0  0  0  0  0
  192.6640  176.8620  143.0660 O   0  0  0  0  0  0  0  0  0  0  0  0
  191.8440  175.7840  143.4670 C   0  0  1  0  0  0  0  0  0  0  0  0
  191.7180  174.6740  142.4050 C   0  0  1  0  0  3  0  0  0  0  0  0
  192.9020  174.5830  141.4400 C   0  0  0  0  0  1  0  0  0  0  0  0
  191.2590  173.3240  142.9810 C   0  0  1  0  0  3  0  0  0  0  0  0
  189.3210  171.7620  142.7700 O   0  0  0  0  0  1  0  0  0  0  0  0
  190.0740  172.8000  142.2290 C   0  0  0  0  0  0  0  0  0  0  0  0
  189.7400  173.3040  141.1230 O   0  0  0  0  0  0  0  0  0  0  0  0
  192.3920  172.2940  143.0540 C   0  0  0  0  0  2  0  0  0  0  0  0
  192.9580  172.2100  144.4380 C   0  0  0  0  0  3  0  0  0  0  0  0
  194.0350  172.7220  144.7030 O   0  0  0  0  0  0  0  0  0  0  0  0
  189.4270  176.2150  143.2840 N   0  0  0  0  0  2  0  0  0  0  0  0
  185.6020  177.6760  145.9580 C   0  0  0  0  0  0  0  0  0  0  0  0
  184.0480  179.3040  145.0440 C   0  0  0  0  0  3  0  0  0  0  0  0
  187.5200  176.9610  144.6070 C   0  0  0  0  0  3  0  0  0  0  0  0
  185.9500  178.5980  143.7260 C   0  0  0  0  0  0  0  0  0  0  0  0
  184.4490  178.4590  146.0830 C   0  0  0  0  0  3  0  0  0  0  0  0
  186.6920  178.6650  142.5440 C   0  0  0  0  0  3  0  0  0  0  0  0
  184.7980  179.3740  143.8680 C   0  0  0  0  0  3  0  0  0  0  0  0
  187.8410  177.8850  142.3920 C   0  0  0  0  0  3  0  0  0  0  0  0
  185.9900  176.7910  147.0960 C   0  0  0  0  0  1  0  0  0  0  0  0
  188.2620  177.0320  143.4230 C   0  0  0  0  0  0  0  0  0  0  0  0
  186.3630  177.7380  144.7740 C   0  0  0  0  0  0  0  0  0  0  0  0
  1  4  1  1  0  0  0
  2  7  1  0  0  0  0
  3 20  1  6  0  0  0
  3  2  1  0  0  0  0
  4  6  1  0  0  0  0
  6  8  1  0  0  0  0
  7  8  1  0  0  0  0
  8  5  1  1  0  0  0
  9 10  1  0  0  0  0
  9  1  1  0  0  0  0
 10 11  1  6  0  0  0
 10  1  1  0  0  0  0
 10  3  1  0  0  0  0
 11 12  1  1  0  0  0
 11 13  1  0  0  0  0
 13 17  1  6  0  0  0
 15 14  1  0  0  0  0
 15 13  1  0  0  0  0
 16 15  2  0  0  0  0
 17 18  1  0  0  0  0
 18 19  2  0  0  0  0
 20 30  1  0  0  0  0
 21 25  1  0  0  0  0
 21 29  1  0  0  0  0
 22 25  2  0  0  0  0
 23 31  1  0  0  0  0
 24 27  2  0  0  0  0
 24 31  1  0  0  0  0
 26 24  1  0  0  0  0
 27 22  1  0  0  0  0
 28 26  2  0  0  0  0
 28 30  1  0  0  0  0
 30 23  2  0  0  0  0
 31 21  2  0  0  0  0
M  END
>  <MODEL>
9

>  <REMARK>
 VINA RESULT:      -6.4      1.654      4.472
  Name = 
  7 active torsions:
  status: ('A' for Active; 'I' for Inactive)
    1  A    between atoms: C_3  and  C_20
    2  A    between atoms: C_3  and  C_26
    3  A    between atoms: C_8  and  N_11
    4  A    between atoms: N_11  and  C_25
    5  A    between atoms: C_18  and  C_26
    6  A    between atoms: C_26  and  C_29
    7  A    between atoms: C_28  and  C_29
                            x       y       z     vdW  Elec       q    Type
                         _______ _______ _______ _____ _____    ______ ____

>  <TORSDO>
F 7

$$$$
