=
 OpenBabel11062422453D

 29 32  0  0  1  0  0  0  0  0999 V2000
  189.9080  176.2220  145.4890 C   0  0  1  0  0  3  0  0  0  0  0  0
  193.3330  175.9210  146.6510 C   0  0  0  0  0  3  0  0  0  0  0  0
  195.7370  175.6120  144.9820 O   0  0  0  0  0  0  0  0  0  0  0  0
  194.3800  175.8080  143.1210 N   0  0  0  0  0  2  0  0  0  0  0  0
  191.3380  175.8400  145.7390 C   0  0  0  0  0  0  0  0  0  0  0  0
  191.6500  174.6030  143.6600 N   0  0  0  0  0  0  0  0  0  0  0  0
  193.1220  176.1400  142.4620 C   0  0  0  0  0  2  0  0  0  0  0  0
  192.0880  175.1430  144.9060 C   0  0  0  0  0  0  0  0  0  0  0  0
  194.5700  175.5390  144.5180 C   0  0  0  0  0  0  0  0  0  0  0  0
  192.1200  176.3450  146.8120 N   0  0  0  0  0  0  0  0  0  0  0  0
  192.1430  175.0090  142.5320 C   0  0  0  0  0  3  0  0  0  0  0  0
  193.4750  175.0520  145.4360 C   0  0  1  0  0  3  0  0  0  0  0  0
  189.2270  174.6460  147.1660 O   0  0  0  0  0  1  0  0  0  0  0  0
  189.0140  175.9450  146.7010 C   0  0  2  0  0  3  0  0  0  0  0  0
  187.6490  176.0920  146.3450 O   0  0  0  0  0  0  0  0  0  0  0  0
  186.8180  176.8590  147.1130 C   0  0  0  0  0  0  0  0  0  0  0  0
  186.0850  177.5350  147.7900 C   0  0  0  0  0  3  0  0  0  0  0  0
  189.8030  177.6690  145.0010 C   0  0  0  0  0  2  0  0  0  0  0  0
  189.7260  177.7680  143.4830 C   0  0  0  0  0  2  0  0  0  0  0  0
  188.4080  177.2060  142.9770 C   0  0  0  0  0  2  0  0  0  0  0  0
  185.7580  177.4120  140.8750 O   0  0  0  0  0  0  0  0  0  0  0  0
  185.4260  177.7010  142.2020 C   0  0  2  0  0  3  0  0  0  0  0  0
  184.8660  179.0890  144.5930 C   0  0  0  0  0  3  0  0  0  0  0  0
  184.0270  178.2790  142.3640 C   0  0  0  0  0  2  0  0  0  0  0  0
  186.3100  178.8650  144.1920 C   0  0  0  0  0  2  0  0  0  0  0  0
  187.6940  178.2140  142.0750 C   0  0  1  0  0  3  0  0  0  0  0  0
  183.8300  178.7830  143.7800 C   0  0  0  0  0  3  0  0  0  0  0  0
  187.1710  177.5050  140.8250 C   0  0  0  0  0  2  0  0  0  0  0  0
  186.4130  178.7200  142.6750 C   0  0  1  0  0  3  0  0  0  0  0  0
  1 18  1  1  0  0  0
  1  5  1  0  0  0  0
  1 14  1  0  0  0  0
  2 10  2  0  0  0  0
  4  9  1  0  0  0  0
  5 10  1  0  0  0  0
  6  8  1  0  0  0  0
  7 11  1  0  0  0  0
  7  4  1  0  0  0  0
  8 12  1  0  0  0  0
  8  5  2  0  0  0  0
  9  3  2  0  0  0  0
  9 12  1  0  0  0  0
 11  6  2  0  0  0  0
 12  2  1  1  0  0  0
 14 13  1  6  0  0  0
 15 14  1  0  0  0  0
 15 16  1  0  0  0  0
 16 17  3  0  0  0  0
 19 18  1  0  0  0  0
 20 19  1  0  0  0  0
 21 22  1  0  0  0  0
 22 24  1  6  0  0  0
 22 29  1  0  0  0  0
 24 27  1  0  0  0  0
 25 23  1  0  0  0  0
 26 29  1  0  0  0  0
 26 20  1  1  0  0  0
 27 23  2  0  0  0  0
 28 21  1  0  0  0  0
 28 26  1  0  0  0  0
 29 25  1  1  0  0  0
M  END
>  <MODEL>
1

>  <REMARK>
 VINA RESULT:      -7.1      0.000      0.000
  Name = 
  8 active torsions:
  status: ('A' for Active; 'I' for Inactive)
    1  A    between atoms: C_1  and  C_17
    2  A    between atoms: C_1  and  C_21
    3  A    between atoms: C_5  and  O_8
    4  A    between atoms: O_8  and  C_9
    5  A    between atoms: C_9  and  C_15
    6  A    between atoms: C_11  and  C_15
    7  A    between atoms: C_15  and  C_17
    8  A    between atoms: C_21  and  C_26
                            x       y       z     vdW  Elec       q    Type
                         _______ _______ _______ _____ _____    ______ ____

>  <TORSDO>
F 8

$$$$
=
 OpenBabel11062422453D

 29 32  0  0  1  0  0  0  0  0999 V2000
  191.6880  176.0900  144.4180 C   0  0  1  0  0  3  0  0  0  0  0  0
  195.1030  177.0810  145.1490 C   0  0  0  0  0  3  0  0  0  0  0  0
  197.3740  177.0860  143.2770 O   0  0  0  0  0  0  0  0  0  0  0  0
  195.9090  176.4260  141.6140 N   0  0  0  0  0  2  0  0  0  0  0  0
  193.1790  176.2090  144.5490 C   0  0  0  0  0  0  0  0  0  0  0  0
  193.7290  174.6520  142.7540 N   0  0  0  0  0  0  0  0  0  0  0  0
  194.5710  176.2120  141.0750 C   0  0  0  0  0  2  0  0  0  0  0  0
  194.0550  175.5790  143.7890 C   0  0  0  0  0  0  0  0  0  0  0  0
  196.2600  176.5680  142.9990 C   0  0  0  0  0  0  0  0  0  0  0  0
  193.8300  177.1620  145.3770 N   0  0  0  0  0  0  0  0  0  0  0  0
  194.0000  174.8990  141.5110 C   0  0  0  0  0  3  0  0  0  0  0  0
  195.4320  176.0230  144.1370 C   0  0  1  0  0  3  0  0  0  0  0  0
  192.0400  174.8170  146.4210 O   0  0  0  0  0  1  0  0  0  0  0  0
  191.0900  175.1270  145.4460 C   0  0  2  0  0  3  0  0  0  0  0  0
  190.6720  173.9300  144.8090 O   0  0  0  0  0  0  0  0  0  0  0  0
  189.8040  173.9810  143.7550 C   0  0  0  0  0  0  0  0  0  0  0  0
  189.0380  174.0250  142.8260 C   0  0  0  0  0  3  0  0  0  0  0  0
  191.0220  177.4690  144.4480 C   0  0  0  0  0  2  0  0  0  0  0  0
  189.7930  177.5030  145.3470 C   0  0  0  0  0  2  0  0  0  0  0  0
  188.5240  177.5650  144.5160 C   0  0  0  0  0  2  0  0  0  0  0  0
  186.7210  176.8950  147.3060 O   0  0  0  0  0  0  0  0  0  0  0  0
  186.0810  177.7910  146.4440 C   0  0  2  0  0  3  0  0  0  0  0  0
  184.4010  178.8720  144.4530 C   0  0  0  0  0  3  0  0  0  0  0  0
  184.6330  178.0660  146.8250 C   0  0  0  0  0  2  0  0  0  0  0  0
  185.6940  178.1980  144.0400 C   0  0  0  0  0  2  0  0  0  0  0  0
  187.4810  176.5740  145.0360 C   0  0  1  0  0  3  0  0  0  0  0  0
  183.9430  178.8480  145.7240 C   0  0  0  0  0  3  0  0  0  0  0  0
  187.7340  176.2940  146.5180 C   0  0  0  0  0  2  0  0  0  0  0  0
  186.0990  177.1630  145.0870 C   0  0  1  0  0  3  0  0  0  0  0  0
  1 18  1  1  0  0  0
  1  5  1  0  0  0  0
  1 14  1  0  0  0  0
  2 10  2  0  0  0  0
  4  9  1  0  0  0  0
  5 10  1  0  0  0  0
  6  8  1  0  0  0  0
  7 11  1  0  0  0  0
  7  4  1  0  0  0  0
  8 12  1  0  0  0  0
  8  5  2  0  0  0  0
  9  3  2  0  0  0  0
  9 12  1  0  0  0  0
 11  6  2  0  0  0  0
 12  2  1  1  0  0  0
 14 13  1  1  0  0  0
 15 14  1  0  0  0  0
 16 15  1  0  0  0  0
 17 16  3  0  0  0  0
 18 19  1  0  0  0  0
 20 19  1  0  0  0  0
 22 24  1  1  0  0  0
 22 21  1  0  0  0  0
 23 27  2  0  0  0  0
 25 23  1  0  0  0  0
 26 20  1  1  0  0  0
 26 29  1  0  0  0  0
 26 28  1  0  0  0  0
 27 24  1  0  0  0  0
 28 21  1  0  0  0  0
 29 25  1  6  0  0  0
 29 22  1  0  0  0  0
M  END
>  <MODEL>
2

>  <REMARK>
 VINA RESULT:      -6.8      2.164      3.320
  Name = 
  8 active torsions:
  status: ('A' for Active; 'I' for Inactive)
    1  A    between atoms: C_1  and  C_17
    2  A    between atoms: C_1  and  C_21
    3  A    between atoms: C_5  and  O_8
    4  A    between atoms: O_8  and  C_9
    5  A    between atoms: C_9  and  C_15
    6  A    between atoms: C_11  and  C_15
    7  A    between atoms: C_15  and  C_17
    8  A    between atoms: C_21  and  C_26
                            x       y       z     vdW  Elec       q    Type
                         _______ _______ _______ _____ _____    ______ ____

>  <TORSDO>
F 8

$$$$
=
 OpenBabel11062422453D

 29 32  0  0  1  0  0  0  0  0999 V2000
  190.5310  174.0370  144.1390 C   0  0  1  0  0  3  0  0  0  0  0  0
  193.7940  172.5920  144.8020 C   0  0  0  0  0  3  0  0  0  0  0  0
  196.1090  173.9510  146.0080 O   0  0  0  0  0  0  0  0  0  0  0  0
  194.7770  175.8220  146.2770 N   0  0  0  0  0  2  0  0  0  0  0  0
  191.9960  173.7340  144.2730 C   0  0  0  0  0  0  0  0  0  0  0  0
  192.7670  176.0340  144.0160 N   0  0  0  0  0  0  0  0  0  0  0  0
  193.4890  176.5030  146.3010 C   0  0  0  0  0  2  0  0  0  0  0  0
  192.9580  174.6360  144.2350 C   0  0  0  0  0  0  0  0  0  0  0  0
  195.0670  174.5620  145.6530 C   0  0  0  0  0  0  0  0  0  0  0  0
  192.5140  172.4670  144.6510 N   0  0  0  0  0  0  0  0  0  0  0  0
  193.0480  176.9090  144.9290 C   0  0  0  0  0  3  0  0  0  0  0  0
  194.2670  173.9860  144.5100 C   0  0  1  0  0  3  0  0  0  0  0  0
  190.6330  173.6590  141.7720 O   0  0  0  0  0  1  0  0  0  0  0  0
  189.9060  173.3500  142.9220 C   0  0  2  0  0  3  0  0  0  0  0  0
  188.5650  173.7800  142.7530 O   0  0  0  0  0  0  0  0  0  0  0  0
  188.3000  174.9810  142.1580 C   0  0  0  0  0  0  0  0  0  0  0  0
  188.0660  176.0410  141.6330 C   0  0  0  0  0  3  0  0  0  0  0  0
  189.7850  173.7230  145.4390 C   0  0  0  0  0  2  0  0  0  0  0  0
  189.9550  174.8160  146.4870 C   0  0  0  0  0  2  0  0  0  0  0  0
  188.6100  175.4200  146.8530 C   0  0  0  0  0  2  0  0  0  0  0  0
  188.5380  177.9110  144.5570 O   0  0  0  0  0  0  0  0  0  0  0  0
  187.2640  177.5360  144.9970 C   0  0  2  0  0  3  0  0  0  0  0  0
  184.8200  177.4540  146.4020 C   0  0  0  0  0  3  0  0  0  0  0  0
  186.1630  178.4830  144.5410 C   0  0  0  0  0  2  0  0  0  0  0  0
  186.0600  176.8660  147.0460 C   0  0  0  0  0  2  0  0  0  0  0  0
  188.6550  176.9460  146.7680 C   0  0  1  0  0  3  0  0  0  0  0  0
  184.8620  178.1500  145.2450 C   0  0  0  0  0  3  0  0  0  0  0  0
  189.4270  177.3680  145.5170 C   0  0  0  0  0  2  0  0  0  0  0  0
  187.3080  177.5500  146.4910 C   0  0  1  0  0  3  0  0  0  0  0  0
  1  5  1  0  0  0  0
  1 18  1  1  0  0  0
  4  7  1  0  0  0  0
  5 10  1  0  0  0  0
  6  8  1  0  0  0  0
  6 11  2  0  0  0  0
  8  5  2  0  0  0  0
  8 12  1  0  0  0  0
  9  3  2  0  0  0  0
  9  4  1  0  0  0  0
 10  2  2  0  0  0  0
 11  7  1  0  0  0  0
 12  2  1  1  0  0  0
 12  9  1  0  0  0  0
 14 13  1  6  0  0  0
 14  1  1  0  0  0  0
 15 14  1  0  0  0  0
 16 15  1  0  0  0  0
 17 16  3  0  0  0  0
 18 19  1  0  0  0  0
 19 20  1  0  0  0  0
 21 22  1  0  0  0  0
 21 28  1  0  0  0  0
 22 24  1  6  0  0  0
 22 29  1  0  0  0  0
 23 25  1  0  0  0  0
 24 27  1  0  0  0  0
 26 20  1  6  0  0  0
 27 23  2  0  0  0  0
 28 26  1  0  0  0  0
 29 26  1  0  0  0  0
 29 25  1  1  0  0  0
M  END
>  <MODEL>
3

>  <REMARK>
 VINA RESULT:      -6.8      2.207      3.847
  Name = 
  8 active torsions:
  status: ('A' for Active; 'I' for Inactive)
    1  A    between atoms: C_1  and  C_17
    2  A    between atoms: C_1  and  C_21
    3  A    between atoms: C_5  and  O_8
    4  A    between atoms: O_8  and  C_9
    5  A    between atoms: C_9  and  C_15
    6  A    between atoms: C_11  and  C_15
    7  A    between atoms: C_15  and  C_17
    8  A    between atoms: C_21  and  C_26
                            x       y       z     vdW  Elec       q    Type
                         _______ _______ _______ _____ _____    ______ ____

>  <TORSDO>
F 8

$$$$
=
 OpenBabel11062422453D

 29 32  0  0  1  0  0  0  0  0999 V2000
  190.2030  176.4240  144.0770 C   0  0  1  0  0  3  0  0  0  0  0  0
  192.5390  175.0280  141.6760 C   0  0  0  0  0  3  0  0  0  0  0  0
  191.9000  173.2160  139.4460 O   0  0  0  0  0  0  0  0  0  0  0  0
  189.6700  173.4110  140.0250 N   0  0  0  0  0  2  0  0  0  0  0  0
  190.9990  175.5520  143.1490 C   0  0  0  0  0  0  0  0  0  0  0  0
  189.3700  173.7410  143.0240 N   0  0  0  0  0  0  0  0  0  0  0  0
  188.5660  174.0420  140.7380 C   0  0  0  0  0  2  0  0  0  0  0  0
  190.5980  174.3830  142.6850 C   0  0  0  0  0  0  0  0  0  0  0  0
  191.0660  173.5220  140.3390 C   0  0  0  0  0  0  0  0  0  0  0  0
  192.1940  175.9640  142.5020 N   0  0  0  0  0  0  0  0  0  0  0  0
  188.4460  173.5310  142.1400 C   0  0  0  0  0  3  0  0  0  0  0  0
  191.5950  173.8620  141.7110 C   0  0  1  0  0  3  0  0  0  0  0  0
  191.9780  175.8370  145.5820 O   0  0  0  0  0  1  0  0  0  0  0  0
  190.9850  176.7880  145.3420 C   0  0  2  0  0  3  0  0  0  0  0  0
  190.1120  176.8380  146.4590 O   0  0  0  0  0  0  0  0  0  0  0  0
  189.5490  175.6900  146.9430 C   0  0  0  0  0  0  0  0  0  0  0  0
  189.0530  174.6780  147.3690 C   0  0  0  0  0  3  0  0  0  0  0  0
  189.6630  177.6550  143.3460 C   0  0  0  0  0  2  0  0  0  0  0  0
  188.5670  177.3060  142.3470 C   0  0  0  0  0  2  0  0  0  0  0  0
  187.2260  177.1730  143.0490 C   0  0  0  0  0  2  0  0  0  0  0  0
  184.1840  178.6160  143.4360 O   0  0  0  0  0  0  0  0  0  0  0  0
  184.7400  178.1800  144.6430 C   0  0  2  0  0  3  0  0  0  0  0  0
  186.0980  178.1240  147.1140 C   0  0  0  0  0  3  0  0  0  0  0  0
  183.9800  178.6660  145.8700 C   0  0  0  0  0  2  0  0  0  0  0  0
  186.9010  178.0610  145.8310 C   0  0  0  0  0  2  0  0  0  0  0  0
  186.5940  178.5460  143.2830 C   0  0  1  0  0  3  0  0  0  0  0  0
  184.7670  178.3570  147.1280 C   0  0  0  0  0  3  0  0  0  0  0  0
  185.2690  178.6370  142.5250 C   0  0  0  0  0  2  0  0  0  0  0  0
  186.1270  178.7340  144.6980 C   0  0  1  0  0  3  0  0  0  0  0  0
  1 18  1  6  0  0  0
  1 14  1  0  0  0  0
  2 10  2  0  0  0  0
  3  9  2  0  0  0  0
  4  9  1  0  0  0  0
  4  7  1  0  0  0  0
  5  1  1  0  0  0  0
  7 11  1  0  0  0  0
  8  6  1  0  0  0  0
  8  5  2  0  0  0  0
  9 12  1  0  0  0  0
 10  5  1  0  0  0  0
 11  6  2  0  0  0  0
 12  2  1  6  0  0  0
 12  8  1  0  0  0  0
 14 13  1  1  0  0  0
 14 15  1  0  0  0  0
 15 16  1  0  0  0  0
 16 17  3  0  0  0  0
 19 20  1  0  0  0  0
 19 18  1  0  0  0  0
 21 22  1  0  0  0  0
 22 29  1  0  0  0  0
 22 24  1  1  0  0  0
 23 27  2  0  0  0  0
 24 27  1  0  0  0  0
 25 23  1  0  0  0  0
 26 20  1  1  0  0  0
 26 29  1  0  0  0  0
 28 26  1  0  0  0  0
 28 21  1  0  0  0  0
 29 25  1  1  0  0  0
M  END
>  <MODEL>
4

>  <REMARK>
 VINA RESULT:      -6.8      2.431      3.620
  Name = 
  8 active torsions:
  status: ('A' for Active; 'I' for Inactive)
    1  A    between atoms: C_1  and  C_17
    2  A    between atoms: C_1  and  C_21
    3  A    between atoms: C_5  and  O_8
    4  A    between atoms: O_8  and  C_9
    5  A    between atoms: C_9  and  C_15
    6  A    between atoms: C_11  and  C_15
    7  A    between atoms: C_15  and  C_17
    8  A    between atoms: C_21  and  C_26
                            x       y       z     vdW  Elec       q    Type
                         _______ _______ _______ _____ _____    ______ ____

>  <TORSDO>
F 8

$$$$
=
 OpenBabel11062422453D

 29 32  0  0  1  0  0  0  0  0999 V2000
  190.2550  175.3650  144.7730 C   0  0  1  0  0  3  0  0  0  0  0  0
  192.7890  172.7660  144.7390 C   0  0  0  0  0  3  0  0  0  0  0  0
  195.6040  173.0420  145.5510 O   0  0  0  0  0  0  0  0  0  0  0  0
  195.1390  175.2240  146.1560 N   0  0  0  0  0  2  0  0  0  0  0  0
  191.4980  174.5370  144.6140 C   0  0  0  0  0  0  0  0  0  0  0  0
  193.0310  176.4120  144.3270 N   0  0  0  0  0  0  0  0  0  0  0  0
  194.2250  176.3200  146.4560 C   0  0  0  0  0  2  0  0  0  0  0  0
  192.7110  175.0250  144.4390 C   0  0  0  0  0  0  0  0  0  0  0  0
  194.8290  174.0260  145.4290 C   0  0  0  0  0  0  0  0  0  0  0  0
  191.5500  173.1330  144.8260 N   0  0  0  0  0  0  0  0  0  0  0  0
  193.7620  177.0130  145.2130 C   0  0  0  0  0  3  0  0  0  0  0  0
  193.7020  173.9160  144.4300 C   0  0  1  0  0  3  0  0  0  0  0  0
  189.9580  174.6930  142.4890 O   0  0  0  0  0  1  0  0  0  0  0  0
  189.5680  175.6430  143.4340 C   0  0  2  0  0  3  0  0  0  0  0  0
  189.9180  176.9350  142.9640 O   0  0  0  0  0  0  0  0  0  0  0  0
  189.0270  177.6610  142.2260 C   0  0  0  0  0  0  0  0  0  0  0  0
  188.2400  178.3030  141.5750 C   0  0  0  0  0  3  0  0  0  0  0  0
  189.3080  174.7410  145.8010 C   0  0  0  0  0  2  0  0  0  0  0  0
  188.9070  175.7220  146.8950 C   0  0  0  0  0  2  0  0  0  0  0  0
  188.0820  176.8590  146.3180 C   0  0  0  0  0  2  0  0  0  0  0  0
  185.4780  178.8380  147.2040 O   0  0  0  0  0  0  0  0  0  0  0  0
  185.5320  178.5900  145.8290 C   0  0  2  0  0  3  0  0  0  0  0  0
  185.0720  177.4840  143.2760 C   0  0  0  0  0  3  0  0  0  0  0  0
  184.2880  179.0490  145.0820 C   0  0  0  0  0  2  0  0  0  0  0  0
  186.0240  176.7810  144.2220 C   0  0  0  0  0  2  0  0  0  0  0  0
  186.6230  176.7570  146.7640 C   0  0  1  0  0  3  0  0  0  0  0  0
  184.3170  178.5390  143.6540 C   0  0  0  0  0  3  0  0  0  0  0  0
  186.3200  177.8560  147.7830 C   0  0  0  0  0  2  0  0  0  0  0  0
  185.6570  177.1080  145.6680 C   0  0  1  0  0  3  0  0  0  0  0  0
  1 18  1  1  0  0  0
  2 10  2  0  0  0  0
  4  7  1  0  0  0  0
  5  1  1  0  0  0  0
  5 10  1  0  0  0  0
  6  8  1  0  0  0  0
  6 11  2  0  0  0  0
  8  5  2  0  0  0  0
  9  3  2  0  0  0  0
  9  4  1  0  0  0  0
 11  7  1  0  0  0  0
 12  8  1  0  0  0  0
 12  2  1  1  0  0  0
 12  9  1  0  0  0  0
 14 13  1  6  0  0  0
 14  1  1  0  0  0  0
 15 14  1  0  0  0  0
 16 15  1  0  0  0  0
 17 16  3  0  0  0  0
 18 19  1  0  0  0  0
 20 19  1  0  0  0  0
 21 28  1  0  0  0  0
 22 24  1  6  0  0  0
 22 21  1  0  0  0  0
 23 27  2  0  0  0  0
 23 25  1  0  0  0  0
 26 20  1  6  0  0  0
 26 28  1  0  0  0  0
 27 24  1  0  0  0  0
 29 25  1  6  0  0  0
 29 22  1  0  0  0  0
 29 26  1  0  0  0  0
M  END
>  <MODEL>
5

>  <REMARK>
 VINA RESULT:      -6.8      2.041      3.779
  Name = 
  8 active torsions:
  status: ('A' for Active; 'I' for Inactive)
    1  A    between atoms: C_1  and  C_17
    2  A    between atoms: C_1  and  C_21
    3  A    between atoms: C_5  and  O_8
    4  A    between atoms: O_8  and  C_9
    5  A    between atoms: C_9  and  C_15
    6  A    between atoms: C_11  and  C_15
    7  A    between atoms: C_15  and  C_17
    8  A    between atoms: C_21  and  C_26
                            x       y       z     vdW  Elec       q    Type
                         _______ _______ _______ _____ _____    ______ ____

>  <TORSDO>
F 8

$$$$
=
 OpenBabel11062422453D

 29 32  0  0  1  0  0  0  0  0999 V2000
  190.5450  175.0380  145.3700 C   0  0  1  0  0  3  0  0  0  0  0  0
  189.7130  178.0790  143.5710 C   0  0  0  0  0  3  0  0  0  0  0  0
  188.0070  178.3020  141.1840 O   0  0  0  0  0  0  0  0  0  0  0  0
  187.6060  176.0310  141.3500 N   0  0  0  0  0  2  0  0  0  0  0  0
  190.2740  176.1040  144.3470 C   0  0  0  0  0  0  0  0  0  0  0  0
  190.0420  174.5940  142.4450 N   0  0  0  0  0  0  0  0  0  0  0  0
  187.6360  174.7580  142.0590 C   0  0  0  0  0  2  0  0  0  0  0  0
  190.0360  175.8780  143.0690 C   0  0  0  0  0  0  0  0  0  0  0  0
  188.3880  177.1970  141.6510 C   0  0  0  0  0  0  0  0  0  0  0  0
  190.0490  177.4700  144.6640 N   0  0  0  0  0  0  0  0  0  0  0  0
  188.9670  174.0830  141.9340 C   0  0  0  0  0  3  0  0  0  0  0  0
  189.7060  177.1580  142.3870 C   0  0  1  0  0  3  0  0  0  0  0  0
  192.1070  173.2180  145.3170 O   0  0  0  0  0  1  0  0  0  0  0  0
  192.0140  174.6090  145.3850 C   0  0  2  0  0  3  0  0  0  0  0  0
  192.6430  175.0580  146.5750 O   0  0  0  0  0  0  0  0  0  0  0  0
  193.5050  176.1170  146.5380 C   0  0  0  0  0  0  0  0  0  0  0  0
  194.2670  177.0510  146.5050 C   0  0  0  0  0  3  0  0  0  0  0  0
  190.0430  175.4630  146.7520 C   0  0  0  0  0  2  0  0  0  0  0  0
  188.5300  175.3420  146.8860 C   0  0  0  0  0  2  0  0  0  0  0  0
  187.8850  176.7170  146.9320 C   0  0  0  0  0  2  0  0  0  0  0  0
  185.2080  178.6730  147.6310 O   0  0  0  0  0  0  0  0  0  0  0  0
  185.4180  178.5040  146.2590 C   0  0  2  0  0  3  0  0  0  0  0  0
  185.2470  177.5550  143.6080 C   0  0  0  0  0  3  0  0  0  0  0  0
  184.2700  179.0220  145.4020 C   0  0  0  0  0  2  0  0  0  0  0  0
  186.0810  176.7860  144.6140 C   0  0  0  0  0  2  0  0  0  0  0  0
  186.3840  176.6070  147.2010 C   0  0  1  0  0  3  0  0  0  0  0  0
  184.4600  178.5950  143.9600 C   0  0  0  0  0  3  0  0  0  0  0  0
  185.9720  177.6490  148.2430 C   0  0  0  0  0  2  0  0  0  0  0  0
  185.5520  177.0330  146.0260 C   0  0  1  0  0  3  0  0  0  0  0  0
  1 14  1  0  0  0  0
  1 18  1  1  0  0  0
  2 10  2  0  0  0  0
  3  9  2  0  0  0  0
  4  9  1  0  0  0  0
  4  7  1  0  0  0  0
  5 10  1  0  0  0  0
  5  1  1  0  0  0  0
  6  8  1  0  0  0  0
  8  5  2  0  0  0  0
  9 12  1  0  0  0  0
 11  7  1  0  0  0  0
 11  6  2  0  0  0  0
 12  8  1  0  0  0  0
 12  2  1  1  0  0  0
 14 13  1  1  0  0  0
 14 15  1  0  0  0  0
 16 15  1  0  0  0  0
 17 16  3  0  0  0  0
 18 19  1  0  0  0  0
 19 20  1  0  0  0  0
 21 28  1  0  0  0  0
 22 24  1  6  0  0  0
 22 21  1  0  0  0  0
 23 27  2  0  0  0  0
 23 25  1  0  0  0  0
 26 20  1  6  0  0  0
 26 28  1  0  0  0  0
 27 24  1  0  0  0  0
 29 25  1  6  0  0  0
 29 22  1  0  0  0  0
 29 26  1  0  0  0  0
M  END
>  <MODEL>
6

>  <REMARK>
 VINA RESULT:      -6.7      2.145      4.914
  Name = 
  8 active torsions:
  status: ('A' for Active; 'I' for Inactive)
    1  A    between atoms: C_1  and  C_17
    2  A    between atoms: C_1  and  C_21
    3  A    between atoms: C_5  and  O_8
    4  A    between atoms: O_8  and  C_9
    5  A    between atoms: C_9  and  C_15
    6  A    between atoms: C_11  and  C_15
    7  A    between atoms: C_15  and  C_17
    8  A    between atoms: C_21  and  C_26
                            x       y       z     vdW  Elec       q    Type
                         _______ _______ _______ _____ _____    ______ ____

>  <TORSDO>
F 8

$$$$
=
 OpenBabel11062422453D

 29 32  0  0  1  0  0  0  0  0999 V2000
  189.9500  174.3810  143.5530 C   0  0  1  0  0  3  0  0  0  0  0  0
  189.4840  175.6470  146.9230 C   0  0  0  0  0  3  0  0  0  0  0  0
  191.5230  176.9150  148.6250 O   0  0  0  0  0  0  0  0  0  0  0  0
  193.0020  176.7380  146.8570 N   0  0  0  0  0  2  0  0  0  0  0  0
  190.0550  174.7370  145.0080 C   0  0  0  0  0  0  0  0  0  0  0  0
  192.4320  174.2400  145.2340 N   0  0  0  0  0  0  0  0  0  0  0  0
  193.3240  176.5030  145.4550 C   0  0  0  0  0  2  0  0  0  0  0  0
  191.1650  174.6850  145.7190 C   0  0  0  0  0  0  0  0  0  0  0  0
  191.7990  176.3480  147.5350 C   0  0  0  0  0  0  0  0  0  0  0  0
  189.0150  175.3590  145.7500 N   0  0  0  0  0  0  0  0  0  0  0  0
  193.4470  175.0420  145.1500 C   0  0  0  0  0  3  0  0  0  0  0  0
  190.9110  175.2120  147.0870 C   0  0  1  0  0  3  0  0  0  0  0  0
  189.3990  172.2730  144.5600 O   0  0  0  0  0  1  0  0  0  0  0  0
  189.4430  172.9520  143.3410 C   0  0  2  0  0  3  0  0  0  0  0  0
  190.3030  172.2550  142.4540 O   0  0  0  0  0  0  0  0  0  0  0  0
  190.0570  172.2660  141.1090 C   0  0  0  0  0  0  0  0  0  0  0  0
  189.8400  172.2770  139.9240 C   0  0  0  0  0  3  0  0  0  0  0  0
  189.1200  175.4170  142.7920 C   0  0  0  0  0  2  0  0  0  0  0  0
  187.7660  174.8730  142.3540 C   0  0  0  0  0  2  0  0  0  0  0  0
  186.6540  175.8350  142.7350 C   0  0  0  0  0  2  0  0  0  0  0  0
  186.0390  179.1650  142.6070 O   0  0  0  0  0  0  0  0  0  0  0  0
  185.3970  178.5320  143.6750 C   0  0  2  0  0  3  0  0  0  0  0  0
  184.7950  177.5430  146.2470 C   0  0  0  0  0  3  0  0  0  0  0  0
  184.7780  179.5030  144.6710 C   0  0  0  0  0  2  0  0  0  0  0  0
  185.7690  176.7790  145.3740 C   0  0  0  0  0  2  0  0  0  0  0  0
  187.2270  177.1600  143.2410 C   0  0  1  0  0  3  0  0  0  0  0  0
  184.3130  178.7590  145.9080 C   0  0  0  0  0  3  0  0  0  0  0  0
  187.0270  178.2430  142.1800 C   0  0  0  0  0  2  0  0  0  0  0  0
  186.4410  177.7310  144.3860 C   0  0  1  0  0  3  0  0  0  0  0  0
  1 18  1  6  0  0  0
  1  5  1  0  0  0  0
  4  9  1  0  0  0  0
  5  8  2  0  0  0  0
  5 10  1  0  0  0  0
  6  8  1  0  0  0  0
  7  4  1  0  0  0  0
  8 12  1  0  0  0  0
  9  3  2  0  0  0  0
 10  2  2  0  0  0  0
 11  6  2  0  0  0  0
 11  7  1  0  0  0  0
 12  2  1  6  0  0  0
 12  9  1  0  0  0  0
 14  1  1  0  0  0  0
 14 13  1  1  0  0  0
 15 14  1  0  0  0  0
 16 15  1  0  0  0  0
 17 16  3  0  0  0  0
 19 20  1  0  0  0  0
 19 18  1  0  0  0  0
 21 22  1  0  0  0  0
 22 29  1  0  0  0  0
 22 24  1  1  0  0  0
 24 27  1  0  0  0  0
 25 23  1  0  0  0  0
 26 20  1  6  0  0  0
 26 29  1  0  0  0  0
 27 23  2  0  0  0  0
 28 21  1  0  0  0  0
 28 26  1  0  0  0  0
 29 25  1  6  0  0  0
M  END
>  <MODEL>
7

>  <REMARK>
 VINA RESULT:      -6.7      2.419      3.928
  Name = 
  8 active torsions:
  status: ('A' for Active; 'I' for Inactive)
    1  A    between atoms: C_1  and  C_17
    2  A    between atoms: C_1  and  C_21
    3  A    between atoms: C_5  and  O_8
    4  A    between atoms: O_8  and  C_9
    5  A    between atoms: C_9  and  C_15
    6  A    between atoms: C_11  and  C_15
    7  A    between atoms: C_15  and  C_17
    8  A    between atoms: C_21  and  C_26
                            x       y       z     vdW  Elec       q    Type
                         _______ _______ _______ _____ _____    ______ ____

>  <TORSDO>
F 8

$$$$
=
 OpenBabel11062422453D

 29 32  0  0  1  0  0  0  0  0999 V2000
  190.3880  175.6580  144.2950 C   0  0  1  0  0  3  0  0  0  0  0  0
  188.0800  174.9430  141.5860 C   0  0  0  0  0  3  0  0  0  0  0  0
  188.1920  172.6580  139.7350 O   0  0  0  0  0  0  0  0  0  0  0  0
  190.0100  171.8750  140.9290 N   0  0  0  0  0  2  0  0  0  0  0  0
  189.7240  175.3040  142.9950 C   0  0  0  0  0  0  0  0  0  0  0  0
  191.6530  174.1840  142.0080 N   0  0  0  0  0  0  0  0  0  0  0  0
  190.8920  171.8650  142.0900 C   0  0  0  0  0  2  0  0  0  0  0  0
  190.2990  174.6360  142.0130 C   0  0  0  0  0  0  0  0  0  0  0  0
  189.1210  172.9320  140.5390 C   0  0  0  0  0  0  0  0  0  0  0  0
  188.3370  175.4730  142.7390 N   0  0  0  0  0  0  0  0  0  0  0  0
  191.9480  172.9220  141.9940 C   0  0  0  0  0  3  0  0  0  0  0  0
  189.3080  174.3770  140.9350 C   0  0  1  0  0  3  0  0  0  0  0  0
  190.6230  177.7450  143.1330 O   0  0  0  0  0  1  0  0  0  0  0  0
  191.0720  177.0270  144.2420 C   0  0  2  0  0  3  0  0  0  0  0  0
  192.4780  176.8670  144.1530 O   0  0  0  0  0  0  0  0  0  0  0  0
  193.2140  176.6200  145.2770 C   0  0  0  0  0  0  0  0  0  0  0  0
  193.8630  176.4010  146.2690 C   0  0  0  0  0  3  0  0  0  0  0  0
  189.4070  175.5360  145.4640 C   0  0  0  0  0  2  0  0  0  0  0  0
  189.6600  176.5760  146.5480 C   0  0  0  0  0  2  0  0  0  0  0  0
  188.4840  177.5310  146.6580 C   0  0  0  0  0  2  0  0  0  0  0  0
  185.1890  177.7550  147.4170 O   0  0  0  0  0  0  0  0  0  0  0  0
  185.5320  178.4590  146.2590 C   0  0  2  0  0  3  0  0  0  0  0  0
  185.9440  179.1540  143.5570 C   0  0  0  0  0  3  0  0  0  0  0  0
  184.3260  178.9540  145.4720 C   0  0  0  0  0  2  0  0  0  0  0  0
  186.9670  178.2820  144.2570 C   0  0  0  0  0  2  0  0  0  0  0  0
  187.1630  176.8040  146.4010 C   0  0  1  0  0  3  0  0  0  0  0  0
  184.7660  179.4930  144.1250 C   0  0  0  0  0  3  0  0  0  0  0  0
  186.2820  176.8840  147.6490 C   0  0  0  0  0  2  0  0  0  0  0  0
  186.3000  177.5110  145.3950 C   0  0  1  0  0  3  0  0  0  0  0  0
  1 18  1  1  0  0  0
  2 10  2  0  0  0  0
  3  9  2  0  0  0  0
  4  7  1  0  0  0  0
  5  1  1  0  0  0  0
  6  8  1  0  0  0  0
  8  5  2  0  0  0  0
  9  4  1  0  0  0  0
  9 12  1  0  0  0  0
 10  5  1  0  0  0  0
 11  6  2  0  0  0  0
 11  7  1  0  0  0  0
 12  2  1  1  0  0  0
 12  8  1  0  0  0  0
 14 13  1  6  0  0  0
 14  1  1  0  0  0  0
 15 14  1  0  0  0  0
 15 16  1  0  0  0  0
 16 17  3  0  0  0  0
 18 19  1  0  0  0  0
 19 20  1  0  0  0  0
 21 28  1  0  0  0  0
 22 24  1  6  0  0  0
 22 21  1  0  0  0  0
 23 27  2  0  0  0  0
 23 25  1  0  0  0  0
 26 20  1  1  0  0  0
 26 28  1  0  0  0  0
 27 24  1  0  0  0  0
 29 25  1  6  0  0  0
 29 22  1  0  0  0  0
 29 26  1  0  0  0  0
M  END
>  <MODEL>
8

>  <REMARK>
 VINA RESULT:      -6.6      2.569      4.991
  Name = 
  8 active torsions:
  status: ('A' for Active; 'I' for Inactive)
    1  A    between atoms: C_1  and  C_17
    2  A    between atoms: C_1  and  C_21
    3  A    between atoms: C_5  and  O_8
    4  A    between atoms: O_8  and  C_9
    5  A    between atoms: C_9  and  C_15
    6  A    between atoms: C_11  and  C_15
    7  A    between atoms: C_15  and  C_17
    8  A    between atoms: C_21  and  C_26
                            x       y       z     vdW  Elec       q    Type
                         _______ _______ _______ _____ _____    ______ ____

>  <TORSDO>
F 8

$$$$
=
 OpenBabel11062422453D

 29 32  0  0  1  0  0  0  0  0999 V2000
  189.6500  174.4300  141.7780 C   0  0  1  0  0  3  0  0  0  0  0  0
  191.8010  173.5300  144.5590 C   0  0  0  0  0  3  0  0  0  0  0  0
  192.4190  175.1840  146.9130 O   0  0  0  0  0  0  0  0  0  0  0  0
  190.9560  176.7730  146.0890 N   0  0  0  0  0  2  0  0  0  0  0  0
  190.6660  174.3770  142.8820 C   0  0  0  0  0  0  0  0  0  0  0  0
  190.9950  176.7880  143.0570 N   0  0  0  0  0  0  0  0  0  0  0  0
  189.8950  177.2170  145.1940 C   0  0  0  0  0  2  0  0  0  0  0  0
  191.2270  175.4330  143.4410 C   0  0  0  0  0  0  0  0  0  0  0  0
  191.8030  175.6280  145.9100 C   0  0  0  0  0  0  0  0  0  0  0  0
  191.0040  173.1960  143.5940 N   0  0  0  0  0  0  0  0  0  0  0  0
  190.4310  177.6340  143.8600 C   0  0  0  0  0  3  0  0  0  0  0  0
  192.0970  175.0010  144.5680 C   0  0  1  0  0  3  0  0  0  0  0  0
  190.7840  173.3420  139.9640 O   0  0  0  0  0  1  0  0  0  0  0  0
  189.7240  173.2050  140.8620 C   0  0  2  0  0  3  0  0  0  0  0  0
  188.5150  173.0650  140.1340 O   0  0  0  0  0  0  0  0  0  0  0  0
  188.3720  173.6700  138.9180 C   0  0  0  0  0  0  0  0  0  0  0  0
  188.2460  174.2040  137.8440 C   0  0  0  0  0  3  0  0  0  0  0  0
  188.2430  174.6620  142.3360 C   0  0  0  0  0  2  0  0  0  0  0  0
  187.6250  175.9610  141.8360 C   0  0  0  0  0  2  0  0  0  0  0  0
  186.4390  176.3560  142.7000 C   0  0  0  0  0  2  0  0  0  0  0  0
  184.5560  179.1130  143.2820 O   0  0  0  0  0  0  0  0  0  0  0  0
  184.6350  178.2610  144.3890 C   0  0  2  0  0  3  0  0  0  0  0  0
  185.4150  177.0970  146.8360 C   0  0  0  0  0  3  0  0  0  0  0  0
  184.0740  178.8730  145.6650 C   0  0  0  0  0  2  0  0  0  0  0  0
  186.2390  176.8220  145.5940 C   0  0  0  0  0  2  0  0  0  0  0  0
  186.5790  177.7960  143.1950 C   0  0  1  0  0  3  0  0  0  0  0  0
  184.4070  177.9960  146.8560 C   0  0  0  0  0  3  0  0  0  0  0  0
  185.6100  178.6990  142.4310 C   0  0  0  0  0  2  0  0  0  0  0  0
  186.0870  177.9740  144.6030 C   0  0  1  0  0  3  0  0  0  0  0  0
  1 18  1  1  0  0  0
  1  5  1  0  0  0  0
  5  8  2  0  0  0  0
  5 10  1  0  0  0  0
  6  8  1  0  0  0  0
  6 11  2  0  0  0  0
  7  4  1  0  0  0  0
  8 12  1  0  0  0  0
  9  4  1  0  0  0  0
  9  3  2  0  0  0  0
 10  2  2  0  0  0  0
 11  7  1  0  0  0  0
 12  2  1  1  0  0  0
 12  9  1  0  0  0  0
 14 13  1  6  0  0  0
 14  1  1  0  0  0  0
 15 14  1  0  0  0  0
 16 15  1  0  0  0  0
 17 16  3  0  0  0  0
 19 18  1  0  0  0  0
 19 20  1  0  0  0  0
 21 22  1  0  0  0  0
 22 29  1  0  0  0  0
 22 24  1  1  0  0  0
 23 27  2  0  0  0  0
 24 27  1  0  0  0  0
 25 23  1  0  0  0  0
 26 20  1  6  0  0  0
 26 29  1  0  0  0  0
 28 26  1  0  0  0  0
 28 21  1  0  0  0  0
 29 25  1  1  0  0  0
M  END
>  <MODEL>
9

>  <REMARK>
 VINA RESULT:      -6.6      2.599      4.513
  Name = 
  8 active torsions:
  status: ('A' for Active; 'I' for Inactive)
    1  A    between atoms: C_1  and  C_17
    2  A    between atoms: C_1  and  C_21
    3  A    between atoms: C_5  and  O_8
    4  A    between atoms: O_8  and  C_9
    5  A    between atoms: C_9  and  C_15
    6  A    between atoms: C_11  and  C_15
    7  A    between atoms: C_15  and  C_17
    8  A    between atoms: C_21  and  C_26
                            x       y       z     vdW  Elec       q    Type
                         _______ _______ _______ _____ _____    ______ ____

>  <TORSDO>
F 8

$$$$
