=
 OpenBabel11072408253D

 34 37  0  0  1  0  0  0  0  0999 V2000
  187.9310  173.3170  141.1450 O   0  0  0  0  0  1  0  0  0  0  0  0
  188.5950  174.5390  141.2880 C   0  0  1  0  0  3  0  0  0  0  0  0
  188.1220  175.2640  142.5650 C   0  0  1  0  0  3  0  0  0  0  0  0
  189.2740  175.9420  143.3420 C   0  0  1  0  0  3  0  0  0  0  0  0
  189.4780  177.3870  142.9050 C   0  0  0  0  0  1  0  0  0  0  0  0
  188.5400  176.6770  146.8150 C   0  0  0  0  0  3  0  0  0  0  0  0
  189.3070  174.9020  145.6140 C   0  0  0  0  0  0  0  0  0  0  0  0
  188.5920  177.0390  145.5720 N   0  0  0  0  0  0  0  0  0  0  0  0
  189.7650  173.6260  145.1790 N   0  0  0  0  0  1  0  0  0  0  0  0
  188.9760  175.2570  147.0150 C   0  0  0  0  0  2  0  0  0  0  0  0
  189.0620  175.9280  144.8250 C   0  0  0  0  0  0  0  0  0  0  0  0
  187.0730  176.8250  141.1460 O   0  0  0  0  0  0  0  0  0  0  0  0
  187.0290  176.2550  142.2240 C   0  0  0  0  0  0  0  0  0  0  0  0
  185.8960  176.5810  143.1600 C   0  0  0  0  0  2  0  0  0  0  0  0
  185.9810  177.8910  143.6360 O   0  0  0  0  0  0  0  0  0  0  0  0
  184.7940  178.0910  144.3390 C   0  0  0  0  0  2  0  0  0  0  0  0
  184.8600  176.9190  146.4110 O   0  0  0  0  0  0  0  0  0  0  0  0
  185.5910  179.1240  146.4970 N   0  0  0  0  0  1  0  0  0  0  0  0
  185.0630  178.0010  145.8000 C   0  0  0  0  0  0  0  0  0  0  0  0
  189.9710  174.3020  141.3310 O   0  0  0  0  0  0  0  0  0  0  0  0
  190.0900  172.9410  141.6230 C   0  0  0  0  0  2  0  0  0  0  0  0
  191.4560  172.6590  142.2180 C   0  0  0  0  0  2  0  0  0  0  0  0
  193.2560  173.8630  145.6450 C   0  0  0  0  0  2  0  0  0  0  0  0
  193.3410  175.3810  145.4960 C   0  0  1  0  0  0  0  0  0  0  0  0
  192.3900  173.8310  141.9560 C   0  0  1  0  0  3  0  0  0  0  0  0
  193.5430  171.9650  144.2770 O   0  0  0  0  0  0  0  0  0  0  0  0
  193.9450  175.3250  143.1540 O   0  0  0  0  0  0  0  0  0  0  0  0
  193.4250  173.1800  144.3190 C   0  0  0  0  0  0  0  0  0  0  0  0
  192.6150  176.1260  146.5920 C   0  0  0  0  0  2  0  0  0  0  0  0
  194.6490  177.4660  146.1100 C   0  0  0  0  0  1  0  0  0  0  0  0
  194.1380  176.1120  146.5710 C   0  0  2  0  0  3  0  0  0  0  0  0
  193.1510  175.9990  144.1020 C   0  0  0  0  0  2  0  0  0  0  0  0
  193.4380  174.0150  143.0510 C   0  0  1  0  0  0  0  0  0  0  0  0
  193.8160  173.3150  141.7670 C   0  0  0  0  0  2  0  0  0  0  0  0
  2  1  1  1  0  0  0
  2 20  1  0  0  0  0
  2  3  1  0  0  0  0
  3 13  1  6  0  0  0
  3  4  1  0  0  0  0
  4  5  1  6  0  0  0
  4 11  1  0  0  0  0
  6 10  1  0  0  0  0
  7 10  1  0  0  0  0
  8  6  2  0  0  0  0
  9  7  1  0  0  0  0
 11  8  1  0  0  0  0
 11  7  2  0  0  0  0
 12 13  2  0  0  0  0
 13 14  1  0  0  0  0
 14 15  1  0  0  0  0
 15 16  1  0  0  0  0
 16 19  1  0  0  0  0
 19 17  2  0  0  0  0
 19 18  1  0  0  0  0
 20 21  1  0  0  0  0
 21 22  1  0  0  0  0
 24 32  1  6  0  0  0
 24 23  1  0  0  0  0
 24 31  1  0  0  0  0
 24 29  1  0  0  0  0
 25 22  1  1  0  0  0
 25 33  1  0  0  0  0
 26 28  2  0  0  0  0
 27 32  1  0  0  0  0
 28 23  1  0  0  0  0
 31 30  1  6  0  0  0
 31 29  1  0  0  0  0
 33 34  1  6  0  0  0
 33 27  1  0  0  0  0
 33 28  1  0  0  0  0
 34 25  1  0  0  0  0
M  END
>  <MODEL>
1

>  <REMARK>
 VINA RESULT:      -6.2      0.000      0.000
  Name = 
  12 active torsions:
  status: ('A' for Active; 'I' for Inactive)
    1  A    between atoms: C_3  and  C_22
    2  A    between atoms: C_7  and  C_22
    3  A    between atoms: C_7  and  O_34
    4  A    between atoms: C_9  and  O_25
    5  A    between atoms: C_9  and  C_29
    6  A    between atoms: C_10  and  C_28
    7  A    between atoms: C_10  and  C_30
    8  A    between atoms: C_21  and  O_25
    9  A    between atoms: C_21  and  C_32
   10  A    between atoms: C_24  and  C_28
   11  A    between atoms: C_24  and  O_34
   12  A    between atoms: C_28  and  C_32
                            x       y       z     vdW  Elec       q    Type
                         _______ _______ _______ _____ _____    ______ ____

>  <TORSDO>
F 12

$$$$
=
 OpenBabel11072408253D

 34 37  0  0  1  0  0  0  0  0999 V2000
  191.4510  176.8060  148.1690 O   0  0  0  0  0  1  0  0  0  0  0  0
  191.2120  175.7230  147.3160 C   0  0  1  0  0  3  0  0  0  0  0  0
  190.0610  176.0480  146.3420 C   0  0  1  0  0  3  0  0  0  0  0  0
  190.2850  175.4740  144.9220 C   0  0  1  0  0  3  0  0  0  0  0  0
  189.7580  174.0500  144.7990 C   0  0  0  0  0  1  0  0  0  0  0  0
  188.1760  176.8960  142.3400 C   0  0  0  0  0  3  0  0  0  0  0  0
  190.1400  177.4220  143.3640 C   0  0  0  0  0  0  0  0  0  0  0  0
  188.4230  175.9700  143.2100 N   0  0  0  0  0  2  0  0  0  0  0  0
  191.3390  178.0480  143.8080 N   0  0  0  0  0  1  0  0  0  0  0  0
  189.2300  177.9620  142.3250 C   0  0  0  0  0  3  0  0  0  0  0  0
  189.6430  176.3050  143.8530 C   0  0  0  0  0  0  0  0  0  0  0  0
  188.7370  174.5950  147.6410 O   0  0  0  0  0  0  0  0  0  0  0  0
  188.7420  175.5820  146.9220 C   0  0  0  0  0  0  0  0  0  0  0  0
  187.4340  176.2710  146.6440 C   0  0  0  0  0  2  0  0  0  0  0  0
  187.6040  177.6430  146.4470 O   0  0  0  0  0  0  0  0  0  0  0  0
  186.5780  178.0080  145.5770 C   0  0  0  0  0  2  0  0  0  0  0  0
  184.3930  178.9160  145.8470 O   0  0  0  0  0  0  0  0  0  0  0  0
  185.8690  179.3500  147.5900 N   0  0  0  0  0  1  0  0  0  0  0  0
  185.5520  178.7870  146.3220 C   0  0  0  0  0  0  0  0  0  0  0  0
  192.3870  175.4310  146.6190 O   0  0  0  0  0  0  0  0  0  0  0  0
  193.2460  176.4950  146.9060 C   0  0  0  0  0  2  0  0  0  0  0  0
  194.6090  176.2350  146.2960 C   0  0  0  0  0  2  0  0  0  0  0  0
  193.9300  175.7310  142.3320 C   0  0  0  0  0  2  0  0  0  0  0  0
  193.1970  174.3930  142.2560 C   0  0  1  0  0  0  0  0  0  0  0  0
  194.7360  174.7700  145.9070 C   0  0  1  0  0  3  0  0  0  0  0  0
  195.7340  176.6580  143.5330 O   0  0  0  0  0  0  0  0  0  0  0  0
  194.5730  173.3100  143.9260 O   0  0  0  0  0  0  0  0  0  0  0  0
  194.9490  175.7280  143.4350 C   0  0  0  0  0  0  0  0  0  0  0  0
  191.8260  174.5030  141.6330 C   0  0  0  0  0  2  0  0  0  0  0  0
  192.7480  172.3390  140.8370 C   0  0  0  0  0  1  0  0  0  0  0  0
  192.9570  173.8440  140.8550 C   0  0  2  0  0  3  0  0  0  0  0  0
  193.2480  173.4530  143.4710 C   0  0  0  0  0  2  0  0  0  0  0  0
  194.9770  174.5680  144.4140 C   0  0  1  0  0  0  0  0  0  0  0  0
  196.1420  174.5040  145.3730 C   0  0  0  0  0  2  0  0  0  0  0  0
  2  1  1  1  0  0  0
  3 13  1  1  0  0  0
  3  2  1  0  0  0  0
  4  5  1  1  0  0  0
  4  3  1  0  0  0  0
  6  8  1  0  0  0  0
  7  9  1  0  0  0  0
  7 11  2  0  0  0  0
  8 11  1  0  0  0  0
 10  6  2  0  0  0  0
 10  7  1  0  0  0  0
 11  4  1  0  0  0  0
 13 12  2  0  0  0  0
 14 13  1  0  0  0  0
 15 14  1  0  0  0  0
 16 19  1  0  0  0  0
 16 15  1  0  0  0  0
 17 19  2  0  0  0  0
 19 18  1  0  0  0  0
 20 21  1  0  0  0  0
 20  2  1  0  0  0  0
 22 21  1  0  0  0  0
 23 28  1  0  0  0  0
 24 29  1  1  0  0  0
 24 23  1  0  0  0  0
 24 32  1  0  0  0  0
 25 22  1  6  0  0  0
 27 33  1  0  0  0  0
 28 26  2  0  0  0  0
 28 33  1  0  0  0  0
 31 30  1  1  0  0  0
 31 29  1  0  0  0  0
 31 24  1  0  0  0  0
 32 27  1  0  0  0  0
 33 34  1  1  0  0  0
 33 25  1  0  0  0  0
 34 25  1  0  0  0  0
M  END
>  <MODEL>
2

>  <REMARK>
 VINA RESULT:      -6.1      2.403      4.644
  Name = 
  12 active torsions:
  status: ('A' for Active; 'I' for Inactive)
    1  A    between atoms: C_3  and  C_22
    2  A    between atoms: C_7  and  C_22
    3  A    between atoms: C_7  and  O_34
    4  A    between atoms: C_9  and  O_25
    5  A    between atoms: C_9  and  C_29
    6  A    between atoms: C_10  and  C_28
    7  A    between atoms: C_10  and  C_30
    8  A    between atoms: C_21  and  O_25
    9  A    between atoms: C_21  and  C_32
   10  A    between atoms: C_24  and  C_28
   11  A    between atoms: C_24  and  O_34
   12  A    between atoms: C_28  and  C_32
                            x       y       z     vdW  Elec       q    Type
                         _______ _______ _______ _____ _____    ______ ____

>  <TORSDO>
F 12

$$$$
=
 OpenBabel11072408253D

 34 37  0  0  1  0  0  0  0  0999 V2000
  190.5390  171.7740  143.3000 O   0  0  0  0  0  1  0  0  0  0  0  0
  190.9750  173.0340  143.7240 C   0  0  1  0  0  3  0  0  0  0  0  0
  191.7090  173.7630  142.5810 C   0  0  1  0  0  3  0  0  0  0  0  0
  193.2170  173.9680  142.8590 C   0  0  1  0  0  3  0  0  0  0  0  0
  193.9280  174.6140  141.6760 C   0  0  0  0  0  1  0  0  0  0  0  0
  193.6540  176.6100  145.3030 C   0  0  0  0  0  3  0  0  0  0  0  0
  193.8720  174.3450  145.2410 C   0  0  0  0  0  0  0  0  0  0  0  0
  193.3460  176.2200  144.1060 N   0  0  0  0  0  0  0  0  0  0  0  0
  194.0730  172.9700  145.5520 N   0  0  0  0  0  1  0  0  0  0  0  0
  194.0200  175.4660  146.1990 C   0  0  0  0  0  2  0  0  0  0  0  0
  193.4740  174.8070  144.0740 C   0  0  0  0  0  0  0  0  0  0  0  0
  192.1590  172.0470  141.0310 O   0  0  0  0  0  0  0  0  0  0  0  0
  191.4850  173.0360  141.2720 C   0  0  0  0  0  0  0  0  0  0  0  0
  190.4780  173.4820  140.2470 C   0  0  0  0  0  2  0  0  0  0  0  0
  189.1700  173.3710  140.7250 O   0  0  0  0  0  0  0  0  0  0  0  0
  188.5080  174.4860  140.2140 C   0  0  0  0  0  2  0  0  0  0  0  0
  187.3910  174.7370  142.3020 O   0  0  0  0  0  0  0  0  0  0  0  0
  188.1520  176.7120  141.3420 N   0  0  0  0  0  1  0  0  0  0  0  0
  187.9720  175.3010  141.3370 C   0  0  0  0  0  0  0  0  0  0  0  0
  189.8710  173.7700  144.1590 O   0  0  0  0  0  0  0  0  0  0  0  0
  190.0780  173.9500  145.5290 C   0  0  0  0  0  2  0  0  0  0  0  0
  190.1860  175.4290  145.8430 C   0  0  0  0  0  2  0  0  0  0  0  0
  187.1050  177.6440  147.2690 C   0  0  0  0  0  2  0  0  0  0  0  0
  186.0840  177.6210  146.1330 C   0  0  1  0  0  0  0  0  0  0  0  0
  189.5470  176.2470  144.7310 C   0  0  1  0  0  3  0  0  0  0  0  0
  189.4430  177.8330  147.5010 O   0  0  0  0  0  0  0  0  0  0  0  0
  187.7280  177.8740  144.3760 O   0  0  0  0  0  0  0  0  0  0  0  0
  188.5080  177.6540  146.7360 C   0  0  0  0  0  0  0  0  0  0  0  0
  184.7580  177.0230  146.5400 C   0  0  0  0  0  2  0  0  0  0  0  0
  184.2040  178.8850  144.9930 C   0  0  0  0  0  1  0  0  0  0  0  0
  184.8700  178.5250  146.3100 C   0  0  2  0  0  3  0  0  0  0  0  0
  186.5480  177.1920  144.7320 C   0  0  0  0  0  2  0  0  0  0  0  0
  188.7380  177.4320  145.2510 C   0  0  1  0  0  0  0  0  0  0  0  0
  190.1380  177.6560  144.7290 C   0  0  0  0  0  2  0  0  0  0  0  0
  2  1  1  6  0  0  0
  2 20  1  0  0  0  0
  3 13  1  6  0  0  0
  3  4  1  0  0  0  0
  3  2  1  0  0  0  0
  4  5  1  6  0  0  0
  4 11  1  0  0  0  0
  6 10  1  0  0  0  0
  7  9  1  0  0  0  0
  7 10  1  0  0  0  0
  8  6  2  0  0  0  0
 11  8  1  0  0  0  0
 11  7  2  0  0  0  0
 12 13  2  0  0  0  0
 14 15  1  0  0  0  0
 14 13  1  0  0  0  0
 16 15  1  0  0  0  0
 16 19  1  0  0  0  0
 19 18  1  0  0  0  0
 19 17  2  0  0  0  0
 20 21  1  0  0  0  0
 21 22  1  0  0  0  0
 24 32  1  6  0  0  0
 24 31  1  0  0  0  0
 24 29  1  0  0  0  0
 24 23  1  0  0  0  0
 25 33  1  0  0  0  0
 25 22  1  1  0  0  0
 27 32  1  0  0  0  0
 27 33  1  0  0  0  0
 28 23  1  0  0  0  0
 28 26  2  0  0  0  0
 31 30  1  6  0  0  0
 31 29  1  0  0  0  0
 33 34  1  6  0  0  0
 33 28  1  0  0  0  0
 34 25  1  0  0  0  0
M  END
>  <MODEL>
3

>  <REMARK>
 VINA RESULT:      -5.9      2.233      6.110
  Name = 
  12 active torsions:
  status: ('A' for Active; 'I' for Inactive)
    1  A    between atoms: C_3  and  C_22
    2  A    between atoms: C_7  and  C_22
    3  A    between atoms: C_7  and  O_34
    4  A    between atoms: C_9  and  O_25
    5  A    between atoms: C_9  and  C_29
    6  A    between atoms: C_10  and  C_28
    7  A    between atoms: C_10  and  C_30
    8  A    between atoms: C_21  and  O_25
    9  A    between atoms: C_21  and  C_32
   10  A    between atoms: C_24  and  C_28
   11  A    between atoms: C_24  and  O_34
   12  A    between atoms: C_28  and  C_32
                            x       y       z     vdW  Elec       q    Type
                         _______ _______ _______ _____ _____    ______ ____

>  <TORSDO>
F 12

$$$$
=
 OpenBabel11072408253D

 34 37  0  0  1  0  0  0  0  0999 V2000
  191.4230  178.5640  143.7580 O   0  0  0  0  0  1  0  0  0  0  0  0
  192.1050  177.3540  143.5820 C   0  0  1  0  0  3  0  0  0  0  0  0
  192.6910  176.8670  144.9230 C   0  0  1  0  0  3  0  0  0  0  0  0
  192.0340  175.5630  145.4360 C   0  0  1  0  0  3  0  0  0  0  0  0
  192.9020  174.8620  146.4730 C   0  0  0  0  0  1  0  0  0  0  0  0
  189.0620  176.8460  147.0670 C   0  0  0  0  0  3  0  0  0  0  0  0
  189.7150  174.8980  146.0880 C   0  0  0  0  0  0  0  0  0  0  0  0
  190.2790  177.0050  146.6530 N   0  0  0  0  0  0  0  0  0  0  0  0
  189.7840  173.5870  145.5370 N   0  0  0  0  0  1  0  0  0  0  0  0
  188.5250  175.4830  146.7510 C   0  0  0  0  0  2  0  0  0  0  0  0
  190.6800  175.7920  146.0360 C   0  0  0  0  0  0  0  0  0  0  0  0
  194.9040  177.4350  145.4970 O   0  0  0  0  0  0  0  0  0  0  0  0
  194.1930  176.7190  144.8100 C   0  0  0  0  0  0  0  0  0  0  0  0
  194.8530  175.7380  143.8790 C   0  0  0  0  0  2  0  0  0  0  0  0
  195.1830  176.3280  142.6570 O   0  0  0  0  0  0  0  0  0  0  0  0
  196.5730  176.2540  142.5910 C   0  0  0  0  0  2  0  0  0  0  0  0
  196.8790  174.0550  141.7310 O   0  0  0  0  0  0  0  0  0  0  0  0
  197.4040  175.7750  140.2590 N   0  0  0  0  0  1  0  0  0  0  0  0
  196.9680  175.2940  141.5250 C   0  0  0  0  0  0  0  0  0  0  0  0
  191.2200  176.4120  143.0520 O   0  0  0  0  0  0  0  0  0  0  0  0
  190.1470  177.1630  142.5670 C   0  0  0  0  0  2  0  0  0  0  0  0
  189.1060  176.2420  141.9620 C   0  0  0  0  0  2  0  0  0  0  0  0
  185.8520  178.6260  142.3640 C   0  0  0  0  0  2  0  0  0  0  0  0
  185.5740  178.6120  143.8660 C   0  0  1  0  0  0  0  0  0  0  0  0
  188.1800  175.7160  143.0490 C   0  0  1  0  0  3  0  0  0  0  0  0
  186.5020  177.0860  140.7020 O   0  0  0  0  0  0  0  0  0  0  0  0
  186.0320  176.2510  144.1360 O   0  0  0  0  0  0  0  0  0  0  0  0
  186.3780  177.3000  141.8980 C   0  0  0  0  0  0  0  0  0  0  0  0
  185.6300  179.9850  144.4930 C   0  0  0  0  0  2  0  0  0  0  0  0
  183.7880  178.7950  145.6580 C   0  0  0  0  0  1  0  0  0  0  0  0
  184.2850  179.2930  144.3120 C   0  0  2  0  0  3  0  0  0  0  0  0
  186.2230  177.5160  144.7270 C   0  0  0  0  0  2  0  0  0  0  0  0
  186.7550  176.2490  142.9280 C   0  0  1  0  0  0  0  0  0  0  0  0
  187.0800  174.8660  142.4150 C   0  0  0  0  0  2  0  0  0  0  0  0
  2  1  1  1  0  0  0
  2  3  1  0  0  0  0
  3 13  1  6  0  0  0
  3  4  1  0  0  0  0
  4 11  1  0  0  0  0
  4  5  1  1  0  0  0
  7 10  1  0  0  0  0
  8  6  2  0  0  0  0
  9  7  1  0  0  0  0
 10  6  1  0  0  0  0
 11  7  2  0  0  0  0
 11  8  1  0  0  0  0
 13 12  2  0  0  0  0
 14 13  1  0  0  0  0
 15 14  1  0  0  0  0
 16 15  1  0  0  0  0
 18 19  1  0  0  0  0
 19 17  2  0  0  0  0
 19 16  1  0  0  0  0
 20  2  1  0  0  0  0
 21 20  1  0  0  0  0
 22 21  1  0  0  0  0
 24 23  1  6  0  0  0
 24 31  1  0  0  0  0
 24 29  1  0  0  0  0
 24 32  1  0  0  0  0
 25 22  1  6  0  0  0
 26 28  2  0  0  0  0
 27 32  1  0  0  0  0
 28 23  1  0  0  0  0
 28 33  1  0  0  0  0
 31 29  1  0  0  0  0
 31 30  1  1  0  0  0
 33 34  1  6  0  0  0
 33 25  1  0  0  0  0
 33 27  1  0  0  0  0
 34 25  1  0  0  0  0
M  END
>  <MODEL>
4

>  <REMARK>
 VINA RESULT:      -5.9      2.514      7.752
  Name = 
  12 active torsions:
  status: ('A' for Active; 'I' for Inactive)
    1  A    between atoms: C_3  and  C_22
    2  A    between atoms: C_7  and  C_22
    3  A    between atoms: C_7  and  O_34
    4  A    between atoms: C_9  and  O_25
    5  A    between atoms: C_9  and  C_29
    6  A    between atoms: C_10  and  C_28
    7  A    between atoms: C_10  and  C_30
    8  A    between atoms: C_21  and  O_25
    9  A    between atoms: C_21  and  C_32
   10  A    between atoms: C_24  and  C_28
   11  A    between atoms: C_24  and  O_34
   12  A    between atoms: C_28  and  C_32
                            x       y       z     vdW  Elec       q    Type
                         _______ _______ _______ _____ _____    ______ ____

>  <TORSDO>
F 12

$$$$
=
 OpenBabel11072408253D

 34 37  0  0  1  0  0  0  0  0999 V2000
  192.3410  175.3350  142.3350 O   0  0  0  0  0  1  0  0  0  0  0  0
  192.1850  176.3120  143.3240 C   0  0  1  0  0  3  0  0  0  0  0  0
  193.4480  176.3940  144.2050 C   0  0  1  0  0  3  0  0  0  0  0  0
  193.2550  175.7610  145.6040 C   0  0  1  0  0  3  0  0  0  0  0  0
  193.9580  176.5670  146.6900 C   0  0  0  0  0  1  0  0  0  0  0  0
  189.8690  176.1620  146.8340 C   0  0  0  0  0  3  0  0  0  0  0  0
  191.0740  174.5530  145.7660 C   0  0  0  0  0  0  0  0  0  0  0  0
  191.0670  176.6230  146.6570 N   0  0  0  0  0  2  0  0  0  0  0  0
  191.5120  173.3790  145.0900 N   0  0  0  0  0  1  0  0  0  0  0  0
  189.7020  174.7810  146.2770 C   0  0  0  0  0  3  0  0  0  0  0  0
  191.8130  175.6210  145.9840 C   0  0  0  0  0  0  0  0  0  0  0  0
  195.1030  176.3780  142.5290 O   0  0  0  0  0  0  0  0  0  0  0  0
  194.6270  175.7800  143.4810 C   0  0  0  0  0  0  0  0  0  0  0  0
  195.2330  174.4590  143.8710 C   0  0  0  0  0  2  0  0  0  0  0  0
  196.5540  174.6040  144.3020 O   0  0  0  0  0  0  0  0  0  0  0  0
  196.5830  174.0110  145.5640 C   0  0  0  0  0  2  0  0  0  0  0  0
  195.7500  171.7990  145.8530 O   0  0  0  0  0  0  0  0  0  0  0  0
  197.7820  171.9540  144.7350 N   0  0  0  0  0  1  0  0  0  0  0  0
  196.6730  172.5330  145.4130 C   0  0  0  0  0  0  0  0  0  0  0  0
  191.9260  177.5390  142.7080 O   0  0  0  0  0  0  0  0  0  0  0  0
  190.7490  177.9970  143.3060 C   0  0  0  0  0  2  0  0  0  0  0  0
  189.5500  177.5450  142.4960 C   0  0  0  0  0  2  0  0  0  0  0  0
  186.0070  179.1630  143.6210 C   0  0  0  0  0  2  0  0  0  0  0  0
  185.7640  178.5760  145.0110 C   0  0  1  0  0  0  0  0  0  0  0  0
  188.7280  176.5460  143.2970 C   0  0  1  0  0  3  0  0  0  0  0  0
  186.8300  178.4200  141.5400 O   0  0  0  0  0  0  0  0  0  0  0  0
  186.5490  176.3600  144.4370 O   0  0  0  0  0  0  0  0  0  0  0  0
  186.7020  178.1740  142.7300 C   0  0  0  0  0  0  0  0  0  0  0  0
  185.6430  179.6300  146.0860 C   0  0  0  0  0  2  0  0  0  0  0  0
  184.0070  177.8640  146.6950 C   0  0  0  0  0  1  0  0  0  0  0  0
  184.4040  178.8720  145.6300 C   0  0  2  0  0  3  0  0  0  0  0  0
  186.5750  177.3450  145.4440 C   0  0  0  0  0  2  0  0  0  0  0  0
  187.2410  176.8870  143.3300 C   0  0  1  0  0  0  0  0  0  0  0  0
  187.7430  175.8360  142.3680 C   0  0  0  0  0  2  0  0  0  0  0  0
  2  1  1  6  0  0  0
  2  3  1  0  0  0  0
  3 13  1  6  0  0  0
  3  4  1  0  0  0  0
  4 11  1  0  0  0  0
  4  5  1  1  0  0  0
  7 11  2  0  0  0  0
  7 10  1  0  0  0  0
  8  6  1  0  0  0  0
  9  7  1  0  0  0  0
 10  6  2  0  0  0  0
 11  8  1  0  0  0  0
 12 13  2  0  0  0  0
 13 14  1  0  0  0  0
 14 15  1  0  0  0  0
 15 16  1  0  0  0  0
 18 19  1  0  0  0  0
 19 16  1  0  0  0  0
 19 17  2  0  0  0  0
 20 21  1  0  0  0  0
 20  2  1  0  0  0  0
 22 21  1  0  0  0  0
 24 23  1  6  0  0  0
 24 32  1  0  0  0  0
 24 31  1  0  0  0  0
 24 29  1  0  0  0  0
 25 22  1  6  0  0  0
 25 33  1  0  0  0  0
 26 28  2  0  0  0  0
 27 32  1  0  0  0  0
 28 33  1  0  0  0  0
 28 23  1  0  0  0  0
 31 29  1  0  0  0  0
 31 30  1  1  0  0  0
 33 34  1  6  0  0  0
 33 27  1  0  0  0  0
 34 25  1  0  0  0  0
M  END
>  <MODEL>
5

>  <REMARK>
 VINA RESULT:      -5.8      2.293      7.781
  Name = 
  12 active torsions:
  status: ('A' for Active; 'I' for Inactive)
    1  A    between atoms: C_3  and  C_22
    2  A    between atoms: C_7  and  C_22
    3  A    between atoms: C_7  and  O_34
    4  A    between atoms: C_9  and  O_25
    5  A    between atoms: C_9  and  C_29
    6  A    between atoms: C_10  and  C_28
    7  A    between atoms: C_10  and  C_30
    8  A    between atoms: C_21  and  O_25
    9  A    between atoms: C_21  and  C_32
   10  A    between atoms: C_24  and  C_28
   11  A    between atoms: C_24  and  O_34
   12  A    between atoms: C_28  and  C_32
                            x       y       z     vdW  Elec       q    Type
                         _______ _______ _______ _____ _____    ______ ____

>  <TORSDO>
F 12

$$$$
=
 OpenBabel11072408253D

 34 37  0  0  1  0  0  0  0  0999 V2000
  189.4460  172.9710  141.5720 O   0  0  0  0  0  1  0  0  0  0  0  0
  189.3720  173.4670  142.8780 C   0  0  1  0  0  3  0  0  0  0  0  0
  190.7440  174.0140  143.3250 C   0  0  1  0  0  3  0  0  0  0  0  0
  190.6720  174.8420  144.6300 C   0  0  1  0  0  3  0  0  0  0  0  0
  190.0650  174.0410  145.7750 C   0  0  0  0  0  1  0  0  0  0  0  0
  193.8040  175.5500  146.3110 C   0  0  0  0  0  3  0  0  0  0  0  0
  192.7070  176.2820  144.4560 C   0  0  0  0  0  0  0  0  0  0  0  0
  192.6900  174.8950  146.2320 N   0  0  0  0  0  2  0  0  0  0  0  0
  192.3220  176.9260  143.2470 N   0  0  0  0  0  1  0  0  0  0  0  0
  193.9790  176.5170  145.1800 C   0  0  0  0  0  3  0  0  0  0  0  0
  192.0120  175.3470  145.0710 C   0  0  0  0  0  0  0  0  0  0  0  0
  191.4870  171.9580  144.2040 O   0  0  0  0  0  0  0  0  0  0  0  0
  191.7410  172.8810  143.4460 C   0  0  0  0  0  0  0  0  0  0  0  0
  193.0390  172.8450  142.6850 C   0  0  0  0  0  2  0  0  0  0  0  0
  193.9720  172.0050  143.2960 O   0  0  0  0  0  0  0  0  0  0  0  0
  194.8660  172.8670  143.9280 C   0  0  0  0  0  2  0  0  0  0  0  0
  194.4990  171.4320  145.7930 O   0  0  0  0  0  0  0  0  0  0  0  0
  196.4000  172.7630  145.9260 N   0  0  0  0  0  1  0  0  0  0  0  0
  195.2210  172.3180  145.2650 C   0  0  0  0  0  0  0  0  0  0  0  0
  188.3970  174.4650  142.9270 O   0  0  0  0  0  0  0  0  0  0  0  0
  187.9520  174.5950  141.6090 C   0  0  0  0  0  2  0  0  0  0  0  0
  187.8810  176.0620  141.2320 C   0  0  0  0  0  2  0  0  0  0  0  0
  188.5430  177.5300  144.9520 C   0  0  0  0  0  2  0  0  0  0  0  0
  187.2360  177.2480  145.6920 C   0  0  1  0  0  0  0  0  0  0  0  0
  186.6160  176.6850  141.8010 C   0  0  1  0  0  3  0  0  0  0  0  0
  189.2040  178.2610  142.8100 O   0  0  0  0  0  0  0  0  0  0  0  0
  185.8130  177.8390  143.8280 O   0  0  0  0  0  0  0  0  0  0  0  0
  188.2880  177.8540  143.5080 C   0  0  0  0  0  0  0  0  0  0  0  0
  187.4210  176.3670  146.9050 C   0  0  0  0  0  2  0  0  0  0  0  0
  185.6770  178.0180  147.5380 C   0  0  0  0  0  1  0  0  0  0  0  0
  187.1180  177.8490  147.0870 C   0  0  2  0  0  3  0  0  0  0  0  0
  185.9810  176.9090  144.8720 C   0  0  0  0  0  2  0  0  0  0  0  0
  186.8920  177.6620  142.9410 C   0  0  1  0  0  0  0  0  0  0  0  0
  186.6340  178.1930  141.5510 C   0  0  0  0  0  2  0  0  0  0  0  0
  2  1  1  6  0  0  0
  2 20  1  0  0  0  0
  2  3  1  0  0  0  0
  3 13  1  1  0  0  0
  3  4  1  0  0  0  0
  4 11  1  0  0  0  0
  4  5  1  1  0  0  0
  7 11  2  0  0  0  0
  7 10  1  0  0  0  0
  8  6  1  0  0  0  0
  9  7  1  0  0  0  0
 10  6  2  0  0  0  0
 11  8  1  0  0  0  0
 13 12  2  0  0  0  0
 14 15  1  0  0  0  0
 14 13  1  0  0  0  0
 15 16  1  0  0  0  0
 16 19  1  0  0  0  0
 19 17  2  0  0  0  0
 19 18  1  0  0  0  0
 21 20  1  0  0  0  0
 22 21  1  0  0  0  0
 23 24  1  0  0  0  0
 24 32  1  6  0  0  0
 24 29  1  0  0  0  0
 24 31  1  0  0  0  0
 25 22  1  6  0  0  0
 25 33  1  0  0  0  0
 26 28  2  0  0  0  0
 27 32  1  0  0  0  0
 28 23  1  0  0  0  0
 29 31  1  0  0  0  0
 31 30  1  1  0  0  0
 33 34  1  6  0  0  0
 33 28  1  0  0  0  0
 33 27  1  0  0  0  0
 34 25  1  0  0  0  0
M  END
>  <MODEL>
6

>  <REMARK>
 VINA RESULT:      -5.7      2.260      6.965
  Name = 
  12 active torsions:
  status: ('A' for Active; 'I' for Inactive)
    1  A    between atoms: C_3  and  C_22
    2  A    between atoms: C_7  and  C_22
    3  A    between atoms: C_7  and  O_34
    4  A    between atoms: C_9  and  O_25
    5  A    between atoms: C_9  and  C_29
    6  A    between atoms: C_10  and  C_28
    7  A    between atoms: C_10  and  C_30
    8  A    between atoms: C_21  and  O_25
    9  A    between atoms: C_21  and  C_32
   10  A    between atoms: C_24  and  C_28
   11  A    between atoms: C_24  and  O_34
   12  A    between atoms: C_28  and  C_32
                            x       y       z     vdW  Elec       q    Type
                         _______ _______ _______ _____ _____    ______ ____

>  <TORSDO>
F 12

$$$$
=
 OpenBabel11072408253D

 34 37  0  0  1  0  0  0  0  0999 V2000
  191.0230  175.7720  142.3930 O   0  0  0  0  0  1  0  0  0  0  0  0
  190.2290  174.6340  142.2220 C   0  0  1  0  0  3  0  0  0  0  0  0
  191.0380  173.3590  142.5380 C   0  0  1  0  0  3  0  0  0  0  0  0
  190.9730  172.9530  144.0300 C   0  0  1  0  0  3  0  0  0  0  0  0
  191.5670  171.5690  144.2650 C   0  0  0  0  0  1  0  0  0  0  0  0
  193.3230  175.1080  145.7540 C   0  0  0  0  0  3  0  0  0  0  0  0
  191.1200  174.5630  145.9350 C   0  0  0  0  0  0  0  0  0  0  0  0
  193.0530  174.2550  144.8170 N   0  0  0  0  0  0  0  0  0  0  0  0
  189.7470  174.4730  146.3020 N   0  0  0  0  0  1  0  0  0  0  0  0
  192.1230  175.4350  146.5910 C   0  0  0  0  0  2  0  0  0  0  0  0
  191.6770  173.9240  144.9270 C   0  0  0  0  0  0  0  0  0  0  0  0
  189.6570  171.5300  141.9950 O   0  0  0  0  0  0  0  0  0  0  0  0
  190.5950  172.2250  141.6380 C   0  0  0  0  0  0  0  0  0  0  0  0
  191.2660  171.9060  140.3300 C   0  0  0  0  0  2  0  0  0  0  0  0
  190.3410  171.7990  139.2880 O   0  0  0  0  0  0  0  0  0  0  0  0
  190.1080  173.1130  138.8840 C   0  0  0  0  0  2  0  0  0  0  0  0
  187.8230  172.6560  139.3770 O   0  0  0  0  0  0  0  0  0  0  0  0
  188.1800  174.2990  137.7720 N   0  0  0  0  0  1  0  0  0  0  0  0
  188.6470  173.3200  138.6940 C   0  0  0  0  0  0  0  0  0  0  0  0
  189.1120  174.7350  143.0540 O   0  0  0  0  0  0  0  0  0  0  0  0
  188.0170  174.7310  142.1850 C   0  0  0  0  0  2  0  0  0  0  0  0
  187.9460  176.0490  141.4410 C   0  0  0  0  0  2  0  0  0  0  0  0
  188.1320  177.6380  145.1660 C   0  0  0  0  0  2  0  0  0  0  0  0
  186.7130  177.4690  145.7040 C   0  0  1  0  0  0  0  0  0  0  0  0
  186.6540  176.7740  141.7860 C   0  0  1  0  0  3  0  0  0  0  0  0
  189.1590  178.2320  143.1280 O   0  0  0  0  0  0  0  0  0  0  0  0
  185.6320  178.0630  143.6230 O   0  0  0  0  0  0  0  0  0  0  0  0
  188.1220  177.9130  143.6900 C   0  0  0  0  0  0  0  0  0  0  0  0
  186.6520  176.6340  146.9610 C   0  0  0  0  0  2  0  0  0  0  0  0
  184.9470  178.4140  147.2600 C   0  0  0  0  0  1  0  0  0  0  0  0
  186.4250  178.1380  147.0430 C   0  0  2  0  0  3  0  0  0  0  0  0
  185.5770  177.1720  144.7120 C   0  0  0  0  0  2  0  0  0  0  0  0
  186.8190  177.7810  142.9210 C   0  0  1  0  0  0  0  0  0  0  0  0
  186.8110  178.2650  141.4900 C   0  0  0  0  0  2  0  0  0  0  0  0
  2  1  1  1  0  0  0
  2  3  1  0  0  0  0
  2 20  1  0  0  0  0
  3 13  1  6  0  0  0
  3  4  1  0  0  0  0
  4  5  1  6  0  0  0
  4 11  1  0  0  0  0
  6 10  1  0  0  0  0
  7  9  1  0  0  0  0
  7 10  1  0  0  0  0
  8 11  1  0  0  0  0
  8  6  2  0  0  0  0
 11  7  2  0  0  0  0
 13 12  2  0  0  0  0
 14 13  1  0  0  0  0
 15 14  1  0  0  0  0
 16 15  1  0  0  0  0
 18 19  1  0  0  0  0
 19 16  1  0  0  0  0
 19 17  2  0  0  0  0
 21 20  1  0  0  0  0
 22 21  1  0  0  0  0
 23 24  1  0  0  0  0
 24 32  1  6  0  0  0
 24 29  1  0  0  0  0
 24 31  1  0  0  0  0
 25 22  1  6  0  0  0
 25 33  1  0  0  0  0
 26 28  2  0  0  0  0
 27 32  1  0  0  0  0
 28 23  1  0  0  0  0
 29 31  1  0  0  0  0
 31 30  1  6  0  0  0
 33 34  1  6  0  0  0
 33 27  1  0  0  0  0
 33 28  1  0  0  0  0
 34 25  1  0  0  0  0
M  END
>  <MODEL>
7

>  <REMARK>
 VINA RESULT:      -5.7      2.313      6.545
  Name = 
  12 active torsions:
  status: ('A' for Active; 'I' for Inactive)
    1  A    between atoms: C_3  and  C_22
    2  A    between atoms: C_7  and  C_22
    3  A    between atoms: C_7  and  O_34
    4  A    between atoms: C_9  and  O_25
    5  A    between atoms: C_9  and  C_29
    6  A    between atoms: C_10  and  C_28
    7  A    between atoms: C_10  and  C_30
    8  A    between atoms: C_21  and  O_25
    9  A    between atoms: C_21  and  C_32
   10  A    between atoms: C_24  and  C_28
   11  A    between atoms: C_24  and  O_34
   12  A    between atoms: C_28  and  C_32
                            x       y       z     vdW  Elec       q    Type
                         _______ _______ _______ _____ _____    ______ ____

>  <TORSDO>
F 12

$$$$
=
 OpenBabel11072408253D

 34 37  0  0  1  0  0  0  0  0999 V2000
  189.3260  172.4780  144.1870 O   0  0  0  0  0  1  0  0  0  0  0  0
  189.7390  173.6350  143.5180 C   0  0  1  0  0  3  0  0  0  0  0  0
  191.2650  173.8170  143.6480 C   0  0  1  0  0  3  0  0  0  0  0  0
  191.7950  173.5140  145.0700 C   0  0  1  0  0  3  0  0  0  0  0  0
  193.1800  172.8810  145.0340 C   0  0  0  0  0  1  0  0  0  0  0  0
  192.6990  176.5340  146.8600 C   0  0  0  0  0  3  0  0  0  0  0  0
  190.9060  175.1370  146.7490 C   0  0  0  0  0  0  0  0  0  0  0  0
  192.9840  175.5990  146.0100 N   0  0  0  0  0  0  0  0  0  0  0  0
  189.6380  174.5070  146.8970 N   0  0  0  0  0  1  0  0  0  0  0  0
  191.3270  176.3790  147.4410 C   0  0  0  0  0  2  0  0  0  0  0  0
  191.8610  174.7340  145.9370 C   0  0  0  0  0  0  0  0  0  0  0  0
  191.8390  171.7700  142.6330 O   0  0  0  0  0  0  0  0  0  0  0  0
  191.9780  172.9830  142.6050 C   0  0  0  0  0  0  0  0  0  0  0  0
  192.8620  173.5770  141.5420 C   0  0  0  0  0  2  0  0  0  0  0  0
  192.9220  174.9690  141.6400 O   0  0  0  0  0  0  0  0  0  0  0  0
  194.0880  175.3230  140.9630 C   0  0  0  0  0  2  0  0  0  0  0  0
  194.8680  175.8640  143.1470 O   0  0  0  0  0  0  0  0  0  0  0  0
  196.1080  176.7660  141.4000 N   0  0  0  0  0  1  0  0  0  0  0  0
  195.0200  176.0000  141.9040 C   0  0  0  0  0  0  0  0  0  0  0  0
  189.3600  173.5410  142.1770 O   0  0  0  0  0  0  0  0  0  0  0  0
  188.3140  174.4570  142.0360 C   0  0  0  0  0  2  0  0  0  0  0  0
  188.8580  175.8710  142.0850 C   0  0  0  0  0  2  0  0  0  0  0  0
  187.6040  177.2390  145.6890 C   0  0  0  0  0  2  0  0  0  0  0  0
  186.0950  177.3960  145.5130 C   0  0  1  0  0  0  0  0  0  0  0  0
  187.7240  176.8710  141.9200 C   0  0  1  0  0  3  0  0  0  0  0  0
  189.5520  177.6400  144.4230 O   0  0  0  0  0  0  0  0  0  0  0  0
  186.2430  178.3040  143.2750 O   0  0  0  0  0  0  0  0  0  0  0  0
  188.3340  177.5590  144.4160 C   0  0  0  0  0  0  0  0  0  0  0  0
  185.2950  176.5570  146.4810 C   0  0  0  0  0  2  0  0  0  0  0  0
  184.0340  178.6820  146.2410 C   0  0  0  0  0  1  0  0  0  0  0  0
  185.3570  178.0680  146.6650 C   0  0  2  0  0  3  0  0  0  0  0  0
  185.5150  177.4140  144.0900 C   0  0  0  0  0  2  0  0  0  0  0  0
  187.5380  177.7700  143.1400 C   0  0  1  0  0  0  0  0  0  0  0  0
  188.2900  178.2900  141.9370 C   0  0  0  0  0  2  0  0  0  0  0  0
  2  3  1  0  0  0  0
  2  1  1  1  0  0  0
  3 13  1  6  0  0  0
  3  4  1  0  0  0  0
  4  5  1  6  0  0  0
  4 11  1  0  0  0  0
  6 10  1  0  0  0  0
  7  9  1  0  0  0  0
  7 10  1  0  0  0  0
  8  6  2  0  0  0  0
 11  8  1  0  0  0  0
 11  7  2  0  0  0  0
 13 12  2  0  0  0  0
 14 15  1  0  0  0  0
 14 13  1  0  0  0  0
 16 15  1  0  0  0  0
 16 19  1  0  0  0  0
 18 19  1  0  0  0  0
 19 17  2  0  0  0  0
 20  2  1  0  0  0  0
 21 22  1  0  0  0  0
 21 20  1  0  0  0  0
 24 32  1  6  0  0  0
 24 23  1  0  0  0  0
 24 29  1  0  0  0  0
 24 31  1  0  0  0  0
 25 34  1  0  0  0  0
 25 22  1  1  0  0  0
 25 33  1  0  0  0  0
 27 32  1  0  0  0  0
 28 26  2  0  0  0  0
 28 23  1  0  0  0  0
 29 31  1  0  0  0  0
 31 30  1  6  0  0  0
 33 34  1  6  0  0  0
 33 27  1  0  0  0  0
 33 28  1  0  0  0  0
M  END
>  <MODEL>
8

>  <REMARK>
 VINA RESULT:      -5.6      2.283      6.784
  Name = 
  12 active torsions:
  status: ('A' for Active; 'I' for Inactive)
    1  A    between atoms: C_3  and  C_22
    2  A    between atoms: C_7  and  C_22
    3  A    between atoms: C_7  and  O_34
    4  A    between atoms: C_9  and  O_25
    5  A    between atoms: C_9  and  C_29
    6  A    between atoms: C_10  and  C_28
    7  A    between atoms: C_10  and  C_30
    8  A    between atoms: C_21  and  O_25
    9  A    between atoms: C_21  and  C_32
   10  A    between atoms: C_24  and  C_28
   11  A    between atoms: C_24  and  O_34
   12  A    between atoms: C_28  and  C_32
                            x       y       z     vdW  Elec       q    Type
                         _______ _______ _______ _____ _____    ______ ____

>  <TORSDO>
F 12

$$$$
=
 OpenBabel11072408253D

 34 37  0  0  1  0  0  0  0  0999 V2000
  192.5430  172.1660  143.5710 O   0  0  0  0  0  1  0  0  0  0  0  0
  192.2740  173.3170  144.3190 C   0  0  1  0  0  3  0  0  0  0  0  0
  193.4820  174.2760  144.2850 C   0  0  1  0  0  3  0  0  0  0  0  0
  193.2120  175.5640  143.4710 C   0  0  1  0  0  3  0  0  0  0  0  0
  193.3740  176.8160  144.3240 C   0  0  0  0  0  1  0  0  0  0  0  0
  195.8470  176.2930  141.0910 C   0  0  0  0  0  3  0  0  0  0  0  0
  193.8370  175.2250  141.0750 C   0  0  0  0  0  0  0  0  0  0  0  0
  195.3560  176.3670  142.2870 N   0  0  0  0  0  2  0  0  0  0  0  0
  192.6750  174.4780  140.7310 N   0  0  0  0  0  1  0  0  0  0  0  0
  194.9530  175.5420  140.1520 C   0  0  0  0  0  3  0  0  0  0  0  0
  194.1070  175.6930  142.2760 C   0  0  0  0  0  0  0  0  0  0  0  0
  193.0870  174.6380  146.5790 O   0  0  0  0  0  0  0  0  0  0  0  0
  193.9280  174.5990  145.6950 C   0  0  0  0  0  0  0  0  0  0  0  0
  195.3600  174.8890  146.0560 C   0  0  0  0  0  2  0  0  0  0  0  0
  196.2440  174.4050  145.0900 O   0  0  0  0  0  0  0  0  0  0  0  0
  197.1440  173.6100  145.7970 C   0  0  0  0  0  2  0  0  0  0  0  0
  196.7890  171.3110  146.3070 O   0  0  0  0  0  0  0  0  0  0  0  0
  196.9060  171.8160  144.0420 N   0  0  0  0  0  1  0  0  0  0  0  0
  196.9510  172.1850  145.4150 C   0  0  0  0  0  0  0  0  0  0  0  0
  191.1320  173.9330  143.8020 O   0  0  0  0  0  0  0  0  0  0  0  0
  190.1610  173.7770  144.7940 C   0  0  0  0  0  2  0  0  0  0  0  0
  189.8230  175.1250  145.4000 C   0  0  0  0  0  2  0  0  0  0  0  0
  187.0600  177.5570  147.0980 C   0  0  0  0  0  2  0  0  0  0  0  0
  185.9560  177.6450  146.0450 C   0  0  1  0  0  0  0  0  0  0  0  0
  189.1720  176.0170  144.3550 C   0  0  1  0  0  3  0  0  0  0  0  0
  189.4170  177.5440  147.1490 O   0  0  0  0  0  0  0  0  0  0  0  0
  187.4760  177.7990  144.1690 O   0  0  0  0  0  0  0  0  0  0  0  0
  188.4140  177.4610  146.4570 C   0  0  0  0  0  0  0  0  0  0  0  0
  184.6200  177.1510  146.5450 C   0  0  0  0  0  2  0  0  0  0  0  0
  184.1090  179.0870  145.0760 C   0  0  0  0  0  1  0  0  0  0  0  0
  184.8410  178.6430  146.3310 C   0  0  2  0  0  3  0  0  0  0  0  0
  186.2740  177.2100  144.6050 C   0  0  0  0  0  2  0  0  0  0  0  0
  188.5090  177.2550  144.9550 C   0  0  1  0  0  0  0  0  0  0  0  0
  189.8790  177.3720  144.3290 C   0  0  0  0  0  2  0  0  0  0  0  0
  2  1  1  6  0  0  0
  3  2  1  0  0  0  0
  3 13  1  1  0  0  0
  4  3  1  0  0  0  0
  4  5  1  1  0  0  0
  6  8  1  0  0  0  0
  7 11  2  0  0  0  0
  9  7  1  0  0  0  0
 10  7  1  0  0  0  0
 10  6  2  0  0  0  0
 11  8  1  0  0  0  0
 11  4  1  0  0  0  0
 13 14  1  0  0  0  0
 13 12  2  0  0  0  0
 15 16  1  0  0  0  0
 15 14  1  0  0  0  0
 18 19  1  0  0  0  0
 19 16  1  0  0  0  0
 19 17  2  0  0  0  0
 20  2  1  0  0  0  0
 20 21  1  0  0  0  0
 21 22  1  0  0  0  0
 24 32  1  6  0  0  0
 24 31  1  0  0  0  0
 24 29  1  0  0  0  0
 24 23  1  0  0  0  0
 25 33  1  0  0  0  0
 25 22  1  1  0  0  0
 27 32  1  0  0  0  0
 27 33  1  0  0  0  0
 28 23  1  0  0  0  0
 28 26  2  0  0  0  0
 31 30  1  6  0  0  0
 31 29  1  0  0  0  0
 33 34  1  6  0  0  0
 33 28  1  0  0  0  0
 34 25  1  0  0  0  0
M  END
>  <MODEL>
9

>  <REMARK>
 VINA RESULT:      -5.6      3.086      8.109
  Name = 
  12 active torsions:
  status: ('A' for Active; 'I' for Inactive)
    1  A    between atoms: C_3  and  C_22
    2  A    between atoms: C_7  and  C_22
    3  A    between atoms: C_7  and  O_34
    4  A    between atoms: C_9  and  O_25
    5  A    between atoms: C_9  and  C_29
    6  A    between atoms: C_10  and  C_28
    7  A    between atoms: C_10  and  C_30
    8  A    between atoms: C_21  and  O_25
    9  A    between atoms: C_21  and  C_32
   10  A    between atoms: C_24  and  C_28
   11  A    between atoms: C_24  and  O_34
   12  A    between atoms: C_28  and  C_32
                            x       y       z     vdW  Elec       q    Type
                         _______ _______ _______ _____ _____    ______ ____

>  <TORSDO>
F 12

$$$$
