=
 OpenBabel11062421003D

 38 42  0  0  1  0  0  0  0  0999 V2000
  188.8790  175.5560  142.1850 C   0  0  0  0  0  2  0  0  0  0  0  0
  193.4930  175.8120  142.2800 C   0  0  0  0  0  2  0  0  0  0  0  0
  186.4760  177.5480  144.4070 C   0  0  2  0  0  3  0  0  0  0  0  0
  193.0770  175.8620  146.5150 C   0  0  2  0  0  3  0  0  0  0  0  0
  187.5070  178.2850  147.6170 O   0  0  0  0  0  1  0  0  0  0  0  0
  188.2940  176.3600  146.4380 C   0  0  0  0  0  2  0  0  0  0  0  0
  194.4340  175.8920  145.7800 C   0  0  0  0  0  2  0  0  0  0  0  0
  189.5620  176.5600  144.2290 C   0  0  1  0  0  3  0  0  0  0  0  0
  192.7400  174.5330  146.7780 O   0  0  0  0  0  1  0  0  0  0  0  0
  195.0080  175.8170  142.2020 C   0  0  1  0  0  3  0  0  0  0  0  0
  187.2450  177.4740  146.5150 C   0  0  2  0  0  3  0  0  0  0  0  0
  195.4270  176.9010  141.4320 O   0  0  0  0  0  1  0  0  0  0  0  0
  190.3670  175.2610  142.3960 C   0  0  1  0  0  3  0  0  0  0  0  0
  191.9150  176.5740  145.7690 C   0  0  2  0  0  3  0  0  0  0  0  0
  190.6380  175.5880  143.8530 C   0  0  1  0  0  3  0  0  0  0  0  0
  195.4810  175.9960  143.6380 C   0  0  0  0  0  2  0  0  0  0  0  0
  190.6860  176.2040  146.3900 O   0  0  0  0  0  0  0  0  0  0  0  0
  191.9210  176.3210  144.2180 C   0  0  2  0  0  3  0  0  0  0  0  0
  188.3220  176.0800  143.5040 C   0  0  1  0  0  3  0  0  0  0  0  0
  193.2230  175.6800  143.7590 C   0  0  2  0  0  3  0  0  0  0  0  0
  187.2250  178.2610  145.3530 O   0  0  0  0  0  0  0  0  0  0  0  0
  189.5770  176.8220  145.7580 C   0  0  2  0  0  3  0  0  0  0  0  0
  194.3130  176.3810  144.4100 N   0  0  1  0  0  0  0  0  0  0  0  0
  187.3640  177.2250  143.2050 C   0  0  0  0  0  2  0  0  0  0  0  0
  191.5770  173.2800  140.9280 O   0  0  0  0  0  0  0  0  0  0  0  0
  190.6450  173.4840  142.1000 P   0  0  1  0  0  0  0  0  0  0  0  0
  191.3390  172.7920  143.4780 O   0  0  0  0  0  1  0  0  0  0  0  0
  188.9280  171.9890  142.8540 O   0  0  0  0  0  1  0  0  0  0  0  0
  189.1670  172.7190  141.7850 O   0  0  0  0  0  0  0  0  0  0  0  0
  185.2050  178.3320  144.0230 C   0  0  2  0  0  0  0  0  0  0  0  0
  185.4720  179.8320  143.9690 C   0  0  0  0  0  1  0  0  0  0  0  0
  184.2290  178.1020  144.9930 O   0  0  0  0  0  1  0  0  0  0  0  0
  184.6450  177.8470  142.6860 C   0  0  0  0  0  2  0  0  0  0  0  0
  183.3060  178.2860  142.4820 O   0  0  0  0  0  0  0  0  0  0  0  0
  182.6070  178.2040  141.2690 C   0  0  0  0  0  0  0  0  0  0  0  0
  183.2720  178.0340  140.2140 O   0  0  0  0  0  0  0  0  0  0  0  0
  180.4900  179.3820  141.3290 C   0  0  0  0  0  2  0  0  0  0  0  0
  181.1770  178.3010  141.1620 N   0  0  0  0  0  0  0  0  0  0  0  0
  1 13  1  0  0  0  0
  1 19  1  0  0  0  0
  2 20  1  0  0  0  0
  3 30  1  6  0  0  0
  3 21  1  0  0  0  0
  4  9  1  6  0  0  0
  6 11  1  0  0  0  0
  7  4  1  0  0  0  0
  8 22  1  0  0  0  0
 10  2  1  0  0  0  0
 10 16  1  0  0  0  0
 11  5  1  0  0  0  0
 12 10  1  0  0  0  0
 13 15  1  0  0  0  0
 14 17  1  0  0  0  0
 14  4  1  0  0  0  0
 15 18  1  0  0  0  0
 15  8  1  0  0  0  0
 16 23  1  0  0  0  0
 18 14  1  0  0  0  0
 19  8  1  0  0  0  0
 20 18  1  0  0  0  0
 20 23  1  0  0  0  0
 21 11  1  0  0  0  0
 22 17  1  0  0  0  0
 22  6  1  0  0  0  0
 23  7  1  0  0  0  0
 24 19  1  0  0  0  0
 24  3  1  0  0  0  0
 25 26  2  0  0  0  0
 26 13  1  0  0  0  0
 26 27  1  0  0  0  0
 29 26  1  0  0  0  0
 29 28  1  0  0  0  0
 30 32  1  0  0  0  0
 31 30  1  0  0  0  0
 33 30  1  0  0  0  0
 34 33  1  0  0  0  0
 35 34  1  0  0  0  0
 36 35  2  0  0  0  0
 38 35  1  0  0  0  0
 38 37  2  0  0  0  0
M  END
>  <MODEL>
1

>  <REMARK>
 VINA RESULT:      -8.3      0.000      0.000
  Name = 
  7 active torsions:
  status: ('A' for Active; 'I' for Inactive)
    1  A    between atoms: C_3  and  O_34
    2  A    between atoms: C_3  and  N_38
    3  A    between atoms: C_5  and  C_15
    4  A    between atoms: C_15  and  C_22
    5  A    between atoms: C_17  and  P_20
    6  A    between atoms: P_20  and  O_30
    7  A    between atoms: C_22  and  O_34
                            x       y       z     vdW  Elec       q    Type
                         _______ _______ _______ _____ _____    ______ ____

>  <TORSDO>
F 7

$$$$
=
 OpenBabel11062421003D

 38 42  0  0  1  0  0  0  0  0999 V2000
  189.7310  174.1700  142.9890 C   0  0  0  0  0  2  0  0  0  0  0  0
  194.0670  174.8140  141.5230 C   0  0  0  0  0  2  0  0  0  0  0  0
  187.7440  176.5570  145.2340 C   0  0  2  0  0  3  0  0  0  0  0  0
  194.8600  176.1510  145.4840 C   0  0  2  0  0  3  0  0  0  0  0  0
  189.4960  178.3410  147.6130 O   0  0  0  0  0  1  0  0  0  0  0  0
  190.2390  176.2140  146.8150 C   0  0  0  0  0  2  0  0  0  0  0  0
  195.9280  176.0590  144.3740 C   0  0  0  0  0  2  0  0  0  0  0  0
  190.7780  175.8140  144.3500 C   0  0  1  0  0  3  0  0  0  0  0  0
  194.8470  174.9480  146.1920 O   0  0  0  0  0  1  0  0  0  0  0  0
  195.4730  174.9160  140.9640 C   0  0  1  0  0  3  0  0  0  0  0  0
  189.0780  177.2070  146.9190 C   0  0  2  0  0  3  0  0  0  0  0  0
  195.4630  175.7350  139.8360 O   0  0  0  0  0  1  0  0  0  0  0  0
  191.2460  174.0770  142.7830 C   0  0  1  0  0  3  0  0  0  0  0  0
  193.4300  176.4980  144.9870 C   0  0  2  0  0  3  0  0  0  0  0  0
  191.8560  174.8630  143.9280 C   0  0  1  0  0  3  0  0  0  0  0  0
  196.2940  175.5720  142.0660 C   0  0  0  0  0  2  0  0  0  0  0  0
  192.5090  176.2430  146.0460 O   0  0  0  0  0  0  0  0  0  0  0  0
  193.0420  175.7740  143.6470 C   0  0  2  0  0  3  0  0  0  0  0  0
  189.4860  175.0340  144.2210 C   0  0  1  0  0  3  0  0  0  0  0  0
  194.2520  175.1290  142.9870 C   0  0  2  0  0  3  0  0  0  0  0  0
  188.5950  177.5880  145.6570 O   0  0  0  0  0  0  0  0  0  0  0  0
  191.1780  176.5420  145.6600 C   0  0  2  0  0  3  0  0  0  0  0  0
  195.3430  176.0840  143.0370 N   0  0  1  0  0  0  0  0  0  0  0  0
  188.3000  175.9470  143.9460 C   0  0  0  0  0  2  0  0  0  0  0  0
  192.4710  171.8870  141.6640 O   0  0  0  0  0  0  0  0  0  0  0  0
  191.7320  172.3250  142.9080 P   0  0  1  0  0  0  0  0  0  0  0  0
  192.7470  172.1240  144.2460 O   0  0  0  0  0  1  0  0  0  0  0  0
  190.1880  170.7560  141.9570 O   0  0  0  0  0  1  0  0  0  0  0  0
  190.3540  171.3620  143.1130 O   0  0  0  0  0  0  0  0  0  0  0  0
  186.3010  177.0770  145.0810 C   0  0  2  0  0  0  0  0  0  0  0  0
  186.2410  178.5960  145.2000 C   0  0  0  0  0  1  0  0  0  0  0  0
  185.5200  176.5320  146.1000 O   0  0  0  0  0  1  0  0  0  0  0  0
  185.6950  176.6280  143.7500 C   0  0  0  0  0  2  0  0  0  0  0  0
  185.3150  177.7360  142.9420 O   0  0  0  0  0  0  0  0  0  0  0  0
  185.8160  178.0090  141.6600 C   0  0  0  0  0  0  0  0  0  0  0  0
  187.0540  178.2030  141.5390 O   0  0  0  0  0  0  0  0  0  0  0  0
  183.7310  178.3200  140.4650 C   0  0  0  0  0  2  0  0  0  0  0  0
  185.0000  178.0770  140.4790 N   0  0  0  0  0  0  0  0  0  0  0  0
  1 19  1  0  0  0  0
  2 20  1  0  0  0  0
  3 30  1  6  0  0  0
  3 21  1  0  0  0  0
  4  9  1  6  0  0  0
  6 11  1  0  0  0  0
  7  4  1  0  0  0  0
  8 22  1  0  0  0  0
 10  2  1  0  0  0  0
 10 16  1  0  0  0  0
 11  5  1  0  0  0  0
 12 10  1  0  0  0  0
 13 26  1  0  0  0  0
 13  1  1  0  0  0  0
 13 15  1  0  0  0  0
 14  4  1  0  0  0  0
 14 17  1  0  0  0  0
 15  8  1  0  0  0  0
 16 23  1  0  0  0  0
 18 15  1  0  0  0  0
 18 14  1  0  0  0  0
 19  8  1  0  0  0  0
 20 23  1  0  0  0  0
 20 18  1  0  0  0  0
 21 11  1  0  0  0  0
 22 17  1  0  0  0  0
 22  6  1  0  0  0  0
 23  7  1  0  0  0  0
 24 19  1  0  0  0  0
 24  3  1  0  0  0  0
 25 26  2  0  0  0  0
 26 29  1  0  0  0  0
 26 27  1  0  0  0  0
 28 29  1  0  0  0  0
 30 31  1  0  0  0  0
 30 32  1  0  0  0  0
 33 30  1  0  0  0  0
 34 33  1  0  0  0  0
 35 34  1  0  0  0  0
 36 35  2  0  0  0  0
 37 38  2  0  0  0  0
 38 35  1  0  0  0  0
M  END
>  <MODEL>
2

>  <REMARK>
 VINA RESULT:      -7.6      1.805      2.100
  Name = 
  7 active torsions:
  status: ('A' for Active; 'I' for Inactive)
    1  A    between atoms: C_3  and  O_34
    2  A    between atoms: C_3  and  N_38
    3  A    between atoms: C_5  and  C_15
    4  A    between atoms: C_15  and  C_22
    5  A    between atoms: C_17  and  P_20
    6  A    between atoms: P_20  and  O_30
    7  A    between atoms: C_22  and  O_34
                            x       y       z     vdW  Elec       q    Type
                         _______ _______ _______ _____ _____    ______ ____

>  <TORSDO>
F 7

$$$$
=
 OpenBabel11062421003D

 38 42  0  0  1  0  0  0  0  0999 V2000
  191.3580  176.1490  146.9300 C   0  0  0  0  0  2  0  0  0  0  0  0
  193.8080  172.5140  145.4650 C   0  0  0  0  0  2  0  0  0  0  0  0
  187.7130  176.9090  146.0260 C   0  0  2  0  0  3  0  0  0  0  0  0
  192.0180  173.2500  141.6750 C   0  0  2  0  0  3  0  0  0  0  0  0
  186.6240  175.9980  142.8800 O   0  0  0  0  0  1  0  0  0  0  0  0
  188.9110  176.5250  143.3320 C   0  0  0  0  0  2  0  0  0  0  0  0
  193.0440  172.1280  141.9420 C   0  0  0  0  0  2  0  0  0  0  0  0
  190.2880  175.2030  145.0290 C   0  0  1  0  0  3  0  0  0  0  0  0
  192.7040  174.3930  141.2600 O   0  0  0  0  0  1  0  0  0  0  0  0
  194.7090  171.3600  145.0690 C   0  0  1  0  0  3  0  0  0  0  0  0
  187.4600  176.6030  143.8160 C   0  0  2  0  0  3  0  0  0  0  0  0
  194.4320  170.2590  145.8790 O   0  0  0  0  0  1  0  0  0  0  0  0
  192.3610  175.2410  146.2120 C   0  0  1  0  0  3  0  0  0  0  0  0
  191.0900  173.5850  142.8750 C   0  0  2  0  0  3  0  0  0  0  0  0
  191.7580  174.9810  144.8440 C   0  0  1  0  0  3  0  0  0  0  0  0
  194.3400  171.0420  143.6270 C   0  0  0  0  0  2  0  0  0  0  0  0
  190.4280  174.8180  142.6020 O   0  0  0  0  0  0  0  0  0  0  0  0
  191.8330  173.5780  144.2590 C   0  0  2  0  0  3  0  0  0  0  0  0
  190.1800  176.3710  145.9880 C   0  0  1  0  0  3  0  0  0  0  0  0
  193.2210  172.9620  144.1490 C   0  0  2  0  0  3  0  0  0  0  0  0
  187.2860  175.9830  145.0630 O   0  0  0  0  0  0  0  0  0  0  0  0
  189.5580  175.1850  143.6610 C   0  0  2  0  0  3  0  0  0  0  0  0
  193.1050  171.7560  143.3520 N   0  0  1  0  0  0  0  0  0  0  0  0
  188.8930  176.3190  146.7990 C   0  0  0  0  0  2  0  0  0  0  0  0
  194.0440  176.7440  144.6470 O   0  0  0  0  0  0  0  0  0  0  0  0
  193.9290  176.1510  146.0330 P   0  0  1  0  0  0  0  0  0  0  0  0
  193.9800  177.4030  147.1690 O   0  0  0  0  0  1  0  0  0  0  0  0
  195.9650  175.1790  145.2170 O   0  0  0  0  0  1  0  0  0  0  0  0
  195.2320  175.1040  146.3080 O   0  0  0  0  0  0  0  0  0  0  0  0
  186.5390  177.3180  146.9380 C   0  0  2  0  0  0  0  0  0  0  0  0
  186.7920  178.6690  147.5980 C   0  0  0  0  0  1  0  0  0  0  0  0
  186.4040  176.3630  147.9460 O   0  0  0  0  0  1  0  0  0  0  0  0
  185.2240  177.3500  146.1580 C   0  0  0  0  0  2  0  0  0  0  0  0
  184.9240  178.6570  145.6810 O   0  0  0  0  0  0  0  0  0  0  0  0
  184.8170  179.0170  144.3290 C   0  0  0  0  0  0  0  0  0  0  0  0
  185.4620  180.0220  143.9330 O   0  0  0  0  0  0  0  0  0  0  0  0
  184.1630  178.3600  142.0900 C   0  0  0  0  0  2  0  0  0  0  0  0
  184.0170  178.3040  143.3720 N   0  0  0  0  0  0  0  0  0  0  0  0
  3 24  1  0  0  0  0
  3 30  1  1  0  0  0
  4  9  1  1  0  0  0
  4  7  1  0  0  0  0
  4 14  1  0  0  0  0
  5 11  1  0  0  0  0
  6 22  1  0  0  0  0
  6 11  1  0  0  0  0
  7 23  1  0  0  0  0
  8 19  1  0  0  0  0
 10  2  1  0  0  0  0
 10 12  1  0  0  0  0
 11 21  1  0  0  0  0
 13  1  1  0  0  0  0
 14 18  1  0  0  0  0
 15  8  1  0  0  0  0
 15 13  1  0  0  0  0
 16 10  1  0  0  0  0
 17 14  1  0  0  0  0
 17 22  1  0  0  0  0
 18 15  1  0  0  0  0
 19 24  1  0  0  0  0
 19  1  1  0  0  0  0
 20 18  1  0  0  0  0
 20  2  1  0  0  0  0
 21  3  1  0  0  0  0
 22  8  1  0  0  0  0
 23 16  1  0  0  0  0
 23 20  1  0  0  0  0
 25 26  2  0  0  0  0
 26 13  1  0  0  0  0
 26 29  1  0  0  0  0
 26 27  1  0  0  0  0
 28 29  1  0  0  0  0
 30 31  1  0  0  0  0
 30 32  1  0  0  0  0
 33 30  1  0  0  0  0
 34 33  1  0  0  0  0
 35 34  1  0  0  0  0
 36 35  2  0  0  0  0
 37 38  2  0  0  0  0
 38 35  1  0  0  0  0
M  END
>  <MODEL>
3

>  <REMARK>
 VINA RESULT:      -7.5      2.740      4.643
  Name = 
  7 active torsions:
  status: ('A' for Active; 'I' for Inactive)
    1  A    between atoms: C_3  and  O_34
    2  A    between atoms: C_3  and  N_38
    3  A    between atoms: C_5  and  C_15
    4  A    between atoms: C_15  and  C_22
    5  A    between atoms: C_17  and  P_20
    6  A    between atoms: P_20  and  O_30
    7  A    between atoms: C_22  and  O_34
                            x       y       z     vdW  Elec       q    Type
                         _______ _______ _______ _____ _____    ______ ____

>  <TORSDO>
F 7

$$$$
=
 OpenBabel11062421003D

 38 42  0  0  1  0  0  0  0  0999 V2000
  190.5850  174.1360  142.3470 C   0  0  0  0  0  2  0  0  0  0  0  0
  195.0320  174.5720  141.1620 C   0  0  0  0  0  2  0  0  0  0  0  0
  188.7640  176.1910  145.0200 C   0  0  2  0  0  3  0  0  0  0  0  0
  195.7730  174.9110  145.3390 C   0  0  2  0  0  3  0  0  0  0  0  0
  190.5820  177.1950  147.7770 O   0  0  0  0  0  1  0  0  0  0  0  0
  191.1270  175.2220  146.5430 C   0  0  0  0  0  2  0  0  0  0  0  0
  196.8770  174.9390  144.2610 C   0  0  0  0  0  2  0  0  0  0  0  0
  191.7380  175.3090  144.0640 C   0  0  1  0  0  3  0  0  0  0  0  0
  195.5940  173.5920  145.7610 O   0  0  0  0  0  1  0  0  0  0  0  0
  196.4660  174.6290  140.6730 C   0  0  1  0  0  3  0  0  0  0  0  0
  190.0770  176.2970  146.8380 C   0  0  2  0  0  3  0  0  0  0  0  0
  196.6000  175.6690  139.7550 O   0  0  0  0  0  1  0  0  0  0  0  0
  192.0890  173.9130  142.1600 C   0  0  1  0  0  3  0  0  0  0  0  0
  194.4150  175.5230  144.8980 C   0  0  2  0  0  3  0  0  0  0  0  0
  192.7250  174.3540  143.4660 C   0  0  1  0  0  3  0  0  0  0  0  0
  197.2990  174.9270  141.9120 C   0  0  0  0  0  2  0  0  0  0  0  0
  193.4220  175.1520  145.8530 O   0  0  0  0  0  0  0  0  0  0  0  0
  194.0160  175.1590  143.4220 C   0  0  2  0  0  3  0  0  0  0  0  0
  190.3770  174.7320  143.7340 C   0  0  1  0  0  3  0  0  0  0  0  0
  195.1790  174.5360  142.6640 C   0  0  2  0  0  3  0  0  0  0  0  0
  189.7010  176.9980  145.6810 O   0  0  0  0  0  0  0  0  0  0  0  0
  192.1510  175.6820  145.5120 C   0  0  2  0  0  3  0  0  0  0  0  0
  196.3640  175.3230  142.9500 N   0  0  1  0  0  0  0  0  0  0  0  0
  189.3120  175.8160  143.6420 C   0  0  0  0  0  2  0  0  0  0  0  0
  193.4180  171.6170  142.8700 O   0  0  0  0  0  1  0  0  0  0  0  0
  192.3750  172.1320  141.9050 P   0  0  1  0  0  0  0  0  0  0  0  0
  190.9290  171.2930  142.1630 O   0  0  0  0  0  0  0  0  0  0  0  0
  191.9150  171.1850  139.7500 O   0  0  0  0  0  1  0  0  0  0  0  0
  192.8940  171.8580  140.3160 O   0  0  0  0  0  0  0  0  0  0  0  0
  187.3950  176.8970  144.9520 C   0  0  2  0  0  0  0  0  0  0  0  0
  186.5810  176.4180  143.7560 C   0  0  0  0  0  1  0  0  0  0  0  0
  187.6070  178.2680  144.8090 O   0  0  0  0  0  1  0  0  0  0  0  0
  186.6070  176.6880  146.2460 C   0  0  0  0  0  2  0  0  0  0  0  0
  185.2250  176.9800  146.0760 O   0  0  0  0  0  0  0  0  0  0  0  0
  184.6130  178.2010  146.3970 C   0  0  0  0  0  0  0  0  0  0  0  0
  184.6360  178.5750  147.5990 O   0  0  0  0  0  0  0  0  0  0  0  0
  184.0690  178.9330  144.1520 C   0  0  0  0  0  2  0  0  0  0  0  0
  183.9650  179.0490  145.4350 N   0  0  0  0  0  0  0  0  0  0  0  0
  1 19  1  0  0  0  0
  2 20  1  0  0  0  0
  3 30  1  6  0  0  0
  3 21  1  0  0  0  0
  4  9  1  6  0  0  0
  6 11  1  0  0  0  0
  7  4  1  0  0  0  0
  8 22  1  0  0  0  0
 10  2  1  0  0  0  0
 10 16  1  0  0  0  0
 11  5  1  0  0  0  0
 12 10  1  0  0  0  0
 13  1  1  0  0  0  0
 13 15  1  0  0  0  0
 14  4  1  0  0  0  0
 14 17  1  0  0  0  0
 15  8  1  0  0  0  0
 16 23  1  0  0  0  0
 18 15  1  0  0  0  0
 18 14  1  0  0  0  0
 19  8  1  0  0  0  0
 20 23  1  0  0  0  0
 20 18  1  0  0  0  0
 21 11  1  0  0  0  0
 22 17  1  0  0  0  0
 22  6  1  0  0  0  0
 23  7  1  0  0  0  0
 24 19  1  0  0  0  0
 24  3  1  0  0  0  0
 26 13  1  0  0  0  0
 26 27  2  0  0  0  0
 26 25  1  0  0  0  0
 28 29  1  0  0  0  0
 29 26  1  0  0  0  0
 30 33  1  0  0  0  0
 31 30  1  0  0  0  0
 32 30  1  0  0  0  0
 34 33  1  0  0  0  0
 34 35  1  0  0  0  0
 35 36  2  0  0  0  0
 37 38  2  0  0  0  0
 38 35  1  0  0  0  0
M  END
>  <MODEL>
4

>  <REMARK>
 VINA RESULT:      -7.0      2.315      3.383
  Name = 
  7 active torsions:
  status: ('A' for Active; 'I' for Inactive)
    1  A    between atoms: C_3  and  O_34
    2  A    between atoms: C_3  and  N_38
    3  A    between atoms: C_5  and  C_15
    4  A    between atoms: C_15  and  C_22
    5  A    between atoms: C_17  and  P_20
    6  A    between atoms: P_20  and  O_30
    7  A    between atoms: C_22  and  O_34
                            x       y       z     vdW  Elec       q    Type
                         _______ _______ _______ _____ _____    ______ ____

>  <TORSDO>
F 7

$$$$
=
 OpenBabel11062421003D

 38 42  0  0  1  0  0  0  0  0999 V2000
  193.1990  174.9320  146.0470 C   0  0  0  0  0  2  0  0  0  0  0  0
  194.8980  170.6350  146.1290 C   0  0  0  0  0  2  0  0  0  0  0  0
  189.6630  175.9260  144.9560 C   0  0  2  0  0  3  0  0  0  0  0  0
  192.9430  170.1410  142.3810 C   0  0  2  0  0  3  0  0  0  0  0  0
  188.1840  174.0720  142.4490 O   0  0  0  0  0  1  0  0  0  0  0  0
  190.5560  174.3090  142.6260 C   0  0  0  0  0  2  0  0  0  0  0  0
  193.7920  169.0480  143.0620 C   0  0  0  0  0  2  0  0  0  0  0  0
  191.8360  173.5290  144.6950 C   0  0  1  0  0  3  0  0  0  0  0  0
  193.7680  170.8860  141.5360 O   0  0  0  0  0  1  0  0  0  0  0  0
  195.5640  169.2750  146.2160 C   0  0  1  0  0  3  0  0  0  0  0  0
  189.1820  174.8320  143.0550 C   0  0  2  0  0  3  0  0  0  0  0  0
  195.1800  168.6490  147.4010 O   0  0  0  0  0  1  0  0  0  0  0  0
  193.9780  173.6500  145.7400 C   0  0  1  0  0  3  0  0  0  0  0  0
  192.1840  171.0810  143.3570 C   0  0  2  0  0  3  0  0  0  0  0  0
  193.2300  172.9900  144.5970 C   0  0  1  0  0  3  0  0  0  0  0  0
  195.0300  168.4910  145.0260 C   0  0  0  0  0  2  0  0  0  0  0  0
  191.7100  172.2080  142.6220 O   0  0  0  0  0  0  0  0  0  0  0  0
  193.0280  171.4820  144.6210 C   0  0  2  0  0  3  0  0  0  0  0  0
  191.9990  174.9780  145.1080 C   0  0  1  0  0  3  0  0  0  0  0  0
  194.2840  170.6310  144.7500 C   0  0  2  0  0  3  0  0  0  0  0  0
  189.0140  174.7920  144.4480 O   0  0  0  0  0  0  0  0  0  0  0  0
  191.0020  173.1110  143.4560 C   0  0  2  0  0  3  0  0  0  0  0  0
  193.9090  169.2520  144.5030 N   0  0  1  0  0  0  0  0  0  0  0  0
  190.7920  175.4820  145.8870 C   0  0  0  0  0  2  0  0  0  0  0  0
  196.6850  173.6690  146.2050 O   0  0  0  0  0  1  0  0  0  0  0  0
  195.6530  174.1160  145.1940 P   0  0  1  0  0  0  0  0  0  0  0  0
  195.9830  173.3730  143.7110 O   0  0  0  0  0  0  0  0  0  0  0  0
  195.6340  175.9950  143.7040 O   0  0  0  0  0  1  0  0  0  0  0  0
  195.7440  175.7960  145.0010 O   0  0  0  0  0  0  0  0  0  0  0  0
  188.6510  176.8650  145.6420 C   0  0  2  0  0  0  0  0  0  0  0  0
  189.2610  177.5440  146.8630 C   0  0  0  0  0  1  0  0  0  0  0  0
  187.5590  176.1090  146.0680 O   0  0  0  0  0  1  0  0  0  0  0  0
  188.1260  177.9150  144.6620 C   0  0  0  0  0  2  0  0  0  0  0  0
  186.8410  177.5710  144.1560 O   0  0  0  0  0  0  0  0  0  0  0  0
  185.7450  178.4440  144.0780 C   0  0  0  0  0  0  0  0  0  0  0  0
  185.8080  179.4000  143.2620 O   0  0  0  0  0  0  0  0  0  0  0  0
  184.5250  178.2500  146.1630 C   0  0  0  0  0  2  0  0  0  0  0  0
  184.5550  178.3070  144.8720 N   0  0  0  0  0  0  0  0  0  0  0  0
  2 10  1  0  0  0  0
  3 30  1  1  0  0  0
  3 24  1  0  0  0  0
  4  9  1  1  0  0  0
  4  7  1  0  0  0  0
  4 14  1  0  0  0  0
  5 11  1  0  0  0  0
  6 11  1  0  0  0  0
  6 22  1  0  0  0  0
  7 23  1  0  0  0  0
  8 19  1  0  0  0  0
 10 12  1  0  0  0  0
 11 21  1  0  0  0  0
 13  1  1  0  0  0  0
 14 18  1  0  0  0  0
 15 18  1  0  0  0  0
 15  8  1  0  0  0  0
 15 13  1  0  0  0  0
 16 10  1  0  0  0  0
 17 14  1  0  0  0  0
 17 22  1  0  0  0  0
 18 20  1  0  0  0  0
 19 24  1  0  0  0  0
 19  1  1  0  0  0  0
 20  2  1  0  0  0  0
 21  3  1  0  0  0  0
 22  8  1  0  0  0  0
 23 20  1  0  0  0  0
 23 16  1  0  0  0  0
 26 13  1  0  0  0  0
 26 25  1  0  0  0  0
 27 26  2  0  0  0  0
 28 29  1  0  0  0  0
 29 26  1  0  0  0  0
 30 32  1  0  0  0  0
 30 31  1  0  0  0  0
 33 30  1  0  0  0  0
 34 33  1  0  0  0  0
 35 34  1  0  0  0  0
 35 38  1  0  0  0  0
 36 35  2  0  0  0  0
 38 37  2  0  0  0  0
M  END
>  <MODEL>
5

>  <REMARK>
 VINA RESULT:      -6.9      3.856      5.810
  Name = 
  7 active torsions:
  status: ('A' for Active; 'I' for Inactive)
    1  A    between atoms: C_3  and  O_34
    2  A    between atoms: C_3  and  N_38
    3  A    between atoms: C_5  and  C_15
    4  A    between atoms: C_15  and  C_22
    5  A    between atoms: C_17  and  P_20
    6  A    between atoms: P_20  and  O_30
    7  A    between atoms: C_22  and  O_34
                            x       y       z     vdW  Elec       q    Type
                         _______ _______ _______ _____ _____    ______ ____

>  <TORSDO>
F 7

$$$$
=
 OpenBabel11062421003D

 38 42  0  0  1  0  0  0  0  0999 V2000
  192.6340  176.2480  145.4160 C   0  0  0  0  0  2  0  0  0  0  0  0
  188.2870  177.0590  144.0700 C   0  0  0  0  0  2  0  0  0  0  0  0
  195.4990  175.0760  143.1580 C   0  0  2  0  0  3  0  0  0  0  0  0
  188.6840  173.5040  141.7640 C   0  0  2  0  0  3  0  0  0  0  0  0
  194.7110  172.9740  140.5360 O   0  0  0  0  0  1  0  0  0  0  0  0
  193.4100  173.0530  142.5400 C   0  0  0  0  0  2  0  0  0  0  0  0
  187.3960  174.3510  141.8300 C   0  0  0  0  0  2  0  0  0  0  0  0
  192.2590  175.1990  143.3150 C   0  0  1  0  0  3  0  0  0  0  0  0
  188.6240  172.5220  142.7540 O   0  0  0  0  0  1  0  0  0  0  0  0
  186.8380  177.3740  143.7510 C   0  0  1  0  0  3  0  0  0  0  0  0
  194.7330  173.4130  141.8590 C   0  0  2  0  0  3  0  0  0  0  0  0
  186.7510  178.6600  143.2210 O   0  0  0  0  0  1  0  0  0  0  0  0
  191.1230  176.1580  145.1810 C   0  0  1  0  0  3  0  0  0  0  0  0
  190.0040  174.3130  141.8880 C   0  0  2  0  0  3  0  0  0  0  0  0
  190.9520  175.1680  144.0440 C   0  0  1  0  0  3  0  0  0  0  0  0
  186.4300  176.3550  142.6960 C   0  0  0  0  0  2  0  0  0  0  0  0
  191.0730  173.4000  142.1260 O   0  0  0  0  0  0  0  0  0  0  0  0
  189.9320  175.4660  142.9540 C   0  0  2  0  0  3  0  0  0  0  0  0
  193.3130  175.3430  144.3940 C   0  0  1  0  0  3  0  0  0  0  0  0
  188.5020  175.7170  143.4130 C   0  0  2  0  0  3  0  0  0  0  0  0
  194.9820  174.7940  141.8860 O   0  0  0  0  0  0  0  0  0  0  0  0
  192.3150  174.0740  142.2490 C   0  0  2  0  0  3  0  0  0  0  0  0
  187.6570  175.7290  142.2340 N   0  0  1  0  0  0  0  0  0  0  0  0
  194.5600  176.0460  143.8760 C   0  0  0  0  0  2  0  0  0  0  0  0
  189.6920  174.1660  146.4190 O   0  0  0  0  0  0  0  0  0  0  0  0
  190.3480  175.5010  146.6940 P   0  0  1  0  0  0  0  0  0  0  0  0
  191.5340  175.2920  147.8820 O   0  0  0  0  0  1  0  0  0  0  0  0
  188.0550  175.9180  147.2620 O   0  0  0  0  0  1  0  0  0  0  0  0
  189.1860  176.5940  147.2620 O   0  0  0  0  0  0  0  0  0  0  0  0
  196.9430  175.6050  143.0490 C   0  0  2  0  0  0  0  0  0  0  0  0
  197.0290  177.0740  143.4510 C   0  0  0  0  0  1  0  0  0  0  0  0
  197.3590  175.4960  141.7220 O   0  0  0  0  0  1  0  0  0  0  0  0
  197.8990  174.7680  143.8990 C   0  0  0  0  0  2  0  0  0  0  0  0
  197.3610  173.4840  144.1920 O   0  0  0  0  0  0  0  0  0  0  0  0
  197.1900  172.9560  145.4800 C   0  0  0  0  0  0  0  0  0  0  0  0
  197.1310  173.7610  146.4460 O   0  0  0  0  0  0  0  0  0  0  0  0
  197.5420  170.6030  145.0150 C   0  0  0  0  0  2  0  0  0  0  0  0
  197.0770  171.5510  145.7600 N   0  0  0  0  0  0  0  0  0  0  0  0
  3 30  1  6  0  0  0
  3 24  1  0  0  0  0
  4  7  1  0  0  0  0
  4 14  1  0  0  0  0
  4  9  1  1  0  0  0
  5 11  1  0  0  0  0
  7 23  1  0  0  0  0
  8 15  1  0  0  0  0
  8 19  1  0  0  0  0
 10  2  1  0  0  0  0
 11 21  1  0  0  0  0
 11  6  1  0  0  0  0
 12 10  1  0  0  0  0
 13  1  1  0  0  0  0
 13 26  1  0  0  0  0
 14 17  1  0  0  0  0
 14 18  1  0  0  0  0
 15 13  1  0  0  0  0
 16 10  1  0  0  0  0
 17 22  1  0  0  0  0
 18 20  1  0  0  0  0
 18 15  1  0  0  0  0
 19  1  1  0  0  0  0
 20  2  1  0  0  0  0
 21  3  1  0  0  0  0
 22  6  1  0  0  0  0
 22  8  1  0  0  0  0
 23 16  1  0  0  0  0
 23 20  1  0  0  0  0
 24 19  1  0  0  0  0
 25 26  2  0  0  0  0
 26 29  1  0  0  0  0
 26 27  1  0  0  0  0
 28 29  1  0  0  0  0
 30 31  1  0  0  0  0
 30 33  1  0  0  0  0
 32 30  1  0  0  0  0
 33 34  1  0  0  0  0
 34 35  1  0  0  0  0
 35 38  1  0  0  0  0
 35 36  2  0  0  0  0
 37 38  2  0  0  0  0
M  END
>  <MODEL>
6

>  <REMARK>
 VINA RESULT:      -6.8      2.803      9.475
  Name = 
  7 active torsions:
  status: ('A' for Active; 'I' for Inactive)
    1  A    between atoms: C_3  and  O_34
    2  A    between atoms: C_3  and  N_38
    3  A    between atoms: C_5  and  C_15
    4  A    between atoms: C_15  and  C_22
    5  A    between atoms: C_17  and  P_20
    6  A    between atoms: P_20  and  O_30
    7  A    between atoms: C_22  and  O_34
                            x       y       z     vdW  Elec       q    Type
                         _______ _______ _______ _____ _____    ______ ____

>  <TORSDO>
F 7

$$$$
=
 OpenBabel11062421003D

 38 42  0  0  1  0  0  0  0  0999 V2000
  192.7160  175.2560  145.9310 C   0  0  0  0  0  2  0  0  0  0  0  0
  189.3930  176.8940  143.1670 C   0  0  0  0  0  2  0  0  0  0  0  0
  195.3190  172.6080  144.9830 C   0  0  2  0  0  3  0  0  0  0  0  0
  188.8720  172.8510  141.9430 C   0  0  2  0  0  3  0  0  0  0  0  0
  194.3510  170.1340  142.7790 O   0  0  0  0  0  1  0  0  0  0  0  0
  192.7930  171.2400  144.2150 C   0  0  0  0  0  2  0  0  0  0  0  0
  188.0220  174.0280  141.4200 C   0  0  0  0  0  2  0  0  0  0  0  0
  192.4160  173.7640  144.1030 C   0  0  1  0  0  3  0  0  0  0  0  0
  188.2370  172.3020  143.0580 O   0  0  0  0  0  1  0  0  0  0  0  0
  188.2740  177.5200  142.3570 C   0  0  1  0  0  3  0  0  0  0  0  0
  194.2640  170.9400  143.9130 C   0  0  2  0  0  3  0  0  0  0  0  0
  188.7970  178.5330  141.5550 O   0  0  0  0  0  1  0  0  0  0  0  0
  191.3700  175.5650  145.2680 C   0  0  1  0  0  3  0  0  0  0  0  0
  190.3440  173.2110  142.2850 C   0  0  2  0  0  3  0  0  0  0  0  0
  191.0750  174.3700  144.3820 C   0  0  1  0  0  3  0  0  0  0  0  0
  187.7370  176.3970  141.4810 C   0  0  0  0  0  2  0  0  0  0  0  0
  190.9080  172.1380  143.0370 O   0  0  0  0  0  0  0  0  0  0  0  0
  190.4970  174.6050  142.9940 C   0  0  2  0  0  3  0  0  0  0  0  0
  193.1950  173.9110  145.3950 C   0  0  1  0  0  3  0  0  0  0  0  0
  189.2100  175.4150  142.9230 C   0  0  2  0  0  3  0  0  0  0  0  0
  195.0100  172.1110  143.7090 O   0  0  0  0  0  0  0  0  0  0  0  0
  192.2580  172.4000  143.3830 C   0  0  2  0  0  3  0  0  0  0  0  0
  188.6990  175.3120  141.5690 N   0  0  1  0  0  0  0  0  0  0  0  0
  194.6940  173.9940  145.1440 C   0  0  0  0  0  2  0  0  0  0  0  0
  188.9350  174.7870  146.2730 O   0  0  0  0  0  0  0  0  0  0  0  0
  190.1070  175.6930  146.5750 P   0  0  1  0  0  0  0  0  0  0  0  0
  190.7860  175.2320  148.0540 O   0  0  0  0  0  1  0  0  0  0  0  0
  188.2530  177.2050  146.7470 O   0  0  0  0  0  1  0  0  0  0  0  0
  189.5650  177.2940  146.6930 O   0  0  0  0  0  0  0  0  0  0  0  0
  196.8440  172.6050  145.2090 C   0  0  2  0  0  0  0  0  0  0  0  0
  197.2330  173.4900  146.3880 C   0  0  0  0  0  1  0  0  0  0  0  0
  197.4650  173.1080  144.0660 O   0  0  0  0  0  1  0  0  0  0  0  0
  197.3620  171.1820  145.4240 C   0  0  0  0  0  2  0  0  0  0  0  0
  196.8140  170.5900  146.5960 O   0  0  0  0  0  0  0  0  0  0  0  0
  196.8360  169.2190  146.8920 C   0  0  0  0  0  0  0  0  0  0  0  0
  197.9410  168.6200  146.8360 O   0  0  0  0  0  0  0  0  0  0  0  0
  194.4720  168.9350  147.3450 C   0  0  0  0  0  2  0  0  0  0  0  0
  195.6710  168.4610  147.2580 N   0  0  0  0  0  0  0  0  0  0  0  0
  3 24  1  0  0  0  0
  3 30  1  6  0  0  0
  4 14  1  0  0  0  0
  4  9  1  1  0  0  0
  5 11  1  0  0  0  0
  7 23  1  0  0  0  0
  7  4  1  0  0  0  0
  8 15  1  0  0  0  0
  8 19  1  0  0  0  0
 10  2  1  0  0  0  0
 11  6  1  0  0  0  0
 12 10  1  0  0  0  0
 13  1  1  0  0  0  0
 13 26  1  0  0  0  0
 14 18  1  0  0  0  0
 14 17  1  0  0  0  0
 15 13  1  0  0  0  0
 16 23  1  0  0  0  0
 16 10  1  0  0  0  0
 17 22  1  0  0  0  0
 18 15  1  0  0  0  0
 19  1  1  0  0  0  0
 20 18  1  0  0  0  0
 20  2  1  0  0  0  0
 21 11  1  0  0  0  0
 21  3  1  0  0  0  0
 22  8  1  0  0  0  0
 22  6  1  0  0  0  0
 23 20  1  0  0  0  0
 24 19  1  0  0  0  0
 25 26  2  0  0  0  0
 26 29  1  0  0  0  0
 26 27  1  0  0  0  0
 29 28  1  0  0  0  0
 30 33  1  0  0  0  0
 30 31  1  0  0  0  0
 32 30  1  0  0  0  0
 33 34  1  0  0  0  0
 34 35  1  0  0  0  0
 35 38  1  0  0  0  0
 36 35  2  0  0  0  0
 38 37  2  0  0  0  0
M  END
>  <MODEL>
7

>  <REMARK>
 VINA RESULT:      -6.8      3.943      9.839
  Name = 
  7 active torsions:
  status: ('A' for Active; 'I' for Inactive)
    1  A    between atoms: C_3  and  O_34
    2  A    between atoms: C_3  and  N_38
    3  A    between atoms: C_5  and  C_15
    4  A    between atoms: C_15  and  C_22
    5  A    between atoms: C_17  and  P_20
    6  A    between atoms: P_20  and  O_30
    7  A    between atoms: C_22  and  O_34
                            x       y       z     vdW  Elec       q    Type
                         _______ _______ _______ _____ _____    ______ ____

>  <TORSDO>
F 7

$$$$
=
 OpenBabel11062421003D

 38 42  0  0  1  0  0  0  0  0999 V2000
  192.7220  175.5720  145.9740 C   0  0  0  0  0  2  0  0  0  0  0  0
  189.2880  177.0200  143.2410 C   0  0  0  0  0  2  0  0  0  0  0  0
  195.4640  173.0780  145.0020 C   0  0  2  0  0  3  0  0  0  0  0  0
  188.9890  172.9550  142.0150 C   0  0  2  0  0  3  0  0  0  0  0  0
  194.6210  170.5550  142.8030 O   0  0  0  0  0  1  0  0  0  0  0  0
  193.0140  171.5680  144.2530 C   0  0  0  0  0  2  0  0  0  0  0  0
  188.0690  174.0830  141.5000 C   0  0  0  0  0  2  0  0  0  0  0  0
  192.4930  174.0670  144.1480 C   0  0  1  0  0  3  0  0  0  0  0  0
  188.3960  172.3700  143.1340 O   0  0  0  0  0  1  0  0  0  0  0  0
  188.1290  177.5820  142.4410 C   0  0  1  0  0  3  0  0  0  0  0  0
  194.4970  171.3530  143.9380 C   0  0  2  0  0  3  0  0  0  0  0  0
  188.5870  178.6240  141.6350 O   0  0  0  0  0  1  0  0  0  0  0  0
  191.3550  175.8050  145.3240 C   0  0  1  0  0  3  0  0  0  0  0  0
  190.4410  173.3980  142.3460 C   0  0  2  0  0  3  0  0  0  0  0  0
  191.1220  174.5950  144.4380 C   0  0  1  0  0  3  0  0  0  0  0  0
  187.6500  176.4320  141.5670 C   0  0  0  0  0  2  0  0  0  0  0  0
  191.0710  172.3580  143.0910 O   0  0  0  0  0  0  0  0  0  0  0  0
  190.5200  174.7980  143.0550 C   0  0  2  0  0  3  0  0  0  0  0  0
  193.2720  174.2570  145.4330 C   0  0  1  0  0  3  0  0  0  0  0  0
  189.1880  175.5330  142.9960 C   0  0  2  0  0  3  0  0  0  0  0  0
  195.1740  172.5640  143.7300 O   0  0  0  0  0  0  0  0  0  0  0  0
  192.4070  172.6970  143.4270 C   0  0  2  0  0  3  0  0  0  0  0  0
  188.6730  175.4030  141.6460 N   0  0  1  0  0  0  0  0  0  0  0  0
  194.7620  174.4260  145.1700 C   0  0  0  0  0  2  0  0  0  0  0  0
  188.9530  174.9240  146.3220 O   0  0  0  0  0  0  0  0  0  0  0  0
  190.0980  175.8590  146.6410 P   0  0  1  0  0  0  0  0  0  0  0  0
  190.8010  175.3810  148.1030 O   0  0  0  0  0  1  0  0  0  0  0  0
  188.2650  177.3820  146.3730 O   0  0  0  0  0  1  0  0  0  0  0  0
  189.5080  177.4380  146.8040 O   0  0  0  0  0  0  0  0  0  0  0  0
  196.9880  173.1610  145.2150 C   0  0  2  0  0  0  0  0  0  0  0  0
  197.7010  171.9530  144.6160 C   0  0  0  0  0  1  0  0  0  0  0  0
  197.2460  173.1780  146.5860 O   0  0  0  0  0  1  0  0  0  0  0  0
  197.5540  174.4530  144.6260 C   0  0  0  0  0  2  0  0  0  0  0  0
  197.9220  174.2960  143.2610 O   0  0  0  0  0  0  0  0  0  0  0  0
  197.2750  174.9060  142.1760 C   0  0  0  0  0  0  0  0  0  0  0  0
  197.0510  174.2080  141.1530 O   0  0  0  0  0  0  0  0  0  0  0  0
  195.9670  176.7800  141.3680 C   0  0  0  0  0  2  0  0  0  0  0  0
  196.8510  176.2790  142.1660 N   0  0  0  0  0  0  0  0  0  0  0  0
  3 24  1  0  0  0  0
  3 30  1  6  0  0  0
  4 14  1  0  0  0  0
  4  9  1  1  0  0  0
  5 11  1  0  0  0  0
  7 23  1  0  0  0  0
  7  4  1  0  0  0  0
  8 15  1  0  0  0  0
  8 19  1  0  0  0  0
 10  2  1  0  0  0  0
 11  6  1  0  0  0  0
 12 10  1  0  0  0  0
 13  1  1  0  0  0  0
 13 26  1  0  0  0  0
 14 18  1  0  0  0  0
 14 17  1  0  0  0  0
 15 13  1  0  0  0  0
 16 23  1  0  0  0  0
 16 10  1  0  0  0  0
 17 22  1  0  0  0  0
 18 15  1  0  0  0  0
 19  1  1  0  0  0  0
 20 18  1  0  0  0  0
 20  2  1  0  0  0  0
 21 11  1  0  0  0  0
 21  3  1  0  0  0  0
 22  8  1  0  0  0  0
 22  6  1  0  0  0  0
 23 20  1  0  0  0  0
 24 19  1  0  0  0  0
 25 26  2  0  0  0  0
 26 29  1  0  0  0  0
 26 27  1  0  0  0  0
 28 29  1  0  0  0  0
 30 32  1  0  0  0  0
 31 30  1  0  0  0  0
 33 30  1  0  0  0  0
 34 33  1  0  0  0  0
 35 34  1  0  0  0  0
 36 35  2  0  0  0  0
 37 38  2  0  0  0  0
 38 35  1  0  0  0  0
M  END
>  <MODEL>
8

>  <REMARK>
 VINA RESULT:      -6.7      3.287      9.186
  Name = 
  7 active torsions:
  status: ('A' for Active; 'I' for Inactive)
    1  A    between atoms: C_3  and  O_34
    2  A    between atoms: C_3  and  N_38
    3  A    between atoms: C_5  and  C_15
    4  A    between atoms: C_15  and  C_22
    5  A    between atoms: C_17  and  P_20
    6  A    between atoms: P_20  and  O_30
    7  A    between atoms: C_22  and  O_34
                            x       y       z     vdW  Elec       q    Type
                         _______ _______ _______ _____ _____    ______ ____

>  <TORSDO>
F 7

$$$$
=
 OpenBabel11062421003D

 38 42  0  0  1  0  0  0  0  0999 V2000
  189.4970  175.8470  143.5630 C   0  0  0  0  0  2  0  0  0  0  0  0
  190.5870  171.7310  141.7650 C   0  0  0  0  0  2  0  0  0  0  0  0
  186.2910  177.8240  142.8590 C   0  0  2  0  0  3  0  0  0  0  0  0
  189.0760  173.2950  138.1060 C   0  0  2  0  0  3  0  0  0  0  0  0
  184.9100  177.5590  139.7070 O   0  0  0  0  0  1  0  0  0  0  0  0
  187.2500  177.2730  140.0990 C   0  0  0  0  0  2  0  0  0  0  0  0
  189.6790  171.8820  138.2580 C   0  0  0  0  0  2  0  0  0  0  0  0
  188.1430  175.4490  141.6490 C   0  0  1  0  0  3  0  0  0  0  0  0
  190.0930  174.1790  137.7400 O   0  0  0  0  0  1  0  0  0  0  0  0
  191.0500  170.3790  141.2570 C   0  0  1  0  0  3  0  0  0  0  0  0
  185.9140  177.7850  140.6460 C   0  0  2  0  0  3  0  0  0  0  0  0
  190.4400  169.3720  142.0040 O   0  0  0  0  0  1  0  0  0  0  0  0
  190.1320  174.7170  142.7460 C   0  0  1  0  0  3  0  0  0  0  0  0
  188.3300  173.8240  139.3620 C   0  0  2  0  0  3  0  0  0  0  0  0
  189.4540  174.7720  141.3900 C   0  0  1  0  0  3  0  0  0  0  0  0
  190.5730  170.3080  139.8140 C   0  0  0  0  0  2  0  0  0  0  0  0
  188.1070  175.2230  139.1990 O   0  0  0  0  0  0  0  0  0  0  0  0
  189.0520  173.4700  140.7120 C   0  0  2  0  0  3  0  0  0  0  0  0
  188.4420  176.5120  142.6860 C   0  0  1  0  0  3  0  0  0  0  0  0
  190.1580  172.4440  140.5050 C   0  0  2  0  0  3  0  0  0  0  0  0
  185.5670  177.1640  141.8560 O   0  0  0  0  0  0  0  0  0  0  0  0
  187.4250  175.7740  140.3130 C   0  0  2  0  0  3  0  0  0  0  0  0
  189.6380  171.4060  139.6360 N   0  0  1  0  0  0  0  0  0  0  0  0
  187.2240  176.8240  143.5430 C   0  0  0  0  0  2  0  0  0  0  0  0
  192.3740  174.7560  141.1610 O   0  0  0  0  0  0  0  0  0  0  0  0
  191.9090  175.0740  142.5640 P   0  0  1  0  0  0  0  0  0  0  0  0
  192.1820  176.7140  142.8710 O   0  0  0  0  0  1  0  0  0  0  0  0
  193.2780  175.0240  144.5330 O   0  0  0  0  0  1  0  0  0  0  0  0
  192.7950  174.1500  143.6740 O   0  0  0  0  0  0  0  0  0  0  0  0
  185.3330  178.5250  143.8430 C   0  0  2  0  0  0  0  0  0  0  0  0
  183.9050  178.5470  143.3090 C   0  0  0  0  0  1  0  0  0  0  0  0
  185.7520  179.8450  144.0090 O   0  0  0  0  0  1  0  0  0  0  0  0
  185.3730  177.8560  145.2170 C   0  0  0  0  0  2  0  0  0  0  0  0
  186.2720  178.5150  146.1010 O   0  0  0  0  0  0  0  0  0  0  0  0
  186.7710  177.9730  147.2960 C   0  0  0  0  0  0  0  0  0  0  0  0
  185.9450  177.5170  148.1280 O   0  0  0  0  0  0  0  0  0  0  0  0
  189.1070  177.5460  146.8090 C   0  0  0  0  0  2  0  0  0  0  0  0
  188.1690  177.9070  147.6210 N   0  0  0  0  0  0  0  0  0  0  0  0
  3 24  1  0  0  0  0
  3 30  1  1  0  0  0
  4  9  1  1  0  0  0
  4  7  1  0  0  0  0
  4 14  1  0  0  0  0
  5 11  1  0  0  0  0
  6 22  1  0  0  0  0
  6 11  1  0  0  0  0
  7 23  1  0  0  0  0
  8 19  1  0  0  0  0
 10  2  1  0  0  0  0
 10 12  1  0  0  0  0
 11 21  1  0  0  0  0
 13  1  1  0  0  0  0
 14 18  1  0  0  0  0
 15  8  1  0  0  0  0
 15 13  1  0  0  0  0
 16 10  1  0  0  0  0
 17 14  1  0  0  0  0
 17 22  1  0  0  0  0
 18 15  1  0  0  0  0
 19 24  1  0  0  0  0
 19  1  1  0  0  0  0
 20 18  1  0  0  0  0
 20  2  1  0  0  0  0
 21  3  1  0  0  0  0
 22  8  1  0  0  0  0
 23 16  1  0  0  0  0
 23 20  1  0  0  0  0
 25 26  2  0  0  0  0
 26 13  1  0  0  0  0
 26 27  1  0  0  0  0
 26 29  1  0  0  0  0
 29 28  1  0  0  0  0
 30 32  1  0  0  0  0
 30 33  1  0  0  0  0
 31 30  1  0  0  0  0
 33 34  1  0  0  0  0
 34 35  1  0  0  0  0
 35 38  1  0  0  0  0
 35 36  2  0  0  0  0
 37 38  2  0  0  0  0
M  END
>  <MODEL>
9

>  <REMARK>
 VINA RESULT:      -6.4      3.274      6.093
  Name = 
  7 active torsions:
  status: ('A' for Active; 'I' for Inactive)
    1  A    between atoms: C_3  and  O_34
    2  A    between atoms: C_3  and  N_38
    3  A    between atoms: C_5  and  C_15
    4  A    between atoms: C_15  and  C_22
    5  A    between atoms: C_17  and  P_20
    6  A    between atoms: P_20  and  O_30
    7  A    between atoms: C_22  and  O_34
                            x       y       z     vdW  Elec       q    Type
                         _______ _______ _______ _____ _____    ______ ____

>  <TORSDO>
F 7

$$$$
