=
 OpenBabel11062419223D

 50 53  0  0  1  0  0  0  0  0999 V2000
  191.2750  175.4260  142.9920 O   0  0  0  0  0  1  0  0  0  0  0  0
  188.1910  173.4850  139.0310 C   0  0  0  0  0  2  0  0  0  0  0  0
  189.3830  172.8660  138.3200 C   0  0  0  0  0  2  0  0  0  0  0  0
  189.9970  171.7250  139.1240 C   0  0  0  0  0  2  0  0  0  0  0  0
  190.5370  173.1940  142.5980 C   0  0  2  0  0  3  0  0  0  0  0  0
  188.9850  175.2220  142.1870 C   0  0  2  0  0  3  0  0  0  0  0  0
  190.8100  172.2440  140.2980 C   0  0  0  0  0  2  0  0  0  0  0  0
  190.4340  174.6670  142.1770 C   0  0  1  0  0  3  0  0  0  0  0  0
  189.9570  172.2460  141.5560 C   0  0  0  0  0  2  0  0  0  0  0  0
  188.6390  174.6650  139.8710 C   0  0  0  0  0  2  0  0  0  0  0  0
  188.1250  174.5150  141.2280 N   0  0  0  0  0  2  0  0  0  0  0  0
  186.4030  177.0210  142.3200 C   0  0  1  0  0  3  0  0  0  0  0  0
  187.5900  177.2330  141.3790 C   0  0  0  0  0  2  0  0  0  0  0  0
  188.9060  176.7590  142.0190 C   0  0  1  0  0  3  0  0  0  0  0  0
  186.6310  177.7640  143.6310 C   0  0  0  0  0  2  0  0  0  0  0  0
  189.1150  177.4850  143.3550 C   0  0  0  0  0  2  0  0  0  0  0  0
  187.9220  177.2790  144.2900 C   0  0  1  0  0  3  0  0  0  0  0  0
  184.1730  177.9150  141.1540 C   0  0  0  0  0  0  0  0  0  0  0  0
  182.9550  178.4060  140.5130 C   0  0  0  0  0  1  0  0  0  0  0  0
  185.1790  177.5110  141.6820 C   0  0  0  0  0  0  0  0  0  0  0  0
  188.1450  177.9720  145.6290 C   0  0  0  0  0  2  0  0  0  0  0  0
  187.3760  177.3340  146.6860 N   0  0  0  0  0  2  0  0  0  0  0  0
  186.4130  178.3160  147.1540 C   0  0  0  0  0  2  0  0  0  0  0  0
  184.1850  178.6660  146.1380 C   0  0  0  0  0  1  0  0  0  0  0  0
  185.0070  177.7610  147.0280 C   0  0  1  0  0  3  0  0  0  0  0  0
  185.0510  176.4830  146.4730 O   0  0  0  0  0  1  0  0  0  0  0  0
  189.9020  172.9800  143.8900 N   0  0  0  0  0  2  0  0  0  0  0  0
  190.7900  173.4570  144.8640 N   0  0  0  0  0  2  0  0  0  0  0  0
  189.1340  174.6440  146.0030 O   0  0  0  0  0  0  0  0  0  0  0  0
  190.3400  174.2920  145.9320 C   0  0  0  0  0  0  0  0  0  0  0  0
  193.2000  173.8700  145.8100 O   0  0  0  0  0  0  0  0  0  0  0  0
  191.9090  176.7130  148.4100 C   0  0  1  0  0  3  0  0  0  0  0  0
  191.3010  174.7240  146.9930 C   0  0  1  0  0  3  0  0  0  0  0  0
  193.4820  176.0340  146.6410 N   0  0  0  0  0  0  0  0  0  0  0  0
  192.9690  177.1640  147.4170 C   0  0  0  0  0  2  0  0  0  0  0  0
  191.3450  177.9200  149.1280 C   0  0  0  0  0  1  0  0  0  0  0  0
  192.6960  174.8480  146.4290 C   0  0  0  0  0  0  0  0  0  0  0  0
  190.7990  176.0170  147.6400 C   0  0  0  0  0  2  0  0  0  0  0  0
  194.7360  176.1130  146.1280 O   0  0  0  0  0  0  0  0  0  0  0  0
  194.6000  176.7940  144.9050 C   0  0  0  0  0  2  0  0  0  0  0  0
  196.4540  174.1110  143.3850 C   0  0  2  0  0  0  0  0  0  0  0  0
  197.8130  174.2660  142.7260 C   0  0  0  0  0  1  0  0  0  0  0  0
  195.3730  174.3820  142.3680 C   0  0  0  0  0  2  0  0  0  0  0  0
  194.6490  176.5490  141.7350 F   0  0  0  0  0  0  0  0  0  0  0  0
  194.7020  175.6710  142.8020 C   0  0  2  0  0  3  0  0  0  0  0  0
  196.2720  175.1640  144.4590 C   0  0  0  0  0  2  0  0  0  0  0  0
  195.4940  176.2520  143.8810 N   0  0  0  0  0  0  0  0  0  0  0  0
  196.2880  172.7100  143.9610 C   0  0  0  0  0  2  0  0  0  0  0  0
  197.1920  171.2840  145.3850 C   0  0  0  0  0  1  0  0  0  0  0  0
  196.8490  172.6270  145.2390 O   0  0  0  0  0  0  0  0  0  0  0  0
  2 10  1  0  0  0  0
  3  2  1  0  0  0  0
  3  4  1  0  0  0  0
  4  7  1  0  0  0  0
  5 27  1  1  0  0  0
  6 11  1  6  0  0  0
  7  9  1  0  0  0  0
  8  6  1  0  0  0  0
  8  5  1  0  0  0  0
  8  1  1  1  0  0  0
  9  5  1  0  0  0  0
 10 11  1  0  0  0  0
 12 20  1  6  0  0  0
 12 15  1  0  0  0  0
 13 12  1  0  0  0  0
 14 13  1  1  0  0  0
 14  6  1  0  0  0  0
 14 16  1  0  0  0  0
 15 17  1  0  0  0  0
 16 17  1  0  0  0  0
 17 21  1  1  0  0  0
 18 20  3  0  0  0  0
 19 18  1  0  0  0  0
 21 22  1  0  0  0  0
 22 23  1  0  0  0  0
 25 24  1  6  0  0  0
 25 23  1  0  0  0  0
 26 25  1  0  0  0  0
 27 28  1  0  0  0  0
 28 30  1  0  0  0  0
 30 29  2  0  0  0  0
 31 37  2  0  0  0  0
 32 36  1  6  0  0  0
 33 30  1  6  0  0  0
 33 38  1  0  0  0  0
 34 35  1  0  0  0  0
 35 32  1  0  0  0  0
 37 34  1  0  0  0  0
 37 33  1  0  0  0  0
 38 32  1  0  0  0  0
 39 34  1  0  0  0  0
 40 39  1  0  0  0  0
 41 42  1  6  0  0  0
 41 48  1  0  0  0  0
 41 46  1  0  0  0  0
 43 45  1  0  0  0  0
 43 41  1  0  0  0  0
 45 44  1  6  0  0  0
 45 47  1  0  0  0  0
 47 46  1  0  0  0  0
 47 40  1  0  0  0  0
 48 50  1  0  0  0  0
 50 49  1  0  0  0  0
M  END
>  <MODEL>
1

>  <REMARK>
 VINA RESULT:      -7.3      0.000      0.000
  Name = 
  14 active torsions:
  status: ('A' for Active; 'I' for Inactive)
    1  A    between atoms: C_2  and  N_14
    2  A    between atoms: C_2  and  C_42
    3  A    between atoms: C_3  and  C_12
    4  A    between atoms: C_5  and  N_14
    5  A    between atoms: C_5  and  C_41
    6  A    between atoms: N_11  and  N_43
    7  A    between atoms: C_12  and  O_36
    8  A    between atoms: C_19  and  C_24
    9  A    between atoms: C_22  and  C_50
   10  A    between atoms: C_23  and  N_43
   11  A    between atoms: N_25  and  C_31
   12  A    between atoms: C_28  and  C_32
   13  A    between atoms: C_31  and  O_37
   14  A    between atoms: N_33  and  O_37
                            x       y       z     vdW  Elec       q    Type
                         _______ _______ _______ _____ _____    ______ ____

>  <TORSDO>
F 14

$$$$
=
 OpenBabel11062419223D

 50 53  0  0  1  0  0  0  0  0999 V2000
  196.3930  175.5150  142.8090 O   0  0  0  0  0  1  0  0  0  0  0  0
  192.3760  174.6540  146.2870 C   0  0  0  0  0  2  0  0  0  0  0  0
  192.1260  176.1430  146.4650 C   0  0  0  0  0  2  0  0  0  0  0  0
  191.5960  176.7880  145.1890 C   0  0  0  0  0  2  0  0  0  0  0  0
  194.0380  175.6840  142.4800 C   0  0  2  0  0  3  0  0  0  0  0  0
  195.0690  173.7960  143.9160 C   0  0  2  0  0  3  0  0  0  0  0  0
  192.6960  176.9700  144.1570 C   0  0  0  0  0  2  0  0  0  0  0  0
  195.1690  175.2660  143.4320 C   0  0  1  0  0  3  0  0  0  0  0  0
  192.6930  175.8010  143.1870 C   0  0  0  0  0  2  0  0  0  0  0  0
  193.8150  174.4120  145.8770 C   0  0  0  0  0  2  0  0  0  0  0  0
  193.8430  173.5610  144.6930 N   0  0  0  0  0  2  0  0  0  0  0  0
  195.5670  170.9250  145.1130 C   0  0  1  0  0  3  0  0  0  0  0  0
  196.0300  172.2430  145.7350 C   0  0  0  0  0  2  0  0  0  0  0  0
  196.3330  173.2980  144.6580 C   0  0  1  0  0  3  0  0  0  0  0  0
  196.6300  170.3910  144.1590 C   0  0  0  0  0  2  0  0  0  0  0  0
  197.3790  172.7430  143.6800 C   0  0  0  0  0  2  0  0  0  0  0  0
  196.9180  171.4190  143.0670 C   0  0  1  0  0  3  0  0  0  0  0  0
  195.1110  169.1400  147.0460 C   0  0  0  0  0  0  0  0  0  0  0  0
  194.8590  168.1660  148.1060 C   0  0  0  0  0  1  0  0  0  0  0  0
  195.3170  169.9450  146.1720 C   0  0  0  0  0  0  0  0  0  0  0  0
  197.9410  170.8870  142.0720 C   0  0  0  0  0  2  0  0  0  0  0  0
  197.4030  170.8720  140.7210 N   0  0  0  0  0  2  0  0  0  0  0  0
  196.3140  171.8320  140.6920 C   0  0  0  0  0  2  0  0  0  0  0  0
  197.3590  173.1950  138.9100 C   0  0  0  0  0  1  0  0  0  0  0  0
  196.1430  172.3760  139.2860 C   0  0  1  0  0  3  0  0  0  0  0  0
  195.9990  171.3230  138.3860 O   0  0  0  0  0  1  0  0  0  0  0  0
  193.9430  174.7650  141.3560 N   0  0  0  0  0  2  0  0  0  0  0  0
  192.5780  174.5570  141.1150 N   0  0  0  0  0  2  0  0  0  0  0  0
  192.7720  172.2320  141.1690 O   0  0  0  0  0  0  0  0  0  0  0  0
  192.0290  173.2400  141.0450 C   0  0  0  0  0  0  0  0  0  0  0  0
  190.0840  173.3750  143.1830 O   0  0  0  0  0  0  0  0  0  0  0  0
  188.6460  173.8190  139.4090 C   0  0  1  0  0  3  0  0  0  0  0  0
  190.5580  173.0570  140.8570 C   0  0  1  0  0  3  0  0  0  0  0  0
  188.6980  174.5890  141.7470 N   0  0  0  0  0  0  0  0  0  0  0  0
  188.2740  174.9230  140.3860 C   0  0  0  0  0  2  0  0  0  0  0  0
  188.2690  174.2420  138.0050 C   0  0  0  0  0  1  0  0  0  0  0  0
  189.7930  173.6880  141.9950 C   0  0  0  0  0  0  0  0  0  0  0  0
  190.1470  173.5980  139.4860 C   0  0  0  0  0  2  0  0  0  0  0  0
  188.0240  175.1350  142.7910 O   0  0  0  0  0  0  0  0  0  0  0  0
  186.9610  175.8540  142.2170 C   0  0  0  0  0  2  0  0  0  0  0  0
  185.7350  178.3820  144.4650 C   0  0  2  0  0  0  0  0  0  0  0  0
  185.4680  179.8250  144.0780 C   0  0  0  0  0  1  0  0  0  0  0  0
  187.1770  178.2370  144.8860 C   0  0  0  0  0  2  0  0  0  0  0  0
  188.9910  178.0090  143.3770 F   0  0  0  0  0  0  0  0  0  0  0  0
  187.8410  177.3830  143.8230 C   0  0  2  0  0  3  0  0  0  0  0  0
  185.5740  177.4800  143.2590 C   0  0  0  0  0  2  0  0  0  0  0  0
  186.9030  177.2280  142.7160 N   0  0  0  0  0  0  0  0  0  0  0  0
  184.8160  177.9460  145.6000 C   0  0  0  0  0  2  0  0  0  0  0  0
  185.2400  178.4220  147.7140 C   0  0  0  0  0  1  0  0  0  0  0  0
  185.5590  177.5160  146.7040 O   0  0  0  0  0  0  0  0  0  0  0  0
  2  3  1  0  0  0  0
  4  3  1  0  0  0  0
  5 27  1  6  0  0  0
  5  9  1  0  0  0  0
  5  8  1  0  0  0  0
  6 14  1  0  0  0  0
  6 11  1  1  0  0  0
  7  4  1  0  0  0  0
  8  1  1  6  0  0  0
  8  6  1  0  0  0  0
  9  7  1  0  0  0  0
 10  2  1  0  0  0  0
 11 10  1  0  0  0  0
 12 13  1  0  0  0  0
 12 20  1  1  0  0  0
 14 16  1  6  0  0  0
 14 13  1  0  0  0  0
 15 12  1  0  0  0  0
 17 21  1  6  0  0  0
 17 16  1  0  0  0  0
 17 15  1  0  0  0  0
 18 19  1  0  0  0  0
 20 18  3  0  0  0  0
 22 21  1  0  0  0  0
 23 22  1  0  0  0  0
 25 24  1  6  0  0  0
 25 23  1  0  0  0  0
 26 25  1  0  0  0  0
 28 27  1  0  0  0  0
 30 28  1  0  0  0  0
 30 29  2  0  0  0  0
 32 36  1  6  0  0  0
 32 38  1  0  0  0  0
 32 35  1  0  0  0  0
 33 30  1  1  0  0  0
 33 37  1  0  0  0  0
 34 37  1  0  0  0  0
 34 39  1  0  0  0  0
 35 34  1  0  0  0  0
 37 31  2  0  0  0  0
 38 33  1  0  0  0  0
 40 47  1  0  0  0  0
 40 39  1  0  0  0  0
 41 42  1  6  0  0  0
 41 43  1  0  0  0  0
 41 48  1  0  0  0  0
 45 44  1  6  0  0  0
 45 43  1  0  0  0  0
 46 41  1  0  0  0  0
 47 46  1  0  0  0  0
 47 45  1  0  0  0  0
 48 50  1  0  0  0  0
 50 49  1  0  0  0  0
M  END
>  <MODEL>
2

>  <REMARK>
 VINA RESULT:      -7.2      2.743     10.077
  Name = 
  14 active torsions:
  status: ('A' for Active; 'I' for Inactive)
    1  A    between atoms: C_2  and  N_14
    2  A    between atoms: C_2  and  C_42
    3  A    between atoms: C_3  and  C_12
    4  A    between atoms: C_5  and  N_14
    5  A    between atoms: C_5  and  C_41
    6  A    between atoms: N_11  and  N_43
    7  A    between atoms: C_12  and  O_36
    8  A    between atoms: C_19  and  C_24
    9  A    between atoms: C_22  and  C_50
   10  A    between atoms: C_23  and  N_43
   11  A    between atoms: N_25  and  C_31
   12  A    between atoms: C_28  and  C_32
   13  A    between atoms: C_31  and  O_37
   14  A    between atoms: N_33  and  O_37
                            x       y       z     vdW  Elec       q    Type
                         _______ _______ _______ _____ _____    ______ ____

>  <TORSDO>
F 14

$$$$
=
 OpenBabel11062419223D

 50 53  0  0  1  0  0  0  0  0999 V2000
  188.5130  173.5670  143.6240 O   0  0  0  0  0  1  0  0  0  0  0  0
  190.8800  171.8010  139.1240 C   0  0  0  0  0  2  0  0  0  0  0  0
  189.5620  171.3150  138.5440 C   0  0  0  0  0  2  0  0  0  0  0  0
  188.6170  172.4700  138.2310 C   0  0  0  0  0  2  0  0  0  0  0  0
  188.5260  174.5230  141.4400 C   0  0  2  0  0  3  0  0  0  0  0  0
  190.6340  173.4040  142.4370 C   0  0  2  0  0  3  0  0  0  0  0  0
  187.9940  173.0410  139.4940 C   0  0  0  0  0  2  0  0  0  0  0  0
  189.0850  173.4260  142.3580 C   0  0  1  0  0  3  0  0  0  0  0  0
  188.7940  174.2430  139.9660 C   0  0  0  0  0  2  0  0  0  0  0  0
  190.8120  171.8150  140.6380 C   0  0  0  0  0  2  0  0  0  0  0  0
  191.2410  173.1190  141.1290 N   0  0  0  0  0  2  0  0  0  0  0  0
  193.5950  173.2740  143.5050 C   0  0  1  0  0  3  0  0  0  0  0  0
  192.6560  172.0800  143.3320 C   0  0  0  0  0  2  0  0  0  0  0  0
  191.1880  172.4820  143.5500 C   0  0  1  0  0  3  0  0  0  0  0  0
  193.4310  173.8760  144.8960 C   0  0  0  0  0  2  0  0  0  0  0  0
  191.0330  173.1180  144.9390 C   0  0  0  0  0  2  0  0  0  0  0  0
  191.9810  174.3070  145.1130 C   0  0  1  0  0  3  0  0  0  0  0  0
  196.1210  172.4790  143.1600 C   0  0  0  0  0  0  0  0  0  0  0  0
  197.5020  172.0400  142.9690 C   0  0  0  0  0  1  0  0  0  0  0  0
  194.9800  172.8400  143.3160 C   0  0  0  0  0  0  0  0  0  0  0  0
  191.8030  174.9580  146.4780 C   0  0  0  0  0  2  0  0  0  0  0  0
  191.6600  176.4010  146.3590 N   0  0  0  0  0  2  0  0  0  0  0  0
  190.4010  176.7510  146.9920 C   0  0  0  0  0  2  0  0  0  0  0  0
  190.2280  177.8220  144.7690 C   0  0  0  0  0  1  0  0  0  0  0  0
  189.4440  177.3160  145.9600 C   0  0  1  0  0  3  0  0  0  0  0  0
  188.5600  176.3230  145.5420 O   0  0  0  0  0  1  0  0  0  0  0  0
  189.0520  175.8270  141.8140 N   0  0  0  0  0  2  0  0  0  0  0  0
  187.9560  176.6130  142.1950 N   0  0  0  0  0  2  0  0  0  0  0  0
  188.9680  178.6080  141.5270 O   0  0  0  0  0  0  0  0  0  0  0  0
  187.9600  178.0300  142.0100 C   0  0  0  0  0  0  0  0  0  0  0  0
  185.7360  178.4920  140.2180 O   0  0  0  0  0  0  0  0  0  0  0  0
  185.0170  179.0910  144.1720 C   0  0  1  0  0  3  0  0  0  0  0  0
  186.7460  178.8280  142.3630 C   0  0  1  0  0  3  0  0  0  0  0  0
  184.2990  178.1260  142.0230 N   0  0  0  0  0  0  0  0  0  0  0  0
  184.0560  178.1460  143.4660 C   0  0  0  0  0  2  0  0  0  0  0  0
  184.7900  179.0150  145.6670 C   0  0  0  0  0  1  0  0  0  0  0  0
  185.5860  178.4560  141.4710 C   0  0  0  0  0  0  0  0  0  0  0  0
  186.4360  178.6560  143.8520 C   0  0  0  0  0  2  0  0  0  0  0  0
  183.2730  177.8030  141.1950 O   0  0  0  0  0  0  0  0  0  0  0  0
  182.1610  178.5130  141.6810 C   0  0  0  0  0  2  0  0  0  0  0  0
  178.8280  178.0580  140.4050 C   0  0  2  0  0  0  0  0  0  0  0  0
  178.4880  177.8060  138.9470 C   0  0  0  0  0  1  0  0  0  0  0  0
  178.8850  179.5450  140.6540 C   0  0  0  0  0  2  0  0  0  0  0  0
  180.7520  180.9130  140.1420 F   0  0  0  0  0  0  0  0  0  0  0  0
  180.3380  179.8660  140.9460 C   0  0  2  0  0  3  0  0  0  0  0  0
  180.2180  177.5420  140.7130 C   0  0  0  0  0  2  0  0  0  0  0  0
  181.1310  178.6760  140.6540 N   0  0  0  0  0  0  0  0  0  0  0  0
  177.7920  177.4170  141.3210 C   0  0  0  0  0  2  0  0  0  0  0  0
  178.0280  177.5700  143.5110 C   0  0  0  0  0  1  0  0  0  0  0  0
  178.4090  176.8000  142.4140 O   0  0  0  0  0  0  0  0  0  0  0  0
  2 10  1  0  0  0  0
  3  2  1  0  0  0  0
  4  3  1  0  0  0  0
  4  7  1  0  0  0  0
  5 27  1  1  0  0  0
  5  8  1  0  0  0  0
  6 11  1  6  0  0  0
  6 14  1  0  0  0  0
  7  9  1  0  0  0  0
  8  6  1  0  0  0  0
  8  1  1  1  0  0  0
  9  5  1  0  0  0  0
 10 11  1  0  0  0  0
 12 20  1  1  0  0  0
 12 15  1  0  0  0  0
 13 12  1  0  0  0  0
 14 13  1  6  0  0  0
 14 16  1  0  0  0  0
 15 17  1  0  0  0  0
 16 17  1  0  0  0  0
 17 21  1  1  0  0  0
 18 20  3  0  0  0  0
 19 18  1  0  0  0  0
 22 21  1  0  0  0  0
 22 23  1  0  0  0  0
 25 24  1  6  0  0  0
 25 23  1  0  0  0  0
 26 25  1  0  0  0  0
 27 28  1  0  0  0  0
 29 30  2  0  0  0  0
 30 28  1  0  0  0  0
 31 37  2  0  0  0  0
 32 36  1  1  0  0  0
 33 30  1  6  0  0  0
 33 38  1  0  0  0  0
 34 35  1  0  0  0  0
 35 32  1  0  0  0  0
 37 34  1  0  0  0  0
 37 33  1  0  0  0  0
 38 32  1  0  0  0  0
 39 40  1  0  0  0  0
 39 34  1  0  0  0  0
 41 42  1  6  0  0  0
 41 43  1  0  0  0  0
 41 46  1  0  0  0  0
 41 48  1  0  0  0  0
 43 45  1  0  0  0  0
 45 44  1  6  0  0  0
 47 46  1  0  0  0  0
 47 45  1  0  0  0  0
 47 40  1  0  0  0  0
 48 50  1  0  0  0  0
 50 49  1  0  0  0  0
M  END
>  <MODEL>
3

>  <REMARK>
 VINA RESULT:      -7.2      3.727     10.227
  Name = 
  14 active torsions:
  status: ('A' for Active; 'I' for Inactive)
    1  A    between atoms: C_2  and  N_14
    2  A    between atoms: C_2  and  C_42
    3  A    between atoms: C_3  and  C_12
    4  A    between atoms: C_5  and  N_14
    5  A    between atoms: C_5  and  C_41
    6  A    between atoms: N_11  and  N_43
    7  A    between atoms: C_12  and  O_36
    8  A    between atoms: C_19  and  C_24
    9  A    between atoms: C_22  and  C_50
   10  A    between atoms: C_23  and  N_43
   11  A    between atoms: N_25  and  C_31
   12  A    between atoms: C_28  and  C_32
   13  A    between atoms: C_31  and  O_37
   14  A    between atoms: N_33  and  O_37
                            x       y       z     vdW  Elec       q    Type
                         _______ _______ _______ _____ _____    ______ ____

>  <TORSDO>
F 14

$$$$
=
 OpenBabel11062419223D

 50 53  0  0  1  0  0  0  0  0999 V2000
  192.0480  175.2660  142.8740 O   0  0  0  0  0  1  0  0  0  0  0  0
  187.3640  175.0150  140.2360 C   0  0  0  0  0  2  0  0  0  0  0  0
  188.0550  174.8540  138.8930 C   0  0  0  0  0  2  0  0  0  0  0  0
  188.7970  173.5260  138.7880 C   0  0  0  0  0  2  0  0  0  0  0  0
  190.9310  173.3780  141.9420 C   0  0  2  0  0  3  0  0  0  0  0  0
  189.6270  175.2640  143.1390 C   0  0  2  0  0  3  0  0  0  0  0  0
  190.0870  173.5430  139.5910 C   0  0  0  0  0  2  0  0  0  0  0  0
  190.8520  174.8770  142.2690 C   0  0  1  0  0  3  0  0  0  0  0  0
  189.8490  172.9370  140.9640 C   0  0  0  0  0  2  0  0  0  0  0  0
  188.2710  175.7430  141.2080 C   0  0  0  0  0  2  0  0  0  0  0  0
  188.3600  174.9820  142.4490 N   0  0  0  0  0  2  0  0  0  0  0  0
  187.8670  176.5020  145.4390 C   0  0  1  0  0  3  0  0  0  0  0  0
  188.3220  177.2310  144.1740 C   0  0  0  0  0  2  0  0  0  0  0  0
  189.6840  176.7120  143.6840 C   0  0  1  0  0  3  0  0  0  0  0  0
  188.9040  176.6680  146.5440 C   0  0  0  0  0  2  0  0  0  0  0  0
  190.7180  176.8500  144.8110 C   0  0  0  0  0  2  0  0  0  0  0  0
  190.2560  176.1280  146.0790 C   0  0  1  0  0  3  0  0  0  0  0  0
  185.5230  177.4950  146.2460 C   0  0  0  0  0  0  0  0  0  0  0  0
  184.2380  178.0370  146.6840 C   0  0  0  0  0  1  0  0  0  0  0  0
  186.5830  177.0470  145.8830 C   0  0  0  0  0  0  0  0  0  0  0  0
  191.2970  176.2370  147.1860 C   0  0  0  0  0  2  0  0  0  0  0  0
  192.5610  175.6420  146.7800 N   0  0  0  0  0  2  0  0  0  0  0  0
  193.5840  176.6530  146.9820 C   0  0  0  0  0  2  0  0  0  0  0  0
  195.1730  175.0110  146.0320 C   0  0  0  0  0  1  0  0  0  0  0  0
  194.7110  176.4510  145.9870 C   0  0  1  0  0  3  0  0  0  0  0  0
  194.2680  176.7540  144.7020 O   0  0  0  0  0  1  0  0  0  0  0  0
  190.8740  172.5800  143.1570 N   0  0  0  0  0  2  0  0  0  0  0  0
  192.0230  171.7770  143.1690 N   0  0  0  0  0  2  0  0  0  0  0  0
  192.8810  172.7780  145.0950 O   0  0  0  0  0  0  0  0  0  0  0  0
  193.0100  171.9090  144.1940 C   0  0  0  0  0  0  0  0  0  0  0  0
  195.0840  171.8690  142.1780 O   0  0  0  0  0  0  0  0  0  0  0  0
  196.0030  170.1460  145.7410 C   0  0  1  0  0  3  0  0  0  0  0  0
  194.1870  170.9880  144.2150 C   0  0  1  0  0  3  0  0  0  0  0  0
  196.6500  171.6440  143.8970 N   0  0  0  0  0  0  0  0  0  0  0  0
  196.9780  171.2060  145.2540 C   0  0  0  0  0  2  0  0  0  0  0  0
  196.3250  169.7860  147.1760 C   0  0  0  0  0  1  0  0  0  0  0  0
  195.3120  171.5420  143.3760 C   0  0  0  0  0  0  0  0  0  0  0  0
  194.5980  170.7180  145.6650 C   0  0  0  0  0  2  0  0  0  0  0  0
  197.6430  172.1390  143.1150 O   0  0  0  0  0  0  0  0  0  0  0  0
  197.9410  173.4070  143.6450 C   0  0  0  0  0  2  0  0  0  0  0  0
  197.0570  174.6620  140.3920 C   0  0  2  0  0  0  0  0  0  0  0  0
  197.9390  175.5620  139.5440 C   0  0  0  0  0  1  0  0  0  0  0  0
  196.2160  175.5120  141.3120 C   0  0  0  0  0  2  0  0  0  0  0  0
  196.9870  176.4270  143.3590 F   0  0  0  0  0  0  0  0  0  0  0  0
  196.7170  175.2320  142.7160 C   0  0  2  0  0  3  0  0  0  0  0  0
  197.9100  173.8030  141.3010 C   0  0  0  0  0  2  0  0  0  0  0  0
  197.9390  174.4420  142.6110 N   0  0  0  0  0  0  0  0  0  0  0  0
  196.1580  173.8010  139.5120 C   0  0  0  0  0  2  0  0  0  0  0  0
  195.4130  174.2090  137.4730 C   0  0  0  0  0  1  0  0  0  0  0  0
  195.2510  174.5940  138.8030 O   0  0  0  0  0  0  0  0  0  0  0  0
  2 10  1  0  0  0  0
  3  2  1  0  0  0  0
  4  3  1  0  0  0  0
  4  7  1  0  0  0  0
  5  8  1  0  0  0  0
  5 27  1  1  0  0  0
  6 11  1  6  0  0  0
  6 14  1  0  0  0  0
  7  9  1  0  0  0  0
  8  1  1  1  0  0  0
  8  6  1  0  0  0  0
  9  5  1  0  0  0  0
 10 11  1  0  0  0  0
 12 20  1  1  0  0  0
 12 15  1  0  0  0  0
 13 12  1  0  0  0  0
 14 13  1  1  0  0  0
 14 16  1  0  0  0  0
 16 17  1  0  0  0  0
 17 15  1  0  0  0  0
 17 21  1  1  0  0  0
 18 19  1  0  0  0  0
 20 18  3  0  0  0  0
 22 23  1  0  0  0  0
 22 21  1  0  0  0  0
 25 24  1  6  0  0  0
 25 23  1  0  0  0  0
 26 25  1  0  0  0  0
 27 28  1  0  0  0  0
 28 30  1  0  0  0  0
 30 29  2  0  0  0  0
 31 37  2  0  0  0  0
 32 36  1  1  0  0  0
 33 30  1  1  0  0  0
 33 38  1  0  0  0  0
 34 35  1  0  0  0  0
 35 32  1  0  0  0  0
 37 34  1  0  0  0  0
 37 33  1  0  0  0  0
 38 32  1  0  0  0  0
 39 40  1  0  0  0  0
 39 34  1  0  0  0  0
 41 42  1  6  0  0  0
 41 46  1  0  0  0  0
 41 43  1  0  0  0  0
 43 45  1  0  0  0  0
 45 44  1  6  0  0  0
 46 47  1  0  0  0  0
 47 45  1  0  0  0  0
 47 40  1  0  0  0  0
 48 41  1  0  0  0  0
 49 50  1  0  0  0  0
 50 48  1  0  0  0  0
M  END
>  <MODEL>
4

>  <REMARK>
 VINA RESULT:      -7.0      2.357      5.043
  Name = 
  14 active torsions:
  status: ('A' for Active; 'I' for Inactive)
    1  A    between atoms: C_2  and  N_14
    2  A    between atoms: C_2  and  C_42
    3  A    between atoms: C_3  and  C_12
    4  A    between atoms: C_5  and  N_14
    5  A    between atoms: C_5  and  C_41
    6  A    between atoms: N_11  and  N_43
    7  A    between atoms: C_12  and  O_36
    8  A    between atoms: C_19  and  C_24
    9  A    between atoms: C_22  and  C_50
   10  A    between atoms: C_23  and  N_43
   11  A    between atoms: N_25  and  C_31
   12  A    between atoms: C_28  and  C_32
   13  A    between atoms: C_31  and  O_37
   14  A    between atoms: N_33  and  O_37
                            x       y       z     vdW  Elec       q    Type
                         _______ _______ _______ _____ _____    ______ ____

>  <TORSDO>
F 14

$$$$
=
 OpenBabel11062419223D

 50 53  0  0  1  0  0  0  0  0999 V2000
  194.1950  176.0990  142.9460 O   0  0  0  0  0  1  0  0  0  0  0  0
  191.5130  175.2740  147.5390 C   0  0  0  0  0  2  0  0  0  0  0  0
  191.1860  176.7510  147.6880 C   0  0  0  0  0  2  0  0  0  0  0  0
  190.2370  177.2370  146.5980 C   0  0  0  0  0  2  0  0  0  0  0  0
  191.8460  176.0690  143.3470 C   0  0  2  0  0  3  0  0  0  0  0  0
  193.4370  174.3980  144.5160 C   0  0  2  0  0  3  0  0  0  0  0  0
  190.9540  177.4030  145.2680 C   0  0  0  0  0  2  0  0  0  0  0  0
  193.2450  175.8220  143.9300 C   0  0  1  0  0  3  0  0  0  0  0  0
  190.7710  176.1530  144.4240 C   0  0  0  0  0  2  0  0  0  0  0  0
  192.7780  175.0990  146.7220 C   0  0  0  0  0  2  0  0  0  0  0  0
  192.5300  174.1480  145.6450 N   0  0  0  0  0  2  0  0  0  0  0  0
  194.6640  171.5440  145.0400 C   0  0  1  0  0  3  0  0  0  0  0  0
  195.0510  172.8300  145.7730 C   0  0  0  0  0  2  0  0  0  0  0  0
  194.9080  174.0620  144.8630 C   0  0  1  0  0  3  0  0  0  0  0  0
  195.5300  171.3660  143.7980 C   0  0  0  0  0  2  0  0  0  0  0  0
  195.7550  173.8630  143.5980 C   0  0  0  0  0  2  0  0  0  0  0  0
  195.3730  172.5720  142.8720 C   0  0  1  0  0  3  0  0  0  0  0  0
  194.9910  169.4560  146.6710 C   0  0  0  0  0  0  0  0  0  0  0  0
  195.1730  168.3150  147.5660 C   0  0  0  0  0  1  0  0  0  0  0  0
  194.8420  170.3990  145.9330 C   0  0  0  0  0  0  0  0  0  0  0  0
  196.1910  172.3930  141.5990 C   0  0  0  0  0  2  0  0  0  0  0  0
  195.5460  173.0330  140.4640 N   0  0  0  0  0  2  0  0  0  0  0  0
  194.1270  172.7370  140.5670 C   0  0  0  0  0  2  0  0  0  0  0  0
  194.3230  174.3660  138.7140 C   0  0  0  0  0  1  0  0  0  0  0  0
  193.3610  173.5150  139.5140 C   0  0  1  0  0  3  0  0  0  0  0  0
  192.7040  172.6320  138.6590 O   0  0  0  0  0  1  0  0  0  0  0  0
  191.5060  175.0470  142.3680 N   0  0  0  0  0  2  0  0  0  0  0  0
  190.2920  175.4330  141.7830 N   0  0  0  0  0  2  0  0  0  0  0  0
  189.1840  173.4890  142.4490 O   0  0  0  0  0  0  0  0  0  0  0  0
  189.1310  174.6050  141.8690 C   0  0  0  0  0  0  0  0  0  0  0  0
  187.3390  176.4490  143.1940 O   0  0  0  0  0  0  0  0  0  0  0  0
  186.8440  176.0270  139.1840 C   0  0  1  0  0  3  0  0  0  0  0  0
  187.8350  175.0800  141.2940 C   0  0  1  0  0  3  0  0  0  0  0  0
  187.0300  177.5130  141.1390 N   0  0  0  0  0  0  0  0  0  0  0  0
  187.0250  177.4550  139.6760 C   0  0  0  0  0  2  0  0  0  0  0  0
  186.9320  176.0010  137.6730 C   0  0  0  0  0  1  0  0  0  0  0  0
  187.4120  176.3780  141.9360 C   0  0  0  0  0  0  0  0  0  0  0  0
  187.9560  175.1750  139.7710 C   0  0  0  0  0  2  0  0  0  0  0  0
  186.6460  178.6660  141.7450 O   0  0  0  0  0  0  0  0  0  0  0  0
  185.2560  178.5510  141.9240 C   0  0  0  0  0  2  0  0  0  0  0  0
  184.8550  178.0900  145.4700 C   0  0  2  0  0  0  0  0  0  0  0  0
  183.6900  178.6240  146.2840 C   0  0  0  0  0  1  0  0  0  0  0  0
  185.9350  179.1420  145.3950 C   0  0  0  0  0  2  0  0  0  0  0  0
  185.9150  180.9680  143.8830 F   0  0  0  0  0  0  0  0  0  0  0  0
  185.9850  179.5880  143.9460 C   0  0  2  0  0  3  0  0  0  0  0  0
  184.4240  177.8500  144.0380 C   0  0  0  0  0  2  0  0  0  0  0  0
  184.8420  179.0040  143.2520 N   0  0  0  0  0  0  0  0  0  0  0  0
  185.4120  176.8160  146.0940 C   0  0  0  0  0  2  0  0  0  0  0  0
  186.6500  176.7720  147.9220 C   0  0  0  0  0  1  0  0  0  0  0  0
  186.7180  177.0170  146.5510 O   0  0  0  0  0  0  0  0  0  0  0  0
  2  3  1  0  0  0  0
  4  3  1  0  0  0  0
  5 27  1  6  0  0  0
  5  8  1  0  0  0  0
  5  9  1  0  0  0  0
  6 14  1  0  0  0  0
  6 11  1  1  0  0  0
  7  4  1  0  0  0  0
  8  1  1  6  0  0  0
  8  6  1  0  0  0  0
  9  7  1  0  0  0  0
 10  2  1  0  0  0  0
 11 10  1  0  0  0  0
 12 13  1  0  0  0  0
 12 20  1  1  0  0  0
 14 16  1  6  0  0  0
 14 13  1  0  0  0  0
 15 12  1  0  0  0  0
 17 21  1  6  0  0  0
 17 16  1  0  0  0  0
 17 15  1  0  0  0  0
 18 19  1  0  0  0  0
 20 18  3  0  0  0  0
 22 23  1  0  0  0  0
 22 21  1  0  0  0  0
 25 24  1  6  0  0  0
 25 23  1  0  0  0  0
 26 25  1  0  0  0  0
 28 30  1  0  0  0  0
 28 27  1  0  0  0  0
 30 29  2  0  0  0  0
 32 36  1  6  0  0  0
 32 35  1  0  0  0  0
 32 38  1  0  0  0  0
 33 30  1  1  0  0  0
 33 37  1  0  0  0  0
 34 39  1  0  0  0  0
 34 37  1  0  0  0  0
 35 34  1  0  0  0  0
 37 31  2  0  0  0  0
 38 33  1  0  0  0  0
 39 40  1  0  0  0  0
 40 47  1  0  0  0  0
 41 48  1  0  0  0  0
 41 42  1  1  0  0  0
 43 41  1  0  0  0  0
 45 44  1  1  0  0  0
 45 43  1  0  0  0  0
 46 41  1  0  0  0  0
 47 45  1  0  0  0  0
 47 46  1  0  0  0  0
 48 50  1  0  0  0  0
 50 49  1  0  0  0  0
M  END
>  <MODEL>
5

>  <REMARK>
 VINA RESULT:      -6.9      2.924      9.803
  Name = 
  14 active torsions:
  status: ('A' for Active; 'I' for Inactive)
    1  A    between atoms: C_2  and  N_14
    2  A    between atoms: C_2  and  C_42
    3  A    between atoms: C_3  and  C_12
    4  A    between atoms: C_5  and  N_14
    5  A    between atoms: C_5  and  C_41
    6  A    between atoms: N_11  and  N_43
    7  A    between atoms: C_12  and  O_36
    8  A    between atoms: C_19  and  C_24
    9  A    between atoms: C_22  and  C_50
   10  A    between atoms: C_23  and  N_43
   11  A    between atoms: N_25  and  C_31
   12  A    between atoms: C_28  and  C_32
   13  A    between atoms: C_31  and  O_37
   14  A    between atoms: N_33  and  O_37
                            x       y       z     vdW  Elec       q    Type
                         _______ _______ _______ _____ _____    ______ ____

>  <TORSDO>
F 14

$$$$
=
 OpenBabel11062419223D

 50 53  0  0  1  0  0  0  0  0999 V2000
  192.4900  174.4730  142.5620 O   0  0  0  0  0  1  0  0  0  0  0  0
  188.1930  173.0360  139.6570 C   0  0  0  0  0  2  0  0  0  0  0  0
  189.0550  172.5600  138.4990 C   0  0  0  0  0  2  0  0  0  0  0  0
  189.8810  171.3330  138.8700 C   0  0  0  0  0  2  0  0  0  0  0  0
  191.6110  172.3010  142.1250 C   0  0  2  0  0  3  0  0  0  0  0  0
  190.0590  174.3210  142.5680 C   0  0  2  0  0  3  0  0  0  0  0  0
  191.0580  171.7010  139.7580 C   0  0  0  0  0  2  0  0  0  0  0  0
  191.4030  173.8160  141.9820 C   0  0  1  0  0  3  0  0  0  0  0  0
  190.6880  171.4970  141.2170 C   0  0  0  0  0  2  0  0  0  0  0  0
  188.9280  174.0940  140.4550 C   0  0  0  0  0  2  0  0  0  0  0  0
  188.9070  173.7360  141.8690 N   0  0  0  0  0  2  0  0  0  0  0  0
  188.4780  176.0030  144.7130 C   0  0  1  0  0  3  0  0  0  0  0  0
  188.6200  176.3550  143.2310 C   0  0  0  0  0  2  0  0  0  0  0  0
  189.9620  175.8640  142.6620 C   0  0  1  0  0  3  0  0  0  0  0  0
  189.6260  176.6110  145.5110 C   0  0  0  0  0  2  0  0  0  0  0  0
  191.1140  176.4520  143.4890 C   0  0  0  0  0  2  0  0  0  0  0  0
  190.9640  176.1070  144.9720 C   0  0  1  0  0  3  0  0  0  0  0  0
  186.1500  176.9290  145.6340 C   0  0  0  0  0  0  0  0  0  0  0  0
  184.8750  177.4330  146.1420 C   0  0  0  0  0  1  0  0  0  0  0  0
  187.2020  176.5120  145.2170 C   0  0  0  0  0  0  0  0  0  0  0  0
  192.1250  176.6630  145.7870 C   0  0  0  0  0  2  0  0  0  0  0  0
  192.0970  176.1610  147.1520 N   0  0  0  0  0  2  0  0  0  0  0  0
  192.3150  177.3030  148.0230 C   0  0  0  0  0  2  0  0  0  0  0  0
  191.5660  177.9170  150.3000 C   0  0  0  0  0  1  0  0  0  0  0  0
  191.1070  177.5070  148.9180 C   0  0  1  0  0  3  0  0  0  0  0  0
  190.2890  178.5030  148.3880 O   0  0  0  0  0  1  0  0  0  0  0  0
  191.4520  171.8850  143.5100 N   0  0  0  0  0  2  0  0  0  0  0  0
  192.7050  171.4360  143.9460 N   0  0  0  0  0  2  0  0  0  0  0  0
  192.3080  169.2320  143.2900 O   0  0  0  0  0  0  0  0  0  0  0  0
  193.0980  170.0710  143.7940 C   0  0  0  0  0  0  0  0  0  0  0  0
  195.5430  171.2910  142.8430 O   0  0  0  0  0  0  0  0  0  0  0  0
  195.8330  169.0980  146.2500 C   0  0  1  0  0  3  0  0  0  0  0  0
  194.4700  169.6420  144.2070 C   0  0  1  0  0  3  0  0  0  0  0  0
  196.3700  171.1650  145.0240 N   0  0  0  0  0  0  0  0  0  0  0  0
  196.3700  170.5190  146.3370 C   0  0  0  0  0  2  0  0  0  0  0  0
  195.7700  168.4990  147.6390 C   0  0  0  0  0  1  0  0  0  0  0  0
  195.4660  170.7540  143.9820 C   0  0  0  0  0  0  0  0  0  0  0  0
  194.4370  169.1500  145.6560 C   0  0  0  0  0  2  0  0  0  0  0  0
  197.2600  172.1630  144.7890 O   0  0  0  0  0  0  0  0  0  0  0  0
  197.0830  173.0780  145.8420 C   0  0  0  0  0  2  0  0  0  0  0  0
  196.5040  175.4890  143.2340 C   0  0  2  0  0  0  0  0  0  0  0  0
  197.1910  176.8390  143.1380 C   0  0  0  0  0  1  0  0  0  0  0  0
  195.2640  175.6200  144.0850 C   0  0  0  0  0  2  0  0  0  0  0  0
  195.2670  175.6160  146.4560 F   0  0  0  0  0  0  0  0  0  0  0  0
  195.5390  174.8300  145.3500 C   0  0  2  0  0  3  0  0  0  0  0  0
  197.3920  174.5020  143.9630 C   0  0  0  0  0  2  0  0  0  0  0  0
  196.9480  174.4500  145.3500 N   0  0  0  0  0  0  0  0  0  0  0  0
  196.1320  174.9710  141.8500 C   0  0  0  0  0  2  0  0  0  0  0  0
  196.2070  175.2880  139.6660 C   0  0  0  0  0  1  0  0  0  0  0  0
  196.3270  175.9600  140.8810 O   0  0  0  0  0  0  0  0  0  0  0  0
  2 10  1  0  0  0  0
  3  4  1  0  0  0  0
  3  2  1  0  0  0  0
  4  7  1  0  0  0  0
  5 27  1  1  0  0  0
  6 11  1  6  0  0  0
  6 14  1  0  0  0  0
  7  9  1  0  0  0  0
  8  5  1  0  0  0  0
  8  1  1  1  0  0  0
  8  6  1  0  0  0  0
  9  5  1  0  0  0  0
 10 11  1  0  0  0  0
 12 20  1  1  0  0  0
 12 15  1  0  0  0  0
 13 12  1  0  0  0  0
 14 13  1  1  0  0  0
 14 16  1  0  0  0  0
 16 17  1  0  0  0  0
 17 15  1  0  0  0  0
 17 21  1  1  0  0  0
 18 19  1  0  0  0  0
 20 18  3  0  0  0  0
 21 22  1  0  0  0  0
 22 23  1  0  0  0  0
 23 25  1  0  0  0  0
 25 24  1  1  0  0  0
 26 25  1  0  0  0  0
 27 28  1  0  0  0  0
 29 30  2  0  0  0  0
 30 28  1  0  0  0  0
 31 37  2  0  0  0  0
 32 35  1  0  0  0  0
 32 36  1  1  0  0  0
 33 30  1  1  0  0  0
 33 38  1  0  0  0  0
 34 35  1  0  0  0  0
 37 33  1  0  0  0  0
 37 34  1  0  0  0  0
 38 32  1  0  0  0  0
 39 34  1  0  0  0  0
 39 40  1  0  0  0  0
 41 42  1  6  0  0  0
 41 46  1  0  0  0  0
 41 43  1  0  0  0  0
 43 45  1  0  0  0  0
 45 47  1  0  0  0  0
 45 44  1  1  0  0  0
 46 47  1  0  0  0  0
 47 40  1  0  0  0  0
 48 41  1  0  0  0  0
 49 50  1  0  0  0  0
 50 48  1  0  0  0  0
M  END
>  <MODEL>
6

>  <REMARK>
 VINA RESULT:      -6.9      2.496      4.659
  Name = 
  14 active torsions:
  status: ('A' for Active; 'I' for Inactive)
    1  A    between atoms: C_2  and  N_14
    2  A    between atoms: C_2  and  C_42
    3  A    between atoms: C_3  and  C_12
    4  A    between atoms: C_5  and  N_14
    5  A    between atoms: C_5  and  C_41
    6  A    between atoms: N_11  and  N_43
    7  A    between atoms: C_12  and  O_36
    8  A    between atoms: C_19  and  C_24
    9  A    between atoms: C_22  and  C_50
   10  A    between atoms: C_23  and  N_43
   11  A    between atoms: N_25  and  C_31
   12  A    between atoms: C_28  and  C_32
   13  A    between atoms: C_31  and  O_37
   14  A    between atoms: N_33  and  O_37
                            x       y       z     vdW  Elec       q    Type
                         _______ _______ _______ _____ _____    ______ ____

>  <TORSDO>
F 14

$$$$
=
 OpenBabel11062419223D

 50 53  0  0  1  0  0  0  0  0999 V2000
  197.7350  172.6660  142.6800 O   0  0  0  0  0  1  0  0  0  0  0  0
  194.2920  169.1880  144.9200 C   0  0  0  0  0  2  0  0  0  0  0  0
  195.4150  168.3940  145.5660 C   0  0  0  0  0  2  0  0  0  0  0  0
  196.1350  169.1980  146.6440 C   0  0  0  0  0  2  0  0  0  0  0  0
  197.0080  172.4950  144.9440 C   0  0  2  0  0  3  0  0  0  0  0  0
  195.3780  172.1260  142.9710 C   0  0  2  0  0  3  0  0  0  0  0  0
  197.0560  170.2430  146.0370 C   0  0  0  0  0  2  0  0  0  0  0  0
  196.8290  171.9950  143.5030 C   0  0  1  0  0  3  0  0  0  0  0  0
  196.3410  171.5820  145.9660 C   0  0  0  0  0  2  0  0  0  0  0  0
  194.8000  169.9000  143.6820 C   0  0  0  0  0  2  0  0  0  0  0  0
  194.4370  171.3100  143.7520 N   0  0  0  0  0  2  0  0  0  0  0  0
  193.1940  173.2940  141.0240 C   0  0  1  0  0  3  0  0  0  0  0  0
  193.7930  171.8880  140.9530 C   0  0  0  0  0  2  0  0  0  0  0  0
  195.2480  171.8700  141.4500 C   0  0  1  0  0  3  0  0  0  0  0  0
  194.0280  174.2650  140.1970 C   0  0  0  0  0  2  0  0  0  0  0  0
  196.0780  172.8740  140.6360 C   0  0  0  0  0  2  0  0  0  0  0  0
  195.4710  174.2770  140.7020 C   0  0  1  0  0  3  0  0  0  0  0  0
  190.6890  173.2490  140.1000 C   0  0  0  0  0  0  0  0  0  0  0  0
  189.3170  173.2290  139.5960 C   0  0  0  0  0  1  0  0  0  0  0  0
  191.8210  173.2680  140.5170 C   0  0  0  0  0  0  0  0  0  0  0  0
  196.3130  175.2790  139.9220 C   0  0  0  0  0  2  0  0  0  0  0  0
  197.5080  174.6520  139.3790 N   0  0  0  0  0  2  0  0  0  0  0  0
  197.8260  175.3520  138.1470 C   0  0  0  0  0  2  0  0  0  0  0  0
  196.5940  175.8770  136.0670 C   0  0  0  0  0  1  0  0  0  0  0  0
  197.0250  174.7660  137.0000 C   0  0  1  0  0  3  0  0  0  0  0  0
  197.8040  173.8500  136.2980 O   0  0  0  0  0  1  0  0  0  0  0  0
  196.5180  173.8570  145.0840 N   0  0  0  0  0  2  0  0  0  0  0  0
  195.2220  173.7710  145.6120 N   0  0  0  0  0  2  0  0  0  0  0  0
  194.3530  175.3450  144.1240 O   0  0  0  0  0  0  0  0  0  0  0  0
  194.1490  174.5430  145.0710 C   0  0  0  0  0  0  0  0  0  0  0  0
  192.6880  176.6010  146.4850 O   0  0  0  0  0  0  0  0  0  0  0  0
  190.4780  173.5540  144.9560 C   0  0  1  0  0  3  0  0  0  0  0  0
  192.7650  174.3730  145.6130 C   0  0  1  0  0  3  0  0  0  0  0  0
  190.7850  175.9750  145.2840 N   0  0  0  0  0  0  0  0  0  0  0  0
  190.0330  174.9520  144.5550 C   0  0  0  0  0  2  0  0  0  0  0  0
  189.7390  172.5320  144.1180 C   0  0  0  0  0  1  0  0  0  0  0  0
  192.1010  175.7140  145.8050 C   0  0  0  0  0  0  0  0  0  0  0  0
  191.9710  173.4360  144.6990 C   0  0  0  0  0  2  0  0  0  0  0  0
  190.2100  177.1890  145.4800 O   0  0  0  0  0  0  0  0  0  0  0  0
  189.0370  177.1790  144.7050 C   0  0  0  0  0  2  0  0  0  0  0  0
  185.5830  178.1380  145.0080 C   0  0  2  0  0  0  0  0  0  0  0  0
  185.0560  179.1700  145.9890 C   0  0  0  0  0  1  0  0  0  0  0  0
  185.6080  176.7840  145.6750 C   0  0  0  0  0  2  0  0  0  0  0  0
  187.3250  176.0480  147.1350 F   0  0  0  0  0  0  0  0  0  0  0  0
  187.0720  176.4190  145.8260 C   0  0  2  0  0  3  0  0  0  0  0  0
  187.0240  178.4420  144.6550 C   0  0  0  0  0  2  0  0  0  0  0  0
  187.8690  177.5920  145.4840 N   0  0  0  0  0  0  0  0  0  0  0  0
  184.7130  178.0860  143.7580 C   0  0  0  0  0  2  0  0  0  0  0  0
  185.3150  177.9240  141.6390 C   0  0  0  0  0  1  0  0  0  0  0  0
  185.2410  177.1910  142.8220 O   0  0  0  0  0  0  0  0  0  0  0  0
  2  3  1  0  0  0  0
  3  4  1  0  0  0  0
  5 27  1  6  0  0  0
  5  9  1  0  0  0  0
  6  8  1  0  0  0  0
  6 11  1  1  0  0  0
  7  4  1  0  0  0  0
  8  1  1  6  0  0  0
  8  5  1  0  0  0  0
  9  7  1  0  0  0  0
 10 11  1  0  0  0  0
 10  2  1  0  0  0  0
 12 20  1  6  0  0  0
 13 12  1  0  0  0  0
 13 14  1  0  0  0  0
 14 16  1  6  0  0  0
 14  6  1  0  0  0  0
 15 17  1  0  0  0  0
 15 12  1  0  0  0  0
 16 17  1  0  0  0  0
 17 21  1  6  0  0  0
 18 20  3  0  0  0  0
 19 18  1  0  0  0  0
 22 21  1  0  0  0  0
 23 22  1  0  0  0  0
 25 24  1  6  0  0  0
 25 23  1  0  0  0  0
 26 25  1  0  0  0  0
 27 28  1  0  0  0  0
 29 30  2  0  0  0  0
 30 28  1  0  0  0  0
 32 36  1  6  0  0  0
 33 30  1  6  0  0  0
 33 37  1  0  0  0  0
 34 39  1  0  0  0  0
 34 37  1  0  0  0  0
 35 32  1  0  0  0  0
 35 34  1  0  0  0  0
 37 31  2  0  0  0  0
 38 32  1  0  0  0  0
 38 33  1  0  0  0  0
 40 39  1  0  0  0  0
 40 47  1  0  0  0  0
 41 43  1  0  0  0  0
 41 42  1  1  0  0  0
 43 45  1  0  0  0  0
 45 44  1  1  0  0  0
 46 41  1  0  0  0  0
 46 47  1  0  0  0  0
 47 45  1  0  0  0  0
 48 41  1  0  0  0  0
 49 50  1  0  0  0  0
 50 48  1  0  0  0  0
M  END
>  <MODEL>
7

>  <REMARK>
 VINA RESULT:      -6.9      3.195      9.230
  Name = 
  14 active torsions:
  status: ('A' for Active; 'I' for Inactive)
    1  A    between atoms: C_2  and  N_14
    2  A    between atoms: C_2  and  C_42
    3  A    between atoms: C_3  and  C_12
    4  A    between atoms: C_5  and  N_14
    5  A    between atoms: C_5  and  C_41
    6  A    between atoms: N_11  and  N_43
    7  A    between atoms: C_12  and  O_36
    8  A    between atoms: C_19  and  C_24
    9  A    between atoms: C_22  and  C_50
   10  A    between atoms: C_23  and  N_43
   11  A    between atoms: N_25  and  C_31
   12  A    between atoms: C_28  and  C_32
   13  A    between atoms: C_31  and  O_37
   14  A    between atoms: N_33  and  O_37
                            x       y       z     vdW  Elec       q    Type
                         _______ _______ _______ _____ _____    ______ ____

>  <TORSDO>
F 14

$$$$
=
 OpenBabel11062419223D

 50 53  0  0  1  0  0  0  0  0999 V2000
  192.0190  178.1130  144.2190 O   0  0  0  0  0  1  0  0  0  0  0  0
  188.9460  174.7380  147.0710 C   0  0  0  0  0  2  0  0  0  0  0  0
  188.0020  175.8520  147.4930 C   0  0  0  0  0  2  0  0  0  0  0  0
  187.2200  176.4150  146.3110 C   0  0  0  0  0  2  0  0  0  0  0  0
  189.8790  177.2010  143.6980 C   0  0  2  0  0  3  0  0  0  0  0  0
  191.7050  175.7830  144.8570 C   0  0  2  0  0  3  0  0  0  0  0  0
  188.0880  177.3100  145.4430 C   0  0  0  0  0  2  0  0  0  0  0  0
  191.0740  177.1870  144.6630 C   0  0  1  0  0  3  0  0  0  0  0  0
  188.6510  176.5110  144.2790 C   0  0  0  0  0  2  0  0  0  0  0  0
  190.3190  175.3030  146.7650 C   0  0  0  0  0  2  0  0  0  0  0  0
  190.7530  174.8360  145.4540 N   0  0  0  0  0  2  0  0  0  0  0  0
  193.9200  173.5430  144.8760 C   0  0  1  0  0  3  0  0  0  0  0  0
  193.5240  174.4150  146.0680 C   0  0  0  0  0  2  0  0  0  0  0  0
  193.0550  175.8080  145.6150 C   0  0  1  0  0  3  0  0  0  0  0  0
  195.0260  174.2180  144.0730 C   0  0  0  0  0  2  0  0  0  0  0  0
  194.1600  176.4720  144.7790 C   0  0  0  0  0  2  0  0  0  0  0  0
  194.5610  175.5920  143.5930 C   0  0  1  0  0  3  0  0  0  0  0  0
  194.7650  171.1650  145.7480 C   0  0  0  0  0  0  0  0  0  0  0  0
  195.2260  169.8610  146.2210 C   0  0  0  0  0  1  0  0  0  0  0  0
  194.3840  172.2400  145.3550 C   0  0  0  0  0  0  0  0  0  0  0  0
  195.6320  176.2660  142.7450 C   0  0  0  0  0  2  0  0  0  0  0  0
  195.2930  176.2190  141.3320 N   0  0  0  0  0  2  0  0  0  0  0  0
  196.2450  175.3200  140.7020 C   0  0  0  0  0  2  0  0  0  0  0  0
  194.8400  173.3110  140.3640 C   0  0  0  0  0  1  0  0  0  0  0  0
  195.5380  174.4610  139.6700 C   0  0  1  0  0  3  0  0  0  0  0  0
  194.5970  175.2250  138.9830 O   0  0  0  0  0  1  0  0  0  0  0  0
  190.2400  176.6050  142.4200 N   0  0  0  0  0  2  0  0  0  0  0  0
  189.8760  175.2530  142.4860 N   0  0  0  0  0  2  0  0  0  0  0  0
  191.7270  174.5430  141.2540 O   0  0  0  0  0  0  0  0  0  0  0  0
  190.6820  174.2380  141.8850 C   0  0  0  0  0  0  0  0  0  0  0  0
  189.0100  172.7920  140.0190 O   0  0  0  0  0  0  0  0  0  0  0  0
  191.2940  170.5370  142.5090 C   0  0  1  0  0  3  0  0  0  0  0  0
  190.3010  172.8000  142.0350 C   0  0  1  0  0  3  0  0  0  0  0  0
  190.4640  170.9770  140.2330 N   0  0  0  0  0  0  0  0  0  0  0  0
  191.4420  170.2310  141.0270 C   0  0  0  0  0  2  0  0  0  0  0  0
  192.3770  169.8140  143.2820 C   0  0  0  0  0  1  0  0  0  0  0  0
  189.8990  172.2140  140.7040 C   0  0  0  0  0  0  0  0  0  0  0  0
  191.4450  172.0360  142.7050 C   0  0  0  0  0  2  0  0  0  0  0  0
  190.0770  170.4710  139.0350 O   0  0  0  0  0  0  0  0  0  0  0  0
  191.2530  169.9910  138.4320 C   0  0  0  0  0  2  0  0  0  0  0  0
  191.1300  173.0020  136.4670 C   0  0  2  0  0  0  0  0  0  0  0  0
  191.1920  173.0470  134.9500 C   0  0  0  0  0  1  0  0  0  0  0  0
  192.5330  173.0280  137.0230 C   0  0  0  0  0  2  0  0  0  0  0  0
  193.9440  171.1290  137.1770 F   0  0  0  0  0  0  0  0  0  0  0  0
  192.7610  171.6670  137.6510 C   0  0  2  0  0  3  0  0  0  0  0  0
  190.5380  171.6860  136.9260 C   0  0  0  0  0  2  0  0  0  0  0  0
  191.6430  170.8050  137.2810 N   0  0  0  0  0  0  0  0  0  0  0  0
  190.3320  174.1810  137.0110 C   0  0  0  0  0  2  0  0  0  0  0  0
  188.1600  174.5720  137.0990 C   0  0  0  0  0  1  0  0  0  0  0  0
  189.2210  174.4430  136.2040 O   0  0  0  0  0  0  0  0  0  0  0  0
  2  3  1  0  0  0  0
  4  3  1  0  0  0  0
  5 27  1  6  0  0  0
  5  9  1  0  0  0  0
  5  8  1  0  0  0  0
  6 11  1  1  0  0  0
  6 14  1  0  0  0  0
  7  4  1  0  0  0  0
  8  1  1  6  0  0  0
  8  6  1  0  0  0  0
  9  7  1  0  0  0  0
 10  2  1  0  0  0  0
 11 10  1  0  0  0  0
 12 20  1  1  0  0  0
 12 13  1  0  0  0  0
 14 16  1  6  0  0  0
 14 13  1  0  0  0  0
 15 12  1  0  0  0  0
 17 21  1  1  0  0  0
 17 15  1  0  0  0  0
 17 16  1  0  0  0  0
 18 19  1  0  0  0  0
 20 18  3  0  0  0  0
 22 21  1  0  0  0  0
 23 22  1  0  0  0  0
 25 24  1  1  0  0  0
 25 23  1  0  0  0  0
 26 25  1  0  0  0  0
 27 28  1  0  0  0  0
 29 30  2  0  0  0  0
 30 28  1  0  0  0  0
 31 37  2  0  0  0  0
 32 38  1  0  0  0  0
 32 36  1  1  0  0  0
 33 30  1  6  0  0  0
 33 38  1  0  0  0  0
 34 37  1  0  0  0  0
 34 35  1  0  0  0  0
 35 32  1  0  0  0  0
 37 33  1  0  0  0  0
 39 34  1  0  0  0  0
 40 39  1  0  0  0  0
 41 42  1  6  0  0  0
 41 46  1  0  0  0  0
 41 48  1  0  0  0  0
 41 43  1  0  0  0  0
 43 45  1  0  0  0  0
 45 44  1  6  0  0  0
 46 47  1  0  0  0  0
 47 45  1  0  0  0  0
 47 40  1  0  0  0  0
 50 48  1  0  0  0  0
 50 49  1  0  0  0  0
M  END
>  <MODEL>
8

>  <REMARK>
 VINA RESULT:      -6.8      3.198      8.767
  Name = 
  14 active torsions:
  status: ('A' for Active; 'I' for Inactive)
    1  A    between atoms: C_2  and  N_14
    2  A    between atoms: C_2  and  C_42
    3  A    between atoms: C_3  and  C_12
    4  A    between atoms: C_5  and  N_14
    5  A    between atoms: C_5  and  C_41
    6  A    between atoms: N_11  and  N_43
    7  A    between atoms: C_12  and  O_36
    8  A    between atoms: C_19  and  C_24
    9  A    between atoms: C_22  and  C_50
   10  A    between atoms: C_23  and  N_43
   11  A    between atoms: N_25  and  C_31
   12  A    between atoms: C_28  and  C_32
   13  A    between atoms: C_31  and  O_37
   14  A    between atoms: N_33  and  O_37
                            x       y       z     vdW  Elec       q    Type
                         _______ _______ _______ _____ _____    ______ ____

>  <TORSDO>
F 14

$$$$
=
 OpenBabel11062419223D

 50 53  0  0  1  0  0  0  0  0999 V2000
  192.2980  170.9310  138.5510 O   0  0  0  0  0  1  0  0  0  0  0  0
  192.4970  170.3820  143.9010 C   0  0  0  0  0  2  0  0  0  0  0  0
  193.3620  169.1360  143.8060 C   0  0  0  0  0  2  0  0  0  0  0  0
  194.7480  169.4450  143.2500 C   0  0  0  0  0  2  0  0  0  0  0  0
  194.0760  171.4210  140.0620 C   0  0  2  0  0  3  0  0  0  0  0  0
  191.6120  171.9220  140.6680 C   0  0  2  0  0  3  0  0  0  0  0  0
  194.7080  169.6840  141.7500 C   0  0  0  0  0  2  0  0  0  0  0  0
  192.6060  171.0020  139.9110 C   0  0  1  0  0  3  0  0  0  0  0  0
  194.6120  171.1730  141.4670 C   0  0  0  0  0  2  0  0  0  0  0  0
  191.6710  170.5440  142.6410 C   0  0  0  0  0  2  0  0  0  0  0  0
  191.8440  171.8940  142.1190 N   0  0  0  0  0  2  0  0  0  0  0  0
  189.2210  173.9620  140.8710 C   0  0  1  0  0  3  0  0  0  0  0  0
  189.1450  172.4650  141.1770 C   0  0  0  0  0  2  0  0  0  0  0  0
  190.1290  171.6630  140.3090 C   0  0  1  0  0  3  0  0  0  0  0  0
  188.9250  174.2140  139.3970 C   0  0  0  0  0  2  0  0  0  0  0  0
  189.8490  171.9460  138.8260 C   0  0  0  0  0  2  0  0  0  0  0  0
  189.9160  173.4440  138.5250 C   0  0  1  0  0  3  0  0  0  0  0  0
  187.4510  175.2750  142.3780 C   0  0  0  0  0  0  0  0  0  0  0  0
  186.4810  175.9970  143.2000 C   0  0  0  0  0  1  0  0  0  0  0  0
  188.2500  174.6810  141.6990 C   0  0  0  0  0  0  0  0  0  0  0  0
  189.6710  173.7210  137.0470 C   0  0  0  0  0  2  0  0  0  0  0  0
  188.5400  174.6160  136.8590 N   0  0  0  0  0  2  0  0  0  0  0  0
  188.5860  175.0650  135.4790 C   0  0  0  0  0  2  0  0  0  0  0  0
  186.6600  176.2970  136.4270 C   0  0  0  0  0  1  0  0  0  0  0  0
  187.6610  176.2530  135.2930 C   0  0  1  0  0  3  0  0  0  0  0  0
  188.4030  177.4330  135.2870 O   0  0  0  0  0  1  0  0  0  0  0  0
  194.2580  172.8140  139.6860 N   0  0  0  0  0  2  0  0  0  0  0  0
  194.7440  173.4800  140.8190 N   0  0  0  0  0  2  0  0  0  0  0  0
  195.5300  175.3030  139.5920 O   0  0  0  0  0  0  0  0  0  0  0  0
  195.3720  174.7590  140.7160 C   0  0  0  0  0  0  0  0  0  0  0  0
  193.8100  176.7760  142.0820 O   0  0  0  0  0  0  0  0  0  0  0  0
  196.7910  175.0450  144.2320 C   0  0  1  0  0  3  0  0  0  0  0  0
  195.8140  175.4730  141.9520 C   0  0  1  0  0  3  0  0  0  0  0  0
  194.4500  175.7980  144.1040 N   0  0  0  0  0  0  0  0  0  0  0  0
  195.4130  175.0110  144.8750 C   0  0  0  0  0  2  0  0  0  0  0  0
  197.7320  174.1500  145.0110 C   0  0  0  0  0  1  0  0  0  0  0  0
  194.6280  176.0360  142.6960 C   0  0  0  0  0  0  0  0  0  0  0  0
  196.6660  174.5310  142.8080 C   0  0  0  0  0  2  0  0  0  0  0  0
  193.3770  176.3240  144.7470 O   0  0  0  0  0  0  0  0  0  0  0  0
  193.2650  175.6000  145.9470 C   0  0  0  0  0  2  0  0  0  0  0  0
  189.7320  175.7600  146.6100 C   0  0  2  0  0  0  0  0  0  0  0  0
  188.9410  174.6870  147.3370 C   0  0  0  0  0  1  0  0  0  0  0  0
  189.7760  175.4360  145.1370 C   0  0  0  0  0  2  0  0  0  0  0  0
  191.2750  173.8820  144.1570 F   0  0  0  0  0  0  0  0  0  0  0  0
  191.2200  175.0910  144.8270 C   0  0  2  0  0  3  0  0  0  0  0  0
  191.1750  175.7450  147.0710 C   0  0  0  0  0  2  0  0  0  0  0  0
  191.9430  174.9890  146.0900 N   0  0  0  0  0  0  0  0  0  0  0  0
  189.1050  177.1330  146.8220 C   0  0  0  0  0  2  0  0  0  0  0  0
  187.0200  177.8140  146.5650 C   0  0  0  0  0  1  0  0  0  0  0  0
  188.1380  177.3930  145.8460 O   0  0  0  0  0  0  0  0  0  0  0  0
  3  2  1  0  0  0  0
  4  3  1  0  0  0  0
  5 27  1  1  0  0  0
  5  9  1  0  0  0  0
  6 11  1  1  0  0  0
  7  4  1  0  0  0  0
  8  1  1  6  0  0  0
  8  5  1  0  0  0  0
  8  6  1  0  0  0  0
  9  7  1  0  0  0  0
 10  2  1  0  0  0  0
 11 10  1  0  0  0  0
 12 13  1  0  0  0  0
 12 20  1  1  0  0  0
 14 16  1  6  0  0  0
 14  6  1  0  0  0  0
 14 13  1  0  0  0  0
 15 12  1  0  0  0  0
 17 21  1  6  0  0  0
 17 16  1  0  0  0  0
 17 15  1  0  0  0  0
 18 19  1  0  0  0  0
 20 18  3  0  0  0  0
 22 21  1  0  0  0  0
 23 22  1  0  0  0  0
 25 23  1  0  0  0  0
 25 24  1  1  0  0  0
 26 25  1  0  0  0  0
 27 28  1  0  0  0  0
 29 30  2  0  0  0  0
 30 28  1  0  0  0  0
 31 37  2  0  0  0  0
 32 35  1  0  0  0  0
 32 36  1  1  0  0  0
 33 30  1  6  0  0  0
 33 37  1  0  0  0  0
 33 38  1  0  0  0  0
 34 39  1  0  0  0  0
 34 35  1  0  0  0  0
 37 34  1  0  0  0  0
 38 32  1  0  0  0  0
 39 40  1  0  0  0  0
 40 47  1  0  0  0  0
 41 48  1  0  0  0  0
 41 46  1  0  0  0  0
 41 42  1  1  0  0  0
 43 41  1  0  0  0  0
 45 44  1  1  0  0  0
 45 43  1  0  0  0  0
 45 47  1  0  0  0  0
 47 46  1  0  0  0  0
 50 49  1  0  0  0  0
 50 48  1  0  0  0  0
M  END
>  <MODEL>
9

>  <REMARK>
 VINA RESULT:      -6.8      3.038      7.072
  Name = 
  14 active torsions:
  status: ('A' for Active; 'I' for Inactive)
    1  A    between atoms: C_2  and  N_14
    2  A    between atoms: C_2  and  C_42
    3  A    between atoms: C_3  and  C_12
    4  A    between atoms: C_5  and  N_14
    5  A    between atoms: C_5  and  C_41
    6  A    between atoms: N_11  and  N_43
    7  A    between atoms: C_12  and  O_36
    8  A    between atoms: C_19  and  C_24
    9  A    between atoms: C_22  and  C_50
   10  A    between atoms: C_23  and  N_43
   11  A    between atoms: N_25  and  C_31
   12  A    between atoms: C_28  and  C_32
   13  A    between atoms: C_31  and  O_37
   14  A    between atoms: N_33  and  O_37
                            x       y       z     vdW  Elec       q    Type
                         _______ _______ _______ _____ _____    ______ ____

>  <TORSDO>
F 14

$$$$
