=
 OpenBabel11072408443D

 36 41  0  0  1  0  0  0  0  0999 V2000
  189.6580  175.5110  142.3950 N   0  0  0  0  0  0  0  0  0  0  0  0
  189.8290  175.3200  145.1620 C   0  0  0  0  0  0  0  0  0  0  0  0
  188.5240  175.7300  144.5420 C   0  0  1  0  0  3  0  0  0  0  0  0
  185.5650  177.5010  145.2440 C   0  0  2  0  0  3  0  0  0  0  0  0
  187.5070  177.8590  143.8850 N   0  0  2  0  0  0  0  0  0  0  0  0
  188.0500  177.2170  142.7600 N   0  0  0  0  0  2  0  0  0  0  0  0
  190.1090  175.6550  146.3750 N   0  0  0  0  0  0  0  0  0  0  0  0
  190.6730  174.3380  144.3830 C   0  0  0  0  0  2  0  0  0  0  0  0
  190.5630  174.5800  142.9400 N   0  0  0  0  0  2  0  0  0  0  0  0
  187.9330  177.0520  145.0520 C   0  0  1  0  0  3  0  0  0  0  0  0
  186.7060  176.7580  145.8990 C   0  0  0  0  0  2  0  0  0  0  0  0
  188.7250  176.0390  143.1230 C   0  0  0  0  0  0  0  0  0  0  0  0
  186.0600  177.7160  143.8190 C   0  0  2  0  0  3  0  0  0  0  0  0
  185.3890  178.7250  145.9020 O   0  0  0  0  0  0  0  0  0  0  0  0
  185.1500  178.3840  147.2340 C   0  0  0  0  0  1  0  0  0  0  0  0
  191.3030  175.2150  147.0520 C   0  0  0  0  0  2  0  0  0  0  0  0
  192.2250  176.3990  147.2690 C   0  0  0  0  0  2  0  0  0  0  0  0
  194.5670  175.8470  144.1460 C   0  0  1  0  0  3  0  0  0  0  0  0
  194.7710  174.6520  145.1080 C   0  0  1  0  0  3  0  0  0  0  0  0
  193.8560  173.0970  142.0820 O   0  0  0  0  0  0  0  0  0  0  0  0
  193.4950  176.2300  146.4570 C   0  0  1  0  0  3  0  0  0  0  0  0
  193.7650  174.7630  146.2380 C   0  0  0  0  0  2  0  0  0  0  0  0
  194.1270  173.8860  143.0250 C   0  0  0  0  0  0  0  0  0  0  0  0
  194.1140  175.2880  142.8780 N   0  0  0  0  0  2  0  0  0  0  0  0
  194.4970  173.4560  144.3180 N   0  0  0  0  0  0  0  0  0  0  0  0
  193.3050  176.9720  144.8140 S   0  0  0  0  0  0  0  0  0  0  0  0
  196.1790  172.2680  145.5300 N   0  0  0  0  0  2  0  0  0  0  0  0
  194.9690  169.9510  146.1010 S   0  0  0  0  0  0  0  0  0  0  0  0
  194.0700  171.1830  145.1250 C   0  0  0  0  0  2  0  0  0  0  0  0
  196.5050  170.9110  145.9330 C   0  0  0  0  0  2  0  0  0  0  0  0
  195.0940  172.1490  144.5720 C   0  0  1  0  0  3  0  0  0  0  0  0
  185.4280  178.9170  143.1200 C   0  0  0  0  0  2  0  0  0  0  0  0
  182.6070  177.9350  140.6550 C   0  0  0  0  0  1  0  0  0  0  0  0
  183.3250  178.3330  141.8540 N   0  0  0  0  0  2  0  0  0  0  0  0
  185.4210  178.2970  140.8220 O   0  0  0  0  0  0  0  0  0  0  0  0
  184.7430  178.4940  141.8660 C   0  0  0  0  0  0  0  0  0  0  0  0
  1  9  1  0  0  0  0
  1 12  2  0  0  0  0
  2  7  2  0  0  0  0
  3 12  1  6  0  0  0
  3 10  1  0  0  0  0
  3  2  1  0  0  0  0
  4 11  1  0  0  0  0
  4 14  1  1  0  0  0
  5  6  1  6  0  0  0
  5 10  1  0  0  0  0
  6 12  1  0  0  0  0
  7 16  1  0  0  0  0
  8  2  1  0  0  0  0
  9  8  1  0  0  0  0
 10 11  1  1  0  0  0
 13 32  1  1  0  0  0
 13  5  1  0  0  0  0
 13  4  1  0  0  0  0
 14 15  1  0  0  0  0
 16 17  1  0  0  0  0
 18 24  1  6  0  0  0
 18 26  1  0  0  0  0
 18 19  1  0  0  0  0
 19 22  1  1  0  0  0
 20 23  2  0  0  0  0
 21 17  1  1  0  0  0
 22 21  1  0  0  0  0
 23 25  1  0  0  0  0
 24 23  1  0  0  0  0
 25 19  1  0  0  0  0
 26 21  1  0  0  0  0
 27 30  1  0  0  0  0
 29 28  1  0  0  0  0
 30 28  1  0  0  0  0
 31 25  1  1  0  0  0
 31 29  1  0  0  0  0
 31 27  1  0  0  0  0
 33 34  1  0  0  0  0
 34 36  1  0  0  0  0
 35 36  2  0  0  0  0
 36 32  1  0  0  0  0
M  END
>  <MODEL>
1

>  <REMARK>
 VINA RESULT:      -7.4      0.000      0.000
  Name = 
  7 active torsions:
  status: ('A' for Active; 'I' for Inactive)
    1  A    between atoms: C_5  and  O_16
    2  A    between atoms: N_10  and  C_23
    3  A    between atoms: C_14  and  C_17
    4  A    between atoms: C_14  and  C_23
    5  A    between atoms: C_27  and  C_34
    6  A    between atoms: C_32  and  C_34
    7  A    between atoms: N_33  and  C_35
                            x       y       z     vdW  Elec       q    Type
                         _______ _______ _______ _____ _____    ______ ____

>  <TORSDO>
F 7

$$$$
=
 OpenBabel11072408443D

 36 41  0  0  1  0  0  0  0  0999 V2000
  189.1420  172.4580  142.0470 N   0  0  0  0  0  0  0  0  0  0  0  0
  188.9100  175.1490  141.3970 C   0  0  0  0  0  0  0  0  0  0  0  0
  190.1980  174.6550  141.9900 C   0  0  1  0  0  3  0  0  0  0  0  0
  192.9970  175.7480  143.8200 C   0  0  2  0  0  3  0  0  0  0  0  0
  191.0730  174.3890  144.2620 N   0  0  2  0  0  0  0  0  0  0  0  0
  190.6090  173.1560  143.7770 N   0  0  0  0  0  2  0  0  0  0  0  0
  188.5730  176.3880  141.5090 N   0  0  0  0  0  0  0  0  0  0  0  0
  188.1620  174.1900  140.5000 C   0  0  0  0  0  2  0  0  0  0  0  0
  188.2930  172.8100  140.9810 N   0  0  0  0  0  2  0  0  0  0  0  0
  190.6750  175.3940  143.2470 C   0  0  1  0  0  3  0  0  0  0  0  0
  191.8970  176.2300  142.9040 C   0  0  0  0  0  2  0  0  0  0  0  0
  190.0130  173.2980  142.5130 C   0  0  0  0  0  0  0  0  0  0  0  0
  192.5280  174.3590  144.2310 C   0  0  2  0  0  3  0  0  0  0  0  0
  193.0650  176.6010  144.9290 O   0  0  0  0  0  0  0  0  0  0  0  0
  194.4020  176.9930  144.9980 C   0  0  0  0  0  1  0  0  0  0  0  0
  187.3960  176.9390  140.8840 C   0  0  0  0  0  2  0  0  0  0  0  0
  186.7620  177.9570  141.8110 C   0  0  0  0  0  2  0  0  0  0  0  0
  185.0650  177.4890  145.3400 C   0  0  1  0  0  3  0  0  0  0  0  0
  186.4620  176.8270  145.3940 C   0  0  1  0  0  3  0  0  0  0  0  0
  186.5610  179.1270  148.0610 O   0  0  0  0  0  0  0  0  0  0  0  0
  186.1560  177.2630  143.0160 C   0  0  1  0  0  3  0  0  0  0  0  0
  187.1950  177.1330  144.1020 C   0  0  0  0  0  2  0  0  0  0  0  0
  186.2810  178.4240  147.0550 C   0  0  0  0  0  0  0  0  0  0  0  0
  185.0480  178.5130  146.3760 N   0  0  0  0  0  2  0  0  0  0  0  0
  187.1540  177.4550  146.5150 N   0  0  0  0  0  0  0  0  0  0  0  0
  184.8050  178.2520  143.7100 S   0  0  0  0  0  0  0  0  0  0  0  0
  188.3460  175.4200  146.9000 N   0  0  0  0  0  2  0  0  0  0  0  0
  190.8200  176.2790  147.4490 S   0  0  0  0  0  0  0  0  0  0  0  0
  189.5260  177.5050  147.1290 C   0  0  0  0  0  2  0  0  0  0  0  0
  189.5750  174.9550  147.5190 C   0  0  0  0  0  2  0  0  0  0  0  0
  188.1960  176.8060  147.3050 C   0  0  1  0  0  3  0  0  0  0  0  0
  193.0890  173.8870  145.5700 C   0  0  0  0  0  2  0  0  0  0  0  0
  196.3060  171.7320  145.5030 C   0  0  0  0  0  1  0  0  0  0  0  0
  195.3850  172.8450  145.6610 N   0  0  0  0  0  2  0  0  0  0  0  0
  193.5150  171.6200  144.9830 O   0  0  0  0  0  0  0  0  0  0  0  0
  193.9910  172.7170  145.3780 C   0  0  0  0  0  0  0  0  0  0  0  0
  1 12  2  0  0  0  0
  2  7  2  0  0  0  0
  3  2  1  1  0  0  0
  3 12  1  0  0  0  0
  3 10  1  0  0  0  0
  4 13  1  0  0  0  0
  4 14  1  1  0  0  0
  5  6  1  6  0  0  0
  8  9  1  0  0  0  0
  8  2  1  0  0  0  0
  9  1  1  0  0  0  0
 10 11  1  6  0  0  0
 10  5  1  0  0  0  0
 11  4  1  0  0  0  0
 12  6  1  0  0  0  0
 13  5  1  0  0  0  0
 13 32  1  1  0  0  0
 14 15  1  0  0  0  0
 16  7  1  0  0  0  0
 16 17  1  0  0  0  0
 18 26  1  6  0  0  0
 18 19  1  0  0  0  0
 18 24  1  0  0  0  0
 19 22  1  6  0  0  0
 19 25  1  0  0  0  0
 21 17  1  6  0  0  0
 21 26  1  0  0  0  0
 21 22  1  0  0  0  0
 23 20  2  0  0  0  0
 24 23  1  0  0  0  0
 25 23  1  0  0  0  0
 27 31  1  0  0  0  0
 27 30  1  0  0  0  0
 28 30  1  0  0  0  0
 29 31  1  0  0  0  0
 29 28  1  0  0  0  0
 31 25  1  6  0  0  0
 33 34  1  0  0  0  0
 35 36  2  0  0  0  0
 36 32  1  0  0  0  0
 36 34  1  0  0  0  0
M  END
>  <MODEL>
2

>  <REMARK>
 VINA RESULT:      -6.9      2.782      8.313
  Name = 
  7 active torsions:
  status: ('A' for Active; 'I' for Inactive)
    1  A    between atoms: C_5  and  O_16
    2  A    between atoms: N_10  and  C_23
    3  A    between atoms: C_14  and  C_17
    4  A    between atoms: C_14  and  C_23
    5  A    between atoms: C_27  and  C_34
    6  A    between atoms: C_32  and  C_34
    7  A    between atoms: N_33  and  C_35
                            x       y       z     vdW  Elec       q    Type
                         _______ _______ _______ _____ _____    ______ ____

>  <TORSDO>
F 7

$$$$
=
 OpenBabel11072408443D

 36 41  0  0  1  0  0  0  0  0999 V2000
  188.8250  175.3180  142.0430 N   0  0  0  0  0  0  0  0  0  0  0  0
  189.3070  175.2700  144.7780 C   0  0  0  0  0  0  0  0  0  0  0  0
  187.9460  175.6740  144.2890 C   0  0  1  0  0  3  0  0  0  0  0  0
  185.1150  177.5430  145.2230 C   0  0  2  0  0  3  0  0  0  0  0  0
  186.8940  177.7870  143.6350 N   0  0  2  0  0  0  0  0  0  0  0  0
  187.2960  177.0750  142.4930 N   0  0  0  0  0  2  0  0  0  0  0  0
  189.7290  175.6620  145.9320 N   0  0  0  0  0  0  0  0  0  0  0  0
  190.0420  174.2300  143.9640 C   0  0  0  0  0  2  0  0  0  0  0  0
  189.7720  174.3980  142.5320 N   0  0  0  0  0  2  0  0  0  0  0  0
  187.4380  177.0330  144.7890 C   0  0  1  0  0  3  0  0  0  0  0  0
  186.3110  176.8110  145.7850 C   0  0  0  0  0  2  0  0  0  0  0  0
  187.9890  175.9040  142.8420 C   0  0  0  0  0  0  0  0  0  0  0  0
  185.4470  177.6720  143.7420 C   0  0  2  0  0  3  0  0  0  0  0  0
  185.0340  178.8040  145.8280 O   0  0  0  0  0  0  0  0  0  0  0  0
  185.1110  178.5480  147.1980 C   0  0  0  0  0  1  0  0  0  0  0  0
  190.9850  175.2330  146.4930 C   0  0  0  0  0  2  0  0  0  0  0  0
  192.0480  176.2760  146.2090 C   0  0  0  0  0  2  0  0  0  0  0  0
  195.6420  175.8270  144.6520 C   0  0  1  0  0  3  0  0  0  0  0  0
  194.6720  174.9050  143.8770 C   0  0  1  0  0  3  0  0  0  0  0  0
  196.0910  176.8910  141.3370 O   0  0  0  0  0  0  0  0  0  0  0  0
  193.3440  175.6060  145.7960 C   0  0  1  0  0  3  0  0  0  0  0  0
  193.2580  175.1790  144.3530 C   0  0  0  0  0  2  0  0  0  0  0  0
  195.7260  176.3490  142.4130 C   0  0  0  0  0  0  0  0  0  0  0  0
  196.2240  176.7370  143.6740 N   0  0  0  0  0  2  0  0  0  0  0  0
  194.8020  175.2830  142.4730 N   0  0  0  0  0  0  0  0  0  0  0  0
  194.7290  176.7710  145.9100 S   0  0  0  0  0  0  0  0  0  0  0  0
  194.5830  172.9970  141.8110 N   0  0  0  0  0  2  0  0  0  0  0  0
  192.6970  173.1110  139.9160 S   0  0  0  0  0  0  0  0  0  0  0  0
  193.2400  174.6540  140.6940 C   0  0  0  0  0  2  0  0  0  0  0  0
  194.0630  172.2080  140.7070 C   0  0  0  0  0  2  0  0  0  0  0  0
  194.5730  174.3760  141.3530 C   0  0  1  0  0  3  0  0  0  0  0  0
  184.7580  178.8480  143.0540 C   0  0  0  0  0  2  0  0  0  0  0  0
  181.8780  177.9500  140.6250 C   0  0  0  0  0  1  0  0  0  0  0  0
  182.6200  178.3710  141.8010 N   0  0  0  0  0  2  0  0  0  0  0  0
  184.7120  178.0490  140.8120 O   0  0  0  0  0  0  0  0  0  0  0  0
  184.0470  178.3940  141.8250 C   0  0  0  0  0  0  0  0  0  0  0  0
  1  9  1  0  0  0  0
  1 12  2  0  0  0  0
  2  7  2  0  0  0  0
  3 12  1  6  0  0  0
  3  2  1  0  0  0  0
  3 10  1  0  0  0  0
  4 11  1  0  0  0  0
  4 14  1  1  0  0  0
  5  6  1  6  0  0  0
  5 13  1  0  0  0  0
  5 10  1  0  0  0  0
  6 12  1  0  0  0  0
  7 16  1  0  0  0  0
  8  2  1  0  0  0  0
  9  8  1  0  0  0  0
 10 11  1  1  0  0  0
 13 32  1  1  0  0  0
 13  4  1  0  0  0  0
 14 15  1  0  0  0  0
 17 16  1  0  0  0  0
 18 24  1  6  0  0  0
 18 26  1  0  0  0  0
 19 22  1  1  0  0  0
 19 18  1  0  0  0  0
 20 23  2  0  0  0  0
 21 26  1  0  0  0  0
 21 17  1  6  0  0  0
 22 21  1  0  0  0  0
 23 25  1  0  0  0  0
 23 24  1  0  0  0  0
 25 19  1  0  0  0  0
 28 29  1  0  0  0  0
 28 30  1  0  0  0  0
 30 27  1  0  0  0  0
 31 29  1  1  0  0  0
 31 27  1  0  0  0  0
 31 25  1  0  0  0  0
 33 34  1  0  0  0  0
 34 36  1  0  0  0  0
 35 36  2  0  0  0  0
 36 32  1  0  0  0  0
M  END
>  <MODEL>
3

>  <REMARK>
 VINA RESULT:      -6.8      2.099      2.460
  Name = 
  7 active torsions:
  status: ('A' for Active; 'I' for Inactive)
    1  A    between atoms: C_5  and  O_16
    2  A    between atoms: N_10  and  C_23
    3  A    between atoms: C_14  and  C_17
    4  A    between atoms: C_14  and  C_23
    5  A    between atoms: C_27  and  C_34
    6  A    between atoms: C_32  and  C_34
    7  A    between atoms: N_33  and  C_35
                            x       y       z     vdW  Elec       q    Type
                         _______ _______ _______ _____ _____    ______ ____

>  <TORSDO>
F 7

$$$$
=
 OpenBabel11072408443D

 36 41  0  0  1  0  0  0  0  0999 V2000
  190.4770  176.4610  147.1280 N   0  0  0  0  0  0  0  0  0  0  0  0
  191.8980  176.2030  144.7550 C   0  0  0  0  0  0  0  0  0  0  0  0
  190.5480  176.8600  144.7240 C   0  0  1  0  0  3  0  0  0  0  0  0
  187.8480  177.5270  142.5700 C   0  0  2  0  0  3  0  0  0  0  0  0
  188.2440  176.0800  144.4380 N   0  0  2  0  0  0  0  0  0  0  0  0
  188.5180  176.2870  145.8000 N   0  0  0  0  0  2  0  0  0  0  0  0
  192.3780  175.6480  143.6960 N   0  0  0  0  0  0  0  0  0  0  0  0
  192.7300  176.4160  145.9990 C   0  0  0  0  0  2  0  0  0  0  0  0
  191.8820  176.4610  147.1960 N   0  0  0  0  0  2  0  0  0  0  0  0
  189.5390  176.2560  143.7390 C   0  0  1  0  0  3  0  0  0  0  0  0
  189.3270  177.2210  142.5830 C   0  0  0  0  0  2  0  0  0  0  0  0
  189.8620  176.6420  146.0010 C   0  0  0  0  0  0  0  0  0  0  0  0
  187.4040  177.1770  143.9840 C   0  0  2  0  0  3  0  0  0  0  0  0
  187.2250  176.6960  141.6300 O   0  0  0  0  0  0  0  0  0  0  0  0
  186.8870  177.5410  140.5730 C   0  0  0  0  0  1  0  0  0  0  0  0
  193.7030  175.0830  143.6400 C   0  0  0  0  0  2  0  0  0  0  0  0
  193.6640  173.7780  142.8690 C   0  0  0  0  0  2  0  0  0  0  0  0
  190.7510  171.1420  142.5330 C   0  0  1  0  0  3  0  0  0  0  0  0
  190.4970  172.2630  141.4970 C   0  0  1  0  0  3  0  0  0  0  0  0
  190.5610  169.3470  139.5220 O   0  0  0  0  0  0  0  0  0  0  0  0
  192.2630  173.1970  142.8930 C   0  0  1  0  0  3  0  0  0  0  0  0
  191.6870  173.2040  141.4990 C   0  0  0  0  0  2  0  0  0  0  0  0
  190.6120  170.2160  140.4310 C   0  0  0  0  0  0  0  0  0  0  0  0
  190.8620  169.8980  141.7820 N   0  0  0  0  0  2  0  0  0  0  0  0
  190.4000  171.5930  140.2040 N   0  0  0  0  0  0  0  0  0  0  0  0
  192.2990  171.4660  143.4290 S   0  0  0  0  0  0  0  0  0  0  0  0
  188.7410  173.1660  139.5070 N   0  0  0  0  0  2  0  0  0  0  0  0
  189.5810  173.8660  137.0650 S   0  0  0  0  0  0  0  0  0  0  0  0
  190.5260  172.6250  137.9850 C   0  0  0  0  0  2  0  0  0  0  0  0
  188.2400  173.7830  138.2900 C   0  0  0  0  0  2  0  0  0  0  0  0
  189.6210  172.0940  139.0760 C   0  0  1  0  0  3  0  0  0  0  0  0
  185.9260  176.8110  144.0950 C   0  0  0  0  0  2  0  0  0  0  0  0
  184.7310  178.6650  147.2780 C   0  0  0  0  0  1  0  0  0  0  0  0
  185.3970  177.7340  146.3820 N   0  0  0  0  0  2  0  0  0  0  0  0
  184.4520  178.6460  144.4500 O   0  0  0  0  0  0  0  0  0  0  0  0
  185.2080  177.7810  144.9680 C   0  0  0  0  0  0  0  0  0  0  0  0
  1  9  1  0  0  0  0
  2  8  1  0  0  0  0
  3  2  1  1  0  0  0
  3 12  1  0  0  0  0
  4 14  1  6  0  0  0
  4 11  1  0  0  0  0
  4 13  1  0  0  0  0
  5  6  1  1  0  0  0
  6 12  1  0  0  0  0
  7  2  2  0  0  0  0
  8  9  1  0  0  0  0
 10 11  1  6  0  0  0
 10  5  1  0  0  0  0
 10  3  1  0  0  0  0
 12  1  2  0  0  0  0
 13 32  1  6  0  0  0
 13  5  1  0  0  0  0
 15 14  1  0  0  0  0
 16  7  1  0  0  0  0
 17 16  1  0  0  0  0
 18 24  1  6  0  0  0
 18 26  1  0  0  0  0
 19 22  1  6  0  0  0
 19 18  1  0  0  0  0
 20 23  2  0  0  0  0
 21 17  1  6  0  0  0
 21 26  1  0  0  0  0
 22 21  1  0  0  0  0
 23 24  1  0  0  0  0
 25 23  1  0  0  0  0
 25 19  1  0  0  0  0
 28 29  1  0  0  0  0
 28 30  1  0  0  0  0
 30 27  1  0  0  0  0
 31 29  1  6  0  0  0
 31 27  1  0  0  0  0
 31 25  1  0  0  0  0
 32 36  1  0  0  0  0
 34 33  1  0  0  0  0
 35 36  2  0  0  0  0
 36 34  1  0  0  0  0
M  END
>  <MODEL>
4

>  <REMARK>
 VINA RESULT:      -6.5      3.440      5.653
  Name = 
  7 active torsions:
  status: ('A' for Active; 'I' for Inactive)
    1  A    between atoms: C_5  and  O_16
    2  A    between atoms: N_10  and  C_23
    3  A    between atoms: C_14  and  C_17
    4  A    between atoms: C_14  and  C_23
    5  A    between atoms: C_27  and  C_34
    6  A    between atoms: C_32  and  C_34
    7  A    between atoms: N_33  and  C_35
                            x       y       z     vdW  Elec       q    Type
                         _______ _______ _______ _____ _____    ______ ____

>  <TORSDO>
F 7

$$$$
=
 OpenBabel11072408443D

 36 41  0  0  1  0  0  0  0  0999 V2000
  192.6330  176.0160  147.0300 N   0  0  0  0  0  0  0  0  0  0  0  0
  193.0260  176.4640  144.3160 C   0  0  0  0  0  0  0  0  0  0  0  0
  191.7550  176.9460  144.9540 C   0  0  1  0  0  3  0  0  0  0  0  0
  188.4150  177.7520  144.1980 C   0  0  2  0  0  3  0  0  0  0  0  0
  189.5400  175.9810  145.3570 N   0  0  2  0  0  0  0  0  0  0  0  0
  190.3170  175.9110  146.5250 N   0  0  0  0  0  2  0  0  0  0  0  0
  193.0690  176.2190  143.0510 N   0  0  0  0  0  0  0  0  0  0  0  0
  194.2710  176.4910  145.1730 C   0  0  0  0  0  2  0  0  0  0  0  0
  193.9540  176.1680  146.5690 N   0  0  0  0  0  2  0  0  0  0  0  0
  190.4570  176.4610  144.2960 C   0  0  1  0  0  3  0  0  0  0  0  0
  189.7900  177.6270  143.5840 C   0  0  0  0  0  2  0  0  0  0  0  0
  191.6250  176.3690  146.2950 C   0  0  0  0  0  0  0  0  0  0  0  0
  188.5640  177.0450  145.5390 C   0  0  2  0  0  3  0  0  0  0  0  0
  187.4960  177.0820  143.3800 O   0  0  0  0  0  0  0  0  0  0  0  0
  187.7110  177.5990  142.1020 C   0  0  0  0  0  1  0  0  0  0  0  0
  194.2810  175.8420  142.3680 C   0  0  0  0  0  2  0  0  0  0  0  0
  194.0700  174.5190  141.6590 C   0  0  0  0  0  2  0  0  0  0  0  0
  191.0530  171.9960  141.9510 C   0  0  1  0  0  3  0  0  0  0  0  0
  190.7080  173.0220  140.8450 C   0  0  1  0  0  3  0  0  0  0  0  0
  190.4280  169.9280  139.1840 O   0  0  0  0  0  0  0  0  0  0  0  0
  192.6650  174.0070  141.9120 C   0  0  1  0  0  3  0  0  0  0  0  0
  191.9190  173.9040  140.6060 C   0  0  0  0  0  2  0  0  0  0  0  0
  190.6210  170.8780  139.9870 C   0  0  0  0  0  0  0  0  0  0  0  0
  191.0290  170.6820  141.3220 N   0  0  0  0  0  2  0  0  0  0  0  0
  190.4270  172.2350  139.6490 N   0  0  0  0  0  0  0  0  0  0  0  0
  192.7120  172.3360  142.6140 S   0  0  0  0  0  0  0  0  0  0  0  0
  188.7250  173.7880  139.0130 N   0  0  0  0  0  2  0  0  0  0  0  0
  189.2820  174.2520  136.4370 S   0  0  0  0  0  0  0  0  0  0  0  0
  190.3070  173.0680  137.3480 C   0  0  0  0  0  2  0  0  0  0  0  0
  188.0950  174.3120  137.8130 C   0  0  0  0  0  2  0  0  0  0  0  0
  189.5290  172.6590  138.5790 C   0  0  1  0  0  3  0  0  0  0  0  0
  187.2550  176.4900  146.0940 C   0  0  0  0  0  2  0  0  0  0  0  0
  184.0850  178.7110  145.9580 C   0  0  0  0  0  1  0  0  0  0  0  0
  185.0560  177.6620  145.6960 N   0  0  0  0  0  2  0  0  0  0  0  0
  186.5940  178.4530  147.2680 O   0  0  0  0  0  0  0  0  0  0  0  0
  186.3010  177.5950  146.3920 C   0  0  0  0  0  0  0  0  0  0  0  0
  2  8  1  0  0  0  0
  3  2  1  6  0  0  0
  3 12  1  0  0  0  0
  4 14  1  6  0  0  0
  4 13  1  0  0  0  0
  5 13  1  0  0  0  0
  5  6  1  1  0  0  0
  7  2  2  0  0  0  0
  8  9  1  0  0  0  0
  9  1  1  0  0  0  0
 10 11  1  1  0  0  0
 10  3  1  0  0  0  0
 10  5  1  0  0  0  0
 11  4  1  0  0  0  0
 12  6  1  0  0  0  0
 12  1  2  0  0  0  0
 13 32  1  6  0  0  0
 15 14  1  0  0  0  0
 16  7  1  0  0  0  0
 17 16  1  0  0  0  0
 18 24  1  6  0  0  0
 18 26  1  0  0  0  0
 19 22  1  6  0  0  0
 19 18  1  0  0  0  0
 20 23  2  0  0  0  0
 21 17  1  6  0  0  0
 21 26  1  0  0  0  0
 22 21  1  0  0  0  0
 23 24  1  0  0  0  0
 25 23  1  0  0  0  0
 25 19  1  0  0  0  0
 28 29  1  0  0  0  0
 28 30  1  0  0  0  0
 30 27  1  0  0  0  0
 31 29  1  6  0  0  0
 31 27  1  0  0  0  0
 31 25  1  0  0  0  0
 32 36  1  0  0  0  0
 34 33  1  0  0  0  0
 34 36  1  0  0  0  0
 36 35  2  0  0  0  0
M  END
>  <MODEL>
5

>  <REMARK>
 VINA RESULT:      -6.5      3.569      5.992
  Name = 
  7 active torsions:
  status: ('A' for Active; 'I' for Inactive)
    1  A    between atoms: C_5  and  O_16
    2  A    between atoms: N_10  and  C_23
    3  A    between atoms: C_14  and  C_17
    4  A    between atoms: C_14  and  C_23
    5  A    between atoms: C_27  and  C_34
    6  A    between atoms: C_32  and  C_34
    7  A    between atoms: N_33  and  C_35
                            x       y       z     vdW  Elec       q    Type
                         _______ _______ _______ _____ _____    ______ ____

>  <TORSDO>
F 7

$$$$
=
 OpenBabel11072408443D

 36 41  0  0  1  0  0  0  0  0999 V2000
  188.6620  174.3450  140.1660 N   0  0  0  0  0  0  0  0  0  0  0  0
  189.8900  174.0170  142.6370 C   0  0  0  0  0  0  0  0  0  0  0  0
  188.5600  174.7100  142.5750 C   0  0  1  0  0  3  0  0  0  0  0  0
  186.5640  177.0240  144.3190 C   0  0  2  0  0  3  0  0  0  0  0  0
  187.8220  177.0270  142.2790 N   0  0  2  0  0  0  0  0  0  0  0  0
  187.7230  176.3300  141.0630 N   0  0  0  0  0  2  0  0  0  0  0  0
  190.6970  174.2400  143.6170 N   0  0  0  0  0  0  0  0  0  0  0  0
  190.1300  172.9130  141.6330 C   0  0  0  0  0  2  0  0  0  0  0  0
  189.5000  173.2280  140.3460 N   0  0  0  0  0  2  0  0  0  0  0  0
  188.5080  176.1040  143.2140 C   0  0  1  0  0  3  0  0  0  0  0  0
  187.6940  176.0380  144.4970 C   0  0  0  0  0  2  0  0  0  0  0  0
  188.2310  175.0260  141.1810 C   0  0  0  0  0  0  0  0  0  0  0  0
  186.4750  177.1880  142.8070 C   0  0  2  0  0  3  0  0  0  0  0  0
  186.9220  178.2320  144.9320 O   0  0  0  0  0  0  0  0  0  0  0  0
  187.0120  177.9300  146.2920 C   0  0  0  0  0  1  0  0  0  0  0  0
  191.9460  173.5380  143.7780 C   0  0  0  0  0  2  0  0  0  0  0  0
  192.4270  173.6850  145.2080 C   0  0  0  0  0  2  0  0  0  0  0  0
  195.8270  175.6280  144.7510 C   0  0  1  0  0  3  0  0  0  0  0  0
  195.8640  174.3860  143.8290 C   0  0  1  0  0  3  0  0  0  0  0  0
  196.4410  177.0520  141.6010 O   0  0  0  0  0  0  0  0  0  0  0  0
  193.9170  173.9680  145.2340 C   0  0  1  0  0  3  0  0  0  0  0  0
  194.5050  173.7120  143.8700 C   0  0  0  0  0  2  0  0  0  0  0  0
  196.1940  176.3020  142.5810 C   0  0  0  0  0  0  0  0  0  0  0  0
  195.9890  176.7910  143.8880 N   0  0  0  0  0  2  0  0  0  0  0  0
  196.1220  174.8950  142.4870 N   0  0  0  0  0  0  0  0  0  0  0  0
  194.2280  175.7130  145.6120 S   0  0  0  0  0  0  0  0  0  0  0  0
  197.4370  172.9600  141.9980 N   0  0  0  0  0  2  0  0  0  0  0  0
  196.5160  172.2120  139.5990 S   0  0  0  0  0  0  0  0  0  0  0  0
  195.8290  173.7010  140.3680 C   0  0  0  0  0  2  0  0  0  0  0  0
  197.8220  172.1400  140.8620 C   0  0  0  0  0  2  0  0  0  0  0  0
  196.8030  174.1410  141.4380 C   0  0  1  0  0  3  0  0  0  0  0  0
  185.8740  178.5190  142.3640 C   0  0  0  0  0  2  0  0  0  0  0  0
  182.2340  178.0890  141.1140 C   0  0  0  0  0  1  0  0  0  0  0  0
  183.3930  178.2900  141.9670 N   0  0  0  0  0  2  0  0  0  0  0  0
  184.9290  178.1270  140.2140 O   0  0  0  0  0  0  0  0  0  0  0  0
  184.7220  178.2950  141.4460 C   0  0  0  0  0  0  0  0  0  0  0  0
  1  9  1  0  0  0  0
  1 12  2  0  0  0  0
  2  7  2  0  0  0  0
  3 12  1  6  0  0  0
  3  2  1  0  0  0  0
  3 10  1  0  0  0  0
  4 11  1  0  0  0  0
  4 14  1  1  0  0  0
  5  6  1  6  0  0  0
  5 13  1  0  0  0  0
  5 10  1  0  0  0  0
  6 12  1  0  0  0  0
  7 16  1  0  0  0  0
  8  2  1  0  0  0  0
  9  8  1  0  0  0  0
 10 11  1  1  0  0  0
 13 32  1  1  0  0  0
 13  4  1  0  0  0  0
 14 15  1  0  0  0  0
 16 17  1  0  0  0  0
 18 24  1  6  0  0  0
 18 26  1  0  0  0  0
 19 22  1  6  0  0  0
 19 18  1  0  0  0  0
 20 23  2  0  0  0  0
 21 17  1  6  0  0  0
 21 26  1  0  0  0  0
 22 21  1  0  0  0  0
 23 24  1  0  0  0  0
 25 23  1  0  0  0  0
 25 19  1  0  0  0  0
 28 29  1  0  0  0  0
 28 30  1  0  0  0  0
 30 27  1  0  0  0  0
 31 29  1  6  0  0  0
 31 27  1  0  0  0  0
 31 25  1  0  0  0  0
 33 34  1  0  0  0  0
 35 36  2  0  0  0  0
 36 34  1  0  0  0  0
 36 32  1  0  0  0  0
M  END
>  <MODEL>
6

>  <REMARK>
 VINA RESULT:      -6.3      2.436      2.988
  Name = 
  7 active torsions:
  status: ('A' for Active; 'I' for Inactive)
    1  A    between atoms: C_5  and  O_16
    2  A    between atoms: N_10  and  C_23
    3  A    between atoms: C_14  and  C_17
    4  A    between atoms: C_14  and  C_23
    5  A    between atoms: C_27  and  C_34
    6  A    between atoms: C_32  and  C_34
    7  A    between atoms: N_33  and  C_35
                            x       y       z     vdW  Elec       q    Type
                         _______ _______ _______ _____ _____    ______ ____

>  <TORSDO>
F 7

$$$$
=
 OpenBabel11072408443D

 36 41  0  0  1  0  0  0  0  0999 V2000
  189.7470  177.1910  147.2540 N   0  0  0  0  0  0  0  0  0  0  0  0
  191.6830  175.7340  145.8950 C   0  0  0  0  0  0  0  0  0  0  0  0
  190.5510  176.3390  145.1160 C   0  0  1  0  0  3  0  0  0  0  0  0
  188.7300  175.9470  142.1310 C   0  0  2  0  0  3  0  0  0  0  0  0
  188.3060  175.6070  144.4650 N   0  0  2  0  0  0  0  0  0  0  0  0
  188.2320  176.4540  145.5830 N   0  0  0  0  0  2  0  0  0  0  0  0
  192.3140  174.7070  145.4380 N   0  0  0  0  0  0  0  0  0  0  0  0
  192.1680  176.5050  147.1010 C   0  0  0  0  0  2  0  0  0  0  0  0
  191.0520  177.1720  147.7810 N   0  0  0  0  0  2  0  0  0  0  0  0
  189.7510  175.3630  144.2430 C   0  0  1  0  0  3  0  0  0  0  0  0
  190.0580  175.6320  142.7790 C   0  0  0  0  0  2  0  0  0  0  0  0
  189.5130  176.8110  146.0370 C   0  0  0  0  0  0  0  0  0  0  0  0
  187.8560  176.3650  143.3060 C   0  0  2  0  0  3  0  0  0  0  0  0
  188.2360  174.7830  141.5290 O   0  0  0  0  0  0  0  0  0  0  0  0
  189.3270  174.2430  140.8460 C   0  0  0  0  0  1  0  0  0  0  0  0
  193.4650  174.1390  146.0960 C   0  0  0  0  0  2  0  0  0  0  0  0
  193.8590  172.8510  145.4000 C   0  0  0  0  0  2  0  0  0  0  0  0
  196.9250  174.6630  143.7080 C   0  0  1  0  0  3  0  0  0  0  0  0
  196.1750  173.8750  142.6080 C   0  0  1  0  0  3  0  0  0  0  0  0
  196.2010  177.1670  141.3550 O   0  0  0  0  0  0  0  0  0  0  0  0
  195.1730  173.0340  144.6640 C   0  0  1  0  0  3  0  0  0  0  0  0
  194.9040  173.3000  143.2050 C   0  0  0  0  0  2  0  0  0  0  0  0
  196.3030  176.1080  142.0280 C   0  0  0  0  0  0  0  0  0  0  0  0
  196.9170  176.0610  143.2960 N   0  0  0  0  0  2  0  0  0  0  0  0
  195.8390  174.8520  141.5780 N   0  0  0  0  0  0  0  0  0  0  0  0
  196.0630  174.4810  145.2980 S   0  0  0  0  0  0  0  0  0  0  0  0
  196.2560  173.2320  139.8720 N   0  0  0  0  0  2  0  0  0  0  0  0
  194.0630  173.4030  138.3480 S   0  0  0  0  0  0  0  0  0  0  0  0
  194.2180  174.5080  139.7740 C   0  0  0  0  0  2  0  0  0  0  0  0
  195.7940  172.8820  138.5390 C   0  0  0  0  0  2  0  0  0  0  0  0
  195.6800  174.5320  140.1630 C   0  0  1  0  0  3  0  0  0  0  0  0
  186.3620  176.1580  143.0700 C   0  0  0  0  0  2  0  0  0  0  0  0
  185.6070  179.8660  143.8950 C   0  0  0  0  0  1  0  0  0  0  0  0
  186.2720  178.5790  143.7730 N   0  0  0  0  0  2  0  0  0  0  0  0
  184.4520  177.5410  142.7400 O   0  0  0  0  0  0  0  0  0  0  0  0
  185.6290  177.4500  143.1820 C   0  0  0  0  0  0  0  0  0  0  0  0
  1  9  1  0  0  0  0
  2  8  1  0  0  0  0
  3  2  1  1  0  0  0
  3 12  1  0  0  0  0
  4 14  1  1  0  0  0
  4 11  1  0  0  0  0
  4 13  1  0  0  0  0
  5  6  1  1  0  0  0
  6 12  1  0  0  0  0
  7  2  2  0  0  0  0
  7 16  1  0  0  0  0
  8  9  1  0  0  0  0
 10 11  1  6  0  0  0
 10  5  1  0  0  0  0
 10  3  1  0  0  0  0
 12  1  2  0  0  0  0
 13 32  1  6  0  0  0
 13  5  1  0  0  0  0
 15 14  1  0  0  0  0
 17 16  1  0  0  0  0
 18 24  1  6  0  0  0
 18 26  1  0  0  0  0
 19 22  1  1  0  0  0
 19 18  1  0  0  0  0
 20 23  2  0  0  0  0
 21 26  1  0  0  0  0
 21 17  1  1  0  0  0
 22 21  1  0  0  0  0
 23 24  1  0  0  0  0
 25 23  1  0  0  0  0
 25 19  1  0  0  0  0
 27 31  1  0  0  0  0
 28 30  1  0  0  0  0
 28 29  1  0  0  0  0
 30 27  1  0  0  0  0
 31 29  1  1  0  0  0
 31 25  1  0  0  0  0
 32 36  1  0  0  0  0
 34 33  1  0  0  0  0
 35 36  2  0  0  0  0
 36 34  1  0  0  0  0
M  END
>  <MODEL>
7

>  <REMARK>
 VINA RESULT:      -6.2      2.745      4.429
  Name = 
  7 active torsions:
  status: ('A' for Active; 'I' for Inactive)
    1  A    between atoms: C_5  and  O_16
    2  A    between atoms: N_10  and  C_23
    3  A    between atoms: C_14  and  C_17
    4  A    between atoms: C_14  and  C_23
    5  A    between atoms: C_27  and  C_34
    6  A    between atoms: C_32  and  C_34
    7  A    between atoms: N_33  and  C_35
                            x       y       z     vdW  Elec       q    Type
                         _______ _______ _______ _____ _____    ______ ____

>  <TORSDO>
F 7

$$$$
=
 OpenBabel11072408443D

 36 41  0  0  1  0  0  0  0  0999 V2000
  189.2340  172.8860  141.5190 N   0  0  0  0  0  0  0  0  0  0  0  0
  191.0360  172.6770  143.6230 C   0  0  0  0  0  0  0  0  0  0  0  0
  189.8400  173.5710  143.7790 C   0  0  1  0  0  3  0  0  0  0  0  0
  188.7090  176.3930  145.5500 C   0  0  2  0  0  3  0  0  0  0  0  0
  189.3530  175.9210  143.2900 N   0  0  2  0  0  0  0  0  0  0  0  0
  188.8380  175.1010  142.2740 N   0  0  0  0  0  2  0  0  0  0  0  0
  192.1010  172.8850  144.3190 N   0  0  0  0  0  0  0  0  0  0  0  0
  190.8490  171.4280  142.7930 C   0  0  0  0  0  2  0  0  0  0  0  0
  189.9380  171.6770  141.6700 N   0  0  0  0  0  2  0  0  0  0  0  0
  190.1440  175.0240  144.1670 C   0  0  1  0  0  3  0  0  0  0  0  0
  189.7080  175.2610  145.6040 C   0  0  0  0  0  2  0  0  0  0  0  0
  189.1870  173.7550  142.4790 C   0  0  0  0  0  0  0  0  0  0  0  0
  188.2340  176.3730  144.1030 C   0  0  2  0  0  3  0  0  0  0  0  0
  189.3730  177.5920  145.8420 O   0  0  0  0  0  0  0  0  0  0  0  0
  189.6520  177.5230  147.2080 C   0  0  0  0  0  1  0  0  0  0  0  0
  193.2450  172.0090  144.2790 C   0  0  0  0  0  2  0  0  0  0  0  0
  194.1150  172.2600  145.4950 C   0  0  0  0  0  2  0  0  0  0  0  0
  196.5060  175.1500  144.2770 C   0  0  1  0  0  3  0  0  0  0  0  0
  196.5470  174.0230  143.2180 C   0  0  1  0  0  3  0  0  0  0  0  0
  195.5920  176.8490  141.3440 O   0  0  0  0  0  0  0  0  0  0  0  0
  195.3910  172.9730  145.0890 C   0  0  1  0  0  3  0  0  0  0  0  0
  195.5160  172.9730  143.5860 C   0  0  0  0  0  2  0  0  0  0  0  0
  195.9070  176.0110  142.2290 C   0  0  0  0  0  0  0  0  0  0  0  0
  196.0460  176.3500  143.5910 N   0  0  0  0  0  2  0  0  0  0  0  0
  196.1800  174.6530  141.9540 N   0  0  0  0  0  0  0  0  0  0  0  0
  195.3430  174.7100  145.6040 S   0  0  0  0  0  0  0  0  0  0  0  0
  197.7620  173.2940  140.7870 N   0  0  0  0  0  2  0  0  0  0  0  0
  196.3100  172.3000  138.7710 S   0  0  0  0  0  0  0  0  0  0  0  0
  195.5210  173.4530  139.9220 C   0  0  0  0  0  2  0  0  0  0  0  0
  197.9400  172.6680  139.4880 C   0  0  0  0  0  2  0  0  0  0  0  0
  196.6280  174.1900  140.6440 C   0  0  1  0  0  3  0  0  0  0  0  0
  187.7110  177.7190  143.6060 C   0  0  0  0  0  2  0  0  0  0  0  0
  185.3430  178.0610  140.5610 C   0  0  0  0  0  1  0  0  0  0  0  0
  186.4640  178.2220  141.4710 N   0  0  0  0  0  2  0  0  0  0  0  0
  185.6090  176.7410  143.0630 O   0  0  0  0  0  0  0  0  0  0  0  0
  186.5320  177.5270  142.7160 C   0  0  0  0  0  0  0  0  0  0  0  0
  1  9  1  0  0  0  0
  1 12  2  0  0  0  0
  2  3  1  0  0  0  0
  2  7  2  0  0  0  0
  3 12  1  6  0  0  0
  3 10  1  0  0  0  0
  4 11  1  0  0  0  0
  4 14  1  6  0  0  0
  5  6  1  6  0  0  0
  5 13  1  0  0  0  0
  5 10  1  0  0  0  0
  6 12  1  0  0  0  0
  8  2  1  0  0  0  0
  9  8  1  0  0  0  0
 10 11  1  1  0  0  0
 13 32  1  6  0  0  0
 13  4  1  0  0  0  0
 14 15  1  0  0  0  0
 16  7  1  0  0  0  0
 16 17  1  0  0  0  0
 18 24  1  6  0  0  0
 18 26  1  0  0  0  0
 19 22  1  1  0  0  0
 19 18  1  0  0  0  0
 20 23  2  0  0  0  0
 21 17  1  6  0  0  0
 21 26  1  0  0  0  0
 22 21  1  0  0  0  0
 23 24  1  0  0  0  0
 25 23  1  0  0  0  0
 25 19  1  0  0  0  0
 28 30  1  0  0  0  0
 28 29  1  0  0  0  0
 30 27  1  0  0  0  0
 31 29  1  1  0  0  0
 31 27  1  0  0  0  0
 31 25  1  0  0  0  0
 33 34  1  0  0  0  0
 34 36  1  0  0  0  0
 36 35  2  0  0  0  0
 36 32  1  0  0  0  0
M  END
>  <MODEL>
8

>  <REMARK>
 VINA RESULT:      -6.1      2.834      3.812
  Name = 
  7 active torsions:
  status: ('A' for Active; 'I' for Inactive)
    1  A    between atoms: C_5  and  O_16
    2  A    between atoms: N_10  and  C_23
    3  A    between atoms: C_14  and  C_17
    4  A    between atoms: C_14  and  C_23
    5  A    between atoms: C_27  and  C_34
    6  A    between atoms: C_32  and  C_34
    7  A    between atoms: N_33  and  C_35
                            x       y       z     vdW  Elec       q    Type
                         _______ _______ _______ _____ _____    ______ ____

>  <TORSDO>
F 7

$$$$
=
 OpenBabel11072408443D

 36 41  0  0  1  0  0  0  0  0999 V2000
  188.9990  175.6020  145.7750 N   0  0  0  0  0  0  0  0  0  0  0  0
  188.9710  174.7730  143.1240 C   0  0  0  0  0  0  0  0  0  0  0  0
  188.3290  176.0830  143.4800 C   0  0  1  0  0  3  0  0  0  0  0  0
  185.8660  178.3440  142.3840 C   0  0  2  0  0  3  0  0  0  0  0  0
  186.0910  176.7830  144.1890 N   0  0  2  0  0  0  0  0  0  0  0  0
  186.9410  176.6850  145.3030 N   0  0  0  0  0  2  0  0  0  0  0  0
  188.6010  174.1310  142.0690 N   0  0  0  0  0  0  0  0  0  0  0  0
  190.1880  174.3710  143.9250 C   0  0  0  0  0  2  0  0  0  0  0  0
  190.0590  174.7950  145.3230 N   0  0  0  0  0  2  0  0  0  0  0  0
  186.8660  176.2440  143.0460 C   0  0  1  0  0  3  0  0  0  0  0  0
  186.7900  177.2480  141.9060 C   0  0  0  0  0  2  0  0  0  0  0  0
  188.2050  176.1920  144.9370 C   0  0  0  0  0  0  0  0  0  0  0  0
  185.9010  178.1960  143.8990 C   0  0  2  0  0  3  0  0  0  0  0  0
  184.5810  178.0960  141.8870 O   0  0  0  0  0  0  0  0  0  0  0  0
  184.6860  178.2890  140.5090 C   0  0  0  0  0  1  0  0  0  0  0  0
  189.2420  172.9180  141.6260 C   0  0  0  0  0  2  0  0  0  0  0  0
  190.3220  173.2560  140.6180 C   0  0  0  0  0  2  0  0  0  0  0  0
  192.9430  171.0940  142.6180 C   0  0  1  0  0  3  0  0  0  0  0  0
  193.6160  172.4380  142.2560 C   0  0  1  0  0  3  0  0  0  0  0  0
  193.9420  172.2990  145.7600 O   0  0  0  0  0  0  0  0  0  0  0  0
  191.5820  172.4660  140.9140 C   0  0  1  0  0  3  0  0  0  0  0  0
  192.5780  173.3470  141.6260 C   0  0  0  0  0  2  0  0  0  0  0  0
  193.6750  172.1200  144.5430 C   0  0  0  0  0  0  0  0  0  0  0  0
  192.9720  170.9920  144.0720 N   0  0  0  0  0  2  0  0  0  0  0  0
  194.0700  173.0080  143.5200 N   0  0  0  0  0  0  0  0  0  0  0  0
  191.2220  171.0850  142.0310 S   0  0  0  0  0  0  0  0  0  0  0  0
  196.0260  173.8690  142.4510 N   0  0  0  0  0  2  0  0  0  0  0  0
  196.0780  176.4140  143.2760 S   0  0  0  0  0  0  0  0  0  0  0  0
  194.7620  175.3300  143.8860 C   0  0  0  0  0  2  0  0  0  0  0  0
  196.9480  174.9870  142.5600 C   0  0  0  0  0  2  0  0  0  0  0  0
  195.2140  173.9050  143.6540 C   0  0  1  0  0  3  0  0  0  0  0  0
  184.6560  178.7310  144.6010 C   0  0  0  0  0  2  0  0  0  0  0  0
  186.1600  179.4500  148.0970 C   0  0  0  0  0  1  0  0  0  0  0  0
  185.9420  179.4180  146.6600 N   0  0  0  0  0  2  0  0  0  0  0  0
  184.0140  178.1070  146.8070 O   0  0  0  0  0  0  0  0  0  0  0  0
  184.8400  178.7200  146.0800 C   0  0  0  0  0  0  0  0  0  0  0  0
  2  8  1  0  0  0  0
  3  2  1  1  0  0  0
  3 12  1  0  0  0  0
  4 14  1  6  0  0  0
  4 13  1  0  0  0  0
  5  6  1  1  0  0  0
  7  2  2  0  0  0  0
  8  9  1  0  0  0  0
  9  1  1  0  0  0  0
 10 11  1  6  0  0  0
 10  3  1  0  0  0  0
 10  5  1  0  0  0  0
 11  4  1  0  0  0  0
 12  6  1  0  0  0  0
 12  1  2  0  0  0  0
 13  5  1  0  0  0  0
 13 32  1  1  0  0  0
 15 14  1  0  0  0  0
 16  7  1  0  0  0  0
 17 16  1  0  0  0  0
 18 26  1  1  0  0  0
 18 24  1  0  0  0  0
 19 22  1  1  0  0  0
 19 18  1  0  0  0  0
 19 25  1  0  0  0  0
 21 17  1  1  0  0  0
 21 22  1  0  0  0  0
 21 26  1  0  0  0  0
 23 20  2  0  0  0  0
 24 23  1  0  0  0  0
 25 23  1  0  0  0  0
 27 30  1  0  0  0  0
 27 31  1  0  0  0  0
 28 29  1  0  0  0  0
 30 28  1  0  0  0  0
 31 25  1  6  0  0  0
 31 29  1  0  0  0  0
 32 36  1  0  0  0  0
 34 33  1  0  0  0  0
 36 34  1  0  0  0  0
 36 35  2  0  0  0  0
M  END
>  <MODEL>
9

>  <REMARK>
 VINA RESULT:      -6.1      2.334      4.508
  Name = 
  7 active torsions:
  status: ('A' for Active; 'I' for Inactive)
    1  A    between atoms: C_5  and  O_16
    2  A    between atoms: N_10  and  C_23
    3  A    between atoms: C_14  and  C_17
    4  A    between atoms: C_14  and  C_23
    5  A    between atoms: C_27  and  C_34
    6  A    between atoms: C_32  and  C_34
    7  A    between atoms: N_33  and  C_35
                            x       y       z     vdW  Elec       q    Type
                         _______ _______ _______ _____ _____    ______ ____

>  <TORSDO>
F 7

$$$$
