=
 OpenBabel11062418493D

 37 41  0  0  1  0  0  0  0  0999 V2000
  188.6590  176.8790  143.5030 C   0  0  1  0  0  3  0  0  0  0  0  0
  190.8830  176.3840  142.3630 N   0  0  0  0  0  0  0  0  0  0  0  0
  190.0480  177.1910  142.9480 C   0  0  0  0  0  3  0  0  0  0  0  0
  190.7870  174.9340  142.2070 C   0  0  1  0  0  0  0  0  0  0  0  0
  188.5500  173.9720  142.4340 C   0  0  0  0  0  2  0  0  0  0  0  0
  189.9680  173.5530  140.4490 C   0  0  0  0  0  2  0  0  0  0  0  0
  191.3610  173.4760  140.3920 O   0  0  0  0  0  0  0  0  0  0  0  0
  189.3690  173.4190  143.5850 C   0  0  2  0  0  3  0  0  0  0  0  0
  191.8790  174.4100  141.2940 C   0  0  0  0  0  2  0  0  0  0  0  0
  190.6670  174.2260  143.5540 C   0  0  1  0  0  3  0  0  0  0  0  0
  189.5160  171.9140  143.3500 C   0  0  0  0  0  1  0  0  0  0  0  0
  189.5230  174.5930  141.4440 C   0  0  2  0  0  3  0  0  0  0  0  0
  192.2170  172.2160  143.9410 C   0  0  0  0  0  3  0  0  0  0  0  0
  193.5860  170.2540  144.4030 O   0  0  0  0  0  1  0  0  0  0  0  0
  191.8810  173.5670  144.1800 C   0  0  0  0  0  0  0  0  0  0  0  0
  193.2750  171.5880  144.6300 C   0  0  0  0  0  0  0  0  0  0  0  0
  192.6170  174.2720  145.1410 C   0  0  0  0  0  3  0  0  0  0  0  0
  194.0120  172.3110  145.5790 C   0  0  0  0  0  3  0  0  0  0  0  0
  193.6780  173.6480  145.8220 C   0  0  0  0  0  3  0  0  0  0  0  0
  188.5390  177.4400  144.9310 C   0  0  0  0  0  2  0  0  0  0  0  0
  190.4410  177.1760  146.5790 N   0  0  0  0  0  0  0  0  0  0  0  0
  189.3090  176.6430  146.0310 C   0  0  0  0  0  0  0  0  0  0  0  0
  191.1130  176.5190  147.5670 C   0  0  0  0  0  3  0  0  0  0  0  0
  189.5490  174.7460  147.4850 C   0  0  0  0  0  3  0  0  0  0  0  0
  190.6740  175.3020  148.0170 N   0  0  0  0  0  0  0  0  0  0  0  0
  188.8360  175.4200  146.4660 C   0  0  0  0  0  3  0  0  0  0  0  0
  187.7480  177.8030  142.6880 C   0  0  0  0  0  2  0  0  0  0  0  0
  186.3400  177.9260  143.2700 C   0  0  1  0  0  3  0  0  0  0  0  0
  185.7370  178.2940  140.9270 O   0  0  0  0  0  1  0  0  0  0  0  0
  185.9010  179.3660  143.0490 C   0  0  1  0  0  3  0  0  0  0  0  0
  185.2420  178.2630  142.2440 C   0  0  2  0  0  3  0  0  0  0  0  0
  185.0450  179.7600  144.0740 O   0  0  0  0  0  0  0  0  0  0  0  0
  184.4150  178.5860  144.4670 C   0  0  0  0  0  2  0  0  0  0  0  0
  183.9550  178.7030  145.9140 C   0  0  0  0  0  2  0  0  0  0  0  0
  186.0280  178.7060  147.3440 C   0  0  0  0  0  1  0  0  0  0  0  0
  184.8200  177.9190  146.8940 C   0  0  2  0  0  3  0  0  0  0  0  0
  185.2140  176.6950  146.3520 O   0  0  0  0  0  1  0  0  0  0  0  0
  1 27  1  6  0  0  0
  1 20  1  0  0  0  0
  2  3  2  0  0  0  0
  3  1  1  0  0  0  0
  4  2  1  1  0  0  0
  4 10  1  0  0  0  0
  5  8  1  0  0  0  0
  7  6  1  0  0  0  0
  7  9  1  0  0  0  0
  8 11  1  6  0  0  0
  9  4  1  0  0  0  0
 10  8  1  0  0  0  0
 10 15  1  6  0  0  0
 12  6  1  6  0  0  0
 12  4  1  0  0  0  0
 12  5  1  0  0  0  0
 13 15  2  0  0  0  0
 13 16  1  0  0  0  0
 14 16  1  0  0  0  0
 15 17  1  0  0  0  0
 16 18  2  0  0  0  0
 17 19  2  0  0  0  0
 18 19  1  0  0  0  0
 20 22  1  0  0  0  0
 21 23  1  0  0  0  0
 22 26  1  0  0  0  0
 22 21  2  0  0  0  0
 23 25  2  0  0  0  0
 24 25  1  0  0  0  0
 26 24  2  0  0  0  0
 28 27  1  6  0  0  0
 30 28  1  0  0  0  0
 30 32  1  1  0  0  0
 31 29  1  6  0  0  0
 31 30  1  0  0  0  0
 31 28  1  0  0  0  0
 32 33  1  0  0  0  0
 33 34  1  0  0  0  0
 34 36  1  0  0  0  0
 36 35  1  6  0  0  0
 37 36  1  0  0  0  0
M  END
>  <MODEL>
1

>  <REMARK>
 VINA RESULT:      -7.3      0.000      0.000
  Name = 
  11 active torsions:
  status: ('A' for Active; 'I' for Inactive)
    1  A    between atoms: N_1  and  C_9
    2  A    between atoms: C_3  and  C_16
    3  A    between atoms: C_4  and  C_6
    4  A    between atoms: C_4  and  O_25
    5  A    between atoms: C_6  and  C_12
    6  A    between atoms: C_7  and  C_15
    7  A    between atoms: C_7  and  C_18
    8  A    between atoms: C_16  and  C_18
    9  A    between atoms: C_17  and  O_25
   10  A    between atoms: C_18  and  C_21
   11  A    between atoms: C_19  and  C_33
                            x       y       z     vdW  Elec       q    Type
                         _______ _______ _______ _____ _____    ______ ____

>  <TORSDO>
F 11

$$$$
=
 OpenBabel11062418493D

 37 41  0  0  1  0  0  0  0  0999 V2000
  189.5300  177.1080  143.2370 C   0  0  1  0  0  3  0  0  0  0  0  0
  192.0230  177.4020  142.8020 N   0  0  0  0  0  0  0  0  0  0  0  0
  190.8290  177.8770  143.0040 C   0  0  0  0  0  3  0  0  0  0  0  0
  192.4740  176.0140  142.8880 C   0  0  1  0  0  0  0  0  0  0  0  0
  194.1300  175.3150  141.2320 C   0  0  0  0  0  2  0  0  0  0  0  0
  194.4950  175.0220  143.6620 C   0  0  0  0  0  2  0  0  0  0  0  0
  193.5370  174.7820  144.6500 O   0  0  0  0  0  0  0  0  0  0  0  0
  192.8820  174.4990  140.9540 C   0  0  2  0  0  3  0  0  0  0  0  0
  192.3860  175.5000  144.3130 C   0  0  0  0  0  2  0  0  0  0  0  0
  191.8070  175.1340  141.8350 C   0  0  1  0  0  3  0  0  0  0  0  0
  193.2190  173.0400  141.2650 C   0  0  0  0  0  1  0  0  0  0  0  0
  193.9600  175.9500  142.6030 C   0  0  2  0  0  3  0  0  0  0  0  0
  190.5910  173.5350  143.4330 C   0  0  0  0  0  3  0  0  0  0  0  0
  189.5300  171.9080  144.9040 O   0  0  0  0  0  1  0  0  0  0  0  0
  190.6380  174.2440  142.2130 C   0  0  0  0  0  0  0  0  0  0  0  0
  189.5570  172.6160  143.7100 C   0  0  0  0  0  0  0  0  0  0  0  0
  189.6350  174.0000  141.2660 C   0  0  0  0  0  3  0  0  0  0  0  0
  188.5530  172.3920  142.7590 C   0  0  0  0  0  3  0  0  0  0  0  0
  188.6000  173.0910  141.5460 C   0  0  0  0  0  3  0  0  0  0  0  0
  188.9490  177.4870  144.6120 C   0  0  0  0  0  2  0  0  0  0  0  0
  190.4550  177.1140  146.6100 N   0  0  0  0  0  0  0  0  0  0  0  0
  189.4570  176.6300  145.8130 C   0  0  0  0  0  0  0  0  0  0  0  0
  190.8930  176.4020  147.6880 C   0  0  0  0  0  3  0  0  0  0  0  0
  189.3550  174.6720  147.2010 C   0  0  0  0  0  3  0  0  0  0  0  0
  190.3500  175.1800  147.9810 N   0  0  0  0  0  0  0  0  0  0  0  0
  188.8840  175.4020  146.0850 C   0  0  0  0  0  3  0  0  0  0  0  0
  188.5580  177.7700  142.2540 C   0  0  0  0  0  2  0  0  0  0  0  0
  187.0940  177.4310  142.5350 C   0  0  1  0  0  3  0  0  0  0  0  0
  186.9080  177.6050  140.1000 O   0  0  0  0  0  1  0  0  0  0  0  0
  186.2810  178.6560  142.1450 C   0  0  1  0  0  3  0  0  0  0  0  0
  186.1850  177.4070  141.2920 C   0  0  2  0  0  3  0  0  0  0  0  0
  185.1500  178.7470  142.9530 O   0  0  0  0  0  0  0  0  0  0  0  0
  185.5340  179.5880  143.9890 C   0  0  0  0  0  2  0  0  0  0  0  0
  184.8890  179.1330  145.2920 C   0  0  0  0  0  2  0  0  0  0  0  0
  185.1540  176.8970  146.4170 C   0  0  0  0  0  1  0  0  0  0  0  0
  185.7860  178.2400  146.1380 C   0  0  2  0  0  3  0  0  0  0  0  0
  186.1410  178.8660  147.3340 O   0  0  0  0  0  1  0  0  0  0  0  0
  1 27  1  6  0  0  0
  1 20  1  0  0  0  0
  2  3  2  0  0  0  0
  3  1  1  0  0  0  0
  4  2  1  6  0  0  0
  4  9  1  0  0  0  0
  6  7  1  0  0  0  0
  8  5  1  0  0  0  0
  8 11  1  1  0  0  0
  8 10  1  0  0  0  0
  9  7  1  0  0  0  0
 10 15  1  1  0  0  0
 10  4  1  0  0  0  0
 12  5  1  6  0  0  0
 12  4  1  0  0  0  0
 12  6  1  0  0  0  0
 13 16  1  0  0  0  0
 15 13  2  0  0  0  0
 16 14  1  0  0  0  0
 17 19  2  0  0  0  0
 17 15  1  0  0  0  0
 18 16  2  0  0  0  0
 19 18  1  0  0  0  0
 20 22  1  0  0  0  0
 21 23  1  0  0  0  0
 22 26  1  0  0  0  0
 22 21  2  0  0  0  0
 23 25  2  0  0  0  0
 24 25  1  0  0  0  0
 26 24  2  0  0  0  0
 28 27  1  6  0  0  0
 30 28  1  0  0  0  0
 30 32  1  1  0  0  0
 31 29  1  6  0  0  0
 31 30  1  0  0  0  0
 31 28  1  0  0  0  0
 32 33  1  0  0  0  0
 33 34  1  0  0  0  0
 34 36  1  0  0  0  0
 36 35  1  1  0  0  0
 36 37  1  0  0  0  0
M  END
>  <MODEL>
2

>  <REMARK>
 VINA RESULT:      -7.2      1.771      3.118
  Name = 
  11 active torsions:
  status: ('A' for Active; 'I' for Inactive)
    1  A    between atoms: N_1  and  C_9
    2  A    between atoms: C_3  and  C_16
    3  A    between atoms: C_4  and  C_6
    4  A    between atoms: C_4  and  O_25
    5  A    between atoms: C_6  and  C_12
    6  A    between atoms: C_7  and  C_15
    7  A    between atoms: C_7  and  C_18
    8  A    between atoms: C_16  and  C_18
    9  A    between atoms: C_17  and  O_25
   10  A    between atoms: C_18  and  C_21
   11  A    between atoms: C_19  and  C_33
                            x       y       z     vdW  Elec       q    Type
                         _______ _______ _______ _____ _____    ______ ____

>  <TORSDO>
F 11

$$$$
=
 OpenBabel11062418493D

 37 41  0  0  1  0  0  0  0  0999 V2000
  192.1040  176.4190  143.1740 C   0  0  1  0  0  3  0  0  0  0  0  0
  190.0970  177.9310  142.7530 N   0  0  0  0  0  0  0  0  0  0  0  0
  191.3550  177.6300  142.6210 C   0  0  0  0  0  3  0  0  0  0  0  0
  189.0280  177.1240  143.3380 C   0  0  1  0  0  0  0  0  0  0  0  0
  186.8140  178.1580  143.4110 C   0  0  0  0  0  2  0  0  0  0  0  0
  187.1970  175.9390  142.3840 C   0  0  0  0  0  2  0  0  0  0  0  0
  188.1380  174.9750  142.7520 O   0  0  0  0  0  0  0  0  0  0  0  0
  187.2400  177.9650  144.8540 C   0  0  2  0  0  3  0  0  0  0  0  0
  189.3000  175.6430  143.1540 C   0  0  0  0  0  2  0  0  0  0  0  0
  188.7090  177.5550  144.7670 C   0  0  1  0  0  3  0  0  0  0  0  0
  186.2950  176.9300  145.4680 C   0  0  0  0  0  1  0  0  0  0  0  0
  187.7520  177.3300  142.5480 C   0  0  2  0  0  3  0  0  0  0  0  0
  190.1270  177.3360  146.8970 C   0  0  0  0  0  3  0  0  0  0  0  0
  191.5940  177.1170  148.8300 O   0  0  0  0  0  1  0  0  0  0  0  0
  189.2550  176.7660  145.9420 C   0  0  0  0  0  0  0  0  0  0  0  0
  190.7220  176.5530  147.9080 C   0  0  0  0  0  0  0  0  0  0  0  0
  189.0050  175.3900  146.0120 C   0  0  0  0  0  3  0  0  0  0  0  0
  190.4510  175.1790  147.9730 C   0  0  0  0  0  3  0  0  0  0  0  0
  189.5910  174.6120  147.0260 C   0  0  0  0  0  3  0  0  0  0  0  0
  193.2940  176.0870  142.2550 C   0  0  0  0  0  2  0  0  0  0  0  0
  194.4230  173.8930  141.6970 N   0  0  0  0  0  0  0  0  0  0  0  0
  193.2880  174.6520  141.6440 C   0  0  0  0  0  0  0  0  0  0  0  0
  194.4350  172.6210  141.2040 C   0  0  0  0  0  3  0  0  0  0  0  0
  192.1670  172.8230  140.5600 C   0  0  0  0  0  3  0  0  0  0  0  0
  193.3120  172.0870  140.6290 N   0  0  0  0  0  0  0  0  0  0  0  0
  192.1360  174.1400  141.0760 C   0  0  0  0  0  3  0  0  0  0  0  0
  192.7800  176.9780  144.4310 C   0  0  0  0  0  2  0  0  0  0  0  0
  193.1630  175.8950  145.4400 C   0  0  1  0  0  3  0  0  0  0  0  0
  194.5960  177.6680  146.3330 O   0  0  0  0  0  1  0  0  0  0  0  0
  194.6300  175.5720  145.1980 C   0  0  1  0  0  3  0  0  0  0  0  0
  194.2370  176.3120  146.4610 C   0  0  2  0  0  3  0  0  0  0  0  0
  194.8750  174.2360  145.5070 O   0  0  0  0  0  0  0  0  0  0  0  0
  193.6120  173.6710  145.6160 C   0  0  0  0  0  2  0  0  0  0  0  0
  193.6500  172.2210  145.1520 C   0  0  0  0  0  2  0  0  0  0  0  0
  191.2850  172.6610  144.4100 C   0  0  0  0  0  1  0  0  0  0  0  0
  192.5450  171.8660  144.1650 C   0  0  2  0  0  3  0  0  0  0  0  0
  192.2670  170.4980  144.1870 O   0  0  0  0  0  1  0  0  0  0  0  0
  1 20  1  6  0  0  0
  1 27  1  0  0  0  0
  3  2  2  0  0  0  0
  3  1  1  0  0  0  0
  4  2  1  6  0  0  0
  4 10  1  0  0  0  0
  5  8  1  0  0  0  0
  6  7  1  0  0  0  0
  7  9  1  0  0  0  0
  8 11  1  6  0  0  0
  9  4  1  0  0  0  0
 10  8  1  0  0  0  0
 10 15  1  1  0  0  0
 12  6  1  1  0  0  0
 12  4  1  0  0  0  0
 12  5  1  0  0  0  0
 13 16  1  0  0  0  0
 15 17  1  0  0  0  0
 15 13  2  0  0  0  0
 16 18  2  0  0  0  0
 16 14  1  0  0  0  0
 17 19  2  0  0  0  0
 19 18  1  0  0  0  0
 22 21  1  0  0  0  0
 22 20  1  0  0  0  0
 23 21  2  0  0  0  0
 24 25  2  0  0  0  0
 24 26  1  0  0  0  0
 25 23  1  0  0  0  0
 26 22  2  0  0  0  0
 28 27  1  6  0  0  0
 28 31  1  0  0  0  0
 30 28  1  0  0  0  0
 30 32  1  1  0  0  0
 30 31  1  0  0  0  0
 31 29  1  6  0  0  0
 32 33  1  0  0  0  0
 34 33  1  0  0  0  0
 36 37  1  0  0  0  0
 36 35  1  1  0  0  0
 36 34  1  0  0  0  0
M  END
>  <MODEL>
3

>  <REMARK>
 VINA RESULT:      -6.9      2.684      7.010
  Name = 
  11 active torsions:
  status: ('A' for Active; 'I' for Inactive)
    1  A    between atoms: N_1  and  C_9
    2  A    between atoms: C_3  and  C_16
    3  A    between atoms: C_4  and  C_6
    4  A    between atoms: C_4  and  O_25
    5  A    between atoms: C_6  and  C_12
    6  A    between atoms: C_7  and  C_15
    7  A    between atoms: C_7  and  C_18
    8  A    between atoms: C_16  and  C_18
    9  A    between atoms: C_17  and  O_25
   10  A    between atoms: C_18  and  C_21
   11  A    between atoms: C_19  and  C_33
                            x       y       z     vdW  Elec       q    Type
                         _______ _______ _______ _____ _____    ______ ____

>  <TORSDO>
F 11

$$$$
=
 OpenBabel11062418493D

 37 41  0  0  1  0  0  0  0  0999 V2000
  190.5550  173.7330  144.0140 C   0  0  1  0  0  3  0  0  0  0  0  0
  191.7240  171.4860  144.2820 N   0  0  0  0  0  0  0  0  0  0  0  0
  190.6540  172.2200  144.1970 C   0  0  0  0  0  3  0  0  0  0  0  0
  193.1170  171.8840  144.0810 C   0  0  1  0  0  0  0  0  0  0  0  0
  194.8100  170.4030  145.0400 C   0  0  0  0  0  2  0  0  0  0  0  0
  194.8370  171.0640  142.6540 C   0  0  0  0  0  2  0  0  0  0  0  0
  194.4020  172.2670  142.0940 O   0  0  0  0  0  0  0  0  0  0  0  0
  194.9310  171.7220  145.7800 C   0  0  2  0  0  3  0  0  0  0  0  0
  193.2740  172.6880  142.8050 C   0  0  0  0  0  2  0  0  0  0  0  0
  193.7090  172.5250  145.3330 C   0  0  1  0  0  3  0  0  0  0  0  0
  196.2900  172.3200  145.4140 C   0  0  0  0  0  1  0  0  0  0  0  0
  193.9570  170.6540  143.8060 C   0  0  2  0  0  3  0  0  0  0  0  0
  194.7290  174.7790  144.6490 C   0  0  0  0  0  3  0  0  0  0  0  0
  195.8170  176.8850  144.0840 O   0  0  0  0  0  1  0  0  0  0  0  0
  193.8250  174.0340  145.4370 C   0  0  0  0  0  0  0  0  0  0  0  0
  194.9110  176.1630  144.8490 C   0  0  0  0  0  0  0  0  0  0  0  0
  193.1170  174.7020  146.4440 C   0  0  0  0  0  3  0  0  0  0  0  0
  194.1860  176.8210  145.8520 C   0  0  0  0  0  3  0  0  0  0  0  0
  193.2920  176.0840  146.6370 C   0  0  0  0  0  3  0  0  0  0  0  0
  189.9010  174.0450  142.6560 C   0  0  0  0  0  2  0  0  0  0  0  0
  190.3190  176.5390  142.7310 N   0  0  0  0  0  0  0  0  0  0  0  0
  189.4470  175.5240  142.4550 C   0  0  0  0  0  0  0  0  0  0  0  0
  189.9610  177.8400  142.5290 C   0  0  0  0  0  3  0  0  0  0  0  0
  187.8220  177.1610  141.7800 C   0  0  0  0  0  3  0  0  0  0  0  0
  188.7130  178.1530  142.0610 N   0  0  0  0  0  0  0  0  0  0  0  0
  188.1810  175.8060  141.9760 C   0  0  0  0  0  3  0  0  0  0  0  0
  189.4710  174.1300  145.0220 C   0  0  0  0  0  2  0  0  0  0  0  0
  189.7350  175.4790  145.6900 C   0  0  1  0  0  3  0  0  0  0  0  0
  188.9440  174.2990  147.6840 O   0  0  0  0  0  1  0  0  0  0  0  0
  188.3830  176.0190  146.1320 C   0  0  1  0  0  3  0  0  0  0  0  0
  189.3670  175.5460  147.1840 C   0  0  2  0  0  3  0  0  0  0  0  0
  188.3950  177.4120  146.0880 O   0  0  0  0  0  0  0  0  0  0  0  0
  187.2410  177.7440  145.3910 C   0  0  0  0  0  2  0  0  0  0  0  0
  186.0320  177.0880  146.0460 C   0  0  0  0  0  2  0  0  0  0  0  0
  184.0640  178.6500  145.8910 C   0  0  0  0  0  1  0  0  0  0  0  0
  185.1320  178.0690  146.7860 C   0  0  2  0  0  3  0  0  0  0  0  0
  185.8780  179.0910  147.3770 O   0  0  0  0  0  1  0  0  0  0  0  0
  1 20  1  6  0  0  0
  1  3  1  0  0  0  0
  1 27  1  0  0  0  0
  3  2  2  0  0  0  0
  4  2  1  1  0  0  0
  4 10  1  0  0  0  0
  5  8  1  0  0  0  0
  7  6  1  0  0  0  0
  7  9  1  0  0  0  0
  8 11  1  6  0  0  0
  9  4  1  0  0  0  0
 10 15  1  6  0  0  0
 10  8  1  0  0  0  0
 12  6  1  6  0  0  0
 12  4  1  0  0  0  0
 12  5  1  0  0  0  0
 13 16  2  0  0  0  0
 13 15  1  0  0  0  0
 14 16  1  0  0  0  0
 15 17  2  0  0  0  0
 16 18  1  0  0  0  0
 17 19  1  0  0  0  0
 18 19  2  0  0  0  0
 22 20  1  0  0  0  0
 22 21  2  0  0  0  0
 23 21  1  0  0  0  0
 24 26  2  0  0  0  0
 24 25  1  0  0  0  0
 25 23  2  0  0  0  0
 26 22  1  0  0  0  0
 28 27  1  6  0  0  0
 28 30  1  0  0  0  0
 28 31  1  0  0  0  0
 30 32  1  1  0  0  0
 30 31  1  0  0  0  0
 31 29  1  6  0  0  0
 33 34  1  0  0  0  0
 33 32  1  0  0  0  0
 34 36  1  0  0  0  0
 36 35  1  6  0  0  0
 36 37  1  0  0  0  0
M  END
>  <MODEL>
4

>  <REMARK>
 VINA RESULT:      -6.8      2.355      4.923
  Name = 
  11 active torsions:
  status: ('A' for Active; 'I' for Inactive)
    1  A    between atoms: N_1  and  C_9
    2  A    between atoms: C_3  and  C_16
    3  A    between atoms: C_4  and  C_6
    4  A    between atoms: C_4  and  O_25
    5  A    between atoms: C_6  and  C_12
    6  A    between atoms: C_7  and  C_15
    7  A    between atoms: C_7  and  C_18
    8  A    between atoms: C_16  and  C_18
    9  A    between atoms: C_17  and  O_25
   10  A    between atoms: C_18  and  C_21
   11  A    between atoms: C_19  and  C_33
                            x       y       z     vdW  Elec       q    Type
                         _______ _______ _______ _____ _____    ______ ____

>  <TORSDO>
F 11

$$$$
=
 OpenBabel11062418493D

 37 41  0  0  1  0  0  0  0  0999 V2000
  187.9740  176.5400  143.8520 C   0  0  1  0  0  3  0  0  0  0  0  0
  189.7760  177.4250  145.4210 N   0  0  0  0  0  0  0  0  0  0  0  0
  188.7390  177.5910  144.6540 C   0  0  0  0  0  3  0  0  0  0  0  0
  190.4020  176.1720  145.8410 C   0  0  1  0  0  0  0  0  0  0  0  0
  192.7790  176.2920  146.4020 C   0  0  0  0  0  2  0  0  0  0  0  0
  191.1030  175.3530  147.9630 C   0  0  0  0  0  2  0  0  0  0  0  0
  189.9270  174.6690  147.6470 O   0  0  0  0  0  0  0  0  0  0  0  0
  192.6760  175.3970  145.1820 C   0  0  2  0  0  3  0  0  0  0  0  0
  189.3910  175.2490  146.4930 C   0  0  0  0  0  2  0  0  0  0  0  0
  191.2270  175.5470  144.7180 C   0  0  1  0  0  3  0  0  0  0  0  0
  193.0910  173.9910  145.6180 C   0  0  0  0  0  1  0  0  0  0  0  0
  191.3760  176.4500  146.9670 C   0  0  2  0  0  3  0  0  0  0  0  0
  190.6220  174.4220  142.4920 C   0  0  0  0  0  3  0  0  0  0  0  0
  189.9270  173.4430  140.3720 O   0  0  0  0  0  1  0  0  0  0  0  0
  190.6620  174.4000  143.9030 C   0  0  0  0  0  0  0  0  0  0  0  0
  189.9790  173.4030  141.7580 C   0  0  0  0  0  0  0  0  0  0  0  0
  190.0270  173.3420  144.5670 C   0  0  0  0  0  3  0  0  0  0  0  0
  189.3600  172.3440  142.4360 C   0  0  0  0  0  3  0  0  0  0  0  0
  189.3940  172.3220  143.8360 C   0  0  0  0  0  3  0  0  0  0  0  0
  186.6060  176.2870  144.5100 C   0  0  0  0  0  2  0  0  0  0  0  0
  186.4550  177.0000  146.9330 N   0  0  0  0  0  0  0  0  0  0  0  0
  186.2010  177.3010  145.6250 C   0  0  0  0  0  0  0  0  0  0  0  0
  186.1460  177.8840  147.9250 C   0  0  0  0  0  3  0  0  0  0  0  0
  185.2890  179.4090  146.3320 C   0  0  0  0  0  3  0  0  0  0  0  0
  185.5570  179.0840  147.6280 N   0  0  0  0  0  0  0  0  0  0  0  0
  185.6130  178.5060  145.2910 C   0  0  0  0  0  3  0  0  0  0  0  0
  187.6080  177.2890  142.5660 C   0  0  0  0  0  2  0  0  0  0  0  0
  186.2120  176.9480  142.0470 C   0  0  1  0  0  3  0  0  0  0  0  0
  187.0780  177.9240  139.9760 O   0  0  0  0  0  1  0  0  0  0  0  0
  185.5220  178.2700  141.7480 C   0  0  1  0  0  3  0  0  0  0  0  0
  185.9370  177.3790  140.5940 C   0  0  2  0  0  3  0  0  0  0  0  0
  184.1500  178.1440  141.9550 O   0  0  0  0  0  0  0  0  0  0  0  0
  183.5900  178.3840  140.7070 C   0  0  0  0  0  2  0  0  0  0  0  0
  182.1410  177.9160  140.6900 C   0  0  0  0  0  2  0  0  0  0  0  0
  180.8170  179.2860  142.3350 C   0  0  0  0  0  1  0  0  0  0  0  0
  181.1340  179.0420  140.8790 C   0  0  2  0  0  3  0  0  0  0  0  0
  179.9610  178.7970  140.1620 O   0  0  0  0  0  1  0  0  0  0  0  0
  1 27  1  6  0  0  0
  1 20  1  0  0  0  0
  1  3  1  0  0  0  0
  3  2  2  0  0  0  0
  4  2  1  6  0  0  0
  4  9  1  0  0  0  0
  4 12  1  0  0  0  0
  7  6  1  0  0  0  0
  8 11  1  1  0  0  0
  8  5  1  0  0  0  0
  9  7  1  0  0  0  0
 10 15  1  1  0  0  0
 10  8  1  0  0  0  0
 10  4  1  0  0  0  0
 12  5  1  6  0  0  0
 12  6  1  0  0  0  0
 13 15  1  0  0  0  0
 14 16  1  0  0  0  0
 15 17  2  0  0  0  0
 16 18  1  0  0  0  0
 16 13  2  0  0  0  0
 18 19  2  0  0  0  0
 19 17  1  0  0  0  0
 20 22  1  0  0  0  0
 21 23  1  0  0  0  0
 22 21  2  0  0  0  0
 24 25  1  0  0  0  0
 25 23  2  0  0  0  0
 26 22  1  0  0  0  0
 26 24  2  0  0  0  0
 28 27  1  6  0  0  0
 30 32  1  1  0  0  0
 30 28  1  0  0  0  0
 31 29  1  6  0  0  0
 31 30  1  0  0  0  0
 31 28  1  0  0  0  0
 33 32  1  0  0  0  0
 34 33  1  0  0  0  0
 34 36  1  0  0  0  0
 36 35  1  1  0  0  0
 37 36  1  0  0  0  0
M  END
>  <MODEL>
5

>  <REMARK>
 VINA RESULT:      -6.7      2.390      4.770
  Name = 
  11 active torsions:
  status: ('A' for Active; 'I' for Inactive)
    1  A    between atoms: N_1  and  C_9
    2  A    between atoms: C_3  and  C_16
    3  A    between atoms: C_4  and  C_6
    4  A    between atoms: C_4  and  O_25
    5  A    between atoms: C_6  and  C_12
    6  A    between atoms: C_7  and  C_15
    7  A    between atoms: C_7  and  C_18
    8  A    between atoms: C_16  and  C_18
    9  A    between atoms: C_17  and  O_25
   10  A    between atoms: C_18  and  C_21
   11  A    between atoms: C_19  and  C_33
                            x       y       z     vdW  Elec       q    Type
                         _______ _______ _______ _____ _____    ______ ____

>  <TORSDO>
F 11

$$$$
=
 OpenBabel11062418493D

 37 41  0  0  1  0  0  0  0  0999 V2000
  189.6060  176.6550  143.1950 C   0  0  1  0  0  3  0  0  0  0  0  0
  188.8250  174.2360  143.0230 N   0  0  0  0  0  0  0  0  0  0  0  0
  188.6250  175.4890  143.3060 C   0  0  0  0  0  3  0  0  0  0  0  0
  189.9900  173.6250  142.3840 C   0  0  1  0  0  0  0  0  0  0  0  0
  190.1360  171.1880  142.5170 C   0  0  0  0  0  2  0  0  0  0  0  0
  190.2600  172.3990  140.3610 C   0  0  0  0  0  2  0  0  0  0  0  0
  190.7850  173.6710  140.1220 O   0  0  0  0  0  0  0  0  0  0  0  0
  191.3170  171.7270  143.3010 C   0  0  2  0  0  3  0  0  0  0  0  0
  190.4850  174.4730  141.2280 C   0  0  0  0  0  2  0  0  0  0  0  0
  191.0530  173.2290  143.4050 C   0  0  1  0  0  3  0  0  0  0  0  0
  192.5830  171.3250  142.5430 C   0  0  0  0  0  1  0  0  0  0  0  0
  189.5710  172.3400  141.7000 C   0  0  2  0  0  3  0  0  0  0  0  0
  192.8330  174.3230  144.8980 C   0  0  0  0  0  3  0  0  0  0  0  0
  194.4170  175.4620  146.3560 O   0  0  0  0  0  1  0  0  0  0  0  0
  192.2690  174.1090  143.6200 C   0  0  0  0  0  0  0  0  0  0  0  0
  193.8840  175.2430  145.0940 C   0  0  0  0  0  0  0  0  0  0  0  0
  192.7710  174.8510  142.5430 C   0  0  0  0  0  3  0  0  0  0  0  0
  194.3840  175.9680  144.0040 C   0  0  0  0  0  3  0  0  0  0  0  0
  193.8250  175.7610  142.7370 C   0  0  0  0  0  3  0  0  0  0  0  0
  188.8240  177.9790  143.1240 C   0  0  0  0  0  2  0  0  0  0  0  0
  187.6850  177.5790  140.9000 N   0  0  0  0  0  0  0  0  0  0  0  0
  187.5620  177.9630  142.2050 C   0  0  0  0  0  0  0  0  0  0  0  0
  186.5930  177.5210  140.0850 C   0  0  0  0  0  3  0  0  0  0  0  0
  185.2030  178.2530  141.8540 C   0  0  0  0  0  3  0  0  0  0  0  0
  185.3540  177.8640  140.5570 N   0  0  0  0  0  0  0  0  0  0  0  0
  186.3250  178.3100  142.7140 C   0  0  0  0  0  3  0  0  0  0  0  0
  190.2430  176.7010  144.5880 C   0  0  0  0  0  2  0  0  0  0  0  0
  189.2820  177.1830  145.6740 C   0  0  1  0  0  3  0  0  0  0  0  0
  191.1930  176.7300  147.1350 O   0  0  0  0  0  1  0  0  0  0  0  0
  189.0000  175.9860  146.5690 C   0  0  1  0  0  3  0  0  0  0  0  0
  189.8420  177.1260  147.1070 C   0  0  2  0  0  3  0  0  0  0  0  0
  187.7120  176.0810  147.0920 O   0  0  0  0  0  0  0  0  0  0  0  0
  187.1850  177.2220  146.5030 C   0  0  0  0  0  2  0  0  0  0  0  0
  185.7020  177.0220  146.2200 C   0  0  0  0  0  2  0  0  0  0  0  0
  183.9740  178.7740  145.6860 C   0  0  0  0  0  1  0  0  0  0  0  0
  184.8210  178.1400  146.7630 C   0  0  2  0  0  3  0  0  0  0  0  0
  185.5820  179.1110  147.4160 O   0  0  0  0  0  1  0  0  0  0  0  0
  1 20  1  1  0  0  0
  1  3  1  0  0  0  0
  1 27  1  0  0  0  0
  2  3  2  0  0  0  0
  4  2  1  1  0  0  0
  4 10  1  0  0  0  0
  5  8  1  0  0  0  0
  7  6  1  0  0  0  0
  7  9  1  0  0  0  0
  8 11  1  6  0  0  0
  8 10  1  0  0  0  0
  9  4  1  0  0  0  0
 10 15  1  6  0  0  0
 12  6  1  6  0  0  0
 12  4  1  0  0  0  0
 12  5  1  0  0  0  0
 13 16  1  0  0  0  0
 15 13  2  0  0  0  0
 16 14  1  0  0  0  0
 17 19  2  0  0  0  0
 17 15  1  0  0  0  0
 18 16  2  0  0  0  0
 19 18  1  0  0  0  0
 21 22  1  0  0  0  0
 22 26  2  0  0  0  0
 22 20  1  0  0  0  0
 23 25  1  0  0  0  0
 23 21  2  0  0  0  0
 24 26  1  0  0  0  0
 25 24  2  0  0  0  0
 28 27  1  6  0  0  0
 28 30  1  0  0  0  0
 28 31  1  0  0  0  0
 30 32  1  1  0  0  0
 30 31  1  0  0  0  0
 31 29  1  6  0  0  0
 33 32  1  0  0  0  0
 34 33  1  0  0  0  0
 34 36  1  0  0  0  0
 36 35  1  6  0  0  0
 36 37  1  0  0  0  0
M  END
>  <MODEL>
6

>  <REMARK>
 VINA RESULT:      -6.7      2.329      4.371
  Name = 
  11 active torsions:
  status: ('A' for Active; 'I' for Inactive)
    1  A    between atoms: N_1  and  C_9
    2  A    between atoms: C_3  and  C_16
    3  A    between atoms: C_4  and  C_6
    4  A    between atoms: C_4  and  O_25
    5  A    between atoms: C_6  and  C_12
    6  A    between atoms: C_7  and  C_15
    7  A    between atoms: C_7  and  C_18
    8  A    between atoms: C_16  and  C_18
    9  A    between atoms: C_17  and  O_25
   10  A    between atoms: C_18  and  C_21
   11  A    between atoms: C_19  and  C_33
                            x       y       z     vdW  Elec       q    Type
                         _______ _______ _______ _____ _____    ______ ____

>  <TORSDO>
F 11

$$$$
=
 OpenBabel11062418493D

 37 41  0  0  1  0  0  0  0  0999 V2000
  189.0480  176.6970  143.0970 C   0  0  1  0  0  3  0  0  0  0  0  0
  190.6780  177.7450  144.7510 N   0  0  0  0  0  0  0  0  0  0  0  0
  190.1610  177.6330  143.5630 C   0  0  0  0  0  3  0  0  0  0  0  0
  190.2400  177.1140  145.9950 C   0  0  1  0  0  0  0  0  0  0  0  0
  190.6330  174.7080  146.1800 C   0  0  0  0  0  2  0  0  0  0  0  0
  191.4220  176.3070  147.8970 C   0  0  0  0  0  2  0  0  0  0  0  0
  190.8270  177.5090  148.2850 O   0  0  0  0  0  0  0  0  0  0  0  0
  189.1270  174.8930  146.1800 C   0  0  2  0  0  3  0  0  0  0  0  0
  190.2720  178.1000  147.1460 C   0  0  0  0  0  2  0  0  0  0  0  0
  188.9220  176.3630  145.8150 C   0  0  1  0  0  3  0  0  0  0  0  0
  188.6220  174.4740  147.5620 C   0  0  0  0  0  1  0  0  0  0  0  0
  191.2560  176.0740  146.4170 C   0  0  2  0  0  3  0  0  0  0  0  0
  187.5760  178.1140  147.1250 C   0  0  0  0  0  3  0  0  0  0  0  0
  186.3250  179.6950  148.4920 O   0  0  0  0  0  1  0  0  0  0  0  0
  187.6180  176.9910  146.2690 C   0  0  0  0  0  0  0  0  0  0  0  0
  186.3560  178.6040  147.6350 C   0  0  0  0  0  0  0  0  0  0  0  0
  186.4110  176.3570  145.9490 C   0  0  0  0  0  3  0  0  0  0  0  0
  185.1540  177.9670  147.2950 C   0  0  0  0  0  3  0  0  0  0  0  0
  185.1940  176.8510  146.4500 C   0  0  0  0  0  3  0  0  0  0  0  0
  188.1420  177.4350  142.0950 C   0  0  0  0  0  2  0  0  0  0  0  0
  186.8020  179.0640  143.4930 N   0  0  0  0  0  0  0  0  0  0  0  0
  186.7960  177.9680  142.6770 C   0  0  0  0  0  0  0  0  0  0  0  0
  185.6360  179.5730  143.9850 C   0  0  0  0  0  3  0  0  0  0  0  0
  184.4020  177.8880  142.8740 C   0  0  0  0  0  3  0  0  0  0  0  0
  184.4380  178.9840  143.6830 N   0  0  0  0  0  0  0  0  0  0  0  0
  185.6020  177.3530  142.3480 C   0  0  0  0  0  3  0  0  0  0  0  0
  189.7930  175.6880  142.2160 C   0  0  0  0  0  2  0  0  0  0  0  0
  189.4300  174.2360  142.5240 C   0  0  1  0  0  3  0  0  0  0  0  0
  191.8370  174.0430  142.9270 O   0  0  0  0  0  1  0  0  0  0  0  0
  190.0870  173.3840  141.4490 C   0  0  1  0  0  3  0  0  0  0  0  0
  190.6260  173.3270  142.8650 C   0  0  2  0  0  3  0  0  0  0  0  0
  189.3140  172.2510  141.2070 O   0  0  0  0  0  0  0  0  0  0  0  0
  189.3580  172.0920  139.8280 C   0  0  0  0  0  2  0  0  0  0  0  0
  188.2020  172.8430  139.1820 C   0  0  0  0  0  2  0  0  0  0  0  0
  190.0310  173.7560  137.7130 C   0  0  0  0  0  1  0  0  0  0  0  0
  188.5540  173.4660  137.8370 C   0  0  2  0  0  3  0  0  0  0  0  0
  187.8110  174.6260  137.6070 O   0  0  0  0  0  1  0  0  0  0  0  0
  1 20  1  6  0  0  0
  1  3  1  0  0  0  0
  3  2  2  0  0  0  0
  4  2  1  6  0  0  0
  4 12  1  0  0  0  0
  4  9  1  0  0  0  0
  6  7  1  0  0  0  0
  8  5  1  0  0  0  0
  8 11  1  1  0  0  0
  9  7  1  0  0  0  0
 10  4  1  0  0  0  0
 10  8  1  0  0  0  0
 10 15  1  1  0  0  0
 12  5  1  1  0  0  0
 12  6  1  0  0  0  0
 13 16  1  0  0  0  0
 15 13  2  0  0  0  0
 16 14  1  0  0  0  0
 17 15  1  0  0  0  0
 17 19  2  0  0  0  0
 18 16  2  0  0  0  0
 19 18  1  0  0  0  0
 20 22  1  0  0  0  0
 21 23  1  0  0  0  0
 22 21  2  0  0  0  0
 24 25  1  0  0  0  0
 25 23  2  0  0  0  0
 26 22  1  0  0  0  0
 26 24  2  0  0  0  0
 27  1  1  0  0  0  0
 28 27  1  6  0  0  0
 28 31  1  0  0  0  0
 30 32  1  1  0  0  0
 30 28  1  0  0  0  0
 30 31  1  0  0  0  0
 31 29  1  6  0  0  0
 33 32  1  0  0  0  0
 34 33  1  0  0  0  0
 36 35  1  1  0  0  0
 36 34  1  0  0  0  0
 37 36  1  0  0  0  0
M  END
>  <MODEL>
7

>  <REMARK>
 VINA RESULT:      -6.7      2.444      7.344
  Name = 
  11 active torsions:
  status: ('A' for Active; 'I' for Inactive)
    1  A    between atoms: N_1  and  C_9
    2  A    between atoms: C_3  and  C_16
    3  A    between atoms: C_4  and  C_6
    4  A    between atoms: C_4  and  O_25
    5  A    between atoms: C_6  and  C_12
    6  A    between atoms: C_7  and  C_15
    7  A    between atoms: C_7  and  C_18
    8  A    between atoms: C_16  and  C_18
    9  A    between atoms: C_17  and  O_25
   10  A    between atoms: C_18  and  C_21
   11  A    between atoms: C_19  and  C_33
                            x       y       z     vdW  Elec       q    Type
                         _______ _______ _______ _____ _____    ______ ____

>  <TORSDO>
F 11

$$$$
=
 OpenBabel11062418493D

 37 41  0  0  1  0  0  0  0  0999 V2000
  192.1150  175.7840  143.6310 C   0  0  1  0  0  3  0  0  0  0  0  0
  190.8590  177.7700  144.6160 N   0  0  0  0  0  0  0  0  0  0  0  0
  191.5540  177.2040  143.6740 C   0  0  0  0  0  3  0  0  0  0  0  0
  190.3000  177.1600  145.8220 C   0  0  1  0  0  0  0  0  0  0  0  0
  191.1120  174.9210  146.3730 C   0  0  0  0  0  2  0  0  0  0  0  0
  191.1890  176.7860  147.9980 C   0  0  0  0  0  2  0  0  0  0  0  0
  190.3010  177.8570  148.1160 O   0  0  0  0  0  0  0  0  0  0  0  0
  189.6340  174.7730  146.0650 C   0  0  2  0  0  3  0  0  0  0  0  0
  189.8930  178.2190  146.8280 C   0  0  0  0  0  2  0  0  0  0  0  0
  189.2250  176.1290  145.4900 C   0  0  1  0  0  3  0  0  0  0  0  0
  188.9410  174.3670  147.3670 C   0  0  0  0  0  1  0  0  0  0  0  0
  191.3890  176.4050  146.5540 C   0  0  2  0  0  3  0  0  0  0  0  0
  186.9620  176.8020  144.4820 C   0  0  0  0  0  3  0  0  0  0  0  0
  184.8670  177.5800  143.5120 O   0  0  0  0  0  1  0  0  0  0  0  0
  187.7570  176.4910  145.6070 C   0  0  0  0  0  0  0  0  0  0  0  0
  185.6350  177.2580  144.6230 C   0  0  0  0  0  0  0  0  0  0  0  0
  187.1990  176.6640  146.8800 C   0  0  0  0  0  3  0  0  0  0  0  0
  185.0860  177.4130  145.9030 C   0  0  0  0  0  3  0  0  0  0  0  0
  185.8730  177.1100  147.0200 C   0  0  0  0  0  3  0  0  0  0  0  0
  191.7620  175.1330  142.2810 C   0  0  0  0  0  2  0  0  0  0  0  0
  190.5500  172.9340  142.5920 N   0  0  0  0  0  0  0  0  0  0  0  0
  190.4690  174.2610  142.2760 C   0  0  0  0  0  0  0  0  0  0  0  0
  189.4300  172.1570  142.6310 C   0  0  0  0  0  3  0  0  0  0  0  0
  188.0930  174.0090  142.0160 C   0  0  0  0  0  3  0  0  0  0  0  0
  188.2030  172.6890  142.3370 N   0  0  0  0  0  0  0  0  0  0  0  0
  189.2450  174.8310  141.9800 C   0  0  0  0  0  3  0  0  0  0  0  0
  193.6260  176.0150  143.5220 C   0  0  0  0  0  2  0  0  0  0  0  0
  194.4380  175.1540  144.4900 C   0  0  1  0  0  3  0  0  0  0  0  0
  194.5740  177.2470  145.7520 O   0  0  0  0  0  1  0  0  0  0  0  0
  195.8580  175.6990  144.4730 C   0  0  1  0  0  3  0  0  0  0  0  0
  195.0040  175.9070  145.7080 C   0  0  2  0  0  3  0  0  0  0  0  0
  196.7620  174.6660  144.7100 O   0  0  0  0  0  0  0  0  0  0  0  0
  195.9630  173.5470  144.9060 C   0  0  0  0  0  2  0  0  0  0  0  0
  196.7380  172.4840  145.6720 C   0  0  0  0  0  2  0  0  0  0  0  0
  194.5900  171.1740  145.7570 C   0  0  0  0  0  1  0  0  0  0  0  0
  196.0920  171.1050  145.6250 C   0  0  2  0  0  3  0  0  0  0  0  0
  196.6270  170.2630  146.6010 O   0  0  0  0  0  1  0  0  0  0  0  0
  1 20  1  6  0  0  0
  1  3  1  0  0  0  0
  3  2  2  0  0  0  0
  4  2  1  6  0  0  0
  4 12  1  0  0  0  0
  4  9  1  0  0  0  0
  6  7  1  0  0  0  0
  8  5  1  0  0  0  0
  8 11  1  1  0  0  0
  9  7  1  0  0  0  0
 10 15  1  1  0  0  0
 10  4  1  0  0  0  0
 10  8  1  0  0  0  0
 12  5  1  1  0  0  0
 12  6  1  0  0  0  0
 13 16  2  0  0  0  0
 13 15  1  0  0  0  0
 14 16  1  0  0  0  0
 15 17  2  0  0  0  0
 16 18  1  0  0  0  0
 17 19  1  0  0  0  0
 18 19  2  0  0  0  0
 21 23  1  0  0  0  0
 22 20  1  0  0  0  0
 22 21  2  0  0  0  0
 24 25  1  0  0  0  0
 25 23  2  0  0  0  0
 26 24  2  0  0  0  0
 26 22  1  0  0  0  0
 27  1  1  0  0  0  0
 28 27  1  6  0  0  0
 28 31  1  0  0  0  0
 30 28  1  0  0  0  0
 30 32  1  1  0  0  0
 30 31  1  0  0  0  0
 31 29  1  6  0  0  0
 32 33  1  0  0  0  0
 33 34  1  0  0  0  0
 36 34  1  0  0  0  0
 36 35  1  1  0  0  0
 36 37  1  0  0  0  0
M  END
>  <MODEL>
8

>  <REMARK>
 VINA RESULT:      -6.6      2.627      8.253
  Name = 
  11 active torsions:
  status: ('A' for Active; 'I' for Inactive)
    1  A    between atoms: N_1  and  C_9
    2  A    between atoms: C_3  and  C_16
    3  A    between atoms: C_4  and  C_6
    4  A    between atoms: C_4  and  O_25
    5  A    between atoms: C_6  and  C_12
    6  A    between atoms: C_7  and  C_15
    7  A    between atoms: C_7  and  C_18
    8  A    between atoms: C_16  and  C_18
    9  A    between atoms: C_17  and  O_25
   10  A    between atoms: C_18  and  C_21
   11  A    between atoms: C_19  and  C_33
                            x       y       z     vdW  Elec       q    Type
                         _______ _______ _______ _____ _____    ______ ____

>  <TORSDO>
F 11

$$$$
=
 OpenBabel11062418493D

 37 41  0  0  1  0  0  0  0  0999 V2000
  188.5620  176.0700  142.4260 C   0  0  1  0  0  3  0  0  0  0  0  0
  188.1660  175.6410  144.9060 N   0  0  0  0  0  0  0  0  0  0  0  0
  187.7680  175.6710  143.6680 C   0  0  0  0  0  3  0  0  0  0  0  0
  189.5170  175.8380  145.4300 C   0  0  1  0  0  0  0  0  0  0  0  0
  190.6310  177.9160  144.7820 C   0  0  0  0  0  2  0  0  0  0  0  0
  190.3900  177.2340  147.1490 C   0  0  0  0  0  2  0  0  0  0  0  0
  190.3680  175.9380  147.6690 O   0  0  0  0  0  0  0  0  0  0  0  0
  191.4390  176.7910  144.1630 C   0  0  2  0  0  3  0  0  0  0  0  0
  189.6980  175.1200  146.7530 C   0  0  0  0  0  2  0  0  0  0  0  0
  190.5820  175.5430  144.3770 C   0  0  1  0  0  3  0  0  0  0  0  0
  192.8050  176.7850  144.8520 C   0  0  0  0  0  1  0  0  0  0  0  0
  189.7010  177.2920  145.8110 C   0  0  2  0  0  3  0  0  0  0  0  0
  192.7250  174.1330  144.2740 C   0  0  0  0  0  3  0  0  0  0  0  0
  194.7590  172.8150  144.0270 O   0  0  0  0  0  1  0  0  0  0  0  0
  191.3200  174.2180  144.3880 C   0  0  0  0  0  0  0  0  0  0  0  0
  193.3790  172.8890  144.1600 C   0  0  0  0  0  0  0  0  0  0  0  0
  190.5810  173.0280  144.3670 C   0  0  0  0  0  3  0  0  0  0  0  0
  192.6270  171.7060  144.1540 C   0  0  0  0  0  3  0  0  0  0  0  0
  191.2340  171.7870  144.2630 C   0  0  0  0  0  3  0  0  0  0  0  0
  188.2700  175.0760  141.2880 C   0  0  0  0  0  2  0  0  0  0  0  0
  188.9840  172.6650  141.0070 N   0  0  0  0  0  0  0  0  0  0  0  0
  189.3560  173.9780  141.0630 C   0  0  0  0  0  0  0  0  0  0  0  0
  189.9070  171.6880  140.7750 C   0  0  0  0  0  3  0  0  0  0  0  0
  191.6280  173.3070  140.6640 C   0  0  0  0  0  3  0  0  0  0  0  0
  191.2290  172.0050  140.6100 N   0  0  0  0  0  0  0  0  0  0  0  0
  190.6810  174.3320  140.8950 C   0  0  0  0  0  3  0  0  0  0  0  0
  187.8540  177.3480  141.9620 C   0  0  0  0  0  2  0  0  0  0  0  0
  186.5040  177.5690  142.6440 C   0  0  1  0  0  3  0  0  0  0  0  0
  185.7650  178.0080  140.3520 O   0  0  0  0  0  1  0  0  0  0  0  0
  186.1600  179.0400  142.4640 C   0  0  1  0  0  3  0  0  0  0  0  0
  185.3640  177.9990  141.7020 C   0  0  2  0  0  3  0  0  0  0  0  0
  185.4090  179.4850  143.5500 O   0  0  0  0  0  0  0  0  0  0  0  0
  184.9430  178.3210  144.1460 C   0  0  0  0  0  2  0  0  0  0  0  0
  184.0660  178.6660  145.3430 C   0  0  0  0  0  2  0  0  0  0  0  0
  185.6670  178.9650  147.2630 C   0  0  0  0  0  1  0  0  0  0  0  0
  184.5830  178.1030  146.6600 C   0  0  2  0  0  3  0  0  0  0  0  0
  185.0360  176.7920  146.5060 O   0  0  0  0  0  1  0  0  0  0  0  0
  1 20  1  6  0  0  0
  1  3  1  0  0  0  0
  3  2  2  0  0  0  0
  4  2  1  6  0  0  0
  4 12  1  0  0  0  0
  4  9  1  0  0  0  0
  6  7  1  0  0  0  0
  8 10  1  0  0  0  0
  8  5  1  0  0  0  0
  8 11  1  1  0  0  0
  9  7  1  0  0  0  0
 10 15  1  1  0  0  0
 10  4  1  0  0  0  0
 12  5  1  6  0  0  0
 12  6  1  0  0  0  0
 13 15  1  0  0  0  0
 14 16  1  0  0  0  0
 16 13  2  0  0  0  0
 17 15  2  0  0  0  0
 18 16  1  0  0  0  0
 18 19  2  0  0  0  0
 19 17  1  0  0  0  0
 21 22  1  0  0  0  0
 22 20  1  0  0  0  0
 23 21  2  0  0  0  0
 24 26  1  0  0  0  0
 25 24  2  0  0  0  0
 25 23  1  0  0  0  0
 26 22  2  0  0  0  0
 27  1  1  0  0  0  0
 28 27  1  6  0  0  0
 30 28  1  0  0  0  0
 30 32  1  1  0  0  0
 31 29  1  6  0  0  0
 31 30  1  0  0  0  0
 31 28  1  0  0  0  0
 32 33  1  0  0  0  0
 33 34  1  0  0  0  0
 34 36  1  0  0  0  0
 36 35  1  6  0  0  0
 37 36  1  0  0  0  0
M  END
>  <MODEL>
9

>  <REMARK>
 VINA RESULT:      -6.6      1.901      4.252
  Name = 
  11 active torsions:
  status: ('A' for Active; 'I' for Inactive)
    1  A    between atoms: N_1  and  C_9
    2  A    between atoms: C_3  and  C_16
    3  A    between atoms: C_4  and  C_6
    4  A    between atoms: C_4  and  O_25
    5  A    between atoms: C_6  and  C_12
    6  A    between atoms: C_7  and  C_15
    7  A    between atoms: C_7  and  C_18
    8  A    between atoms: C_16  and  C_18
    9  A    between atoms: C_17  and  O_25
   10  A    between atoms: C_18  and  C_21
   11  A    between atoms: C_19  and  C_33
                            x       y       z     vdW  Elec       q    Type
                         _______ _______ _______ _____ _____    ______ ____

>  <TORSDO>
F 11

$$$$
