=
 OpenBabel11062423103D

 28 30  0  0  1  0  0  0  0  0999 V2000
  190.1840  174.2490  142.3750 S   0  0  0  0  0  0  0  0  0  0  0  0
  188.9460  175.1220  141.3670 C   0  0  2  0  0  3  0  0  0  0  0  0
  188.1540  176.0470  142.2830 C   0  0  1  0  0  3  0  0  0  0  0  0
  188.0540  174.1610  140.7450 N   0  0  0  0  0  1  0  0  0  0  0  0
  190.1000  175.5730  143.5730 C   0  0  0  0  0  0  0  0  0  0  0  0
  189.0280  176.3550  143.4500 C   0  0  0  0  0  0  0  0  0  0  0  0
  193.5260  176.8070  144.8910 C   0  0  1  0  0  3  0  0  0  0  0  0
  194.7730  176.5060  144.2080 N   0  0  0  0  0  1  0  0  0  0  0  0
  194.3910  176.6980  147.1180 O   0  0  0  0  0  1  0  0  0  0  0  0
  192.3530  176.4660  143.9980 C   0  0  0  0  0  0  0  0  0  0  0  0
  193.4980  176.0870  146.2390 C   0  0  1  0  0  3  0  0  0  0  0  0
  192.1000  176.1430  146.8240 C   0  0  0  0  0  2  0  0  0  0  0  0
  191.2400  175.8640  144.4720 C   0  0  0  0  0  0  0  0  0  0  0  0
  192.4290  176.8320  142.6570 O   0  0  0  0  0  1  0  0  0  0  0  0
  191.1550  175.3860  145.9020 C   0  0  0  0  0  2  0  0  0  0  0  0
  187.7440  177.2920  141.5540 C   0  0  0  0  0  0  0  0  0  0  0  0
  188.5370  178.2080  141.3870 O   0  0  0  0  0  0  0  0  0  0  0  0
  186.3660  177.2480  139.6360 O   0  0  0  0  0  1  0  0  0  0  0  0
  186.3550  177.4040  141.0220 C   0  0  0  0  0  2  0  0  0  0  0  0
  188.7240  177.4180  144.3160 O   0  0  0  0  0  0  0  0  0  0  0  0
  185.3890  178.2020  145.7120 C   0  0  0  0  0  0  0  0  0  0  0  0
  186.5680  176.7700  147.2800 C   0  0  0  0  0  3  0  0  0  0  0  0
  185.4320  177.5040  146.9290 C   0  0  0  0  0  3  0  0  0  0  0  0
  187.6390  177.4370  145.2040 C   0  0  0  0  0  0  0  0  0  0  0  0
  187.6660  176.7320  146.4180 C   0  0  0  0  0  3  0  0  0  0  0  0
  186.4940  178.1590  144.8550 C   0  0  0  0  0  3  0  0  0  0  0  0
  184.2660  178.9420  145.3310 O   0  0  0  0  0  0  0  0  0  0  0  0
  183.8430  179.0520  143.9790 C   0  0  0  0  0  1  0  0  0  0  0  0
  1  5  1  0  0  0  0
  2  4  1  1  0  0  0
  2  3  1  0  0  0  0
  2  1  1  0  0  0  0
  3 16  1  6  0  0  0
  3  6  1  0  0  0  0
  5 13  1  0  0  0  0
  6  5  2  0  0  0  0
  6 20  1  0  0  0  0
  7  8  1  6  0  0  0
  7 11  1  0  0  0  0
 10 13  2  0  0  0  0
 10  7  1  0  0  0  0
 11 12  1  0  0  0  0
 11  9  1  1  0  0  0
 13 15  1  0  0  0  0
 14 10  1  0  0  0  0
 15 12  1  0  0  0  0
 17 16  2  0  0  0  0
 18 19  1  0  0  0  0
 19 16  1  0  0  0  0
 20 24  1  0  0  0  0
 21 23  1  0  0  0  0
 23 22  2  0  0  0  0
 24 25  2  0  0  0  0
 25 22  1  0  0  0  0
 26 24  1  0  0  0  0
 26 21  2  0  0  0  0
 27 21  1  0  0  0  0
 28 27  1  0  0  0  0
M  END
>  <MODEL>
1

>  <REMARK>
 VINA RESULT:      -6.9      0.000      0.000
  Name = 
  6 active torsions:
  status: ('A' for Active; 'I' for Inactive)
    1  A    between atoms: C_1  and  O_3
    2  A    between atoms: C_5  and  O_17
    3  A    between atoms: C_9  and  C_13
    4  A    between atoms: C_9  and  C_18
    5  A    between atoms: O_17  and  C_24
    6  A    between atoms: C_21  and  C_25
                            x       y       z     vdW  Elec       q    Type
                         _______ _______ _______ _____ _____    ______ ____

>  <TORSDO>
F 6

$$$$
=
 OpenBabel11062423103D

 28 30  0  0  1  0  0  0  0  0999 V2000
  189.9930  174.2150  142.2520 S   0  0  0  0  0  0  0  0  0  0  0  0
  188.8370  175.1680  141.2190 C   0  0  2  0  0  3  0  0  0  0  0  0
  188.0400  176.0940  142.1290 C   0  0  1  0  0  3  0  0  0  0  0  0
  187.9370  174.2620  140.5280 N   0  0  0  0  0  1  0  0  0  0  0  0
  189.9060  175.5040  143.4880 C   0  0  0  0  0  0  0  0  0  0  0  0
  188.8720  176.3320  143.3430 C   0  0  0  0  0  0  0  0  0  0  0  0
  192.1570  175.2640  146.6300 C   0  0  1  0  0  3  0  0  0  0  0  0
  191.6220  175.3760  147.9770 N   0  0  0  0  0  1  0  0  0  0  0  0
  194.2350  176.3670  147.0600 O   0  0  0  0  0  1  0  0  0  0  0  0
  191.0270  175.0900  145.6390 C   0  0  0  0  0  0  0  0  0  0  0  0
  193.0490  176.4700  146.3350 C   0  0  1  0  0  3  0  0  0  0  0  0
  193.3680  176.5240  144.8540 C   0  0  0  0  0  2  0  0  0  0  0  0
  191.0140  175.7220  144.4450 C   0  0  0  0  0  0  0  0  0  0  0  0
  189.9990  174.2120  145.9730 O   0  0  0  0  0  1  0  0  0  0  0  0
  192.0720  176.7370  144.0840 C   0  0  0  0  0  2  0  0  0  0  0  0
  187.7120  177.3770  141.4230 C   0  0  0  0  0  0  0  0  0  0  0  0
  188.5420  178.2700  141.3320 O   0  0  0  0  0  0  0  0  0  0  0  0
  186.4090  177.2760  139.4560 O   0  0  0  0  0  1  0  0  0  0  0  0
  186.3590  177.5540  140.8220 C   0  0  0  0  0  2  0  0  0  0  0  0
  188.5690  177.3790  144.2290 O   0  0  0  0  0  0  0  0  0  0  0  0
  185.2000  178.0810  145.5850 C   0  0  0  0  0  0  0  0  0  0  0  0
  186.4250  176.7510  147.2050 C   0  0  0  0  0  3  0  0  0  0  0  0
  185.2640  177.4280  146.8250 C   0  0  0  0  0  3  0  0  0  0  0  0
  187.4800  177.3860  145.1110 C   0  0  0  0  0  0  0  0  0  0  0  0
  187.5280  176.7260  146.3500 C   0  0  0  0  0  3  0  0  0  0  0  0
  186.3100  178.0520  144.7340 C   0  0  0  0  0  3  0  0  0  0  0  0
  184.0520  178.7640  145.1740 O   0  0  0  0  0  0  0  0  0  0  0  0
  183.7100  178.9370  143.8050 C   0  0  0  0  0  1  0  0  0  0  0  0
  1  5  1  0  0  0  0
  2  4  1  1  0  0  0
  2  3  1  0  0  0  0
  2  1  1  0  0  0  0
  3 16  1  6  0  0  0
  3  6  1  0  0  0  0
  5 13  1  0  0  0  0
  6  5  2  0  0  0  0
  6 20  1  0  0  0  0
  7  8  1  1  0  0  0
 10 14  1  0  0  0  0
 10  7  1  0  0  0  0
 11  7  1  0  0  0  0
 11  9  1  1  0  0  0
 12 11  1  0  0  0  0
 13 10  2  0  0  0  0
 15 13  1  0  0  0  0
 15 12  1  0  0  0  0
 17 16  2  0  0  0  0
 18 19  1  0  0  0  0
 19 16  1  0  0  0  0
 20 24  1  0  0  0  0
 21 23  1  0  0  0  0
 23 22  2  0  0  0  0
 24 25  2  0  0  0  0
 25 22  1  0  0  0  0
 26 24  1  0  0  0  0
 26 21  2  0  0  0  0
 27 21  1  0  0  0  0
 28 27  1  0  0  0  0
M  END
>  <MODEL>
2

>  <REMARK>
 VINA RESULT:      -6.9      1.279      1.646
  Name = 
  6 active torsions:
  status: ('A' for Active; 'I' for Inactive)
    1  A    between atoms: C_1  and  O_3
    2  A    between atoms: C_5  and  O_17
    3  A    between atoms: C_9  and  C_13
    4  A    between atoms: C_9  and  C_18
    5  A    between atoms: O_17  and  C_24
    6  A    between atoms: C_21  and  C_25
                            x       y       z     vdW  Elec       q    Type
                         _______ _______ _______ _____ _____    ______ ____

>  <TORSDO>
F 6

$$$$
=
 OpenBabel11062423103D

 28 30  0  0  1  0  0  0  0  0999 V2000
  191.2010  177.3340  143.1700 S   0  0  0  0  0  0  0  0  0  0  0  0
  191.6290  176.3170  144.6160 C   0  0  2  0  0  3  0  0  0  0  0  0
  190.4040  176.2360  145.5190 C   0  0  1  0  0  3  0  0  0  0  0  0
  192.7320  176.9270  145.3360 N   0  0  0  0  0  1  0  0  0  0  0  0
  189.4770  176.9460  143.4420 C   0  0  0  0  0  0  0  0  0  0  0  0
  189.2110  176.4600  144.6530 C   0  0  0  0  0  0  0  0  0  0  0  0
  187.3030  175.8860  140.4180 C   0  0  1  0  0  3  0  0  0  0  0  0
  187.8650  175.2180  139.2560 N   0  0  0  0  0  1  0  0  0  0  0  0
  185.6640  177.1700  139.2400 O   0  0  0  0  0  1  0  0  0  0  0  0
  188.3130  175.8980  141.5440 C   0  0  0  0  0  0  0  0  0  0  0  0
  186.8160  177.2790  140.0180 C   0  0  1  0  0  3  0  0  0  0  0  0
  186.5080  178.0930  141.2600 C   0  0  0  0  0  2  0  0  0  0  0  0
  188.5010  176.9820  142.3300 C   0  0  0  0  0  0  0  0  0  0  0  0
  189.0300  174.7300  141.7870 O   0  0  0  0  0  1  0  0  0  0  0  0
  187.7960  178.2870  142.0470 C   0  0  0  0  0  2  0  0  0  0  0  0
  190.3440  174.9070  146.2130 C   0  0  0  0  0  0  0  0  0  0  0  0
  190.0070  174.8290  147.3850 O   0  0  0  0  0  0  0  0  0  0  0  0
  189.5550  172.8800  145.2920 O   0  0  0  0  0  1  0  0  0  0  0  0
  190.6920  173.6710  145.4550 C   0  0  0  0  0  2  0  0  0  0  0  0
  187.9220  176.1420  145.1100 O   0  0  0  0  0  0  0  0  0  0  0  0
  185.1130  178.4600  145.7620 C   0  0  0  0  0  0  0  0  0  0  0  0
  186.4280  178.2460  147.7920 C   0  0  0  0  0  3  0  0  0  0  0  0
  185.3440  178.7950  147.1050 C   0  0  0  0  0  3  0  0  0  0  0  0
  187.0770  177.0280  145.7930 C   0  0  0  0  0  0  0  0  0  0  0  0
  187.2900  177.3610  147.1400 C   0  0  0  0  0  3  0  0  0  0  0  0
  185.9820  177.5730  145.1160 C   0  0  0  0  0  3  0  0  0  0  0  0
  184.0350  178.9890  145.0480 O   0  0  0  0  0  0  0  0  0  0  0  0
  183.8550  178.7710  143.6550 C   0  0  0  0  0  1  0  0  0  0  0  0
  1  5  1  0  0  0  0
  1  2  1  0  0  0  0
  2  4  1  1  0  0  0
  2  3  1  0  0  0  0
  3 16  1  6  0  0  0
  5  6  2  0  0  0  0
  6 20  1  0  0  0  0
  6  3  1  0  0  0  0
  7  8  1  6  0  0  0
  7 10  1  0  0  0  0
 10 14  1  0  0  0  0
 10 13  2  0  0  0  0
 11  9  1  6  0  0  0
 11  7  1  0  0  0  0
 11 12  1  0  0  0  0
 12 15  1  0  0  0  0
 13  5  1  0  0  0  0
 15 13  1  0  0  0  0
 16 17  2  0  0  0  0
 18 19  1  0  0  0  0
 19 16  1  0  0  0  0
 20 24  1  0  0  0  0
 21 23  1  0  0  0  0
 23 22  2  0  0  0  0
 24 25  2  0  0  0  0
 25 22  1  0  0  0  0
 26 21  2  0  0  0  0
 26 24  1  0  0  0  0
 27 21  1  0  0  0  0
 28 27  1  0  0  0  0
M  END
>  <MODEL>
3

>  <REMARK>
 VINA RESULT:      -6.6      1.931      5.404
  Name = 
  6 active torsions:
  status: ('A' for Active; 'I' for Inactive)
    1  A    between atoms: C_1  and  O_3
    2  A    between atoms: C_5  and  O_17
    3  A    between atoms: C_9  and  C_13
    4  A    between atoms: C_9  and  C_18
    5  A    between atoms: O_17  and  C_24
    6  A    between atoms: C_21  and  C_25
                            x       y       z     vdW  Elec       q    Type
                         _______ _______ _______ _____ _____    ______ ____

>  <TORSDO>
F 6

$$$$
=
 OpenBabel11062423103D

 28 30  0  0  1  0  0  0  0  0999 V2000
  186.6860  177.9370  142.0290 S   0  0  0  0  0  0  0  0  0  0  0  0
  185.4100  178.3400  143.2610 C   0  0  2  0  0  3  0  0  0  0  0  0
  185.4760  177.2970  144.3700 C   0  0  1  0  0  3  0  0  0  0  0  0
  184.1000  178.3130  142.6360 N   0  0  0  0  0  1  0  0  0  0  0  0
  187.5850  177.0470  143.2920 C   0  0  0  0  0  0  0  0  0  0  0  0
  186.8620  176.7500  144.3710 C   0  0  0  0  0  0  0  0  0  0  0  0
  191.0570  175.4630  142.6340 C   0  0  1  0  0  3  0  0  0  0  0  0
  191.4080  174.1380  143.1160 N   0  0  0  0  0  1  0  0  0  0  0  0
  193.2200  176.4470  142.9150 O   0  0  0  0  0  1  0  0  0  0  0  0
  189.5670  175.6840  142.7710 C   0  0  0  0  0  0  0  0  0  0  0  0
  191.9000  176.5090  143.3630 C   0  0  1  0  0  3  0  0  0  0  0  0
  191.3440  177.8950  143.0980 C   0  0  0  0  0  2  0  0  0  0  0  0
  189.0500  176.8580  143.1980 C   0  0  0  0  0  0  0  0  0  0  0  0
  188.7190  174.6450  142.3990 O   0  0  0  0  0  1  0  0  0  0  0  0
  189.9410  177.9770  143.6800 C   0  0  0  0  0  2  0  0  0  0  0  0
  185.1210  177.9090  145.6940 C   0  0  0  0  0  0  0  0  0  0  0  0
  184.4790  177.2780  146.5210 O   0  0  0  0  0  0  0  0  0  0  0  0
  185.7850  179.4350  147.3700 O   0  0  0  0  0  1  0  0  0  0  0  0
  185.5660  179.2990  145.9990 C   0  0  0  0  0  2  0  0  0  0  0  0
  187.3410  176.0050  145.4610 O   0  0  0  0  0  0  0  0  0  0  0  0
  190.7090  175.6940  146.9590 C   0  0  0  0  0  0  0  0  0  0  0  0
  189.7600  177.8290  147.6220 C   0  0  0  0  0  3  0  0  0  0  0  0
  190.8100  176.9080  147.6560 C   0  0  0  0  0  3  0  0  0  0  0  0
  188.4870  176.3240  146.2020 C   0  0  0  0  0  0  0  0  0  0  0  0
  188.6050  177.5410  146.8940 C   0  0  0  0  0  3  0  0  0  0  0  0
  189.5460  175.4130  146.2320 C   0  0  0  0  0  3  0  0  0  0  0  0
  191.7420  174.7530  146.9700 O   0  0  0  0  0  0  0  0  0  0  0  0
  193.0550  175.0490  146.5130 C   0  0  0  0  0  1  0  0  0  0  0  0
  1  2  1  0  0  0  0
  1  5  1  0  0  0  0
  2  4  1  6  0  0  0
  2  3  1  0  0  0  0
  3  6  1  0  0  0  0
  3 16  1  1  0  0  0
  5  6  2  0  0  0  0
  6 20  1  0  0  0  0
  7 10  1  0  0  0  0
  7  8  1  1  0  0  0
  7 11  1  0  0  0  0
 10 13  2  0  0  0  0
 11  9  1  6  0  0  0
 12 11  1  0  0  0  0
 12 15  1  0  0  0  0
 13  5  1  0  0  0  0
 13 15  1  0  0  0  0
 14 10  1  0  0  0  0
 16 19  1  0  0  0  0
 16 17  2  0  0  0  0
 19 18  1  0  0  0  0
 20 24  1  0  0  0  0
 21 27  1  0  0  0  0
 21 23  1  0  0  0  0
 22 23  2  0  0  0  0
 24 26  1  0  0  0  0
 24 25  2  0  0  0  0
 25 22  1  0  0  0  0
 26 21  2  0  0  0  0
 28 27  1  0  0  0  0
M  END
>  <MODEL>
4

>  <REMARK>
 VINA RESULT:      -6.6      2.387      4.984
  Name = 
  6 active torsions:
  status: ('A' for Active; 'I' for Inactive)
    1  A    between atoms: C_1  and  O_3
    2  A    between atoms: C_5  and  O_17
    3  A    between atoms: C_9  and  C_13
    4  A    between atoms: C_9  and  C_18
    5  A    between atoms: O_17  and  C_24
    6  A    between atoms: C_21  and  C_25
                            x       y       z     vdW  Elec       q    Type
                         _______ _______ _______ _____ _____    ______ ____

>  <TORSDO>
F 6

$$$$
=
 OpenBabel11062423103D

 28 30  0  0  1  0  0  0  0  0999 V2000
  190.8830  172.7970  144.2550 S   0  0  0  0  0  0  0  0  0  0  0  0
  189.6440  172.9110  142.9280 C   0  0  2  0  0  3  0  0  0  0  0  0
  188.7780  174.1370  143.1910 C   0  0  1  0  0  3  0  0  0  0  0  0
  188.8190  171.7160  142.9230 N   0  0  0  0  0  1  0  0  0  0  0  0
  190.6960  174.5510  144.5420 C   0  0  0  0  0  0  0  0  0  0  0  0
  189.5950  175.0780  144.0080 C   0  0  0  0  0  0  0  0  0  0  0  0
  193.8640  176.7410  144.9430 C   0  0  1  0  0  3  0  0  0  0  0  0
  195.1230  176.4100  144.2950 N   0  0  0  0  0  1  0  0  0  0  0  0
  194.8080  177.6410  146.9490 O   0  0  0  0  0  1  0  0  0  0  0  0
  192.7500  175.8960  144.3680 C   0  0  0  0  0  0  0  0  0  0  0  0
  194.0200  176.6010  146.4580 C   0  0  1  0  0  3  0  0  0  0  0  0
  192.6570  176.6470  147.1210 C   0  0  0  0  0  2  0  0  0  0  0  0
  191.7880  175.3480  145.1440 C   0  0  0  0  0  0  0  0  0  0  0  0
  192.7090  175.7250  142.9870 O   0  0  0  0  0  1  0  0  0  0  0  0
  191.8440  175.4500  146.6500 C   0  0  0  0  0  2  0  0  0  0  0  0
  188.3380  174.7620  141.9000 C   0  0  0  0  0  0  0  0  0  0  0  0
  187.3490  175.4790  141.8580 O   0  0  0  0  0  0  0  0  0  0  0  0
  188.3120  173.9100  139.6960 O   0  0  0  0  0  1  0  0  0  0  0  0
  189.1260  174.5070  140.6590 C   0  0  0  0  0  2  0  0  0  0  0  0
  189.2110  176.4210  144.1560 O   0  0  0  0  0  0  0  0  0  0  0  0
  186.3610  178.4100  145.4230 C   0  0  0  0  0  0  0  0  0  0  0  0
  186.9360  176.7340  147.0840 C   0  0  0  0  0  3  0  0  0  0  0  0
  186.1400  177.8050  146.6700 C   0  0  0  0  0  3  0  0  0  0  0  0
  188.1950  176.8700  145.0110 C   0  0  0  0  0  0  0  0  0  0  0  0
  187.9570  176.2640  146.2560 C   0  0  0  0  0  3  0  0  0  0  0  0
  187.3870  177.9340  144.6000 C   0  0  0  0  0  3  0  0  0  0  0  0
  185.5810  179.4810  144.9790 O   0  0  0  0  0  0  0  0  0  0  0  0
  184.4250  179.3050  144.1710 C   0  0  0  0  0  1  0  0  0  0  0  0
  1  5  1  0  0  0  0
  2  4  1  1  0  0  0
  2  3  1  0  0  0  0
  2  1  1  0  0  0  0
  3 16  1  6  0  0  0
  3  6  1  0  0  0  0
  5 13  1  0  0  0  0
  6 20  1  0  0  0  0
  6  5  2  0  0  0  0
  7  8  1  6  0  0  0
  7 11  1  0  0  0  0
 10  7  1  0  0  0  0
 10 13  2  0  0  0  0
 11  9  1  1  0  0  0
 11 12  1  0  0  0  0
 13 15  1  0  0  0  0
 14 10  1  0  0  0  0
 15 12  1  0  0  0  0
 17 16  2  0  0  0  0
 18 19  1  0  0  0  0
 19 16  1  0  0  0  0
 20 24  1  0  0  0  0
 21 23  1  0  0  0  0
 23 22  2  0  0  0  0
 24 25  2  0  0  0  0
 25 22  1  0  0  0  0
 26 24  1  0  0  0  0
 26 21  2  0  0  0  0
 27 21  1  0  0  0  0
 28 27  1  0  0  0  0
M  END
>  <MODEL>
5

>  <REMARK>
 VINA RESULT:      -6.5      1.619      1.853
  Name = 
  6 active torsions:
  status: ('A' for Active; 'I' for Inactive)
    1  A    between atoms: C_1  and  O_3
    2  A    between atoms: C_5  and  O_17
    3  A    between atoms: C_9  and  C_13
    4  A    between atoms: C_9  and  C_18
    5  A    between atoms: O_17  and  C_24
    6  A    between atoms: C_21  and  C_25
                            x       y       z     vdW  Elec       q    Type
                         _______ _______ _______ _____ _____    ______ ____

>  <TORSDO>
F 6

$$$$
=
 OpenBabel11062423103D

 28 30  0  0  1  0  0  0  0  0999 V2000
  191.7980  172.1130  143.9410 S   0  0  0  0  0  0  0  0  0  0  0  0
  190.9350  171.9850  142.3450 C   0  0  2  0  0  3  0  0  0  0  0  0
  189.9340  173.1300  142.2530 C   0  0  1  0  0  3  0  0  0  0  0  0
  190.2390  170.7130  142.2650 N   0  0  0  0  0  1  0  0  0  0  0  0
  191.4020  173.8560  143.9830 C   0  0  0  0  0  0  0  0  0  0  0  0
  190.4350  174.2180  143.1400 C   0  0  0  0  0  0  0  0  0  0  0  0
  194.0790  176.5060  144.8790 C   0  0  1  0  0  3  0  0  0  0  0  0
  195.4690  176.3720  144.4740 N   0  0  0  0  0  1  0  0  0  0  0  0
  194.5010  177.5400  146.9950 O   0  0  0  0  0  1  0  0  0  0  0  0
  193.2270  175.4990  144.1390 C   0  0  0  0  0  0  0  0  0  0  0  0
  193.9790  176.3910  146.4010 C   0  0  1  0  0  3  0  0  0  0  0  0
  192.5290  176.2280  146.8100 C   0  0  0  0  0  2  0  0  0  0  0  0
  192.2350  174.8110  144.7470 C   0  0  0  0  0  0  0  0  0  0  0  0
  193.4610  175.3250  142.7780 O   0  0  0  0  0  1  0  0  0  0  0  0
  192.0040  174.9210  146.2350 C   0  0  0  0  0  2  0  0  0  0  0  0
  189.7900  173.5950  140.8330 C   0  0  0  0  0  0  0  0  0  0  0  0
  190.7760  173.8190  140.1460 O   0  0  0  0  0  0  0  0  0  0  0  0
  188.0420  172.6220  139.5780 O   0  0  0  0  0  1  0  0  0  0  0  0
  188.4260  173.7770  140.2590 C   0  0  0  0  0  2  0  0  0  0  0  0
  189.9190  175.5200  143.0440 O   0  0  0  0  0  0  0  0  0  0  0  0
  186.4600  176.7240  143.5670 C   0  0  0  0  0  0  0  0  0  0  0  0
  187.5570  176.5560  145.7270 C   0  0  0  0  0  3  0  0  0  0  0  0
  186.4300  176.8660  144.9630 C   0  0  0  0  0  3  0  0  0  0  0  0
  188.7670  175.9710  143.7030 C   0  0  0  0  0  0  0  0  0  0  0  0
  188.7210  176.1050  145.1000 C   0  0  0  0  0  3  0  0  0  0  0  0
  187.6310  176.2730  142.9470 C   0  0  0  0  0  3  0  0  0  0  0  0
  185.3480  177.0230  142.7750 O   0  0  0  0  0  0  0  0  0  0  0  0
  184.4570  178.0890  143.0730 C   0  0  0  0  0  1  0  0  0  0  0  0
  1  5  1  0  0  0  0
  2  4  1  1  0  0  0
  2  1  1  0  0  0  0
  3 16  1  6  0  0  0
  3  2  1  0  0  0  0
  3  6  1  0  0  0  0
  5 13  1  0  0  0  0
  6  5  2  0  0  0  0
  7  8  1  1  0  0  0
  7 11  1  0  0  0  0
 10 13  2  0  0  0  0
 10  7  1  0  0  0  0
 11 12  1  0  0  0  0
 11  9  1  1  0  0  0
 13 15  1  0  0  0  0
 14 10  1  0  0  0  0
 15 12  1  0  0  0  0
 17 16  2  0  0  0  0
 18 19  1  0  0  0  0
 19 16  1  0  0  0  0
 20  6  1  0  0  0  0
 20 24  1  0  0  0  0
 21 23  1  0  0  0  0
 23 22  2  0  0  0  0
 24 25  2  0  0  0  0
 25 22  1  0  0  0  0
 26 21  2  0  0  0  0
 26 24  1  0  0  0  0
 27 28  1  0  0  0  0
 27 21  1  0  0  0  0
M  END
>  <MODEL>
6

>  <REMARK>
 VINA RESULT:      -6.3      2.272      2.788
  Name = 
  6 active torsions:
  status: ('A' for Active; 'I' for Inactive)
    1  A    between atoms: C_1  and  O_3
    2  A    between atoms: C_5  and  O_17
    3  A    between atoms: C_9  and  C_13
    4  A    between atoms: C_9  and  C_18
    5  A    between atoms: O_17  and  C_24
    6  A    between atoms: C_21  and  C_25
                            x       y       z     vdW  Elec       q    Type
                         _______ _______ _______ _____ _____    ______ ____

>  <TORSDO>
F 6

$$$$
=
 OpenBabel11062423103D

 28 30  0  0  1  0  0  0  0  0999 V2000
  192.5830  176.1170  142.9920 S   0  0  0  0  0  0  0  0  0  0  0  0
  192.9970  176.0570  144.7630 C   0  0  2  0  0  3  0  0  0  0  0  0
  191.6960  176.0980  145.5550 C   0  0  1  0  0  3  0  0  0  0  0  0
  193.8230  177.1990  145.1120 N   0  0  0  0  0  1  0  0  0  0  0  0
  190.9620  175.4700  143.3770 C   0  0  0  0  0  0  0  0  0  0  0  0
  190.6270  175.5660  144.6630 C   0  0  0  0  0  0  0  0  0  0  0  0
  189.6800  172.6220  141.0890 C   0  0  1  0  0  3  0  0  0  0  0  0
  190.5770  171.8170  140.2770 N   0  0  0  0  0  1  0  0  0  0  0  0
  187.8580  172.6630  139.5390 O   0  0  0  0  0  1  0  0  0  0  0  0
  190.4760  173.4310  142.0890 C   0  0  0  0  0  0  0  0  0  0  0  0
  188.7960  173.4740  140.1780 C   0  0  1  0  0  3  0  0  0  0  0  0
  188.0750  174.5260  140.9970 C   0  0  0  0  0  2  0  0  0  0  0  0
  190.1790  174.7190  142.3700 C   0  0  0  0  0  0  0  0  0  0  0  0
  191.5160  172.7940  142.7600 O   0  0  0  0  0  1  0  0  0  0  0  0
  189.1090  175.4620  141.6070 C   0  0  0  0  0  2  0  0  0  0  0  0
  191.8170  175.2930  146.8150 C   0  0  0  0  0  0  0  0  0  0  0  0
  192.4270  174.2330  146.8240 O   0  0  0  0  0  0  0  0  0  0  0  0
  190.9100  177.1610  147.9410 O   0  0  0  0  0  1  0  0  0  0  0  0
  191.1920  175.8010  148.0700 C   0  0  0  0  0  2  0  0  0  0  0  0
  189.3820  175.1790  145.1850 O   0  0  0  0  0  0  0  0  0  0  0  0
  186.8700  177.8860  144.9570 C   0  0  0  0  0  0  0  0  0  0  0  0
  186.7900  176.9400  147.1920 C   0  0  0  0  0  3  0  0  0  0  0  0
  186.3250  177.8600  146.2500 C   0  0  0  0  0  3  0  0  0  0  0  0
  188.3650  176.0670  145.5620 C   0  0  0  0  0  0  0  0  0  0  0  0
  187.8030  176.0430  146.8490 C   0  0  0  0  0  3  0  0  0  0  0  0
  187.8850  176.9830  144.6210 C   0  0  0  0  0  3  0  0  0  0  0  0
  186.4240  178.7910  143.9900 O   0  0  0  0  0  0  0  0  0  0  0  0
  185.4510  179.7900  144.2640 C   0  0  0  0  0  1  0  0  0  0  0  0
  1  5  1  0  0  0  0
  1  2  1  0  0  0  0
  2  4  1  1  0  0  0
  2  3  1  0  0  0  0
  3 16  1  1  0  0  0
  5  6  2  0  0  0  0
  6 20  1  0  0  0  0
  6  3  1  0  0  0  0
  7  8  1  6  0  0  0
  7 10  1  0  0  0  0
 10 13  2  0  0  0  0
 10 14  1  0  0  0  0
 11  9  1  1  0  0  0
 11 12  1  0  0  0  0
 11  7  1  0  0  0  0
 12 15  1  0  0  0  0
 13  5  1  0  0  0  0
 15 13  1  0  0  0  0
 16 17  2  0  0  0  0
 16 19  1  0  0  0  0
 18 19  1  0  0  0  0
 20 24  1  0  0  0  0
 21 23  1  0  0  0  0
 23 22  2  0  0  0  0
 24 25  2  0  0  0  0
 25 22  1  0  0  0  0
 26 21  2  0  0  0  0
 26 24  1  0  0  0  0
 27 28  1  0  0  0  0
 27 21  1  0  0  0  0
M  END
>  <MODEL>
7

>  <REMARK>
 VINA RESULT:      -6.2      2.192      5.442
  Name = 
  6 active torsions:
  status: ('A' for Active; 'I' for Inactive)
    1  A    between atoms: C_1  and  O_3
    2  A    between atoms: C_5  and  O_17
    3  A    between atoms: C_9  and  C_13
    4  A    between atoms: C_9  and  C_18
    5  A    between atoms: O_17  and  C_24
    6  A    between atoms: C_21  and  C_25
                            x       y       z     vdW  Elec       q    Type
                         _______ _______ _______ _____ _____    ______ ____

>  <TORSDO>
F 6

$$$$
=
 OpenBabel11062423103D

 28 30  0  0  1  0  0  0  0  0999 V2000
  187.0410  177.1060  140.3270 S   0  0  0  0  0  0  0  0  0  0  0  0
  185.8140  178.2350  141.0540 C   0  0  2  0  0  3  0  0  0  0  0  0
  185.1830  177.5400  142.2550 C   0  0  1  0  0  3  0  0  0  0  0  0
  184.7920  178.5480  140.0720 N   0  0  0  0  0  1  0  0  0  0  0  0
  187.1720  176.2760  141.9040 C   0  0  0  0  0  0  0  0  0  0  0  0
  186.1700  176.5350  142.7430 C   0  0  0  0  0  0  0  0  0  0  0  0
  189.6600  173.4030  142.6480 C   0  0  1  0  0  3  0  0  0  0  0  0
  189.3110  172.2750  143.4950 N   0  0  0  0  0  1  0  0  0  0  0  0
  191.9530  173.5550  143.3140 O   0  0  0  0  0  1  0  0  0  0  0  0
  188.4160  174.1900  142.2970 C   0  0  0  0  0  0  0  0  0  0  0  0
  190.7390  174.2410  143.3360 C   0  0  1  0  0  3  0  0  0  0  0  0
  190.8970  175.5670  142.6190 C   0  0  0  0  0  2  0  0  0  0  0  0
  188.4000  175.5410  142.2820 C   0  0  0  0  0  0  0  0  0  0  0  0
  187.2760  173.4760  141.9380 O   0  0  0  0  0  1  0  0  0  0  0  0
  189.5940  176.3440  142.7380 C   0  0  0  0  0  2  0  0  0  0  0  0
  184.8330  178.5360  143.3210 C   0  0  0  0  0  0  0  0  0  0  0  0
  183.7610  178.4750  143.9060 O   0  0  0  0  0  0  0  0  0  0  0  0
  185.5540  180.0800  144.9560 O   0  0  0  0  0  1  0  0  0  0  0  0
  185.8110  179.6060  143.6700 C   0  0  0  0  0  2  0  0  0  0  0  0
  186.0310  175.9500  144.0120 O   0  0  0  0  0  0  0  0  0  0  0  0
  188.1680  177.4450  146.6350 C   0  0  0  0  0  0  0  0  0  0  0  0
  185.8570  177.5360  147.3740 C   0  0  0  0  0  3  0  0  0  0  0  0
  187.2100  177.7940  147.6000 C   0  0  0  0  0  3  0  0  0  0  0  0
  186.4030  176.5610  145.2170 C   0  0  0  0  0  0  0  0  0  0  0  0
  185.4530  176.9270  146.1850 C   0  0  0  0  0  3  0  0  0  0  0  0
  187.7550  176.8340  145.4470 C   0  0  0  0  0  3  0  0  0  0  0  0
  189.5300  177.6930  146.8300 O   0  0  0  0  0  0  0  0  0  0  0  0
  190.5470  176.9790  146.1400 C   0  0  0  0  0  1  0  0  0  0  0  0
  1  2  1  0  0  0  0
  1  5  1  0  0  0  0
  2  4  1  6  0  0  0
  2  3  1  0  0  0  0
  3  6  1  0  0  0  0
  3 16  1  1  0  0  0
  5 13  1  0  0  0  0
  5  6  2  0  0  0  0
  6 20  1  0  0  0  0
  7 11  1  0  0  0  0
  7  8  1  1  0  0  0
 10  7  1  0  0  0  0
 11  9  1  6  0  0  0
 12 15  1  0  0  0  0
 12 11  1  0  0  0  0
 13 10  2  0  0  0  0
 13 15  1  0  0  0  0
 14 10  1  0  0  0  0
 16 19  1  0  0  0  0
 16 17  2  0  0  0  0
 19 18  1  0  0  0  0
 20 24  1  0  0  0  0
 21 27  1  0  0  0  0
 21 23  1  0  0  0  0
 22 23  2  0  0  0  0
 24 26  1  0  0  0  0
 24 25  2  0  0  0  0
 25 22  1  0  0  0  0
 26 21  2  0  0  0  0
 28 27  1  0  0  0  0
M  END
>  <MODEL>
8

>  <REMARK>
 VINA RESULT:      -6.2      2.790      4.442
  Name = 
  6 active torsions:
  status: ('A' for Active; 'I' for Inactive)
    1  A    between atoms: C_1  and  O_3
    2  A    between atoms: C_5  and  O_17
    3  A    between atoms: C_9  and  C_13
    4  A    between atoms: C_9  and  C_18
    5  A    between atoms: O_17  and  C_24
    6  A    between atoms: C_21  and  C_25
                            x       y       z     vdW  Elec       q    Type
                         _______ _______ _______ _____ _____    ______ ____

>  <TORSDO>
F 6

$$$$
=
 OpenBabel11062423103D

 28 30  0  0  1  0  0  0  0  0999 V2000
  193.2120  175.9300  141.9290 S   0  0  0  0  0  0  0  0  0  0  0  0
  194.3960  175.5390  143.2540 C   0  0  2  0  0  3  0  0  0  0  0  0
  194.0360  176.3760  144.4750 C   0  0  1  0  0  3  0  0  0  0  0  0
  195.7440  175.8570  142.8180 N   0  0  0  0  0  1  0  0  0  0  0  0
  192.0450  176.4710  143.1700 C   0  0  0  0  0  0  0  0  0  0  0  0
  192.5860  176.7030  144.3650 C   0  0  0  0  0  0  0  0  0  0  0  0
  188.4120  175.2260  142.6740 C   0  0  1  0  0  3  0  0  0  0  0  0
  188.0880  174.1050  141.8080 N   0  0  0  0  0  1  0  0  0  0  0  0
  186.4470  176.5120  142.2170 O   0  0  0  0  0  1  0  0  0  0  0  0
  189.9060  175.2840  142.9060 C   0  0  0  0  0  0  0  0  0  0  0  0
  187.8350  176.5120  142.0800 C   0  0  1  0  0  3  0  0  0  0  0  0
  188.4110  177.7150  142.8000 C   0  0  0  0  0  2  0  0  0  0  0  0
  190.5880  176.4510  142.9090 C   0  0  0  0  0  0  0  0  0  0  0  0
  190.5700  174.0880  143.1650 O   0  0  0  0  0  1  0  0  0  0  0  0
  189.9130  177.7550  142.5580 C   0  0  0  0  0  2  0  0  0  0  0  0
  194.3420  175.6290  145.7400 C   0  0  0  0  0  0  0  0  0  0  0  0
  194.3550  176.2050  146.8180 O   0  0  0  0  0  0  0  0  0  0  0  0
  193.4290  173.4500  145.7350 O   0  0  0  0  0  1  0  0  0  0  0  0
  194.6240  174.1660  145.6730 C   0  0  0  0  0  2  0  0  0  0  0  0
  191.8730  177.1910  145.4720 O   0  0  0  0  0  0  0  0  0  0  0  0
  188.4110  176.7210  146.6870 C   0  0  0  0  0  0  0  0  0  0  0  0
  189.6340  174.6490  147.0120 C   0  0  0  0  0  3  0  0  0  0  0  0
  188.4550  175.3890  147.1260 C   0  0  0  0  0  3  0  0  0  0  0  0
  190.7460  176.5730  146.0310 C   0  0  0  0  0  0  0  0  0  0  0  0
  190.7750  175.2360  146.4620 C   0  0  0  0  0  3  0  0  0  0  0  0
  189.5590  177.3030  146.1380 C   0  0  0  0  0  3  0  0  0  0  0  0
  187.2460  177.4870  146.7850 O   0  0  0  0  0  0  0  0  0  0  0  0
  186.0110  177.0840  146.2080 C   0  0  0  0  0  1  0  0  0  0  0  0
  1  5  1  0  0  0  0
  1  2  1  0  0  0  0
  2  4  1  6  0  0  0
  2  3  1  0  0  0  0
  3 16  1  1  0  0  0
  5  6  2  0  0  0  0
  6  3  1  0  0  0  0
  6 20  1  0  0  0  0
  7  8  1  6  0  0  0
  7 10  1  0  0  0  0
 10 13  2  0  0  0  0
 10 14  1  0  0  0  0
 11  9  1  1  0  0  0
 11  7  1  0  0  0  0
 11 12  1  0  0  0  0
 13  5  1  0  0  0  0
 15 12  1  0  0  0  0
 15 13  1  0  0  0  0
 16 17  2  0  0  0  0
 19 18  1  0  0  0  0
 19 16  1  0  0  0  0
 20 24  1  0  0  0  0
 21 27  1  0  0  0  0
 21 23  1  0  0  0  0
 22 23  2  0  0  0  0
 24 26  1  0  0  0  0
 24 25  2  0  0  0  0
 25 22  1  0  0  0  0
 26 21  2  0  0  0  0
 28 27  1  0  0  0  0
M  END
>  <MODEL>
9

>  <REMARK>
 VINA RESULT:      -6.1      1.935      5.719
  Name = 
  6 active torsions:
  status: ('A' for Active; 'I' for Inactive)
    1  A    between atoms: C_1  and  O_3
    2  A    between atoms: C_5  and  O_17
    3  A    between atoms: C_9  and  C_13
    4  A    between atoms: C_9  and  C_18
    5  A    between atoms: O_17  and  C_24
    6  A    between atoms: C_21  and  C_25
                            x       y       z     vdW  Elec       q    Type
                         _______ _______ _______ _____ _____    ______ ____

>  <TORSDO>
F 6

$$$$
