=
 OpenBabel11062420013D

 42 48  0  0  1  0  0  0  0  0999 V2000
  185.2000  178.0280  144.2220 C   0  0  0  0  0  0  0  0  0  0  0  0
  186.3300  177.3050  144.5440 C   0  0  0  0  0  0  0  0  0  0  0  0
  183.1840  178.9260  142.9890 C   0  0  0  0  0  2  0  0  0  0  0  0
  182.3140  178.5100  141.8390 C   0  0  0  0  0  0  0  0  0  0  0  0
  186.4870  177.3810  145.8810 N   0  0  0  0  0  0  0  0  0  0  0  0
  189.1800  175.1120  142.2300 C   0  0  0  0  0  3  0  0  0  0  0  0
  185.0620  177.9600  141.7160 C   0  0  0  0  0  0  0  0  0  0  0  0
  188.2360  175.8950  141.5690 C   0  0  0  0  0  3  0  0  0  0  0  0
  187.2550  176.6040  142.2740 C   0  0  0  0  0  0  0  0  0  0  0  0
  184.2960  178.3680  140.4840 C   0  0  0  0  0  2  0  0  0  0  0  0
  187.2420  176.5410  143.6830 C   0  0  0  0  0  0  0  0  0  0  0  0
  180.9000  178.4140  142.0220 N   0  0  0  0  0  2  0  0  0  0  0  0
  189.1620  175.0180  143.6220 C   0  0  0  0  0  0  0  0  0  0  0  0
  185.4970  178.1180  146.3520 N   0  0  0  0  0  0  0  0  0  0  0  0
  186.3400  177.3610  141.4770 N   0  0  0  0  0  0  0  0  0  0  0  0
  184.7010  178.5200  145.3760 N   0  0  0  0  0  0  0  0  0  0  0  0
  188.2030  175.7490  144.3320 C   0  0  0  0  0  3  0  0  0  0  0  0
  184.5340  178.2420  142.9270 C   0  0  0  0  0  0  0  0  0  0  0  0
  182.8550  178.2320  140.6920 N   0  0  0  0  0  0  0  0  0  0  0  0
  191.0300  176.0780  147.5570 C   0  0  0  0  0  2  0  0  0  0  0  0
  192.2270  174.2150  145.7540 C   0  0  1  0  0  3  0  0  0  0  0  0
  190.1250  175.5180  146.4670 C   0  0  0  0  0  2  0  0  0  0  0  0
  193.0780  175.1470  146.5280 C   0  0  2  0  0  3  0  0  0  0  0  0
  190.4690  173.0640  143.8790 O   0  0  0  0  0  0  0  0  0  0  0  0
  190.8610  174.6960  145.4970 N   0  0  0  0  0  0  0  0  0  0  0  0
  192.3740  176.4320  146.9510 C   0  0  0  0  0  2  0  0  0  0  0  0
  190.1790  174.2070  144.3280 C   0  0  0  0  0  0  0  0  0  0  0  0
  193.1850  175.0920  145.0590 N   0  0  0  0  0  0  0  0  0  0  0  0
  194.6890  174.4200  143.3960 O   0  0  0  0  0  1  0  0  0  0  0  0
  194.3560  174.2830  144.7460 C   0  0  1  0  0  3  0  0  0  0  0  0
  195.5430  174.6560  145.6420 C   0  0  0  0  0  2  0  0  0  0  0  0
  195.9460  172.3030  145.8240 F   0  0  0  0  0  0  0  0  0  0  0  0
  197.1640  173.7080  147.0850 F   0  0  0  0  0  0  0  0  0  0  0  0
  196.5680  173.5370  145.8500 C   0  0  0  0  0  0  0  0  0  0  0  0
  197.5470  173.5830  144.8740 F   0  0  0  0  0  0  0  0  0  0  0  0
  177.6920  178.7460  139.0040 O   0  0  0  0  0  1  0  0  0  0  0  0
  179.6530  179.2430  140.2640 C   0  0  0  0  0  2  0  0  0  0  0  0
  178.8350  177.4920  141.6050 C   0  0  0  0  0  2  0  0  0  0  0  0
  178.1470  179.2920  140.2050 C   0  0  0  0  0  0  0  0  0  0  0  0
  177.6910  178.4520  141.3620 C   0  0  0  0  0  2  0  0  0  0  0  0
  180.0420  178.0290  140.9800 N   0  0  0  0  0  0  0  0  0  0  0  0
  177.6910  180.6030  140.3390 O   0  0  0  0  0  1  0  0  0  0  0  0
  1  2  1  0  0  0  0
  1 16  1  0  0  0  0
  2  5  2  0  0  0  0
  4 12  1  0  0  0  0
  4  3  1  0  0  0  0
  5 14  1  0  0  0  0
  6 13  1  0  0  0  0
  7 18  1  0  0  0  0
  8  6  2  0  0  0  0
  8  9  1  0  0  0  0
  9 11  2  0  0  0  0
 10 19  1  0  0  0  0
 10  7  1  0  0  0  0
 11 17  1  0  0  0  0
 11  2  1  0  0  0  0
 13 27  1  0  0  0  0
 13 17  2  0  0  0  0
 15  7  2  0  0  0  0
 15  9  1  0  0  0  0
 16 14  2  0  0  0  0
 18  3  1  0  0  0  0
 18  1  2  0  0  0  0
 19  4  2  0  0  0  0
 21 28  1  6  0  0  0
 21 23  1  0  0  0  0
 22 20  1  0  0  0  0
 23 26  1  6  0  0  0
 24 27  2  0  0  0  0
 25 21  1  0  0  0  0
 25 22  1  0  0  0  0
 26 20  1  0  0  0  0
 27 25  1  0  0  0  0
 28 23  1  0  0  0  0
 30 29  1  6  0  0  0
 30 28  1  0  0  0  0
 30 31  1  0  0  0  0
 31 34  1  0  0  0  0
 32 34  1  0  0  0  0
 34 33  1  0  0  0  0
 35 34  1  0  0  0  0
 36 39  1  0  0  0  0
 37 41  1  0  0  0  0
 39 37  1  0  0  0  0
 39 42  1  0  0  0  0
 39 40  1  0  0  0  0
 40 38  1  0  0  0  0
 41 38  1  0  0  0  0
 41 12  1  0  0  0  0
M  END
>  <MODEL>
1

>  <REMARK>
 VINA RESULT:      -9.9      0.000      0.000
  Name = 
  5 active torsions:
  status: ('A' for Active; 'I' for Inactive)
    1  A    between atoms: C_21  and  C_30
    2  A    between atoms: N_27  and  N_28
    3  A    between atoms: C_29  and  C_36
    4  A    between atoms: C_30  and  C_31
    5  A    between atoms: C_31  and  N_38
                            x       y       z     vdW  Elec       q    Type
                         _______ _______ _______ _____ _____    ______ ____

>  <TORSDO>
F 5

$$$$
=
 OpenBabel11062420013D

 42 48  0  0  1  0  0  0  0  0999 V2000
  185.1480  178.2170  144.3410 C   0  0  0  0  0  0  0  0  0  0  0  0
  186.2700  177.5170  144.7360 C   0  0  0  0  0  0  0  0  0  0  0  0
  183.1580  179.0260  143.0070 C   0  0  0  0  0  2  0  0  0  0  0  0
  182.3080  178.5290  141.8760 C   0  0  0  0  0  0  0  0  0  0  0  0
  186.4020  177.6910  146.0660 N   0  0  0  0  0  0  0  0  0  0  0  0
  189.1520  175.1520  142.6430 C   0  0  0  0  0  3  0  0  0  0  0  0
  185.0560  177.9640  141.8450 C   0  0  0  0  0  0  0  0  0  0  0  0
  188.2240  175.8850  141.9080 C   0  0  0  0  0  3  0  0  0  0  0  0
  187.2320  176.6470  142.5410 C   0  0  0  0  0  0  0  0  0  0  0  0
  184.3140  178.2820  140.5710 C   0  0  0  0  0  2  0  0  0  0  0  0
  187.1940  176.6890  143.9500 C   0  0  0  0  0  0  0  0  0  0  0  0
  180.8910  178.4500  142.0390 N   0  0  0  0  0  2  0  0  0  0  0  0
  189.1090  175.1610  144.0380 C   0  0  0  0  0  0  0  0  0  0  0  0
  185.4070  178.4630  146.4630 N   0  0  0  0  0  0  0  0  0  0  0  0
  186.3350  177.3450  141.6740 N   0  0  0  0  0  0  0  0  0  0  0  0
  184.6310  178.7940  145.4450 N   0  0  0  0  0  0  0  0  0  0  0  0
  188.1400  175.9450  144.6740 C   0  0  0  0  0  3  0  0  0  0  0  0
  184.5060  178.3370  143.0220 C   0  0  0  0  0  0  0  0  0  0  0  0
  182.8680  178.1650  140.7630 N   0  0  0  0  0  0  0  0  0  0  0  0
  193.1510  176.6900  145.2260 C   0  0  0  0  0  2  0  0  0  0  0  0
  192.5280  173.9040  145.1840 C   0  0  1  0  0  3  0  0  0  0  0  0
  191.6720  176.3310  145.1930 C   0  0  0  0  0  2  0  0  0  0  0  0
  193.8670  174.3680  144.7580 C   0  0  2  0  0  3  0  0  0  0  0  0
  189.7830  173.2880  145.3150 O   0  0  0  0  0  0  0  0  0  0  0  0
  191.4500  174.8900  145.0130 N   0  0  0  0  0  0  0  0  0  0  0  0
  193.8990  175.8050  144.2470 C   0  0  0  0  0  2  0  0  0  0  0  0
  190.1100  174.4020  144.8200 C   0  0  0  0  0  0  0  0  0  0  0  0
  193.0540  173.5310  143.8590 N   0  0  0  0  0  0  0  0  0  0  0  0
  194.5580  171.9500  143.0120 O   0  0  0  0  0  1  0  0  0  0  0  0
  193.5620  172.1700  143.9670 C   0  0  1  0  0  3  0  0  0  0  0  0
  194.0860  171.8830  145.3790 C   0  0  0  0  0  2  0  0  0  0  0  0
  194.4610  170.0790  146.9070 F   0  0  0  0  0  0  0  0  0  0  0  0
  195.9740  170.4570  145.2900 F   0  0  0  0  0  0  0  0  0  0  0  0
  194.6260  170.4660  145.5900 C   0  0  0  0  0  0  0  0  0  0  0  0
  193.9800  169.5680  144.7610 F   0  0  0  0  0  0  0  0  0  0  0  0
  177.7260  178.5600  138.9600 O   0  0  0  0  0  1  0  0  0  0  0  0
  179.6660  179.1520  140.2120 C   0  0  0  0  0  2  0  0  0  0  0  0
  178.8370  177.4890  141.6550 C   0  0  0  0  0  2  0  0  0  0  0  0
  178.1600  179.1880  140.1280 C   0  0  0  0  0  0  0  0  0  0  0  0
  177.6920  178.4250  141.3320 C   0  0  0  0  0  2  0  0  0  0  0  0
  180.0500  177.9910  141.0130 N   0  0  0  0  0  0  0  0  0  0  0  0
  177.6970  180.5020  140.1660 O   0  0  0  0  0  1  0  0  0  0  0  0
  1  2  1  0  0  0  0
  1 16  1  0  0  0  0
  2  5  2  0  0  0  0
  3 18  1  0  0  0  0
  4 12  1  0  0  0  0
  4  3  1  0  0  0  0
  5 14  1  0  0  0  0
  6 13  1  0  0  0  0
  7 18  1  0  0  0  0
  8  9  1  0  0  0  0
  8  6  2  0  0  0  0
  9 11  2  0  0  0  0
 10 19  1  0  0  0  0
 10  7  1  0  0  0  0
 11 17  1  0  0  0  0
 11  2  1  0  0  0  0
 13 17  2  0  0  0  0
 13 27  1  0  0  0  0
 15  7  2  0  0  0  0
 15  9  1  0  0  0  0
 16 14  2  0  0  0  0
 18  1  2  0  0  0  0
 19  4  2  0  0  0  0
 21 28  1  6  0  0  0
 22 20  1  0  0  0  0
 23 26  1  6  0  0  0
 23 21  1  0  0  0  0
 25 21  1  0  0  0  0
 25 22  1  0  0  0  0
 26 20  1  0  0  0  0
 27 25  1  0  0  0  0
 27 24  2  0  0  0  0
 28 30  1  0  0  0  0
 28 23  1  0  0  0  0
 30 29  1  6  0  0  0
 30 31  1  0  0  0  0
 31 34  1  0  0  0  0
 33 34  1  0  0  0  0
 34 32  1  0  0  0  0
 35 34  1  0  0  0  0
 36 39  1  0  0  0  0
 37 41  1  0  0  0  0
 39 42  1  0  0  0  0
 39 37  1  0  0  0  0
 39 40  1  0  0  0  0
 40 38  1  0  0  0  0
 41 38  1  0  0  0  0
 41 12  1  0  0  0  0
M  END
>  <MODEL>
2

>  <REMARK>
 VINA RESULT:      -9.6      1.350      1.734
  Name = 
  5 active torsions:
  status: ('A' for Active; 'I' for Inactive)
    1  A    between atoms: C_21  and  C_30
    2  A    between atoms: N_27  and  N_28
    3  A    between atoms: C_29  and  C_36
    4  A    between atoms: C_30  and  C_31
    5  A    between atoms: C_31  and  N_38
                            x       y       z     vdW  Elec       q    Type
                         _______ _______ _______ _____ _____    ______ ____

>  <TORSDO>
F 5

$$$$
=
 OpenBabel11062420013D

 42 48  0  0  1  0  0  0  0  0999 V2000
  190.1770  171.3980  140.5500 C   0  0  0  0  0  0  0  0  0  0  0  0
  189.5310  172.4740  141.1230 C   0  0  0  0  0  0  0  0  0  0  0  0
  191.3600  169.9030  138.8890 C   0  0  0  0  0  2  0  0  0  0  0  0
  192.0780  170.0530  137.5810 C   0  0  0  0  0  0  0  0  0  0  0  0
  189.6240  172.3310  142.4610 N   0  0  0  0  0  0  0  0  0  0  0  0
  187.4380  175.8430  139.5270 C   0  0  0  0  0  3  0  0  0  0  0  0
  189.8340  171.6620  138.0770 C   0  0  0  0  0  0  0  0  0  0  0  0
  187.8270  174.8220  138.6630 C   0  0  0  0  0  3  0  0  0  0  0  0
  188.5480  173.7130  139.1240 C   0  0  0  0  0  0  0  0  0  0  0  0
  190.1050  171.1100  136.7000 C   0  0  0  0  0  2  0  0  0  0  0  0
  188.8630  173.6210  140.4960 C   0  0  0  0  0  0  0  0  0  0  0  0
  193.4130  169.5600  137.4470 N   0  0  0  0  0  2  0  0  0  0  0  0
  187.7670  175.7800  140.8820 C   0  0  0  0  0  0  0  0  0  0  0  0
  190.2960  171.2170  142.6920 N   0  0  0  0  0  0  0  0  0  0  0  0
  188.8950  172.7400  138.1350 N   0  0  0  0  0  0  0  0  0  0  0  0
  190.6470  170.6330  141.5580 N   0  0  0  0  0  0  0  0  0  0  0  0
  188.4610  174.6600  141.3520 C   0  0  0  0  0  3  0  0  0  0  0  0
  190.4270  171.0700  139.1370 C   0  0  0  0  0  0  0  0  0  0  0  0
  191.4850  170.6400  136.5860 N   0  0  0  0  0  0  0  0  0  0  0  0
  190.4140  177.8620  143.8400 C   0  0  0  0  0  2  0  0  0  0  0  0
  187.5670  177.8700  144.0710 C   0  0  1  0  0  3  0  0  0  0  0  0
  189.6350  177.4710  142.5910 C   0  0  0  0  0  2  0  0  0  0  0  0
  188.4080  177.7750  145.2860 C   0  0  2  0  0  3  0  0  0  0  0  0
  186.1700  177.3270  141.6870 O   0  0  0  0  0  0  0  0  0  0  0  0
  188.1930  177.3490  142.8460 N   0  0  0  0  0  0  0  0  0  0  0  0
  189.7920  177.1820  145.0450 C   0  0  0  0  0  2  0  0  0  0  0  0
  187.3340  176.8520  141.8050 C   0  0  0  0  0  0  0  0  0  0  0  0
  187.3720  176.7610  145.0210 N   0  0  0  0  0  0  0  0  0  0  0  0
  186.4650  176.7620  147.1790 O   0  0  0  0  0  1  0  0  0  0  0  0
  186.2200  177.1010  145.8460 C   0  0  1  0  0  3  0  0  0  0  0  0
  185.8640  178.5870  145.7160 C   0  0  0  0  0  2  0  0  0  0  0  0
  184.2270  177.8820  144.1180 F   0  0  0  0  0  0  0  0  0  0  0  0
  184.6020  180.0810  144.3810 F   0  0  0  0  0  0  0  0  0  0  0  0
  184.5190  178.8690  145.0400 C   0  0  0  0  0  0  0  0  0  0  0  0
  183.5060  178.9410  145.9780 F   0  0  0  0  0  0  0  0  0  0  0  0
  196.7090  169.0140  134.5580 O   0  0  0  0  0  1  0  0  0  0  0  0
  195.0040  168.5090  136.1450 C   0  0  0  0  0  2  0  0  0  0  0  0
  194.9900  170.8500  136.3800 C   0  0  0  0  0  2  0  0  0  0  0  0
  196.4140  168.9950  135.9220 C   0  0  0  0  0  0  0  0  0  0  0  0
  196.4290  170.3910  136.4740 C   0  0  0  0  0  2  0  0  0  0  0  0
  194.1300  169.6760  136.2450 N   0  0  0  0  0  0  0  0  0  0  0  0
  197.3270  168.1880  136.5990 O   0  0  0  0  0  1  0  0  0  0  0  0
  1  2  1  0  0  0  0
  1 16  1  0  0  0  0
  2  5  2  0  0  0  0
  3 18  1  0  0  0  0
  4  3  1  0  0  0  0
  5 14  1  0  0  0  0
  6 13  1  0  0  0  0
  7 15  2  0  0  0  0
  7 18  1  0  0  0  0
  8  9  1  0  0  0  0
  8  6  2  0  0  0  0
  9 11  2  0  0  0  0
 10  7  1  0  0  0  0
 11  2  1  0  0  0  0
 11 17  1  0  0  0  0
 12  4  1  0  0  0  0
 13 17  2  0  0  0  0
 13 27  1  0  0  0  0
 15  9  1  0  0  0  0
 16 14  2  0  0  0  0
 18  1  2  0  0  0  0
 19 10  1  0  0  0  0
 19  4  2  0  0  0  0
 20 26  1  0  0  0  0
 21 25  1  6  0  0  0
 21 28  1  0  0  0  0
 21 23  1  0  0  0  0
 22 25  1  0  0  0  0
 22 20  1  0  0  0  0
 23 26  1  6  0  0  0
 24 27  2  0  0  0  0
 27 25  1  0  0  0  0
 28 23  1  0  0  0  0
 28 30  1  0  0  0  0
 30 29  1  1  0  0  0
 31 30  1  0  0  0  0
 32 34  1  0  0  0  0
 33 34  1  0  0  0  0
 34 31  1  0  0  0  0
 34 35  1  0  0  0  0
 36 39  1  0  0  0  0
 37 41  1  0  0  0  0
 38 40  1  0  0  0  0
 39 37  1  0  0  0  0
 39 40  1  0  0  0  0
 39 42  1  0  0  0  0
 41 38  1  0  0  0  0
 41 12  1  0  0  0  0
M  END
>  <MODEL>
3

>  <REMARK>
 VINA RESULT:      -8.3      6.791     11.679
  Name = 
  5 active torsions:
  status: ('A' for Active; 'I' for Inactive)
    1  A    between atoms: C_21  and  C_30
    2  A    between atoms: N_27  and  N_28
    3  A    between atoms: C_29  and  C_36
    4  A    between atoms: C_30  and  C_31
    5  A    between atoms: C_31  and  N_38
                            x       y       z     vdW  Elec       q    Type
                         _______ _______ _______ _____ _____    ______ ____

>  <TORSDO>
F 5

$$$$
=
 OpenBabel11062420013D

 42 48  0  0  1  0  0  0  0  0999 V2000
  194.2350  174.5990  144.9190 C   0  0  0  0  0  0  0  0  0  0  0  0
  193.1440  175.4430  144.9420 C   0  0  0  0  0  0  0  0  0  0  0  0
  195.7180  172.5880  144.5350 C   0  0  0  0  0  2  0  0  0  0  0  0
  195.7090  171.3520  143.6850 C   0  0  0  0  0  0  0  0  0  0  0  0
  193.6090  176.6960  145.1210 N   0  0  0  0  0  0  0  0  0  0  0  0
  188.9270  174.8130  144.6180 C   0  0  0  0  0  3  0  0  0  0  0  0
  193.2780  172.2860  144.7280 C   0  0  0  0  0  0  0  0  0  0  0  0
  189.7650  173.7060  144.7390 C   0  0  0  0  0  3  0  0  0  0  0  0
  191.1560  173.8510  144.8100 C   0  0  0  0  0  0  0  0  0  0  0  0
  193.5610  170.8090  144.6220 C   0  0  0  0  0  2  0  0  0  0  0  0
  191.7140  175.1470  144.7830 C   0  0  0  0  0  0  0  0  0  0  0  0
  196.8210  171.0730  142.8330 N   0  0  0  0  0  2  0  0  0  0  0  0
  189.4660  176.0990  144.5610 C   0  0  0  0  0  0  0  0  0  0  0  0
  194.9260  176.6180  145.2050 N   0  0  0  0  0  0  0  0  0  0  0  0
  191.9040  172.6380  144.9230 N   0  0  0  0  0  0  0  0  0  0  0  0
  195.3330  175.3660  145.0830 N   0  0  0  0  0  0  0  0  0  0  0  0
  190.8530  176.2500  144.6630 C   0  0  0  0  0  3  0  0  0  0  0  0
  194.3200  173.1460  144.7030 C   0  0  0  0  0  0  0  0  0  0  0  0
  194.6860  170.5530  143.7220 N   0  0  0  0  0  0  0  0  0  0  0  0
  186.2810  177.1920  147.5190 C   0  0  0  0  0  2  0  0  0  0  0  0
  186.2920  178.2030  144.8480 C   0  0  1  0  0  3  0  0  0  0  0  0
  187.5940  177.0690  146.7580 C   0  0  0  0  0  2  0  0  0  0  0  0
  185.0110  177.8490  145.4990 C   0  0  2  0  0  3  0  0  0  0  0  0
  188.7900  178.1270  143.5490 O   0  0  0  0  0  0  0  0  0  0  0  0
  187.4630  177.4670  145.3490 N   0  0  0  0  0  0  0  0  0  0  0  0
  185.1370  176.8030  146.6020 C   0  0  0  0  0  2  0  0  0  0  0  0
  188.5760  177.2770  144.4580 C   0  0  0  0  0  0  0  0  0  0  0  0
  185.3690  177.2560  144.1990 N   0  0  0  0  0  0  0  0  0  0  0  0
  183.7740  178.9140  143.7720 O   0  0  0  0  0  1  0  0  0  0  0  0
  184.6430  177.9980  143.1760 C   0  0  1  0  0  3  0  0  0  0  0  0
  185.6060  178.7040  142.2140 C   0  0  0  0  0  2  0  0  0  0  0  0
  185.5080  177.7550  140.0190 F   0  0  0  0  0  0  0  0  0  0  0  0
  186.3400  176.5140  141.6960 F   0  0  0  0  0  0  0  0  0  0  0  0
  186.2640  177.7910  141.1760 C   0  0  0  0  0  0  0  0  0  0  0  0
  187.5420  178.2270  140.8800 F   0  0  0  0  0  0  0  0  0  0  0  0
  197.5750  168.6130  139.2430 O   0  0  0  0  0  1  0  0  0  0  0  0
  197.9380  170.1300  141.0450 C   0  0  0  0  0  2  0  0  0  0  0  0
  195.6070  169.9010  141.2700 C   0  0  0  0  0  2  0  0  0  0  0  0
  197.3660  169.9270  139.6640 C   0  0  0  0  0  0  0  0  0  0  0  0
  195.8970  170.1950  139.8150 C   0  0  0  0  0  2  0  0  0  0  0  0
  196.8630  169.9320  142.0160 N   0  0  0  0  0  0  0  0  0  0  0  0
  197.9390  170.8180  138.7580 O   0  0  0  0  0  1  0  0  0  0  0  0
  1  2  1  0  0  0  0
  1 16  1  0  0  0  0
  2  5  2  0  0  0  0
  3 18  1  0  0  0  0
  4 19  2  0  0  0  0
  4  3  1  0  0  0  0
  5 14  1  0  0  0  0
  6  8  1  0  0  0  0
  7 15  2  0  0  0  0
  8  9  2  0  0  0  0
  9 15  1  0  0  0  0
 10  7  1  0  0  0  0
 11  9  1  0  0  0  0
 11  2  1  0  0  0  0
 12  4  1  0  0  0  0
 13  6  2  0  0  0  0
 13 17  1  0  0  0  0
 16 14  2  0  0  0  0
 17 11  2  0  0  0  0
 18  7  1  0  0  0  0
 18  1  2  0  0  0  0
 19 10  1  0  0  0  0
 21 28  1  6  0  0  0
 21 25  1  0  0  0  0
 21 23  1  0  0  0  0
 22 20  1  0  0  0  0
 23 26  1  1  0  0  0
 24 27  2  0  0  0  0
 25 22  1  0  0  0  0
 26 20  1  0  0  0  0
 27 13  1  0  0  0  0
 27 25  1  0  0  0  0
 28 23  1  0  0  0  0
 30 29  1  1  0  0  0
 30 28  1  0  0  0  0
 31 30  1  0  0  0  0
 32 34  1  0  0  0  0
 34 33  1  0  0  0  0
 34 31  1  0  0  0  0
 35 34  1  0  0  0  0
 36 39  1  0  0  0  0
 37 41  1  0  0  0  0
 38 41  1  0  0  0  0
 39 40  1  0  0  0  0
 39 37  1  0  0  0  0
 40 38  1  0  0  0  0
 41 12  1  0  0  0  0
 42 39  1  0  0  0  0
M  END
>  <MODEL>
4

>  <REMARK>
 VINA RESULT:      -8.0      4.846     12.151
  Name = 
  5 active torsions:
  status: ('A' for Active; 'I' for Inactive)
    1  A    between atoms: C_21  and  C_30
    2  A    between atoms: N_27  and  N_28
    3  A    between atoms: C_29  and  C_36
    4  A    between atoms: C_30  and  C_31
    5  A    between atoms: C_31  and  N_38
                            x       y       z     vdW  Elec       q    Type
                         _______ _______ _______ _____ _____    ______ ____

>  <TORSDO>
F 5

$$$$
=
 OpenBabel11062420013D

 42 48  0  0  1  0  0  0  0  0999 V2000
  192.4290  174.5380  145.3250 C   0  0  0  0  0  0  0  0  0  0  0  0
  191.4550  175.4420  144.9530 C   0  0  0  0  0  0  0  0  0  0  0  0
  193.9570  172.5250  145.3670 C   0  0  0  0  0  2  0  0  0  0  0  0
  194.4200  171.4660  144.4110 C   0  0  0  0  0  0  0  0  0  0  0  0
  191.7270  176.6050  145.5790 N   0  0  0  0  0  0  0  0  0  0  0  0
  188.0150  175.1910  142.4250 C   0  0  0  0  0  3  0  0  0  0  0  0
  191.7710  172.3730  144.2370 C   0  0  0  0  0  0  0  0  0  0  0  0
  188.7050  174.0220  142.7390 C   0  0  0  0  0  3  0  0  0  0  0  0
  189.8610  174.0490  143.5310 C   0  0  0  0  0  0  0  0  0  0  0  0
  192.1110  170.9220  144.0080 C   0  0  0  0  0  2  0  0  0  0  0  0
  190.3160  175.2850  144.0390 C   0  0  0  0  0  0  0  0  0  0  0  0
  195.8190  171.2630  144.2050 N   0  0  0  0  0  2  0  0  0  0  0  0
  188.4700  176.4230  142.8960 C   0  0  0  0  0  0  0  0  0  0  0  0
  192.8170  176.4170  146.3010 N   0  0  0  0  0  0  0  0  0  0  0  0
  190.4810  172.7840  143.7720 N   0  0  0  0  0  0  0  0  0  0  0  0
  193.2660  175.1800  146.1650 N   0  0  0  0  0  0  0  0  0  0  0  0
  189.6060  176.4520  143.7130 C   0  0  0  0  0  3  0  0  0  0  0  0
  192.6550  173.1450  144.9080 C   0  0  0  0  0  0  0  0  0  0  0  0
  193.5450  170.7500  143.7720 N   0  0  0  0  0  0  0  0  0  0  0  0
  185.8540  178.6530  145.7730 C   0  0  0  0  0  2  0  0  0  0  0  0
  185.6400  178.9870  142.9450 C   0  0  1  0  0  3  0  0  0  0  0  0
  187.0320  178.1560  144.9450 C   0  0  0  0  0  2  0  0  0  0  0  0
  184.4210  178.9940  143.7840 C   0  0  2  0  0  3  0  0  0  0  0  0
  187.9200  178.2300  141.4740 O   0  0  0  0  0  0  0  0  0  0  0  0
  186.7680  178.2240  143.5010 N   0  0  0  0  0  0  0  0  0  0  0  0
  184.5620  178.2330  145.0980 C   0  0  0  0  0  2  0  0  0  0  0  0
  187.7240  177.6630  142.5840 C   0  0  0  0  0  0  0  0  0  0  0  0
  184.5320  178.0620  142.6480 N   0  0  0  0  0  0  0  0  0  0  0  0
  184.5510  178.6550  140.3840 O   0  0  0  0  0  1  0  0  0  0  0  0
  183.7750  178.6410  141.5450 C   0  0  1  0  0  3  0  0  0  0  0  0
  182.4620  177.8830  141.3160 C   0  0  0  0  0  2  0  0  0  0  0  0
  180.0740  177.9050  141.4780 F   0  0  0  0  0  0  0  0  0  0  0  0
  181.1080  179.6560  140.5230 F   0  0  0  0  0  0  0  0  0  0  0  0
  181.1940  178.7140  141.5300 C   0  0  0  0  0  0  0  0  0  0  0  0
  181.2360  179.3670  142.7480 F   0  0  0  0  0  0  0  0  0  0  0  0
  197.9410  169.5580  140.7260 O   0  0  0  0  0  1  0  0  0  0  0  0
  197.5150  170.8240  142.7010 C   0  0  0  0  0  2  0  0  0  0  0  0
  195.3070  170.1400  142.2650 C   0  0  0  0  0  2  0  0  0  0  0  0
  197.3560  170.7320  141.2040 C   0  0  0  0  0  0  0  0  0  0  0  0
  195.8730  170.7000  140.9780 C   0  0  0  0  0  2  0  0  0  0  0  0
  196.3050  170.2860  143.3210 N   0  0  0  0  0  0  0  0  0  0  0  0
  197.9250  171.8400  140.5790 O   0  0  0  0  0  1  0  0  0  0  0  0
  1 16  1  0  0  0  0
  2  1  1  0  0  0  0
  2  5  2  0  0  0  0
  4  3  1  0  0  0  0
  5 14  1  0  0  0  0
  6  8  2  0  0  0  0
  6 13  1  0  0  0  0
  7 18  1  0  0  0  0
  8  9  1  0  0  0  0
  9 15  1  0  0  0  0
  9 11  2  0  0  0  0
 10  7  1  0  0  0  0
 11  2  1  0  0  0  0
 12  4  1  0  0  0  0
 13 17  2  0  0  0  0
 15  7  2  0  0  0  0
 16 14  2  0  0  0  0
 17 11  1  0  0  0  0
 18  1  2  0  0  0  0
 18  3  1  0  0  0  0
 19 10  1  0  0  0  0
 19  4  2  0  0  0  0
 21 28  1  6  0  0  0
 21 25  1  0  0  0  0
 21 23  1  0  0  0  0
 22 20  1  0  0  0  0
 23 26  1  1  0  0  0
 24 27  2  0  0  0  0
 25 22  1  0  0  0  0
 26 20  1  0  0  0  0
 27 13  1  0  0  0  0
 27 25  1  0  0  0  0
 28 23  1  0  0  0  0
 30 29  1  6  0  0  0
 30 28  1  0  0  0  0
 31 34  1  0  0  0  0
 31 30  1  0  0  0  0
 32 34  1  0  0  0  0
 33 34  1  0  0  0  0
 34 35  1  0  0  0  0
 36 39  1  0  0  0  0
 37 41  1  0  0  0  0
 38 41  1  0  0  0  0
 39 37  1  0  0  0  0
 40 39  1  0  0  0  0
 40 38  1  0  0  0  0
 41 12  1  0  0  0  0
 42 39  1  0  0  0  0
M  END
>  <MODEL>
5

>  <REMARK>
 VINA RESULT:      -7.8      5.565     12.459
  Name = 
  5 active torsions:
  status: ('A' for Active; 'I' for Inactive)
    1  A    between atoms: C_21  and  C_30
    2  A    between atoms: N_27  and  N_28
    3  A    between atoms: C_29  and  C_36
    4  A    between atoms: C_30  and  C_31
    5  A    between atoms: C_31  and  N_38
                            x       y       z     vdW  Elec       q    Type
                         _______ _______ _______ _____ _____    ______ ____

>  <TORSDO>
F 5

$$$$
=
 OpenBabel11062420013D

 42 48  0  0  1  0  0  0  0  0999 V2000
  191.5010  172.1520  142.2820 C   0  0  0  0  0  0  0  0  0  0  0  0
  190.7140  173.2770  142.4120 C   0  0  0  0  0  0  0  0  0  0  0  0
  193.4720  170.5690  142.3510 C   0  0  0  0  0  2  0  0  0  0  0  0
  194.7990  170.4830  143.0440 C   0  0  0  0  0  0  0  0  0  0  0  0
  189.4280  172.8740  142.3640 N   0  0  0  0  0  0  0  0  0  0  0  0
  191.5780  177.4420  142.8480 C   0  0  0  0  0  3  0  0  0  0  0  0
  193.8630  173.0010  142.2330 C   0  0  0  0  0  0  0  0  0  0  0  0
  192.6200  176.5660  142.5550 C   0  0  0  0  0  3  0  0  0  0  0  0
  192.4030  175.1870  142.4390 C   0  0  0  0  0  0  0  0  0  0  0  0
  195.3280  172.6520  142.1470 C   0  0  0  0  0  2  0  0  0  0  0  0
  191.0940  174.6830  142.5980 C   0  0  0  0  0  0  0  0  0  0  0  0
  195.1250  169.3180  143.8040 N   0  0  0  0  0  2  0  0  0  0  0  0
  190.2830  176.9550  143.0360 C   0  0  0  0  0  0  0  0  0  0  0  0
  189.4330  171.5620  142.2120 N   0  0  0  0  0  0  0  0  0  0  0  0
  193.5570  174.3960  142.1460 N   0  0  0  0  0  0  0  0  0  0  0  0
  190.6700  171.0960  142.1620 N   0  0  0  0  0  0  0  0  0  0  0  0
  190.0560  175.5820  142.8900 C   0  0  0  0  0  3  0  0  0  0  0  0
  192.9640  171.9950  142.3160 C   0  0  0  0  0  0  0  0  0  0  0  0
  195.6350  171.4730  142.9560 N   0  0  0  0  0  0  0  0  0  0  0  0
  188.2340  177.3830  146.9990 C   0  0  0  0  0  2  0  0  0  0  0  0
  187.0380  178.2670  144.5610 C   0  0  1  0  0  3  0  0  0  0  0  0
  189.1700  177.5420  145.8080 C   0  0  0  0  0  2  0  0  0  0  0  0
  186.2010  177.6470  145.6130 C   0  0  2  0  0  3  0  0  0  0  0  0
  188.8350  178.7280  142.4430 O   0  0  0  0  0  0  0  0  0  0  0  0
  188.4470  177.8440  144.5650 N   0  0  0  0  0  0  0  0  0  0  0  0
  186.9580  176.7030  146.5400 C   0  0  0  0  0  2  0  0  0  0  0  0
  189.1700  177.8870  143.3220 C   0  0  0  0  0  0  0  0  0  0  0  0
  186.1880  177.1060  144.2430 N   0  0  0  0  0  0  0  0  0  0  0  0
  184.1780  178.2720  144.5230 O   0  0  0  0  0  1  0  0  0  0  0  0
  184.9890  177.6180  143.5920 C   0  0  1  0  0  3  0  0  0  0  0  0
  185.3440  178.5500  142.4280 C   0  0  0  0  0  2  0  0  0  0  0  0
  184.3280  177.5260  140.5180 F   0  0  0  0  0  0  0  0  0  0  0  0
  186.2610  176.6850  141.2930 F   0  0  0  0  0  0  0  0  0  0  0  0
  185.5480  177.8490  141.0820 C   0  0  0  0  0  0  0  0  0  0  0  0
  186.2590  178.6550  140.2130 F   0  0  0  0  0  0  0  0  0  0  0  0
  197.9410  168.4290  147.0880 O   0  0  0  0  0  1  0  0  0  0  0  0
  196.1790  168.1660  145.5050 C   0  0  0  0  0  2  0  0  0  0  0  0
  196.5960  170.4550  145.1560 C   0  0  0  0  0  2  0  0  0  0  0  0
  196.6100  168.7550  146.8260 C   0  0  0  0  0  0  0  0  0  0  0  0
  196.4650  170.2380  146.6480 C   0  0  0  0  0  2  0  0  0  0  0  0
  196.3520  169.1870  144.4730 N   0  0  0  0  0  0  0  0  0  0  0  0
  195.7920  168.3000  147.8580 O   0  0  0  0  0  1  0  0  0  0  0  0
  1 18  1  0  0  0  0
  1  2  1  0  0  0  0
  2 11  2  0  0  0  0
  3  4  1  0  0  0  0
  4 12  1  0  0  0  0
  5  2  1  0  0  0  0
  6 13  1  0  0  0  0
  7 18  2  0  0  0  0
  8  6  2  0  0  0  0
  9  8  1  0  0  0  0
  9 11  1  0  0  0  0
 10  7  1  0  0  0  0
 10 19  1  0  0  0  0
 11 17  1  0  0  0  0
 12 41  1  0  0  0  0
 13 27  1  0  0  0  0
 14  5  2  0  0  0  0
 15  7  1  0  0  0  0
 15  9  2  0  0  0  0
 16 14  1  0  0  0  0
 16  1  2  0  0  0  0
 17 13  2  0  0  0  0
 18  3  1  0  0  0  0
 19  4  2  0  0  0  0
 21 28  1  6  0  0  0
 21 25  1  0  0  0  0
 21 23  1  0  0  0  0
 22 20  1  0  0  0  0
 23 26  1  1  0  0  0
 24 27  2  0  0  0  0
 25 22  1  0  0  0  0
 26 20  1  0  0  0  0
 27 25  1  0  0  0  0
 28 23  1  0  0  0  0
 30 28  1  0  0  0  0
 30 29  1  1  0  0  0
 31 30  1  0  0  0  0
 32 34  1  0  0  0  0
 34 33  1  0  0  0  0
 34 31  1  0  0  0  0
 35 34  1  0  0  0  0
 37 39  1  0  0  0  0
 38 40  1  0  0  0  0
 39 36  1  0  0  0  0
 39 42  1  0  0  0  0
 40 39  1  0  0  0  0
 41 38  1  0  0  0  0
 41 37  1  0  0  0  0
M  END
>  <MODEL>
6

>  <REMARK>
 VINA RESULT:      -7.7      5.258     12.237
  Name = 
  5 active torsions:
  status: ('A' for Active; 'I' for Inactive)
    1  A    between atoms: C_21  and  C_30
    2  A    between atoms: N_27  and  N_28
    3  A    between atoms: C_29  and  C_36
    4  A    between atoms: C_30  and  C_31
    5  A    between atoms: C_31  and  N_38
                            x       y       z     vdW  Elec       q    Type
                         _______ _______ _______ _____ _____    ______ ____

>  <TORSDO>
F 5

$$$$
=
 OpenBabel11062420013D

 42 48  0  0  1  0  0  0  0  0999 V2000
  190.7320  173.8450  145.3580 C   0  0  0  0  0  0  0  0  0  0  0  0
  192.0290  173.5820  144.9690 C   0  0  0  0  0  0  0  0  0  0  0  0
  188.6270  175.0530  146.0660 C   0  0  0  0  0  2  0  0  0  0  0  0
  188.0900  176.4530  146.0340 C   0  0  0  0  0  0  0  0  0  0  0  0
  192.0390  172.3560  144.4090 N   0  0  0  0  0  0  0  0  0  0  0  0
  195.6910  175.7720  145.2570 C   0  0  0  0  0  3  0  0  0  0  0  0
  190.8270  176.0710  146.5160 C   0  0  0  0  0  0  0  0  0  0  0  0
  194.5660  176.2530  145.9230 C   0  0  0  0  0  3  0  0  0  0  0  0
  193.3300  175.5980  145.8330 C   0  0  0  0  0  0  0  0  0  0  0  0
  190.0590  177.1590  147.2220 C   0  0  0  0  0  2  0  0  0  0  0  0
  193.2360  174.4140  145.0720 C   0  0  0  0  0  0  0  0  0  0  0  0
  186.8260  176.7110  145.4200 N   0  0  0  0  0  2  0  0  0  0  0  0
  195.6050  174.6180  144.4780 C   0  0  0  0  0  0  0  0  0  0  0  0
  190.8030  171.8930  144.4550 N   0  0  0  0  0  0  0  0  0  0  0  0
  192.2520  176.1990  146.5540 N   0  0  0  0  0  0  0  0  0  0  0  0
  189.9900  172.7700  145.0190 N   0  0  0  0  0  0  0  0  0  0  0  0
  194.3810  173.9430  144.4100 C   0  0  0  0  0  3  0  0  0  0  0  0
  190.1380  175.0450  145.9700 C   0  0  0  0  0  0  0  0  0  0  0  0
  188.7840  177.4190  146.5550 N   0  0  0  0  0  0  0  0  0  0  0  0
  197.1370  176.0390  140.5120 C   0  0  0  0  0  2  0  0  0  0  0  0
  197.8690  173.5070  141.6100 C   0  0  1  0  0  3  0  0  0  0  0  0
  196.8770  175.8500  142.0010 C   0  0  0  0  0  2  0  0  0  0  0  0
  197.6410  173.6430  140.1540 C   0  0  2  0  0  3  0  0  0  0  0  0
  197.5480  173.2720  144.3980 O   0  0  0  0  0  0  0  0  0  0  0  0
  197.1350  174.4720  142.4430 N   0  0  0  0  0  0  0  0  0  0  0  0
  196.7080  174.7870  139.7710 C   0  0  0  0  0  2  0  0  0  0  0  0
  196.8060  174.0920  143.7900 C   0  0  0  0  0  0  0  0  0  0  0  0
  196.9040  172.6280  140.9270 N   0  0  0  0  0  0  0  0  0  0  0  0
  197.9410  170.7810  141.9220 O   0  0  0  0  0  1  0  0  0  0  0  0
  197.5700  171.3520  140.7020 C   0  0  1  0  0  3  0  0  0  0  0  0
  196.6820  170.3960  139.8980 C   0  0  0  0  0  2  0  0  0  0  0  0
  197.9410  171.1420  138.0040 F   0  0  0  0  0  0  0  0  0  0  0  0
  195.7190  171.4680  138.0190 F   0  0  0  0  0  0  0  0  0  0  0  0
  196.7280  170.5970  138.3810 C   0  0  0  0  0  0  0  0  0  0  0  0
  196.5370  169.3960  137.7220 F   0  0  0  0  0  0  0  0  0  0  0  0
  184.1100  179.9740  144.2000 O   0  0  0  0  0  1  0  0  0  0  0  0
  184.8670  177.8630  145.0060 C   0  0  0  0  0  2  0  0  0  0  0  0
  186.9370  178.6900  144.2540 C   0  0  0  0  0  2  0  0  0  0  0  0
  184.5990  178.7290  143.8010 C   0  0  0  0  0  0  0  0  0  0  0  0
  185.9350  178.8850  143.1370 C   0  0  0  0  0  2  0  0  0  0  0  0
  186.2780  178.0030  145.3620 N   0  0  0  0  0  0  0  0  0  0  0  0
  183.6920  178.1100  142.9420 O   0  0  0  0  0  1  0  0  0  0  0  0
  1 18  1  0  0  0  0
  2 11  2  0  0  0  0
  2  1  1  0  0  0  0
  4  3  1  0  0  0  0
  4 19  2  0  0  0  0
  5 14  2  0  0  0  0
  5  2  1  0  0  0  0
  6  8  2  0  0  0  0
  7 15  1  0  0  0  0
  7 10  1  0  0  0  0
  9  8  1  0  0  0  0
  9 15  2  0  0  0  0
 11  9  1  0  0  0  0
 12  4  1  0  0  0  0
 13  6  1  0  0  0  0
 14 16  1  0  0  0  0
 16  1  2  0  0  0  0
 17 13  2  0  0  0  0
 17 11  1  0  0  0  0
 18  3  1  0  0  0  0
 18  7  2  0  0  0  0
 19 10  1  0  0  0  0
 20 22  1  0  0  0  0
 21 28  1  1  0  0  0
 21 25  1  0  0  0  0
 22 25  1  0  0  0  0
 23 26  1  1  0  0  0
 23 28  1  0  0  0  0
 23 21  1  0  0  0  0
 25 27  1  0  0  0  0
 26 20  1  0  0  0  0
 27 24  2  0  0  0  0
 27 13  1  0  0  0  0
 30 28  1  0  0  0  0
 30 29  1  1  0  0  0
 31 30  1  0  0  0  0
 32 34  1  0  0  0  0
 33 34  1  0  0  0  0
 34 31  1  0  0  0  0
 35 34  1  0  0  0  0
 37 41  1  0  0  0  0
 38 41  1  0  0  0  0
 39 36  1  0  0  0  0
 39 37  1  0  0  0  0
 40 39  1  0  0  0  0
 40 38  1  0  0  0  0
 41 12  1  0  0  0  0
 42 39  1  0  0  0  0
M  END
>  <MODEL>
7

>  <REMARK>
 VINA RESULT:      -7.6      4.388      7.571
  Name = 
  5 active torsions:
  status: ('A' for Active; 'I' for Inactive)
    1  A    between atoms: C_21  and  C_30
    2  A    between atoms: N_27  and  N_28
    3  A    between atoms: C_29  and  C_36
    4  A    between atoms: C_30  and  C_31
    5  A    between atoms: C_31  and  N_38
                            x       y       z     vdW  Elec       q    Type
                         _______ _______ _______ _____ _____    ______ ____

>  <TORSDO>
F 5

$$$$
=
 OpenBabel11062420013D

 42 48  0  0  1  0  0  0  0  0999 V2000
  191.5820  173.0400  144.6850 C   0  0  0  0  0  0  0  0  0  0  0  0
  192.7550  172.7820  144.0050 C   0  0  0  0  0  0  0  0  0  0  0  0
  189.7770  174.2020  146.0210 C   0  0  0  0  0  2  0  0  0  0  0  0
  189.3980  175.6070  146.3810 C   0  0  0  0  0  0  0  0  0  0  0  0
  192.5330  171.7120  143.2160 N   0  0  0  0  0  0  0  0  0  0  0  0
  196.6250  174.6010  144.0150 C   0  0  0  0  0  3  0  0  0  0  0  0
  192.1200  174.9440  146.2310 C   0  0  0  0  0  0  0  0  0  0  0  0
  195.6930  174.9980  144.9710 C   0  0  0  0  0  3  0  0  0  0  0  0
  194.3980  174.4650  144.9920 C   0  0  0  0  0  0  0  0  0  0  0  0
  191.6100  175.8980  147.2810 C   0  0  0  0  0  2  0  0  0  0  0  0
  194.0430  173.4870  144.0380 C   0  0  0  0  0  0  0  0  0  0  0  0
  188.0810  176.0800  146.0910 N   0  0  0  0  0  2  0  0  0  0  0  0
  196.2790  173.6560  143.0480 C   0  0  0  0  0  0  0  0  0  0  0  0
  191.2820  171.3350  143.4070 N   0  0  0  0  0  0  0  0  0  0  0  0
  193.5340  174.9630  146.0170 N   0  0  0  0  0  0  0  0  0  0  0  0
  190.6810  172.1190  144.2850 N   0  0  0  0  0  0  0  0  0  0  0  0
  194.9970  173.0980  143.0840 C   0  0  0  0  0  3  0  0  0  0  0  0
  191.2380  174.1120  145.6330 C   0  0  0  0  0  0  0  0  0  0  0  0
  190.2730  176.3860  146.9420 N   0  0  0  0  0  0  0  0  0  0  0  0
  197.5120  175.9960  139.4300 C   0  0  0  0  0  2  0  0  0  0  0  0
  197.9400  173.1810  139.6420 C   0  0  1  0  0  3  0  0  0  0  0  0
  197.4150  175.4040  140.8290 C   0  0  0  0  0  2  0  0  0  0  0  0
  197.5540  173.7740  138.3420 C   0  0  2  0  0  3  0  0  0  0  0  0
  197.9410  172.1640  142.2680 O   0  0  0  0  0  0  0  0  0  0  0  0
  197.4910  173.9360  140.8220 N   0  0  0  0  0  0  0  0  0  0  0  0
  196.7870  175.0870  138.4560 C   0  0  0  0  0  2  0  0  0  0  0  0
  197.2760  173.2140  142.0470 C   0  0  0  0  0  0  0  0  0  0  0  0
  196.7600  172.6750  138.9180 N   0  0  0  0  0  0  0  0  0  0  0  0
  197.6640  170.5300  139.1620 O   0  0  0  0  0  1  0  0  0  0  0  0
  197.1670  171.4520  138.2380 C   0  0  1  0  0  3  0  0  0  0  0  0
  196.0080  170.8500  137.4360 C   0  0  0  0  0  2  0  0  0  0  0  0
  196.9610  171.9180  135.5170 F   0  0  0  0  0  0  0  0  0  0  0  0
  194.9470  172.5990  136.2420 F   0  0  0  0  0  0  0  0  0  0  0  0
  195.7650  171.4990  136.0700 C   0  0  0  0  0  0  0  0  0  0  0  0
  195.1440  170.6130  135.2100 F   0  0  0  0  0  0  0  0  0  0  0  0
  185.3530  179.4130  147.0730 O   0  0  0  0  0  1  0  0  0  0  0  0
  186.4250  177.2850  147.1580 C   0  0  0  0  0  2  0  0  0  0  0  0
  187.3650  178.0470  145.1400 C   0  0  0  0  0  2  0  0  0  0  0  0
  185.3950  178.1510  146.4770 C   0  0  0  0  0  0  0  0  0  0  0  0
  185.8700  178.2650  145.0570 C   0  0  0  0  0  2  0  0  0  0  0  0
  187.6750  177.3860  146.4060 N   0  0  0  0  0  0  0  0  0  0  0  0
  184.1370  177.5540  146.5290 O   0  0  0  0  0  1  0  0  0  0  0  0
  1 18  1  0  0  0  0
  2 11  2  0  0  0  0
  2  1  1  0  0  0  0
  3  4  1  0  0  0  0
  4 19  2  0  0  0  0
  5 14  2  0  0  0  0
  5  2  1  0  0  0  0
  6  8  2  0  0  0  0
  7 10  1  0  0  0  0
  8  9  1  0  0  0  0
  9 15  2  0  0  0  0
 11  9  1  0  0  0  0
 12  4  1  0  0  0  0
 12 41  1  0  0  0  0
 13 17  2  0  0  0  0
 13  6  1  0  0  0  0
 14 16  1  0  0  0  0
 15  7  1  0  0  0  0
 16  1  2  0  0  0  0
 17 11  1  0  0  0  0
 18  3  1  0  0  0  0
 18  7  2  0  0  0  0
 19 10  1  0  0  0  0
 20 22  1  0  0  0  0
 21 28  1  1  0  0  0
 21 25  1  0  0  0  0
 23 26  1  1  0  0  0
 23 28  1  0  0  0  0
 23 21  1  0  0  0  0
 25 22  1  0  0  0  0
 25 27  1  0  0  0  0
 26 20  1  0  0  0  0
 27 24  2  0  0  0  0
 27 13  1  0  0  0  0
 30 28  1  0  0  0  0
 30 29  1  1  0  0  0
 31 30  1  0  0  0  0
 32 34  1  0  0  0  0
 34 33  1  0  0  0  0
 34 31  1  0  0  0  0
 35 34  1  0  0  0  0
 38 41  1  0  0  0  0
 39 42  1  0  0  0  0
 39 36  1  0  0  0  0
 39 37  1  0  0  0  0
 40 38  1  0  0  0  0
 40 39  1  0  0  0  0
 41 37  1  0  0  0  0
M  END
>  <MODEL>
8

>  <REMARK>
 VINA RESULT:      -7.5      5.489      8.925
  Name = 
  5 active torsions:
  status: ('A' for Active; 'I' for Inactive)
    1  A    between atoms: C_21  and  C_30
    2  A    between atoms: N_27  and  N_28
    3  A    between atoms: C_29  and  C_36
    4  A    between atoms: C_30  and  C_31
    5  A    between atoms: C_31  and  N_38
                            x       y       z     vdW  Elec       q    Type
                         _______ _______ _______ _____ _____    ______ ____

>  <TORSDO>
F 5

$$$$
=
 OpenBabel11062420013D

 42 48  0  0  1  0  0  0  0  0999 V2000
  191.6040  175.6750  145.5090 C   0  0  0  0  0  0  0  0  0  0  0  0
  192.5930  174.8270  145.0560 C   0  0  0  0  0  0  0  0  0  0  0  0
  189.5000  177.0710  145.6380 C   0  0  0  0  0  2  0  0  0  0  0  0
  188.1860  177.1610  144.9210 C   0  0  0  0  0  0  0  0  0  0  0  0
  193.2710  174.3890  146.1360 N   0  0  0  0  0  0  0  0  0  0  0  0
  193.7930  173.5130  141.1680 C   0  0  0  0  0  3  0  0  0  0  0  0
  190.4890  176.5550  143.4390 C   0  0  0  0  0  0  0  0  0  0  0  0
  192.8510  174.5340  141.2710 C   0  0  0  0  0  3  0  0  0  0  0  0
  192.3920  174.9780  142.5190 C   0  0  0  0  0  0  0  0  0  0  0  0
  189.4060  177.4340  142.8660 C   0  0  0  0  0  2  0  0  0  0  0  0
  192.9170  174.3940  143.6900 C   0  0  0  0  0  0  0  0  0  0  0  0
  186.9680  177.0770  145.6640 N   0  0  0  0  0  2  0  0  0  0  0  0
  194.3010  172.9070  142.3180 C   0  0  0  0  0  0  0  0  0  0  0  0
  192.7190  174.9460  147.1990 N   0  0  0  0  0  0  0  0  0  0  0  0
  191.4180  176.0240  142.4880 N   0  0  0  0  0  0  0  0  0  0  0  0
  191.7080  175.7250  146.8530 N   0  0  0  0  0  0  0  0  0  0  0  0
  193.8680  173.3680  143.5660 C   0  0  0  0  0  3  0  0  0  0  0  0
  190.5460  176.3920  144.7790 C   0  0  0  0  0  0  0  0  0  0  0  0
  188.1660  177.3040  143.6300 N   0  0  0  0  0  0  0  0  0  0  0  0
  193.4290  168.5120  142.1680 C   0  0  0  0  0  2  0  0  0  0  0  0
  196.0010  169.5330  142.8760 C   0  0  1  0  0  3  0  0  0  0  0  0
  193.7000  169.9660  141.8040 C   0  0  0  0  0  2  0  0  0  0  0  0
  195.4650  168.3370  143.5640 C   0  0  2  0  0  3  0  0  0  0  0  0
  196.5250  172.1620  142.0140 O   0  0  0  0  0  0  0  0  0  0  0  0
  194.9790  170.4480  142.3440 N   0  0  0  0  0  0  0  0  0  0  0  0
  193.9420  168.2480  143.5700 C   0  0  0  0  0  2  0  0  0  0  0  0
  195.3200  171.8390  142.2100 C   0  0  0  0  0  0  0  0  0  0  0  0
  195.9050  169.5050  144.3460 N   0  0  0  0  0  0  0  0  0  0  0  0
  197.9410  170.3840  145.0940 O   0  0  0  0  0  1  0  0  0  0  0  0
  197.2360  169.2020  144.8560 C   0  0  1  0  0  3  0  0  0  0  0  0
  197.1610  168.3440  146.1250 C   0  0  0  0  0  2  0  0  0  0  0  0
  196.4660  170.3440  147.2420 F   0  0  0  0  0  0  0  0  0  0  0  0
  196.8860  168.5120  148.4710 F   0  0  0  0  0  0  0  0  0  0  0  0
  196.3640  168.9660  147.2750 C   0  0  0  0  0  0  0  0  0  0  0  0
  195.0330  168.5990  147.2030 F   0  0  0  0  0  0  0  0  0  0  0  0
  183.5050  178.8860  143.6040 O   0  0  0  0  0  1  0  0  0  0  0  0
  185.7540  178.2810  144.1130 C   0  0  0  0  0  2  0  0  0  0  0  0
  184.7460  177.4890  146.0860 C   0  0  0  0  0  2  0  0  0  0  0  0
  184.5920  179.1910  144.4250 C   0  0  0  0  0  0  0  0  0  0  0  0
  184.2550  178.9030  145.8590 C   0  0  0  0  0  2  0  0  0  0  0  0
  185.7120  177.1540  145.0430 N   0  0  0  0  0  0  0  0  0  0  0  0
  184.9550  180.5270  144.2630 O   0  0  0  0  0  1  0  0  0  0  0  0
  1 16  1  0  0  0  0
  2  1  1  0  0  0  0
  2  5  2  0  0  0  0
  4  3  1  0  0  0  0
  4 12  1  0  0  0  0
  5 14  1  0  0  0  0
  6  8  2  0  0  0  0
  6 13  1  0  0  0  0
  7 18  1  0  0  0  0
  8  9  1  0  0  0  0
  9 11  2  0  0  0  0
 10  7  1  0  0  0  0
 10 19  1  0  0  0  0
 11  2  1  0  0  0  0
 13 17  2  0  0  0  0
 15  9  1  0  0  0  0
 15  7  2  0  0  0  0
 16 14  2  0  0  0  0
 17 11  1  0  0  0  0
 18  1  2  0  0  0  0
 18  3  1  0  0  0  0
 19  4  2  0  0  0  0
 20 26  1  0  0  0  0
 21 25  1  6  0  0  0
 21 23  1  0  0  0  0
 21 28  1  0  0  0  0
 22 20  1  0  0  0  0
 22 25  1  0  0  0  0
 23 26  1  6  0  0  0
 23 28  1  0  0  0  0
 24 27  2  0  0  0  0
 27 13  1  0  0  0  0
 27 25  1  0  0  0  0
 28 30  1  0  0  0  0
 30 29  1  1  0  0  0
 30 31  1  0  0  0  0
 31 34  1  0  0  0  0
 32 34  1  0  0  0  0
 34 33  1  0  0  0  0
 35 34  1  0  0  0  0
 36 39  1  0  0  0  0
 37 39  1  0  0  0  0
 37 41  1  0  0  0  0
 39 40  1  0  0  0  0
 40 38  1  0  0  0  0
 41 12  1  0  0  0  0
 41 38  1  0  0  0  0
 42 39  1  0  0  0  0
M  END
>  <MODEL>
9

>  <REMARK>
 VINA RESULT:      -7.4      3.888      6.708
  Name = 
  5 active torsions:
  status: ('A' for Active; 'I' for Inactive)
    1  A    between atoms: C_21  and  C_30
    2  A    between atoms: N_27  and  N_28
    3  A    between atoms: C_29  and  C_36
    4  A    between atoms: C_30  and  C_31
    5  A    between atoms: C_31  and  N_38
                            x       y       z     vdW  Elec       q    Type
                         _______ _______ _______ _____ _____    ______ ____

>  <TORSDO>
F 5

$$$$
