=
 OpenBabel11072409353D

 63 69  0  0  1  0  0  0  0  0999 V2000
  187.8740  175.3050  140.8880 O   0  0  0  0  0  0  0  0  0  0  0  0
  187.5250  176.3780  141.5750 C   0  0  0  0  0  0  0  0  0  0  0  0
  194.5480  172.8740  141.7490 C   0  0  2  0  0  3  0  0  0  0  0  0
  193.5090  175.2960  142.3300 C   0  0  2  0  0  3  0  0  0  0  0  0
  193.0050  171.0050  139.9850 C   0  0  0  0  0  1  0  0  0  0  0  0
  188.0200  176.3980  142.8380 N   0  0  0  0  0  0  0  0  0  0  0  0
  189.2160  172.7440  140.1600 C   0  0  0  0  0  0  0  0  0  0  0  0
  192.3710  175.7440  144.5640 C   0  0  0  0  0  2  0  0  0  0  0  0
  195.1160  171.8890  142.7010 C   0  0  2  0  0  3  0  0  0  0  0  0
  189.9980  173.4950  143.7510 O   0  0  0  0  0  0  0  0  0  0  0  0
  192.4980  176.1480  143.1020 C   0  0  0  0  0  2  0  0  0  0  0  0
  194.4820  173.1570  143.2650 C   0  0  1  0  0  0  0  0  0  0  0  0
  191.3820  173.9550  138.7450 O   0  0  0  0  0  0  0  0  0  0  0  0
  193.1210  173.1480  141.3060 C   0  0  2  0  0  3  0  0  0  0  0  0
  188.6950  175.2370  142.8940 C   0  0  0  0  0  0  0  0  0  0  0  0
  192.8680  172.5210  139.9310 C   0  0  2  0  0  3  0  0  0  0  0  0
  189.3800  174.7440  143.9300 C   0  0  0  0  0  0  0  0  0  0  0  0
  190.3940  172.1310  139.7390 O   0  0  0  0  0  0  0  0  0  0  0  0
  192.9310  174.5630  141.2370 O   0  0  0  0  0  0  0  0  0  0  0  0
  189.5310  175.4610  145.1590 N   0  0  0  0  0  0  0  0  0  0  0  0
  189.2060  173.4130  141.4700 C   0  0  0  0  0  0  0  0  0  0  0  0
  191.6230  176.8080  145.3570 C   0  0  2  0  0  3  0  0  0  0  0  0
  191.8780  176.6420  146.7180 O   0  0  0  0  0  1  0  0  0  0  0  0
  194.6910  174.6590  143.1340 C   0  0  0  0  0  2  0  0  0  0  0  0
  188.1370  172.7020  139.3860 C   0  0  0  0  0  2  0  0  0  0  0  0
  188.6050  174.5850  141.7020 C   0  0  0  0  0  0  0  0  0  0  0  0
  193.2240  172.7600  144.0450 C   0  0  0  0  0  1  0  0  0  0  0  0
  189.9270  172.8520  142.5370 O   0  0  0  0  0  0  0  0  0  0  0  0
  190.1090  176.8070  145.1060 C   0  0  0  0  0  2  0  0  0  0  0  0
  191.5160  172.8970  139.4170 C   0  0  0  0  0  0  0  0  0  0  0  0
  189.5510  174.7120  146.4090 C   0  0  0  0  0  2  0  0  0  0  0  0
  188.4960  175.1270  147.2250 O   0  0  0  0  0  1  0  0  0  0  0  0
  196.6370  172.0190  142.7530 C   0  0  2  0  0  3  0  0  0  0  0  0
  197.9410  174.0400  142.2190 O   0  0  0  0  0  1  0  0  0  0  0  0
  197.2250  172.9550  141.6890 C   0  0  1  0  0  3  0  0  0  0  0  0
  197.9030  172.2310  140.6730 O   0  0  0  0  0  0  0  0  0  0  0  0
  197.1320  175.6120  137.7240 O   0  0  0  0  0  1  0  0  0  0  0  0
  197.3810  171.9670  138.3160 C   0  0  1  0  0  3  0  0  0  0  0  0
  196.8000  173.0870  137.0370 P   0  0  2  0  0  0  0  0  0  0  0  0
  197.9280  173.4280  136.0880 O   0  0  0  0  0  0  0  0  0  0  0  0
  194.9350  174.7840  138.1170 C   0  0  0  0  0  1  0  0  0  0  0  0
  196.4200  174.4820  138.1240 C   0  0  2  0  0  0  0  0  0  0  0  0
  195.3870  172.4110  136.1220 C   0  0  0  0  0  1  0  0  0  0  0  0
  197.8360  172.9000  139.4350 C   0  0  1  0  0  3  0  0  0  0  0  0
  196.8500  174.0670  139.5270 C   0  0  0  0  0  2  0  0  0  0  0  0
  196.3230  171.1600  138.7460 O   0  0  0  0  0  1  0  0  0  0  0  0
  197.2270  170.7560  142.6310 O   0  0  0  0  0  0  0  0  0  0  0  0
  197.0020  170.1210  143.8580 C   0  0  0  0  0  2  0  0  0  0  0  0
  196.3810  168.7530  143.6330 C   0  0  0  0  0  2  0  0  0  0  0  0
  195.3600  168.4950  144.7240 C   0  0  0  0  0  2  0  0  0  0  0  0
  195.3650  169.5470  145.6380 O   0  0  0  0  0  0  0  0  0  0  0  0
  195.7060  168.8220  147.1320 P   0  0  0  0  0  0  0  0  0  0  0  0
  194.5770  168.4180  148.0520 O   0  0  0  0  0  0  0  0  0  0  0  0
  197.1400  168.5750  147.5500 O   0  0  0  0  0  0  0  0  0  0  0  0
  186.6470  177.4500  141.0330 C   0  0  0  0  0  2  0  0  0  0  0  0
  186.5400  178.5780  142.0440 C   0  0  0  0  0  2  0  0  0  0  0  0
  184.2570  178.2130  142.6220 O   0  0  0  0  0  0  0  0  0  0  0  0
  185.7670  178.1370  144.3990 N   0  0  0  0  0  2  0  0  0  0  0  0
  185.4490  178.2900  143.0160 C   0  0  0  0  0  0  0  0  0  0  0  0
  184.2780  178.4150  147.5330 O   0  0  0  0  0  1  0  0  0  0  0  0
  185.3140  178.2030  146.6220 C   0  0  2  0  0  3  0  0  0  0  0  0
  184.7720  177.8650  145.3480 N   0  0  0  0  0  0  0  0  0  0  0  0
  185.3060  176.8440  146.2120 N   0  0  0  0  0  2  0  0  0  0  0  0
  1  2  1  0  0  0  0
  1 26  1  0  0  0  0
  2  6  2  0  0  0  0
  3  9  1  0  0  0  0
  3 12  1  0  0  0  0
  4 11  1  0  0  0  0
  4 24  1  0  0  0  0
  6 15  1  0  0  0  0
  7 21  1  0  0  0  0
  8 22  1  0  0  0  0
  9 33  1  0  0  0  0
  9 12  1  0  0  0  0
 10 17  1  0  0  0  0
 11  8  1  0  0  0  0
 12 27  1  0  0  0  0
 13 30  2  0  0  0  0
 14  3  1  0  0  0  0
 15 17  2  0  0  0  0
 16  5  1  0  0  0  0
 16 14  1  0  0  0  0
 17 20  1  0  0  0  0
 18  7  1  0  0  0  0
 19 14  1  0  0  0  0
 19  4  1  0  0  0  0
 20 31  1  0  0  0  0
 21 26  2  0  0  0  0
 21 28  1  0  0  0  0
 22 23  1  0  0  0  0
 24 12  1  0  0  0  0
 25  7  2  0  0  0  0
 26 15  1  0  0  0  0
 28 10  1  0  0  0  0
 29 20  1  0  0  0  0
 29 22  1  0  0  0  0
 30 18  1  0  0  0  0
 30 16  1  0  0  0  0
 31 32  1  0  0  0  0
 35 34  1  0  0  0  0
 35 33  1  0  0  0  0
 36 35  1  0  0  0  0
 37 42  1  0  0  0  0
 38 46  1  0  0  0  0
 38 44  1  0  0  0  0
 39 42  1  0  0  0  0
 39 38  1  0  0  0  0
 40 39  2  0  0  0  0
 41 42  1  0  0  0  0
 42 45  1  0  0  0  0
 43 39  1  0  0  0  0
 44 45  1  0  0  0  0
 44 36  1  0  0  0  0
 47 33  1  0  0  0  0
 47 48  1  0  0  0  0
 49 48  1  0  0  0  0
 49 50  1  0  0  0  0
 50 51  1  0  0  0  0
 51 52  1  0  0  0  0
 52 54  2  0  0  0  0
 52 53  2  0  0  0  0
 55  2  1  0  0  0  0
 55 56  1  0  0  0  0
 56 59  1  0  0  0  0
 57 59  2  0  0  0  0
 58 62  1  0  0  0  0
 59 58  1  0  0  0  0
 61 60  1  0  0  0  0
 62 63  1  0  0  0  0
 62 61  1  0  0  0  0
 63 61  1  0  0  0  0
M  END
>  <MODEL>
1

>  <REMARK>
 VINA RESULT:      -7.3      0.000      0.000
  Name = 
  15 active torsions:
  status: ('A' for Active; 'I' for Inactive)
    1  A    between atoms: C_3  and  C_41
    2  A    between atoms: C_10  and  C_11
    3  A    between atoms: C_10  and  C_21
    4  A    between atoms: C_10  and  O_62
    5  A    between atoms: C_11  and  O_63
    6  A    between atoms: C_13  and  C_41
    7  A    between atoms: C_13  and  C_44
    8  A    between atoms: N_14  and  N_28
    9  A    between atoms: O_18  and  C_22
   10  A    between atoms: O_18  and  P_30
   11  A    between atoms: C_22  and  C_39
   12  A    between atoms: C_39  and  C_52
   13  A    between atoms: C_43  and  O_63
   14  A    between atoms: N_46  and  C_53
   15  A    between atoms: C_52  and  O_62
                            x       y       z     vdW  Elec       q    Type
                         _______ _______ _______ _____ _____    ______ ____

>  <TORSDO>
F 15

$$$$
=
 OpenBabel11072409353D

 63 69  0  0  1  0  0  0  0  0999 V2000
  188.7570  176.8270  147.1290 O   0  0  0  0  0  0  0  0  0  0  0  0
  187.5100  176.7160  146.7080 C   0  0  0  0  0  0  0  0  0  0  0  0
  193.8130  173.4330  143.3720 C   0  0  2  0  0  3  0  0  0  0  0  0
  191.1410  173.0500  143.4030 C   0  0  2  0  0  3  0  0  0  0  0  0
  195.0820  175.0630  145.5430 C   0  0  0  0  0  1  0  0  0  0  0  0
  187.3880  176.7520  145.3560 N   0  0  0  0  0  0  0  0  0  0  0  0
  191.7330  177.0100  147.0930 C   0  0  0  0  0  0  0  0  0  0  0  0
  189.5950  174.4030  141.8980 C   0  0  0  0  0  2  0  0  0  0  0  0
  194.6430  173.8740  142.2250 C   0  0  2  0  0  3  0  0  0  0  0  0
  190.5080  177.1930  143.5530 O   0  0  0  0  0  0  0  0  0  0  0  0
  189.7270  173.5930  143.1800 C   0  0  0  0  0  2  0  0  0  0  0  0
  193.1280  173.8290  142.0460 C   0  0  1  0  0  0  0  0  0  0  0  0
  192.1900  174.2190  147.4910 O   0  0  0  0  0  0  0  0  0  0  0  0
  193.0060  174.2110  144.3970 C   0  0  2  0  0  3  0  0  0  0  0  0
  188.6640  176.9130  144.9630 C   0  0  0  0  0  0  0  0  0  0  0  0
  193.7780  174.2960  145.7180 C   0  0  2  0  0  3  0  0  0  0  0  0
  189.1230  177.0170  143.7130 C   0  0  0  0  0  0  0  0  0  0  0  0
  192.9340  176.3230  146.9380 O   0  0  0  0  0  0  0  0  0  0  0  0
  191.7630  173.5350  144.6050 O   0  0  0  0  0  0  0  0  0  0  0  0
  188.2660  176.9090  142.5720 N   0  0  0  0  0  0  0  0  0  0  0  0
  190.8140  177.0780  145.9460 C   0  0  0  0  0  0  0  0  0  0  0  0
  188.1300  174.6350  141.5530 C   0  0  2  0  0  3  0  0  0  0  0  0
  188.0170  174.9890  140.2090 O   0  0  0  0  0  1  0  0  0  0  0  0
  192.0280  172.7820  142.1410 C   0  0  0  0  0  2  0  0  0  0  0  0
  191.4490  177.5920  148.2530 C   0  0  0  0  0  2  0  0  0  0  0  0
  189.4870  176.9510  146.0470 C   0  0  0  0  0  0  0  0  0  0  0  0
  192.6220  175.2640  141.8670 C   0  0  0  0  0  1  0  0  0  0  0  0
  191.3380  177.2040  144.6490 O   0  0  0  0  0  0  0  0  0  0  0  0
  187.4540  175.6970  142.4310 C   0  0  0  0  0  2  0  0  0  0  0  0
  192.9440  174.9370  146.7800 C   0  0  0  0  0  0  0  0  0  0  0  0
  188.5490  177.7320  141.4030 C   0  0  0  0  0  2  0  0  0  0  0  0
  187.3550  178.0770  140.7680 O   0  0  0  0  0  1  0  0  0  0  0  0
  195.2700  172.6680  141.5300 C   0  0  2  0  0  3  0  0  0  0  0  0
  195.9510  173.0420  139.1920 O   0  0  0  0  0  1  0  0  0  0  0  0
  194.9390  172.5590  140.0370 C   0  0  1  0  0  3  0  0  0  0  0  0
  194.4490  171.2680  139.7020 O   0  0  0  0  0  0  0  0  0  0  0  0
  191.7070  173.0730  136.5490 O   0  0  0  0  0  1  0  0  0  0  0  0
  192.6740  170.1000  138.5290 C   0  0  1  0  0  3  0  0  0  0  0  0
  191.3270  170.6290  137.4640 P   0  0  2  0  0  0  0  0  0  0  0  0
  191.6310  170.2810  136.0240 O   0  0  0  0  0  0  0  0  0  0  0  0
  190.2770  172.9640  138.4480 C   0  0  0  0  0  1  0  0  0  0  0  0
  191.5030  172.4060  137.7550 C   0  0  2  0  0  0  0  0  0  0  0  0
  189.7350  169.9170  137.9640 C   0  0  0  0  0  1  0  0  0  0  0  0
  193.5900  171.3180  138.5880 C   0  0  1  0  0  3  0  0  0  0  0  0
  192.7210  172.5770  138.6570 C   0  0  0  0  0  2  0  0  0  0  0  0
  192.1730  169.7970  139.7990 O   0  0  0  0  0  1  0  0  0  0  0  0
  194.8780  171.4900  142.1760 O   0  0  0  0  0  0  0  0  0  0  0  0
  196.0680  170.8650  142.5630 C   0  0  0  0  0  2  0  0  0  0  0  0
  195.8140  169.3990  142.8720 C   0  0  0  0  0  2  0  0  0  0  0  0
  194.4990  169.2780  143.6160 C   0  0  0  0  0  2  0  0  0  0  0  0
  194.6520  168.4380  144.7190 O   0  0  0  0  0  0  0  0  0  0  0  0
  194.8930  169.4850  146.0310 P   0  0  0  0  0  0  0  0  0  0  0  0
  195.4960  168.9630  147.3140 O   0  0  0  0  0  0  0  0  0  0  0  0
  194.5070  170.9450  145.9210 O   0  0  0  0  0  0  0  0  0  0  0  0
  186.3420  176.5970  147.6220 C   0  0  0  0  0  2  0  0  0  0  0  0
  185.7360  177.9690  147.8530 C   0  0  0  0  0  2  0  0  0  0  0  0
  183.6820  177.9690  146.6470 O   0  0  0  0  0  0  0  0  0  0  0  0
  185.4380  179.1240  145.6360 N   0  0  0  0  0  2  0  0  0  0  0  0
  184.8790  178.3510  146.6970 C   0  0  0  0  0  0  0  0  0  0  0  0
  183.6700  178.5200  142.6990 O   0  0  0  0  0  1  0  0  0  0  0  0
  184.7460  178.4440  143.5840 C   0  0  2  0  0  3  0  0  0  0  0  0
  184.6670  179.5070  144.5300 N   0  0  0  0  0  0  0  0  0  0  0  0
  185.5730  179.5870  143.4140 N   0  0  0  0  0  2  0  0  0  0  0  0
  2  1  1  0  0  0  0
  2 55  1  0  0  0  0
  3 14  1  0  0  0  0
  4 19  1  0  0  0  0
  5 16  1  0  0  0  0
  6  2  2  0  0  0  0
  7 25  2  0  0  0  0
  8 11  1  0  0  0  0
  9  3  1  0  0  0  0
 10 17  1  0  0  0  0
 10 28  1  0  0  0  0
 11  4  1  0  0  0  0
 12 24  1  0  0  0  0
 12  9  1  0  0  0  0
 12  3  1  0  0  0  0
 14 19  1  0  0  0  0
 14 16  1  0  0  0  0
 15  6  1  0  0  0  0
 15 26  1  0  0  0  0
 16 30  1  0  0  0  0
 17 15  2  0  0  0  0
 18  7  1  0  0  0  0
 20 17  1  0  0  0  0
 21 26  2  0  0  0  0
 21  7  1  0  0  0  0
 22  8  1  0  0  0  0
 22 29  1  0  0  0  0
 23 22  1  0  0  0  0
 24  4  1  0  0  0  0
 26  1  1  0  0  0  0
 27 12  1  0  0  0  0
 28 21  1  0  0  0  0
 29 20  1  0  0  0  0
 30 18  1  0  0  0  0
 30 13  2  0  0  0  0
 31 20  1  0  0  0  0
 32 31  1  0  0  0  0
 33 47  1  0  0  0  0
 33  9  1  0  0  0  0
 34 35  1  0  0  0  0
 35 33  1  0  0  0  0
 36 35  1  0  0  0  0
 37 42  1  0  0  0  0
 38 44  1  0  0  0  0
 38 46  1  0  0  0  0
 39 42  1  0  0  0  0
 39 43  1  0  0  0  0
 39 38  1  0  0  0  0
 40 39  2  0  0  0  0
 42 41  1  0  0  0  0
 42 45  1  0  0  0  0
 44 45  1  0  0  0  0
 44 36  1  0  0  0  0
 47 48  1  0  0  0  0
 48 49  1  0  0  0  0
 49 50  1  0  0  0  0
 50 51  1  0  0  0  0
 51 52  1  0  0  0  0
 52 53  2  0  0  0  0
 54 52  2  0  0  0  0
 55 56  1  0  0  0  0
 57 59  2  0  0  0  0
 58 59  1  0  0  0  0
 59 56  1  0  0  0  0
 60 61  1  0  0  0  0
 61 62  1  0  0  0  0
 62 58  1  0  0  0  0
 63 61  1  0  0  0  0
 63 62  1  0  0  0  0
M  END
>  <MODEL>
2

>  <REMARK>
 VINA RESULT:      -7.2      2.116      4.924
  Name = 
  15 active torsions:
  status: ('A' for Active; 'I' for Inactive)
    1  A    between atoms: C_3  and  C_41
    2  A    between atoms: C_10  and  C_11
    3  A    between atoms: C_10  and  C_21
    4  A    between atoms: C_10  and  O_62
    5  A    between atoms: C_11  and  O_63
    6  A    between atoms: C_13  and  C_41
    7  A    between atoms: C_13  and  C_44
    8  A    between atoms: N_14  and  N_28
    9  A    between atoms: O_18  and  C_22
   10  A    between atoms: O_18  and  P_30
   11  A    between atoms: C_22  and  C_39
   12  A    between atoms: C_39  and  C_52
   13  A    between atoms: C_43  and  O_63
   14  A    between atoms: N_46  and  C_53
   15  A    between atoms: C_52  and  O_62
                            x       y       z     vdW  Elec       q    Type
                         _______ _______ _______ _____ _____    ______ ____

>  <TORSDO>
F 15

$$$$
=
 OpenBabel11072409353D

 63 69  0  0  1  0  0  0  0  0999 V2000
  187.8520  175.2850  140.9350 O   0  0  0  0  0  0  0  0  0  0  0  0
  187.6070  176.3740  141.6430 C   0  0  0  0  0  0  0  0  0  0  0  0
  194.5360  172.7360  141.0170 C   0  0  2  0  0  3  0  0  0  0  0  0
  193.6180  175.1850  141.6860 C   0  0  2  0  0  3  0  0  0  0  0  0
  192.7590  170.8770  139.4800 C   0  0  0  0  0  1  0  0  0  0  0  0
  188.2520  176.3990  142.8380 N   0  0  0  0  0  0  0  0  0  0  0  0
  189.0500  172.6900  140.0870 C   0  0  0  0  0  0  0  0  0  0  0  0
  192.7680  175.6820  144.0340 C   0  0  0  0  0  2  0  0  0  0  0  0
  195.1980  171.7520  141.9090 C   0  0  2  0  0  3  0  0  0  0  0  0
  190.2740  173.4690  143.5460 O   0  0  0  0  0  0  0  0  0  0  0  0
  192.7230  176.0650  142.5620 C   0  0  0  0  0  2  0  0  0  0  0  0
  194.6590  173.0390  142.5260 C   0  0  1  0  0  0  0  0  0  0  0  0
  191.0500  173.8420  138.4040 O   0  0  0  0  0  0  0  0  0  0  0  0
  193.0720  173.0320  140.7470 C   0  0  2  0  0  3  0  0  0  0  0  0
  188.9080  175.2260  142.8280 C   0  0  0  0  0  0  0  0  0  0  0  0
  192.6430  172.3940  139.4210 C   0  0  2  0  0  3  0  0  0  0  0  0
  189.7050  174.7320  143.7800 C   0  0  0  0  0  0  0  0  0  0  0  0
  190.1570  172.0500  139.5360 O   0  0  0  0  0  0  0  0  0  0  0  0
  192.8990  174.4500  140.6810 O   0  0  0  0  0  0  0  0  0  0  0  0
  190.0160  175.4610  144.9720 N   0  0  0  0  0  0  0  0  0  0  0  0
  189.2100  173.3750  141.3790 C   0  0  0  0  0  0  0  0  0  0  0  0
  192.1400  176.7690  144.8970 C   0  0  2  0  0  3  0  0  0  0  0  0
  192.5550  176.6140  146.2190 O   0  0  0  0  0  1  0  0  0  0  0  0
  194.8780  174.5340  142.3500 C   0  0  0  0  0  2  0  0  0  0  0  0
  187.8850  172.6600  139.4490 C   0  0  0  0  0  2  0  0  0  0  0  0
  188.6630  174.5610  141.6650 C   0  0  0  0  0  0  0  0  0  0  0  0
  193.4980  172.6750  143.4580 C   0  0  0  0  0  1  0  0  0  0  0  0
  190.0450  172.8130  142.3590 O   0  0  0  0  0  0  0  0  0  0  0  0
  190.6070  176.7950  144.8300 C   0  0  0  0  0  2  0  0  0  0  0  0
  191.2450  172.7900  139.0690 C   0  0  0  0  0  0  0  0  0  0  0  0
  190.1740  174.7270  146.2210 C   0  0  0  0  0  2  0  0  0  0  0  0
  189.5920  175.4450  147.2670 O   0  0  0  0  0  1  0  0  0  0  0  0
  196.7160  171.8530  141.7740 C   0  0  2  0  0  3  0  0  0  0  0  0
  196.4940  169.9540  140.2200 O   0  0  0  0  0  1  0  0  0  0  0  0
  197.3020  171.0310  140.6200 C   0  0  1  0  0  3  0  0  0  0  0  0
  197.7540  171.8630  139.5610 O   0  0  0  0  0  0  0  0  0  0  0  0
  196.4820  170.5910  135.3790 O   0  0  0  0  0  1  0  0  0  0  0  0
  196.1400  173.0120  138.1570 C   0  0  1  0  0  3  0  0  0  0  0  0
  195.6680  172.8690  136.4300 P   0  0  2  0  0  0  0  0  0  0  0  0
  194.3230  172.1880  136.3100 O   0  0  0  0  0  0  0  0  0  0  0  0
  197.9180  172.4340  134.9240 C   0  0  0  0  0  1  0  0  0  0  0  0
  197.0060  171.7600  135.9280 C   0  0  2  0  0  0  0  0  0  0  0  0
  195.6400  174.4770  135.5900 C   0  0  0  0  0  1  0  0  0  0  0  0
  196.9340  171.7360  138.4230 C   0  0  1  0  0  3  0  0  0  0  0  0
  197.7930  171.4330  137.1930 C   0  0  0  0  0  2  0  0  0  0  0  0
  196.9480  174.1400  138.3290 O   0  0  0  0  0  1  0  0  0  0  0  0
  197.3270  171.4660  142.9720 O   0  0  0  0  0  0  0  0  0  0  0  0
  196.5690  170.3900  143.4460 C   0  0  0  0  0  2  0  0  0  0  0  0
  196.7560  170.2360  144.9450 C   0  0  0  0  0  2  0  0  0  0  0  0
  196.0930  171.4070  145.6430 C   0  0  0  0  0  2  0  0  0  0  0  0
  197.0570  172.2000  146.2650 O   0  0  0  0  0  0  0  0  0  0  0  0
  196.7600  173.7700  145.6980 P   0  0  0  0  0  0  0  0  0  0  0  0
  197.7970  174.4810  144.8610 O   0  0  0  0  0  0  0  0  0  0  0  0
  195.4550  174.4640  146.0270 O   0  0  0  0  0  0  0  0  0  0  0  0
  186.6890  177.4560  141.1960 C   0  0  0  0  0  2  0  0  0  0  0  0
  186.8030  178.6390  142.1400 C   0  0  0  0  0  2  0  0  0  0  0  0
  184.4950  178.5930  142.7250 O   0  0  0  0  0  0  0  0  0  0  0  0
  185.9830  178.6570  144.5200 N   0  0  0  0  0  2  0  0  0  0  0  0
  185.6870  178.6170  143.1250 C   0  0  0  0  0  0  0  0  0  0  0  0
  184.7610  178.6550  147.7790 O   0  0  0  0  0  1  0  0  0  0  0  0
  185.5660  178.2500  146.7140 C   0  0  2  0  0  3  0  0  0  0  0  0
  184.9640  178.6370  145.4820 N   0  0  0  0  0  0  0  0  0  0  0  0
  184.8720  177.2780  145.9460 N   0  0  0  0  0  2  0  0  0  0  0  0
  1  2  1  0  0  0  0
  1 26  1  0  0  0  0
  2  6  2  0  0  0  0
  3  9  1  0  0  0  0
  3 12  1  0  0  0  0
  4 24  1  0  0  0  0
  4 11  1  0  0  0  0
  7 21  1  0  0  0  0
  8 22  1  0  0  0  0
  9 12  1  0  0  0  0
 10 17  1  0  0  0  0
 11  8  1  0  0  0  0
 12 27  1  0  0  0  0
 13 30  2  0  0  0  0
 14  3  1  0  0  0  0
 15  6  1  0  0  0  0
 15 17  2  0  0  0  0
 16  5  1  0  0  0  0
 16 14  1  0  0  0  0
 17 20  1  0  0  0  0
 18  7  1  0  0  0  0
 19 14  1  0  0  0  0
 19  4  1  0  0  0  0
 20 31  1  0  0  0  0
 21 26  2  0  0  0  0
 21 28  1  0  0  0  0
 22 23  1  0  0  0  0
 24 12  1  0  0  0  0
 25  7  2  0  0  0  0
 26 15  1  0  0  0  0
 28 10  1  0  0  0  0
 29 22  1  0  0  0  0
 29 20  1  0  0  0  0
 30 16  1  0  0  0  0
 30 18  1  0  0  0  0
 31 32  1  0  0  0  0
 33  9  1  0  0  0  0
 33 47  1  0  0  0  0
 34 35  1  0  0  0  0
 35 33  1  0  0  0  0
 36 35  1  0  0  0  0
 37 42  1  0  0  0  0
 38 46  1  0  0  0  0
 38 44  1  0  0  0  0
 39 38  1  0  0  0  0
 40 39  2  0  0  0  0
 41 42  1  0  0  0  0
 42 39  1  0  0  0  0
 42 45  1  0  0  0  0
 43 39  1  0  0  0  0
 44 36  1  0  0  0  0
 45 44  1  0  0  0  0
 47 48  1  0  0  0  0
 48 49  1  0  0  0  0
 49 50  1  0  0  0  0
 50 51  1  0  0  0  0
 52 54  2  0  0  0  0
 52 51  1  0  0  0  0
 53 52  2  0  0  0  0
 55  2  1  0  0  0  0
 55 56  1  0  0  0  0
 56 59  1  0  0  0  0
 57 59  2  0  0  0  0
 58 62  1  0  0  0  0
 59 58  1  0  0  0  0
 61 60  1  0  0  0  0
 62 63  1  0  0  0  0
 62 61  1  0  0  0  0
 63 61  1  0  0  0  0
M  END
>  <MODEL>
3

>  <REMARK>
 VINA RESULT:      -7.2      1.491      2.219
  Name = 
  15 active torsions:
  status: ('A' for Active; 'I' for Inactive)
    1  A    between atoms: C_3  and  C_41
    2  A    between atoms: C_10  and  C_11
    3  A    between atoms: C_10  and  C_21
    4  A    between atoms: C_10  and  O_62
    5  A    between atoms: C_11  and  O_63
    6  A    between atoms: C_13  and  C_41
    7  A    between atoms: C_13  and  C_44
    8  A    between atoms: N_14  and  N_28
    9  A    between atoms: O_18  and  C_22
   10  A    between atoms: O_18  and  P_30
   11  A    between atoms: C_22  and  C_39
   12  A    between atoms: C_39  and  C_52
   13  A    between atoms: C_43  and  O_63
   14  A    between atoms: N_46  and  C_53
   15  A    between atoms: C_52  and  O_62
                            x       y       z     vdW  Elec       q    Type
                         _______ _______ _______ _____ _____    ______ ____

>  <TORSDO>
F 15

$$$$
=
 OpenBabel11072409353D

 63 69  0  0  1  0  0  0  0  0999 V2000
  188.7520  176.8260  147.2460 O   0  0  0  0  0  0  0  0  0  0  0  0
  187.5040  176.7360  146.8220 C   0  0  0  0  0  0  0  0  0  0  0  0
  193.7840  173.5040  143.3950 C   0  0  2  0  0  3  0  0  0  0  0  0
  191.1100  173.1400  143.4140 C   0  0  2  0  0  3  0  0  0  0  0  0
  195.0650  175.0640  145.6100 C   0  0  0  0  0  1  0  0  0  0  0  0
  187.3830  176.8110  145.4720 N   0  0  0  0  0  0  0  0  0  0  0  0
  191.7290  176.9890  147.2160 C   0  0  0  0  0  0  0  0  0  0  0  0
  189.5730  174.5460  141.9490 C   0  0  0  0  0  2  0  0  0  0  0  0
  194.6170  173.9730  142.2600 C   0  0  2  0  0  3  0  0  0  0  0  0
  190.5050  177.2810  143.6820 O   0  0  0  0  0  0  0  0  0  0  0  0
  189.7000  173.6990  143.2080 C   0  0  0  0  0  2  0  0  0  0  0  0
  193.1020  173.9430  142.0800 C   0  0  1  0  0  0  0  0  0  0  0  0
  192.1660  174.1850  147.5340 O   0  0  0  0  0  0  0  0  0  0  0  0
  192.9830  174.2590  144.4410 C   0  0  2  0  0  3  0  0  0  0  0  0
  188.6590  176.9740  145.0840 C   0  0  0  0  0  0  0  0  0  0  0  0
  193.7550  174.3010  145.7640 C   0  0  2  0  0  3  0  0  0  0  0  0
  189.1200  177.1110  143.8370 C   0  0  0  0  0  0  0  0  0  0  0  0
  192.9260  176.2990  147.0410 O   0  0  0  0  0  0  0  0  0  0  0  0
  191.7350  173.5860  144.6300 O   0  0  0  0  0  0  0  0  0  0  0  0
  188.2620  177.0410  142.6940 N   0  0  0  0  0  0  0  0  0  0  0  0
  190.8100  177.0960  146.0710 C   0  0  0  0  0  0  0  0  0  0  0  0
  188.1100  174.7980  141.6100 C   0  0  2  0  0  3  0  0  0  0  0  0
  187.9990  175.1910  140.2770 O   0  0  0  0  0  1  0  0  0  0  0  0
  191.9950  172.9020  142.1450 C   0  0  0  0  0  2  0  0  0  0  0  0
  191.4490  177.5400  148.3920 C   0  0  0  0  0  2  0  0  0  0  0  0
  189.4830  176.9750  146.1690 C   0  0  0  0  0  0  0  0  0  0  0  0
  192.6060  175.3860  141.9410 C   0  0  0  0  0  1  0  0  0  0  0  0
  191.3360  177.2550  144.7780 O   0  0  0  0  0  0  0  0  0  0  0  0
  187.4410  175.8390  142.5190 C   0  0  0  0  0  2  0  0  0  0  0  0
  192.9250  174.9170  146.8440 C   0  0  0  0  0  0  0  0  0  0  0  0
  188.5510  177.8950  141.5490 C   0  0  0  0  0  2  0  0  0  0  0  0
  187.3590  178.2700  140.9270 O   0  0  0  0  0  1  0  0  0  0  0  0
  195.2360  172.7820  141.5310 C   0  0  2  0  0  3  0  0  0  0  0  0
  197.0550  172.0260  140.0510 O   0  0  0  0  0  1  0  0  0  0  0  0
  196.5090  173.1180  140.7440 C   0  0  1  0  0  3  0  0  0  0  0  0
  196.3490  174.2970  139.9680 O   0  0  0  0  0  0  0  0  0  0  0  0
  197.8510  174.1870  135.6730 O   0  0  0  0  0  1  0  0  0  0  0  0
  194.9610  174.1340  137.9830 C   0  0  1  0  0  3  0  0  0  0  0  0
  195.2760  174.3250  136.2250 P   0  0  2  0  0  0  0  0  0  0  0  0
  195.2840  172.9740  135.5450 O   0  0  0  0  0  0  0  0  0  0  0  0
  197.0190  176.4100  135.8520 C   0  0  0  0  0  1  0  0  0  0  0  0
  196.9520  174.9890  136.3740 C   0  0  2  0  0  0  0  0  0  0  0  0
  194.0760  175.4260  135.4270 C   0  0  0  0  0  1  0  0  0  0  0  0
  196.3550  174.0090  138.5900 C   0  0  1  0  0  3  0  0  0  0  0  0
  197.2920  174.9750  137.8610 C   0  0  0  0  0  2  0  0  0  0  0  0
  194.3130  175.2750  138.4680 O   0  0  0  0  0  1  0  0  0  0  0  0
  194.2950  172.2130  140.6650 O   0  0  0  0  0  0  0  0  0  0  0  0
  194.4050  170.8310  140.8540 C   0  0  0  0  0  2  0  0  0  0  0  0
  194.0830  170.0990  139.5630 C   0  0  0  0  0  2  0  0  0  0  0  0
  192.5770  170.0370  139.3980 C   0  0  0  0  0  2  0  0  0  0  0  0
  192.1520  171.0400  138.5270 O   0  0  0  0  0  0  0  0  0  0  0  0
  190.4610  171.0190  138.6350 P   0  0  0  0  0  0  0  0  0  0  0  0
  189.6960  169.7620  138.2890 O   0  0  0  0  0  0  0  0  0  0  0  0
  189.7100  172.2570  139.0780 O   0  0  0  0  0  0  0  0  0  0  0  0
  186.3350  176.5990  147.7330 C   0  0  0  0  0  2  0  0  0  0  0  0
  185.7140  177.9640  147.9700 C   0  0  0  0  0  2  0  0  0  0  0  0
  183.6750  177.9350  146.7380 O   0  0  0  0  0  0  0  0  0  0  0  0
  185.4140  179.1530  145.7720 N   0  0  0  0  0  2  0  0  0  0  0  0
  184.8620  178.3460  146.8110 C   0  0  0  0  0  0  0  0  0  0  0  0
  183.7660  178.5780  142.7610 O   0  0  0  0  0  1  0  0  0  0  0  0
  184.8220  178.5300  143.6710 C   0  0  2  0  0  3  0  0  0  0  0  0
  184.6480  179.5380  144.6630 N   0  0  0  0  0  0  0  0  0  0  0  0
  185.5740  179.7310  143.5790 N   0  0  0  0  0  2  0  0  0  0  0  0
  2  1  1  0  0  0  0
  2 55  1  0  0  0  0
  3 14  1  0  0  0  0
  4 19  1  0  0  0  0
  5 16  1  0  0  0  0
  6  2  2  0  0  0  0
  7 25  2  0  0  0  0
  8 11  1  0  0  0  0
  9  3  1  0  0  0  0
 10 17  1  0  0  0  0
 10 28  1  0  0  0  0
 11  4  1  0  0  0  0
 12 24  1  0  0  0  0
 12  9  1  0  0  0  0
 12  3  1  0  0  0  0
 14 19  1  0  0  0  0
 14 16  1  0  0  0  0
 15  6  1  0  0  0  0
 15 26  1  0  0  0  0
 16 30  1  0  0  0  0
 17 15  2  0  0  0  0
 18  7  1  0  0  0  0
 20 17  1  0  0  0  0
 21 26  2  0  0  0  0
 21  7  1  0  0  0  0
 22  8  1  0  0  0  0
 22 29  1  0  0  0  0
 23 22  1  0  0  0  0
 24  4  1  0  0  0  0
 26  1  1  0  0  0  0
 27 12  1  0  0  0  0
 28 21  1  0  0  0  0
 29 20  1  0  0  0  0
 30 18  1  0  0  0  0
 30 13  2  0  0  0  0
 31 20  1  0  0  0  0
 32 31  1  0  0  0  0
 33  9  1  0  0  0  0
 34 35  1  0  0  0  0
 35 33  1  0  0  0  0
 36 35  1  0  0  0  0
 37 42  1  0  0  0  0
 38 46  1  0  0  0  0
 38 44  1  0  0  0  0
 39 42  1  0  0  0  0
 39 38  1  0  0  0  0
 40 39  2  0  0  0  0
 41 42  1  0  0  0  0
 42 45  1  0  0  0  0
 43 39  1  0  0  0  0
 44 36  1  0  0  0  0
 45 44  1  0  0  0  0
 47 48  1  0  0  0  0
 47 33  1  0  0  0  0
 49 48  1  0  0  0  0
 50 49  1  0  0  0  0
 51 52  1  0  0  0  0
 51 50  1  0  0  0  0
 52 54  2  0  0  0  0
 53 52  2  0  0  0  0
 55 56  1  0  0  0  0
 57 59  2  0  0  0  0
 58 59  1  0  0  0  0
 59 56  1  0  0  0  0
 60 61  1  0  0  0  0
 61 62  1  0  0  0  0
 62 58  1  0  0  0  0
 63 61  1  0  0  0  0
 63 62  1  0  0  0  0
M  END
>  <MODEL>
4

>  <REMARK>
 VINA RESULT:      -6.7      2.693      5.333
  Name = 
  15 active torsions:
  status: ('A' for Active; 'I' for Inactive)
    1  A    between atoms: C_3  and  C_41
    2  A    between atoms: C_10  and  C_11
    3  A    between atoms: C_10  and  C_21
    4  A    between atoms: C_10  and  O_62
    5  A    between atoms: C_11  and  O_63
    6  A    between atoms: C_13  and  C_41
    7  A    between atoms: C_13  and  C_44
    8  A    between atoms: N_14  and  N_28
    9  A    between atoms: O_18  and  C_22
   10  A    between atoms: O_18  and  P_30
   11  A    between atoms: C_22  and  C_39
   12  A    between atoms: C_39  and  C_52
   13  A    between atoms: C_43  and  O_63
   14  A    between atoms: N_46  and  C_53
   15  A    between atoms: C_52  and  O_62
                            x       y       z     vdW  Elec       q    Type
                         _______ _______ _______ _____ _____    ______ ____

>  <TORSDO>
F 15

$$$$
=
 OpenBabel11072409353D

 63 69  0  0  1  0  0  0  0  0999 V2000
  187.8650  175.3250  142.0810 O   0  0  0  0  0  0  0  0  0  0  0  0
  187.7460  176.4350  142.7880 C   0  0  0  0  0  0  0  0  0  0  0  0
  194.4770  172.8410  140.9390 C   0  0  2  0  0  3  0  0  0  0  0  0
  193.6680  175.3030  141.6940 C   0  0  2  0  0  3  0  0  0  0  0  0
  192.4630  170.9130  139.8400 C   0  0  0  0  0  1  0  0  0  0  0  0
  188.6100  176.5080  143.8320 N   0  0  0  0  0  0  0  0  0  0  0  0
  188.9160  172.7130  141.1000 C   0  0  0  0  0  0  0  0  0  0  0  0
  193.2840  175.8740  144.1460 C   0  0  0  0  0  2  0  0  0  0  0  0
  195.3150  171.8950  141.7150 C   0  0  2  0  0  3  0  0  0  0  0  0
  190.7780  173.6230  144.2260 O   0  0  0  0  0  0  0  0  0  0  0  0
  192.9470  176.2060  142.6990 C   0  0  0  0  0  2  0  0  0  0  0  0
  194.8860  173.1980  142.3840 C   0  0  1  0  0  0  0  0  0  0  0  0
  190.5300  173.8230  139.0220 O   0  0  0  0  0  0  0  0  0  0  0  0
  192.9830  173.1140  140.9500 C   0  0  2  0  0  3  0  0  0  0  0  0
  189.2710  175.3410  143.7330 C   0  0  0  0  0  0  0  0  0  0  0  0
  192.3140  172.4260  139.7560 C   0  0  2  0  0  3  0  0  0  0  0  0
  190.2460  174.8880  144.5260 C   0  0  0  0  0  0  0  0  0  0  0  0
  189.9040  172.0640  140.3650 O   0  0  0  0  0  0  0  0  0  0  0  0
  192.7790  174.5270  140.8730 O   0  0  0  0  0  0  0  0  0  0  0  0
  190.7720  175.6620  145.6090 N   0  0  0  0  0  0  0  0  0  0  0  0
  189.3140  173.4440  142.3130 C   0  0  0  0  0  0  0  0  0  0  0  0
  192.8200  176.9860  145.0780 C   0  0  2  0  0  3  0  0  0  0  0  0
  193.4860  176.8810  146.2980 O   0  0  0  0  0  1  0  0  0  0  0  0
  195.0430  174.6880  142.1200 C   0  0  0  0  0  2  0  0  0  0  0  0
  187.6490  172.6500  140.7050 C   0  0  0  0  0  2  0  0  0  0  0  0
  188.8140  174.6340  142.6620 C   0  0  0  0  0  0  0  0  0  0  0  0
  193.9360  172.8570  143.5370 C   0  0  0  0  0  1  0  0  0  0  0  0
  190.3330  172.9240  143.1290 O   0  0  0  0  0  0  0  0  0  0  0  0
  191.3020  176.9950  145.3120 C   0  0  0  0  0  2  0  0  0  0  0  0
  190.8690  172.7960  139.6710 C   0  0  0  0  0  0  0  0  0  0  0  0
  191.1810  174.9730  146.8270 C   0  0  0  0  0  2  0  0  0  0  0  0
  190.9420  175.7890  147.9340 O   0  0  0  0  0  1  0  0  0  0  0  0
  196.7750  172.0050  141.2830 C   0  0  2  0  0  3  0  0  0  0  0  0
  196.1210  170.2350  139.7000 O   0  0  0  0  0  1  0  0  0  0  0  0
  197.1630  171.0720  140.1300 C   0  0  1  0  0  3  0  0  0  0  0  0
  197.8310  171.7740  139.0910 O   0  0  0  0  0  0  0  0  0  0  0  0
  196.2930  171.7050  134.8070 O   0  0  0  0  0  1  0  0  0  0  0  0
  196.3410  173.4100  138.0910 C   0  0  1  0  0  3  0  0  0  0  0  0
  195.8080  173.7430  136.4090 P   0  0  2  0  0  0  0  0  0  0  0  0
  194.3830  173.2760  136.2090 O   0  0  0  0  0  0  0  0  0  0  0  0
  197.9410  173.4190  134.7160 C   0  0  0  0  0  1  0  0  0  0  0  0
  196.9780  172.6370  135.5850 C   0  0  2  0  0  0  0  0  0  0  0  0
  195.9640  175.4970  135.9730 C   0  0  0  0  0  1  0  0  0  0  0  0
  196.9710  172.0230  138.0040 C   0  0  1  0  0  3  0  0  0  0  0  0
  197.7500  171.9240  136.6910 C   0  0  0  0  0  2  0  0  0  0  0  0
  197.2920  174.3600  138.4770 O   0  0  0  0  0  1  0  0  0  0  0  0
  197.6150  171.7600  142.3760 O   0  0  0  0  0  0  0  0  0  0  0  0
  197.1130  170.6010  142.9780 C   0  0  0  0  0  2  0  0  0  0  0  0
  197.5560  170.5300  144.4290 C   0  0  0  0  0  2  0  0  0  0  0  0
  196.5180  171.2210  145.2910 C   0  0  0  0  0  2  0  0  0  0  0  0
  197.1470  172.0300  146.2370 O   0  0  0  0  0  0  0  0  0  0  0  0
  196.9680  173.6090  145.6460 P   0  0  0  0  0  0  0  0  0  0  0  0
  195.8360  174.4780  146.1420 O   0  0  0  0  0  0  0  0  0  0  0  0
  197.9410  174.1540  144.6220 O   0  0  0  0  0  0  0  0  0  0  0  0
  186.7410  177.4920  142.4940 C   0  0  0  0  0  2  0  0  0  0  0  0
  185.4610  177.2010  143.2560 C   0  0  0  0  0  2  0  0  0  0  0  0
  183.6600  178.7450  143.4780 O   0  0  0  0  0  0  0  0  0  0  0  0
  184.0400  177.9510  141.3180 N   0  0  0  0  0  2  0  0  0  0  0  0
  184.3440  178.0210  142.7100 C   0  0  0  0  0  0  0  0  0  0  0  0
  180.8150  179.2600  141.2580 O   0  0  0  0  0  1  0  0  0  0  0  0
  181.7950  178.2750  141.3900 C   0  0  2  0  0  3  0  0  0  0  0  0
  182.9990  178.7060  140.7610 N   0  0  0  0  0  0  0  0  0  0  0  0
  182.1250  177.7680  140.1050 N   0  0  0  0  0  2  0  0  0  0  0  0
  1 26  1  0  0  0  0
  1  2  1  0  0  0  0
  2  6  2  0  0  0  0
  3 14  1  0  0  0  0
  3  9  1  0  0  0  0
  3 12  1  0  0  0  0
  4 24  1  0  0  0  0
  4 11  1  0  0  0  0
  7 21  1  0  0  0  0
  8 22  1  0  0  0  0
  9 12  1  0  0  0  0
 10 17  1  0  0  0  0
 11  8  1  0  0  0  0
 12 27  1  0  0  0  0
 13 30  2  0  0  0  0
 15  6  1  0  0  0  0
 15 17  2  0  0  0  0
 16  5  1  0  0  0  0
 16 14  1  0  0  0  0
 17 20  1  0  0  0  0
 18  7  1  0  0  0  0
 19 14  1  0  0  0  0
 19  4  1  0  0  0  0
 20 31  1  0  0  0  0
 21 26  2  0  0  0  0
 21 28  1  0  0  0  0
 22 29  1  0  0  0  0
 22 23  1  0  0  0  0
 24 12  1  0  0  0  0
 25  7  2  0  0  0  0
 26 15  1  0  0  0  0
 28 10  1  0  0  0  0
 29 20  1  0  0  0  0
 30 16  1  0  0  0  0
 30 18  1  0  0  0  0
 31 32  1  0  0  0  0
 33  9  1  0  0  0  0
 33 47  1  0  0  0  0
 34 35  1  0  0  0  0
 35 33  1  0  0  0  0
 36 35  1  0  0  0  0
 37 42  1  0  0  0  0
 38 46  1  0  0  0  0
 39 38  1  0  0  0  0
 40 39  2  0  0  0  0
 41 42  1  0  0  0  0
 42 39  1  0  0  0  0
 42 45  1  0  0  0  0
 43 39  1  0  0  0  0
 44 38  1  0  0  0  0
 44 36  1  0  0  0  0
 45 44  1  0  0  0  0
 47 48  1  0  0  0  0
 48 49  1  0  0  0  0
 49 50  1  0  0  0  0
 50 51  1  0  0  0  0
 52 53  2  0  0  0  0
 52 51  1  0  0  0  0
 54 52  2  0  0  0  0
 55  2  1  0  0  0  0
 55 56  1  0  0  0  0
 58 59  1  0  0  0  0
 59 56  1  0  0  0  0
 59 57  2  0  0  0  0
 60 61  1  0  0  0  0
 62 58  1  0  0  0  0
 62 61  1  0  0  0  0
 63 62  1  0  0  0  0
 63 61  1  0  0  0  0
M  END
>  <MODEL>
5

>  <REMARK>
 VINA RESULT:      -6.6      2.027      2.843
  Name = 
  15 active torsions:
  status: ('A' for Active; 'I' for Inactive)
    1  A    between atoms: C_3  and  C_41
    2  A    between atoms: C_10  and  C_11
    3  A    between atoms: C_10  and  C_21
    4  A    between atoms: C_10  and  O_62
    5  A    between atoms: C_11  and  O_63
    6  A    between atoms: C_13  and  C_41
    7  A    between atoms: C_13  and  C_44
    8  A    between atoms: N_14  and  N_28
    9  A    between atoms: O_18  and  C_22
   10  A    between atoms: O_18  and  P_30
   11  A    between atoms: C_22  and  C_39
   12  A    between atoms: C_39  and  C_52
   13  A    between atoms: C_43  and  O_63
   14  A    between atoms: N_46  and  C_53
   15  A    between atoms: C_52  and  O_62
                            x       y       z     vdW  Elec       q    Type
                         _______ _______ _______ _____ _____    ______ ____

>  <TORSDO>
F 15

$$$$
=
 OpenBabel11072409353D

 63 69  0  0  1  0  0  0  0  0999 V2000
  191.0460  174.9040  145.3160 O   0  0  0  0  0  0  0  0  0  0  0  0
  191.6240  176.0320  145.6920 C   0  0  0  0  0  0  0  0  0  0  0  0
  193.5140  171.7610  139.3810 C   0  0  2  0  0  3  0  0  0  0  0  0
  193.8170  174.3030  140.2380 C   0  0  2  0  0  3  0  0  0  0  0  0
  191.4350  170.0240  140.6620 C   0  0  0  0  0  1  0  0  0  0  0  0
  192.9700  176.0360  145.5180 N   0  0  0  0  0  0  0  0  0  0  0  0
  190.6770  172.1850  144.1500 C   0  0  0  0  0  0  0  0  0  0  0  0
  195.7050  174.9490  141.8200 C   0  0  0  0  0  2  0  0  0  0  0  0
  194.5800  170.7490  139.1800 C   0  0  2  0  0  3  0  0  0  0  0  0
  194.3470  172.9580  144.1740 O   0  0  0  0  0  0  0  0  0  0  0  0
  194.3160  175.2890  141.2970 C   0  0  0  0  0  2  0  0  0  0  0  0
  194.9680  172.0990  139.7780 C   0  0  1  0  0  0  0  0  0  0  0  0
  189.8270  173.0970  141.5800 O   0  0  0  0  0  0  0  0  0  0  0  0
  192.7370  172.1810  140.6170 C   0  0  2  0  0  3  0  0  0  0  0  0
  193.1930  174.8080  145.0180 C   0  0  0  0  0  0  0  0  0  0  0  0
  191.3440  171.5430  140.6020 C   0  0  2  0  0  3  0  0  0  0  0  0
  194.3660  174.2740  144.6650 C   0  0  0  0  0  0  0  0  0  0  0  0
  190.5570  171.4300  142.9860 O   0  0  0  0  0  0  0  0  0  0  0  0
  192.6180  173.6050  140.6170 O   0  0  0  0  0  0  0  0  0  0  0  0
  195.5920  175.0090  144.7320 N   0  0  0  0  0  0  0  0  0  0  0  0
  191.9430  172.8930  144.3970 C   0  0  0  0  0  0  0  0  0  0  0  0
  196.2880  176.1160  142.6060 C   0  0  2  0  0  3  0  0  0  0  0  0
  197.6710  175.9660  142.7080 O   0  0  0  0  0  1  0  0  0  0  0  0
  194.8870  173.5620  139.3670 C   0  0  0  0  0  2  0  0  0  0  0  0
  189.6640  172.2410  145.0070 C   0  0  0  0  0  2  0  0  0  0  0  0
  192.0170  174.1320  144.8930 C   0  0  0  0  0  0  0  0  0  0  0  0
  195.4200  171.8720  141.2240 C   0  0  0  0  0  1  0  0  0  0  0  0
  193.1550  172.2880  144.0260 O   0  0  0  0  0  0  0  0  0  0  0  0
  195.6760  176.2790  144.0040 C   0  0  0  0  0  2  0  0  0  0  0  0
  190.5150  172.0530  141.7370 C   0  0  0  0  0  0  0  0  0  0  0  0
  196.8120  174.3040  145.1030 C   0  0  0  0  0  2  0  0  0  0  0  0
  196.5560  173.4510  146.1780 O   0  0  0  0  0  1  0  0  0  0  0  0
  194.9990  170.7080  137.7120 C   0  0  2  0  0  3  0  0  0  0  0  0
  193.5110  168.7470  137.6240 O   0  0  0  0  0  1  0  0  0  0  0  0
  194.2330  169.6830  136.8670 C   0  0  1  0  0  3  0  0  0  0  0  0
  193.4920  170.3100  135.8300 O   0  0  0  0  0  0  0  0  0  0  0  0
  189.3020  171.6010  137.0530 O   0  0  0  0  0  1  0  0  0  0  0  0
  192.7080  172.6010  136.0060 C   0  0  1  0  0  3  0  0  0  0  0  0
  191.0880  173.3490  136.2100 P   0  0  2  0  0  0  0  0  0  0  0  0
  190.9240  173.8640  137.6220 O   0  0  0  0  0  0  0  0  0  0  0  0
  189.2660  171.9600  134.7010 C   0  0  0  0  0  1  0  0  0  0  0  0
  190.1170  171.8450  135.9490 C   0  0  2  0  0  0  0  0  0  0  0  0
  190.7890  174.6800  135.0140 C   0  0  0  0  0  1  0  0  0  0  0  0
  192.4750  171.1320  136.3500 C   0  0  1  0  0  3  0  0  0  0  0  0
  191.1190  170.7080  135.7800 C   0  0  0  0  0  2  0  0  0  0  0  0
  193.1200  172.7350  134.6760 O   0  0  0  0  0  1  0  0  0  0  0  0
  196.3720  170.4500  137.6160 O   0  0  0  0  0  0  0  0  0  0  0  0
  196.7460  170.8990  136.3450 C   0  0  0  0  0  2  0  0  0  0  0  0
  196.3740  172.3620  136.1760 C   0  0  0  0  0  2  0  0  0  0  0  0
  197.6110  173.2100  136.4010 C   0  0  0  0  0  2  0  0  0  0  0  0
  197.6780  174.2170  135.4390 O   0  0  0  0  0  0  0  0  0  0  0  0
  197.4740  175.6590  136.3070 P   0  0  0  0  0  0  0  0  0  0  0  0
  196.8210  176.8520  135.6480 O   0  0  0  0  0  0  0  0  0  0  0  0
  197.9410  175.7570  137.7430 O   0  0  0  0  0  0  0  0  0  0  0  0
  190.8810  177.1780  146.2810 C   0  0  0  0  0  2  0  0  0  0  0  0
  189.3900  176.8910  146.2410 C   0  0  0  0  0  2  0  0  0  0  0  0
  189.5630  177.8320  144.0600 O   0  0  0  0  0  0  0  0  0  0  0  0
  187.3990  177.3210  144.7640 N   0  0  0  0  0  2  0  0  0  0  0  0
  188.8120  177.3680  144.9550 C   0  0  0  0  0  0  0  0  0  0  0  0
  184.7180  178.3270  142.7840 O   0  0  0  0  0  1  0  0  0  0  0  0
  185.4120  177.5170  143.6840 C   0  0  2  0  0  3  0  0  0  0  0  0
  186.8110  177.7590  143.5690 N   0  0  0  0  0  0  0  0  0  0  0  0
  186.2170  176.5970  142.9610 N   0  0  0  0  0  2  0  0  0  0  0  0
  1  2  1  0  0  0  0
  2 55  1  0  0  0  0
  3 12  1  0  0  0  0
  3 14  1  0  0  0  0
  4 19  1  0  0  0  0
  4 11  1  0  0  0  0
  6  2  2  0  0  0  0
  7 21  1  0  0  0  0
  7 25  2  0  0  0  0
  8 22  1  0  0  0  0
  9  3  1  0  0  0  0
  9 12  1  0  0  0  0
 10 17  1  0  0  0  0
 11  8  1  0  0  0  0
 12 27  1  0  0  0  0
 13 30  2  0  0  0  0
 15  6  1  0  0  0  0
 16 14  1  0  0  0  0
 16  5  1  0  0  0  0
 16 30  1  0  0  0  0
 17 20  1  0  0  0  0
 17 15  2  0  0  0  0
 18  7  1  0  0  0  0
 19 14  1  0  0  0  0
 20 31  1  0  0  0  0
 21 26  2  0  0  0  0
 22 23  1  0  0  0  0
 22 29  1  0  0  0  0
 24 12  1  0  0  0  0
 24  4  1  0  0  0  0
 26 15  1  0  0  0  0
 26  1  1  0  0  0  0
 28 10  1  0  0  0  0
 28 21  1  0  0  0  0
 29 20  1  0  0  0  0
 30 18  1  0  0  0  0
 31 32  1  0  0  0  0
 33  9  1  0  0  0  0
 35 34  1  0  0  0  0
 35 33  1  0  0  0  0
 36 44  1  0  0  0  0
 36 35  1  0  0  0  0
 38 39  1  0  0  0  0
 38 44  1  0  0  0  0
 39 40  2  0  0  0  0
 41 42  1  0  0  0  0
 42 39  1  0  0  0  0
 42 37  1  0  0  0  0
 43 39  1  0  0  0  0
 45 42  1  0  0  0  0
 45 44  1  0  0  0  0
 46 38  1  0  0  0  0
 47 33  1  0  0  0  0
 48 47  1  0  0  0  0
 49 48  1  0  0  0  0
 49 50  1  0  0  0  0
 51 52  1  0  0  0  0
 51 50  1  0  0  0  0
 52 54  2  0  0  0  0
 53 52  2  0  0  0  0
 56 55  1  0  0  0  0
 57 59  2  0  0  0  0
 58 59  1  0  0  0  0
 59 56  1  0  0  0  0
 60 61  1  0  0  0  0
 62 61  1  0  0  0  0
 62 58  1  0  0  0  0
 63 62  1  0  0  0  0
 63 61  1  0  0  0  0
M  END
>  <MODEL>
6

>  <REMARK>
 VINA RESULT:      -6.4      3.016      6.193
  Name = 
  15 active torsions:
  status: ('A' for Active; 'I' for Inactive)
    1  A    between atoms: C_3  and  C_41
    2  A    between atoms: C_10  and  C_11
    3  A    between atoms: C_10  and  C_21
    4  A    between atoms: C_10  and  O_62
    5  A    between atoms: C_11  and  O_63
    6  A    between atoms: C_13  and  C_41
    7  A    between atoms: C_13  and  C_44
    8  A    between atoms: N_14  and  N_28
    9  A    between atoms: O_18  and  C_22
   10  A    between atoms: O_18  and  P_30
   11  A    between atoms: C_22  and  C_39
   12  A    between atoms: C_39  and  C_52
   13  A    between atoms: C_43  and  O_63
   14  A    between atoms: N_46  and  C_53
   15  A    between atoms: C_52  and  O_62
                            x       y       z     vdW  Elec       q    Type
                         _______ _______ _______ _____ _____    ______ ____

>  <TORSDO>
F 15

$$$$
=
 OpenBabel11072409353D

 63 69  0  0  1  0  0  0  0  0999 V2000
  197.3430  170.8550  140.0740 O   0  0  0  0  0  0  0  0  0  0  0  0
  197.3180  169.5600  140.3360 C   0  0  0  0  0  0  0  0  0  0  0  0
  192.9070  175.0490  143.8060 C   0  0  2  0  0  3  0  0  0  0  0  0
  192.8410  172.3780  143.4280 C   0  0  2  0  0  3  0  0  0  0  0  0
  194.6650  176.7310  142.0560 C   0  0  0  0  0  1  0  0  0  0  0  0
  197.1820  169.2760  141.6560 N   0  0  0  0  0  0  0  0  0  0  0  0
  197.1770  173.8070  140.4610 C   0  0  0  0  0  0  0  0  0  0  0  0
  194.1420  170.7960  144.9410 C   0  0  0  0  0  2  0  0  0  0  0  0
  193.0890  175.7690  145.0910 C   0  0  2  0  0  3  0  0  0  0  0  0
  197.0100  172.1750  143.8330 O   0  0  0  0  0  0  0  0  0  0  0  0
  193.5060  171.0060  143.5740 C   0  0  0  0  0  2  0  0  0  0  0  0
  193.1930  174.2470  145.0940 C   0  0  1  0  0  0  0  0  0  0  0  0
  194.4330  174.0350  139.7010 O   0  0  0  0  0  0  0  0  0  0  0  0
  193.9060  174.4560  142.8280 C   0  0  2  0  0  3  0  0  0  0  0  0
  197.1400  170.5020  142.2050 C   0  0  0  0  0  0  0  0  0  0  0  0
  194.0830  175.3910  141.6270 C   0  0  2  0  0  3  0  0  0  0  0  0
  197.0180  170.8100  143.4990 C   0  0  0  0  0  0  0  0  0  0  0  0
  196.3420  174.9070  140.6410 O   0  0  0  0  0  0  0  0  0  0  0  0
  193.4120  173.1890  142.3870 O   0  0  0  0  0  0  0  0  0  0  0  0
  196.8520  169.8120  144.5110 N   0  0  0  0  0  0  0  0  0  0  0  0
  197.1910  172.7640  141.4980 C   0  0  0  0  0  0  0  0  0  0  0  0
  194.4900  169.3290  145.1560 C   0  0  2  0  0  3  0  0  0  0  0  0
  194.6670  169.0840  146.5180 O   0  0  0  0  0  1  0  0  0  0  0  0
  192.3020  173.0700  144.7250 C   0  0  0  0  0  2  0  0  0  0  0  0
  197.9410  173.7280  139.3770 C   0  0  0  0  0  2  0  0  0  0  0  0
  197.2320  171.4540  141.2350 C   0  0  0  0  0  0  0  0  0  0  0  0
  194.6380  173.8640  145.4310 C   0  0  0  0  0  1  0  0  0  0  0  0
  197.0770  173.1330  142.8490 O   0  0  0  0  0  0  0  0  0  0  0  0
  195.7340  168.8740  144.3790 C   0  0  0  0  0  2  0  0  0  0  0  0
  194.9550  174.7620  140.5890 C   0  0  0  0  0  0  0  0  0  0  0  0
  197.4690  170.0260  145.8140 C   0  0  0  0  0  2  0  0  0  0  0  0
  197.8000  168.7970  146.3880 O   0  0  0  0  0  1  0  0  0  0  0  0
  191.7340  176.1840  145.6600 C   0  0  2  0  0  3  0  0  0  0  0  0
  191.3660  178.4650  144.8050 O   0  0  0  0  0  1  0  0  0  0  0  0
  190.9340  177.1300  144.7560 C   0  0  1  0  0  3  0  0  0  0  0  0
  190.7830  176.6000  143.4470 O   0  0  0  0  0  0  0  0  0  0  0  0
  187.5010  173.7600  142.0750 O   0  0  0  0  0  1  0  0  0  0  0  0
  188.5010  177.2250  142.9040 C   0  0  1  0  0  3  0  0  0  0  0  0
  187.1300  176.3710  142.1200 P   0  0  2  0  0  0  0  0  0  0  0  0
  186.0950  175.9830  143.1520 O   0  0  0  0  0  0  0  0  0  0  0  0
  188.0920  174.8550  140.0460 C   0  0  0  0  0  1  0  0  0  0  0  0
  188.0630  174.9260  141.5590 C   0  0  2  0  0  0  0  0  0  0  0  0
  186.3680  177.3580  140.8020 C   0  0  0  0  0  1  0  0  0  0  0  0
  189.4810  176.1050  143.2410 C   0  0  1  0  0  3  0  0  0  0  0  0
  189.4830  175.0970  142.0890 C   0  0  0  0  0  2  0  0  0  0  0  0
  189.0720  178.1240  141.9970 O   0  0  0  0  0  1  0  0  0  0  0  0
  191.9080  176.7830  146.9140 O   0  0  0  0  0  0  0  0  0  0  0  0
  190.8040  176.3820  147.6730 C   0  0  0  0  0  2  0  0  0  0  0  0
  190.0730  175.2470  146.9760 C   0  0  0  0  0  2  0  0  0  0  0  0
  188.5910  175.3630  147.2760 C   0  0  0  0  0  2  0  0  0  0  0  0
  187.9240  175.9050  146.1780 O   0  0  0  0  0  0  0  0  0  0  0  0
  186.8000  176.9850  146.8430 P   0  0  0  0  0  0  0  0  0  0  0  0
  185.3250  176.6570  146.8120 O   0  0  0  0  0  0  0  0  0  0  0  0
  187.2680  178.2810  147.4710 O   0  0  0  0  0  0  0  0  0  0  0  0
  197.4610  168.5090  139.2920 C   0  0  0  0  0  2  0  0  0  0  0  0
  196.2270  168.5030  138.4070 C   0  0  0  0  0  2  0  0  0  0  0  0
  197.4870  169.4650  136.6290 O   0  0  0  0  0  0  0  0  0  0  0  0
  195.3560  170.3590  136.9470 N   0  0  0  0  0  2  0  0  0  0  0  0
  196.4070  169.4500  137.2730 C   0  0  0  0  0  0  0  0  0  0  0  0
  195.8150  173.5290  135.5860 O   0  0  0  0  0  1  0  0  0  0  0  0
  195.2570  172.5660  136.4270 C   0  0  2  0  0  3  0  0  0  0  0  0
  195.4820  171.2670  135.8870 N   0  0  0  0  0  0  0  0  0  0  0  0
  194.2000  171.9060  135.7470 N   0  0  0  0  0  2  0  0  0  0  0  0
  1  2  1  0  0  0  0
  1 26  1  0  0  0  0
  2  6  2  0  0  0  0
  3  9  1  0  0  0  0
  3 12  1  0  0  0  0
  4 11  1  0  0  0  0
  4 24  1  0  0  0  0
  6 15  1  0  0  0  0
  7 18  1  0  0  0  0
  7 21  1  0  0  0  0
  8 22  1  0  0  0  0
  9 12  1  0  0  0  0
  9 33  1  0  0  0  0
 11  8  1  0  0  0  0
 12 27  1  0  0  0  0
 13 30  2  0  0  0  0
 14  3  1  0  0  0  0
 15 17  2  0  0  0  0
 16  5  1  0  0  0  0
 16 14  1  0  0  0  0
 17 10  1  0  0  0  0
 17 20  1  0  0  0  0
 19 14  1  0  0  0  0
 19  4  1  0  0  0  0
 20 31  1  0  0  0  0
 21 28  1  0  0  0  0
 22 23  1  0  0  0  0
 24 12  1  0  0  0  0
 25  7  2  0  0  0  0
 26 21  2  0  0  0  0
 26 15  1  0  0  0  0
 28 10  1  0  0  0  0
 29 20  1  0  0  0  0
 29 22  1  0  0  0  0
 30 18  1  0  0  0  0
 30 16  1  0  0  0  0
 31 32  1  0  0  0  0
 33 47  1  0  0  0  0
 35 34  1  0  0  0  0
 35 33  1  0  0  0  0
 36 35  1  0  0  0  0
 38 44  1  0  0  0  0
 39 38  1  0  0  0  0
 39 40  2  0  0  0  0
 41 42  1  0  0  0  0
 42 37  1  0  0  0  0
 42 45  1  0  0  0  0
 42 39  1  0  0  0  0
 43 39  1  0  0  0  0
 44 36  1  0  0  0  0
 45 44  1  0  0  0  0
 46 38  1  0  0  0  0
 47 48  1  0  0  0  0
 49 50  1  0  0  0  0
 49 48  1  0  0  0  0
 51 52  1  0  0  0  0
 51 50  1  0  0  0  0
 52 54  2  0  0  0  0
 53 52  2  0  0  0  0
 55  2  1  0  0  0  0
 56 55  1  0  0  0  0
 57 59  2  0  0  0  0
 58 59  1  0  0  0  0
 59 56  1  0  0  0  0
 60 61  1  0  0  0  0
 62 61  1  0  0  0  0
 62 58  1  0  0  0  0
 63 62  1  0  0  0  0
 63 61  1  0  0  0  0
M  END
>  <MODEL>
7

>  <REMARK>
 VINA RESULT:      -6.0      4.510      9.917
  Name = 
  15 active torsions:
  status: ('A' for Active; 'I' for Inactive)
    1  A    between atoms: C_3  and  C_41
    2  A    between atoms: C_10  and  C_11
    3  A    between atoms: C_10  and  C_21
    4  A    between atoms: C_10  and  O_62
    5  A    between atoms: C_11  and  O_63
    6  A    between atoms: C_13  and  C_41
    7  A    between atoms: C_13  and  C_44
    8  A    between atoms: N_14  and  N_28
    9  A    between atoms: O_18  and  C_22
   10  A    between atoms: O_18  and  P_30
   11  A    between atoms: C_22  and  C_39
   12  A    between atoms: C_39  and  C_52
   13  A    between atoms: C_43  and  O_63
   14  A    between atoms: N_46  and  C_53
   15  A    between atoms: C_52  and  O_62
                            x       y       z     vdW  Elec       q    Type
                         _______ _______ _______ _____ _____    ______ ____

>  <TORSDO>
F 15

$$$$
=
 OpenBabel11072409353D

 63 69  0  0  1  0  0  0  0  0999 V2000
  194.3500  168.9210  140.6010 O   0  0  0  0  0  0  0  0  0  0  0  0
  194.8880  169.0110  139.3970 C   0  0  0  0  0  0  0  0  0  0  0  0
  189.9290  174.1680  142.6300 C   0  0  2  0  0  3  0  0  0  0  0  0
  191.7680  174.1330  140.6560 C   0  0  2  0  0  3  0  0  0  0  0  0
  189.9870  172.0210  144.7210 C   0  0  0  0  0  1  0  0  0  0  0  0
  194.0310  169.4810  138.4550 N   0  0  0  0  0  0  0  0  0  0  0  0
  192.3940  169.1820  142.8350 C   0  0  0  0  0  0  0  0  0  0  0  0
  191.1970  173.2610  138.3320 C   0  0  0  0  0  2  0  0  0  0  0  0
  188.4610  174.3210  142.4860 C   0  0  2  0  0  3  0  0  0  0  0  0
  190.6840  170.2060  139.6580 O   0  0  0  0  0  0  0  0  0  0  0  0
  192.2950  173.5260  139.3520 C   0  0  0  0  0  2  0  0  0  0  0  0
  189.3050  174.2210  141.2190 C   0  0  1  0  0  0  0  0  0  0  0  0
  193.4440  171.6400  143.8420 O   0  0  0  0  0  0  0  0  0  0  0  0
  190.8330  172.9510  142.5380 C   0  0  2  0  0  3  0  0  0  0  0  0
  192.9040  169.6630  139.1640 C   0  0  0  0  0  0  0  0  0  0  0  0
  191.2150  172.4720  143.9420 C   0  0  2  0  0  3  0  0  0  0  0  0
  191.7270  170.1130  138.7210 C   0  0  0  0  0  0  0  0  0  0  0  0
  191.7980  170.0360  143.7610 O   0  0  0  0  0  0  0  0  0  0  0  0
  192.0110  173.3140  141.8120 O   0  0  0  0  0  0  0  0  0  0  0  0
  191.5290  170.5310  137.3660 N   0  0  0  0  0  0  0  0  0  0  0  0
  192.1630  169.4330  141.4040 C   0  0  0  0  0  0  0  0  0  0  0  0
  191.7900  172.9790  136.9580 C   0  0  2  0  0  3  0  0  0  0  0  0
  190.8120  173.1570  135.9800 O   0  0  0  0  0  1  0  0  0  0  0  0
  190.4580  174.9860  140.5870 C   0  0  0  0  0  2  0  0  0  0  0  0
  193.1370  168.1660  143.2570 C   0  0  0  0  0  2  0  0  0  0  0  0
  193.1110  169.3260  140.4680 C   0  0  0  0  0  0  0  0  0  0  0  0
  188.9520  172.9100  140.5080 C   0  0  0  0  0  1  0  0  0  0  0  0
  190.9050  169.8910  140.9780 O   0  0  0  0  0  0  0  0  0  0  0  0
  192.4050  171.5780  136.8330 C   0  0  0  0  0  2  0  0  0  0  0  0
  192.2150  171.3630  143.8720 C   0  0  0  0  0  0  0  0  0  0  0  0
  190.2430  170.2690  136.7330 C   0  0  0  0  0  2  0  0  0  0  0  0
  190.4240  170.0530  135.3660 O   0  0  0  0  0  1  0  0  0  0  0  0
  188.0570  175.7770  142.7100 C   0  0  2  0  0  3  0  0  0  0  0  0
  189.4260  177.7920  142.3410 O   0  0  0  0  0  1  0  0  0  0  0  0
  189.2030  176.6840  143.1740 C   0  0  1  0  0  3  0  0  0  0  0  0
  189.1010  176.9890  144.5580 O   0  0  0  0  0  0  0  0  0  0  0  0
  190.9300  174.9880  148.2150 O   0  0  0  0  0  1  0  0  0  0  0  0
  191.4540  176.4750  144.8670 C   0  0  1  0  0  3  0  0  0  0  0  0
  192.4370  175.9420  146.2720 P   0  0  2  0  0  0  0  0  0  0  0  0
  192.7980  174.4800  146.1340 O   0  0  0  0  0  0  0  0  0  0  0  0
  191.5730  177.2600  148.5170 C   0  0  0  0  0  1  0  0  0  0  0  0
  191.1630  176.1820  147.5340 C   0  0  2  0  0  0  0  0  0  0  0  0
  193.9340  176.9440  146.4830 C   0  0  0  0  0  1  0  0  0  0  0  0
  190.0160  176.2360  145.3180 C   0  0  1  0  0  3  0  0  0  0  0  0
  189.9010  176.6160  146.7970 C   0  0  0  0  0  2  0  0  0  0  0  0
  191.6760  177.8350  144.6300 O   0  0  0  0  0  1  0  0  0  0  0  0
  187.0110  175.8440  143.6390 O   0  0  0  0  0  0  0  0  0  0  0  0
  185.9490  176.4500  142.9590 C   0  0  0  0  0  2  0  0  0  0  0  0
  185.6400  177.8040  143.5720 C   0  0  0  0  0  2  0  0  0  0  0  0
  185.2780  177.6080  145.0320 C   0  0  0  0  0  2  0  0  0  0  0  0
  185.1160  178.8470  145.6520 O   0  0  0  0  0  0  0  0  0  0  0  0
  185.8610  178.6760  147.1650 P   0  0  0  0  0  0  0  0  0  0  0  0
  186.3630  179.8950  147.9030 O   0  0  0  0  0  0  0  0  0  0  0  0
  186.0250  177.3030  147.7820 O   0  0  0  0  0  0  0  0  0  0  0  0
  196.2860  168.6050  139.0890 C   0  0  0  0  0  2  0  0  0  0  0  0
  197.1130  169.8380  138.7730 C   0  0  0  0  0  2  0  0  0  0  0  0
  197.7730  170.2430  141.0260 O   0  0  0  0  0  0  0  0  0  0  0  0
  196.7070  172.0210  139.9580 N   0  0  0  0  0  2  0  0  0  0  0  0
  197.2350  170.6960  139.9840 C   0  0  0  0  0  0  0  0  0  0  0  0
  195.4110  174.1850  142.3580 O   0  0  0  0  0  1  0  0  0  0  0  0
  195.6300  173.6770  141.0770 C   0  0  2  0  0  3  0  0  0  0  0  0
  196.8000  172.8640  141.0750 N   0  0  0  0  0  0  0  0  0  0  0  0
  196.8430  174.2090  140.5640 N   0  0  0  0  0  2  0  0  0  0  0  0
  2  1  1  0  0  0  0
  4 19  1  0  0  0  0
  6 15  1  0  0  0  0
  6  2  2  0  0  0  0
  7 25  2  0  0  0  0
  7 18  1  0  0  0  0
  8 11  1  0  0  0  0
  9  3  1  0  0  0  0
  9 33  1  0  0  0  0
 10 28  1  0  0  0  0
 11  4  1  0  0  0  0
 12  9  1  0  0  0  0
 12  3  1  0  0  0  0
 13 30  2  0  0  0  0
 14  3  1  0  0  0  0
 14 16  1  0  0  0  0
 15 26  1  0  0  0  0
 16  5  1  0  0  0  0
 17 15  2  0  0  0  0
 17 10  1  0  0  0  0
 18 30  1  0  0  0  0
 19 14  1  0  0  0  0
 20 17  1  0  0  0  0
 21  7  1  0  0  0  0
 22  8  1  0  0  0  0
 23 22  1  0  0  0  0
 24  4  1  0  0  0  0
 24 12  1  0  0  0  0
 26  1  1  0  0  0  0
 26 21  2  0  0  0  0
 27 12  1  0  0  0  0
 28 21  1  0  0  0  0
 29 22  1  0  0  0  0
 29 20  1  0  0  0  0
 30 16  1  0  0  0  0
 31 20  1  0  0  0  0
 32 31  1  0  0  0  0
 33 35  1  0  0  0  0
 33 47  1  0  0  0  0
 34 35  1  0  0  0  0
 35 36  1  0  0  0  0
 36 44  1  0  0  0  0
 38 44  1  0  0  0  0
 38 39  1  0  0  0  0
 39 43  1  0  0  0  0
 39 42  1  0  0  0  0
 40 39  2  0  0  0  0
 42 37  1  0  0  0  0
 42 41  1  0  0  0  0
 44 45  1  0  0  0  0
 45 42  1  0  0  0  0
 46 38  1  0  0  0  0
 48 49  1  0  0  0  0
 48 47  1  0  0  0  0
 49 50  1  0  0  0  0
 50 51  1  0  0  0  0
 51 52  1  0  0  0  0
 52 54  2  0  0  0  0
 52 53  2  0  0  0  0
 55  2  1  0  0  0  0
 56 55  1  0  0  0  0
 56 59  1  0  0  0  0
 58 59  1  0  0  0  0
 58 62  1  0  0  0  0
 59 57  2  0  0  0  0
 61 60  1  0  0  0  0
 62 61  1  0  0  0  0
 63 62  1  0  0  0  0
 63 61  1  0  0  0  0
M  END
>  <MODEL>
8

>  <REMARK>
 VINA RESULT:      -5.9      4.310     10.068
  Name = 
  15 active torsions:
  status: ('A' for Active; 'I' for Inactive)
    1  A    between atoms: C_3  and  C_41
    2  A    between atoms: C_10  and  C_11
    3  A    between atoms: C_10  and  C_21
    4  A    between atoms: C_10  and  O_62
    5  A    between atoms: C_11  and  O_63
    6  A    between atoms: C_13  and  C_41
    7  A    between atoms: C_13  and  C_44
    8  A    between atoms: N_14  and  N_28
    9  A    between atoms: O_18  and  C_22
   10  A    between atoms: O_18  and  P_30
   11  A    between atoms: C_22  and  C_39
   12  A    between atoms: C_39  and  C_52
   13  A    between atoms: C_43  and  O_63
   14  A    between atoms: N_46  and  C_53
   15  A    between atoms: C_52  and  O_62
                            x       y       z     vdW  Elec       q    Type
                         _______ _______ _______ _____ _____    ______ ____

>  <TORSDO>
F 15

$$$$
=
 OpenBabel11072409353D

 63 69  0  0  1  0  0  0  0  0999 V2000
  196.2950  170.4810  138.4580 O   0  0  0  0  0  0  0  0  0  0  0  0
  195.9350  169.2100  138.4110 C   0  0  0  0  0  0  0  0  0  0  0  0
  192.4140  174.8490  142.5870 C   0  0  2  0  0  3  0  0  0  0  0  0
  191.7970  172.4140  141.5990 C   0  0  2  0  0  3  0  0  0  0  0  0
  194.7590  176.3350  141.4580 C   0  0  0  0  0  1  0  0  0  0  0  0
  195.5340  168.7150  139.6090 N   0  0  0  0  0  0  0  0  0  0  0  0
  196.7510  173.2390  139.4950 C   0  0  0  0  0  0  0  0  0  0  0  0
  192.4510  170.2830  142.8310 C   0  0  0  0  0  2  0  0  0  0  0  0
  192.5540  175.2290  144.0140 C   0  0  2  0  0  3  0  0  0  0  0  0
  195.6950  171.0700  142.3670 O   0  0  0  0  0  0  0  0  0  0  0  0
  192.1000  170.9170  141.4920 C   0  0  0  0  0  2  0  0  0  0  0  0
  192.3050  173.7610  143.6770 C   0  0  1  0  0  0  0  0  0  0  0  0
  194.2850  174.3110  138.5340 O   0  0  0  0  0  0  0  0  0  0  0  0
  193.3890  174.2250  141.6050 C   0  0  2  0  0  3  0  0  0  0  0  0
  195.6890  169.7770  140.4190 C   0  0  0  0  0  0  0  0  0  0  0  0
  193.9600  175.3010  140.6750 C   0  0  2  0  0  3  0  0  0  0  0  0
  195.4420  169.8430  141.7300 C   0  0  0  0  0  0  0  0  0  0  0  0
  196.1730  174.4580  139.8380 O   0  0  0  0  0  0  0  0  0  0  0  0
  192.6930  173.2400  140.8360 O   0  0  0  0  0  0  0  0  0  0  0  0
  194.8970  168.7410  142.4630 N   0  0  0  0  0  0  0  0  0  0  0  0
  196.3660  172.0430  140.2600 C   0  0  0  0  0  0  0  0  0  0  0  0
  192.4170  168.7640  142.7370 C   0  0  2  0  0  3  0  0  0  0  0  0
  192.3200  168.2180  144.0160 O   0  0  0  0  0  1  0  0  0  0  0  0
  191.2370  172.9510  142.9590 C   0  0  0  0  0  2  0  0  0  0  0  0
  197.6360  173.1820  138.5060 C   0  0  0  0  0  2  0  0  0  0  0  0
  196.1460  170.8450  139.7080 C   0  0  0  0  0  0  0  0  0  0  0  0
  193.5540  172.9610  144.0620 C   0  0  0  0  0  1  0  0  0  0  0  0
  196.1310  172.1540  141.6410 O   0  0  0  0  0  0  0  0  0  0  0  0
  193.6290  168.1680  142.0060 C   0  0  0  0  0  2  0  0  0  0  0  0
  194.8150  174.6880  139.6140 C   0  0  0  0  0  0  0  0  0  0  0  0
  195.3370  168.5270  143.8360 C   0  0  0  0  0  2  0  0  0  0  0  0
  196.7130  168.2910  143.8590 O   0  0  0  0  0  1  0  0  0  0  0  0
  191.2590  175.8570  144.5240 C   0  0  2  0  0  3  0  0  0  0  0  0
  192.3420  178.0630  144.3470 O   0  0  0  0  0  1  0  0  0  0  0  0
  191.1320  177.3590  144.2380 C   0  0  1  0  0  3  0  0  0  0  0  0
  190.4050  177.6040  143.0430 O   0  0  0  0  0  0  0  0  0  0  0  0
  187.5470  174.2140  142.0140 O   0  0  0  0  0  1  0  0  0  0  0  0
  187.9870  177.7780  142.9090 C   0  0  1  0  0  3  0  0  0  0  0  0
  186.6940  176.6940  142.2940 P   0  0  2  0  0  0  0  0  0  0  0  0
  185.9410  176.0700  143.4480 O   0  0  0  0  0  0  0  0  0  0  0  0
  187.5680  175.4760  139.9970 C   0  0  0  0  0  1  0  0  0  0  0  0
  187.7800  175.4870  141.4970 C   0  0  2  0  0  0  0  0  0  0  0  0
  185.5460  177.5540  141.1830 C   0  0  0  0  0  1  0  0  0  0  0  0
  189.2060  176.8660  143.0110 C   0  0  1  0  0  3  0  0  0  0  0  0
  189.2090  175.9210  141.8070 C   0  0  0  0  0  2  0  0  0  0  0  0
  188.2140  178.8040  141.9870 O   0  0  0  0  0  1  0  0  0  0  0  0
  191.1330  175.6380  145.9010 O   0  0  0  0  0  0  0  0  0  0  0  0
  189.9430  174.9200  146.0550 C   0  0  0  0  0  2  0  0  0  0  0  0
  189.0600  175.5880  147.0950 C   0  0  0  0  0  2  0  0  0  0  0  0
  188.2160  176.6470  146.4130 C   0  0  0  0  0  2  0  0  0  0  0  0
  186.8640  176.4110  146.6590 O   0  0  0  0  0  0  0  0  0  0  0  0
  186.2890  177.8520  147.3400 P   0  0  0  0  0  0  0  0  0  0  0  0
  184.8350  178.2340  147.1860 O   0  0  0  0  0  0  0  0  0  0  0  0
  187.2270  178.7610  148.1060 O   0  0  0  0  0  0  0  0  0  0  0  0
  195.9930  168.3860  137.1740 C   0  0  0  0  0  2  0  0  0  0  0  0
  195.8040  169.2790  135.9600 C   0  0  0  0  0  2  0  0  0  0  0  0
  193.9880  170.0850  134.6460 O   0  0  0  0  0  0  0  0  0  0  0  0
  193.3980  168.7240  136.4470 N   0  0  0  0  0  2  0  0  0  0  0  0
  194.3580  169.3890  135.6270 C   0  0  0  0  0  0  0  0  0  0  0  0
  190.3150  170.3360  136.3410 O   0  0  0  0  0  1  0  0  0  0  0  0
  191.5160  169.9070  136.9060 C   0  0  2  0  0  3  0  0  0  0  0  0
  192.0260  168.8000  136.1690 N   0  0  0  0  0  0  0  0  0  0  0  0
  191.3470  168.5950  137.4230 N   0  0  0  0  0  2  0  0  0  0  0  0
  1 26  1  0  0  0  0
  2  1  1  0  0  0  0
  2  6  2  0  0  0  0
  3 12  1  0  0  0  0
  3  9  1  0  0  0  0
  4 24  1  0  0  0  0
  6 15  1  0  0  0  0
  7 18  1  0  0  0  0
  7 21  1  0  0  0  0
  9 33  1  0  0  0  0
 11  4  1  0  0  0  0
 11  8  1  0  0  0  0
 12  9  1  0  0  0  0
 12 27  1  0  0  0  0
 13 30  2  0  0  0  0
 14  3  1  0  0  0  0
 15 17  2  0  0  0  0
 16  5  1  0  0  0  0
 16 14  1  0  0  0  0
 17 10  1  0  0  0  0
 17 20  1  0  0  0  0
 19  4  1  0  0  0  0
 19 14  1  0  0  0  0
 20 31  1  0  0  0  0
 21 28  1  0  0  0  0
 22  8  1  0  0  0  0
 22 23  1  0  0  0  0
 24 12  1  0  0  0  0
 25  7  2  0  0  0  0
 26 21  2  0  0  0  0
 26 15  1  0  0  0  0
 28 10  1  0  0  0  0
 29 20  1  0  0  0  0
 29 22  1  0  0  0  0
 30 18  1  0  0  0  0
 30 16  1  0  0  0  0
 31 32  1  0  0  0  0
 33 47  1  0  0  0  0
 35 34  1  0  0  0  0
 35 33  1  0  0  0  0
 36 35  1  0  0  0  0
 38 44  1  0  0  0  0
 39 38  1  0  0  0  0
 39 40  2  0  0  0  0
 41 42  1  0  0  0  0
 42 45  1  0  0  0  0
 42 37  1  0  0  0  0
 42 39  1  0  0  0  0
 43 39  1  0  0  0  0
 44 36  1  0  0  0  0
 45 44  1  0  0  0  0
 46 38  1  0  0  0  0
 47 48  1  0  0  0  0
 48 49  1  0  0  0  0
 50 51  1  0  0  0  0
 50 49  1  0  0  0  0
 51 52  1  0  0  0  0
 52 54  2  0  0  0  0
 53 52  2  0  0  0  0
 55  2  1  0  0  0  0
 56 55  1  0  0  0  0
 57 59  2  0  0  0  0
 59 56  1  0  0  0  0
 59 58  1  0  0  0  0
 60 61  1  0  0  0  0
 61 63  1  0  0  0  0
 62 58  1  0  0  0  0
 62 61  1  0  0  0  0
 62 63  1  0  0  0  0
M  END
>  <MODEL>
9

>  <REMARK>
 VINA RESULT:      -5.5      4.510      9.778
  Name = 
  15 active torsions:
  status: ('A' for Active; 'I' for Inactive)
    1  A    between atoms: C_3  and  C_41
    2  A    between atoms: C_10  and  C_11
    3  A    between atoms: C_10  and  C_21
    4  A    between atoms: C_10  and  O_62
    5  A    between atoms: C_11  and  O_63
    6  A    between atoms: C_13  and  C_41
    7  A    between atoms: C_13  and  C_44
    8  A    between atoms: N_14  and  N_28
    9  A    between atoms: O_18  and  C_22
   10  A    between atoms: O_18  and  P_30
   11  A    between atoms: C_22  and  C_39
   12  A    between atoms: C_39  and  C_52
   13  A    between atoms: C_43  and  O_63
   14  A    between atoms: N_46  and  C_53
   15  A    between atoms: C_52  and  O_62
                            x       y       z     vdW  Elec       q    Type
                         _______ _______ _______ _____ _____    ______ ____

>  <TORSDO>
F 15

$$$$
