=
 OpenBabel11062420233D

 49 52  0  0  1  0  0  0  0  0999 V2000
  190.6950  174.2210  142.8670 C   0  0  1  0  0  3  0  0  0  0  0  0
  190.9680  170.1060  138.7510 C   0  0  0  0  0  1  0  0  0  0  0  0
  190.6400  173.1610  141.8060 C   0  0  0  0  0  0  0  0  0  0  0  0
  190.9610  171.4190  143.3940 O   0  0  0  0  0  0  0  0  0  0  0  0
  190.7930  171.7410  142.1880 C   0  0  0  0  0  0  0  0  0  0  0  0
  191.1800  171.1920  139.7930 C   0  0  2  0  0  3  0  0  0  0  0  0
  190.4950  173.4930  140.5140 C   0  0  0  0  0  3  0  0  0  0  0  0
  190.7210  170.6640  141.1530 C   0  0  0  0  0  2  0  0  0  0  0  0
  190.3920  172.4600  139.4290 C   0  0  1  0  0  3  0  0  0  0  0  0
  190.8840  173.0290  138.1830 N   0  0  0  0  0  2  0  0  0  0  0  0
  190.0180  173.2990  137.0790 C   0  0  0  0  0  0  0  0  0  0  0  0
  188.7770  173.1180  137.1830 O   0  0  0  0  0  0  0  0  0  0  0  0
  192.3720  174.9150  135.0080 C   0  0  1  0  0  3  0  0  0  0  0  0
  190.0730  175.2090  135.5230 C   0  0  0  0  0  2  0  0  0  0  0  0
  191.9780  173.8730  135.8700 O   0  0  0  0  0  0  0  0  0  0  0  0
  191.2080  175.8640  134.7950 C   0  0  1  0  0  3  0  0  0  0  0  0
  192.3290  176.2390  135.7490 C   0  0  0  0  0  2  0  0  0  0  0  0
  190.5800  173.8140  135.7980 C   0  0  1  0  0  3  0  0  0  0  0  0
  191.7190  175.3330  142.5870 C   0  0  0  0  0  2  0  0  0  0  0  0
  193.1560  174.8320  142.4470 C   0  0  0  0  0  2  0  0  0  0  0  0
  193.7990  174.6370  143.8150 C   0  0  2  0  0  3  0  0  0  0  0  0
  193.9870  173.2800  144.0630 O   0  0  0  0  0  1  0  0  0  0  0  0
  193.0310  175.3010  144.9670 C   0  0  1  0  0  3  0  0  0  0  0  0
  193.0700  174.4380  146.2200 C   0  0  0  0  0  1  0  0  0  0  0  0
  194.6850  177.0330  144.7240 F   0  0  0  0  0  0  0  0  0  0  0  0
  192.5150  177.6350  144.7420 F   0  0  0  0  0  0  0  0  0  0  0  0
  193.4980  176.9400  146.6350 F   0  0  0  0  0  0  0  0  0  0  0  0
  193.4420  176.7520  145.2640 C   0  0  0  0  0  0  0  0  0  0  0  0
  189.3060  174.7200  143.2640 C   0  0  0  0  0  2  0  0  0  0  0  0
  189.5520  174.3130  145.6740 C   0  0  0  0  0  3  0  0  0  0  0  0
  188.8180  177.0000  146.4360 C   0  0  1  0  0  3  0  0  0  0  0  0
  189.5180  174.6920  147.1290 C   0  0  0  0  0  2  0  0  0  0  0  0
  189.7600  176.1860  147.3220 C   0  0  0  0  0  2  0  0  0  0  0  0
  189.0280  176.6520  144.9560 C   0  0  0  0  0  2  0  0  0  0  0  0
  189.2760  175.1860  144.6870 C   0  0  0  0  0  0  0  0  0  0  0  0
  187.3690  176.8050  146.8600 C   0  0  0  0  0  2  0  0  0  0  0  0
  186.7510  178.1140  147.2600 C   0  0  0  0  0  0  0  0  0  0  0  0
  187.1850  178.7030  148.2330 O   0  0  0  0  0  0  0  0  0  0  0  0
  184.3830  178.3920  147.1140 O   0  0  0  0  0  1  0  0  0  0  0  0
  185.6000  178.7040  146.4980 C   0  0  2  0  0  3  0  0  0  0  0  0
  185.6050  178.1860  145.0640 C   0  0  0  0  0  2  0  0  0  0  0  0
  185.1320  179.2600  144.0930 C   0  0  2  0  0  3  0  0  0  0  0  0
  183.6710  179.0410  143.7350 C   0  0  0  0  0  1  0  0  0  0  0  0
  185.8990  179.1990  142.9300 O   0  0  0  0  0  0  0  0  0  0  0  0
  185.1720  178.3820  142.0620 C   0  0  0  0  0  2  0  0  0  0  0  0
  186.1300  177.5790  141.1870 C   0  0  2  0  0  3  0  0  0  0  0  0
  187.5770  177.7300  141.6370 C   0  0  0  0  0  1  0  0  0  0  0  0
  185.9530  177.8060  139.8020 O   0  0  0  0  0  0  0  0  0  0  0  0
  186.7540  176.9040  139.0820 C   0  0  0  0  0  1  0  0  0  0  0  0
  1 19  1  6  0  0  0
  1 29  1  0  0  0  0
  3  5  1  0  0  0  0
  3  1  1  0  0  0  0
  5  4  2  0  0  0  0
  6  2  1  6  0  0  0
  6  8  1  0  0  0  0
  7  3  2  0  0  0  0
  8  5  1  0  0  0  0
  9 10  1  6  0  0  0
  9  6  1  0  0  0  0
  9  7  1  0  0  0  0
 11 12  2  0  0  0  0
 11 10  1  0  0  0  0
 13 17  1  1  0  0  0
 13 15  1  0  0  0  0
 14 18  1  0  0  0  0
 16 13  1  0  0  0  0
 16 14  1  1  0  0  0
 16 17  1  0  0  0  0
 18 15  1  0  0  0  0
 18 11  1  1  0  0  0
 20 19  1  0  0  0  0
 20 21  1  0  0  0  0
 21 22  1  1  0  0  0
 21 23  1  0  0  0  0
 23 28  1  0  0  0  0
 23 24  1  1  0  0  0
 25 28  1  0  0  0  0
 26 28  1  0  0  0  0
 28 27  1  0  0  0  0
 29 35  1  0  0  0  0
 30 32  1  0  0  0  0
 31 36  1  1  0  0  0
 31 33  1  0  0  0  0
 32 33  1  0  0  0  0
 34 31  1  0  0  0  0
 35 34  1  0  0  0  0
 35 30  2  0  0  0  0
 36 37  1  0  0  0  0
 37 38  2  0  0  0  0
 40 39  1  1  0  0  0
 40 37  1  0  0  0  0
 41 40  1  0  0  0  0
 42 43  1  6  0  0  0
 42 41  1  0  0  0  0
 44 42  1  0  0  0  0
 45 44  1  0  0  0  0
 46 47  1  1  0  0  0
 46 45  1  0  0  0  0
 48 46  1  0  0  0  0
 49 48  1  0  0  0  0
M  END
>  <MODEL>
1

>  <REMARK>
 VINA RESULT:      -6.6      0.000      0.000
  Name = 
  19 active torsions:
  status: ('A' for Active; 'I' for Inactive)
    1  A    between atoms: C_1  and  C_9
    2  A    between atoms: C_1  and  C_23
    3  A    between atoms: C_4  and  C_25
    4  A    between atoms: C_4  and  C_45
    5  A    between atoms: C_5  and  C_25
    6  A    between atoms: C_5  and  C_40
    7  A    between atoms: C_8  and  C_11
    8  A    between atoms: C_9  and  C_40
    9  A    between atoms: C_11  and  C_16
   10  A    between atoms: C_12  and  C_25
   11  A    between atoms: C_16  and  C_41
   12  A    between atoms: C_22  and  C_29
   13  A    between atoms: C_22  and  O_31
   14  A    between atoms: C_26  and  O_46
   15  A    between atoms: C_26  and  C_48
   16  A    between atoms: N_28  and  C_49
   17  A    between atoms: C_29  and  O_46
   18  A    between atoms: C_37  and  C_43
   19  A    between atoms: C_41  and  C_48
                            x       y       z     vdW  Elec       q    Type
                         _______ _______ _______ _____ _____    ______ ____

>  <TORSDO>
F 19

$$$$
=
 OpenBabel11062420233D

 49 52  0  0  1  0  0  0  0  0999 V2000
  190.9540  174.3200  143.0790 C   0  0  1  0  0  3  0  0  0  0  0  0
  191.8770  169.0930  140.6760 C   0  0  0  0  0  1  0  0  0  0  0  0
  191.2490  173.0330  142.3660 C   0  0  0  0  0  0  0  0  0  0  0  0
  189.0680  172.9440  141.4200 O   0  0  0  0  0  0  0  0  0  0  0  0
  190.1990  172.4040  141.5360 C   0  0  0  0  0  0  0  0  0  0  0  0
  191.5380  170.3070  141.5250 C   0  0  2  0  0  3  0  0  0  0  0  0
  192.4390  172.4300  142.5070 C   0  0  0  0  0  3  0  0  0  0  0  0
  190.4740  171.1330  140.7980 C   0  0  0  0  0  2  0  0  0  0  0  0
  192.7870  171.1650  141.7770 C   0  0  1  0  0  3  0  0  0  0  0  0
  193.7700  170.4230  142.5530 N   0  0  0  0  0  2  0  0  0  0  0  0
  193.5500  170.0760  143.9210 C   0  0  0  0  0  0  0  0  0  0  0  0
  192.4530  170.3420  144.4790 O   0  0  0  0  0  0  0  0  0  0  0  0
  196.0010  169.7180  146.4320 C   0  0  1  0  0  3  0  0  0  0  0  0
  195.9650  169.6090  144.0600 C   0  0  0  0  0  2  0  0  0  0  0  0
  194.6680  169.8770  146.0050 O   0  0  0  0  0  0  0  0  0  0  0  0
  196.9110  169.6110  145.2230 C   0  0  1  0  0  3  0  0  0  0  0  0
  196.8260  170.9150  145.9970 C   0  0  0  0  0  2  0  0  0  0  0  0
  194.6160  169.3790  144.6960 C   0  0  1  0  0  3  0  0  0  0  0  0
  191.4360  175.5730  142.3310 C   0  0  0  0  0  2  0  0  0  0  0  0
  192.7450  176.1510  142.8690 C   0  0  0  0  0  2  0  0  0  0  0  0
  192.7350  176.1920  144.3920 C   0  0  2  0  0  3  0  0  0  0  0  0
  192.2580  177.4240  144.8320 O   0  0  0  0  0  1  0  0  0  0  0  0
  194.0910  175.8710  145.0350 C   0  0  1  0  0  3  0  0  0  0  0  0
  194.2250  176.5430  146.3940 C   0  0  0  0  0  1  0  0  0  0  0  0
  194.8740  173.9110  143.8770 F   0  0  0  0  0  0  0  0  0  0  0  0
  195.4180  174.1470  146.0500 F   0  0  0  0  0  0  0  0  0  0  0  0
  193.3050  173.6630  145.4730 F   0  0  0  0  0  0  0  0  0  0  0  0
  194.4350  174.3740  145.1050 C   0  0  0  0  0  0  0  0  0  0  0  0
  189.5100  174.3920  143.5760 C   0  0  0  0  0  2  0  0  0  0  0  0
  189.8250  174.4630  146.0110 C   0  0  0  0  0  3  0  0  0  0  0  0
  188.7040  177.1070  146.3100 C   0  0  1  0  0  3  0  0  0  0  0  0
  189.7430  175.0870  147.3770 C   0  0  0  0  0  2  0  0  0  0  0  0
  189.7610  176.6110  147.2960 C   0  0  0  0  0  2  0  0  0  0  0  0
  188.9560  176.5340  144.9090 C   0  0  0  0  0  2  0  0  0  0  0  0
  189.4180  175.0960  144.8950 C   0  0  0  0  0  0  0  0  0  0  0  0
  187.3020  176.7820  146.8080 C   0  0  0  0  0  2  0  0  0  0  0  0
  186.5810  178.0330  147.2180 C   0  0  0  0  0  0  0  0  0  0  0  0
  186.9890  178.6700  148.1720 O   0  0  0  0  0  0  0  0  0  0  0  0
  184.2110  178.3280  147.2710 O   0  0  0  0  0  1  0  0  0  0  0  0
  185.3560  178.5080  146.4900 C   0  0  2  0  0  3  0  0  0  0  0  0
  185.2110  177.7560  145.1710 C   0  0  0  0  0  2  0  0  0  0  0  0
  185.2780  178.7100  143.9870 C   0  0  2  0  0  3  0  0  0  0  0  0
  184.1390  178.4310  143.0200 C   0  0  0  0  0  1  0  0  0  0  0  0
  186.4910  178.5340  143.3210 O   0  0  0  0  0  0  0  0  0  0  0  0
  186.1650  177.8330  142.1590 C   0  0  0  0  0  2  0  0  0  0  0  0
  187.4370  177.2980  141.5070 C   0  0  2  0  0  3  0  0  0  0  0  0
  188.6570  178.1400  141.8590 C   0  0  0  0  0  1  0  0  0  0  0  0
  187.3050  177.0670  140.1180 O   0  0  0  0  0  0  0  0  0  0  0  0
  186.0210  177.4600  139.7050 C   0  0  0  0  0  1  0  0  0  0  0  0
  1 19  1  6  0  0  0
  1 29  1  0  0  0  0
  3  7  2  0  0  0  0
  3  1  1  0  0  0  0
  4  5  2  0  0  0  0
  5  3  1  0  0  0  0
  6  2  1  6  0  0  0
  6  9  1  0  0  0  0
  8  6  1  0  0  0  0
  8  5  1  0  0  0  0
  9  7  1  0  0  0  0
  9 10  1  1  0  0  0
 10 11  1  0  0  0  0
 11 12  2  0  0  0  0
 13 17  1  1  0  0  0
 14 18  1  0  0  0  0
 15 13  1  0  0  0  0
 16 14  1  6  0  0  0
 16 17  1  0  0  0  0
 16 13  1  0  0  0  0
 18 11  1  6  0  0  0
 18 15  1  0  0  0  0
 19 20  1  0  0  0  0
 20 21  1  0  0  0  0
 21 22  1  6  0  0  0
 21 23  1  0  0  0  0
 23 28  1  0  0  0  0
 23 24  1  1  0  0  0
 25 28  1  0  0  0  0
 28 27  1  0  0  0  0
 28 26  1  0  0  0  0
 29 35  1  0  0  0  0
 30 32  1  0  0  0  0
 31 36  1  1  0  0  0
 31 33  1  0  0  0  0
 33 32  1  0  0  0  0
 34 31  1  0  0  0  0
 35 34  1  0  0  0  0
 35 30  2  0  0  0  0
 36 37  1  0  0  0  0
 37 38  2  0  0  0  0
 40 37  1  0  0  0  0
 40 39  1  1  0  0  0
 41 40  1  0  0  0  0
 42 43  1  6  0  0  0
 42 41  1  0  0  0  0
 44 42  1  0  0  0  0
 45 44  1  0  0  0  0
 46 47  1  6  0  0  0
 46 45  1  0  0  0  0
 48 46  1  0  0  0  0
 49 48  1  0  0  0  0
M  END
>  <MODEL>
2

>  <REMARK>
 VINA RESULT:      -6.3      2.936      4.958
  Name = 
  19 active torsions:
  status: ('A' for Active; 'I' for Inactive)
    1  A    between atoms: C_1  and  C_9
    2  A    between atoms: C_1  and  C_23
    3  A    between atoms: C_4  and  C_25
    4  A    between atoms: C_4  and  C_45
    5  A    between atoms: C_5  and  C_25
    6  A    between atoms: C_5  and  C_40
    7  A    between atoms: C_8  and  C_11
    8  A    between atoms: C_9  and  C_40
    9  A    between atoms: C_11  and  C_16
   10  A    between atoms: C_12  and  C_25
   11  A    between atoms: C_16  and  C_41
   12  A    between atoms: C_22  and  C_29
   13  A    between atoms: C_22  and  O_31
   14  A    between atoms: C_26  and  O_46
   15  A    between atoms: C_26  and  C_48
   16  A    between atoms: N_28  and  C_49
   17  A    between atoms: C_29  and  O_46
   18  A    between atoms: C_37  and  C_43
   19  A    between atoms: C_41  and  C_48
                            x       y       z     vdW  Elec       q    Type
                         _______ _______ _______ _____ _____    ______ ____

>  <TORSDO>
F 19

$$$$
=
 OpenBabel11062420233D

 49 52  0  0  1  0  0  0  0  0999 V2000
  192.1990  172.2430  139.6460 C   0  0  1  0  0  3  0  0  0  0  0  0
  189.5810  172.1100  144.8500 C   0  0  0  0  0  1  0  0  0  0  0  0
  191.6030  172.3000  141.0220 C   0  0  0  0  0  0  0  0  0  0  0  0
  192.8860  170.4360  141.7590 O   0  0  0  0  0  0  0  0  0  0  0  0
  192.0270  171.3130  142.0390 C   0  0  0  0  0  0  0  0  0  0  0  0
  190.0580  171.9630  143.4140 C   0  0  2  0  0  3  0  0  0  0  0  0
  190.6640  173.2090  141.3250 C   0  0  0  0  0  3  0  0  0  0  0  0
  191.4640  171.3600  143.4230 C   0  0  0  0  0  2  0  0  0  0  0  0
  190.0750  173.3240  142.7010 C   0  0  1  0  0  3  0  0  0  0  0  0
  188.7280  173.8660  142.5990 N   0  0  0  0  0  2  0  0  0  0  0  0
  188.4650  175.2670  142.6980 C   0  0  0  0  0  0  0  0  0  0  0  0
  189.4130  176.0880  142.8050 O   0  0  0  0  0  0  0  0  0  0  0  0
  185.8550  177.4870  141.8640 C   0  0  1  0  0  3  0  0  0  0  0  0
  186.7710  176.6150  143.8740 C   0  0  0  0  0  2  0  0  0  0  0  0
  186.8610  176.5630  141.5230 O   0  0  0  0  0  0  0  0  0  0  0  0
  185.7870  177.6300  143.3730 C   0  0  1  0  0  3  0  0  0  0  0  0
  186.4760  178.6960  142.5380 C   0  0  0  0  0  2  0  0  0  0  0  0
  187.0620  175.7670  142.6600 C   0  0  1  0  0  3  0  0  0  0  0  0
  191.2930  171.5730  138.6000 C   0  0  0  0  0  2  0  0  0  0  0  0
  191.2870  172.2770  137.2430 C   0  0  0  0  0  2  0  0  0  0  0  0
  189.8640  172.5970  136.8040 C   0  0  2  0  0  3  0  0  0  0  0  0
  189.7250  172.3720  135.4370 O   0  0  0  0  0  1  0  0  0  0  0  0
  189.3990  174.0130  137.1740 C   0  0  1  0  0  3  0  0  0  0  0  0
  189.0200  174.8060  135.9320 C   0  0  0  0  0  1  0  0  0  0  0  0
  187.8360  172.8020  138.5480 F   0  0  0  0  0  0  0  0  0  0  0  0
  188.7710  174.6660  139.3970 F   0  0  0  0  0  0  0  0  0  0  0  0
  187.2370  174.8280  137.7680 F   0  0  0  0  0  0  0  0  0  0  0  0
  188.2960  174.0710  138.2440 C   0  0  0  0  0  0  0  0  0  0  0  0
  192.7880  173.5860  139.2110 C   0  0  0  0  0  2  0  0  0  0  0  0
  195.0540  172.8200  139.7720 C   0  0  0  0  0  3  0  0  0  0  0  0
  195.7940  175.2630  141.1210 C   0  0  1  0  0  3  0  0  0  0  0  0
  196.4260  172.9520  140.3720 C   0  0  0  0  0  2  0  0  0  0  0  0
  196.8660  174.4120  140.4410 C   0  0  0  0  0  2  0  0  0  0  0  0
  194.4680  175.1810  140.3550 C   0  0  0  0  0  2  0  0  0  0  0  0
  194.1430  173.8100  139.8100 C   0  0  0  0  0  0  0  0  0  0  0  0
  195.6270  174.8600  142.5800 C   0  0  0  0  0  2  0  0  0  0  0  0
  195.2700  176.0510  143.4220 C   0  0  0  0  0  0  0  0  0  0  0  0
  196.1490  176.8210  143.7660 O   0  0  0  0  0  0  0  0  0  0  0  0
  193.8340  177.0250  145.0640 O   0  0  0  0  0  1  0  0  0  0  0  0
  193.8580  176.3040  143.8660 C   0  0  2  0  0  3  0  0  0  0  0  0
  193.1220  174.9800  144.0400 C   0  0  0  0  0  2  0  0  0  0  0  0
  193.1420  174.5300  145.4940 C   0  0  2  0  0  3  0  0  0  0  0  0
  193.6910  173.1170  145.6020 C   0  0  0  0  0  1  0  0  0  0  0  0
  191.8430  174.5530  146.0010 O   0  0  0  0  0  0  0  0  0  0  0  0
  191.9440  175.2260  147.2200 C   0  0  0  0  0  2  0  0  0  0  0  0
  190.5730  175.7510  147.6330 C   0  0  2  0  0  3  0  0  0  0  0  0
  189.4410  174.9360  147.0220 C   0  0  0  0  0  1  0  0  0  0  0  0
  190.4200  177.1440  147.4400 O   0  0  0  0  0  0  0  0  0  0  0  0
  189.7160  177.3690  146.2450 C   0  0  0  0  0  1  0  0  0  0  0  0
  1 19  1  6  0  0  0
  1  3  1  0  0  0  0
  3  7  2  0  0  0  0
  3  5  1  0  0  0  0
  4  5  2  0  0  0  0
  5  8  1  0  0  0  0
  6  8  1  0  0  0  0
  6  2  1  1  0  0  0
  7  9  1  0  0  0  0
  9 10  1  6  0  0  0
  9  6  1  0  0  0  0
 10 11  1  0  0  0  0
 11 12  2  0  0  0  0
 13 17  1  6  0  0  0
 13 16  1  0  0  0  0
 15 13  1  0  0  0  0
 15 18  1  0  0  0  0
 16 17  1  6  0  0  0
 16 14  1  0  0  0  0
 18 11  1  1  0  0  0
 18 14  1  0  0  0  0
 20 19  1  0  0  0  0
 21 22  1  6  0  0  0
 21 23  1  0  0  0  0
 21 20  1  0  0  0  0
 23 24  1  6  0  0  0
 23 28  1  0  0  0  0
 27 28  1  0  0  0  0
 28 25  1  0  0  0  0
 28 26  1  0  0  0  0
 29  1  1  0  0  0  0
 29 35  1  0  0  0  0
 30 35  2  0  0  0  0
 30 32  1  0  0  0  0
 31 36  1  1  0  0  0
 32 33  1  0  0  0  0
 33 31  1  0  0  0  0
 34 31  1  0  0  0  0
 35 34  1  0  0  0  0
 36 37  1  0  0  0  0
 37 38  2  0  0  0  0
 37 40  1  0  0  0  0
 40 41  1  0  0  0  0
 40 39  1  1  0  0  0
 41 42  1  0  0  0  0
 42 43  1  6  0  0  0
 42 44  1  0  0  0  0
 44 45  1  0  0  0  0
 45 46  1  0  0  0  0
 46 47  1  6  0  0  0
 48 46  1  0  0  0  0
 49 48  1  0  0  0  0
M  END
>  <MODEL>
3

>  <REMARK>
 VINA RESULT:      -6.2      3.156      7.982
  Name = 
  19 active torsions:
  status: ('A' for Active; 'I' for Inactive)
    1  A    between atoms: C_1  and  C_9
    2  A    between atoms: C_1  and  C_23
    3  A    between atoms: C_4  and  C_25
    4  A    between atoms: C_4  and  C_45
    5  A    between atoms: C_5  and  C_25
    6  A    between atoms: C_5  and  C_40
    7  A    between atoms: C_8  and  C_11
    8  A    between atoms: C_9  and  C_40
    9  A    between atoms: C_11  and  C_16
   10  A    between atoms: C_12  and  C_25
   11  A    between atoms: C_16  and  C_41
   12  A    between atoms: C_22  and  C_29
   13  A    between atoms: C_22  and  O_31
   14  A    between atoms: C_26  and  O_46
   15  A    between atoms: C_26  and  C_48
   16  A    between atoms: N_28  and  C_49
   17  A    between atoms: C_29  and  O_46
   18  A    between atoms: C_37  and  C_43
   19  A    between atoms: C_41  and  C_48
                            x       y       z     vdW  Elec       q    Type
                         _______ _______ _______ _____ _____    ______ ____

>  <TORSDO>
F 19

$$$$
=
 OpenBabel11062420233D

 49 52  0  0  1  0  0  0  0  0999 V2000
  193.2920  173.1150  139.7450 C   0  0  1  0  0  3  0  0  0  0  0  0
  189.5410  172.3820  144.1430 C   0  0  0  0  0  1  0  0  0  0  0  0
  192.3870  173.0170  140.9390 C   0  0  0  0  0  0  0  0  0  0  0  0
  193.5810  171.1530  141.8110 O   0  0  0  0  0  0  0  0  0  0  0  0
  192.6250  171.9600  141.9460 C   0  0  0  0  0  0  0  0  0  0  0  0
  190.3500  172.3900  142.8570 C   0  0  2  0  0  3  0  0  0  0  0  0
  191.3460  173.8500  141.0790 C   0  0  0  0  0  3  0  0  0  0  0  0
  191.7520  171.8540  143.1550 C   0  0  0  0  0  2  0  0  0  0  0  0
  190.4440  173.8110  142.2790 C   0  0  1  0  0  3  0  0  0  0  0  0
  189.1260  174.2980  141.9000 N   0  0  0  0  0  2  0  0  0  0  0  0
  188.7960  175.6880  141.9230 C   0  0  0  0  0  0  0  0  0  0  0  0
  189.6720  176.5470  142.2050 O   0  0  0  0  0  0  0  0  0  0  0  0
  186.2100  178.0130  141.3360 C   0  0  1  0  0  3  0  0  0  0  0  0
  186.5770  176.2210  142.8500 C   0  0  0  0  0  2  0  0  0  0  0  0
  187.4370  177.4050  141.0080 O   0  0  0  0  0  0  0  0  0  0  0  0
  185.6270  177.3460  142.5680 C   0  0  1  0  0  3  0  0  0  0  0  0
  186.3200  178.6930  142.6890 C   0  0  0  0  0  2  0  0  0  0  0  0
  187.4120  176.1330  141.5960 C   0  0  1  0  0  3  0  0  0  0  0  0
  192.7930  172.3360  138.5170 C   0  0  0  0  0  2  0  0  0  0  0  0
  192.1950  173.2210  137.4230 C   0  0  0  0  0  2  0  0  0  0  0  0
  190.7240  172.8930  137.2020 C   0  0  2  0  0  3  0  0  0  0  0  0
  189.9360  173.9880  137.5470 O   0  0  0  0  0  1  0  0  0  0  0  0
  190.2490  171.6280  137.9300 C   0  0  1  0  0  3  0  0  0  0  0  0
  189.0600  171.9280  138.8300 C   0  0  0  0  0  1  0  0  0  0  0  0
  191.1600  169.7740  136.6940 F   0  0  0  0  0  0  0  0  0  0  0  0
  189.1310  169.5230  137.6390 F   0  0  0  0  0  0  0  0  0  0  0  0
  189.3740  170.8560  135.8500 F   0  0  0  0  0  0  0  0  0  0  0  0
  189.9800  170.4200  137.0170 C   0  0  0  0  0  0  0  0  0  0  0  0
  193.7190  174.5540  139.4550 C   0  0  0  0  0  2  0  0  0  0  0  0
  196.1420  174.1900  139.6340 C   0  0  0  0  0  3  0  0  0  0  0  0
  196.5040  176.1010  141.7680 C   0  0  1  0  0  3  0  0  0  0  0  0
  197.5150  174.4180  140.2040 C   0  0  0  0  0  2  0  0  0  0  0  0
  197.6480  175.8190  140.7940 C   0  0  0  0  0  2  0  0  0  0  0  0
  195.1470  175.9880  141.0610 C   0  0  0  0  0  2  0  0  0  0  0  0
  195.0560  174.8620  140.0590 C   0  0  0  0  0  0  0  0  0  0  0  0
  196.5850  175.1830  142.9800 C   0  0  0  0  0  2  0  0  0  0  0  0
  195.6650  175.6570  144.0680 C   0  0  0  0  0  0  0  0  0  0  0  0
  195.7320  176.8140  144.4410 O   0  0  0  0  0  0  0  0  0  0  0  0
  194.9100  173.4070  144.3420 O   0  0  0  0  0  1  0  0  0  0  0  0
  194.6760  174.7330  144.7190 C   0  0  2  0  0  3  0  0  0  0  0  0
  193.2570  175.1390  144.3390 C   0  0  0  0  0  2  0  0  0  0  0  0
  192.6840  176.1300  145.3430 C   0  0  2  0  0  3  0  0  0  0  0  0
  192.6580  175.5170  146.7330 C   0  0  0  0  0  1  0  0  0  0  0  0
  191.3820  176.4640  144.9690 O   0  0  0  0  0  0  0  0  0  0  0  0
  190.5710  175.5370  145.6280 C   0  0  0  0  0  2  0  0  0  0  0  0
  189.1300  176.0380  145.6500 C   0  0  2  0  0  3  0  0  0  0  0  0
  189.0420  177.5360  145.3850 C   0  0  0  0  0  1  0  0  0  0  0  0
  188.4100  175.6350  146.7980 O   0  0  0  0  0  0  0  0  0  0  0  0
  189.0710  174.5520  147.4010 C   0  0  0  0  0  1  0  0  0  0  0  0
  1 19  1  6  0  0  0
  1  3  1  0  0  0  0
  3  7  2  0  0  0  0
  3  5  1  0  0  0  0
  4  5  2  0  0  0  0
  5  8  1  0  0  0  0
  6  8  1  0  0  0  0
  6  2  1  1  0  0  0
  7  9  1  0  0  0  0
  9 10  1  6  0  0  0
  9  6  1  0  0  0  0
 10 11  1  0  0  0  0
 11 12  2  0  0  0  0
 13 16  1  0  0  0  0
 13 17  1  1  0  0  0
 15 13  1  0  0  0  0
 15 18  1  0  0  0  0
 16 17  1  1  0  0  0
 16 14  1  0  0  0  0
 18 11  1  1  0  0  0
 18 14  1  0  0  0  0
 20 19  1  0  0  0  0
 21 20  1  0  0  0  0
 21 22  1  1  0  0  0
 21 23  1  0  0  0  0
 23 24  1  6  0  0  0
 25 28  1  0  0  0  0
 27 28  1  0  0  0  0
 28 26  1  0  0  0  0
 28 23  1  0  0  0  0
 29  1  1  0  0  0  0
 29 35  1  0  0  0  0
 30 35  2  0  0  0  0
 30 32  1  0  0  0  0
 31 36  1  1  0  0  0
 32 33  1  0  0  0  0
 33 31  1  0  0  0  0
 34 31  1  0  0  0  0
 35 34  1  0  0  0  0
 36 37  1  0  0  0  0
 37 38  2  0  0  0  0
 37 40  1  0  0  0  0
 40 39  1  6  0  0  0
 41 40  1  0  0  0  0
 41 42  1  0  0  0  0
 42 43  1  1  0  0  0
 44 42  1  0  0  0  0
 44 45  1  0  0  0  0
 45 46  1  0  0  0  0
 46 47  1  1  0  0  0
 46 48  1  0  0  0  0
 48 49  1  0  0  0  0
M  END
>  <MODEL>
4

>  <REMARK>
 VINA RESULT:      -6.2      3.728      7.919
  Name = 
  19 active torsions:
  status: ('A' for Active; 'I' for Inactive)
    1  A    between atoms: C_1  and  C_9
    2  A    between atoms: C_1  and  C_23
    3  A    between atoms: C_4  and  C_25
    4  A    between atoms: C_4  and  C_45
    5  A    between atoms: C_5  and  C_25
    6  A    between atoms: C_5  and  C_40
    7  A    between atoms: C_8  and  C_11
    8  A    between atoms: C_9  and  C_40
    9  A    between atoms: C_11  and  C_16
   10  A    between atoms: C_12  and  C_25
   11  A    between atoms: C_16  and  C_41
   12  A    between atoms: C_22  and  C_29
   13  A    between atoms: C_22  and  O_31
   14  A    between atoms: C_26  and  O_46
   15  A    between atoms: C_26  and  C_48
   16  A    between atoms: N_28  and  C_49
   17  A    between atoms: C_29  and  O_46
   18  A    between atoms: C_37  and  C_43
   19  A    between atoms: C_41  and  C_48
                            x       y       z     vdW  Elec       q    Type
                         _______ _______ _______ _____ _____    ______ ____

>  <TORSDO>
F 19

$$$$
=
 OpenBabel11062420233D

 49 52  0  0  1  0  0  0  0  0999 V2000
  192.2360  175.1570  144.0490 C   0  0  1  0  0  3  0  0  0  0  0  0
  188.6950  173.0970  139.9060 C   0  0  0  0  0  1  0  0  0  0  0  0
  191.3110  174.5230  143.0510 C   0  0  0  0  0  0  0  0  0  0  0  0
  193.1220  173.7930  141.6920 O   0  0  0  0  0  0  0  0  0  0  0  0
  191.8770  173.8460  141.8640 C   0  0  0  0  0  0  0  0  0  0  0  0
  189.6120  173.8760  140.8350 C   0  0  2  0  0  3  0  0  0  0  0  0
  189.9810  174.5990  143.2060 C   0  0  0  0  0  3  0  0  0  0  0  0
  190.9780  173.1880  140.8660 C   0  0  0  0  0  2  0  0  0  0  0  0
  189.0250  173.9410  142.2540 C   0  0  1  0  0  3  0  0  0  0  0  0
  187.7700  174.6780  142.2550 N   0  0  0  0  0  2  0  0  0  0  0  0
  187.7240  176.0970  142.0910 C   0  0  0  0  0  0  0  0  0  0  0  0
  188.7770  176.7480  141.8640 O   0  0  0  0  0  0  0  0  0  0  0  0
  185.5790  178.8220  142.7330 C   0  0  1  0  0  3  0  0  0  0  0  0
  185.7770  176.5900  143.5180 C   0  0  0  0  0  2  0  0  0  0  0  0
  186.6180  178.1960  142.0170 O   0  0  0  0  0  0  0  0  0  0  0  0
  185.0330  177.8660  143.7760 C   0  0  1  0  0  3  0  0  0  0  0  0
  185.9810  178.9800  144.1880 C   0  0  0  0  0  2  0  0  0  0  0  0
  186.4210  176.8160  142.1720 C   0  0  1  0  0  3  0  0  0  0  0  0
  191.8930  176.6190  144.3780 C   0  0  0  0  0  2  0  0  0  0  0  0
  191.1980  176.8040  145.7260 C   0  0  0  0  0  2  0  0  0  0  0  0
  189.6900  176.6400  145.5870 C   0  0  2  0  0  3  0  0  0  0  0  0
  189.1260  177.8170  145.1010 O   0  0  0  0  0  1  0  0  0  0  0  0
  188.9880  176.1910  146.8760 C   0  0  1  0  0  3  0  0  0  0  0  0
  187.4830  176.3980  146.7800 C   0  0  0  0  0  1  0  0  0  0  0  0
  189.4080  173.9020  146.2590 F   0  0  0  0  0  0  0  0  0  0  0  0
  190.5480  174.7570  148.0040 F   0  0  0  0  0  0  0  0  0  0  0  0
  188.3580  174.3150  148.2080 F   0  0  0  0  0  0  0  0  0  0  0  0
  189.3360  174.7660  147.3380 C   0  0  0  0  0  0  0  0  0  0  0  0
  192.4720  174.2680  145.2710 C   0  0  0  0  0  2  0  0  0  0  0  0
  194.8740  174.5140  145.7210 C   0  0  0  0  0  3  0  0  0  0  0  0
  195.5540  171.8680  144.7870 C   0  0  1  0  0  3  0  0  0  0  0  0
  196.3070  174.0590  145.7520 C   0  0  0  0  0  2  0  0  0  0  0  0
  196.4070  172.5400  145.8620 C   0  0  0  0  0  2  0  0  0  0  0  0
  194.0820  172.2780  144.9260 C   0  0  0  0  0  2  0  0  0  0  0  0
  193.8690  173.7270  145.2950 C   0  0  0  0  0  0  0  0  0  0  0  0
  196.0940  172.1720  143.3960 C   0  0  0  0  0  2  0  0  0  0  0  0
  196.3750  170.9020  142.6460 C   0  0  0  0  0  0  0  0  0  0  0  0
  197.2900  170.8760  141.8430 O   0  0  0  0  0  0  0  0  0  0  0  0
  196.3420  168.5210  142.8360 O   0  0  0  0  0  1  0  0  0  0  0  0
  195.5430  169.6690  142.8500 C   0  0  2  0  0  3  0  0  0  0  0  0
  194.4780  169.5750  141.7630 C   0  0  0  0  0  2  0  0  0  0  0  0
  193.1250  170.0460  142.2810 C   0  0  2  0  0  3  0  0  0  0  0  0
  192.6710  169.1730  143.4390 C   0  0  0  0  0  1  0  0  0  0  0  0
  192.1850  169.9630  141.2540 O   0  0  0  0  0  0  0  0  0  0  0  0
  192.9200  170.1290  140.0790 C   0  0  0  0  0  2  0  0  0  0  0  0
  192.0000  169.9860  138.8710 C   0  0  2  0  0  3  0  0  0  0  0  0
  192.1010  171.1810  137.9310 C   0  0  0  0  0  1  0  0  0  0  0  0
  190.6670  169.6610  139.2130 O   0  0  0  0  0  0  0  0  0  0  0  0
  189.8280  169.9420  138.1200 C   0  0  0  0  0  1  0  0  0  0  0  0
  1 19  1  1  0  0  0
  1 29  1  0  0  0  0
  3  7  2  0  0  0  0
  3  1  1  0  0  0  0
  4  5  2  0  0  0  0
  5  3  1  0  0  0  0
  6  2  1  6  0  0  0
  6  8  1  0  0  0  0
  6  9  1  0  0  0  0
  8  5  1  0  0  0  0
  9 10  1  6  0  0  0
  9  7  1  0  0  0  0
 11 10  1  0  0  0  0
 12 11  2  0  0  0  0
 13 16  1  0  0  0  0
 13 17  1  1  0  0  0
 15 18  1  0  0  0  0
 15 13  1  0  0  0  0
 16 14  1  6  0  0  0
 16 17  1  0  0  0  0
 18 11  1  1  0  0  0
 18 14  1  0  0  0  0
 19 20  1  0  0  0  0
 21 22  1  1  0  0  0
 21 20  1  0  0  0  0
 21 23  1  0  0  0  0
 23 24  1  6  0  0  0
 23 28  1  0  0  0  0
 25 28  1  0  0  0  0
 28 26  1  0  0  0  0
 28 27  1  0  0  0  0
 29 35  1  0  0  0  0
 30 32  1  0  0  0  0
 31 36  1  6  0  0  0
 31 34  1  0  0  0  0
 31 33  1  0  0  0  0
 32 33  1  0  0  0  0
 34 35  1  0  0  0  0
 35 30  2  0  0  0  0
 37 40  1  0  0  0  0
 37 36  1  0  0  0  0
 38 37  2  0  0  0  0
 40 39  1  6  0  0  0
 41 42  1  0  0  0  0
 41 40  1  0  0  0  0
 42 43  1  1  0  0  0
 44 42  1  0  0  0  0
 45 44  1  0  0  0  0
 46 47  1  1  0  0  0
 46 48  1  0  0  0  0
 46 45  1  0  0  0  0
 49 48  1  0  0  0  0
M  END
>  <MODEL>
5

>  <REMARK>
 VINA RESULT:      -6.1      2.926      8.277
  Name = 
  19 active torsions:
  status: ('A' for Active; 'I' for Inactive)
    1  A    between atoms: C_1  and  C_9
    2  A    between atoms: C_1  and  C_23
    3  A    between atoms: C_4  and  C_25
    4  A    between atoms: C_4  and  C_45
    5  A    between atoms: C_5  and  C_25
    6  A    between atoms: C_5  and  C_40
    7  A    between atoms: C_8  and  C_11
    8  A    between atoms: C_9  and  C_40
    9  A    between atoms: C_11  and  C_16
   10  A    between atoms: C_12  and  C_25
   11  A    between atoms: C_16  and  C_41
   12  A    between atoms: C_22  and  C_29
   13  A    between atoms: C_22  and  O_31
   14  A    between atoms: C_26  and  O_46
   15  A    between atoms: C_26  and  C_48
   16  A    between atoms: N_28  and  C_49
   17  A    between atoms: C_29  and  O_46
   18  A    between atoms: C_37  and  C_43
   19  A    between atoms: C_41  and  C_48
                            x       y       z     vdW  Elec       q    Type
                         _______ _______ _______ _____ _____    ______ ____

>  <TORSDO>
F 19

$$$$
=
 OpenBabel11062420233D

 49 52  0  0  1  0  0  0  0  0999 V2000
  193.0700  175.7090  143.2650 C   0  0  1  0  0  3  0  0  0  0  0  0
  197.8420  172.7020  141.8030 C   0  0  0  0  0  1  0  0  0  0  0  0
  194.3580  174.9910  142.9830 C   0  0  0  0  0  0  0  0  0  0  0  0
  194.9430  176.5190  141.2550 O   0  0  0  0  0  0  0  0  0  0  0  0
  195.2520  175.4940  141.9170 C   0  0  0  0  0  0  0  0  0  0  0  0
  196.4680  173.3250  141.9870 C   0  0  2  0  0  3  0  0  0  0  0  0
  194.6850  173.8800  143.6590 C   0  0  0  0  0  3  0  0  0  0  0  0
  196.5500  174.8110  141.6310 C   0  0  0  0  0  2  0  0  0  0  0  0
  195.9830  173.1590  143.4360 C   0  0  1  0  0  3  0  0  0  0  0  0
  195.8070  171.7510  143.7590 N   0  0  0  0  0  2  0  0  0  0  0  0
  196.1390  171.2210  145.0440 C   0  0  0  0  0  0  0  0  0  0  0  0
  196.5280  171.9830  145.9680 O   0  0  0  0  0  0  0  0  0  0  0  0
  194.6240  168.2890  146.2880 C   0  0  1  0  0  3  0  0  0  0  0  0
  196.7050  169.3910  146.5920 C   0  0  0  0  0  2  0  0  0  0  0  0
  194.6590  169.4070  145.4320 O   0  0  0  0  0  0  0  0  0  0  0  0
  195.8880  168.2530  147.1260 C   0  0  1  0  0  3  0  0  0  0  0  0
  194.5870  168.7500  147.7330 C   0  0  0  0  0  2  0  0  0  0  0  0
  196.0100  169.7600  145.3050 C   0  0  1  0  0  3  0  0  0  0  0  0
  191.8600  174.7760  143.4330 C   0  0  0  0  0  2  0  0  0  0  0  0
  190.7450  175.0180  142.4160 C   0  0  0  0  0  2  0  0  0  0  0  0
  190.1660  173.6980  141.9210 C   0  0  2  0  0  3  0  0  0  0  0  0
  190.5720  172.6590  142.7520 O   0  0  0  0  0  1  0  0  0  0  0  0
  190.4920  173.3840  140.4540 C   0  0  1  0  0  3  0  0  0  0  0  0
  191.1580  172.0220  140.3220 C   0  0  0  0  0  1  0  0  0  0  0  0
  188.4270  174.5040  139.9280 F   0  0  0  0  0  0  0  0  0  0  0  0
  189.7600  173.8820  138.2230 F   0  0  0  0  0  0  0  0  0  0  0  0
  188.6380  172.3280  139.3890 F   0  0  0  0  0  0  0  0  0  0  0  0
  189.3100  173.5350  139.4830 C   0  0  0  0  0  0  0  0  0  0  0  0
  193.2190  176.7630  144.3620 C   0  0  0  0  0  2  0  0  0  0  0  0
  192.4310  175.7150  146.4400 C   0  0  0  0  0  3  0  0  0  0  0  0
  189.8830  177.0720  146.4280 C   0  0  1  0  0  3  0  0  0  0  0  0
  191.4450  175.4560  147.5440 C   0  0  0  0  0  2  0  0  0  0  0  0
  190.5150  176.6480  147.7530 C   0  0  0  0  0  2  0  0  0  0  0  0
  190.9630  177.4590  145.4090 C   0  0  0  0  0  2  0  0  0  0  0  0
  192.1930  176.5830  145.4390 C   0  0  0  0  0  0  0  0  0  0  0  0
  188.9670  175.9810  145.8900 C   0  0  0  0  0  2  0  0  0  0  0  0
  187.5310  176.4150  145.9530 C   0  0  0  0  0  0  0  0  0  0  0  0
  186.9530  176.4050  147.0250 O   0  0  0  0  0  0  0  0  0  0  0  0
  187.1520  176.0630  143.6200 O   0  0  0  0  0  1  0  0  0  0  0  0
  186.7850  176.8420  144.7220 C   0  0  2  0  0  3  0  0  0  0  0  0
  187.0590  178.3140  144.4330 C   0  0  0  0  0  2  0  0  0  0  0  0
  185.7610  179.0830  144.2320 C   0  0  2  0  0  3  0  0  0  0  0  0
  184.6020  178.3410  144.8770 C   0  0  0  0  0  1  0  0  0  0  0  0
  185.5100  179.2160  142.8660 O   0  0  0  0  0  0  0  0  0  0  0  0
  184.5650  178.2300  142.5760 C   0  0  0  0  0  2  0  0  0  0  0  0
  184.7550  177.7400  141.1440 C   0  0  2  0  0  3  0  0  0  0  0  0
  186.1930  177.9050  140.6700 C   0  0  0  0  0  1  0  0  0  0  0  0
  183.8070  178.2680  140.2370 O   0  0  0  0  0  0  0  0  0  0  0  0
  182.5430  178.2870  140.8490 C   0  0  0  0  0  1  0  0  0  0  0  0
  1 19  1  1  0  0  0
  1 29  1  0  0  0  0
  3  1  1  0  0  0  0
  3  7  2  0  0  0  0
  4  5  2  0  0  0  0
  5  3  1  0  0  0  0
  6  2  1  1  0  0  0
  6  9  1  0  0  0  0
  8  5  1  0  0  0  0
  8  6  1  0  0  0  0
  9  7  1  0  0  0  0
  9 10  1  6  0  0  0
 10 11  1  0  0  0  0
 11 12  2  0  0  0  0
 13 16  1  0  0  0  0
 13 17  1  1  0  0  0
 15 13  1  0  0  0  0
 16 14  1  6  0  0  0
 16 17  1  0  0  0  0
 18 11  1  1  0  0  0
 18 15  1  0  0  0  0
 18 14  1  0  0  0  0
 20 19  1  0  0  0  0
 21 20  1  0  0  0  0
 21 22  1  1  0  0  0
 23 24  1  1  0  0  0
 23 21  1  0  0  0  0
 26 28  1  0  0  0  0
 27 28  1  0  0  0  0
 28 25  1  0  0  0  0
 28 23  1  0  0  0  0
 29 35  1  0  0  0  0
 30 32  1  0  0  0  0
 31 36  1  6  0  0  0
 31 33  1  0  0  0  0
 32 33  1  0  0  0  0
 34 35  1  0  0  0  0
 34 31  1  0  0  0  0
 35 30  2  0  0  0  0
 36 37  1  0  0  0  0
 37 38  2  0  0  0  0
 40 39  1  6  0  0  0
 40 37  1  0  0  0  0
 41 40  1  0  0  0  0
 42 41  1  0  0  0  0
 42 43  1  1  0  0  0
 44 42  1  0  0  0  0
 45 44  1  0  0  0  0
 46 47  1  6  0  0  0
 46 45  1  0  0  0  0
 48 49  1  0  0  0  0
 48 46  1  0  0  0  0
M  END
>  <MODEL>
6

>  <REMARK>
 VINA RESULT:      -6.1      3.600      6.776
  Name = 
  19 active torsions:
  status: ('A' for Active; 'I' for Inactive)
    1  A    between atoms: C_1  and  C_9
    2  A    between atoms: C_1  and  C_23
    3  A    between atoms: C_4  and  C_25
    4  A    between atoms: C_4  and  C_45
    5  A    between atoms: C_5  and  C_25
    6  A    between atoms: C_5  and  C_40
    7  A    between atoms: C_8  and  C_11
    8  A    between atoms: C_9  and  C_40
    9  A    between atoms: C_11  and  C_16
   10  A    between atoms: C_12  and  C_25
   11  A    between atoms: C_16  and  C_41
   12  A    between atoms: C_22  and  C_29
   13  A    between atoms: C_22  and  O_31
   14  A    between atoms: C_26  and  O_46
   15  A    between atoms: C_26  and  C_48
   16  A    between atoms: N_28  and  C_49
   17  A    between atoms: C_29  and  O_46
   18  A    between atoms: C_37  and  C_43
   19  A    between atoms: C_41  and  C_48
                            x       y       z     vdW  Elec       q    Type
                         _______ _______ _______ _____ _____    ______ ____

>  <TORSDO>
F 19

$$$$
=
 OpenBabel11062420233D

 49 52  0  0  1  0  0  0  0  0999 V2000
  194.1600  176.1520  144.4990 C   0  0  1  0  0  3  0  0  0  0  0  0
  196.2770  175.2440  139.1470 C   0  0  0  0  0  1  0  0  0  0  0  0
  194.7510  175.8100  143.1630 C   0  0  0  0  0  0  0  0  0  0  0  0
  196.6690  177.1610  143.5570 O   0  0  0  0  0  0  0  0  0  0  0  0
  196.0550  176.3910  142.7740 C   0  0  0  0  0  0  0  0  0  0  0  0
  195.5980  175.7080  140.4250 C   0  0  2  0  0  3  0  0  0  0  0  0
  194.0920  175.0160  142.3060 C   0  0  0  0  0  3  0  0  0  0  0  0
  196.6750  176.0500  141.4570 C   0  0  0  0  0  2  0  0  0  0  0  0
  194.6690  174.6160  140.9780 C   0  0  1  0  0  3  0  0  0  0  0  0
  193.5820  174.3500  140.0480 N   0  0  0  0  0  2  0  0  0  0  0  0
  193.3050  173.0340  139.5620 C   0  0  0  0  0  0  0  0  0  0  0  0
  193.9570  172.0460  139.9910 O   0  0  0  0  0  0  0  0  0  0  0  0
  190.8130  171.2300  137.8400 C   0  0  1  0  0  3  0  0  0  0  0  0
  192.8160  172.3580  137.2450 C   0  0  0  0  0  2  0  0  0  0  0  0
  191.3370  171.8340  138.9990 O   0  0  0  0  0  0  0  0  0  0  0  0
  191.7550  171.4650  136.6750 C   0  0  1  0  0  3  0  0  0  0  0  0
  191.7350  170.1180  137.3770 C   0  0  0  0  0  2  0  0  0  0  0  0
  192.2280  172.8210  138.5550 C   0  0  1  0  0  3  0  0  0  0  0  0
  192.6440  175.9190  144.5890 C   0  0  0  0  0  2  0  0  0  0  0  0
  191.8910  177.0170  145.3420 C   0  0  0  0  0  2  0  0  0  0  0  0
  191.1350  176.4390  146.5320 C   0  0  2  0  0  3  0  0  0  0  0  0
  191.9360  175.5200  147.2040 O   0  0  0  0  0  1  0  0  0  0  0  0
  189.7790  175.8180  146.1690 C   0  0  1  0  0  3  0  0  0  0  0  0
  189.3670  174.7680  147.1900 C   0  0  0  0  0  1  0  0  0  0  0  0
  188.7560  177.9130  146.7710 F   0  0  0  0  0  0  0  0  0  0  0  0
  188.6990  177.2890  144.6080 F   0  0  0  0  0  0  0  0  0  0  0  0
  187.4280  176.2170  146.1140 F   0  0  0  0  0  0  0  0  0  0  0  0
  188.6520  176.8330  145.9120 C   0  0  0  0  0  0  0  0  0  0  0  0
  194.9650  175.5650  145.6590 C   0  0  0  0  0  2  0  0  0  0  0  0
  196.3950  173.5820  145.4240 C   0  0  0  0  0  3  0  0  0  0  0  0
  194.1880  171.7360  145.1810 C   0  0  1  0  0  3  0  0  0  0  0  0
  196.6680  172.1140  145.2420 C   0  0  0  0  0  2  0  0  0  0  0  0
  195.5170  171.2630  145.7700 C   0  0  0  0  0  2  0  0  0  0  0  0
  193.9250  173.2040  145.5420 C   0  0  0  0  0  2  0  0  0  0  0  0
  195.1500  174.0860  145.5050 C   0  0  0  0  0  0  0  0  0  0  0  0
  194.1510  171.5110  143.6750 C   0  0  0  0  0  2  0  0  0  0  0  0
  193.0820  170.5210  143.3120 C   0  0  0  0  0  0  0  0  0  0  0  0
  193.3770  169.3460  143.1910 O   0  0  0  0  0  0  0  0  0  0  0  0
  191.0790  170.1990  142.0510 O   0  0  0  0  0  1  0  0  0  0  0  0
  191.6620  170.9490  143.0770 C   0  0  2  0  0  3  0  0  0  0  0  0
  191.6180  172.4330  142.7270 C   0  0  0  0  0  2  0  0  0  0  0  0
  190.5000  173.1390  143.4820 C   0  0  2  0  0  3  0  0  0  0  0  0
  190.0530  172.3020  144.6690 C   0  0  0  0  0  1  0  0  0  0  0  0
  189.4150  173.3300  142.6270 O   0  0  0  0  0  0  0  0  0  0  0  0
  189.9780  173.7420  141.4180 C   0  0  0  0  0  2  0  0  0  0  0  0
  188.9280  174.4690  140.5830 C   0  0  2  0  0  3  0  0  0  0  0  0
  187.9570  175.2600  141.4490 C   0  0  0  0  0  1  0  0  0  0  0  0
  188.2800  173.6360  139.6420 O   0  0  0  0  0  0  0  0  0  0  0  0
  188.5170  174.1300  138.3480 C   0  0  0  0  0  1  0  0  0  0  0  0
  1 19  1  6  0  0  0
  1 29  1  0  0  0  0
  3  1  1  0  0  0  0
  5  3  1  0  0  0  0
  5  4  2  0  0  0  0
  6  2  1  6  0  0  0
  6  9  1  0  0  0  0
  6  8  1  0  0  0  0
  7  3  2  0  0  0  0
  8  5  1  0  0  0  0
  9 10  1  6  0  0  0
  9  7  1  0  0  0  0
 11 12  2  0  0  0  0
 11 10  1  0  0  0  0
 13 17  1  1  0  0  0
 13 15  1  0  0  0  0
 14 18  1  0  0  0  0
 16 14  1  1  0  0  0
 16 17  1  0  0  0  0
 16 13  1  0  0  0  0
 18 15  1  0  0  0  0
 18 11  1  1  0  0  0
 19 20  1  0  0  0  0
 20 21  1  0  0  0  0
 21 22  1  6  0  0  0
 23 21  1  0  0  0  0
 23 24  1  1  0  0  0
 26 28  1  0  0  0  0
 28 27  1  0  0  0  0
 28 23  1  0  0  0  0
 28 25  1  0  0  0  0
 30 35  2  0  0  0  0
 31 36  1  6  0  0  0
 31 34  1  0  0  0  0
 31 33  1  0  0  0  0
 32 30  1  0  0  0  0
 32 33  1  0  0  0  0
 35 34  1  0  0  0  0
 35 29  1  0  0  0  0
 37 36  1  0  0  0  0
 38 37  2  0  0  0  0
 40 39  1  6  0  0  0
 40 37  1  0  0  0  0
 41 40  1  0  0  0  0
 41 42  1  0  0  0  0
 42 43  1  1  0  0  0
 44 42  1  0  0  0  0
 45 44  1  0  0  0  0
 46 45  1  0  0  0  0
 46 47  1  1  0  0  0
 48 46  1  0  0  0  0
 49 48  1  0  0  0  0
M  END
>  <MODEL>
7

>  <REMARK>
 VINA RESULT:      -6.0      3.348      6.501
  Name = 
  19 active torsions:
  status: ('A' for Active; 'I' for Inactive)
    1  A    between atoms: C_1  and  C_9
    2  A    between atoms: C_1  and  C_23
    3  A    between atoms: C_4  and  C_25
    4  A    between atoms: C_4  and  C_45
    5  A    between atoms: C_5  and  C_25
    6  A    between atoms: C_5  and  C_40
    7  A    between atoms: C_8  and  C_11
    8  A    between atoms: C_9  and  C_40
    9  A    between atoms: C_11  and  C_16
   10  A    between atoms: C_12  and  C_25
   11  A    between atoms: C_16  and  C_41
   12  A    between atoms: C_22  and  C_29
   13  A    between atoms: C_22  and  O_31
   14  A    between atoms: C_26  and  O_46
   15  A    between atoms: C_26  and  C_48
   16  A    between atoms: N_28  and  C_49
   17  A    between atoms: C_29  and  O_46
   18  A    between atoms: C_37  and  C_43
   19  A    between atoms: C_41  and  C_48
                            x       y       z     vdW  Elec       q    Type
                         _______ _______ _______ _____ _____    ______ ____

>  <TORSDO>
F 19

$$$$
=
 OpenBabel11062420233D

 49 52  0  0  1  0  0  0  0  0999 V2000
  192.1710  174.3170  143.4300 C   0  0  1  0  0  3  0  0  0  0  0  0
  191.8160  168.6060  142.3280 C   0  0  0  0  0  1  0  0  0  0  0  0
  191.9710  172.8460  143.2080 C   0  0  0  0  0  0  0  0  0  0  0  0
  193.3830  172.2780  145.0360 O   0  0  0  0  0  0  0  0  0  0  0  0
  192.6490  171.8770  144.0960 C   0  0  0  0  0  0  0  0  0  0  0  0
  192.1380  170.0870  142.4450 C   0  0  2  0  0  3  0  0  0  0  0  0
  191.2170  172.4040  142.1900 C   0  0  0  0  0  3  0  0  0  0  0  0
  192.4490  170.4070  143.9090 C   0  0  0  0  0  2  0  0  0  0  0  0
  190.9580  170.9430  141.9600 C   0  0  1  0  0  3  0  0  0  0  0  0
  190.7120  170.7210  140.5430 N   0  0  0  0  0  2  0  0  0  0  0  0
  191.6520  171.1130  139.5400 C   0  0  0  0  0  0  0  0  0  0  0  0
  192.7650  171.6020  139.8650 O   0  0  0  0  0  0  0  0  0  0  0  0
  190.8300  172.1330  136.2660 C   0  0  1  0  0  3  0  0  0  0  0  0
  189.8380  170.7420  137.9150 C   0  0  0  0  0  2  0  0  0  0  0  0
  191.7060  172.0630  137.3660 O   0  0  0  0  0  0  0  0  0  0  0  0
  189.5630  171.3590  136.5760 C   0  0  1  0  0  3  0  0  0  0  0  0
  189.5670  172.8760  136.6600 C   0  0  0  0  0  2  0  0  0  0  0  0
  191.3240  170.9300  138.0980 C   0  0  1  0  0  3  0  0  0  0  0  0
  193.1960  174.9580  142.4810 C   0  0  0  0  0  2  0  0  0  0  0  0
  194.6440  174.5700  142.7780 C   0  0  0  0  0  2  0  0  0  0  0  0
  195.2970  175.5810  143.7130 C   0  0  2  0  0  3  0  0  0  0  0  0
  196.6420  175.2700  143.8860 O   0  0  0  0  0  1  0  0  0  0  0  0
  194.5910  175.7240  145.0690 C   0  0  1  0  0  3  0  0  0  0  0  0
  195.3100  174.9270  146.1480 C   0  0  0  0  0  1  0  0  0  0  0  0
  193.0930  177.6090  145.0720 F   0  0  0  0  0  0  0  0  0  0  0  0
  194.3810  177.2750  146.8900 F   0  0  0  0  0  0  0  0  0  0  0  0
  195.3090  177.9970  144.9790 F   0  0  0  0  0  0  0  0  0  0  0  0
  194.3310  177.1740  145.5120 C   0  0  0  0  0  0  0  0  0  0  0  0
  190.8480  175.0740  143.5440 C   0  0  0  0  0  2  0  0  0  0  0  0
  191.0950  174.8760  145.9810 C   0  0  0  0  0  3  0  0  0  0  0  0
  189.5970  177.2750  146.5580 C   0  0  1  0  0  3  0  0  0  0  0  0
  190.8920  175.3010  147.4090 C   0  0  0  0  0  2  0  0  0  0  0  0
  190.6920  176.8100  147.5180 C   0  0  0  0  0  2  0  0  0  0  0  0
  189.9600  176.9280  145.1090 C   0  0  0  0  0  2  0  0  0  0  0  0
  190.6260  175.5830  144.9360 C   0  0  0  0  0  0  0  0  0  0  0  0
  188.2450  176.6960  146.9540 C   0  0  0  0  0  2  0  0  0  0  0  0
  187.2210  177.7840  147.0940 C   0  0  0  0  0  0  0  0  0  0  0  0
  187.3750  178.6390  147.9470 O   0  0  0  0  0  0  0  0  0  0  0  0
  185.6250  176.5480  145.8170 O   0  0  0  0  0  1  0  0  0  0  0  0
  186.0030  177.8330  146.2180 C   0  0  2  0  0  3  0  0  0  0  0  0
  186.2770  178.7000  144.9940 C   0  0  0  0  0  2  0  0  0  0  0  0
  185.8890  177.9750  143.7120 C   0  0  2  0  0  3  0  0  0  0  0  0
  187.1330  177.4940  142.9810 C   0  0  0  0  0  1  0  0  0  0  0  0
  185.1850  178.8480  142.8830 O   0  0  0  0  0  0  0  0  0  0  0  0
  183.9090  178.2920  142.7770 C   0  0  0  0  0  2  0  0  0  0  0  0
  183.6370  177.9010  141.3280 C   0  0  2  0  0  3  0  0  0  0  0  0
  184.5120  178.6780  140.3530 C   0  0  0  0  0  1  0  0  0  0  0  0
  182.2660  177.9270  140.9840 O   0  0  0  0  0  0  0  0  0  0  0  0
  181.5880  178.7970  141.8540 C   0  0  0  0  0  1  0  0  0  0  0  0
  1 19  1  6  0  0  0
  1 29  1  0  0  0  0
  3  1  1  0  0  0  0
  3  5  1  0  0  0  0
  5  4  2  0  0  0  0
  6  2  1  1  0  0  0
  6  8  1  0  0  0  0
  7  3  2  0  0  0  0
  8  5  1  0  0  0  0
  9 10  1  6  0  0  0
  9  7  1  0  0  0  0
  9  6  1  0  0  0  0
 11 12  2  0  0  0  0
 11 10  1  0  0  0  0
 13 16  1  0  0  0  0
 13 17  1  1  0  0  0
 13 15  1  0  0  0  0
 14 18  1  0  0  0  0
 15 18  1  0  0  0  0
 16 17  1  1  0  0  0
 16 14  1  0  0  0  0
 18 11  1  1  0  0  0
 19 20  1  0  0  0  0
 20 21  1  0  0  0  0
 21 22  1  1  0  0  0
 21 23  1  0  0  0  0
 23 28  1  0  0  0  0
 23 24  1  1  0  0  0
 25 28  1  0  0  0  0
 27 28  1  0  0  0  0
 28 26  1  0  0  0  0
 29 35  1  0  0  0  0
 30 32  1  0  0  0  0
 31 36  1  1  0  0  0
 31 33  1  0  0  0  0
 32 33  1  0  0  0  0
 34 31  1  0  0  0  0
 35 34  1  0  0  0  0
 35 30  2  0  0  0  0
 36 37  1  0  0  0  0
 37 38  2  0  0  0  0
 40 39  1  6  0  0  0
 40 37  1  0  0  0  0
 41 40  1  0  0  0  0
 42 43  1  6  0  0  0
 42 41  1  0  0  0  0
 44 42  1  0  0  0  0
 45 44  1  0  0  0  0
 46 47  1  6  0  0  0
 46 45  1  0  0  0  0
 48 46  1  0  0  0  0
 48 49  1  0  0  0  0
M  END
>  <MODEL>
8

>  <REMARK>
 VINA RESULT:      -5.9      1.904      2.802
  Name = 
  19 active torsions:
  status: ('A' for Active; 'I' for Inactive)
    1  A    between atoms: C_1  and  C_9
    2  A    between atoms: C_1  and  C_23
    3  A    between atoms: C_4  and  C_25
    4  A    between atoms: C_4  and  C_45
    5  A    between atoms: C_5  and  C_25
    6  A    between atoms: C_5  and  C_40
    7  A    between atoms: C_8  and  C_11
    8  A    between atoms: C_9  and  C_40
    9  A    between atoms: C_11  and  C_16
   10  A    between atoms: C_12  and  C_25
   11  A    between atoms: C_16  and  C_41
   12  A    between atoms: C_22  and  C_29
   13  A    between atoms: C_22  and  O_31
   14  A    between atoms: C_26  and  O_46
   15  A    between atoms: C_26  and  C_48
   16  A    between atoms: N_28  and  C_49
   17  A    between atoms: C_29  and  O_46
   18  A    between atoms: C_37  and  C_43
   19  A    between atoms: C_41  and  C_48
                            x       y       z     vdW  Elec       q    Type
                         _______ _______ _______ _____ _____    ______ ____

>  <TORSDO>
F 19

$$$$
=
 OpenBabel11062420233D

 49 52  0  0  1  0  0  0  0  0999 V2000
  189.9940  174.6450  142.9840 C   0  0  1  0  0  3  0  0  0  0  0  0
  193.0240  171.1320  139.4590 C   0  0  0  0  0  1  0  0  0  0  0  0
  190.7170  173.7950  141.9800 C   0  0  0  0  0  0  0  0  0  0  0  0
  189.2060  171.9820  142.2830 O   0  0  0  0  0  0  0  0  0  0  0  0
  190.2260  172.4290  141.6950 C   0  0  0  0  0  0  0  0  0  0  0  0
  192.3970  171.9370  140.5850 C   0  0  2  0  0  3  0  0  0  0  0  0
  191.8220  174.2470  141.3700 C   0  0  0  0  0  3  0  0  0  0  0  0
  190.9150  171.5700  140.6840 C   0  0  0  0  0  2  0  0  0  0  0  0
  192.5480  173.4450  140.3290 C   0  0  1  0  0  3  0  0  0  0  0  0
  193.9520  173.8260  140.3280 N   0  0  0  0  0  2  0  0  0  0  0  0
  194.5150  174.6450  139.3010 C   0  0  0  0  0  0  0  0  0  0  0  0
  193.7840  175.1270  138.3970 O   0  0  0  0  0  0  0  0  0  0  0  0
  197.9410  174.0060  139.8410 C   0  0  1  0  0  3  0  0  0  0  0  0
  196.3710  175.6180  140.5970 C   0  0  0  0  0  2  0  0  0  0  0  0
  196.7160  173.7660  139.1880 O   0  0  0  0  0  0  0  0  0  0  0  0
  197.7760  175.1480  140.8250 C   0  0  1  0  0  3  0  0  0  0  0  0
  197.8000  173.7120  141.3230 C   0  0  0  0  0  2  0  0  0  0  0  0
  195.9740  174.9490  139.3040 C   0  0  1  0  0  3  0  0  0  0  0  0
  188.7690  175.3790  142.4140 C   0  0  0  0  0  2  0  0  0  0  0  0
  187.7020  175.7060  143.4580 C   0  0  0  0  0  2  0  0  0  0  0  0
  187.5460  177.2130  143.6230 C   0  0  2  0  0  3  0  0  0  0  0  0
  188.4710  177.6880  144.5490 O   0  0  0  0  0  1  0  0  0  0  0  0
  186.1250  177.6580  143.9930 C   0  0  1  0  0  3  0  0  0  0  0  0
  186.0710  178.1860  145.4200 C   0  0  0  0  0  1  0  0  0  0  0  0
  184.1680  178.2680  142.7310 F   0  0  0  0  0  0  0  0  0  0  0  0
  185.4840  179.9210  143.5120 F   0  0  0  0  0  0  0  0  0  0  0  0
  186.1940  178.6330  141.8180 F   0  0  0  0  0  0  0  0  0  0  0  0
  185.4750  178.6360  143.0010 C   0  0  0  0  0  0  0  0  0  0  0  0
  189.7380  173.9040  144.2960 C   0  0  0  0  0  2  0  0  0  0  0  0
  189.7870  175.2610  146.3430 C   0  0  0  0  0  3  0  0  0  0  0  0
  192.6540  175.1060  146.6510 C   0  0  1  0  0  3  0  0  0  0  0  0
  190.4500  175.9530  147.5020 C   0  0  0  0  0  2  0  0  0  0  0  0
  191.7630  175.2720  147.8810 C   0  0  0  0  0  2  0  0  0  0  0  0
  191.9500  174.2630  145.5790 C   0  0  0  0  0  2  0  0  0  0  0  0
  190.4720  174.5390  145.4370 C   0  0  0  0  0  0  0  0  0  0  0  0
  193.0860  176.4610  146.1070 C   0  0  0  0  0  2  0  0  0  0  0  0
  193.8450  176.3000  144.8210 C   0  0  0  0  0  0  0  0  0  0  0  0
  193.2560  176.4300  143.7630 O   0  0  0  0  0  0  0  0  0  0  0  0
  195.9900  176.7360  143.8640 O   0  0  0  0  0  1  0  0  0  0  0  0
  195.3080  175.9630  144.8090 C   0  0  2  0  0  3  0  0  0  0  0  0
  195.4970  174.4810  144.5040 C   0  0  0  0  0  2  0  0  0  0  0  0
  196.5070  173.8510  145.4530 C   0  0  2  0  0  3  0  0  0  0  0  0
  197.9240  174.1350  144.9820 C   0  0  0  0  0  1  0  0  0  0  0  0
  196.3090  172.4710  145.4880 O   0  0  0  0  0  0  0  0  0  0  0  0
  194.9780  172.2890  145.1070 C   0  0  0  0  0  2  0  0  0  0  0  0
  194.5020  170.9070  145.5420 C   0  0  2  0  0  3  0  0  0  0  0  0
  195.6240  170.0860  146.1640 C   0  0  0  0  0  1  0  0  0  0  0  0
  193.7980  170.2090  144.5330 O   0  0  0  0  0  0  0  0  0  0  0  0
  192.6320  170.9210  144.2070 C   0  0  0  0  0  1  0  0  0  0  0  0
  1 19  1  6  0  0  0
  1 29  1  0  0  0  0
  3  1  1  0  0  0  0
  5  3  1  0  0  0  0
  5  4  2  0  0  0  0
  6  2  1  6  0  0  0
  6  8  1  0  0  0  0
  7  3  2  0  0  0  0
  8  5  1  0  0  0  0
  9 10  1  1  0  0  0
  9  6  1  0  0  0  0
  9  7  1  0  0  0  0
 11 10  1  0  0  0  0
 12 11  2  0  0  0  0
 13 16  1  0  0  0  0
 13 17  1  1  0  0  0
 15 18  1  0  0  0  0
 15 13  1  0  0  0  0
 16 14  1  6  0  0  0
 16 17  1  0  0  0  0
 18 11  1  1  0  0  0
 18 14  1  0  0  0  0
 19 20  1  0  0  0  0
 20 21  1  0  0  0  0
 21 23  1  0  0  0  0
 21 22  1  1  0  0  0
 23 24  1  1  0  0  0
 25 28  1  0  0  0  0
 27 28  1  0  0  0  0
 28 26  1  0  0  0  0
 28 23  1  0  0  0  0
 29 35  1  0  0  0  0
 30 32  1  0  0  0  0
 31 36  1  6  0  0  0
 31 33  1  0  0  0  0
 32 33  1  0  0  0  0
 34 31  1  0  0  0  0
 35 34  1  0  0  0  0
 35 30  2  0  0  0  0
 37 36  1  0  0  0  0
 38 37  2  0  0  0  0
 40 39  1  6  0  0  0
 40 37  1  0  0  0  0
 41 40  1  0  0  0  0
 41 42  1  0  0  0  0
 42 43  1  6  0  0  0
 42 44  1  0  0  0  0
 45 44  1  0  0  0  0
 45 46  1  0  0  0  0
 46 47  1  6  0  0  0
 48 46  1  0  0  0  0
 49 48  1  0  0  0  0
M  END
>  <MODEL>
9

>  <REMARK>
 VINA RESULT:      -5.9      3.480      7.551
  Name = 
  19 active torsions:
  status: ('A' for Active; 'I' for Inactive)
    1  A    between atoms: C_1  and  C_9
    2  A    between atoms: C_1  and  C_23
    3  A    between atoms: C_4  and  C_25
    4  A    between atoms: C_4  and  C_45
    5  A    between atoms: C_5  and  C_25
    6  A    between atoms: C_5  and  C_40
    7  A    between atoms: C_8  and  C_11
    8  A    between atoms: C_9  and  C_40
    9  A    between atoms: C_11  and  C_16
   10  A    between atoms: C_12  and  C_25
   11  A    between atoms: C_16  and  C_41
   12  A    between atoms: C_22  and  C_29
   13  A    between atoms: C_22  and  O_31
   14  A    between atoms: C_26  and  O_46
   15  A    between atoms: C_26  and  C_48
   16  A    between atoms: N_28  and  C_49
   17  A    between atoms: C_29  and  O_46
   18  A    between atoms: C_37  and  C_43
   19  A    between atoms: C_41  and  C_48
                            x       y       z     vdW  Elec       q    Type
                         _______ _______ _______ _____ _____    ______ ____

>  <TORSDO>
F 19

$$$$
