=
 OpenBabel11072409113D

 65 71  0  0  1  0  0  0  0  0999 V2000
  188.4780  176.1230  141.7640 C   0  0  2  0  0  3  0  0  0  0  0  0
  186.7140  177.7180  142.8050 C   0  0  2  0  0  3  0  0  0  0  0  0
  185.4120  178.5030  143.0540 C   0  0  2  0  0  3  0  0  0  0  0  0
  187.0110  176.6310  141.7680 C   0  0  2  0  0  3  0  0  0  0  0  0
  186.9270  175.9300  144.3530 C   0  0  0  0  0  3  0  0  0  0  0  0
  186.7250  176.6540  145.4770 C   0  0  0  0  0  0  0  0  0  0  0  0
  185.9680  177.9800  145.5270 C   0  0  0  0  0  2  0  0  0  0  0  0
  186.2690  176.2790  143.0540 C   0  0  1  0  0  3  0  0  0  0  0  0
  184.8490  178.2090  144.4800 C   0  0  1  0  0  3  0  0  0  0  0  0
  184.3560  178.4200  141.9720 C   0  0  0  0  0  0  0  0  0  0  0  0
  184.6890  178.6070  140.7700 O   0  0  0  0  0  0  0  0  0  0  0  0
  183.0380  178.0720  142.2840 O   0  0  0  0  0  0  0  0  0  0  0  0
  181.7490  178.2590  141.1600 P   0  0  0  0  0  0  0  0  0  0  0  0
  181.5630  179.8970  140.7770 O   0  0  0  0  0  1  0  0  0  0  0  0
  182.0710  177.4840  139.9040 O   0  0  0  0  0  0  0  0  0  0  0  0
  180.3150  177.6690  141.8440 O   0  0  0  0  0  1  0  0  0  0  0  0
  184.0680  179.2930  144.8920 O   0  0  0  0  0  0  0  0  0  0  0  0
  183.7050  179.0110  146.2100 C   0  0  0  0  0  1  0  0  0  0  0  0
  187.4110  176.2070  146.7340 C   0  0  0  0  0  2  0  0  0  0  0  0
  191.1640  176.6880  146.9880 O   0  0  0  0  0  1  0  0  0  0  0  0
  189.9600  176.0890  146.7970 N   0  0  0  0  0  0  0  0  0  0  0  0
  188.7570  176.8600  146.9330 C   0  0  0  0  0  0  0  0  0  0  0  0
  188.8370  178.0980  147.1770 O   0  0  0  0  0  0  0  0  0  0  0  0
  189.9330  174.6890  146.3870 C   0  0  0  0  0  2  0  0  0  0  0  0
  191.2930  174.2840  145.8510 C   0  0  0  0  0  2  0  0  0  0  0  0
  191.2640  172.1500  144.8030 O   0  0  0  0  0  0  0  0  0  0  0  0
  191.1260  173.5290  144.5450 C   0  0  2  0  0  3  0  0  0  0  0  0
  192.3720  172.7990  144.2250 C   0  0  0  0  0  2  0  0  0  0  0  0
  189.4800  177.2600  141.9870 C   0  0  0  0  0  2  0  0  0  0  0  0
  190.5020  178.3000  143.9730 C   0  0  0  0  0  1  0  0  0  0  0  0
  190.3610  177.0070  143.2020 C   0  0  2  0  0  3  0  0  0  0  0  0
  191.7400  176.5480  142.7590 C   0  0  0  0  0  2  0  0  0  0  0  0
  192.7180  176.7400  143.8210 N   0  0  0  0  0  2  0  0  0  0  0  0
  193.9520  176.0280  143.4720 C   0  0  0  0  0  2  0  0  0  0  0  0
  195.1220  176.3640  144.4060 C   0  0  1  0  0  3  0  0  0  0  0  0
  194.9020  175.8420  145.6840 O   0  0  0  0  0  1  0  0  0  0  0  0
  196.4220  175.8510  143.7790 C   0  0  1  0  0  3  0  0  0  0  0  0
  196.4010  176.1420  142.2880 C   0  0  1  0  0  3  0  0  0  0  0  0
  197.2990  176.9510  143.2090 C   0  0  0  0  0  2  0  0  0  0  0  0
  197.1830  175.0400  141.5790 C   0  0  0  0  0  2  0  0  0  0  0  0
  195.3400  174.4440  136.1470 C   0  0  0  0  0  2  0  0  0  0  0  0
  195.4410  172.9410  136.3710 C   0  0  0  0  0  2  0  0  0  0  0  0
  195.1120  175.1490  137.4690 C   0  0  0  0  0  2  0  0  0  0  0  0
  195.9430  172.5570  137.7750 C   0  0  2  0  0  3  0  0  0  0  0  0
  197.1880  173.4330  139.8610 C   0  0  2  0  0  3  0  0  0  0  0  0
  196.8520  173.6510  138.3960 C   0  0  2  0  0  3  0  0  0  0  0  0
  197.0130  172.1310  140.2910 F   0  0  0  0  0  0  0  0  0  0  0  0
  195.8340  175.3180  139.6910 C   0  0  0  0  0  2  0  0  0  0  0  0
  196.2840  175.0090  138.3380 N   0  0  2  0  0  0  0  0  0  0  0  0
  196.3400  174.3230  140.6310 N   0  0  0  0  0  0  0  0  0  0  0  0
  196.6360  171.1890  137.7270 C   0  0  0  0  0  3  0  0  0  0  0  0
  195.9100  170.3030  136.9280 O   0  0  0  0  0  1  0  0  0  0  0  0
  197.9410  171.3020  137.2440 O   0  0  0  0  0  1  0  0  0  0  0  0
  188.7830  175.1030  140.6320 C   0  0  0  0  0  2  0  0  0  0  0  0
  190.5300  171.2900  141.2800 C   0  0  0  0  0  0  0  0  0  0  0  0
  188.5840  172.7750  141.4360 C   0  0  0  0  0  2  0  0  0  0  0  0
  189.3860  171.6940  142.1520 C   0  0  0  0  0  2  0  0  0  0  0  0
  189.4700  173.8500  140.9780 N   0  0  0  0  0  0  0  0  0  0  0  0
  190.6970  170.1220  140.9700 O   0  0  0  0  0  0  0  0  0  0  0  0
  191.4060  172.3620  140.7190 C   0  0  0  0  0  2  0  0  0  0  0  0
  190.5300  173.4240  140.0440 C   0  0  1  0  0  3  0  0  0  0  0  0
  189.9820  172.9110  138.7100 C   0  0  0  0  0  2  0  0  0  0  0  0
  191.7740  173.4510  137.0770 C   0  0  0  0  0  1  0  0  0  0  0  0
  189.4870  173.6260  136.4810 O   0  0  0  0  0  1  0  0  0  0  0  0
  190.3810  173.8040  137.5390 C   0  0  1  0  0  3  0  0  0  0  0  0
  1 54  1  6  0  0  0
  1  4  1  0  0  0  0
  1 29  1  0  0  0  0
  2  3  1  0  0  0  0
  2  8  1  0  0  0  0
  3  9  1  0  0  0  0
  4  2  1  0  0  0  0
  4  8  1  0  0  0  0
  5  6  2  0  0  0  0
  6  7  1  0  0  0  0
  6 19  1  0  0  0  0
  8  5  1  0  0  0  0
  9 17  1  0  0  0  0
  9  7  1  0  0  0  0
 10 12  1  0  0  0  0
 10  3  1  0  0  0  0
 11 10  2  0  0  0  0
 13 16  1  0  0  0  0
 13 12  1  0  0  0  0
 14 13  1  0  0  0  0
 15 13  2  0  0  0  0
 17 18  1  0  0  0  0
 19 22  1  0  0  0  0
 21 22  1  0  0  0  0
 21 20  1  0  0  0  0
 22 23  2  0  0  0  0
 24 21  1  0  0  0  0
 25 24  1  0  0  0  0
 27 26  1  0  0  0  0
 27 25  1  0  0  0  0
 28 27  1  0  0  0  0
 28 26  1  0  0  0  0
 29 31  1  0  0  0  0
 31 30  1  0  0  0  0
 32 31  1  0  0  0  0
 32 33  1  0  0  0  0
 34 33  1  0  0  0  0
 34 35  1  0  0  0  0
 35 36  1  0  0  0  0
 37 35  1  0  0  0  0
 38 39  1  0  0  0  0
 38 37  1  0  0  0  0
 39 37  1  0  0  0  0
 40 38  1  0  0  0  0
 41 42  1  0  0  0  0
 41 43  1  0  0  0  0
 42 44  1  0  0  0  0
 43 49  1  0  0  0  0
 44 46  1  0  0  0  0
 45 47  1  0  0  0  0
 45 50  1  0  0  0  0
 46 45  1  0  0  0  0
 48 50  1  0  0  0  0
 49 46  1  0  0  0  0
 49 48  1  0  0  0  0
 50 40  1  0  0  0  0
 51 44  1  0  0  0  0
 52 51  1  0  0  0  0
 53 51  1  0  0  0  0
 54 58  1  0  0  0  0
 55 57  1  0  0  0  0
 56 57  1  0  0  0  0
 58 56  1  0  0  0  0
 59 55  2  0  0  0  0
 60 55  1  0  0  0  0
 61 60  1  0  0  0  0
 61 58  1  0  0  0  0
 62 61  1  0  0  0  0
 63 65  1  0  0  0  0
 64 65  1  0  0  0  0
 65 62  1  0  0  0  0
M  END
>  <MODEL>
1

>  <REMARK>
 VINA RESULT:      -6.0      0.000      0.000
  Name = 
  24 active torsions:
  status: ('A' for Active; 'I' for Inactive)
    1  A    between atoms: C_2  and  C_38
    2  A    between atoms: C_3  and  N_20
    3  A    between atoms: C_3  and  C_54
    4  A    between atoms: P_4  and  O_17
    5  A    between atoms: N_10  and  C_18
    6  A    between atoms: C_11  and  C_62
    7  A    between atoms: C_12  and  C_41
    8  A    between atoms: O_17  and  C_41
    9  A    between atoms: C_18  and  C_34
   10  A    between atoms: C_19  and  C_29
   11  A    between atoms: C_22  and  C_34
   12  A    between atoms: C_23  and  C_29
   13  A    between atoms: C_23  and  N_40
   14  A    between atoms: C_24  and  C_26
   15  A    between atoms: C_25  and  C_54
   16  A    between atoms: C_26  and  N_61
   17  A    between atoms: O_28  and  C_57
   18  A    between atoms: C_35  and  C_62
   19  A    between atoms: N_40  and  C_49
   20  A    between atoms: C_49  and  C_52
   21  A    between atoms: C_52  and  C_64
   22  A    between atoms: C_54  and  C_64
   23  A    between atoms: C_58  and  C_60
   24  A    between atoms: C_60  and  C_63
                            x       y       z     vdW  Elec       q    Type
                         _______ _______ _______ _____ _____    ______ ____

>  <TORSDO>
F 24

$$$$
=
 OpenBabel11072409113D

 65 71  0  0  1  0  0  0  0  0999 V2000
  192.2530  175.1330  142.2740 C   0  0  2  0  0  3  0  0  0  0  0  0
  191.3340  173.1490  140.8740 C   0  0  2  0  0  3  0  0  0  0  0  0
  190.7120  172.3230  139.7320 C   0  0  2  0  0  3  0  0  0  0  0  0
  191.7250  174.6290  140.9040 C   0  0  2  0  0  3  0  0  0  0  0  0
  193.6800  172.7990  140.9850 C   0  0  0  0  0  3  0  0  0  0  0  0
  193.6490  171.4480  141.0060 C   0  0  0  0  0  0  0  0  0  0  0  0
  192.5030  170.6000  140.4570 C   0  0  0  0  0  2  0  0  0  0  0  0
  192.6520  173.6070  140.2540 C   0  0  1  0  0  3  0  0  0  0  0  0
  191.6770  171.1820  139.2820 C   0  0  1  0  0  3  0  0  0  0  0  0
  190.1370  173.1050  138.5700 C   0  0  0  0  0  0  0  0  0  0  0  0
  188.8980  173.0480  138.3420 O   0  0  0  0  0  0  0  0  0  0  0  0
  190.9510  173.9380  137.7960 O   0  0  0  0  0  0  0  0  0  0  0  0
  191.2420  173.6410  136.1250 P   0  0  0  0  0  0  0  0  0  0  0  0
  192.1190  172.2040  135.9480 O   0  0  0  0  0  1  0  0  0  0  0  0
  189.9190  173.5120  135.4080 O   0  0  0  0  0  0  0  0  0  0  0  0
  192.1250  174.9300  135.4700 O   0  0  0  0  0  1  0  0  0  0  0  0
  190.9250  170.1500  138.7110 O   0  0  0  0  0  0  0  0  0  0  0  0
  190.5680  169.3180  139.7730 C   0  0  0  0  0  1  0  0  0  0  0  0
  194.7410  170.7310  141.7450 C   0  0  0  0  0  2  0  0  0  0  0  0
  194.5200  172.0790  145.2820 O   0  0  0  0  0  1  0  0  0  0  0  0
  194.1740  171.4590  144.1250 N   0  0  0  0  0  0  0  0  0  0  0  0
  195.1140  171.4070  143.0410 C   0  0  0  0  0  0  0  0  0  0  0  0
  196.2700  171.8930  143.1990 O   0  0  0  0  0  0  0  0  0  0  0  0
  192.8750  170.8000  144.0460 C   0  0  0  0  0  2  0  0  0  0  0  0
  191.7680  171.8270  144.1860 C   0  0  0  0  0  2  0  0  0  0  0  0
  189.5440  172.2990  143.4890 O   0  0  0  0  0  0  0  0  0  0  0  0
  190.4600  171.2460  143.6790 C   0  0  2  0  0  3  0  0  0  0  0  0
  189.3790  171.5200  144.6510 C   0  0  0  0  0  2  0  0  0  0  0  0
  191.1180  175.3720  143.2740 C   0  0  0  0  0  2  0  0  0  0  0  0
  190.0130  177.5550  142.9840 C   0  0  0  0  0  1  0  0  0  0  0  0
  189.9390  176.0860  142.6310 C   0  0  2  0  0  3  0  0  0  0  0  0
  188.6330  175.5210  143.1630 C   0  0  0  0  0  2  0  0  0  0  0  0
  187.5540  175.7050  142.2010 N   0  0  0  0  0  2  0  0  0  0  0  0
  186.3540  176.1630  142.9070 C   0  0  0  0  0  2  0  0  0  0  0  0
  186.2490  177.6920  142.9820 C   0  0  1  0  0  3  0  0  0  0  0  0
  185.5100  178.1910  141.9070 O   0  0  0  0  0  1  0  0  0  0  0  0
  185.6530  178.0840  144.3380 C   0  0  1  0  0  3  0  0  0  0  0  0
  186.7820  178.4130  145.3000 C   0  0  1  0  0  3  0  0  0  0  0  0
  185.9210  179.5260  144.7280 C   0  0  0  0  0  2  0  0  0  0  0  0
  186.3320  178.0310  146.7070 C   0  0  0  0  0  2  0  0  0  0  0  0
  190.7590  174.3390  146.5070 C   0  0  0  0  0  2  0  0  0  0  0  0
  191.4700  175.2780  147.4720 C   0  0  0  0  0  2  0  0  0  0  0  0
  189.2580  174.4760  146.6660 C   0  0  0  0  0  2  0  0  0  0  0  0
  190.6440  176.5210  147.8490 C   0  0  2  0  0  3  0  0  0  0  0  0
  188.6430  177.9940  147.1410 C   0  0  2  0  0  3  0  0  0  0  0  0
  189.6390  176.9220  146.7360 C   0  0  2  0  0  3  0  0  0  0  0  0
  189.0340  178.7370  148.2400 F   0  0  0  0  0  0  0  0  0  0  0  0
  187.4860  176.0010  146.8170 C   0  0  0  0  0  2  0  0  0  0  0  0
  188.8130  175.8070  146.2420 N   0  0  2  0  0  0  0  0  0  0  0  0
  187.3870  177.3260  147.4230 N   0  0  0  0  0  0  0  0  0  0  0  0
  191.5790  177.6770  148.2260 C   0  0  0  0  0  3  0  0  0  0  0  0
  191.6040  177.8520  149.6110 O   0  0  0  0  0  1  0  0  0  0  0  0
  192.8740  177.4520  147.7530 O   0  0  0  0  0  1  0  0  0  0  0  0
  193.3550  176.2210  142.1570 C   0  0  0  0  0  2  0  0  0  0  0  0
  196.9710  175.3240  144.1910 C   0  0  0  0  0  0  0  0  0  0  0  0
  194.5570  174.9770  143.9220 C   0  0  0  0  0  2  0  0  0  0  0  0
  195.6860  175.1450  144.9330 C   0  0  0  0  0  2  0  0  0  0  0  0
  194.5960  176.0560  142.9300 N   0  0  0  0  0  0  0  0  0  0  0  0
  197.9240  174.5960  144.4080 O   0  0  0  0  0  0  0  0  0  0  0  0
  197.0270  176.3530  143.1100 C   0  0  0  0  0  2  0  0  0  0  0  0
  195.8480  176.1400  142.1530 C   0  0  1  0  0  3  0  0  0  0  0  0
  196.0830  174.9180  141.2620 C   0  0  0  0  0  2  0  0  0  0  0  0
  197.7880  174.2910  139.5670 C   0  0  0  0  0  1  0  0  0  0  0  0
  195.7370  175.2900  138.9240 O   0  0  0  0  0  1  0  0  0  0  0  0
  196.7130  175.2910  139.9230 C   0  0  1  0  0  3  0  0  0  0  0  0
  1 54  1  6  0  0  0
  1 29  1  0  0  0  0
  2  4  1  0  0  0  0
  3  2  1  0  0  0  0
  4  1  1  0  0  0  0
  5  6  2  0  0  0  0
  6 19  1  0  0  0  0
  7  6  1  0  0  0  0
  8  2  1  0  0  0  0
  8  4  1  0  0  0  0
  8  5  1  0  0  0  0
  9  3  1  0  0  0  0
  9  7  1  0  0  0  0
 10  3  1  0  0  0  0
 11 10  2  0  0  0  0
 12 10  1  0  0  0  0
 13 12  1  0  0  0  0
 14 13  1  0  0  0  0
 15 13  2  0  0  0  0
 16 13  1  0  0  0  0
 17  9  1  0  0  0  0
 17 18  1  0  0  0  0
 19 22  1  0  0  0  0
 21 20  1  0  0  0  0
 22 23  2  0  0  0  0
 22 21  1  0  0  0  0
 24 21  1  0  0  0  0
 24 25  1  0  0  0  0
 26 27  1  0  0  0  0
 26 28  1  0  0  0  0
 27 25  1  0  0  0  0
 27 28  1  0  0  0  0
 31 30  1  0  0  0  0
 31 32  1  0  0  0  0
 31 29  1  0  0  0  0
 33 34  1  0  0  0  0
 33 32  1  0  0  0  0
 34 35  1  0  0  0  0
 35 37  1  0  0  0  0
 36 35  1  0  0  0  0
 37 39  1  0  0  0  0
 37 38  1  0  0  0  0
 38 40  1  0  0  0  0
 39 38  1  0  0  0  0
 40 50  1  0  0  0  0
 41 43  1  0  0  0  0
 41 42  1  0  0  0  0
 42 44  1  0  0  0  0
 44 51  1  0  0  0  0
 45 50  1  0  0  0  0
 45 47  1  0  0  0  0
 46 45  1  0  0  0  0
 46 44  1  0  0  0  0
 48 50  1  0  0  0  0
 49 43  1  0  0  0  0
 49 46  1  0  0  0  0
 49 48  1  0  0  0  0
 51 52  1  0  0  0  0
 53 51  1  0  0  0  0
 54 58  1  0  0  0  0
 55 59  2  0  0  0  0
 55 57  1  0  0  0  0
 56 57  1  0  0  0  0
 58 56  1  0  0  0  0
 60 55  1  0  0  0  0
 61 58  1  0  0  0  0
 61 60  1  0  0  0  0
 62 61  1  0  0  0  0
 63 65  1  0  0  0  0
 64 65  1  0  0  0  0
 65 62  1  0  0  0  0
M  END
>  <MODEL>
2

>  <REMARK>
 VINA RESULT:      -5.6      3.213      9.311
  Name = 
  24 active torsions:
  status: ('A' for Active; 'I' for Inactive)
    1  A    between atoms: C_2  and  C_38
    2  A    between atoms: C_3  and  N_20
    3  A    between atoms: C_3  and  C_54
    4  A    between atoms: P_4  and  O_17
    5  A    between atoms: N_10  and  C_18
    6  A    between atoms: C_11  and  C_62
    7  A    between atoms: C_12  and  C_41
    8  A    between atoms: O_17  and  C_41
    9  A    between atoms: C_18  and  C_34
   10  A    between atoms: C_19  and  C_29
   11  A    between atoms: C_22  and  C_34
   12  A    between atoms: C_23  and  C_29
   13  A    between atoms: C_23  and  N_40
   14  A    between atoms: C_24  and  C_26
   15  A    between atoms: C_25  and  C_54
   16  A    between atoms: C_26  and  N_61
   17  A    between atoms: O_28  and  C_57
   18  A    between atoms: C_35  and  C_62
   19  A    between atoms: N_40  and  C_49
   20  A    between atoms: C_49  and  C_52
   21  A    between atoms: C_52  and  C_64
   22  A    between atoms: C_54  and  C_64
   23  A    between atoms: C_58  and  C_60
   24  A    between atoms: C_60  and  C_63
                            x       y       z     vdW  Elec       q    Type
                         _______ _______ _______ _____ _____    ______ ____

>  <TORSDO>
F 24

$$$$
=
 OpenBabel11072409113D

 65 71  0  0  1  0  0  0  0  0999 V2000
  191.3500  174.8650  142.5790 C   0  0  2  0  0  3  0  0  0  0  0  0
  190.5990  172.5610  141.6480 C   0  0  2  0  0  3  0  0  0  0  0  0
  190.1340  171.4460  140.6920 C   0  0  2  0  0  3  0  0  0  0  0  0
  191.0200  173.9990  141.3340 C   0  0  2  0  0  3  0  0  0  0  0  0
  192.8920  172.2900  142.2030 C   0  0  0  0  0  3  0  0  0  0  0  0
  192.8220  170.9960  142.5850 C   0  0  0  0  0  0  0  0  0  0  0  0
  191.7490  170.0130  142.1200 C   0  0  0  0  0  2  0  0  0  0  0  0
  192.0070  172.8530  141.1340 C   0  0  1  0  0  3  0  0  0  0  0  0
  191.1250  170.2400  140.7200 C   0  0  1  0  0  3  0  0  0  0  0  0
  189.7610  171.8730  139.2890 C   0  0  0  0  0  0  0  0  0  0  0  0
  188.6330  172.4000  139.0830 O   0  0  0  0  0  0  0  0  0  0  0  0
  190.6750  171.7520  138.2370 O   0  0  0  0  0  0  0  0  0  0  0  0
  190.8180  172.9430  137.0030 P   0  0  0  0  0  0  0  0  0  0  0  0
  191.5560  172.2630  135.6400 O   0  0  0  0  0  0  0  0  0  0  0  0
  189.4410  173.4400  136.6330 O   0  0  0  0  0  1  0  0  0  0  0  0
  191.7570  174.2340  137.5730 O   0  0  0  0  0  1  0  0  0  0  0  0
  190.4400  169.0810  140.3430 O   0  0  0  0  0  0  0  0  0  0  0  0
  191.1830  168.5320  139.2970 C   0  0  0  0  0  1  0  0  0  0  0  0
  193.7710  170.5240  143.6470 C   0  0  0  0  0  2  0  0  0  0  0  0
  196.6230  168.5240  142.1490 O   0  0  0  0  0  1  0  0  0  0  0  0
  195.8770  169.5840  142.5520 N   0  0  0  0  0  0  0  0  0  0  0  0
  194.6170  169.3570  143.2020 C   0  0  0  0  0  0  0  0  0  0  0  0
  194.2450  168.1710  143.4370 O   0  0  0  0  0  0  0  0  0  0  0  0
  196.4160  170.9280  142.3740 C   0  0  0  0  0  2  0  0  0  0  0  0
  197.4840  170.9130  141.2970 C   0  0  0  0  0  2  0  0  0  0  0  0
  195.8440  171.3950  139.6420 O   0  0  0  0  0  0  0  0  0  0  0  0
  197.0790  171.8350  140.1610 C   0  0  2  0  0  3  0  0  0  0  0  0
  196.9950  171.0690  138.8980 C   0  0  0  0  0  2  0  0  0  0  0  0
  190.0890  175.4440  143.2260 C   0  0  0  0  0  2  0  0  0  0  0  0
  189.4750  177.6750  142.3810 C   0  0  0  0  0  1  0  0  0  0  0  0
  189.2280  176.1920  142.2190 C   0  0  2  0  0  3  0  0  0  0  0  0
  187.7580  175.9090  142.4770 C   0  0  0  0  0  2  0  0  0  0  0  0
  186.9870  177.1450  142.5060 N   0  0  0  0  0  2  0  0  0  0  0  0
  185.8900  177.0050  143.4690 C   0  0  0  0  0  2  0  0  0  0  0  0
  185.0030  178.2540  143.5530 C   0  0  1  0  0  3  0  0  0  0  0  0
  183.7580  178.0170  142.9650 O   0  0  0  0  0  1  0  0  0  0  0  0
  184.8890  178.6850  145.0180 C   0  0  1  0  0  3  0  0  0  0  0  0
  186.2470  178.5470  145.6840 C   0  0  1  0  0  3  0  0  0  0  0  0
  185.6980  179.9240  145.3540 C   0  0  0  0  0  2  0  0  0  0  0  0
  186.0230  178.1970  147.1510 C   0  0  0  0  0  2  0  0  0  0  0  0
  190.2060  174.3530  146.1560 C   0  0  0  0  0  2  0  0  0  0  0  0
  191.0820  175.2040  147.0650 C   0  0  0  0  0  2  0  0  0  0  0  0
  188.7480  174.5390  146.5230 C   0  0  0  0  0  2  0  0  0  0  0  0
  190.3730  176.4540  147.6170 C   0  0  2  0  0  3  0  0  0  0  0  0
  188.3670  178.0430  147.2670 C   0  0  2  0  0  3  0  0  0  0  0  0
  189.2490  176.9590  146.6730 C   0  0  2  0  0  3  0  0  0  0  0  0
  188.9350  178.7040  148.3410 F   0  0  0  0  0  0  0  0  0  0  0  0
  187.0850  176.1210  146.9940 C   0  0  0  0  0  2  0  0  0  0  0  0
  188.3140  175.9090  146.2360 N   0  0  2  0  0  0  0  0  0  0  0  0
  187.1290  177.4090  147.6800 N   0  0  0  0  0  0  0  0  0  0  0  0
  191.4030  177.5470  147.9260 C   0  0  0  0  0  3  0  0  0  0  0  0
  191.5120  177.7390  149.3050 O   0  0  0  0  0  1  0  0  0  0  0  0
  192.6540  177.2270  147.3920 O   0  0  0  0  0  1  0  0  0  0  0  0
  192.5610  175.8180  142.3760 C   0  0  0  0  0  2  0  0  0  0  0  0
  195.9410  175.2100  144.8690 C   0  0  0  0  0  0  0  0  0  0  0  0
  193.6770  174.5560  144.1830 C   0  0  0  0  0  2  0  0  0  0  0  0
  194.6070  174.7610  145.3740 C   0  0  0  0  0  2  0  0  0  0  0  0
  193.6870  175.7400  143.3180 N   0  0  0  0  0  0  0  0  0  0  0  0
  196.9570  174.6050  145.1660 O   0  0  0  0  0  0  0  0  0  0  0  0
  195.9870  176.3580  143.9160 C   0  0  0  0  0  2  0  0  0  0  0  0
  195.0080  176.0950  142.7650 C   0  0  1  0  0  3  0  0  0  0  0  0
  195.5620  175.0350  141.8100 C   0  0  0  0  0  2  0  0  0  0  0  0
  197.9410  175.2380  141.1270 C   0  0  0  0  0  1  0  0  0  0  0  0
  196.2110  175.1470  139.5100 O   0  0  0  0  0  1  0  0  0  0  0  0
  196.5230  175.6270  140.7840 C   0  0  1  0  0  3  0  0  0  0  0  0
  1 54  1  6  0  0  0
  1 29  1  0  0  0  0
  3  9  1  0  0  0  0
  3  2  1  0  0  0  0
  4  2  1  0  0  0  0
  4  1  1  0  0  0  0
  5  6  2  0  0  0  0
  6 19  1  0  0  0  0
  7  6  1  0  0  0  0
  8  4  1  0  0  0  0
  8  2  1  0  0  0  0
  8  5  1  0  0  0  0
  9  7  1  0  0  0  0
 10  3  1  0  0  0  0
 11 10  2  0  0  0  0
 12 10  1  0  0  0  0
 13 16  1  0  0  0  0
 13 12  1  0  0  0  0
 14 13  2  0  0  0  0
 15 13  1  0  0  0  0
 17  9  1  0  0  0  0
 18 17  1  0  0  0  0
 20 21  1  0  0  0  0
 21 22  1  0  0  0  0
 22 23  2  0  0  0  0
 22 19  1  0  0  0  0
 24 21  1  0  0  0  0
 25 24  1  0  0  0  0
 26 27  1  0  0  0  0
 27 25  1  0  0  0  0
 28 26  1  0  0  0  0
 28 27  1  0  0  0  0
 31 30  1  0  0  0  0
 31 32  1  0  0  0  0
 31 29  1  0  0  0  0
 32 33  1  0  0  0  0
 33 34  1  0  0  0  0
 34 35  1  0  0  0  0
 35 37  1  0  0  0  0
 36 35  1  0  0  0  0
 37 39  1  0  0  0  0
 37 38  1  0  0  0  0
 38 40  1  0  0  0  0
 39 38  1  0  0  0  0
 40 50  1  0  0  0  0
 41 43  1  0  0  0  0
 41 42  1  0  0  0  0
 42 44  1  0  0  0  0
 44 51  1  0  0  0  0
 45 50  1  0  0  0  0
 45 47  1  0  0  0  0
 46 45  1  0  0  0  0
 46 44  1  0  0  0  0
 48 50  1  0  0  0  0
 49 43  1  0  0  0  0
 49 46  1  0  0  0  0
 49 48  1  0  0  0  0
 51 52  1  0  0  0  0
 53 51  1  0  0  0  0
 54 58  1  0  0  0  0
 55 59  2  0  0  0  0
 55 57  1  0  0  0  0
 56 57  1  0  0  0  0
 58 56  1  0  0  0  0
 60 55  1  0  0  0  0
 61 58  1  0  0  0  0
 61 60  1  0  0  0  0
 62 61  1  0  0  0  0
 64 65  1  0  0  0  0
 65 63  1  0  0  0  0
 65 62  1  0  0  0  0
M  END
>  <MODEL>
3

>  <REMARK>
 VINA RESULT:      -5.3      3.128      9.652
  Name = 
  24 active torsions:
  status: ('A' for Active; 'I' for Inactive)
    1  A    between atoms: C_2  and  C_38
    2  A    between atoms: C_3  and  N_20
    3  A    between atoms: C_3  and  C_54
    4  A    between atoms: P_4  and  O_17
    5  A    between atoms: N_10  and  C_18
    6  A    between atoms: C_11  and  C_62
    7  A    between atoms: C_12  and  C_41
    8  A    between atoms: O_17  and  C_41
    9  A    between atoms: C_18  and  C_34
   10  A    between atoms: C_19  and  C_29
   11  A    between atoms: C_22  and  C_34
   12  A    between atoms: C_23  and  C_29
   13  A    between atoms: C_23  and  N_40
   14  A    between atoms: C_24  and  C_26
   15  A    between atoms: C_25  and  C_54
   16  A    between atoms: C_26  and  N_61
   17  A    between atoms: O_28  and  C_57
   18  A    between atoms: C_35  and  C_62
   19  A    between atoms: N_40  and  C_49
   20  A    between atoms: C_49  and  C_52
   21  A    between atoms: C_52  and  C_64
   22  A    between atoms: C_54  and  C_64
   23  A    between atoms: C_58  and  C_60
   24  A    between atoms: C_60  and  C_63
                            x       y       z     vdW  Elec       q    Type
                         _______ _______ _______ _____ _____    ______ ____

>  <TORSDO>
F 24

$$$$
=
 OpenBabel11072409113D

 65 71  0  0  1  0  0  0  0  0999 V2000
  191.4090  174.8270  142.3970 C   0  0  2  0  0  3  0  0  0  0  0  0
  190.5320  172.8070  141.0230 C   0  0  2  0  0  3  0  0  0  0  0  0
  190.0940  171.9100  139.8500 C   0  0  2  0  0  3  0  0  0  0  0  0
  191.1860  174.1900  140.9980 C   0  0  2  0  0  3  0  0  0  0  0  0
  192.6410  172.1150  141.8690 C   0  0  0  0  0  3  0  0  0  0  0  0
  192.3360  170.8090  142.0350 C   0  0  0  0  0  0  0  0  0  0  0  0
  191.2390  170.0720  141.2690 C   0  0  0  0  0  2  0  0  0  0  0  0
  192.0330  172.9410  140.7770 C   0  0  1  0  0  3  0  0  0  0  0  0
  190.8980  170.5710  139.8420 C   0  0  1  0  0  3  0  0  0  0  0  0
  190.0260  172.5670  138.4880 C   0  0  0  0  0  0  0  0  0  0  0  0
  189.2680  173.5610  138.3200 O   0  0  0  0  0  0  0  0  0  0  0  0
  190.8410  172.1270  137.4400 O   0  0  0  0  0  0  0  0  0  0  0  0
  192.2550  172.9800  136.9560 P   0  0  0  0  0  0  0  0  0  0  0  0
  192.1830  174.5710  137.5320 O   0  0  0  0  0  1  0  0  0  0  0  0
  193.4690  172.2920  137.5330 O   0  0  0  0  0  1  0  0  0  0  0  0
  192.3540  172.9930  135.2640 O   0  0  0  0  0  0  0  0  0  0  0  0
  190.1410  169.5900  139.1950 O   0  0  0  0  0  0  0  0  0  0  0  0
  191.0520  168.8610  138.4290 C   0  0  0  0  0  1  0  0  0  0  0  0
  193.0200  170.0630  143.1430 C   0  0  0  0  0  2  0  0  0  0  0  0
  196.6940  169.2470  142.6770 O   0  0  0  0  0  1  0  0  0  0  0  0
  195.5650  169.8750  143.0970 N   0  0  0  0  0  0  0  0  0  0  0  0
  194.2830  169.3710  142.6940 C   0  0  0  0  0  0  0  0  0  0  0  0
  194.2210  168.3180  141.9960 O   0  0  0  0  0  0  0  0  0  0  0  0
  195.6920  171.0070  144.0080 C   0  0  0  0  0  2  0  0  0  0  0  0
  195.4160  170.5550  145.4290 C   0  0  0  0  0  2  0  0  0  0  0  0
  197.5550  169.5770  145.7780 O   0  0  0  0  0  0  0  0  0  0  0  0
  196.6990  170.5970  146.2400 C   0  0  2  0  0  3  0  0  0  0  0  0
  196.8660  169.3270  146.9810 C   0  0  0  0  0  2  0  0  0  0  0  0
  190.1060  175.3580  143.0010 C   0  0  0  0  0  2  0  0  0  0  0  0
  189.7040  177.7870  142.9260 C   0  0  0  0  0  1  0  0  0  0  0  0
  189.5170  176.4890  142.1720 C   0  0  2  0  0  3  0  0  0  0  0  0
  188.0310  176.2590  141.9550 C   0  0  0  0  0  2  0  0  0  0  0  0
  187.2700  177.4700  142.2320 N   0  0  0  0  0  2  0  0  0  0  0  0
  185.9780  177.1010  142.8180 C   0  0  0  0  0  2  0  0  0  0  0  0
  184.9530  178.2430  142.7740 C   0  0  1  0  0  3  0  0  0  0  0  0
  183.8300  177.8710  142.0300 O   0  0  0  0  0  1  0  0  0  0  0  0
  184.5990  178.6490  144.2080 C   0  0  1  0  0  3  0  0  0  0  0  0
  185.8310  178.5000  145.0840 C   0  0  1  0  0  3  0  0  0  0  0  0
  185.3390  179.8830  144.6920 C   0  0  0  0  0  2  0  0  0  0  0  0
  185.3710  178.1250  146.4890 C   0  0  0  0  0  2  0  0  0  0  0  0
  190.4050  175.3170  146.3040 C   0  0  0  0  0  2  0  0  0  0  0  0
  190.7580  176.0460  147.5930 C   0  0  0  0  0  2  0  0  0  0  0  0
  188.9000  175.1850  146.1810 C   0  0  0  0  0  2  0  0  0  0  0  0
  189.6570  177.0030  148.0850 C   0  0  2  0  0  3  0  0  0  0  0  0
  187.5470  178.3060  147.3650 C   0  0  2  0  0  3  0  0  0  0  0  0
  188.7830  177.5440  146.9230 C   0  0  2  0  0  3  0  0  0  0  0  0
  187.6060  178.7660  148.6680 F   0  0  0  0  0  0  0  0  0  0  0  0
  186.8650  176.3340  146.3340 C   0  0  0  0  0  2  0  0  0  0  0  0
  188.2790  176.5020  146.0130 N   0  0  2  0  0  0  0  0  0  0  0  0
  186.4150  177.4110  147.2120 N   0  0  0  0  0  0  0  0  0  0  0  0
  190.2780  178.1330  148.9160 C   0  0  0  0  0  3  0  0  0  0  0  0
  191.6150  177.8490  149.2020 O   0  0  0  0  0  1  0  0  0  0  0  0
  190.1850  179.3570  148.2510 O   0  0  0  0  0  1  0  0  0  0  0  0
  192.6660  175.7380  142.4760 C   0  0  0  0  0  2  0  0  0  0  0  0
  195.5670  174.7050  145.3970 C   0  0  0  0  0  0  0  0  0  0  0  0
  193.3620  174.3330  144.3860 C   0  0  0  0  0  2  0  0  0  0  0  0
  194.1320  174.4130  145.6990 C   0  0  0  0  0  2  0  0  0  0  0  0
  193.6310  175.5170  143.5630 N   0  0  0  0  0  0  0  0  0  0  0  0
  196.4530  173.9810  145.8160 O   0  0  0  0  0  0  0  0  0  0  0  0
  195.8800  175.8500  144.4900 C   0  0  0  0  0  2  0  0  0  0  0  0
  195.0490  175.7180  143.2080 C   0  0  1  0  0  3  0  0  0  0  0  0
  195.6050  174.6090  142.3110 C   0  0  0  0  0  2  0  0  0  0  0  0
  195.0010  175.2110  139.9780 C   0  0  0  0  0  1  0  0  0  0  0  0
  196.6520  176.4290  141.1640 O   0  0  0  0  0  1  0  0  0  0  0  0
  196.1270  175.1480  140.9830 C   0  0  1  0  0  3  0  0  0  0  0  0
  1 54  1  6  0  0  0
  1 29  1  0  0  0  0
  3  2  1  0  0  0  0
  4  2  1  0  0  0  0
  4  1  1  0  0  0  0
  5  6  2  0  0  0  0
  6 19  1  0  0  0  0
  7  6  1  0  0  0  0
  8  4  1  0  0  0  0
  8  2  1  0  0  0  0
  8  5  1  0  0  0  0
  9  3  1  0  0  0  0
  9  7  1  0  0  0  0
 10  3  1  0  0  0  0
 11 10  2  0  0  0  0
 12 10  1  0  0  0  0
 13 12  1  0  0  0  0
 13 14  1  0  0  0  0
 13 15  1  0  0  0  0
 16 13  2  0  0  0  0
 17  9  1  0  0  0  0
 18 17  1  0  0  0  0
 20 21  1  0  0  0  0
 21 24  1  0  0  0  0
 22 21  1  0  0  0  0
 22 19  1  0  0  0  0
 23 22  2  0  0  0  0
 24 25  1  0  0  0  0
 25 27  1  0  0  0  0
 26 27  1  0  0  0  0
 26 28  1  0  0  0  0
 27 28  1  0  0  0  0
 31 30  1  0  0  0  0
 31 29  1  0  0  0  0
 32 31  1  0  0  0  0
 32 33  1  0  0  0  0
 33 34  1  0  0  0  0
 35 34  1  0  0  0  0
 35 37  1  0  0  0  0
 36 35  1  0  0  0  0
 37 39  1  0  0  0  0
 37 38  1  0  0  0  0
 38 40  1  0  0  0  0
 39 38  1  0  0  0  0
 40 50  1  0  0  0  0
 41 42  1  0  0  0  0
 42 44  1  0  0  0  0
 43 41  1  0  0  0  0
 44 51  1  0  0  0  0
 45 47  1  0  0  0  0
 46 45  1  0  0  0  0
 46 44  1  0  0  0  0
 48 50  1  0  0  0  0
 49 43  1  0  0  0  0
 49 48  1  0  0  0  0
 49 46  1  0  0  0  0
 50 45  1  0  0  0  0
 51 52  1  0  0  0  0
 53 51  1  0  0  0  0
 54 58  1  0  0  0  0
 55 57  1  0  0  0  0
 55 59  2  0  0  0  0
 56 57  1  0  0  0  0
 58 56  1  0  0  0  0
 60 55  1  0  0  0  0
 61 58  1  0  0  0  0
 61 60  1  0  0  0  0
 62 61  1  0  0  0  0
 63 65  1  0  0  0  0
 65 64  1  0  0  0  0
 65 62  1  0  0  0  0
M  END
>  <MODEL>
4

>  <REMARK>
 VINA RESULT:      -5.1      3.553      9.837
  Name = 
  24 active torsions:
  status: ('A' for Active; 'I' for Inactive)
    1  A    between atoms: C_2  and  C_38
    2  A    between atoms: C_3  and  N_20
    3  A    between atoms: C_3  and  C_54
    4  A    between atoms: P_4  and  O_17
    5  A    between atoms: N_10  and  C_18
    6  A    between atoms: C_11  and  C_62
    7  A    between atoms: C_12  and  C_41
    8  A    between atoms: O_17  and  C_41
    9  A    between atoms: C_18  and  C_34
   10  A    between atoms: C_19  and  C_29
   11  A    between atoms: C_22  and  C_34
   12  A    between atoms: C_23  and  C_29
   13  A    between atoms: C_23  and  N_40
   14  A    between atoms: C_24  and  C_26
   15  A    between atoms: C_25  and  C_54
   16  A    between atoms: C_26  and  N_61
   17  A    between atoms: O_28  and  C_57
   18  A    between atoms: C_35  and  C_62
   19  A    between atoms: N_40  and  C_49
   20  A    between atoms: C_49  and  C_52
   21  A    between atoms: C_52  and  C_64
   22  A    between atoms: C_54  and  C_64
   23  A    between atoms: C_58  and  C_60
   24  A    between atoms: C_60  and  C_63
                            x       y       z     vdW  Elec       q    Type
                         _______ _______ _______ _____ _____    ______ ____

>  <TORSDO>
F 24

$$$$
=
 OpenBabel11072409113D

 65 71  0  0  1  0  0  0  0  0999 V2000
  194.0900  172.7510  143.9570 C   0  0  2  0  0  3  0  0  0  0  0  0
  191.9120  173.0550  142.5760 C   0  0  2  0  0  3  0  0  0  0  0  0
  190.8000  172.8580  141.5290 C   0  0  2  0  0  3  0  0  0  0  0  0
  193.1340  172.1820  142.8730 C   0  0  2  0  0  3  0  0  0  0  0  0
  191.1940  172.3170  144.7160 C   0  0  0  0  0  3  0  0  0  0  0  0
  190.0360  173.0130  144.7550 C   0  0  0  0  0  0  0  0  0  0  0  0
  189.2770  173.4990  143.5210 C   0  0  0  0  0  2  0  0  0  0  0  0
  191.7680  171.7990  143.4330 C   0  0  1  0  0  3  0  0  0  0  0  0
  189.4120  172.6690  142.2200 C   0  0  1  0  0  3  0  0  0  0  0  0
  191.0660  171.8330  140.4470 C   0  0  0  0  0  0  0  0  0  0  0  0
  190.8070  170.6180  140.6700 O   0  0  0  0  0  0  0  0  0  0  0  0
  191.5290  172.2260  139.1870 O   0  0  0  0  0  0  0  0  0  0  0  0
  193.1730  172.6470  138.9050 P   0  0  0  0  0  0  0  0  0  0  0  0
  193.4830  172.6390  137.2400 O   0  0  0  0  0  0  0  0  0  0  0  0
  193.4320  174.0290  139.4560 O   0  0  0  0  0  1  0  0  0  0  0  0
  194.1830  171.5260  139.6750 O   0  0  0  0  0  1  0  0  0  0  0  0
  188.4060  173.0630  141.3330 O   0  0  0  0  0  0  0  0  0  0  0  0
  187.5220  173.8330  142.0900 C   0  0  0  0  0  1  0  0  0  0  0  0
  189.5320  173.4650  146.0940 C   0  0  0  0  0  2  0  0  0  0  0  0
  189.9090  177.0840  147.1620 O   0  0  0  0  0  1  0  0  0  0  0  0
  189.3340  175.9210  146.7630 N   0  0  0  0  0  0  0  0  0  0  0  0
  190.1550  174.7630  146.5470 C   0  0  0  0  0  0  0  0  0  0  0  0
  191.3950  174.8290  146.7830 O   0  0  0  0  0  0  0  0  0  0  0  0
  187.8820  175.8660  146.6340 C   0  0  0  0  0  2  0  0  0  0  0  0
  187.3190  177.2730  146.5680 C   0  0  0  0  0  2  0  0  0  0  0  0
  185.3750  178.4820  147.2090 O   0  0  0  0  0  0  0  0  0  0  0  0
  186.2340  177.4420  147.6160 C   0  0  2  0  0  3  0  0  0  0  0  0
  186.3150  178.7950  148.2100 C   0  0  0  0  0  2  0  0  0  0  0  0
  194.0780  174.2820  143.9860 C   0  0  0  0  0  2  0  0  0  0  0  0
  194.9330  174.4890  146.2870 C   0  0  0  0  0  1  0  0  0  0  0  0
  195.2050  174.8400  144.8410 C   0  0  2  0  0  3  0  0  0  0  0  0
  195.2630  176.3520  144.7080 C   0  0  0  0  0  2  0  0  0  0  0  0
  194.0900  176.9740  145.3070 N   0  0  0  0  0  2  0  0  0  0  0  0
  193.2930  177.6120  144.2550 C   0  0  0  0  0  2  0  0  0  0  0  0
  191.7940  177.6560  144.5820 C   0  0  1  0  0  3  0  0  0  0  0  0
  191.2960  178.9540  144.4450 O   0  0  0  0  0  1  0  0  0  0  0  0
  191.0610  176.6480  143.6930 C   0  0  1  0  0  3  0  0  0  0  0  0
  190.6420  177.3350  142.4050 C   0  0  1  0  0  3  0  0  0  0  0  0
  191.7870  176.3370  142.3970 C   0  0  0  0  0  2  0  0  0  0  0  0
  189.3430  176.6940  141.9260 C   0  0  0  0  0  2  0  0  0  0  0  0
  183.8970  177.8700  140.4360 C   0  0  0  0  0  2  0  0  0  0  0  0
  183.8360  178.7380  141.6850 C   0  0  0  0  0  2  0  0  0  0  0  0
  185.3280  177.7690  139.9460 C   0  0  0  0  0  2  0  0  0  0  0  0
  185.1420  178.7440  142.5000 C   0  0  2  0  0  3  0  0  0  0  0  0
  187.3540  177.4750  142.9110 C   0  0  2  0  0  3  0  0  0  0  0  0
  185.9570  177.4350  142.3180 C   0  0  2  0  0  3  0  0  0  0  0  0
  187.5330  178.4600  143.8640 F   0  0  0  0  0  0  0  0  0  0  0  0
  187.5410  177.3580  140.5940 C   0  0  0  0  0  2  0  0  0  0  0  0
  186.1540  177.0390  140.9130 N   0  0  2  0  0  0  0  0  0  0  0  0
  188.2790  177.6830  141.8110 N   0  0  0  0  0  0  0  0  0  0  0  0
  184.8380  179.0350  143.9750 C   0  0  0  0  0  3  0  0  0  0  0  0
  185.3410  180.2850  144.3390 O   0  0  0  0  0  1  0  0  0  0  0  0
  183.4650  178.9850  144.2260 O   0  0  0  0  0  1  0  0  0  0  0  0
  195.4690  172.0370  144.0120 C   0  0  0  0  0  2  0  0  0  0  0  0
  196.8280  169.2010  141.1620 C   0  0  0  0  0  0  0  0  0  0  0  0
  197.2130  171.2560  142.4450 C   0  0  0  0  0  2  0  0  0  0  0  0
  197.3720  170.5900  141.0830 C   0  0  0  0  0  2  0  0  0  0  0  0
  195.8330  171.1190  142.9230 N   0  0  0  0  0  0  0  0  0  0  0  0
  197.5140  168.2430  140.8490 O   0  0  0  0  0  0  0  0  0  0  0  0
  195.4580  169.0080  141.7260 C   0  0  0  0  0  2  0  0  0  0  0  0
  195.3650  169.7280  143.0770 C   0  0  1  0  0  3  0  0  0  0  0  0
  196.1240  168.9560  144.1580 C   0  0  0  0  0  2  0  0  0  0  0  0
  195.3970  169.5110  146.4680 C   0  0  0  0  0  1  0  0  0  0  0  0
  193.8860  168.5620  144.9070 O   0  0  0  0  0  1  0  0  0  0  0  0
  195.2210  168.5470  145.3180 C   0  0  1  0  0  3  0  0  0  0  0  0
  1 29  1  6  0  0  0
  1 54  1  0  0  0  0
  2  4  1  0  0  0  0
  2  8  1  0  0  0  0
  3  9  1  0  0  0  0
  3  2  1  0  0  0  0
  4  8  1  0  0  0  0
  4  1  1  0  0  0  0
  5  6  2  0  0  0  0
  6 19  1  0  0  0  0
  7  6  1  0  0  0  0
  8  5  1  0  0  0  0
  9  7  1  0  0  0  0
 10 11  2  0  0  0  0
 10  3  1  0  0  0  0
 12 10  1  0  0  0  0
 13 12  1  0  0  0  0
 13 15  1  0  0  0  0
 13 16  1  0  0  0  0
 14 13  2  0  0  0  0
 17 18  1  0  0  0  0
 17  9  1  0  0  0  0
 19 22  1  0  0  0  0
 21 20  1  0  0  0  0
 22 21  1  0  0  0  0
 22 23  2  0  0  0  0
 24 21  1  0  0  0  0
 25 24  1  0  0  0  0
 25 27  1  0  0  0  0
 26 27  1  0  0  0  0
 26 28  1  0  0  0  0
 27 28  1  0  0  0  0
 29 31  1  0  0  0  0
 31 30  1  0  0  0  0
 32 31  1  0  0  0  0
 32 33  1  0  0  0  0
 34 35  1  0  0  0  0
 34 33  1  0  0  0  0
 36 35  1  0  0  0  0
 37 35  1  0  0  0  0
 38 37  1  0  0  0  0
 39 38  1  0  0  0  0
 39 37  1  0  0  0  0
 40 38  1  0  0  0  0
 41 42  1  0  0  0  0
 42 44  1  0  0  0  0
 43 41  1  0  0  0  0
 43 49  1  0  0  0  0
 44 51  1  0  0  0  0
 45 47  1  0  0  0  0
 46 44  1  0  0  0  0
 46 45  1  0  0  0  0
 48 49  1  0  0  0  0
 48 50  1  0  0  0  0
 49 46  1  0  0  0  0
 50 40  1  0  0  0  0
 50 45  1  0  0  0  0
 51 53  1  0  0  0  0
 51 52  1  0  0  0  0
 55 60  1  0  0  0  0
 56 58  1  0  0  0  0
 57 55  1  0  0  0  0
 57 56  1  0  0  0  0
 58 61  1  0  0  0  0
 58 54  1  0  0  0  0
 59 55  2  0  0  0  0
 60 61  1  0  0  0  0
 61 62  1  0  0  0  0
 62 65  1  0  0  0  0
 64 65  1  0  0  0  0
 65 63  1  0  0  0  0
M  END
>  <MODEL>
5

>  <REMARK>
 VINA RESULT:      -5.0      3.587      8.960
  Name = 
  24 active torsions:
  status: ('A' for Active; 'I' for Inactive)
    1  A    between atoms: C_2  and  C_38
    2  A    between atoms: C_3  and  N_20
    3  A    between atoms: C_3  and  C_54
    4  A    between atoms: P_4  and  O_17
    5  A    between atoms: N_10  and  C_18
    6  A    between atoms: C_11  and  C_62
    7  A    between atoms: C_12  and  C_41
    8  A    between atoms: O_17  and  C_41
    9  A    between atoms: C_18  and  C_34
   10  A    between atoms: C_19  and  C_29
   11  A    between atoms: C_22  and  C_34
   12  A    between atoms: C_23  and  C_29
   13  A    between atoms: C_23  and  N_40
   14  A    between atoms: C_24  and  C_26
   15  A    between atoms: C_25  and  C_54
   16  A    between atoms: C_26  and  N_61
   17  A    between atoms: O_28  and  C_57
   18  A    between atoms: C_35  and  C_62
   19  A    between atoms: N_40  and  C_49
   20  A    between atoms: C_49  and  C_52
   21  A    between atoms: C_52  and  C_64
   22  A    between atoms: C_54  and  C_64
   23  A    between atoms: C_58  and  C_60
   24  A    between atoms: C_60  and  C_63
                            x       y       z     vdW  Elec       q    Type
                         _______ _______ _______ _____ _____    ______ ____

>  <TORSDO>
F 24

$$$$
=
 OpenBabel11072409113D

 65 71  0  0  1  0  0  0  0  0999 V2000
  188.4970  175.1680  142.2610 C   0  0  2  0  0  3  0  0  0  0  0  0
  187.0190  177.2850  142.5250 C   0  0  2  0  0  3  0  0  0  0  0  0
  185.9600  178.3750  142.2750 C   0  0  2  0  0  3  0  0  0  0  0  0
  187.2740  175.9830  141.7620 C   0  0  2  0  0  3  0  0  0  0  0  0
  186.3280  175.8240  144.2640 C   0  0  0  0  0  3  0  0  0  0  0  0
  186.0420  176.7750  145.1810 C   0  0  0  0  0  0  0  0  0  0  0  0
  185.6840  178.2220  144.8440 C   0  0  0  0  0  2  0  0  0  0  0  0
  186.1540  176.0570  142.7950 C   0  0  1  0  0  3  0  0  0  0  0  0
  184.9840  178.4920  143.4890 C   0  0  1  0  0  3  0  0  0  0  0  0
  185.2430  178.3260  140.9430 C   0  0  0  0  0  0  0  0  0  0  0  0
  185.6920  177.5820  140.0280 O   0  0  0  0  0  0  0  0  0  0  0  0
  184.0580  179.0410  140.7410 O   0  0  0  0  0  0  0  0  0  0  0  0
  182.5180  178.2740  140.7060 P   0  0  0  0  0  0  0  0  0  0  0  0
  182.4640  177.1650  139.4280 O   0  0  0  0  0  0  0  0  0  0  0  0
  182.2990  177.5460  142.0110 O   0  0  0  0  0  1  0  0  0  0  0  0
  181.3110  179.4440  140.4940 O   0  0  0  0  0  1  0  0  0  0  0  0
  184.4440  179.7820  143.5150 O   0  0  0  0  0  0  0  0  0  0  0  0
  185.2510  180.5060  144.3940 C   0  0  0  0  0  1  0  0  0  0  0  0
  186.2260  176.4320  146.6300 C   0  0  0  0  0  2  0  0  0  0  0  0
  188.9090  178.7660  147.9500 O   0  0  0  0  0  1  0  0  0  0  0  0
  188.3080  177.7800  147.2340 N   0  0  0  0  0  0  0  0  0  0  0  0
  186.9060  177.5310  147.4110 C   0  0  0  0  0  0  0  0  0  0  0  0
  186.2380  178.2670  148.1920 O   0  0  0  0  0  0  0  0  0  0  0  0
  189.0990  177.0500  146.2490 C   0  0  0  0  0  2  0  0  0  0  0  0
  189.7810  175.8690  146.9130 C   0  0  0  0  0  2  0  0  0  0  0  0
  192.0950  175.3920  147.1840 O   0  0  0  0  0  0  0  0  0  0  0  0
  191.0910  176.3160  147.5370 C   0  0  2  0  0  3  0  0  0  0  0  0
  191.5710  175.2890  148.4870 C   0  0  0  0  0  2  0  0  0  0  0  0
  189.8220  175.8640  141.9370 C   0  0  0  0  0  2  0  0  0  0  0  0
  190.8610  177.7390  143.1510 C   0  0  0  0  0  1  0  0  0  0  0  0
  190.5790  176.2540  143.1980 C   0  0  2  0  0  3  0  0  0  0  0  0
  191.9010  175.5070  143.2650 C   0  0  0  0  0  2  0  0  0  0  0  0
  192.8930  176.2690  144.0110 N   0  0  0  0  0  2  0  0  0  0  0  0
  194.2230  176.0010  143.4550 C   0  0  0  0  0  2  0  0  0  0  0  0
  195.3150  175.9180  144.5290 C   0  0  1  0  0  3  0  0  0  0  0  0
  195.0320  174.9040  145.4470 O   0  0  0  0  0  1  0  0  0  0  0  0
  196.6720  175.7280  143.8440 C   0  0  1  0  0  3  0  0  0  0  0  0
  196.4480  175.4310  142.3720 C   0  0  1  0  0  3  0  0  0  0  0  0
  196.9830  176.7870  142.8020 C   0  0  0  0  0  2  0  0  0  0  0  0
  197.5720  174.5170  141.8950 C   0  0  0  0  0  2  0  0  0  0  0  0
  193.7740  173.0380  137.8150 C   0  0  0  0  0  2  0  0  0  0  0  0
  194.6620  173.7960  136.8380 C   0  0  0  0  0  2  0  0  0  0  0  0
  194.5990  172.5430  138.9860 C   0  0  0  0  0  2  0  0  0  0  0  0
  195.8970  174.4400  137.4940 C   0  0  2  0  0  3  0  0  0  0  0  0
  196.9060  175.2040  139.7460 C   0  0  2  0  0  3  0  0  0  0  0  0
  195.6590  174.7810  138.9900 C   0  0  2  0  0  3  0  0  0  0  0  0
  197.9400  175.6290  138.9320 F   0  0  0  0  0  0  0  0  0  0  0  0
  196.1960  173.1530  140.5860 C   0  0  0  0  0  2  0  0  0  0  0  0
  195.0980  173.6710  139.7780 N   0  0  2  0  0  0  0  0  0  0  0  0
  197.3370  174.0620  140.5300 N   0  0  0  0  0  0  0  0  0  0  0  0
  196.3410  175.6650  136.6860 C   0  0  0  0  0  3  0  0  0  0  0  0
  197.5480  175.4070  136.0340 O   0  0  0  0  0  1  0  0  0  0  0  0
  195.3680  176.0340  135.7540 O   0  0  0  0  0  1  0  0  0  0  0  0
  188.3920  173.6440  141.9740 C   0  0  0  0  0  2  0  0  0  0  0  0
  189.5560  172.5340  138.0460 C   0  0  0  0  0  0  0  0  0  0  0  0
  188.5760  174.1880  139.5710 C   0  0  0  0  0  2  0  0  0  0  0  0
  188.4610  173.5400  138.1950 C   0  0  0  0  0  2  0  0  0  0  0  0
  188.6690  173.1610  140.6130 N   0  0  0  0  0  0  0  0  0  0  0  0
  190.3280  172.5860  137.1040 O   0  0  0  0  0  0  0  0  0  0  0  0
  189.7410  171.5230  139.1310 C   0  0  0  0  0  2  0  0  0  0  0  0
  189.8180  172.2450  140.4820 C   0  0  1  0  0  3  0  0  0  0  0  0
  191.1670  172.9490  140.6480 C   0  0  0  0  0  2  0  0  0  0  0  0
  191.3710  171.9610  142.9170 C   0  0  0  0  0  1  0  0  0  0  0  0
  192.4720  170.9860  141.0590 O   0  0  0  0  0  1  0  0  0  0  0  0
  192.0900  172.2100  141.6130 C   0  0  1  0  0  3  0  0  0  0  0  0
  1 29  1  6  0  0  0
  2  8  1  0  0  0  0
  3  2  1  0  0  0  0
  3  9  1  0  0  0  0
  4  1  1  0  0  0  0
  4  2  1  0  0  0  0
  4  8  1  0  0  0  0
  5  6  2  0  0  0  0
  6 19  1  0  0  0  0
  7  6  1  0  0  0  0
  8  5  1  0  0  0  0
  9 17  1  0  0  0  0
  9  7  1  0  0  0  0
 10  3  1  0  0  0  0
 11 10  2  0  0  0  0
 12 10  1  0  0  0  0
 13 12  1  0  0  0  0
 13 15  1  0  0  0  0
 14 13  2  0  0  0  0
 16 13  1  0  0  0  0
 17 18  1  0  0  0  0
 19 22  1  0  0  0  0
 21 22  1  0  0  0  0
 21 20  1  0  0  0  0
 22 23  2  0  0  0  0
 24 25  1  0  0  0  0
 24 21  1  0  0  0  0
 25 27  1  0  0  0  0
 26 27  1  0  0  0  0
 26 28  1  0  0  0  0
 27 28  1  0  0  0  0
 29 31  1  0  0  0  0
 30 31  1  0  0  0  0
 31 32  1  0  0  0  0
 32 33  1  0  0  0  0
 34 33  1  0  0  0  0
 34 35  1  0  0  0  0
 35 36  1  0  0  0  0
 37 35  1  0  0  0  0
 38 39  1  0  0  0  0
 38 37  1  0  0  0  0
 39 37  1  0  0  0  0
 40 38  1  0  0  0  0
 41 43  1  0  0  0  0
 42 44  1  0  0  0  0
 42 41  1  0  0  0  0
 43 49  1  0  0  0  0
 44 46  1  0  0  0  0
 45 50  1  0  0  0  0
 46 45  1  0  0  0  0
 46 49  1  0  0  0  0
 47 45  1  0  0  0  0
 49 48  1  0  0  0  0
 50 48  1  0  0  0  0
 50 40  1  0  0  0  0
 51 44  1  0  0  0  0
 52 51  1  0  0  0  0
 53 51  1  0  0  0  0
 54  1  1  0  0  0  0
 55 57  1  0  0  0  0
 55 60  1  0  0  0  0
 56 58  1  0  0  0  0
 57 56  1  0  0  0  0
 58 54  1  0  0  0  0
 59 55  2  0  0  0  0
 60 61  1  0  0  0  0
 61 58  1  0  0  0  0
 61 62  1  0  0  0  0
 62 65  1  0  0  0  0
 64 65  1  0  0  0  0
 65 63  1  0  0  0  0
M  END
>  <MODEL>
6

>  <REMARK>
 VINA RESULT:      -4.9      1.706      2.674
  Name = 
  24 active torsions:
  status: ('A' for Active; 'I' for Inactive)
    1  A    between atoms: C_2  and  C_38
    2  A    between atoms: C_3  and  N_20
    3  A    between atoms: C_3  and  C_54
    4  A    between atoms: P_4  and  O_17
    5  A    between atoms: N_10  and  C_18
    6  A    between atoms: C_11  and  C_62
    7  A    between atoms: C_12  and  C_41
    8  A    between atoms: O_17  and  C_41
    9  A    between atoms: C_18  and  C_34
   10  A    between atoms: C_19  and  C_29
   11  A    between atoms: C_22  and  C_34
   12  A    between atoms: C_23  and  C_29
   13  A    between atoms: C_23  and  N_40
   14  A    between atoms: C_24  and  C_26
   15  A    between atoms: C_25  and  C_54
   16  A    between atoms: C_26  and  N_61
   17  A    between atoms: O_28  and  C_57
   18  A    between atoms: C_35  and  C_62
   19  A    between atoms: N_40  and  C_49
   20  A    between atoms: C_49  and  C_52
   21  A    between atoms: C_52  and  C_64
   22  A    between atoms: C_54  and  C_64
   23  A    between atoms: C_58  and  C_60
   24  A    between atoms: C_60  and  C_63
                            x       y       z     vdW  Elec       q    Type
                         _______ _______ _______ _____ _____    ______ ____

>  <TORSDO>
F 24

$$$$
=
 OpenBabel11072409113D

 65 71  0  0  1  0  0  0  0  0999 V2000
  191.8040  174.5130  142.3120 C   0  0  2  0  0  3  0  0  0  0  0  0
  190.9610  172.3770  141.1000 C   0  0  2  0  0  3  0  0  0  0  0  0
  190.2410  171.4370  140.1150 C   0  0  2  0  0  3  0  0  0  0  0  0
  191.0520  173.9050  141.0970 C   0  0  2  0  0  3  0  0  0  0  0  0
  193.2800  172.5000  140.6040 C   0  0  0  0  0  3  0  0  0  0  0  0
  193.5170  171.1700  140.5720 C   0  0  0  0  0  0  0  0  0  0  0  0
  192.4550  170.1080  140.2910 C   0  0  0  0  0  2  0  0  0  0  0  0
  191.9640  173.0830  140.1910 C   0  0  1  0  0  3  0  0  0  0  0  0
  191.2620  170.5070  139.3870 C   0  0  1  0  0  3  0  0  0  0  0  0
  189.2500  172.0820  139.1700 C   0  0  0  0  0  0  0  0  0  0  0  0
  188.3580  172.8420  139.6370 O   0  0  0  0  0  0  0  0  0  0  0  0
  189.3550  171.8980  137.7880 O   0  0  0  0  0  0  0  0  0  0  0  0
  190.0680  173.0760  136.7570 P   0  0  0  0  0  0  0  0  0  0  0  0
  189.3360  173.0140  135.2320 O   0  0  0  0  0  0  0  0  0  0  0  0
  189.8630  174.4470  137.3560 O   0  0  0  0  0  1  0  0  0  0  0  0
  191.7260  172.7610  136.6040 O   0  0  0  0  0  1  0  0  0  0  0  0
  190.6040  169.3430  138.9780 O   0  0  0  0  0  0  0  0  0  0  0  0
  191.2930  168.2920  139.5840 C   0  0  0  0  0  1  0  0  0  0  0  0
  194.8780  170.6890  140.9810 C   0  0  0  0  0  2  0  0  0  0  0  0
  197.4510  170.7790  138.1960 O   0  0  0  0  0  1  0  0  0  0  0  0
  196.6990  171.1700  139.2580 N   0  0  0  0  0  0  0  0  0  0  0  0
  195.7290  170.2660  139.8080 C   0  0  0  0  0  0  0  0  0  0  0  0
  195.6250  169.1010  139.3300 O   0  0  0  0  0  0  0  0  0  0  0  0
  196.9540  172.4770  139.8520 C   0  0  0  0  0  2  0  0  0  0  0  0
  197.8520  173.2900  138.9400 C   0  0  0  0  0  2  0  0  0  0  0  0
  196.1490  174.9390  139.1310 O   0  0  0  0  0  0  0  0  0  0  0  0
  197.5480  174.7680  139.1030 C   0  0  2  0  0  3  0  0  0  0  0  0
  196.8010  175.2610  137.9250 C   0  0  0  0  0  2  0  0  0  0  0  0
  190.8850  175.3730  143.1840 C   0  0  0  0  0  2  0  0  0  0  0  0
  191.0990  177.7810  143.6590 C   0  0  0  0  0  1  0  0  0  0  0  0
  190.7020  176.7690  142.6070 C   0  0  2  0  0  3  0  0  0  0  0  0
  189.2460  176.9950  142.2370 C   0  0  0  0  0  2  0  0  0  0  0  0
  188.4870  177.4820  143.3800 N   0  0  0  0  0  2  0  0  0  0  0  0
  187.1290  176.9300  143.3260 C   0  0  0  0  0  2  0  0  0  0  0  0
  186.0480  178.0120  143.2040 C   0  0  1  0  0  3  0  0  0  0  0  0
  185.0660  177.6300  142.2860 O   0  0  0  0  0  1  0  0  0  0  0  0
  185.4720  178.2980  144.5950 C   0  0  1  0  0  3  0  0  0  0  0  0
  186.6120  178.6120  145.5480 C   0  0  1  0  0  3  0  0  0  0  0  0
  185.6940  179.7230  145.0650 C   0  0  0  0  0  2  0  0  0  0  0  0
  186.2130  178.1290  146.9390 C   0  0  0  0  0  2  0  0  0  0  0  0
  190.4400  174.2480  146.3620 C   0  0  0  0  0  2  0  0  0  0  0  0
  191.2710  175.1490  147.2650 C   0  0  0  0  0  2  0  0  0  0  0  0
  188.9650  174.4500  146.6470 C   0  0  0  0  0  2  0  0  0  0  0  0
  190.5350  176.4260  147.7120 C   0  0  2  0  0  3  0  0  0  0  0  0
  188.5490  177.9890  147.1780 C   0  0  2  0  0  3  0  0  0  0  0  0
  189.4590  176.8760  146.6880 C   0  0  2  0  0  3  0  0  0  0  0  0
  189.0640  178.7090  148.2400 F   0  0  0  0  0  0  0  0  0  0  0  0
  187.2820  176.0500  146.9490 C   0  0  0  0  0  2  0  0  0  0  0  0
  188.5460  175.8010  146.2640 N   0  0  2  0  0  0  0  0  0  0  0  0
  187.2930  177.3740  147.5630 N   0  0  0  0  0  0  0  0  0  0  0  0
  191.5490  177.5370  148.0100 C   0  0  0  0  0  3  0  0  0  0  0  0
  191.5790  177.8160  149.3780 O   0  0  0  0  0  1  0  0  0  0  0  0
  192.8270  177.1850  147.5710 O   0  0  0  0  0  1  0  0  0  0  0  0
  193.2060  175.0810  141.9600 C   0  0  0  0  0  2  0  0  0  0  0  0
  195.9960  174.6670  145.1320 C   0  0  0  0  0  0  0  0  0  0  0  0
  194.3190  176.0190  143.9570 C   0  0  0  0  0  2  0  0  0  0  0  0
  195.6730  176.0470  144.6580 C   0  0  0  0  0  2  0  0  0  0  0  0
  194.2880  174.9550  142.9480 N   0  0  0  0  0  0  0  0  0  0  0  0
  196.2610  174.4550  146.3030 O   0  0  0  0  0  0  0  0  0  0  0  0
  195.8910  173.5410  144.1570 C   0  0  0  0  0  2  0  0  0  0  0  0
  194.5190  173.5950  143.4720 C   0  0  1  0  0  3  0  0  0  0  0  0
  193.4170  173.1240  144.4240 C   0  0  0  0  0  2  0  0  0  0  0  0
  192.3200  170.9050  144.2260 C   0  0  0  0  0  1  0  0  0  0  0  0
  194.6800  171.1100  144.1570 O   0  0  0  0  0  1  0  0  0  0  0  0
  193.5310  171.6380  144.7500 C   0  0  1  0  0  3  0  0  0  0  0  0
  1 54  1  6  0  0  0
  1 29  1  0  0  0  0
  3  2  1  0  0  0  0
  4  2  1  0  0  0  0
  4  1  1  0  0  0  0
  6  5  2  0  0  0  0
  6 19  1  0  0  0  0
  7  6  1  0  0  0  0
  8  5  1  0  0  0  0
  8  4  1  0  0  0  0
  8  2  1  0  0  0  0
  9  3  1  0  0  0  0
  9  7  1  0  0  0  0
 10 11  2  0  0  0  0
 10  3  1  0  0  0  0
 12 10  1  0  0  0  0
 13 15  1  0  0  0  0
 13 12  1  0  0  0  0
 14 13  2  0  0  0  0
 16 13  1  0  0  0  0
 17  9  1  0  0  0  0
 17 18  1  0  0  0  0
 20 21  1  0  0  0  0
 21 22  1  0  0  0  0
 21 24  1  0  0  0  0
 22 19  1  0  0  0  0
 23 22  2  0  0  0  0
 25 27  1  0  0  0  0
 25 24  1  0  0  0  0
 27 26  1  0  0  0  0
 28 27  1  0  0  0  0
 28 26  1  0  0  0  0
 31 29  1  0  0  0  0
 31 30  1  0  0  0  0
 32 31  1  0  0  0  0
 32 33  1  0  0  0  0
 34 33  1  0  0  0  0
 35 34  1  0  0  0  0
 35 37  1  0  0  0  0
 36 35  1  0  0  0  0
 37 39  1  0  0  0  0
 37 38  1  0  0  0  0
 38 40  1  0  0  0  0
 39 38  1  0  0  0  0
 40 50  1  0  0  0  0
 41 43  1  0  0  0  0
 41 42  1  0  0  0  0
 42 44  1  0  0  0  0
 44 51  1  0  0  0  0
 45 50  1  0  0  0  0
 45 47  1  0  0  0  0
 46 45  1  0  0  0  0
 46 44  1  0  0  0  0
 48 50  1  0  0  0  0
 49 43  1  0  0  0  0
 49 46  1  0  0  0  0
 49 48  1  0  0  0  0
 51 52  1  0  0  0  0
 53 51  1  0  0  0  0
 54 58  1  0  0  0  0
 55 59  2  0  0  0  0
 56 57  1  0  0  0  0
 57 55  1  0  0  0  0
 58 61  1  0  0  0  0
 58 56  1  0  0  0  0
 60 55  1  0  0  0  0
 61 60  1  0  0  0  0
 61 62  1  0  0  0  0
 62 65  1  0  0  0  0
 63 65  1  0  0  0  0
 64 65  1  0  0  0  0
M  END
>  <MODEL>
7

>  <REMARK>
 VINA RESULT:      -4.9      3.006      9.826
  Name = 
  24 active torsions:
  status: ('A' for Active; 'I' for Inactive)
    1  A    between atoms: C_2  and  C_38
    2  A    between atoms: C_3  and  N_20
    3  A    between atoms: C_3  and  C_54
    4  A    between atoms: P_4  and  O_17
    5  A    between atoms: N_10  and  C_18
    6  A    between atoms: C_11  and  C_62
    7  A    between atoms: C_12  and  C_41
    8  A    between atoms: O_17  and  C_41
    9  A    between atoms: C_18  and  C_34
   10  A    between atoms: C_19  and  C_29
   11  A    between atoms: C_22  and  C_34
   12  A    between atoms: C_23  and  C_29
   13  A    between atoms: C_23  and  N_40
   14  A    between atoms: C_24  and  C_26
   15  A    between atoms: C_25  and  C_54
   16  A    between atoms: C_26  and  N_61
   17  A    between atoms: O_28  and  C_57
   18  A    between atoms: C_35  and  C_62
   19  A    between atoms: N_40  and  C_49
   20  A    between atoms: C_49  and  C_52
   21  A    between atoms: C_52  and  C_64
   22  A    between atoms: C_54  and  C_64
   23  A    between atoms: C_58  and  C_60
   24  A    between atoms: C_60  and  C_63
                            x       y       z     vdW  Elec       q    Type
                         _______ _______ _______ _____ _____    ______ ____

>  <TORSDO>
F 24

$$$$
=
 OpenBabel11072409113D

 65 71  0  0  1  0  0  0  0  0999 V2000
  189.7630  173.8030  142.5220 C   0  0  2  0  0  3  0  0  0  0  0  0
  190.2600  174.8520  144.8440 C   0  0  2  0  0  3  0  0  0  0  0  0
  190.1100  175.3250  146.3020 C   0  0  2  0  0  3  0  0  0  0  0  0
  189.3070  174.0110  143.9910 C   0  0  2  0  0  3  0  0  0  0  0  0
  191.6470  172.9280  144.7210 C   0  0  0  0  0  3  0  0  0  0  0  0
  192.6860  173.4230  145.4290 C   0  0  0  0  0  0  0  0  0  0  0  0
  192.5770  174.5550  146.4500 C   0  0  0  0  0  2  0  0  0  0  0  0
  190.2310  173.3330  144.9980 C   0  0  1  0  0  3  0  0  0  0  0  0
  191.2320  174.7170  147.2020 C   0  0  1  0  0  3  0  0  0  0  0  0
  188.7310  175.2010  146.9130 C   0  0  0  0  0  0  0  0  0  0  0  0
  188.5730  174.4900  147.9430 O   0  0  0  0  0  0  0  0  0  0  0  0
  187.6500  175.9180  146.3900 O   0  0  0  0  0  0  0  0  0  0  0  0
  187.2490  177.5010  146.9320 P   0  0  0  0  0  0  0  0  0  0  0  0
  186.1950  177.4000  148.2530 O   0  0  0  0  0  1  0  0  0  0  0  0
  188.5120  178.2140  147.3520 O   0  0  0  0  0  1  0  0  0  0  0  0
  186.5020  178.3550  145.6730 O   0  0  0  0  0  0  0  0  0  0  0  0
  191.4350  175.5550  148.3030 O   0  0  0  0  0  0  0  0  0  0  0  0
  191.8820  176.7660  147.7720 C   0  0  0  0  0  1  0  0  0  0  0  0
  194.0630  172.9330  145.0910 C   0  0  0  0  0  2  0  0  0  0  0  0
  194.2570  169.4140  143.6920 O   0  0  0  0  0  1  0  0  0  0  0  0
  194.2590  170.4400  144.5820 N   0  0  0  0  0  0  0  0  0  0  0  0
  194.0540  171.7820  144.1160 C   0  0  0  0  0  0  0  0  0  0  0  0
  193.8220  171.9840  142.8900 O   0  0  0  0  0  0  0  0  0  0  0  0
  194.4000  170.1330  146.0010 C   0  0  0  0  0  2  0  0  0  0  0  0
  194.7830  168.6760  146.1770 C   0  0  0  0  0  2  0  0  0  0  0  0
  196.5970  169.8830  147.1290 O   0  0  0  0  0  0  0  0  0  0  0  0
  196.1200  168.5790  146.8890 C   0  0  2  0  0  3  0  0  0  0  0  0
  197.1790  169.1850  146.0530 C   0  0  0  0  0  2  0  0  0  0  0  0
  189.3540  174.9720  141.6230 C   0  0  0  0  0  2  0  0  0  0  0  0
  187.3710  176.1730  140.7880 C   0  0  0  0  0  1  0  0  0  0  0  0
  187.9940  175.5340  142.0090 C   0  0  2  0  0  3  0  0  0  0  0  0
  188.1540  176.5940  143.0860 C   0  0  0  0  0  2  0  0  0  0  0  0
  188.5870  177.8600  142.5120 N   0  0  0  0  0  2  0  0  0  0  0  0
  190.0240  177.7950  142.2310 C   0  0  0  0  0  2  0  0  0  0  0  0
  190.8890  178.0410  143.4740 C   0  0  1  0  0  3  0  0  0  0  0  0
  190.0900  178.3210  144.5860 O   0  0  0  0  0  1  0  0  0  0  0  0
  191.7990  176.8290  143.6940 C   0  0  1  0  0  3  0  0  0  0  0  0
  192.9960  176.9310  142.7650 C   0  0  1  0  0  3  0  0  0  0  0  0
  193.1640  177.1840  144.2540 C   0  0  0  0  0  2  0  0  0  0  0  0
  193.4280  175.5160  142.3910 C   0  0  0  0  0  2  0  0  0  0  0  0
  197.8880  172.7970  139.9470 C   0  0  0  0  0  2  0  0  0  0  0  0
  197.3770  173.3390  138.6190 C   0  0  0  0  0  2  0  0  0  0  0  0
  197.4530  173.7060  141.0780 C   0  0  0  0  0  2  0  0  0  0  0  0
  196.0960  174.1830  138.7460 C   0  0  2  0  0  3  0  0  0  0  0  0
  194.0860  174.7120  140.2800 C   0  0  2  0  0  3  0  0  0  0  0  0
  195.2380  173.7710  139.9720 C   0  0  2  0  0  3  0  0  0  0  0  0
  193.7170  175.5150  139.2180 F   0  0  0  0  0  0  0  0  0  0  0  0
  195.6380  174.8600  142.0080 C   0  0  0  0  0  2  0  0  0  0  0  0
  195.9950  173.6770  141.2320 N   0  0  2  0  0  0  0  0  0  0  0  0
  194.4970  175.5370  141.4000 N   0  0  0  0  0  0  0  0  0  0  0  0
  195.2980  174.1240  137.4370 C   0  0  0  0  0  3  0  0  0  0  0  0
  195.4210  175.3260  136.7380 O   0  0  0  0  0  1  0  0  0  0  0  0
  195.7240  173.0630  136.6350 O   0  0  0  0  0  1  0  0  0  0  0  0
  189.5230  172.3630  141.9900 C   0  0  0  0  0  2  0  0  0  0  0  0
  192.2750  170.1980  139.5920 C   0  0  0  0  0  0  0  0  0  0  0  0
  190.7760  170.2830  141.5330 C   0  0  0  0  0  2  0  0  0  0  0  0
  192.1310  169.8010  141.0260 C   0  0  0  0  0  2  0  0  0  0  0  0
  190.5910  171.7050  141.2240 N   0  0  0  0  0  0  0  0  0  0  0  0
  192.5260  169.3660  138.7360 O   0  0  0  0  0  0  0  0  0  0  0  0
  192.0090  171.6200  139.2210 C   0  0  0  0  0  2  0  0  0  0  0  0
  190.6480  172.0400  139.7880 C   0  0  1  0  0  3  0  0  0  0  0  0
  189.5050  171.4180  138.9820 C   0  0  0  0  0  2  0  0  0  0  0  0
  189.2700  173.7430  138.1410 C   0  0  0  0  0  1  0  0  0  0  0  0
  189.8980  171.9780  136.6890 O   0  0  0  0  0  1  0  0  0  0  0  0
  189.0990  172.2830  137.7930 C   0  0  1  0  0  3  0  0  0  0  0  0
  1 29  1  6  0  0  0
  1  4  1  0  0  0  0
  2  8  1  0  0  0  0
  2  3  1  0  0  0  0
  3 10  1  0  0  0  0
  3  9  1  0  0  0  0
  4  2  1  0  0  0  0
  4  8  1  0  0  0  0
  5  8  1  0  0  0  0
  5  6  2  0  0  0  0
  6  7  1  0  0  0  0
  7  9  1  0  0  0  0
  9 17  1  0  0  0  0
 10 11  2  0  0  0  0
 12 10  1  0  0  0  0
 12 13  1  0  0  0  0
 13 15  1  0  0  0  0
 13 14  1  0  0  0  0
 16 13  2  0  0  0  0
 18 17  1  0  0  0  0
 19  6  1  0  0  0  0
 20 21  1  0  0  0  0
 21 24  1  0  0  0  0
 22 21  1  0  0  0  0
 22 19  1  0  0  0  0
 23 22  2  0  0  0  0
 24 25  1  0  0  0  0
 25 27  1  0  0  0  0
 27 26  1  0  0  0  0
 28 27  1  0  0  0  0
 28 26  1  0  0  0  0
 29 31  1  0  0  0  0
 30 31  1  0  0  0  0
 31 32  1  0  0  0  0
 33 32  1  0  0  0  0
 34 33  1  0  0  0  0
 34 35  1  0  0  0  0
 35 37  1  0  0  0  0
 35 36  1  0  0  0  0
 37 39  1  0  0  0  0
 38 37  1  0  0  0  0
 38 39  1  0  0  0  0
 40 38  1  0  0  0  0
 41 43  1  0  0  0  0
 42 44  1  0  0  0  0
 42 41  1  0  0  0  0
 43 49  1  0  0  0  0
 44 46  1  0  0  0  0
 45 50  1  0  0  0  0
 46 45  1  0  0  0  0
 46 49  1  0  0  0  0
 47 45  1  0  0  0  0
 49 48  1  0  0  0  0
 50 48  1  0  0  0  0
 50 40  1  0  0  0  0
 51 44  1  0  0  0  0
 52 51  1  0  0  0  0
 53 51  1  0  0  0  0
 54  1  1  0  0  0  0
 55 57  1  0  0  0  0
 57 56  1  0  0  0  0
 58 56  1  0  0  0  0
 58 54  1  0  0  0  0
 59 55  2  0  0  0  0
 60 55  1  0  0  0  0
 60 61  1  0  0  0  0
 61 58  1  0  0  0  0
 62 61  1  0  0  0  0
 64 65  1  0  0  0  0
 65 63  1  0  0  0  0
 65 62  1  0  0  0  0
M  END
>  <MODEL>
8

>  <REMARK>
 VINA RESULT:      -4.8      3.036      5.472
  Name = 
  24 active torsions:
  status: ('A' for Active; 'I' for Inactive)
    1  A    between atoms: C_2  and  C_38
    2  A    between atoms: C_3  and  N_20
    3  A    between atoms: C_3  and  C_54
    4  A    between atoms: P_4  and  O_17
    5  A    between atoms: N_10  and  C_18
    6  A    between atoms: C_11  and  C_62
    7  A    between atoms: C_12  and  C_41
    8  A    between atoms: O_17  and  C_41
    9  A    between atoms: C_18  and  C_34
   10  A    between atoms: C_19  and  C_29
   11  A    between atoms: C_22  and  C_34
   12  A    between atoms: C_23  and  C_29
   13  A    between atoms: C_23  and  N_40
   14  A    between atoms: C_24  and  C_26
   15  A    between atoms: C_25  and  C_54
   16  A    between atoms: C_26  and  N_61
   17  A    between atoms: O_28  and  C_57
   18  A    between atoms: C_35  and  C_62
   19  A    between atoms: N_40  and  C_49
   20  A    between atoms: C_49  and  C_52
   21  A    between atoms: C_52  and  C_64
   22  A    between atoms: C_54  and  C_64
   23  A    between atoms: C_58  and  C_60
   24  A    between atoms: C_60  and  C_63
                            x       y       z     vdW  Elec       q    Type
                         _______ _______ _______ _____ _____    ______ ____

>  <TORSDO>
F 24

$$$$
=
 OpenBabel11072409113D

 65 71  0  0  1  0  0  0  0  0999 V2000
  190.6400  174.6740  145.0360 C   0  0  2  0  0  3  0  0  0  0  0  0
  192.0630  173.0050  143.6460 C   0  0  2  0  0  3  0  0  0  0  0  0
  192.8460  171.7510  143.2120 C   0  0  2  0  0  3  0  0  0  0  0  0
  191.2170  173.2380  144.9000 C   0  0  2  0  0  3  0  0  0  0  0  0
  189.9680  173.1150  142.5320 C   0  0  0  0  0  3  0  0  0  0  0  0
  190.4370  172.9560  141.2740 C   0  0  0  0  0  0  0  0  0  0  0  0
  191.7590  172.2770  140.9230 C   0  0  0  0  0  2  0  0  0  0  0  0
  190.6320  172.4780  143.7140 C   0  0  1  0  0  3  0  0  0  0  0  0
  192.2770  171.1730  141.8790 C   0  0  1  0  0  3  0  0  0  0  0  0
  193.0630  170.6920  144.2720 C   0  0  0  0  0  0  0  0  0  0  0  0
  192.3350  169.6620  144.2730 O   0  0  0  0  0  0  0  0  0  0  0  0
  194.1010  170.8120  145.2020 O   0  0  0  0  0  0  0  0  0  0  0  0
  195.5420  169.8780  145.0940 P   0  0  0  0  0  0  0  0  0  0  0  0
  195.1670  168.3160  144.5590 O   0  0  0  0  0  1  0  0  0  0  0  0
  196.4840  170.5320  144.1110 O   0  0  0  0  0  0  0  0  0  0  0  0
  196.2750  169.7950  146.6200 O   0  0  0  0  0  1  0  0  0  0  0  0
  193.2850  170.4550  141.2280 O   0  0  0  0  0  0  0  0  0  0  0  0
  192.6540  169.3350  140.6860 C   0  0  0  0  0  1  0  0  0  0  0  0
  189.6850  173.6150  140.1560 C   0  0  0  0  0  2  0  0  0  0  0  0
  188.8840  172.3600  136.6680 O   0  0  0  0  0  1  0  0  0  0  0  0
  189.1340  173.2120  137.6960 N   0  0  0  0  0  0  0  0  0  0  0  0
  189.4140  172.6820  139.0010 C   0  0  0  0  0  0  0  0  0  0  0  0
  189.4760  171.4300  139.1620 O   0  0  0  0  0  0  0  0  0  0  0  0
  189.1800  174.6440  137.4230 C   0  0  0  0  0  2  0  0  0  0  0  0
  188.3340  174.9620  136.2050 C   0  0  0  0  0  2  0  0  0  0  0  0
  186.6040  176.4010  135.4360 O   0  0  0  0  0  0  0  0  0  0  0  0
  187.6150  176.2830  136.4110 C   0  0  2  0  0  3  0  0  0  0  0  0
  187.7830  177.1380  135.2150 C   0  0  0  0  0  2  0  0  0  0  0  0
  191.7430  175.7210  145.2130 C   0  0  0  0  0  2  0  0  0  0  0  0
  192.2440  176.6630  147.4330 C   0  0  0  0  0  1  0  0  0  0  0  0
  192.5260  175.5070  146.5000 C   0  0  2  0  0  3  0  0  0  0  0  0
  194.0160  175.4680  146.2050 C   0  0  0  0  0  2  0  0  0  0  0  0
  194.2640  175.4760  144.7700 N   0  0  0  0  0  2  0  0  0  0  0  0
  195.6230  175.9660  144.5200 C   0  0  0  0  0  2  0  0  0  0  0  0
  196.6740  174.8480  144.5320 C   0  0  1  0  0  3  0  0  0  0  0  0
  196.1020  173.6350  144.9230 O   0  0  0  0  0  1  0  0  0  0  0  0
  197.3310  174.7690  143.1500 C   0  0  1  0  0  3  0  0  0  0  0  0
  196.3270  175.2050  142.0970 C   0  0  1  0  0  3  0  0  0  0  0  0
  197.4840  176.1170  142.4700 C   0  0  0  0  0  2  0  0  0  0  0  0
  196.6200  174.4330  140.8140 C   0  0  0  0  0  2  0  0  0  0  0  0
  192.4980  173.5550  136.8770 C   0  0  0  0  0  2  0  0  0  0  0  0
  192.7450  172.0660  137.0800 C   0  0  0  0  0  2  0  0  0  0  0  0
  192.8820  174.3170  138.1290 C   0  0  0  0  0  2  0  0  0  0  0  0
  193.8520  171.7560  138.1040 C   0  0  2  0  0  3  0  0  0  0  0  0
  195.8880  172.7480  139.3450 C   0  0  2  0  0  3  0  0  0  0  0  0
  194.9060  172.8920  138.1960 C   0  0  2  0  0  3  0  0  0  0  0  0
  195.9780  171.4650  139.8510 F   0  0  0  0  0  0  0  0  0  0  0  0
  194.5420  174.6010  139.7570 C   0  0  0  0  0  2  0  0  0  0  0  0
  194.3270  174.2360  138.3610 N   0  0  2  0  0  0  0  0  0  0  0  0
  195.4600  173.6590  140.3900 N   0  0  0  0  0  0  0  0  0  0  0  0
  194.4930  170.3990  137.7870 C   0  0  0  0  0  3  0  0  0  0  0  0
  193.5590  169.5450  137.1950 O   0  0  0  0  0  1  0  0  0  0  0  0
  195.5990  170.5470  136.9470 O   0  0  0  0  0  1  0  0  0  0  0  0
  189.4010  174.7640  145.9680 C   0  0  0  0  0  2  0  0  0  0  0  0
  186.1970  177.2500  144.7140 C   0  0  0  0  0  0  0  0  0  0  0  0
  187.5180  176.2620  146.5310 C   0  0  0  0  0  2  0  0  0  0  0  0
  186.1110  176.6240  146.0680 C   0  0  0  0  0  2  0  0  0  0  0  0
  188.2130  175.4900  145.4950 N   0  0  0  0  0  0  0  0  0  0  0  0
  185.7160  178.3500  144.5020 O   0  0  0  0  0  0  0  0  0  0  0  0
  186.9720  176.5380  143.6540 C   0  0  0  0  0  2  0  0  0  0  0  0
  188.3600  176.1810  144.2000 C   0  0  1  0  0  3  0  0  0  0  0  0
  189.2500  177.4240  144.2820 C   0  0  0  0  0  2  0  0  0  0  0  0
  189.0800  178.4100  142.0080 C   0  0  0  0  0  1  0  0  0  0  0  0
  191.1150  178.4820  143.2210 O   0  0  0  0  0  1  0  0  0  0  0  0
  189.9910  177.6910  142.9750 C   0  0  1  0  0  3  0  0  0  0  0  0
  1 29  1  1  0  0  0
  1 54  1  0  0  0  0
  2  8  1  0  0  0  0
  2  4  1  0  0  0  0
  3  2  1  0  0  0  0
  3 10  1  0  0  0  0
  4  1  1  0  0  0  0
  5  8  1  0  0  0  0
  6  5  2  0  0  0  0
  7  6  1  0  0  0  0
  7  9  1  0  0  0  0
  8  4  1  0  0  0  0
  9  3  1  0  0  0  0
 10 11  2  0  0  0  0
 10 12  1  0  0  0  0
 13 12  1  0  0  0  0
 13 16  1  0  0  0  0
 14 13  1  0  0  0  0
 15 13  2  0  0  0  0
 17  9  1  0  0  0  0
 18 17  1  0  0  0  0
 19  6  1  0  0  0  0
 20 21  1  0  0  0  0
 21 22  1  0  0  0  0
 22 23  2  0  0  0  0
 22 19  1  0  0  0  0
 24 21  1  0  0  0  0
 25 27  1  0  0  0  0
 25 24  1  0  0  0  0
 26 27  1  0  0  0  0
 28 26  1  0  0  0  0
 28 27  1  0  0  0  0
 29 31  1  0  0  0  0
 31 30  1  0  0  0  0
 32 31  1  0  0  0  0
 33 32  1  0  0  0  0
 34 35  1  0  0  0  0
 34 33  1  0  0  0  0
 35 36  1  0  0  0  0
 37 35  1  0  0  0  0
 38 39  1  0  0  0  0
 38 37  1  0  0  0  0
 39 37  1  0  0  0  0
 40 38  1  0  0  0  0
 41 42  1  0  0  0  0
 41 43  1  0  0  0  0
 42 44  1  0  0  0  0
 43 49  1  0  0  0  0
 44 46  1  0  0  0  0
 45 47  1  0  0  0  0
 45 50  1  0  0  0  0
 46 49  1  0  0  0  0
 46 45  1  0  0  0  0
 48 50  1  0  0  0  0
 49 48  1  0  0  0  0
 50 40  1  0  0  0  0
 51 44  1  0  0  0  0
 52 51  1  0  0  0  0
 53 51  1  0  0  0  0
 55 57  1  0  0  0  0
 57 56  1  0  0  0  0
 58 54  1  0  0  0  0
 58 56  1  0  0  0  0
 59 55  2  0  0  0  0
 60 61  1  0  0  0  0
 60 55  1  0  0  0  0
 61 62  1  0  0  0  0
 61 58  1  0  0  0  0
 63 65  1  0  0  0  0
 65 64  1  0  0  0  0
 65 62  1  0  0  0  0
M  END
>  <MODEL>
9

>  <REMARK>
 VINA RESULT:      -4.8      3.091      8.177
  Name = 
  24 active torsions:
  status: ('A' for Active; 'I' for Inactive)
    1  A    between atoms: C_2  and  C_38
    2  A    between atoms: C_3  and  N_20
    3  A    between atoms: C_3  and  C_54
    4  A    between atoms: P_4  and  O_17
    5  A    between atoms: N_10  and  C_18
    6  A    between atoms: C_11  and  C_62
    7  A    between atoms: C_12  and  C_41
    8  A    between atoms: O_17  and  C_41
    9  A    between atoms: C_18  and  C_34
   10  A    between atoms: C_19  and  C_29
   11  A    between atoms: C_22  and  C_34
   12  A    between atoms: C_23  and  C_29
   13  A    between atoms: C_23  and  N_40
   14  A    between atoms: C_24  and  C_26
   15  A    between atoms: C_25  and  C_54
   16  A    between atoms: C_26  and  N_61
   17  A    between atoms: O_28  and  C_57
   18  A    between atoms: C_35  and  C_62
   19  A    between atoms: N_40  and  C_49
   20  A    between atoms: C_49  and  C_52
   21  A    between atoms: C_52  and  C_64
   22  A    between atoms: C_54  and  C_64
   23  A    between atoms: C_58  and  C_60
   24  A    between atoms: C_60  and  C_63
                            x       y       z     vdW  Elec       q    Type
                         _______ _______ _______ _____ _____    ______ ____

>  <TORSDO>
F 24

$$$$
