=
 OpenBabel11062420243D

 49 53  0  0  1  0  0  0  0  0999 V2000
  189.0040  174.7530  141.3460 C   0  0  2  0  0  3  0  0  0  0  0  0
  189.8080  173.7890  140.5490 N   0  0  0  0  0  0  0  0  0  0  0  0
  188.8070  173.3120  141.5240 C   0  0  1  0  0  3  0  0  0  0  0  0
  187.3930  176.6200  140.8700 C   0  0  0  0  0  3  0  0  0  0  0  0
  187.8500  175.3850  140.5930 C   0  0  0  0  0  3  0  0  0  0  0  0
  187.9420  177.4410  142.0020 C   0  0  0  0  0  2  0  0  0  0  0  0
  187.1490  177.1400  143.2570 C   0  0  0  0  0  2  0  0  0  0  0  0
  185.6590  177.0320  142.9490 C   0  0  0  0  0  2  0  0  0  0  0  0
  185.9410  179.4360  143.5060 C   0  0  0  0  0  1  0  0  0  0  0  0
  184.9010  178.3440  143.3000 C   0  0  1  0  0  0  0  0  0  0  0  0
  184.0570  178.8620  142.1030 C   0  0  2  0  0  3  0  0  0  0  0  0
  182.9970  177.9450  141.6290 C   0  0  2  0  0  3  0  0  0  0  0  0
  184.2210  178.0580  140.9520 O   0  0  0  0  0  0  0  0  0  0  0  0
  181.9420  178.7740  140.9270 C   0  0  0  0  0  2  0  0  0  0  0  0
  179.2410  178.8210  140.1850 N   0  0  0  0  0  1  0  0  0  0  0  0
  179.9690  179.0180  142.6390 O   0  0  0  0  0  0  0  0  0  0  0  0
  180.3140  178.1890  141.4120 S   0  0  2  0  0  0  0  0  0  0  0  0
  184.1450  178.2780  144.5090 O   0  0  0  0  0  0  0  0  0  0  0  0
  184.9760  178.0530  145.6270 C   0  0  0  0  0  3  0  0  0  0  0  0
  185.1300  179.2510  146.3260 O   0  0  0  0  0  1  0  0  0  0  0  0
  184.3680  177.1140  146.4620 O   0  0  0  0  0  1  0  0  0  0  0  0
  189.2650  173.6130  139.3160 O   0  0  0  0  0  0  0  0  0  0  0  0
  190.3280  173.1870  138.5160 C   0  0  0  0  0  2  0  0  0  0  0  0
  190.5610  170.7430  139.1990 C   0  0  0  0  0  0  0  0  0  0  0  0
  191.0500  172.0910  139.1610 N   0  0  0  0  0  2  0  0  0  0  0  0
  189.5810  170.3960  138.4750 O   0  0  0  0  0  0  0  0  0  0  0  0
  191.2280  169.7530  140.0510 C   0  0  0  0  0  0  0  0  0  0  0  0
  192.2260  169.0990  139.6090 O   0  0  0  0  0  0  0  0  0  0  0  0
  190.7690  169.5320  141.4670 C   0  0  0  0  0  1  0  0  0  0  0  0
  189.5210  172.8880  142.7940 C   0  0  0  0  0  2  0  0  0  0  0  0
  189.6790  174.0710  143.7410 C   0  0  0  0  0  2  0  0  0  0  0  0
  189.5490  173.6150  145.1640 C   0  0  0  0  0  3  0  0  0  0  0  0
  190.2210  174.1570  146.1890 C   0  0  0  0  0  3  0  0  0  0  0  0
  191.1960  175.3080  146.1000 C   0  0  1  0  0  3  0  0  0  0  0  0
  190.8490  176.9350  147.7970 O   0  0  0  0  0  0  0  0  0  0  0  0
  190.6620  176.6100  146.6420 C   0  0  0  0  0  0  0  0  0  0  0  0
  190.6620  177.6010  144.3850 C   0  0  0  0  0  1  0  0  0  0  0  0
  189.9580  177.5560  145.7180 C   0  0  0  0  0  2  0  0  0  0  0  0
  192.5910  174.9330  146.6160 C   0  0  0  0  0  2  0  0  0  0  0  0
  194.5480  175.6570  145.1440 C   0  0  1  0  0  0  0  0  0  0  0  0
  195.6790  173.3220  143.6480 C   0  0  0  0  0  2  0  0  0  0  0  0
  195.5700  173.2490  145.1880 C   0  0  2  0  0  3  0  0  0  0  0  0
  195.0240  174.4680  146.0080 C   0  0  2  0  0  0  0  0  0  0  0  0
  195.1410  174.4780  141.5710 N   0  0  0  0  0  1  0  0  0  0  0  0
  194.7850  174.3630  142.9750 C   0  0  2  0  0  3  0  0  0  0  0  0
  193.5670  174.5630  145.4890 C   0  0  1  0  0  3  0  0  0  0  0  0
  196.5070  174.2960  145.6600 C   0  0  0  0  0  2  0  0  0  0  0  0
  194.4690  176.9840  145.8930 C   0  0  0  0  0  1  0  0  0  0  0  0
  194.9400  175.7190  143.6590 C   0  0  0  0  0  2  0  0  0  0  0  0
  1  5  1  6  0  0  0
  1  3  1  0  0  0  0
  2  1  1  0  0  0  0
  2  3  1  0  0  0  0
  3 30  1  1  0  0  0
  4  6  1  0  0  0  0
  5  4  2  0  0  0  0
  6  7  1  0  0  0  0
  8  7  1  0  0  0  0
  8 10  1  0  0  0  0
 10  9  1  1  0  0  0
 10 18  1  0  0  0  0
 11 10  1  1  0  0  0
 12 14  1  6  0  0  0
 12 11  1  0  0  0  0
 13 12  1  0  0  0  0
 13 11  1  0  0  0  0
 14 17  1  0  0  0  0
 17 15  1  6  0  0  0
 17 16  2  0  0  0  0
 18 19  1  0  0  0  0
 19 20  1  0  0  0  0
 19 21  1  0  0  0  0
 22  2  1  0  0  0  0
 23 25  1  0  0  0  0
 23 22  1  0  0  0  0
 24 27  1  0  0  0  0
 25 24  1  0  0  0  0
 26 24  2  0  0  0  0
 27 29  1  0  0  0  0
 28 27  2  0  0  0  0
 30 31  1  0  0  0  0
 31 32  1  0  0  0  0
 32 33  2  0  0  0  0
 34 33  1  1  0  0  0
 34 39  1  0  0  0  0
 34 36  1  0  0  0  0
 36 35  2  0  0  0  0
 37 38  1  0  0  0  0
 38 36  1  0  0  0  0
 40 46  1  0  0  0  0
 40 48  1  1  0  0  0
 40 43  1  0  0  0  0
 42 41  1  6  0  0  0
 42 47  1  0  0  0  0
 42 43  1  0  0  0  0
 43 47  1  1  0  0  0
 45 44  1  6  0  0  0
 45 41  1  0  0  0  0
 45 49  1  0  0  0  0
 46 43  1  0  0  0  0
 46 39  1  1  0  0  0
 49 40  1  0  0  0  0
M  END
>  <MODEL>
1

>  <REMARK>
 VINA RESULT:      -6.2      0.000      0.000
  Name = 
  22 active torsions:
  status: ('A' for Active; 'I' for Inactive)
    1  A    between atoms: C_1  and  C_15
    2  A    between atoms: C_1  and  C_26
    3  A    between atoms: C_2  and  C_20
    4  A    between atoms: C_2  and  C_38
    5  A    between atoms: C_2  and  C_39
    6  A    between atoms: C_3  and  O_19
    7  A    between atoms: C_3  and  N_46
    8  A    between atoms: C_4  and  C_45
    9  A    between atoms: C_6  and  C_28
   10  A    between atoms: C_6  and  C_34
   11  A    between atoms: C_7  and  C_35
   12  A    between atoms: C_7  and  S_40
   13  A    between atoms: C_9  and  C_25
   14  A    between atoms: C_11  and  C_42
   15  A    between atoms: C_13  and  C_28
   16  A    between atoms: C_15  and  C_31
   17  A    between atoms: N_16  and  O_19
   18  A    between atoms: C_22  and  O_36
   19  A    between atoms: C_26  and  C_45
   20  A    between atoms: C_29  and  C_39
   21  A    between atoms: C_32  and  C_38
   22  A    between atoms: O_36  and  C_45
                            x       y       z     vdW  Elec       q    Type
                         _______ _______ _______ _____ _____    ______ ____

>  <TORSDO>
F 22

$$$$
=
 OpenBabel11062420243D

 49 53  0  0  1  0  0  0  0  0999 V2000
  189.9170  173.8000  141.0000 C   0  0  2  0  0  3  0  0  0  0  0  0
  189.7550  173.7870  139.5210 N   0  0  0  0  0  0  0  0  0  0  0  0
  190.4990  172.7120  140.2090 C   0  0  1  0  0  3  0  0  0  0  0  0
  187.8850  174.1910  142.4230 C   0  0  0  0  0  3  0  0  0  0  0  0
  188.6960  173.3380  141.7710 C   0  0  0  0  0  3  0  0  0  0  0  0
  188.1700  175.6650  142.5010 C   0  0  0  0  0  2  0  0  0  0  0  0
  187.2980  176.2750  143.5790 C   0  0  0  0  0  2  0  0  0  0  0  0
  185.8910  176.5470  143.0550 C   0  0  0  0  0  2  0  0  0  0  0  0
  184.0690  178.2360  143.0850 C   0  0  0  0  0  1  0  0  0  0  0  0
  185.5800  178.0710  143.0040 C   0  0  1  0  0  0  0  0  0  0  0  0
  186.0990  178.8090  144.2670 C   0  0  2  0  0  3  0  0  0  0  0  0
  185.1100  178.9840  145.3530 C   0  0  2  0  0  3  0  0  0  0  0  0
  185.4260  180.0350  144.4790 O   0  0  0  0  0  0  0  0  0  0  0  0
  185.8680  179.1500  146.6540 C   0  0  0  0  0  2  0  0  0  0  0  0
  187.5870  176.9770  147.0620 N   0  0  0  0  0  1  0  0  0  0  0  0
  185.0720  176.6500  146.6670 O   0  0  0  0  0  0  0  0  0  0  0  0
  185.9900  177.5550  147.4730 S   0  0  2  0  0  0  0  0  0  0  0  0
  185.9870  178.7120  141.7940 O   0  0  0  0  0  0  0  0  0  0  0  0
  185.6660  177.9330  140.6630 C   0  0  0  0  0  3  0  0  0  0  0  0
  184.6860  178.5920  139.9200 O   0  0  0  0  0  1  0  0  0  0  0  0
  186.8100  177.7840  139.8750 O   0  0  0  0  0  1  0  0  0  0  0  0
  188.5500  173.2670  139.1730 O   0  0  0  0  0  0  0  0  0  0  0  0
  188.2800  173.8050  137.9120 C   0  0  0  0  0  2  0  0  0  0  0  0
  189.9810  172.8280  136.2860 C   0  0  0  0  0  0  0  0  0  0  0  0
  189.5050  173.8950  137.1180 N   0  0  0  0  0  2  0  0  0  0  0  0
  189.2360  171.8370  136.0260 O   0  0  0  0  0  0  0  0  0  0  0  0
  191.3240  172.9080  135.7000 C   0  0  0  0  0  0  0  0  0  0  0  0
  191.6720  173.9400  135.0440 O   0  0  0  0  0  0  0  0  0  0  0  0
  192.3140  171.7930  135.9050 C   0  0  0  0  0  1  0  0  0  0  0  0
  191.9860  172.9720  140.0650 C   0  0  0  0  0  2  0  0  0  0  0  0
  192.4250  174.1030  140.9860 C   0  0  0  0  0  2  0  0  0  0  0  0
  193.5620  173.6510  141.8530 C   0  0  0  0  0  3  0  0  0  0  0  0
  193.4430  172.7440  142.8320 C   0  0  0  0  0  3  0  0  0  0  0  0
  192.1740  172.0210  143.2210 C   0  0  1  0  0  3  0  0  0  0  0  0
  191.7400  169.7490  142.6760 O   0  0  0  0  0  0  0  0  0  0  0  0
  192.3390  170.5320  143.3850 C   0  0  0  0  0  0  0  0  0  0  0  0
  193.0410  168.5580  144.6840 C   0  0  0  0  0  1  0  0  0  0  0  0
  193.3230  170.0090  144.3880 C   0  0  0  0  0  2  0  0  0  0  0  0
  191.4430  172.7080  144.3820 C   0  0  0  0  0  2  0  0  0  0  0  0
  190.8310  174.9720  145.3930 C   0  0  1  0  0  0  0  0  0  0  0  0
  193.0170  176.9690  144.9380 C   0  0  0  0  0  2  0  0  0  0  0  0
  193.3520  175.6300  145.6340 C   0  0  2  0  0  3  0  0  0  0  0  0
  192.2260  174.5790  145.9280 C   0  0  2  0  0  0  0  0  0  0  0  0
  191.4190  178.3390  143.7120 N   0  0  0  0  0  1  0  0  0  0  0  0
  191.7240  176.9800  144.1250 C   0  0  2  0  0  3  0  0  0  0  0  0
  191.7710  174.2050  144.4950 C   0  0  1  0  0  3  0  0  0  0  0  0
  192.6000  175.6950  146.9100 C   0  0  0  0  0  2  0  0  0  0  0  0
  189.6740  174.2330  146.0570 C   0  0  0  0  0  1  0  0  0  0  0  0
  190.5690  176.4210  144.9540 C   0  0  0  0  0  2  0  0  0  0  0  0
  1  5  1  1  0  0  0
  2  3  1  0  0  0  0
  2  1  1  0  0  0  0
  3 30  1  6  0  0  0
  3  1  1  0  0  0  0
  4  6  1  0  0  0  0
  5  4  2  0  0  0  0
  6  7  1  0  0  0  0
  8  7  1  0  0  0  0
 10  8  1  0  0  0  0
 10  9  1  1  0  0  0
 11 10  1  6  0  0  0
 11 13  1  0  0  0  0
 11 12  1  0  0  0  0
 12 14  1  1  0  0  0
 13 12  1  0  0  0  0
 14 17  1  0  0  0  0
 15 17  1  0  0  0  0
 17 16  2  6  0  0  0
 18 10  1  0  0  0  0
 19 18  1  0  0  0  0
 20 19  1  0  0  0  0
 21 19  1  0  0  0  0
 22  2  1  0  0  0  0
 23 22  1  0  0  0  0
 24 25  1  0  0  0  0
 25 23  1  0  0  0  0
 26 24  2  0  0  0  0
 27 29  1  0  0  0  0
 27 24  1  0  0  0  0
 28 27  2  0  0  0  0
 30 31  1  0  0  0  0
 31 32  1  0  0  0  0
 32 33  2  0  0  0  0
 34 33  1  1  0  0  0
 34 36  1  0  0  0  0
 34 39  1  0  0  0  0
 35 36  2  0  0  0  0
 36 38  1  0  0  0  0
 38 37  1  0  0  0  0
 40 43  1  0  0  0  0
 40 48  1  1  0  0  0
 42 41  1  6  0  0  0
 42 43  1  0  0  0  0
 42 47  1  0  0  0  0
 43 47  1  1  0  0  0
 45 44  1  1  0  0  0
 45 41  1  0  0  0  0
 45 49  1  0  0  0  0
 46 39  1  1  0  0  0
 46 40  1  0  0  0  0
 46 43  1  0  0  0  0
 49 40  1  0  0  0  0
M  END
>  <MODEL>
2

>  <REMARK>
 VINA RESULT:      -6.1      3.009      4.989
  Name = 
  22 active torsions:
  status: ('A' for Active; 'I' for Inactive)
    1  A    between atoms: C_1  and  C_15
    2  A    between atoms: C_1  and  C_26
    3  A    between atoms: C_2  and  C_20
    4  A    between atoms: C_2  and  C_38
    5  A    between atoms: C_2  and  C_39
    6  A    between atoms: C_3  and  O_19
    7  A    between atoms: C_3  and  N_46
    8  A    between atoms: C_4  and  C_45
    9  A    between atoms: C_6  and  C_28
   10  A    between atoms: C_6  and  C_34
   11  A    between atoms: C_7  and  C_35
   12  A    between atoms: C_7  and  S_40
   13  A    between atoms: C_9  and  C_25
   14  A    between atoms: C_11  and  C_42
   15  A    between atoms: C_13  and  C_28
   16  A    between atoms: C_15  and  C_31
   17  A    between atoms: N_16  and  O_19
   18  A    between atoms: C_22  and  O_36
   19  A    between atoms: C_26  and  C_45
   20  A    between atoms: C_29  and  C_39
   21  A    between atoms: C_32  and  C_38
   22  A    between atoms: O_36  and  C_45
                            x       y       z     vdW  Elec       q    Type
                         _______ _______ _______ _____ _____    ______ ____

>  <TORSDO>
F 22

$$$$
=
 OpenBabel11062420243D

 49 53  0  0  1  0  0  0  0  0999 V2000
  187.8230  177.2170  141.8240 C   0  0  2  0  0  3  0  0  0  0  0  0
  188.8080  176.1360  141.5530 N   0  0  0  0  0  0  0  0  0  0  0  0
  188.7420  176.7810  142.8800 C   0  0  1  0  0  3  0  0  0  0  0  0
  185.4410  177.5360  142.5510 C   0  0  0  0  0  3  0  0  0  0  0  0
  186.4100  176.7310  142.0790 C   0  0  0  0  0  3  0  0  0  0  0  0
  185.7030  178.9650  142.9360 C   0  0  0  0  0  2  0  0  0  0  0  0
  185.0860  179.2280  144.2930 C   0  0  0  0  0  2  0  0  0  0  0  0
  186.1190  179.0660  145.4050 C   0  0  0  0  0  2  0  0  0  0  0  0
  184.1130  177.8850  146.2740 C   0  0  0  0  0  1  0  0  0  0  0  0
  185.5450  178.2730  146.6140 C   0  0  1  0  0  0  0  0  0  0  0  0
  186.2610  176.9080  146.8010 C   0  0  2  0  0  3  0  0  0  0  0  0
  187.5680  176.7760  146.1200 C   0  0  2  0  0  3  0  0  0  0  0  0
  186.4030  176.2120  145.5790 O   0  0  0  0  0  0  0  0  0  0  0  0
  188.3680  175.7130  146.8440 C   0  0  0  0  0  2  0  0  0  0  0  0
  190.8320  175.1620  148.0550 N   0  0  0  0  0  1  0  0  0  0  0  0
  190.1380  177.5560  147.4400 O   0  0  0  0  0  0  0  0  0  0  0  0
  190.1060  176.1670  146.8230 S   0  0  2  0  0  0  0  0  0  0  0  0
  185.4790  179.0230  147.8280 O   0  0  0  0  0  0  0  0  0  0  0  0
  186.5870  179.8840  147.9640 C   0  0  0  0  0  3  0  0  0  0  0  0
  186.1500  181.1110  148.4640 O   0  0  0  0  0  1  0  0  0  0  0  0
  187.4900  179.3220  148.8690 O   0  0  0  0  0  1  0  0  0  0  0  0
  188.2310  174.9140  141.6840 O   0  0  0  0  0  0  0  0  0  0  0  0
  188.6840  174.1850  140.5820 C   0  0  0  0  0  2  0  0  0  0  0  0
  190.2500  172.1960  140.2930 C   0  0  0  0  0  0  0  0  0  0  0  0
  189.8910  173.4330  140.9240 N   0  0  0  0  0  2  0  0  0  0  0  0
  189.6490  171.8110  139.2470 O   0  0  0  0  0  0  0  0  0  0  0  0
  191.3500  171.3940  140.8420 C   0  0  0  0  0  0  0  0  0  0  0  0
  192.3500  171.9660  141.3790 O   0  0  0  0  0  0  0  0  0  0  0  0
  191.2840  169.8900  140.8160 C   0  0  0  0  0  1  0  0  0  0  0  0
  189.8590  177.8020  142.9870 C   0  0  0  0  0  2  0  0  0  0  0  0
  191.2170  177.1110  143.0060 C   0  0  0  0  0  2  0  0  0  0  0  0
  192.0210  177.5850  144.1810 C   0  0  0  0  0  3  0  0  0  0  0  0
  193.1200  176.9680  144.6340 C   0  0  0  0  0  3  0  0  0  0  0  0
  193.7430  175.7210  144.0480 C   0  0  1  0  0  3  0  0  0  0  0  0
  196.0180  176.3150  143.7050 O   0  0  0  0  0  0  0  0  0  0  0  0
  194.9630  175.9820  143.2030 C   0  0  0  0  0  0  0  0  0  0  0  0
  195.8540  174.6530  141.3270 C   0  0  0  0  0  1  0  0  0  0  0  0
  194.8950  175.7470  141.7240 C   0  0  0  0  0  2  0  0  0  0  0  0
  193.9220  174.6120  145.0930 C   0  0  0  0  0  2  0  0  0  0  0  0
  195.6580  172.7460  144.9390 C   0  0  1  0  0  0  0  0  0  0  0  0
  194.5400  170.3640  143.5080 C   0  0  0  0  0  2  0  0  0  0  0  0
  193.7910  170.9240  144.7390 C   0  0  2  0  0  3  0  0  0  0  0  0
  194.3690  172.1410  145.5390 C   0  0  2  0  0  0  0  0  0  0  0  0
  196.3030  170.6190  141.8460 N   0  0  0  0  0  1  0  0  0  0  0  0
  195.5160  171.3300  142.8390 C   0  0  2  0  0  3  0  0  0  0  0  0
  194.3190  173.2630  144.4720 C   0  0  1  0  0  3  0  0  0  0  0  0
  194.7290  170.6870  145.8630 C   0  0  0  0  0  2  0  0  0  0  0  0
  196.4740  173.5820  145.9200 C   0  0  0  0  0  1  0  0  0  0  0  0
  196.4420  171.9560  143.8790 C   0  0  0  0  0  2  0  0  0  0  0  0
  1  5  1  1  0  0  0
  1  3  1  0  0  0  0
  2 22  1  0  0  0  0
  2  1  1  0  0  0  0
  2  3  1  0  0  0  0
  3 30  1  6  0  0  0
  4  6  1  0  0  0  0
  5  4  2  0  0  0  0
  6  7  1  0  0  0  0
  7  8  1  0  0  0  0
  8 10  1  0  0  0  0
 10  9  1  6  0  0  0
 10 18  1  0  0  0  0
 11 10  1  6  0  0  0
 12 11  1  0  0  0  0
 12 14  1  1  0  0  0
 13 12  1  0  0  0  0
 13 11  1  0  0  0  0
 17 14  1  0  0  0  0
 17 16  2  1  0  0  0
 17 15  1  0  0  0  0
 18 19  1  0  0  0  0
 19 20  1  0  0  0  0
 19 21  1  0  0  0  0
 23 25  1  0  0  0  0
 23 22  1  0  0  0  0
 24 27  1  0  0  0  0
 24 25  1  0  0  0  0
 26 24  2  0  0  0  0
 27 28  2  0  0  0  0
 29 27  1  0  0  0  0
 30 31  1  0  0  0  0
 31 32  1  0  0  0  0
 32 33  2  0  0  0  0
 34 33  1  1  0  0  0
 34 39  1  0  0  0  0
 36 35  2  0  0  0  0
 36 34  1  0  0  0  0
 37 38  1  0  0  0  0
 38 36  1  0  0  0  0
 40 43  1  0  0  0  0
 40 48  1  1  0  0  0
 42 41  1  6  0  0  0
 42 43  1  0  0  0  0
 42 47  1  0  0  0  0
 43 47  1  1  0  0  0
 45 44  1  6  0  0  0
 45 41  1  0  0  0  0
 45 49  1  0  0  0  0
 46 40  1  0  0  0  0
 46 39  1  1  0  0  0
 46 43  1  0  0  0  0
 49 40  1  0  0  0  0
M  END
>  <MODEL>
3

>  <REMARK>
 VINA RESULT:      -6.0      3.171      4.987
  Name = 
  22 active torsions:
  status: ('A' for Active; 'I' for Inactive)
    1  A    between atoms: C_1  and  C_15
    2  A    between atoms: C_1  and  C_26
    3  A    between atoms: C_2  and  C_20
    4  A    between atoms: C_2  and  C_38
    5  A    between atoms: C_2  and  C_39
    6  A    between atoms: C_3  and  O_19
    7  A    between atoms: C_3  and  N_46
    8  A    between atoms: C_4  and  C_45
    9  A    between atoms: C_6  and  C_28
   10  A    between atoms: C_6  and  C_34
   11  A    between atoms: C_7  and  C_35
   12  A    between atoms: C_7  and  S_40
   13  A    between atoms: C_9  and  C_25
   14  A    between atoms: C_11  and  C_42
   15  A    between atoms: C_13  and  C_28
   16  A    between atoms: C_15  and  C_31
   17  A    between atoms: N_16  and  O_19
   18  A    between atoms: C_22  and  O_36
   19  A    between atoms: C_26  and  C_45
   20  A    between atoms: C_29  and  C_39
   21  A    between atoms: C_32  and  C_38
   22  A    between atoms: O_36  and  C_45
                            x       y       z     vdW  Elec       q    Type
                         _______ _______ _______ _____ _____    ______ ____

>  <TORSDO>
F 22

$$$$
=
 OpenBabel11062420243D

 49 53  0  0  1  0  0  0  0  0999 V2000
  191.3390  171.0670  142.3090 C   0  0  2  0  0  3  0  0  0  0  0  0
  191.7390  170.3640  141.0610 N   0  0  0  0  0  0  0  0  0  0  0  0
  191.4930  169.6100  142.3070 C   0  0  1  0  0  3  0  0  0  0  0  0
  189.3540  172.1580  143.3940 C   0  0  0  0  0  3  0  0  0  0  0  0
  189.8790  171.4740  142.3610 C   0  0  0  0  0  3  0  0  0  0  0  0
  190.1580  172.5060  144.6160 C   0  0  0  0  0  2  0  0  0  0  0  0
  190.0610  173.9980  144.8570 C   0  0  0  0  0  2  0  0  0  0  0  0
  188.9650  174.6210  143.9980 C   0  0  0  0  0  2  0  0  0  0  0  0
  190.6610  175.5610  142.4450 C   0  0  0  0  0  1  0  0  0  0  0  0
  189.4510  175.9210  143.2960 C   0  0  1  0  0  0  0  0  0  0  0  0
  188.4160  176.4410  142.2620 C   0  0  2  0  0  3  0  0  0  0  0  0
  187.0040  176.3970  142.6990 C   0  0  2  0  0  3  0  0  0  0  0  0
  187.5320  175.4230  141.8390 O   0  0  0  0  0  0  0  0  0  0  0  0
  186.2340  177.4280  141.8990 C   0  0  0  0  0  2  0  0  0  0  0  0
  186.2950  178.2910  144.5630 N   0  0  0  0  0  1  0  0  0  0  0  0
  184.1150  178.2520  143.2080 O   0  0  0  0  0  0  0  0  0  0  0  0
  185.5660  178.6640  143.0190 S   0  0  2  0  0  0  0  0  0  0  0  0
  189.8840  176.9440  144.1940 O   0  0  0  0  0  0  0  0  0  0  0  0
  191.2330  177.2900  143.9720 C   0  0  0  0  0  3  0  0  0  0  0  0
  191.3130  178.6550  143.6960 O   0  0  0  0  0  1  0  0  0  0  0  0
  191.9670  177.0170  145.1280 O   0  0  0  0  0  1  0  0  0  0  0  0
  190.6630  170.1550  140.2590 O   0  0  0  0  0  0  0  0  0  0  0  0
  191.1870  170.1110  138.9640 C   0  0  0  0  0  2  0  0  0  0  0  0
  190.5410  172.3650  137.9680 C   0  0  0  0  0  0  0  0  0  0  0  0
  191.5170  171.4570  138.4970 N   0  0  0  0  0  2  0  0  0  0  0  0
  189.3040  172.1210  138.0910 O   0  0  0  0  0  0  0  0  0  0  0  0
  190.9810  173.6050  137.3170 C   0  0  0  0  0  0  0  0  0  0  0  0
  190.2220  174.1910  136.4830 O   0  0  0  0  0  0  0  0  0  0  0  0
  192.3130  174.2160  137.6630 C   0  0  0  0  0  1  0  0  0  0  0  0
  192.8250  169.2720  142.9500 C   0  0  0  0  0  2  0  0  0  0  0  0
  193.5240  170.5360  143.4320 C   0  0  0  0  0  2  0  0  0  0  0  0
  194.9380  170.5660  142.9340 C   0  0  0  0  0  3  0  0  0  0  0  0
  196.0060  170.7600  143.7200 C   0  0  0  0  0  3  0  0  0  0  0  0
  195.9790  170.9650  145.2170 C   0  0  1  0  0  3  0  0  0  0  0  0
  197.9400  169.7160  145.7060 O   0  0  0  0  0  0  0  0  0  0  0  0
  196.7830  169.9520  145.9910 C   0  0  0  0  0  0  0  0  0  0  0  0
  194.7530  168.8680  146.8740 C   0  0  0  0  0  1  0  0  0  0  0  0
  196.1690  169.2840  147.1830 C   0  0  0  0  0  2  0  0  0  0  0  0
  196.2490  172.4230  145.6120 C   0  0  0  0  0  2  0  0  0  0  0  0
  194.5120  174.0020  144.6050 C   0  0  1  0  0  0  0  0  0  0  0  0
  195.7430  175.7360  142.4960 C   0  0  0  0  0  2  0  0  0  0  0  0
  196.3630  175.7160  143.9110 C   0  0  2  0  0  3  0  0  0  0  0  0
  195.7210  174.8540  145.0530 C   0  0  2  0  0  0  0  0  0  0  0  0
  194.1710  174.7870  140.8950 N   0  0  0  0  0  1  0  0  0  0  0  0
  194.8570  174.5400  142.1510 C   0  0  2  0  0  3  0  0  0  0  0  0
  195.9000  173.4200  144.4950 C   0  0  1  0  0  3  0  0  0  0  0  0
  195.3070  176.3030  144.7710 C   0  0  0  0  0  2  0  0  0  0  0  0
  193.6090  173.5480  145.7480 C   0  0  0  0  0  1  0  0  0  0  0  0
  193.8340  174.2970  143.2580 C   0  0  0  0  0  2  0  0  0  0  0  0
  1  5  1  6  0  0  0
  2  3  1  0  0  0  0
  2  1  1  0  0  0  0
  3  1  1  0  0  0  0
  3 30  1  1  0  0  0
  4  6  1  0  0  0  0
  5  4  2  0  0  0  0
  6  7  1  0  0  0  0
  8  7  1  0  0  0  0
 10  9  1  6  0  0  0
 10  8  1  0  0  0  0
 10 18  1  0  0  0  0
 11 12  1  0  0  0  0
 11 10  1  1  0  0  0
 12 14  1  6  0  0  0
 13 11  1  0  0  0  0
 13 12  1  0  0  0  0
 14 17  1  0  0  0  0
 17 16  2  1  0  0  0
 17 15  1  0  0  0  0
 19 18  1  0  0  0  0
 19 21  1  0  0  0  0
 20 19  1  0  0  0  0
 22  2  1  0  0  0  0
 23 22  1  0  0  0  0
 24 26  2  0  0  0  0
 24 25  1  0  0  0  0
 25 23  1  0  0  0  0
 27 29  1  0  0  0  0
 27 24  1  0  0  0  0
 28 27  2  0  0  0  0
 30 31  1  0  0  0  0
 32 31  1  0  0  0  0
 32 33  2  0  0  0  0
 34 33  1  6  0  0  0
 34 39  1  0  0  0  0
 34 36  1  0  0  0  0
 35 36  2  0  0  0  0
 36 38  1  0  0  0  0
 37 38  1  0  0  0  0
 40 43  1  0  0  0  0
 40 48  1  1  0  0  0
 42 41  1  6  0  0  0
 42 47  1  0  0  0  0
 42 43  1  0  0  0  0
 43 47  1  1  0  0  0
 45 44  1  6  0  0  0
 45 41  1  0  0  0  0
 45 49  1  0  0  0  0
 46 40  1  0  0  0  0
 46 43  1  0  0  0  0
 46 39  1  1  0  0  0
 49 40  1  0  0  0  0
M  END
>  <MODEL>
4

>  <REMARK>
 VINA RESULT:      -5.9      2.763      5.397
  Name = 
  22 active torsions:
  status: ('A' for Active; 'I' for Inactive)
    1  A    between atoms: C_1  and  C_15
    2  A    between atoms: C_1  and  C_26
    3  A    between atoms: C_2  and  C_20
    4  A    between atoms: C_2  and  C_38
    5  A    between atoms: C_2  and  C_39
    6  A    between atoms: C_3  and  O_19
    7  A    between atoms: C_3  and  N_46
    8  A    between atoms: C_4  and  C_45
    9  A    between atoms: C_6  and  C_28
   10  A    between atoms: C_6  and  C_34
   11  A    between atoms: C_7  and  C_35
   12  A    between atoms: C_7  and  S_40
   13  A    between atoms: C_9  and  C_25
   14  A    between atoms: C_11  and  C_42
   15  A    between atoms: C_13  and  C_28
   16  A    between atoms: C_15  and  C_31
   17  A    between atoms: N_16  and  O_19
   18  A    between atoms: C_22  and  O_36
   19  A    between atoms: C_26  and  C_45
   20  A    between atoms: C_29  and  C_39
   21  A    between atoms: C_32  and  C_38
   22  A    between atoms: O_36  and  C_45
                            x       y       z     vdW  Elec       q    Type
                         _______ _______ _______ _____ _____    ______ ____

>  <TORSDO>
F 22

$$$$
=
 OpenBabel11062420243D

 49 53  0  0  1  0  0  0  0  0999 V2000
  189.9300  173.9670  142.6460 C   0  0  2  0  0  3  0  0  0  0  0  0
  188.9580  174.9670  142.1300 N   0  0  0  0  0  0  0  0  0  0  0  0
  188.9710  173.5870  141.6050 C   0  0  1  0  0  3  0  0  0  0  0  0
  190.4730  172.8000  144.8030 C   0  0  0  0  0  3  0  0  0  0  0  0
  189.5630  173.3670  143.9890 C   0  0  0  0  0  3  0  0  0  0  0  0
  191.9150  172.6500  144.4090 C   0  0  0  0  0  2  0  0  0  0  0  0
  192.7340  173.6950  145.1390 C   0  0  0  0  0  2  0  0  0  0  0  0
  193.2410  174.7630  144.1740 C   0  0  0  0  0  2  0  0  0  0  0  0
  193.5920  175.7690  146.4190 C   0  0  0  0  0  1  0  0  0  0  0  0
  193.7170  176.0390  144.9260 C   0  0  1  0  0  0  0  0  0  0  0  0
  195.2350  176.2960  144.7250 C   0  0  2  0  0  3  0  0  0  0  0  0
  195.9020  175.4220  143.7350 C   0  0  2  0  0  3  0  0  0  0  0  0
  196.0170  175.1840  145.1130 O   0  0  0  0  0  0  0  0  0  0  0  0
  197.1360  176.1420  143.2310 C   0  0  0  0  0  2  0  0  0  0  0  0
  196.1840  175.9100  140.6080 N   0  0  0  0  0  1  0  0  0  0  0  0
  197.4650  174.0020  141.7510 O   0  0  0  0  0  0  0  0  0  0  0  0
  197.5630  175.5120  141.6040 S   0  0  2  0  0  0  0  0  0  0  0  0
  192.9290  177.2010  144.6630 O   0  0  0  0  0  0  0  0  0  0  0  0
  191.7210  176.8710  144.0150 C   0  0  0  0  0  3  0  0  0  0  0  0
  190.6670  177.0150  144.9170 O   0  0  0  0  0  1  0  0  0  0  0  0
  191.5270  177.7470  142.9450 O   0  0  0  0  0  1  0  0  0  0  0  0
  187.8810  175.0610  142.9530 O   0  0  0  0  0  0  0  0  0  0  0  0
  187.0350  175.9810  142.3290 C   0  0  0  0  0  2  0  0  0  0  0  0
  186.4920  177.5590  144.2540 C   0  0  0  0  0  0  0  0  0  0  0  0
  186.1050  176.5640  143.2960 N   0  0  0  0  0  2  0  0  0  0  0  0
  187.6110  178.1430  144.1560 O   0  0  0  0  0  0  0  0  0  0  0  0
  185.5650  177.9290  145.3290 C   0  0  0  0  0  0  0  0  0  0  0  0
  185.1040  179.1120  145.3940 O   0  0  0  0  0  0  0  0  0  0  0  0
  185.1180  176.9040  146.3370 C   0  0  0  0  0  1  0  0  0  0  0  0
  189.6960  173.5730  140.2730 C   0  0  0  0  0  2  0  0  0  0  0  0
  191.2010  173.6950  140.4800 C   0  0  0  0  0  2  0  0  0  0  0  0
  191.9300  172.8990  139.4390 C   0  0  0  0  0  3  0  0  0  0  0  0
  192.5900  171.7610  139.6930 C   0  0  0  0  0  3  0  0  0  0  0  0
  192.7040  171.0830  141.0390 C   0  0  1  0  0  3  0  0  0  0  0  0
  190.6220  170.4310  141.9810 O   0  0  0  0  0  0  0  0  0  0  0  0
  191.5940  170.1050  141.3310 C   0  0  0  0  0  0  0  0  0  0  0  0
  190.6330  168.5910  139.6400 C   0  0  0  0  0  1  0  0  0  0  0  0
  191.6550  168.7290  140.7400 C   0  0  0  0  0  2  0  0  0  0  0  0
  194.1130  170.5380  141.3010 C   0  0  0  0  0  2  0  0  0  0  0  0
  195.5780  169.5060  143.1220 C   0  0  1  0  0  0  0  0  0  0  0  0
  195.2540  170.9750  145.7110 C   0  0  0  0  0  2  0  0  0  0  0  0
  195.6550  171.7620  144.4430 C   0  0  2  0  0  3  0  0  0  0  0  0
  195.8760  171.0210  143.0800 C   0  0  2  0  0  0  0  0  0  0  0  0
  194.4800  168.8950  146.7170 N   0  0  0  0  0  1  0  0  0  0  0  0
  194.6040  169.6150  145.4610 C   0  0  2  0  0  3  0  0  0  0  0  0
  194.4580  170.4640  142.7970 C   0  0  1  0  0  3  0  0  0  0  0  0
  196.9970  171.2300  144.1040 C   0  0  0  0  0  2  0  0  0  0  0  0
  196.2200  168.7090  141.9900 C   0  0  0  0  0  1  0  0  0  0  0  0
  195.4400  168.7980  144.4780 C   0  0  0  0  0  2  0  0  0  0  0  0
  1  5  1  1  0  0  0
  2  1  1  0  0  0  0
  2 22  1  0  0  0  0
  3 30  1  6  0  0  0
  3  2  1  0  0  0  0
  3  1  1  0  0  0  0
  5  4  2  0  0  0  0
  6  4  1  0  0  0  0
  6  7  1  0  0  0  0
  8 10  1  0  0  0  0
  8  7  1  0  0  0  0
 10  9  1  1  0  0  0
 11 10  1  6  0  0  0
 11 13  1  0  0  0  0
 12 14  1  1  0  0  0
 12 11  1  0  0  0  0
 12 13  1  0  0  0  0
 17 15  1  6  0  0  0
 17 16  2  0  0  0  0
 17 14  1  0  0  0  0
 18 10  1  0  0  0  0
 19 18  1  0  0  0  0
 19 20  1  0  0  0  0
 21 19  1  0  0  0  0
 23 22  1  0  0  0  0
 23 25  1  0  0  0  0
 24 27  1  0  0  0  0
 25 24  1  0  0  0  0
 26 24  2  0  0  0  0
 27 28  2  0  0  0  0
 27 29  1  0  0  0  0
 30 31  1  0  0  0  0
 32 33  2  0  0  0  0
 32 31  1  0  0  0  0
 34 33  1  6  0  0  0
 34 39  1  0  0  0  0
 34 36  1  0  0  0  0
 36 35  2  0  0  0  0
 37 38  1  0  0  0  0
 38 36  1  0  0  0  0
 40 48  1  6  0  0  0
 40 49  1  0  0  0  0
 42 47  1  1  0  0  0
 42 41  1  0  0  0  0
 43 40  1  0  0  0  0
 43 47  1  6  0  0  0
 43 42  1  0  0  0  0
 45 41  1  0  0  0  0
 45 44  1  1  0  0  0
 46 39  1  6  0  0  0
 46 43  1  0  0  0  0
 46 40  1  0  0  0  0
 49 45  1  0  0  0  0
M  END
>  <MODEL>
5

>  <REMARK>
 VINA RESULT:      -5.9      3.921      8.912
  Name = 
  22 active torsions:
  status: ('A' for Active; 'I' for Inactive)
    1  A    between atoms: C_1  and  C_15
    2  A    between atoms: C_1  and  C_26
    3  A    between atoms: C_2  and  C_20
    4  A    between atoms: C_2  and  C_38
    5  A    between atoms: C_2  and  C_39
    6  A    between atoms: C_3  and  O_19
    7  A    between atoms: C_3  and  N_46
    8  A    between atoms: C_4  and  C_45
    9  A    between atoms: C_6  and  C_28
   10  A    between atoms: C_6  and  C_34
   11  A    between atoms: C_7  and  C_35
   12  A    between atoms: C_7  and  S_40
   13  A    between atoms: C_9  and  C_25
   14  A    between atoms: C_11  and  C_42
   15  A    between atoms: C_13  and  C_28
   16  A    between atoms: C_15  and  C_31
   17  A    between atoms: N_16  and  O_19
   18  A    between atoms: C_22  and  O_36
   19  A    between atoms: C_26  and  C_45
   20  A    between atoms: C_29  and  C_39
   21  A    between atoms: C_32  and  C_38
   22  A    between atoms: O_36  and  C_45
                            x       y       z     vdW  Elec       q    Type
                         _______ _______ _______ _____ _____    ______ ____

>  <TORSDO>
F 22

$$$$
=
 OpenBabel11062420243D

 49 53  0  0  1  0  0  0  0  0999 V2000
  191.3290  171.6190  142.2450 C   0  0  2  0  0  3  0  0  0  0  0  0
  191.2310  171.7980  140.7720 N   0  0  0  0  0  0  0  0  0  0  0  0
  191.3820  170.4520  141.3600 C   0  0  1  0  0  3  0  0  0  0  0  0
  189.6810  172.7400  143.7710 C   0  0  0  0  0  3  0  0  0  0  0  0
  190.0060  171.7020  142.9790 C   0  0  0  0  0  3  0  0  0  0  0  0
  190.6380  173.8640  144.0510 C   0  0  0  0  0  2  0  0  0  0  0  0
  190.3120  175.0260  143.1360 C   0  0  0  0  0  2  0  0  0  0  0  0
  189.0700  175.7700  143.6180 C   0  0  0  0  0  2  0  0  0  0  0  0
  190.5960  177.5810  142.8650 C   0  0  0  0  0  1  0  0  0  0  0  0
  189.2470  177.3130  143.5160 C   0  0  1  0  0  0  0  0  0  0  0  0
  188.2300  177.9470  142.5290 C   0  0  2  0  0  3  0  0  0  0  0  0
  186.9220  177.2610  142.4350 C   0  0  2  0  0  3  0  0  0  0  0  0
  187.9140  177.0750  141.4610 O   0  0  0  0  0  0  0  0  0  0  0  0
  185.9010  178.2670  141.9460 C   0  0  0  0  0  2  0  0  0  0  0  0
  185.4620  180.0050  144.0980 N   0  0  0  0  0  1  0  0  0  0  0  0
  184.9450  177.4960  144.2640 O   0  0  0  0  0  0  0  0  0  0  0  0
  184.7520  178.6350  143.2770 S   0  0  2  0  0  0  0  0  0  0  0  0
  189.2710  177.9830  144.7760 O   0  0  0  0  0  0  0  0  0  0  0  0
  188.7840  177.1580  145.8110 C   0  0  0  0  0  3  0  0  0  0  0  0
  189.7080  177.1470  146.8570 O   0  0  0  0  0  1  0  0  0  0  0  0
  187.5760  177.6800  146.2780 O   0  0  0  0  0  1  0  0  0  0  0  0
  189.9340  171.9110  140.3860 O   0  0  0  0  0  0  0  0  0  0  0  0
  189.9160  171.4710  139.0600 C   0  0  0  0  0  2  0  0  0  0  0  0
  189.3810  173.4590  137.5580 C   0  0  0  0  0  0  0  0  0  0  0  0
  190.3150  172.5490  138.1550 N   0  0  0  0  0  2  0  0  0  0  0  0
  188.1830  173.5090  137.9670 O   0  0  0  0  0  0  0  0  0  0  0  0
  189.8290  174.3650  136.4940 C   0  0  0  0  0  0  0  0  0  0  0  0
  191.0450  174.7330  136.4410 O   0  0  0  0  0  0  0  0  0  0  0  0
  188.8680  174.8310  135.4340 C   0  0  0  0  0  1  0  0  0  0  0  0
  192.8310  170.0180  141.2310 C   0  0  0  0  0  2  0  0  0  0  0  0
  193.2800  169.2720  142.4800 C   0  0  0  0  0  2  0  0  0  0  0  0
  194.7640  169.0520  142.4440 C   0  0  0  0  0  3  0  0  0  0  0  0
  195.6470  169.7900  143.1300 C   0  0  0  0  0  3  0  0  0  0  0  0
  195.3150  170.9400  144.0520 C   0  0  1  0  0  3  0  0  0  0  0  0
  194.4960  170.4180  146.2210 O   0  0  0  0  0  0  0  0  0  0  0  0
  195.4650  170.6170  145.5170 C   0  0  0  0  0  0  0  0  0  0  0  0
  197.0200  169.0630  146.6310 C   0  0  0  0  0  1  0  0  0  0  0  0
  196.8380  170.4610  146.0970 C   0  0  0  0  0  2  0  0  0  0  0  0
  195.9900  172.2480  143.6210 C   0  0  0  0  0  2  0  0  0  0  0  0
  196.0320  174.4040  144.9900 C   0  0  1  0  0  0  0  0  0  0  0  0
  193.6500  176.1100  144.3670 C   0  0  0  0  0  2  0  0  0  0  0  0
  194.5700  175.6490  143.2130 C   0  0  2  0  0  3  0  0  0  0  0  0
  195.8500  174.7920  143.5060 C   0  0  2  0  0  0  0  0  0  0  0  0
  193.0070  175.9510  146.7120 N   0  0  0  0  0  1  0  0  0  0  0  0
  193.7490  175.2890  145.6520 C   0  0  2  0  0  3  0  0  0  0  0  0
  195.2280  173.4980  144.0890 C   0  0  1  0  0  3  0  0  0  0  0  0
  195.8590  176.3250  143.4960 C   0  0  0  0  0  2  0  0  0  0  0  0
  197.4560  174.0020  145.3620 C   0  0  0  0  0  1  0  0  0  0  0  0
  195.2090  175.1250  146.0690 C   0  0  0  0  0  2  0  0  0  0  0  0
  1  5  1  1  0  0  0
  2  3  1  0  0  0  0
  2  1  1  0  0  0  0
  3 30  1  6  0  0  0
  3  1  1  0  0  0  0
  4  6  1  0  0  0  0
  5  4  2  0  0  0  0
  7  8  1  0  0  0  0
  7  6  1  0  0  0  0
 10  9  1  6  0  0  0
 10  8  1  0  0  0  0
 10 18  1  0  0  0  0
 11 10  1  1  0  0  0
 12 14  1  6  0  0  0
 12 11  1  0  0  0  0
 13 12  1  0  0  0  0
 13 11  1  0  0  0  0
 14 17  1  0  0  0  0
 17 15  1  1  0  0  0
 17 16  2  0  0  0  0
 18 19  1  0  0  0  0
 19 21  1  0  0  0  0
 19 20  1  0  0  0  0
 22  2  1  0  0  0  0
 23 22  1  0  0  0  0
 24 26  2  0  0  0  0
 24 25  1  0  0  0  0
 25 23  1  0  0  0  0
 27 24  1  0  0  0  0
 28 27  2  0  0  0  0
 29 27  1  0  0  0  0
 30 31  1  0  0  0  0
 32 31  1  0  0  0  0
 32 33  2  0  0  0  0
 34 33  1  6  0  0  0
 34 36  1  0  0  0  0
 36 38  1  0  0  0  0
 36 35  2  0  0  0  0
 38 37  1  0  0  0  0
 39 34  1  0  0  0  0
 40 48  1  1  0  0  0
 40 49  1  0  0  0  0
 41 45  1  0  0  0  0
 42 47  1  1  0  0  0
 42 43  1  0  0  0  0
 42 41  1  0  0  0  0
 43 47  1  6  0  0  0
 43 46  1  0  0  0  0
 43 40  1  0  0  0  0
 45 49  1  0  0  0  0
 45 44  1  1  0  0  0
 46 39  1  6  0  0  0
 46 40  1  0  0  0  0
M  END
>  <MODEL>
6

>  <REMARK>
 VINA RESULT:      -5.9      2.752      5.174
  Name = 
  22 active torsions:
  status: ('A' for Active; 'I' for Inactive)
    1  A    between atoms: C_1  and  C_15
    2  A    between atoms: C_1  and  C_26
    3  A    between atoms: C_2  and  C_20
    4  A    between atoms: C_2  and  C_38
    5  A    between atoms: C_2  and  C_39
    6  A    between atoms: C_3  and  O_19
    7  A    between atoms: C_3  and  N_46
    8  A    between atoms: C_4  and  C_45
    9  A    between atoms: C_6  and  C_28
   10  A    between atoms: C_6  and  C_34
   11  A    between atoms: C_7  and  C_35
   12  A    between atoms: C_7  and  S_40
   13  A    between atoms: C_9  and  C_25
   14  A    between atoms: C_11  and  C_42
   15  A    between atoms: C_13  and  C_28
   16  A    between atoms: C_15  and  C_31
   17  A    between atoms: N_16  and  O_19
   18  A    between atoms: C_22  and  O_36
   19  A    between atoms: C_26  and  C_45
   20  A    between atoms: C_29  and  C_39
   21  A    between atoms: C_32  and  C_38
   22  A    between atoms: O_36  and  C_45
                            x       y       z     vdW  Elec       q    Type
                         _______ _______ _______ _____ _____    ______ ____

>  <TORSDO>
F 22

$$$$
=
 OpenBabel11062420243D

 49 53  0  0  1  0  0  0  0  0999 V2000
  188.8370  174.9300  142.9420 C   0  0  2  0  0  3  0  0  0  0  0  0
  187.7950  175.9140  143.3380 N   0  0  0  0  0  0  0  0  0  0  0  0
  188.7640  176.2300  142.2690 C   0  0  1  0  0  3  0  0  0  0  0  0
  189.1610  172.8900  141.5140 C   0  0  0  0  0  3  0  0  0  0  0  0
  188.3390  173.8110  142.0490 C   0  0  0  0  0  3  0  0  0  0  0  0
  190.6520  172.9440  141.6980 C   0  0  0  0  0  2  0  0  0  0  0  0
  191.2660  173.6590  140.5130 C   0  0  0  0  0  2  0  0  0  0  0  0
  192.1510  172.7160  139.7030 C   0  0  0  0  0  2  0  0  0  0  0  0
  190.5570  173.6200  138.0250 C   0  0  0  0  0  1  0  0  0  0  0  0
  191.7900  172.7440  138.1900 C   0  0  1  0  0  0  0  0  0  0  0  0
  192.8750  173.4730  137.3510 C   0  0  2  0  0  3  0  0  0  0  0  0
  194.0610  173.9320  138.1060 C   0  0  2  0  0  3  0  0  0  0  0  0
  193.0350  174.8200  137.7490 O   0  0  0  0  0  0  0  0  0  0  0  0
  195.2150  174.0590  137.1330 C   0  0  0  0  0  2  0  0  0  0  0  0
  197.3440  175.7570  136.4800 N   0  0  0  0  0  1  0  0  0  0  0  0
  197.4760  174.1320  138.4620 O   0  0  0  0  0  0  0  0  0  0  0  0
  196.4820  175.1090  137.8550 S   0  0  2  0  0  0  0  0  0  0  0  0
  191.4500  171.4680  137.6460 O   0  0  0  0  0  0  0  0  0  0  0  0
  192.0680  171.2580  136.3950 C   0  0  0  0  0  3  0  0  0  0  0  0
  192.8410  170.0980  136.4600 O   0  0  0  0  0  1  0  0  0  0  0  0
  191.0790  171.0910  135.4230 O   0  0  0  0  0  1  0  0  0  0  0  0
  186.6150  175.6390  142.7250 O   0  0  0  0  0  0  0  0  0  0  0  0
  185.7530  176.6590  143.1360 C   0  0  0  0  0  2  0  0  0  0  0  0
  185.1710  177.9130  145.2760 C   0  0  0  0  0  0  0  0  0  0  0  0
  185.8190  176.8360  144.5860 N   0  0  0  0  0  2  0  0  0  0  0  0
  184.3210  178.6380  144.6790 O   0  0  0  0  0  0  0  0  0  0  0  0
  185.4670  178.1490  146.6940 C   0  0  0  0  0  0  0  0  0  0  0  0
  184.5330  178.4760  147.4940 O   0  0  0  0  0  0  0  0  0  0  0  0
  186.8630  177.9640  147.2230 C   0  0  0  0  0  1  0  0  0  0  0  0
  189.8520  177.1210  142.8390 C   0  0  0  0  0  2  0  0  0  0  0  0
  191.1230  176.3210  143.0930 C   0  0  0  0  0  2  0  0  0  0  0  0
  192.2000  177.2190  143.6250 C   0  0  0  0  0  3  0  0  0  0  0  0
  192.7690  177.0740  144.8300 C   0  0  0  0  0  3  0  0  0  0  0  0
  192.4460  175.9960  145.8390 C   0  0  1  0  0  3  0  0  0  0  0  0
  190.4090  176.9920  146.5510 O   0  0  0  0  0  0  0  0  0  0  0  0
  191.0010  175.9690  146.2690 C   0  0  0  0  0  0  0  0  0  0  0  0
  189.0520  174.7580  147.1690 C   0  0  0  0  0  1  0  0  0  0  0  0
  190.2600  174.6670  146.2720 C   0  0  0  0  0  2  0  0  0  0  0  0
  193.0100  174.6280  145.4350 C   0  0  0  0  0  2  0  0  0  0  0  0
  195.3910  174.5960  144.5100 C   0  0  1  0  0  0  0  0  0  0  0  0
  195.3740  174.3050  141.5290 C   0  0  0  0  0  2  0  0  0  0  0  0
  194.6300  173.2610  142.3930 C   0  0  2  0  0  3  0  0  0  0  0  0
  194.6540  173.3550  143.9570 C   0  0  2  0  0  0  0  0  0  0  0  0
  196.5390  176.4390  141.3820 N   0  0  0  0  0  1  0  0  0  0  0  0
  195.6570  175.6410  142.2140 C   0  0  2  0  0  3  0  0  0  0  0  0
  193.9180  174.6980  144.1970 C   0  0  1  0  0  3  0  0  0  0  0  0
  195.7130  172.5930  143.1540 C   0  0  0  0  0  2  0  0  0  0  0  0
  195.8300  174.4660  145.9660 C   0  0  0  0  0  1  0  0  0  0  0  0
  196.3010  175.4140  143.5800 C   0  0  0  0  0  2  0  0  0  0  0  0
  1  5  1  6  0  0  0
  1  2  1  0  0  0  0
  3 30  1  1  0  0  0
  3  1  1  0  0  0  0
  3  2  1  0  0  0  0
  4  6  1  0  0  0  0
  4  5  2  0  0  0  0
  7  6  1  0  0  0  0
  8  7  1  0  0  0  0
 10  9  1  6  0  0  0
 10  8  1  0  0  0  0
 11 13  1  0  0  0  0
 11 12  1  0  0  0  0
 11 10  1  1  0  0  0
 12 14  1  6  0  0  0
 13 12  1  0  0  0  0
 14 17  1  0  0  0  0
 17 15  1  6  0  0  0
 17 16  2  0  0  0  0
 18 10  1  0  0  0  0
 19 20  1  0  0  0  0
 19 18  1  0  0  0  0
 21 19  1  0  0  0  0
 22 23  1  0  0  0  0
 22  2  1  0  0  0  0
 23 25  1  0  0  0  0
 24 27  1  0  0  0  0
 25 24  1  0  0  0  0
 26 24  2  0  0  0  0
 27 29  1  0  0  0  0
 27 28  2  0  0  0  0
 30 31  1  0  0  0  0
 31 32  1  0  0  0  0
 32 33  2  0  0  0  0
 34 33  1  6  0  0  0
 34 36  1  0  0  0  0
 36 38  1  0  0  0  0
 36 35  2  0  0  0  0
 38 37  1  0  0  0  0
 39 34  1  0  0  0  0
 40 48  1  1  0  0  0
 41 45  1  0  0  0  0
 42 41  1  6  0  0  0
 42 47  1  0  0  0  0
 42 43  1  0  0  0  0
 43 47  1  1  0  0  0
 43 46  1  0  0  0  0
 43 40  1  0  0  0  0
 45 44  1  6  0  0  0
 45 49  1  0  0  0  0
 46 40  1  0  0  0  0
 46 39  1  1  0  0  0
 49 40  1  0  0  0  0
M  END
>  <MODEL>
7

>  <REMARK>
 VINA RESULT:      -5.8      3.564      8.757
  Name = 
  22 active torsions:
  status: ('A' for Active; 'I' for Inactive)
    1  A    between atoms: C_1  and  C_15
    2  A    between atoms: C_1  and  C_26
    3  A    between atoms: C_2  and  C_20
    4  A    between atoms: C_2  and  C_38
    5  A    between atoms: C_2  and  C_39
    6  A    between atoms: C_3  and  O_19
    7  A    between atoms: C_3  and  N_46
    8  A    between atoms: C_4  and  C_45
    9  A    between atoms: C_6  and  C_28
   10  A    between atoms: C_6  and  C_34
   11  A    between atoms: C_7  and  C_35
   12  A    between atoms: C_7  and  S_40
   13  A    between atoms: C_9  and  C_25
   14  A    between atoms: C_11  and  C_42
   15  A    between atoms: C_13  and  C_28
   16  A    between atoms: C_15  and  C_31
   17  A    between atoms: N_16  and  O_19
   18  A    between atoms: C_22  and  O_36
   19  A    between atoms: C_26  and  C_45
   20  A    between atoms: C_29  and  C_39
   21  A    between atoms: C_32  and  C_38
   22  A    between atoms: O_36  and  C_45
                            x       y       z     vdW  Elec       q    Type
                         _______ _______ _______ _____ _____    ______ ____

>  <TORSDO>
F 22

$$$$
=
 OpenBabel11062420243D

 49 53  0  0  1  0  0  0  0  0999 V2000
  191.5710  171.7520  141.1220 C   0  0  2  0  0  3  0  0  0  0  0  0
  191.6480  170.8830  139.9170 N   0  0  0  0  0  0  0  0  0  0  0  0
  192.5320  170.6470  141.0760 C   0  0  1  0  0  3  0  0  0  0  0  0
  189.3620  172.2740  142.1960 C   0  0  0  0  0  3  0  0  0  0  0  0
  190.4100  171.4440  142.0470 C   0  0  0  0  0  3  0  0  0  0  0  0
  189.2960  173.6110  141.5130 C   0  0  0  0  0  2  0  0  0  0  0  0
  188.4270  174.5390  142.3370 C   0  0  0  0  0  2  0  0  0  0  0  0
  188.7940  175.9990  142.0850 C   0  0  0  0  0  2  0  0  0  0  0  0
  186.3720  176.1060  142.6270 C   0  0  0  0  0  1  0  0  0  0  0  0
  187.6180  176.9570  142.4300 C   0  0  1  0  0  0  0  0  0  0  0  0
  187.8170  177.6420  143.8090 C   0  0  2  0  0  3  0  0  0  0  0  0
  186.7510  177.3910  144.8040 C   0  0  2  0  0  3  0  0  0  0  0  0
  186.8050  178.5910  144.0800 O   0  0  0  0  0  0  0  0  0  0  0  0
  187.3410  177.5930  146.1840 C   0  0  0  0  0  2  0  0  0  0  0  0
  184.5960  177.1310  146.4880 N   0  0  0  0  0  1  0  0  0  0  0  0
  185.7820  179.0540  147.7060 O   0  0  0  0  0  0  0  0  0  0  0  0
  186.0180  177.5850  147.3990 S   0  0  2  0  0  0  0  0  0  0  0  0
  187.3040  177.8930  141.3990 O   0  0  0  0  0  0  0  0  0  0  0  0
  186.1780  177.4840  140.6540 C   0  0  0  0  0  3  0  0  0  0  0  0
  185.2380  178.5150  140.6480 O   0  0  0  0  0  1  0  0  0  0  0  0
  186.5730  177.2220  139.3410 O   0  0  0  0  0  1  0  0  0  0  0  0
  190.6900  169.9210  139.9550 O   0  0  0  0  0  0  0  0  0  0  0  0
  190.2270  169.8280  138.6400 C   0  0  0  0  0  2  0  0  0  0  0  0
  189.9020  171.5960  136.8360 C   0  0  0  0  0  0  0  0  0  0  0  0
  189.7260  171.1220  138.1780 N   0  0  0  0  0  2  0  0  0  0  0  0
  190.3050  170.8130  135.9260 O   0  0  0  0  0  0  0  0  0  0  0  0
  189.5710  172.9880  136.5100 C   0  0  0  0  0  0  0  0  0  0  0  0
  189.1320  173.7680  137.4130 O   0  0  0  0  0  0  0  0  0  0  0  0
  189.7890  173.5180  135.1180 C   0  0  0  0  0  1  0  0  0  0  0  0
  193.9030  171.2230  140.7750 C   0  0  0  0  0  2  0  0  0  0  0  0
  194.0790  172.5750  141.4540 C   0  0  0  0  0  2  0  0  0  0  0  0
  195.4570  172.6830  142.0370 C   0  0  0  0  0  3  0  0  0  0  0  0
  195.7490  172.4370  143.3210 C   0  0  0  0  0  3  0  0  0  0  0  0
  194.7670  172.0020  144.3850 C   0  0  1  0  0  3  0  0  0  0  0  0
  194.7310  169.6590  143.9900 O   0  0  0  0  0  0  0  0  0  0  0  0
  194.9010  170.5560  144.7910 C   0  0  0  0  0  0  0  0  0  0  0  0
  196.8260  170.0500  146.2450 C   0  0  0  0  0  1  0  0  0  0  0  0
  195.3300  170.2220  146.1880 C   0  0  0  0  0  2  0  0  0  0  0  0
  194.7070  172.9850  145.5610 C   0  0  0  0  0  2  0  0  0  0  0  0
  193.4360  175.1720  145.9190 C   0  0  1  0  0  0  0  0  0  0  0  0
  190.5210  174.8210  145.3310 C   0  0  0  0  0  2  0  0  0  0  0  0
  191.5580  174.4410  144.2500 C   0  0  2  0  0  3  0  0  0  0  0  0
  193.0910  174.6520  144.5050 C   0  0  2  0  0  0  0  0  0  0  0  0
  190.0480  175.4700  147.6310 N   0  0  0  0  0  1  0  0  0  0  0  0
  191.0590  174.8980  146.7590 C   0  0  2  0  0  3  0  0  0  0  0  0
  193.3430  173.6840  145.6880 C   0  0  1  0  0  3  0  0  0  0  0  0
  192.1920  175.7340  143.8960 C   0  0  0  0  0  2  0  0  0  0  0  0
  194.8140  175.8190  146.0280 C   0  0  0  0  0  1  0  0  0  0  0  0
  192.3240  175.7520  146.8060 C   0  0  0  0  0  2  0  0  0  0  0  0
  1  5  1  1  0  0  0
  2 22  1  0  0  0  0
  2  3  1  0  0  0  0
  2  1  1  0  0  0  0
  3 30  1  6  0  0  0
  3  1  1  0  0  0  0
  5  4  2  0  0  0  0
  6  4  1  0  0  0  0
  6  7  1  0  0  0  0
  8  7  1  0  0  0  0
  8 10  1  0  0  0  0
 10  9  1  1  0  0  0
 11 10  1  6  0  0  0
 11 13  1  0  0  0  0
 11 12  1  0  0  0  0
 12 14  1  1  0  0  0
 13 12  1  0  0  0  0
 14 17  1  0  0  0  0
 17 15  1  6  0  0  0
 17 16  2  0  0  0  0
 18 10  1  0  0  0  0
 19 18  1  0  0  0  0
 20 19  1  0  0  0  0
 21 19  1  0  0  0  0
 23 22  1  0  0  0  0
 24 25  1  0  0  0  0
 25 23  1  0  0  0  0
 26 24  2  0  0  0  0
 27 24  1  0  0  0  0
 27 28  2  0  0  0  0
 29 27  1  0  0  0  0
 30 31  1  0  0  0  0
 31 32  1  0  0  0  0
 32 33  2  0  0  0  0
 34 33  1  6  0  0  0
 34 36  1  0  0  0  0
 34 39  1  0  0  0  0
 35 36  2  0  0  0  0
 36 38  1  0  0  0  0
 38 37  1  0  0  0  0
 40 48  1  1  0  0  0
 40 49  1  0  0  0  0
 41 45  1  0  0  0  0
 42 47  1  6  0  0  0
 42 43  1  0  0  0  0
 42 41  1  0  0  0  0
 43 47  1  6  0  0  0
 43 46  1  0  0  0  0
 43 40  1  0  0  0  0
 45 49  1  0  0  0  0
 45 44  1  1  0  0  0
 46 39  1  6  0  0  0
 46 40  1  0  0  0  0
M  END
>  <MODEL>
8

>  <REMARK>
 VINA RESULT:      -5.8      2.859      5.468
  Name = 
  22 active torsions:
  status: ('A' for Active; 'I' for Inactive)
    1  A    between atoms: C_1  and  C_15
    2  A    between atoms: C_1  and  C_26
    3  A    between atoms: C_2  and  C_20
    4  A    between atoms: C_2  and  C_38
    5  A    between atoms: C_2  and  C_39
    6  A    between atoms: C_3  and  O_19
    7  A    between atoms: C_3  and  N_46
    8  A    between atoms: C_4  and  C_45
    9  A    between atoms: C_6  and  C_28
   10  A    between atoms: C_6  and  C_34
   11  A    between atoms: C_7  and  C_35
   12  A    between atoms: C_7  and  S_40
   13  A    between atoms: C_9  and  C_25
   14  A    between atoms: C_11  and  C_42
   15  A    between atoms: C_13  and  C_28
   16  A    between atoms: C_15  and  C_31
   17  A    between atoms: N_16  and  O_19
   18  A    between atoms: C_22  and  O_36
   19  A    between atoms: C_26  and  C_45
   20  A    between atoms: C_29  and  C_39
   21  A    between atoms: C_32  and  C_38
   22  A    between atoms: O_36  and  C_45
                            x       y       z     vdW  Elec       q    Type
                         _______ _______ _______ _____ _____    ______ ____

>  <TORSDO>
F 22

$$$$
=
 OpenBabel11062420243D

 49 53  0  0  1  0  0  0  0  0999 V2000
  191.3720  172.0070  141.9130 C   0  0  2  0  0  3  0  0  0  0  0  0
  190.5660  172.3050  140.6990 N   0  0  0  0  0  0  0  0  0  0  0  0
  191.3680  171.0680  140.7870 C   0  0  1  0  0  3  0  0  0  0  0  0
  190.3050  172.2150  144.1770 C   0  0  0  0  0  3  0  0  0  0  0  0
  190.5710  171.4750  143.0850 C   0  0  0  0  0  3  0  0  0  0  0  0
  190.8470  173.6060  144.3520 C   0  0  0  0  0  2  0  0  0  0  0  0
  189.7050  174.5360  144.7030 C   0  0  0  0  0  2  0  0  0  0  0  0
  190.0390  175.3740  145.9340 C   0  0  0  0  0  2  0  0  0  0  0  0
  190.1270  177.7110  145.0950 C   0  0  0  0  0  1  0  0  0  0  0  0
  189.2950  176.7400  145.9220 C   0  0  1  0  0  0  0  0  0  0  0  0
  187.9510  176.6590  145.1500 C   0  0  2  0  0  3  0  0  0  0  0  0
  187.0350  177.8040  145.3440 C   0  0  2  0  0  3  0  0  0  0  0  0
  186.8410  176.5930  146.0240 O   0  0  0  0  0  0  0  0  0  0  0  0
  186.1140  177.8760  144.1440 C   0  0  0  0  0  2  0  0  0  0  0  0
  184.3890  178.9540  146.0690 N   0  0  0  0  0  1  0  0  0  0  0  0
  183.6870  178.7170  143.6120 O   0  0  0  0  0  0  0  0  0  0  0  0
  184.8970  179.1710  144.4110 S   0  0  2  0  0  0  0  0  0  0  0  0
  189.1470  177.3380  147.2100 O   0  0  0  0  0  0  0  0  0  0  0  0
  190.3980  177.6170  147.7980 C   0  0  0  0  0  3  0  0  0  0  0  0
  190.2340  178.6070  148.7670 O   0  0  0  0  0  1  0  0  0  0  0  0
  190.8810  176.4580  148.4100 O   0  0  0  0  0  1  0  0  0  0  0  0
  189.2700  171.9420  140.8810 O   0  0  0  0  0  0  0  0  0  0  0  0
  188.5450  172.7620  140.0110 C   0  0  0  0  0  2  0  0  0  0  0  0
  188.0540  174.8990  141.3090 C   0  0  0  0  0  0  0  0  0  0  0  0
  188.7870  174.1730  140.3130 N   0  0  0  0  0  2  0  0  0  0  0  0
  187.3130  174.2870  142.1340 O   0  0  0  0  0  0  0  0  0  0  0  0
  188.1990  176.3570  141.3970 C   0  0  0  0  0  0  0  0  0  0  0  0
  189.2030  176.8630  141.9920 O   0  0  0  0  0  0  0  0  0  0  0  0
  187.1890  177.2640  140.7490 C   0  0  0  0  0  1  0  0  0  0  0  0
  192.6540  171.2590  140.0050 C   0  0  0  0  0  2  0  0  0  0  0  0
  193.6830  172.0130  140.8400 C   0  0  0  0  0  2  0  0  0  0  0  0
  194.9060  171.1670  141.0370 C   0  0  0  0  0  3  0  0  0  0  0  0
  195.2330  170.5820  142.1970 C   0  0  0  0  0  3  0  0  0  0  0  0
  194.4390  170.6550  143.4810 C   0  0  1  0  0  3  0  0  0  0  0  0
  192.7840  168.9550  143.6140 O   0  0  0  0  0  0  0  0  0  0  0  0
  193.8920  169.3280  143.9430 C   0  0  0  0  0  0  0  0  0  0  0  0
  194.1810  168.2370  146.1340 C   0  0  0  0  0  1  0  0  0  0  0  0
  194.7630  168.4180  144.7550 C   0  0  0  0  0  2  0  0  0  0  0  0
  195.1650  171.4530  144.5720 C   0  0  0  0  0  2  0  0  0  0  0  0
  195.7990  173.8000  145.3540 C   0  0  1  0  0  0  0  0  0  0  0  0
  194.4200  175.8840  143.7020 C   0  0  0  0  0  2  0  0  0  0  0  0
  195.2760  174.8080  142.9960 C   0  0  2  0  0  3  0  0  0  0  0  0
  196.0480  173.7280  143.8300 C   0  0  2  0  0  0  0  0  0  0  0  0
  193.3620  176.7010  145.7390 N   0  0  0  0  0  1  0  0  0  0  0  0
  193.9630  175.5340  145.1170 C   0  0  2  0  0  3  0  0  0  0  0  0
  194.8800  172.9620  144.5000 C   0  0  1  0  0  3  0  0  0  0  0  0
  196.6550  175.0870  143.4650 C   0  0  0  0  0  2  0  0  0  0  0  0
  196.8650  173.1060  146.1960 C   0  0  0  0  0  1  0  0  0  0  0  0
  195.1450  175.0540  145.9560 C   0  0  0  0  0  2  0  0  0  0  0  0
  1  5  1  1  0  0  0
  2  3  1  0  0  0  0
  2 22  1  0  0  0  0
  2  1  1  0  0  0  0
  3 30  1  6  0  0  0
  3  1  1  0  0  0  0
  4  6  1  0  0  0  0
  5  4  2  0  0  0  0
  6  7  1  0  0  0  0
  7  8  1  0  0  0  0
 10  9  1  6  0  0  0
 10  8  1  0  0  0  0
 10 18  1  0  0  0  0
 11 12  1  0  0  0  0
 11 10  1  1  0  0  0
 11 13  1  0  0  0  0
 12 14  1  6  0  0  0
 12 13  1  0  0  0  0
 14 17  1  0  0  0  0
 17 16  2  6  0  0  0
 17 15  1  0  0  0  0
 18 19  1  0  0  0  0
 19 21  1  0  0  0  0
 19 20  1  0  0  0  0
 23 25  1  0  0  0  0
 23 22  1  0  0  0  0
 24 27  1  0  0  0  0
 24 26  2  0  0  0  0
 25 24  1  0  0  0  0
 27 28  2  0  0  0  0
 29 27  1  0  0  0  0
 30 31  1  0  0  0  0
 31 32  1  0  0  0  0
 32 33  2  0  0  0  0
 34 33  1  6  0  0  0
 34 36  1  0  0  0  0
 34 39  1  0  0  0  0
 35 36  2  0  0  0  0
 36 38  1  0  0  0  0
 38 37  1  0  0  0  0
 40 49  1  0  0  0  0
 40 48  1  1  0  0  0
 41 45  1  0  0  0  0
 42 47  1  1  0  0  0
 42 41  1  0  0  0  0
 42 43  1  0  0  0  0
 43 47  1  6  0  0  0
 43 46  1  0  0  0  0
 43 40  1  0  0  0  0
 45 44  1  1  0  0  0
 45 49  1  0  0  0  0
 46 39  1  1  0  0  0
 46 40  1  0  0  0  0
M  END
>  <MODEL>
9

>  <REMARK>
 VINA RESULT:      -5.7      2.685      5.650
  Name = 
  22 active torsions:
  status: ('A' for Active; 'I' for Inactive)
    1  A    between atoms: C_1  and  C_15
    2  A    between atoms: C_1  and  C_26
    3  A    between atoms: C_2  and  C_20
    4  A    between atoms: C_2  and  C_38
    5  A    between atoms: C_2  and  C_39
    6  A    between atoms: C_3  and  O_19
    7  A    between atoms: C_3  and  N_46
    8  A    between atoms: C_4  and  C_45
    9  A    between atoms: C_6  and  C_28
   10  A    between atoms: C_6  and  C_34
   11  A    between atoms: C_7  and  C_35
   12  A    between atoms: C_7  and  S_40
   13  A    between atoms: C_9  and  C_25
   14  A    between atoms: C_11  and  C_42
   15  A    between atoms: C_13  and  C_28
   16  A    between atoms: C_15  and  C_31
   17  A    between atoms: N_16  and  O_19
   18  A    between atoms: C_22  and  O_36
   19  A    between atoms: C_26  and  C_45
   20  A    between atoms: C_29  and  C_39
   21  A    between atoms: C_32  and  C_38
   22  A    between atoms: O_36  and  C_45
                            x       y       z     vdW  Elec       q    Type
                         _______ _______ _______ _____ _____    ______ ____

>  <TORSDO>
F 22

$$$$
