=
 OpenBabel11072409053D

 47 50  0  0  1  0  0  0  0  0999 V2000
  193.4200  176.0450  146.9930 C   0  0  0  0  0  3  0  0  0  0  0  0
  191.4170  177.3060  146.9830 F   0  0  0  0  0  0  0  0  0  0  0  0
  193.5340  176.1910  144.2070 C   0  0  0  0  0  3  0  0  0  0  0  0
  192.4160  176.7130  146.2900 C   0  0  0  0  0  0  0  0  0  0  0  0
  194.4810  175.4580  146.3090 C   0  0  0  0  0  3  0  0  0  0  0  0
  192.4540  176.7710  144.8880 C   0  0  0  0  0  0  0  0  0  0  0  0
  194.5560  175.5370  144.9160 C   0  0  0  0  0  0  0  0  0  0  0  0
  190.5650  176.6110  143.2930 C   0  0  2  0  0  3  0  0  0  0  0  0
  191.4200  177.5480  144.1300 C   0  0  2  0  0  3  0  0  0  0  0  0
  191.6290  177.4600  142.6270 C   0  0  0  0  0  2  0  0  0  0  0  0
  188.0720  176.5080  142.8020 C   0  0  0  0  0  0  0  0  0  0  0  0
  188.1290  175.2750  142.5470 O   0  0  0  0  0  0  0  0  0  0  0  0
  189.2490  177.2160  143.1660 N   0  0  0  0  0  2  0  0  0  0  0  0
  186.7760  177.2600  142.7140 C   0  0  1  0  0  3  0  0  0  0  0  0
  186.1290  178.9480  144.4820 C   0  0  0  0  0  3  0  0  0  0  0  0
  184.6660  178.5270  147.8440 O   0  0  0  0  0  1  0  0  0  0  0  0
  185.1970  178.2250  146.5970 C   0  0  0  0  0  0  0  0  0  0  0  0
  185.6070  179.2520  145.7430 C   0  0  0  0  0  3  0  0  0  0  0  0
  185.8440  176.5900  144.9360 C   0  0  0  0  0  3  0  0  0  0  0  0
  185.3170  176.8940  146.1930 C   0  0  0  0  0  3  0  0  0  0  0  0
  186.2500  177.6110  144.0760 C   0  0  0  0  0  0  0  0  0  0  0  0
  186.8720  178.4810  141.7950 C   0  0  0  0  0  2  0  0  0  0  0  0
  184.6920  177.9290  141.1380 C   0  0  0  0  0  1  0  0  0  0  0  0
  185.9910  178.3420  140.6450 N   0  0  0  0  0  0  0  0  0  0  0  0
  186.5110  177.2330  139.8650 C   0  0  0  0  0  1  0  0  0  0  0  0
  195.6930  174.8450  144.2230 C   0  0  2  0  0  3  0  0  0  0  0  0
  196.4280  177.1140  143.9290 O   0  0  0  0  0  1  0  0  0  0  0  0
  196.6960  175.7970  143.5470 C   0  0  0  0  0  2  0  0  0  0  0  0
  195.1790  173.7300  143.2980 C   0  0  2  0  0  3  0  0  0  0  0  0
  192.6620  172.9170  142.3500 O   0  0  0  0  0  0  0  0  0  0  0  0
  194.8190  172.0440  145.1710 C   0  0  0  0  0  1  0  0  0  0  0  0
  193.0290  172.4420  143.4610 C   0  0  0  0  0  0  0  0  0  0  0  0
  194.3320  172.7490  143.9860 N   0  0  0  0  0  0  0  0  0  0  0  0
  192.0700  171.5800  144.2120 C   0  0  0  0  0  2  0  0  0  0  0  0
  190.7140  171.8750  143.7890 N   0  0  0  0  0  2  0  0  0  0  0  0
  190.4280  173.2410  144.1870 C   0  0  0  0  0  2  0  0  0  0  0  0
  189.6170  173.2220  145.4630 C   0  0  0  0  0  2  0  0  0  0  0  0
  189.0000  174.5010  147.4850 C   0  0  0  0  0  2  0  0  0  0  0  0
  189.9880  174.3990  146.3400 C   0  0  0  0  0  3  0  0  0  0  0  0
  188.8560  175.3990  146.2770 C   0  0  0  0  0  2  0  0  0  0  0  0
  196.2400  173.0870  142.4410 C   0  0  0  0  0  0  0  0  0  0  0  0
  197.2830  172.4010  143.0470 O   0  0  0  0  0  1  0  0  0  0  0  0
  196.2020  173.1550  141.1080 C   0  0  0  0  0  3  0  0  0  0  0  0
  195.0900  173.8320  140.3780 C   0  0  0  0  0  2  0  0  0  0  0  0
  195.4400  175.2440  140.0790 C   0  0  0  0  0  0  0  0  0  0  0  0
  194.7530  176.3040  140.7210 N   0  0  0  0  0  1  0  0  0  0  0  0
  196.3850  175.5050  139.2870 O   0  0  0  0  0  0  0  0  0  0  0  0
  3  6  2  0  0  0  0
  3  7  1  0  0  0  0
  4  2  1  0  0  0  0
  4  1  2  0  0  0  0
  5  1  1  0  0  0  0
  6  4  1  0  0  0  0
  7  5  2  0  0  0  0
  8 13  1  6  0  0  0
  8  9  1  0  0  0  0
  9  6  1  1  0  0  0
 10  8  1  0  0  0  0
 10  9  1  0  0  0  0
 11 13  1  0  0  0  0
 12 11  2  0  0  0  0
 14 22  1  6  0  0  0
 14 11  1  0  0  0  0
 14 21  1  0  0  0  0
 15 18  1  0  0  0  0
 17 16  1  0  0  0  0
 18 17  2  0  0  0  0
 19 20  2  0  0  0  0
 20 17  1  0  0  0  0
 21 15  2  0  0  0  0
 21 19  1  0  0  0  0
 24 23  1  0  0  0  0
 24 22  1  0  0  0  0
 25 24  1  0  0  0  0
 26 28  1  6  0  0  0
 26  7  1  0  0  0  0
 28 27  1  0  0  0  0
 29 41  1  1  0  0  0
 29 33  1  0  0  0  0
 29 26  1  0  0  0  0
 30 32  2  0  0  0  0
 32 33  1  0  0  0  0
 32 34  1  0  0  0  0
 33 31  1  0  0  0  0
 35 36  1  0  0  0  0
 35 34  1  0  0  0  0
 36 37  1  0  0  0  0
 37 39  1  0  0  0  0
 39 38  1  0  0  0  0
 40 39  1  0  0  0  0
 40 38  1  0  0  0  0
 41 42  1  0  0  0  0
 43 41  2  0  0  0  0
 44 43  1  0  0  0  0
 45 44  1  0  0  0  0
 45 46  1  0  0  0  0
 47 45  2  0  0  0  0
M  END
>  <MODEL>
1

>  <REMARK>
 VINA RESULT:      -6.2      0.000      0.000
  Name = 
  18 active torsions:
  status: ('A' for Active; 'I' for Inactive)
    1  A    between atoms: C_2  and  C_13
    2  A    between atoms: C_3  and  C_42
    3  A    between atoms: C_6  and  C_23
    4  A    between atoms: C_6  and  N_34
    5  A    between atoms: C_7  and  C_13
    6  A    between atoms: C_7  and  N_25
    7  A    between atoms: C_10  and  C_36
    8  A    between atoms: C_10  and  C_42
    9  A    between atoms: C_10  and  C_45
   10  A    between atoms: C_13  and  C_44
   11  A    between atoms: C_18  and  C_20
   12  A    between atoms: C_20  and  C_46
   13  A    between atoms: C_22  and  C_23
   14  A    between atoms: C_24  and  C_43
   15  A    between atoms: C_27  and  N_37
   16  A    between atoms: N_28  and  C_42
   17  A    between atoms: C_32  and  C_38
   18  A    between atoms: N_34  and  C_43
                            x       y       z     vdW  Elec       q    Type
                         _______ _______ _______ _____ _____    ______ ____

>  <TORSDO>
F 18

$$$$
=
 OpenBabel11072409053D

 47 50  0  0  1  0  0  0  0  0999 V2000
  191.7050  170.5900  142.4970 C   0  0  0  0  0  3  0  0  0  0  0  0
  189.4180  171.1970  142.4370 F   0  0  0  0  0  0  0  0  0  0  0  0
  192.2550  172.7920  144.1220 C   0  0  0  0  0  3  0  0  0  0  0  0
  190.6770  171.4590  142.8600 C   0  0  0  0  0  0  0  0  0  0  0  0
  193.0030  170.8130  142.9490 C   0  0  0  0  0  3  0  0  0  0  0  0
  190.9480  172.5830  143.6580 C   0  0  0  0  0  0  0  0  0  0  0  0
  193.2870  171.9040  143.7750 C   0  0  0  0  0  0  0  0  0  0  0  0
  189.9060  174.8140  143.3840 C   0  0  2  0  0  3  0  0  0  0  0  0
  189.8370  173.4810  144.1120 C   0  0  2  0  0  3  0  0  0  0  0  0
  190.3590  174.7160  144.8270 C   0  0  0  0  0  2  0  0  0  0  0  0
  188.2210  176.6470  142.8690 C   0  0  0  0  0  0  0  0  0  0  0  0
  189.1340  177.4610  142.5650 O   0  0  0  0  0  0  0  0  0  0  0  0
  188.5510  175.3290  143.2900 N   0  0  0  0  0  2  0  0  0  0  0  0
  186.7750  177.0450  142.8140 C   0  0  1  0  0  3  0  0  0  0  0  0
  186.0890  178.8560  144.4390 C   0  0  0  0  0  3  0  0  0  0  0  0
  184.7720  178.6790  147.8820 O   0  0  0  0  0  1  0  0  0  0  0  0
  185.2770  178.2890  146.6480 C   0  0  0  0  0  0  0  0  0  0  0  0
  185.5930  179.2510  145.6850 C   0  0  0  0  0  3  0  0  0  0  0  0
  185.9630  176.5410  145.1250 C   0  0  0  0  0  3  0  0  0  0  0  0
  185.4640  176.9340  146.3680 C   0  0  0  0  0  3  0  0  0  0  0  0
  186.2770  177.4960  144.1560 C   0  0  0  0  0  0  0  0  0  0  0  0
  186.4940  178.0740  141.7140 C   0  0  0  0  0  2  0  0  0  0  0  0
  186.5390  177.4190  139.4660 C   0  0  0  0  0  1  0  0  0  0  0  0
  185.6990  177.4920  140.6440 N   0  0  0  0  0  0  0  0  0  0  0  0
  184.6500  178.4520  140.3460 C   0  0  0  0  0  1  0  0  0  0  0  0
  194.7100  172.1290  144.1930 C   0  0  2  0  0  3  0  0  0  0  0  0
  195.9780  170.5880  145.5330 O   0  0  0  0  0  1  0  0  0  0  0  0
  195.0410  171.6230  145.6090 C   0  0  0  0  0  2  0  0  0  0  0  0
  195.1360  173.5850  143.9430 C   0  0  2  0  0  3  0  0  0  0  0  0
  194.8690  175.9880  142.5120 O   0  0  0  0  0  0  0  0  0  0  0  0
  196.5630  172.7890  141.9910 C   0  0  0  0  0  1  0  0  0  0  0  0
  195.4650  175.0420  141.9230 C   0  0  0  0  0  0  0  0  0  0  0  0
  195.7080  173.8010  142.6090 N   0  0  0  0  0  0  0  0  0  0  0  0
  195.8840  175.2430  140.5060 C   0  0  0  0  0  2  0  0  0  0  0  0
  194.7100  175.4170  139.6700 N   0  0  0  0  0  2  0  0  0  0  0  0
  194.3910  174.1200  139.1030 C   0  0  0  0  0  2  0  0  0  0  0  0
  192.9010  174.0440  138.8560 C   0  0  0  0  0  2  0  0  0  0  0  0
  191.2230  172.2790  139.2740 C   0  0  0  0  0  2  0  0  0  0  0  0
  192.2340  173.2040  139.9240 C   0  0  0  0  0  3  0  0  0  0  0  0
  190.7640  173.5570  139.9410 C   0  0  0  0  0  2  0  0  0  0  0  0
  195.9710  174.1930  145.0420 C   0  0  0  0  0  0  0  0  0  0  0  0
  197.3350  173.9430  145.0800 O   0  0  0  0  0  1  0  0  0  0  0  0
  195.4320  174.9720  145.9830 C   0  0  0  0  0  3  0  0  0  0  0  0
  193.9820  175.3290  145.9860 C   0  0  0  0  0  2  0  0  0  0  0  0
  193.7910  176.7550  145.6160 C   0  0  0  0  0  0  0  0  0  0  0  0
  194.8440  177.6870  145.7920 N   0  0  0  0  0  1  0  0  0  0  0  0
  192.7070  177.1320  145.0980 O   0  0  0  0  0  0  0  0  0  0  0  0
  1  4  2  0  0  0  0
  1  5  1  0  0  0  0
  2  4  1  0  0  0  0
  4  6  1  0  0  0  0
  5  7  2  0  0  0  0
  6  3  2  0  0  0  0
  7  3  1  0  0  0  0
  7 26  1  0  0  0  0
  8 13  1  1  0  0  0
  8  9  1  0  0  0  0
  8 10  1  0  0  0  0
  9  6  1  6  0  0  0
  9 10  1  0  0  0  0
 11 13  1  0  0  0  0
 12 11  2  0  0  0  0
 14 22  1  6  0  0  0
 14 11  1  0  0  0  0
 14 21  1  0  0  0  0
 15 18  1  0  0  0  0
 17 16  1  0  0  0  0
 18 17  2  0  0  0  0
 19 20  2  0  0  0  0
 20 17  1  0  0  0  0
 21 15  2  0  0  0  0
 21 19  1  0  0  0  0
 23 24  1  0  0  0  0
 24 22  1  0  0  0  0
 25 24  1  0  0  0  0
 26 28  1  1  0  0  0
 27 28  1  0  0  0  0
 29 26  1  0  0  0  0
 29 41  1  1  0  0  0
 31 33  1  0  0  0  0
 32 30  2  0  0  0  0
 32 33  1  0  0  0  0
 33 29  1  0  0  0  0
 34 32  1  0  0  0  0
 35 34  1  0  0  0  0
 36 35  1  0  0  0  0
 37 36  1  0  0  0  0
 37 39  1  0  0  0  0
 38 39  1  0  0  0  0
 38 40  1  0  0  0  0
 39 40  1  0  0  0  0
 41 42  1  0  0  0  0
 41 43  2  0  0  0  0
 43 44  1  0  0  0  0
 45 46  1  0  0  0  0
 45 44  1  0  0  0  0
 47 45  2  0  0  0  0
M  END
>  <MODEL>
2

>  <REMARK>
 VINA RESULT:      -6.2      2.227      4.557
  Name = 
  18 active torsions:
  status: ('A' for Active; 'I' for Inactive)
    1  A    between atoms: C_2  and  C_13
    2  A    between atoms: C_3  and  C_42
    3  A    between atoms: C_6  and  C_23
    4  A    between atoms: C_6  and  N_34
    5  A    between atoms: C_7  and  C_13
    6  A    between atoms: C_7  and  N_25
    7  A    between atoms: C_10  and  C_36
    8  A    between atoms: C_10  and  C_42
    9  A    between atoms: C_10  and  C_45
   10  A    between atoms: C_13  and  C_44
   11  A    between atoms: C_18  and  C_20
   12  A    between atoms: C_20  and  C_46
   13  A    between atoms: C_22  and  C_23
   14  A    between atoms: C_24  and  C_43
   15  A    between atoms: C_27  and  N_37
   16  A    between atoms: N_28  and  C_42
   17  A    between atoms: C_32  and  C_38
   18  A    between atoms: N_34  and  C_43
                            x       y       z     vdW  Elec       q    Type
                         _______ _______ _______ _____ _____    ______ ____

>  <TORSDO>
F 18

$$$$
=
 OpenBabel11072409053D

 47 50  0  0  1  0  0  0  0  0999 V2000
  194.1940  175.9330  146.4810 C   0  0  0  0  0  3  0  0  0  0  0  0
  192.0840  177.0050  146.5000 F   0  0  0  0  0  0  0  0  0  0  0  0
  193.1240  173.8390  144.9760 C   0  0  0  0  0  3  0  0  0  0  0  0
  192.8450  175.9500  146.1280 C   0  0  0  0  0  0  0  0  0  0  0  0
  195.0100  174.8790  146.0780 C   0  0  0  0  0  3  0  0  0  0  0  0
  192.2930  174.8890  145.3910 C   0  0  0  0  0  0  0  0  0  0  0  0
  194.4880  173.8330  145.3130 C   0  0  0  0  0  0  0  0  0  0  0  0
  189.9340  174.8940  146.1490 C   0  0  2  0  0  3  0  0  0  0  0  0
  190.8620  174.9350  144.9460 C   0  0  2  0  0  3  0  0  0  0  0  0
  190.1160  173.6570  145.2920 C   0  0  0  0  0  2  0  0  0  0  0  0
  188.3970  176.9160  146.2500 C   0  0  0  0  0  0  0  0  0  0  0  0
  189.1730  177.5220  147.0370 O   0  0  0  0  0  0  0  0  0  0  0  0
  188.7220  175.6110  145.7900 N   0  0  0  0  0  2  0  0  0  0  0  0
  187.1100  177.5410  145.7950 C   0  0  1  0  0  3  0  0  0  0  0  0
  188.0600  178.0980  143.5180 C   0  0  0  0  0  3  0  0  0  0  0  0
  186.7410  177.5360  140.1170 O   0  0  0  0  0  1  0  0  0  0  0  0
  186.8310  177.5560  141.5030 C   0  0  0  0  0  0  0  0  0  0  0  0
  187.9640  178.0900  142.1240 C   0  0  0  0  0  3  0  0  0  0  0  0
  185.8860  177.0490  143.6700 C   0  0  0  0  0  3  0  0  0  0  0  0
  185.7920  177.0370  142.2770 C   0  0  0  0  0  3  0  0  0  0  0  0
  187.0160  177.5760  144.2970 C   0  0  0  0  0  0  0  0  0  0  0  0
  185.8840  176.8890  146.4390 C   0  0  0  0  0  2  0  0  0  0  0  0
  184.0870  178.3920  146.4210 C   0  0  0  0  0  1  0  0  0  0  0  0
  185.1450  177.8470  147.2480 N   0  0  0  0  0  0  0  0  0  0  0  0
  186.0610  178.9400  147.5240 C   0  0  0  0  0  1  0  0  0  0  0  0
  195.3970  172.6960  144.9470 C   0  0  2  0  0  3  0  0  0  0  0  0
  196.6940  171.1900  146.2990 O   0  0  0  0  0  1  0  0  0  0  0  0
  196.6040  172.5230  145.8870 C   0  0  0  0  0  2  0  0  0  0  0  0
  195.7760  172.7470  143.4590 C   0  0  2  0  0  3  0  0  0  0  0  0
  194.9020  173.2530  140.8370 O   0  0  0  0  0  0  0  0  0  0  0  0
  194.8490  170.4000  143.1240 C   0  0  0  0  0  1  0  0  0  0  0  0
  194.5880  172.1340  141.3320 C   0  0  0  0  0  0  0  0  0  0  0  0
  195.0550  171.7650  142.6410 N   0  0  0  0  0  0  0  0  0  0  0  0
  193.7100  171.2290  140.5340 C   0  0  0  0  0  2  0  0  0  0  0  0
  192.4240  171.8650  140.3160 N   0  0  0  0  0  2  0  0  0  0  0  0
  191.7120  171.8360  141.5800 C   0  0  0  0  0  2  0  0  0  0  0  0
  191.1370  173.2090  141.8510 C   0  0  0  0  0  2  0  0  0  0  0  0
  189.0630  174.5340  141.6290 C   0  0  0  0  0  2  0  0  0  0  0  0
  189.9040  173.4390  141.0020 C   0  0  0  0  0  3  0  0  0  0  0  0
  188.6940  173.0820  141.8350 C   0  0  0  0  0  2  0  0  0  0  0  0
  197.2600  172.7550  143.1880 C   0  0  0  0  0  0  0  0  0  0  0  0
  197.9390  171.5500  143.0800 O   0  0  0  0  0  1  0  0  0  0  0  0
  197.9410  173.8940  143.0460 C   0  0  0  0  0  3  0  0  0  0  0  0
  197.2770  175.2300  143.1000 C   0  0  0  0  0  2  0  0  0  0  0  0
  197.1290  175.7990  141.7350 C   0  0  0  0  0  0  0  0  0  0  0  0
  196.1220  176.7590  141.4650 N   0  0  0  0  0  1  0  0  0  0  0  0
  197.9310  175.4650  140.8240 O   0  0  0  0  0  0  0  0  0  0  0  0
  3  7  2  0  0  0  0
  3  6  1  0  0  0  0
  4  1  1  0  0  0  0
  4  2  1  0  0  0  0
  5  1  2  0  0  0  0
  6  4  2  0  0  0  0
  7  5  1  0  0  0  0
  8 13  1  6  0  0  0
  9 10  1  0  0  0  0
  9  6  1  1  0  0  0
  9  8  1  0  0  0  0
 10  8  1  0  0  0  0
 11 12  2  0  0  0  0
 13 11  1  0  0  0  0
 14 11  1  0  0  0  0
 14 22  1  1  0  0  0
 15 21  1  0  0  0  0
 16 17  1  0  0  0  0
 17 18  1  0  0  0  0
 17 20  2  0  0  0  0
 18 15  2  0  0  0  0
 19 21  2  0  0  0  0
 20 19  1  0  0  0  0
 21 14  1  0  0  0  0
 22 24  1  0  0  0  0
 23 24  1  0  0  0  0
 24 25  1  0  0  0  0
 26  7  1  0  0  0  0
 26 28  1  1  0  0  0
 28 27  1  0  0  0  0
 29 41  1  1  0  0  0
 29 26  1  0  0  0  0
 30 32  2  0  0  0  0
 32 33  1  0  0  0  0
 33 31  1  0  0  0  0
 33 29  1  0  0  0  0
 34 32  1  0  0  0  0
 35 34  1  0  0  0  0
 35 36  1  0  0  0  0
 36 37  1  0  0  0  0
 38 40  1  0  0  0  0
 39 38  1  0  0  0  0
 39 40  1  0  0  0  0
 39 37  1  0  0  0  0
 42 41  1  0  0  0  0
 43 44  1  0  0  0  0
 43 41  2  0  0  0  0
 45 44  1  0  0  0  0
 46 45  1  0  0  0  0
 47 45  2  0  0  0  0
M  END
>  <MODEL>
3

>  <REMARK>
 VINA RESULT:      -6.1      2.226      3.822
  Name = 
  18 active torsions:
  status: ('A' for Active; 'I' for Inactive)
    1  A    between atoms: C_2  and  C_13
    2  A    between atoms: C_3  and  C_42
    3  A    between atoms: C_6  and  C_23
    4  A    between atoms: C_6  and  N_34
    5  A    between atoms: C_7  and  C_13
    6  A    between atoms: C_7  and  N_25
    7  A    between atoms: C_10  and  C_36
    8  A    between atoms: C_10  and  C_42
    9  A    between atoms: C_10  and  C_45
   10  A    between atoms: C_13  and  C_44
   11  A    between atoms: C_18  and  C_20
   12  A    between atoms: C_20  and  C_46
   13  A    between atoms: C_22  and  C_23
   14  A    between atoms: C_24  and  C_43
   15  A    between atoms: C_27  and  N_37
   16  A    between atoms: N_28  and  C_42
   17  A    between atoms: C_32  and  C_38
   18  A    between atoms: N_34  and  C_43
                            x       y       z     vdW  Elec       q    Type
                         _______ _______ _______ _____ _____    ______ ____

>  <TORSDO>
F 18

$$$$
=
 OpenBabel11072409053D

 47 50  0  0  1  0  0  0  0  0999 V2000
  192.5390  170.3170  142.2080 C   0  0  0  0  0  3  0  0  0  0  0  0
  190.2380  170.8110  141.9510 F   0  0  0  0  0  0  0  0  0  0  0  0
  192.7890  172.4050  144.0440 C   0  0  0  0  0  3  0  0  0  0  0  0
  191.4290  171.1010  142.5240 C   0  0  0  0  0  0  0  0  0  0  0  0
  193.7680  170.5670  142.8120 C   0  0  0  0  0  3  0  0  0  0  0  0
  191.5520  172.1680  143.4290 C   0  0  0  0  0  0  0  0  0  0  0  0
  193.9020  171.6000  143.7430 C   0  0  0  0  0  0  0  0  0  0  0  0
  190.6360  174.4560  143.6860 C   0  0  2  0  0  3  0  0  0  0  0  0
  190.3490  172.9690  143.8290 C   0  0  2  0  0  3  0  0  0  0  0  0
  190.6150  173.8180  145.0610 C   0  0  0  0  0  2  0  0  0  0  0  0
  189.1680  176.5200  143.4660 C   0  0  0  0  0  0  0  0  0  0  0  0
  190.1080  177.2800  143.8250 O   0  0  0  0  0  0  0  0  0  0  0  0
  189.3750  175.1160  143.3910 N   0  0  0  0  0  2  0  0  0  0  0  0
  187.8130  177.0680  143.1270 C   0  0  1  0  0  3  0  0  0  0  0  0
  186.3590  178.6970  144.4040 C   0  0  0  0  0  3  0  0  0  0  0  0
  184.8990  178.5340  147.7890 O   0  0  0  0  0  1  0  0  0  0  0  0
  185.6220  178.1910  146.6540 C   0  0  0  0  0  0  0  0  0  0  0  0
  185.6430  179.0490  145.5510 C   0  0  0  0  0  3  0  0  0  0  0  0
  187.0430  176.6350  145.4670 C   0  0  0  0  0  3  0  0  0  0  0  0
  186.3230  176.9850  146.6120 C   0  0  0  0  0  3  0  0  0  0  0  0
  187.0640  177.4850  144.3600 C   0  0  0  0  0  0  0  0  0  0  0  0
  187.8790  178.1860  142.0820 C   0  0  0  0  0  2  0  0  0  0  0  0
  185.8730  178.0710  140.8770 C   0  0  0  0  0  1  0  0  0  0  0  0
  187.2880  177.7600  140.8220 N   0  0  0  0  0  0  0  0  0  0  0  0
  187.3930  176.3120  140.7900 C   0  0  0  0  0  1  0  0  0  0  0  0
  195.2590  171.8620  144.3260 C   0  0  2  0  0  3  0  0  0  0  0  0
  196.5570  170.5750  145.8870 O   0  0  0  0  0  1  0  0  0  0  0  0
  195.4250  171.3880  145.7810 C   0  0  0  0  0  2  0  0  0  0  0  0
  195.6850  173.3220  144.1000 C   0  0  2  0  0  3  0  0  0  0  0  0
  195.8840  175.7310  142.6680 O   0  0  0  0  0  0  0  0  0  0  0  0
  197.4600  172.4360  142.5050 C   0  0  0  0  0  1  0  0  0  0  0  0
  196.5390  174.7490  142.2170 C   0  0  0  0  0  0  0  0  0  0  0  0
  196.5510  173.4990  142.9280 N   0  0  0  0  0  0  0  0  0  0  0  0
  197.2720  174.9210  140.9300 C   0  0  0  0  0  2  0  0  0  0  0  0
  196.3250  175.1610  139.8570 N   0  0  0  0  0  2  0  0  0  0  0  0
  195.8750  173.8650  139.3840 C   0  0  0  0  0  2  0  0  0  0  0  0
  194.3880  173.9290  139.1130 C   0  0  0  0  0  2  0  0  0  0  0  0
  192.1370  173.6850  140.1030 C   0  0  0  0  0  2  0  0  0  0  0  0
  193.6140  173.4040  140.3040 C   0  0  0  0  0  3  0  0  0  0  0  0
  192.9670  174.5840  140.9920 C   0  0  0  0  0  2  0  0  0  0  0  0
  196.2160  174.0180  145.3280 C   0  0  0  0  0  0  0  0  0  0  0  0
  197.5510  173.8640  145.6760 O   0  0  0  0  0  1  0  0  0  0  0  0
  195.4350  174.7860  146.0920 C   0  0  0  0  0  3  0  0  0  0  0  0
  194.0020  175.0410  145.7600 C   0  0  0  0  0  2  0  0  0  0  0  0
  193.6050  176.4130  146.1680 C   0  0  0  0  0  0  0  0  0  0  0  0
  194.5560  177.4630  146.1690 N   0  0  0  0  0  1  0  0  0  0  0  0
  192.4070  176.6580  146.4700 O   0  0  0  0  0  0  0  0  0  0  0  0
  1  4  2  0  0  0  0
  1  5  1  0  0  0  0
  2  4  1  0  0  0  0
  4  6  1  0  0  0  0
  5  7  2  0  0  0  0
  6  3  2  0  0  0  0
  7  3  1  0  0  0  0
  7 26  1  0  0  0  0
  8 13  1  1  0  0  0
  8  9  1  0  0  0  0
  8 10  1  0  0  0  0
  9  6  1  6  0  0  0
  9 10  1  0  0  0  0
 11 12  2  0  0  0  0
 13 11  1  0  0  0  0
 14 22  1  6  0  0  0
 14 11  1  0  0  0  0
 14 21  1  0  0  0  0
 15 18  1  0  0  0  0
 17 16  1  0  0  0  0
 18 17  2  0  0  0  0
 19 20  2  0  0  0  0
 20 17  1  0  0  0  0
 21 15  2  0  0  0  0
 21 19  1  0  0  0  0
 24 23  1  0  0  0  0
 24 22  1  0  0  0  0
 25 24  1  0  0  0  0
 26 28  1  1  0  0  0
 28 27  1  0  0  0  0
 29 26  1  0  0  0  0
 29 41  1  1  0  0  0
 31 33  1  0  0  0  0
 32 30  2  0  0  0  0
 32 33  1  0  0  0  0
 33 29  1  0  0  0  0
 34 32  1  0  0  0  0
 35 34  1  0  0  0  0
 36 35  1  0  0  0  0
 37 36  1  0  0  0  0
 37 39  1  0  0  0  0
 38 39  1  0  0  0  0
 38 40  1  0  0  0  0
 39 40  1  0  0  0  0
 41 42  1  0  0  0  0
 41 43  2  0  0  0  0
 44 43  1  0  0  0  0
 44 45  1  0  0  0  0
 45 46  1  0  0  0  0
 45 47  2  0  0  0  0
M  END
>  <MODEL>
4

>  <REMARK>
 VINA RESULT:      -6.0      2.260      4.807
  Name = 
  18 active torsions:
  status: ('A' for Active; 'I' for Inactive)
    1  A    between atoms: C_2  and  C_13
    2  A    between atoms: C_3  and  C_42
    3  A    between atoms: C_6  and  C_23
    4  A    between atoms: C_6  and  N_34
    5  A    between atoms: C_7  and  C_13
    6  A    between atoms: C_7  and  N_25
    7  A    between atoms: C_10  and  C_36
    8  A    between atoms: C_10  and  C_42
    9  A    between atoms: C_10  and  C_45
   10  A    between atoms: C_13  and  C_44
   11  A    between atoms: C_18  and  C_20
   12  A    between atoms: C_20  and  C_46
   13  A    between atoms: C_22  and  C_23
   14  A    between atoms: C_24  and  C_43
   15  A    between atoms: C_27  and  N_37
   16  A    between atoms: N_28  and  C_42
   17  A    between atoms: C_32  and  C_38
   18  A    between atoms: N_34  and  C_43
                            x       y       z     vdW  Elec       q    Type
                         _______ _______ _______ _____ _____    ______ ____

>  <TORSDO>
F 18

$$$$
=
 OpenBabel11072409053D

 47 50  0  0  1  0  0  0  0  0999 V2000
  191.3510  170.9090  142.6780 C   0  0  0  0  0  3  0  0  0  0  0  0
  189.1000  171.6300  142.8010 F   0  0  0  0  0  0  0  0  0  0  0  0
  192.0790  172.8370  144.5620 C   0  0  0  0  0  3  0  0  0  0  0  0
  190.3850  171.7700  143.2000 C   0  0  0  0  0  0  0  0  0  0  0  0
  192.6750  171.0040  143.1000 C   0  0  0  0  0  3  0  0  0  0  0  0
  190.7470  172.7580  144.1300 C   0  0  0  0  0  0  0  0  0  0  0  0
  193.0470  171.9550  144.0530 C   0  0  0  0  0  0  0  0  0  0  0  0
  190.1220  175.0970  144.6560 C   0  0  2  0  0  3  0  0  0  0  0  0
  189.7040  173.6390  144.7500 C   0  0  2  0  0  3  0  0  0  0  0  0
  190.2280  174.3640  145.9790 C   0  0  0  0  0  2  0  0  0  0  0  0
  188.8180  177.2520  145.0040 C   0  0  0  0  0  0  0  0  0  0  0  0
  189.8270  177.8360  145.4840 O   0  0  0  0  0  0  0  0  0  0  0  0
  188.9100  175.8950  144.5890 N   0  0  0  0  0  2  0  0  0  0  0  0
  187.5000  177.9580  144.8740 C   0  0  1  0  0  3  0  0  0  0  0  0
  187.8310  177.9620  142.3670 C   0  0  0  0  0  3  0  0  0  0  0  0
  185.4430  177.5370  139.5860 O   0  0  0  0  0  1  0  0  0  0  0  0
  185.9500  177.6570  140.8730 C   0  0  0  0  0  0  0  0  0  0  0  0
  187.3190  177.8540  141.0710 C   0  0  0  0  0  3  0  0  0  0  0  0
  185.6040  177.6880  143.2660 C   0  0  0  0  0  3  0  0  0  0  0  0
  185.0920  177.5760  141.9720 C   0  0  0  0  0  3  0  0  0  0  0  0
  186.9710  177.8800  143.4710 C   0  0  0  0  0  0  0  0  0  0  0  0
  186.4780  177.4820  145.9090 C   0  0  0  0  0  2  0  0  0  0  0  0
  186.4770  178.5480  147.9940 C   0  0  0  0  0  1  0  0  0  0  0  0
  185.9260  178.6020  146.6550 N   0  0  0  0  0  0  0  0  0  0  0  0
  184.5020  178.3480  146.7810 C   0  0  0  0  0  1  0  0  0  0  0  0
  194.4950  172.0510  144.4360 C   0  0  2  0  0  3  0  0  0  0  0  0
  194.5780  170.1950  145.9610 O   0  0  0  0  0  1  0  0  0  0  0  0
  194.8050  171.5710  145.8650 C   0  0  0  0  0  2  0  0  0  0  0  0
  195.0610  173.4440  144.1160 C   0  0  2  0  0  3  0  0  0  0  0  0
  194.8980  175.6340  142.3630 O   0  0  0  0  0  0  0  0  0  0  0  0
  196.6920  172.4480  142.4350 C   0  0  0  0  0  1  0  0  0  0  0  0
  195.5670  174.6390  141.9650 C   0  0  0  0  0  0  0  0  0  0  0  0
  195.7610  173.5050  142.8280 N   0  0  0  0  0  0  0  0  0  0  0  0
  196.1230  174.6690  140.5810 C   0  0  0  0  0  2  0  0  0  0  0  0
  195.0420  174.5710  139.6180 N   0  0  0  0  0  2  0  0  0  0  0  0
  194.8610  173.1630  139.3190 C   0  0  0  0  0  2  0  0  0  0  0  0
  193.4870  172.7340  139.7820 C   0  0  0  0  0  2  0  0  0  0  0  0
  191.1200  173.4050  140.0240 C   0  0  0  0  0  2  0  0  0  0  0  0
  192.5170  173.8940  139.6910 C   0  0  0  0  0  3  0  0  0  0  0  0
  191.5350  173.5910  138.5820 C   0  0  0  0  0  2  0  0  0  0  0  0
  195.8460  174.0750  145.2380 C   0  0  0  0  0  0  0  0  0  0  0  0
  197.1770  173.7280  145.4180 O   0  0  0  0  0  1  0  0  0  0  0  0
  195.2950  174.9670  146.0650 C   0  0  0  0  0  3  0  0  0  0  0  0
  193.8840  175.4300  145.9090 C   0  0  0  0  0  2  0  0  0  0  0  0
  193.8420  176.8340  145.4260 C   0  0  0  0  0  0  0  0  0  0  0  0
  194.8560  177.7500  145.8010 N   0  0  0  0  0  1  0  0  0  0  0  0
  192.9290  177.2030  144.6410 O   0  0  0  0  0  0  0  0  0  0  0  0
  1  5  2  0  0  0  0
  1  4  1  0  0  0  0
  2  4  1  0  0  0  0
  4  6  2  0  0  0  0
  5  7  1  0  0  0  0
  6  3  1  0  0  0  0
  7 26  1  0  0  0  0
  7  3  2  0  0  0  0
  8 13  1  1  0  0  0
  8  9  1  0  0  0  0
  8 10  1  0  0  0  0
  9  6  1  6  0  0  0
  9 10  1  0  0  0  0
 11 12  2  0  0  0  0
 13 11  1  0  0  0  0
 14 11  1  0  0  0  0
 14 22  1  1  0  0  0
 15 21  1  0  0  0  0
 16 17  1  0  0  0  0
 17 18  1  0  0  0  0
 17 20  2  0  0  0  0
 18 15  2  0  0  0  0
 19 21  2  0  0  0  0
 20 19  1  0  0  0  0
 21 14  1  0  0  0  0
 22 24  1  0  0  0  0
 24 25  1  0  0  0  0
 24 23  1  0  0  0  0
 26 28  1  1  0  0  0
 28 27  1  0  0  0  0
 29 26  1  0  0  0  0
 29 41  1  1  0  0  0
 31 33  1  0  0  0  0
 32 30  2  0  0  0  0
 32 33  1  0  0  0  0
 33 29  1  0  0  0  0
 34 32  1  0  0  0  0
 35 34  1  0  0  0  0
 36 35  1  0  0  0  0
 36 37  1  0  0  0  0
 39 37  1  0  0  0  0
 39 38  1  0  0  0  0
 40 39  1  0  0  0  0
 40 38  1  0  0  0  0
 41 42  1  0  0  0  0
 41 43  2  0  0  0  0
 44 43  1  0  0  0  0
 45 46  1  0  0  0  0
 45 44  1  0  0  0  0
 47 45  2  0  0  0  0
M  END
>  <MODEL>
5

>  <REMARK>
 VINA RESULT:      -5.9      2.524      5.253
  Name = 
  18 active torsions:
  status: ('A' for Active; 'I' for Inactive)
    1  A    between atoms: C_2  and  C_13
    2  A    between atoms: C_3  and  C_42
    3  A    between atoms: C_6  and  C_23
    4  A    between atoms: C_6  and  N_34
    5  A    between atoms: C_7  and  C_13
    6  A    between atoms: C_7  and  N_25
    7  A    between atoms: C_10  and  C_36
    8  A    between atoms: C_10  and  C_42
    9  A    between atoms: C_10  and  C_45
   10  A    between atoms: C_13  and  C_44
   11  A    between atoms: C_18  and  C_20
   12  A    between atoms: C_20  and  C_46
   13  A    between atoms: C_22  and  C_23
   14  A    between atoms: C_24  and  C_43
   15  A    between atoms: C_27  and  N_37
   16  A    between atoms: N_28  and  C_42
   17  A    between atoms: C_32  and  C_38
   18  A    between atoms: N_34  and  C_43
                            x       y       z     vdW  Elec       q    Type
                         _______ _______ _______ _____ _____    ______ ____

>  <TORSDO>
F 18

$$$$
=
 OpenBabel11072409053D

 47 50  0  0  1  0  0  0  0  0999 V2000
  191.9840  170.5560  142.3030 C   0  0  0  0  0  3  0  0  0  0  0  0
  189.6990  171.1380  142.0890 F   0  0  0  0  0  0  0  0  0  0  0  0
  192.3480  172.6320  144.1330 C   0  0  0  0  0  3  0  0  0  0  0  0
  190.9110  171.3820  142.6400 C   0  0  0  0  0  0  0  0  0  0  0  0
  193.2330  170.7590  142.8840 C   0  0  0  0  0  3  0  0  0  0  0  0
  191.0910  172.4430  143.5410 C   0  0  0  0  0  0  0  0  0  0  0  0
  193.4230  171.7860  143.8120 C   0  0  0  0  0  0  0  0  0  0  0  0
  190.0750  174.6990  143.4110 C   0  0  2  0  0  3  0  0  0  0  0  0
  189.9290  173.2900  143.9640 C   0  0  2  0  0  3  0  0  0  0  0  0
  190.3540  174.4280  144.8760 C   0  0  0  0  0  2  0  0  0  0  0  0
  188.4440  176.6080  143.0090 C   0  0  0  0  0  0  0  0  0  0  0  0
  189.3740  177.4580  143.0000 O   0  0  0  0  0  0  0  0  0  0  0  0
  188.7370  175.2320  143.2180 N   0  0  0  0  0  2  0  0  0  0  0  0
  187.0130  177.0190  142.8180 C   0  0  1  0  0  3  0  0  0  0  0  0
  186.1980  176.6650  145.1850 C   0  0  0  0  0  3  0  0  0  0  0  0
  184.8360  179.0190  147.6790 O   0  0  0  0  0  1  0  0  0  0  0  0
  185.3520  178.5200  146.4900 C   0  0  0  0  0  0  0  0  0  0  0  0
  185.6660  177.1630  146.3770 C   0  0  0  0  0  3  0  0  0  0  0  0
  186.0910  178.8770  144.2150 C   0  0  0  0  0  3  0  0  0  0  0  0
  185.5640  179.3770  145.4080 C   0  0  0  0  0  3  0  0  0  0  0  0
  186.4110  177.5240  144.0970 C   0  0  0  0  0  0  0  0  0  0  0  0
  186.8400  178.0100  141.6630 C   0  0  0  0  0  2  0  0  0  0  0  0
  186.5340  177.3510  139.4360 C   0  0  0  0  0  1  0  0  0  0  0  0
  185.8560  177.5300  140.7040 N   0  0  0  0  0  0  0  0  0  0  0  0
  184.9060  178.6110  140.5180 C   0  0  0  0  0  1  0  0  0  0  0  0
  194.8010  171.9950  144.3700 C   0  0  2  0  0  3  0  0  0  0  0  0
  194.9560  170.1200  145.8660 O   0  0  0  0  0  1  0  0  0  0  0  0
  194.9740  171.5180  145.8220 C   0  0  0  0  0  2  0  0  0  0  0  0
  195.2800  173.4360  144.1320 C   0  0  2  0  0  3  0  0  0  0  0  0
  195.1070  175.7070  142.4870 O   0  0  0  0  0  0  0  0  0  0  0  0
  197.0430  172.6050  142.4950 C   0  0  0  0  0  1  0  0  0  0  0  0
  195.8420  174.7660  142.0760 C   0  0  0  0  0  0  0  0  0  0  0  0
  196.0440  173.5970  142.8900 N   0  0  0  0  0  0  0  0  0  0  0  0
  196.4690  174.8940  140.7290 C   0  0  0  0  0  2  0  0  0  0  0  0
  195.5350  175.5250  139.8140 N   0  0  0  0  0  2  0  0  0  0  0  0
  195.6470  174.8330  138.5430 C   0  0  0  0  0  2  0  0  0  0  0  0
  196.9060  175.2940  137.8420 C   0  0  0  0  0  2  0  0  0  0  0  0
  197.1730  176.3610  135.6300 C   0  0  0  0  0  2  0  0  0  0  0  0
  196.7800  175.0850  136.3470 C   0  0  0  0  0  3  0  0  0  0  0  0
  195.7130  176.0250  135.8360 C   0  0  0  0  0  2  0  0  0  0  0  0
  195.9540  174.0770  145.3190 C   0  0  0  0  0  0  0  0  0  0  0  0
  197.2890  173.8000  145.5770 O   0  0  0  0  0  1  0  0  0  0  0  0
  195.3000  174.9110  146.1310 C   0  0  0  0  0  3  0  0  0  0  0  0
  193.8770  175.2980  145.8960 C   0  0  0  0  0  2  0  0  0  0  0  0
  193.7790  176.7310  145.5170 C   0  0  0  0  0  0  0  0  0  0  0  0
  192.7530  177.1710  144.6440 N   0  0  0  0  0  1  0  0  0  0  0  0
  194.5800  177.5690  146.0080 O   0  0  0  0  0  0  0  0  0  0  0  0
  1  4  2  0  0  0  0
  1  5  1  0  0  0  0
  2  4  1  0  0  0  0
  4  6  1  0  0  0  0
  5  7  2  0  0  0  0
  6  3  2  0  0  0  0
  7  3  1  0  0  0  0
  7 26  1  0  0  0  0
  8 13  1  1  0  0  0
  8  9  1  0  0  0  0
  8 10  1  0  0  0  0
  9  6  1  6  0  0  0
  9 10  1  0  0  0  0
 11 13  1  0  0  0  0
 12 11  2  0  0  0  0
 14 22  1  6  0  0  0
 14 11  1  0  0  0  0
 14 21  1  0  0  0  0
 15 18  1  0  0  0  0
 17 16  1  0  0  0  0
 18 17  2  0  0  0  0
 19 20  2  0  0  0  0
 20 17  1  0  0  0  0
 21 19  1  0  0  0  0
 21 15  2  0  0  0  0
 23 24  1  0  0  0  0
 24 22  1  0  0  0  0
 25 24  1  0  0  0  0
 26 28  1  1  0  0  0
 28 27  1  0  0  0  0
 29 26  1  0  0  0  0
 29 41  1  1  0  0  0
 31 33  1  0  0  0  0
 32 30  2  0  0  0  0
 32 33  1  0  0  0  0
 33 29  1  0  0  0  0
 34 32  1  0  0  0  0
 35 34  1  0  0  0  0
 36 35  1  0  0  0  0
 37 36  1  0  0  0  0
 38 40  1  0  0  0  0
 38 39  1  0  0  0  0
 39 37  1  0  0  0  0
 40 39  1  0  0  0  0
 41 42  1  0  0  0  0
 41 43  2  0  0  0  0
 44 43  1  0  0  0  0
 45 44  1  0  0  0  0
 45 47  2  0  0  0  0
 46 45  1  0  0  0  0
M  END
>  <MODEL>
6

>  <REMARK>
 VINA RESULT:      -5.6      2.271      5.554
  Name = 
  18 active torsions:
  status: ('A' for Active; 'I' for Inactive)
    1  A    between atoms: C_2  and  C_13
    2  A    between atoms: C_3  and  C_42
    3  A    between atoms: C_6  and  C_23
    4  A    between atoms: C_6  and  N_34
    5  A    between atoms: C_7  and  C_13
    6  A    between atoms: C_7  and  N_25
    7  A    between atoms: C_10  and  C_36
    8  A    between atoms: C_10  and  C_42
    9  A    between atoms: C_10  and  C_45
   10  A    between atoms: C_13  and  C_44
   11  A    between atoms: C_18  and  C_20
   12  A    between atoms: C_20  and  C_46
   13  A    between atoms: C_22  and  C_23
   14  A    between atoms: C_24  and  C_43
   15  A    between atoms: C_27  and  N_37
   16  A    between atoms: N_28  and  C_42
   17  A    between atoms: C_32  and  C_38
   18  A    between atoms: N_34  and  C_43
                            x       y       z     vdW  Elec       q    Type
                         _______ _______ _______ _____ _____    ______ ____

>  <TORSDO>
F 18

$$$$
=
 OpenBabel11072409053D

 47 50  0  0  1  0  0  0  0  0999 V2000
  195.2880  175.1900  145.9460 C   0  0  0  0  0  3  0  0  0  0  0  0
  193.6400  176.8740  145.7150 F   0  0  0  0  0  0  0  0  0  0  0  0
  193.4610  173.2720  145.0630 C   0  0  0  0  0  3  0  0  0  0  0  0
  193.9850  175.5690  145.6220 C   0  0  0  0  0  0  0  0  0  0  0  0
  195.6820  173.8600  145.8220 C   0  0  0  0  0  3  0  0  0  0  0  0
  193.0530  174.6070  145.1990 C   0  0  0  0  0  0  0  0  0  0  0  0
  194.7800  172.8940  145.3680 C   0  0  0  0  0  0  0  0  0  0  0  0
  190.7810  175.1860  145.9990 C   0  0  2  0  0  3  0  0  0  0  0  0
  191.6730  175.0160  144.7790 C   0  0  2  0  0  3  0  0  0  0  0  0
  190.6370  173.9590  145.1210 C   0  0  0  0  0  2  0  0  0  0  0  0
  188.4710  176.2270  146.2210 C   0  0  0  0  0  0  0  0  0  0  0  0
  188.1030  175.3400  147.0370 O   0  0  0  0  0  0  0  0  0  0  0  0
  189.7820  176.1900  145.6710 N   0  0  0  0  0  2  0  0  0  0  0  0
  187.5420  177.3270  145.7960 C   0  0  1  0  0  3  0  0  0  0  0  0
  186.1950  176.6570  143.7640 C   0  0  0  0  0  3  0  0  0  0  0  0
  186.6540  177.3940  140.1770 O   0  0  0  0  0  1  0  0  0  0  0  0
  186.8730  177.3590  141.5480 C   0  0  0  0  0  0  0  0  0  0  0  0
  185.9820  176.6800  142.3830 C   0  0  0  0  0  3  0  0  0  0  0  0
  188.1990  177.9800  143.4730 C   0  0  0  0  0  3  0  0  0  0  0  0
  187.9830  178.0070  142.0940 C   0  0  0  0  0  3  0  0  0  0  0  0
  187.3100  177.3080  144.3140 C   0  0  0  0  0  0  0  0  0  0  0  0
  186.2330  177.3240  146.5910 C   0  0  0  0  0  2  0  0  0  0  0  0
  186.4140  179.1120  148.0930 C   0  0  0  0  0  1  0  0  0  0  0  0
  185.7820  178.6800  146.8620 N   0  0  0  0  0  0  0  0  0  0  0  0
  184.3590  178.5910  147.1350 C   0  0  0  0  0  1  0  0  0  0  0  0
  195.2390  171.4670  145.3010 C   0  0  2  0  0  3  0  0  0  0  0  0
  196.4320  170.2010  146.9590 O   0  0  0  0  0  1  0  0  0  0  0  0
  196.5860  171.2020  145.9960 C   0  0  0  0  0  2  0  0  0  0  0  0
  195.1710  170.9320  143.8620 C   0  0  2  0  0  3  0  0  0  0  0  0
  194.0180  170.5880  141.3220 O   0  0  0  0  0  0  0  0  0  0  0  0
  193.4250  169.2700  144.6810 C   0  0  0  0  0  1  0  0  0  0  0  0
  193.4360  170.0200  142.2890 C   0  0  0  0  0  0  0  0  0  0  0  0
  193.9980  170.0860  143.6120 N   0  0  0  0  0  0  0  0  0  0  0  0
  192.1530  169.3090  142.0230 C   0  0  0  0  0  2  0  0  0  0  0  0
  191.1530  170.2580  141.5680 N   0  0  0  0  0  2  0  0  0  0  0  0
  190.8300  171.1130  142.6950 C   0  0  0  0  0  2  0  0  0  0  0  0
  189.7890  172.1230  142.2630 C   0  0  0  0  0  2  0  0  0  0  0  0
  189.4060  174.4270  141.4570 C   0  0  0  0  0  2  0  0  0  0  0  0
  190.4590  173.3690  141.7230 C   0  0  0  0  0  3  0  0  0  0  0  0
  189.9500  173.5950  140.3170 C   0  0  0  0  0  2  0  0  0  0  0  0
  196.4530  170.3160  143.3590 C   0  0  0  0  0  0  0  0  0  0  0  0
  196.7250  168.9850  143.6390 O   0  0  0  0  0  1  0  0  0  0  0  0
  197.3360  171.0190  142.6460 C   0  0  0  0  0  3  0  0  0  0  0  0
  197.0960  172.4420  142.2610 C   0  0  0  0  0  2  0  0  0  0  0  0
  197.3520  172.6440  140.8120 C   0  0  0  0  0  0  0  0  0  0  0  0
  197.9400  173.8480  140.3510 N   0  0  0  0  0  1  0  0  0  0  0  0
  197.0900  171.7250  139.9920 O   0  0  0  0  0  0  0  0  0  0  0  0
  3  6  2  0  0  0  0
  3  7  1  0  0  0  0
  4  2  1  0  0  0  0
  4  1  2  0  0  0  0
  5  1  1  0  0  0  0
  6  4  1  0  0  0  0
  7  5  2  0  0  0  0
  8 13  1  6  0  0  0
  9 10  1  0  0  0  0
  9  6  1  1  0  0  0
  9  8  1  0  0  0  0
 10  8  1  0  0  0  0
 11 12  2  0  0  0  0
 13 11  1  0  0  0  0
 14 11  1  0  0  0  0
 14 22  1  1  0  0  0
 15 21  1  0  0  0  0
 16 17  1  0  0  0  0
 17 20  2  0  0  0  0
 17 18  1  0  0  0  0
 18 15  2  0  0  0  0
 19 21  2  0  0  0  0
 20 19  1  0  0  0  0
 21 14  1  0  0  0  0
 22 24  1  0  0  0  0
 24 25  1  0  0  0  0
 24 23  1  0  0  0  0
 26  7  1  0  0  0  0
 26 28  1  6  0  0  0
 28 27  1  0  0  0  0
 29 41  1  1  0  0  0
 29 26  1  0  0  0  0
 30 32  2  0  0  0  0
 32 33  1  0  0  0  0
 33 29  1  0  0  0  0
 33 31  1  0  0  0  0
 34 32  1  0  0  0  0
 35 34  1  0  0  0  0
 35 36  1  0  0  0  0
 37 36  1  0  0  0  0
 38 39  1  0  0  0  0
 39 37  1  0  0  0  0
 40 38  1  0  0  0  0
 40 39  1  0  0  0  0
 41 42  1  0  0  0  0
 43 41  2  0  0  0  0
 44 43  1  0  0  0  0
 45 44  1  0  0  0  0
 46 45  1  0  0  0  0
 47 45  2  0  0  0  0
M  END
>  <MODEL>
7

>  <REMARK>
 VINA RESULT:      -5.4      2.596      4.153
  Name = 
  18 active torsions:
  status: ('A' for Active; 'I' for Inactive)
    1  A    between atoms: C_2  and  C_13
    2  A    between atoms: C_3  and  C_42
    3  A    between atoms: C_6  and  C_23
    4  A    between atoms: C_6  and  N_34
    5  A    between atoms: C_7  and  C_13
    6  A    between atoms: C_7  and  N_25
    7  A    between atoms: C_10  and  C_36
    8  A    between atoms: C_10  and  C_42
    9  A    between atoms: C_10  and  C_45
   10  A    between atoms: C_13  and  C_44
   11  A    between atoms: C_18  and  C_20
   12  A    between atoms: C_20  and  C_46
   13  A    between atoms: C_22  and  C_23
   14  A    between atoms: C_24  and  C_43
   15  A    between atoms: C_27  and  N_37
   16  A    between atoms: N_28  and  C_42
   17  A    between atoms: C_32  and  C_38
   18  A    between atoms: N_34  and  C_43
                            x       y       z     vdW  Elec       q    Type
                         _______ _______ _______ _____ _____    ______ ____

>  <TORSDO>
F 18

$$$$
=
 OpenBabel11072409053D

 47 50  0  0  1  0  0  0  0  0999 V2000
  191.4750  172.0600  138.4350 C   0  0  0  0  0  3  0  0  0  0  0  0
  189.1980  171.8280  139.0390 F   0  0  0  0  0  0  0  0  0  0  0  0
  191.9080  173.6830  140.6650 C   0  0  0  0  0  3  0  0  0  0  0  0
  190.4160  172.3600  139.2930 C   0  0  0  0  0  0  0  0  0  0  0  0
  192.7480  172.5610  138.6930 C   0  0  0  0  0  3  0  0  0  0  0  0
  190.6200  173.1950  140.4030 C   0  0  0  0  0  0  0  0  0  0  0  0
  192.9790  173.3630  139.8140 C   0  0  0  0  0  0  0  0  0  0  0  0
  189.6910  174.8230  142.0230 C   0  0  2  0  0  3  0  0  0  0  0  0
  189.5050  173.4630  141.3700 C   0  0  2  0  0  3  0  0  0  0  0  0
  190.0040  173.5600  142.8020 C   0  0  0  0  0  2  0  0  0  0  0  0
  188.0830  176.6960  142.6330 C   0  0  0  0  0  0  0  0  0  0  0  0
  189.0090  177.5510  142.6260 O   0  0  0  0  0  0  0  0  0  0  0  0
  188.3700  175.3320  142.3520 N   0  0  0  0  0  2  0  0  0  0  0  0
  186.6690  177.0840  142.9540 C   0  0  1  0  0  3  0  0  0  0  0  0
  187.1270  176.7290  145.4150 C   0  0  0  0  0  3  0  0  0  0  0  0
  186.1600  178.6900  148.3880 O   0  0  0  0  0  1  0  0  0  0  0  0
  186.2750  178.2820  147.0650 C   0  0  0  0  0  0  0  0  0  0  0  0
  187.0010  177.1320  146.7470 C   0  0  0  0  0  3  0  0  0  0  0  0
  185.7920  178.6220  144.7200 C   0  0  0  0  0  3  0  0  0  0  0  0
  185.6690  179.0260  146.0510 C   0  0  0  0  0  3  0  0  0  0  0  0
  186.5190  177.4760  144.3950 C   0  0  0  0  0  0  0  0  0  0  0  0
  186.1270  178.1540  142.0010 C   0  0  0  0  0  2  0  0  0  0  0  0
  186.3270  177.5400  139.7500 C   0  0  0  0  0  1  0  0  0  0  0  0
  185.4220  177.5490  140.8810 N   0  0  0  0  0  0  0  0  0  0  0  0
  184.3410  178.4560  140.5410 C   0  0  0  0  0  1  0  0  0  0  0  0
  194.3580  173.9200  140.0190 C   0  0  2  0  0  3  0  0  0  0  0  0
  195.8140  174.5540  138.2150 O   0  0  0  0  0  1  0  0  0  0  0  0
  195.3880  173.4590  138.9730 C   0  0  0  0  0  2  0  0  0  0  0  0
  194.8220  173.7250  141.4710 C   0  0  2  0  0  3  0  0  0  0  0  0
  194.4870  173.9620  144.2510 O   0  0  0  0  0  0  0  0  0  0  0  0
  195.4540  176.1910  141.5170 C   0  0  0  0  0  1  0  0  0  0  0  0
  194.7300  175.0280  143.6170 C   0  0  0  0  0  0  0  0  0  0  0  0
  194.9860  174.9870  142.2020 N   0  0  0  0  0  0  0  0  0  0  0  0
  194.7220  176.3150  144.3700 C   0  0  0  0  0  2  0  0  0  0  0  0
  194.9420  176.0570  145.7810 N   0  0  0  0  0  2  0  0  0  0  0  0
  193.8730  176.7150  146.5100 C   0  0  0  0  0  2  0  0  0  0  0  0
  192.7920  175.7020  146.8160 C   0  0  0  0  0  2  0  0  0  0  0  0
  190.3630  175.3290  147.0750 C   0  0  0  0  0  2  0  0  0  0  0  0
  191.4350  176.3750  146.8430 C   0  0  0  0  0  3  0  0  0  0  0  0
  190.6310  175.8440  145.6790 C   0  0  0  0  0  2  0  0  0  0  0  0
  196.0000  172.7980  141.6340 C   0  0  0  0  0  0  0  0  0  0  0  0
  197.2840  173.2840  141.4280 O   0  0  0  0  0  1  0  0  0  0  0  0
  195.8430  171.5180  141.9770 C   0  0  0  0  0  3  0  0  0  0  0  0
  194.5010  170.9300  142.2630 C   0  0  0  0  0  2  0  0  0  0  0  0
  194.0290  170.1150  141.1140 C   0  0  0  0  0  0  0  0  0  0  0  0
  194.9600  169.5260  140.2230 N   0  0  0  0  0  1  0  0  0  0  0  0
  192.7970  169.9030  140.9550 O   0  0  0  0  0  0  0  0  0  0  0  0
  1  5  2  0  0  0  0
  1  4  1  0  0  0  0
  2  4  1  0  0  0  0
  4  6  2  0  0  0  0
  5  7  1  0  0  0  0
  6  3  1  0  0  0  0
  7 26  1  0  0  0  0
  7  3  2  0  0  0  0
  8 13  1  1  0  0  0
  8 10  1  0  0  0  0
  9  6  1  6  0  0  0
  9  8  1  0  0  0  0
  9 10  1  0  0  0  0
 11 14  1  0  0  0  0
 12 11  2  0  0  0  0
 13 11  1  0  0  0  0
 14 22  1  6  0  0  0
 14 21  1  0  0  0  0
 15 18  1  0  0  0  0
 17 16  1  0  0  0  0
 18 17  2  0  0  0  0
 19 20  2  0  0  0  0
 20 17  1  0  0  0  0
 21 19  1  0  0  0  0
 21 15  2  0  0  0  0
 23 24  1  0  0  0  0
 24 22  1  0  0  0  0
 25 24  1  0  0  0  0
 26 28  1  6  0  0  0
 26 29  1  0  0  0  0
 27 28  1  0  0  0  0
 29 41  1  6  0  0  0
 29 33  1  0  0  0  0
 31 33  1  0  0  0  0
 32 30  2  0  0  0  0
 32 34  1  0  0  0  0
 33 32  1  0  0  0  0
 34 35  1  0  0  0  0
 35 36  1  0  0  0  0
 36 37  1  0  0  0  0
 37 39  1  0  0  0  0
 39 38  1  0  0  0  0
 40 39  1  0  0  0  0
 40 38  1  0  0  0  0
 41 43  2  0  0  0  0
 42 41  1  0  0  0  0
 43 44  1  0  0  0  0
 45 44  1  0  0  0  0
 46 45  1  0  0  0  0
 47 45  2  0  0  0  0
M  END
>  <MODEL>
8

>  <REMARK>
 VINA RESULT:      -5.3      2.641      4.487
  Name = 
  18 active torsions:
  status: ('A' for Active; 'I' for Inactive)
    1  A    between atoms: C_2  and  C_13
    2  A    between atoms: C_3  and  C_42
    3  A    between atoms: C_6  and  C_23
    4  A    between atoms: C_6  and  N_34
    5  A    between atoms: C_7  and  C_13
    6  A    between atoms: C_7  and  N_25
    7  A    between atoms: C_10  and  C_36
    8  A    between atoms: C_10  and  C_42
    9  A    between atoms: C_10  and  C_45
   10  A    between atoms: C_13  and  C_44
   11  A    between atoms: C_18  and  C_20
   12  A    between atoms: C_20  and  C_46
   13  A    between atoms: C_22  and  C_23
   14  A    between atoms: C_24  and  C_43
   15  A    between atoms: C_27  and  N_37
   16  A    between atoms: N_28  and  C_42
   17  A    between atoms: C_32  and  C_38
   18  A    between atoms: N_34  and  C_43
                            x       y       z     vdW  Elec       q    Type
                         _______ _______ _______ _____ _____    ______ ____

>  <TORSDO>
F 18

$$$$
=
 OpenBabel11072409053D

 47 50  0  0  1  0  0  0  0  0999 V2000
  193.2870  176.1480  147.1440 C   0  0  0  0  0  3  0  0  0  0  0  0
  191.0870  177.0180  147.0540 F   0  0  0  0  0  0  0  0  0  0  0  0
  193.5390  176.4810  144.3840 C   0  0  0  0  0  3  0  0  0  0  0  0
  192.2200  176.6610  146.4060 C   0  0  0  0  0  0  0  0  0  0  0  0
  194.4790  175.8100  146.5090 C   0  0  0  0  0  3  0  0  0  0  0  0
  192.3300  176.8100  145.0140 C   0  0  0  0  0  0  0  0  0  0  0  0
  194.6220  175.9850  145.1310 C   0  0  0  0  0  0  0  0  0  0  0  0
  190.3550  176.3460  143.5920 C   0  0  2  0  0  3  0  0  0  0  0  0
  191.2160  177.4280  144.2230 C   0  0  2  0  0  3  0  0  0  0  0  0
  191.3350  177.1250  142.7390 C   0  0  0  0  0  2  0  0  0  0  0  0
  187.8860  176.1250  143.0260 C   0  0  0  0  0  0  0  0  0  0  0  0
  188.0260  174.9180  142.6900 O   0  0  0  0  0  0  0  0  0  0  0  0
  189.0080  176.8770  143.4690 N   0  0  0  0  0  2  0  0  0  0  0  0
  186.5480  176.8020  142.9520 C   0  0  1  0  0  3  0  0  0  0  0  0
  185.7960  178.6700  144.4810 C   0  0  0  0  0  3  0  0  0  0  0  0
  184.8080  178.6680  148.0370 O   0  0  0  0  0  1  0  0  0  0  0  0
  185.2480  178.2240  146.7970 C   0  0  0  0  0  0  0  0  0  0  0  0
  185.3660  179.1210  145.7320 C   0  0  0  0  0  3  0  0  0  0  0  0
  186.0010  176.4270  145.3630 C   0  0  0  0  0  3  0  0  0  0  0  0
  185.5670  176.8770  146.6120 C   0  0  0  0  0  3  0  0  0  0  0  0
  186.1170  177.3170  144.2940 C   0  0  0  0  0  0  0  0  0  0  0  0
  186.5010  177.8860  141.8710 C   0  0  0  0  0  2  0  0  0  0  0  0
  186.6420  177.5300  139.5600 C   0  0  0  0  0  1  0  0  0  0  0  0
  185.7600  177.4300  140.7050 N   0  0  0  0  0  0  0  0  0  0  0  0
  184.6960  178.3960  140.4940 C   0  0  0  0  0  1  0  0  0  0  0  0
  195.9080  175.5570  144.4870 C   0  0  2  0  0  3  0  0  0  0  0  0
  197.1980  175.6800  142.4630 O   0  0  0  0  0  1  0  0  0  0  0  0
  196.3220  176.4080  143.2740 C   0  0  0  0  0  2  0  0  0  0  0  0
  195.9100  174.0450  144.2100 C   0  0  2  0  0  3  0  0  0  0  0  0
  194.3030  173.9000  141.9100 O   0  0  0  0  0  0  0  0  0  0  0  0
  194.0290  172.7960  145.3850 C   0  0  0  0  0  1  0  0  0  0  0  0
  193.7890  173.4840  142.9860 C   0  0  0  0  0  0  0  0  0  0  0  0
  194.5660  173.4550  144.1960 N   0  0  0  0  0  0  0  0  0  0  0  0
  192.3630  173.0490  142.9660 C   0  0  0  0  0  2  0  0  0  0  0  0
  191.8920  172.9820  141.5950 N   0  0  0  0  0  2  0  0  0  0  0  0
  191.0200  171.8260  141.4970 C   0  0  0  0  0  2  0  0  0  0  0  0
  190.3010  171.8630  140.1670 C   0  0  0  0  0  2  0  0  0  0  0  0
  190.5950  173.4080  138.2610 C   0  0  0  0  0  2  0  0  0  0  0  0
  191.2480  172.3050  139.0710 C   0  0  0  0  0  3  0  0  0  0  0  0
  190.5990  171.9880  137.7430 C   0  0  0  0  0  2  0  0  0  0  0  0
  196.8860  173.2550  145.0460 C   0  0  0  0  0  0  0  0  0  0  0  0
  197.1330  173.6430  146.3550 O   0  0  0  0  0  1  0  0  0  0  0  0
  197.5190  172.1850  144.5610 C   0  0  0  0  0  3  0  0  0  0  0  0
  197.2720  171.6730  143.1790 C   0  0  0  0  0  2  0  0  0  0  0  0
  196.3030  170.5470  143.2010 C   0  0  0  0  0  0  0  0  0  0  0  0
  196.1310  169.7740  144.3760 N   0  0  0  0  0  1  0  0  0  0  0  0
  195.5950  170.3060  142.1880 O   0  0  0  0  0  0  0  0  0  0  0  0
  3  6  2  0  0  0  0
  3  7  1  0  0  0  0
  4  2  1  0  0  0  0
  4  1  2  0  0  0  0
  5  1  1  0  0  0  0
  6  4  1  0  0  0  0
  7  5  2  0  0  0  0
  8 13  1  6  0  0  0
  8  9  1  0  0  0  0
  9  6  1  1  0  0  0
 10  8  1  0  0  0  0
 10  9  1  0  0  0  0
 11 13  1  0  0  0  0
 12 11  2  0  0  0  0
 14 22  1  6  0  0  0
 14 11  1  0  0  0  0
 14 21  1  0  0  0  0
 15 18  1  0  0  0  0
 17 16  1  0  0  0  0
 18 17  2  0  0  0  0
 19 20  2  0  0  0  0
 20 17  1  0  0  0  0
 21 15  2  0  0  0  0
 21 19  1  0  0  0  0
 23 24  1  0  0  0  0
 24 22  1  0  0  0  0
 25 24  1  0  0  0  0
 26 28  1  6  0  0  0
 26  7  1  0  0  0  0
 27 28  1  0  0  0  0
 29 26  1  0  0  0  0
 29 41  1  1  0  0  0
 30 32  2  0  0  0  0
 32 33  1  0  0  0  0
 33 29  1  0  0  0  0
 33 31  1  0  0  0  0
 34 32  1  0  0  0  0
 35 34  1  0  0  0  0
 36 35  1  0  0  0  0
 37 36  1  0  0  0  0
 38 39  1  0  0  0  0
 39 37  1  0  0  0  0
 40 38  1  0  0  0  0
 40 39  1  0  0  0  0
 41 42  1  0  0  0  0
 43 41  2  0  0  0  0
 44 45  1  0  0  0  0
 44 43  1  0  0  0  0
 45 46  1  0  0  0  0
 47 45  2  0  0  0  0
M  END
>  <MODEL>
9

>  <REMARK>
 VINA RESULT:      -5.3      1.977      3.248
  Name = 
  18 active torsions:
  status: ('A' for Active; 'I' for Inactive)
    1  A    between atoms: C_2  and  C_13
    2  A    between atoms: C_3  and  C_42
    3  A    between atoms: C_6  and  C_23
    4  A    between atoms: C_6  and  N_34
    5  A    between atoms: C_7  and  C_13
    6  A    between atoms: C_7  and  N_25
    7  A    between atoms: C_10  and  C_36
    8  A    between atoms: C_10  and  C_42
    9  A    between atoms: C_10  and  C_45
   10  A    between atoms: C_13  and  C_44
   11  A    between atoms: C_18  and  C_20
   12  A    between atoms: C_20  and  C_46
   13  A    between atoms: C_22  and  C_23
   14  A    between atoms: C_24  and  C_43
   15  A    between atoms: C_27  and  N_37
   16  A    between atoms: N_28  and  C_42
   17  A    between atoms: C_32  and  C_38
   18  A    between atoms: N_34  and  C_43
                            x       y       z     vdW  Elec       q    Type
                         _______ _______ _______ _____ _____    ______ ____

>  <TORSDO>
F 18

$$$$
