=
 OpenBabel11062421503D

 48 52  0  0  1  0  0  0  0  0999 V2000
  188.3010  176.6830  143.7770 C   0  0  0  0  0  0  0  0  0  0  0  0
  187.4310  174.9840  141.9980 C   0  0  0  0  0  3  0  0  0  0  0  0
  187.8520  175.8370  142.8870 C   0  0  0  0  0  0  0  0  0  0  0  0
  189.4880  176.2640  144.5950 C   0  0  2  0  0  3  0  0  0  0  0  0
  190.7720  176.4110  146.7160 C   0  0  0  0  0  2  0  0  0  0  0  0
  189.5910  174.8610  144.6180 O   0  0  0  0  0  0  0  0  0  0  0  0
  190.9010  174.5690  145.0420 C   0  0  1  0  0  3  0  0  0  0  0  0
  189.4670  176.8070  146.0300 C   0  0  0  0  0  2  0  0  0  0  0  0
  191.0490  174.9190  146.5230 C   0  0  0  0  0  2  0  0  0  0  0  0
  191.1690  173.2100  144.8530 O   0  0  0  0  0  0  0  0  0  0  0  0
  192.5320  173.0680  145.1260 C   0  0  0  0  0  2  0  0  0  0  0  0
  193.2430  172.4210  143.9480 C   0  0  0  0  0  2  0  0  0  0  0  0
  194.2060  173.4060  143.2970 C   0  0  0  0  0  2  0  0  0  0  0  0
  195.2140  173.9500  144.3050 C   0  0  2  0  0  3  0  0  0  0  0  0
  195.5780  175.3860  144.0370 C   0  0  0  0  0  0  0  0  0  0  0  0
  196.2670  175.7080  142.9350 C   0  0  0  0  0  2  0  0  0  0  0  0
  194.5000  176.0010  146.2190 C   0  0  0  0  0  2  0  0  0  0  0  0
  195.5360  176.3820  145.1720 C   0  0  2  0  0  3  0  0  0  0  0  0
  193.2650  176.7550  144.3280 O   0  0  0  0  0  1  0  0  0  0  0  0
  194.2140  177.1570  145.2790 C   0  0  1  0  0  3  0  0  0  0  0  0
  196.4520  173.0680  144.3430 C   0  0  0  0  0  2  0  0  0  0  0  0
  196.7420  172.6530  145.7800 C   0  0  0  0  0  2  0  0  0  0  0  0
  197.1980  171.2990  145.8240 O   0  0  0  0  0  0  0  0  0  0  0  0
  196.9930  169.1220  146.9110 N   0  0  0  0  0  1  0  0  0  0  0  0
  195.1380  170.2910  146.1450 O   0  0  0  0  0  0  0  0  0  0  0  0
  196.3920  170.2480  146.2750 C   0  0  0  0  0  0  0  0  0  0  0  0
  188.2940  174.6540  140.8290 C   0  0  0  0  0  2  0  0  0  0  0  0
  191.7310  171.2190  140.8350 C   0  0  0  0  0  1  0  0  0  0  0  0
  190.3010  171.4940  140.8460 N   0  0  0  0  0  0  0  0  0  0  0  0
  189.8320  171.5790  139.4660 C   0  0  0  0  0  2  0  0  0  0  0  0
  188.6300  173.1680  140.8160 C   0  0  2  0  0  3  0  0  0  0  0  0
  189.9540  172.7810  141.4670 C   0  0  2  0  0  3  0  0  0  0  0  0
  188.7370  172.6370  139.4080 C   0  0  0  0  0  2  0  0  0  0  0  0
  191.0290  173.8650  141.2610 C   0  0  0  0  0  1  0  0  0  0  0  0
  187.5750  177.9810  144.0480 C   0  0  2  0  0  3  0  0  0  0  0  0
  186.5300  177.9430  145.1380 C   0  0  0  0  0  0  0  0  0  0  0  0
  186.1830  179.1350  145.7920 C   0  0  0  0  0  3  0  0  0  0  0  0
  184.9080  176.7480  146.4980 C   0  0  0  0  0  3  0  0  0  0  0  0
  184.5690  177.9430  147.1470 C   0  0  0  0  0  3  0  0  0  0  0  0
  185.8850  176.7470  145.4980 C   0  0  0  0  0  3  0  0  0  0  0  0
  185.2090  179.1340  146.7970 C   0  0  0  0  0  3  0  0  0  0  0  0
  187.1540  178.6620  142.8570 O   0  0  0  0  0  0  0  0  0  0  0  0
  183.5940  178.0120  140.6980 C   0  0  0  0  0  3  0  0  0  0  0  0
  184.6980  178.5210  142.7940 C   0  0  0  0  0  3  0  0  0  0  0  0
  186.0100  178.1530  140.7940 C   0  0  0  0  0  3  0  0  0  0  0  0
  185.9520  178.4450  142.1630 C   0  0  0  0  0  0  0  0  0  0  0  0
  184.8370  177.9330  140.0630 C   0  0  0  0  0  3  0  0  0  0  0  0
  183.5230  178.3070  142.0630 C   0  0  0  0  0  3  0  0  0  0  0  0
  1 35  1  0  0  0  0
  2  3  2  0  0  0  0
  3  1  2  0  0  0  0
  4  1  1  1  0  0  0
  4  6  1  0  0  0  0
  4  8  1  0  0  0  0
  6  7  1  0  0  0  0
  7 10  1  1  0  0  0
  7  9  1  0  0  0  0
  8  5  1  0  0  0  0
  9  5  1  0  0  0  0
 10 11  1  0  0  0  0
 12 11  1  0  0  0  0
 13 12  1  0  0  0  0
 14 13  1  6  0  0  0
 14 21  1  0  0  0  0
 15 14  1  0  0  0  0
 16 15  2  0  0  0  0
 18 15  1  6  0  0  0
 18 20  1  0  0  0  0
 18 17  1  0  0  0  0
 20 19  1  6  0  0  0
 20 17  1  0  0  0  0
 21 22  1  0  0  0  0
 22 23  1  0  0  0  0
 23 26  1  0  0  0  0
 25 26  2  0  0  0  0
 26 24  1  0  0  0  0
 27  2  1  0  0  0  0
 28 29  1  0  0  0  0
 29 32  1  0  0  0  0
 30 29  1  0  0  0  0
 31 27  1  6  0  0  0
 31 32  1  0  0  0  0
 32 34  1  6  0  0  0
 33 30  1  0  0  0  0
 33 31  1  0  0  0  0
 35 42  1  6  0  0  0
 35 36  1  0  0  0  0
 36 40  2  0  0  0  0
 36 37  1  0  0  0  0
 37 41  2  0  0  0  0
 38 39  2  0  0  0  0
 40 38  1  0  0  0  0
 41 39  1  0  0  0  0
 43 48  1  0  0  0  0
 45 46  2  0  0  0  0
 46 44  1  0  0  0  0
 46 42  1  0  0  0  0
 47 43  2  0  0  0  0
 47 45  1  0  0  0  0
 48 44  2  0  0  0  0
M  END
>  <MODEL>
1

>  <REMARK>
 VINA RESULT:      -7.0      0.000      0.000
  Name = 
  18 active torsions:
  status: ('A' for Active; 'I' for Inactive)
    1  A    between atoms: C_2  and  C_15
    2  A    between atoms: O_6  and  C_16
    3  A    between atoms: O_6  and  C_30
    4  A    between atoms: C_10  and  C_16
    5  A    between atoms: C_10  and  C_25
    6  A    between atoms: C_11  and  C_39
    7  A    between atoms: C_13  and  C_18
    8  A    between atoms: C_15  and  C_18
    9  A    between atoms: C_17  and  O_38
   10  A    between atoms: C_18  and  O_38
   11  A    between atoms: C_20  and  C_21
   12  A    between atoms: C_21  and  C_37
   13  A    between atoms: C_25  and  C_27
   14  A    between atoms: C_27  and  C_32
   15  A    between atoms: C_27  and  C_39
   16  A    between atoms: C_31  and  C_32
   17  A    between atoms: C_31  and  O_41
   18  A    between atoms: C_40  and  O_41
                            x       y       z     vdW  Elec       q    Type
                         _______ _______ _______ _____ _____    ______ ____

>  <TORSDO>
F 18

$$$$
=
 OpenBabel11062421503D

 48 52  0  0  1  0  0  0  0  0999 V2000
  189.0030  176.2100  143.9710 C   0  0  0  0  0  0  0  0  0  0  0  0
  190.6890  178.1960  143.8300 C   0  0  0  0  0  3  0  0  0  0  0  0
  189.8380  177.2130  143.9040 C   0  0  0  0  0  0  0  0  0  0  0  0
  189.2770  175.0190  143.0980 C   0  0  2  0  0  3  0  0  0  0  0  0
  189.6790  172.5770  142.8880 C   0  0  0  0  0  2  0  0  0  0  0  0
  188.3470  174.9670  142.0430 O   0  0  0  0  0  0  0  0  0  0  0  0
  188.8920  174.1010  141.0780 C   0  0  1  0  0  3  0  0  0  0  0  0
  189.2770  173.6870  143.8570 C   0  0  0  0  0  2  0  0  0  0  0  0
  188.8550  172.6640  141.6020 C   0  0  0  0  0  2  0  0  0  0  0  0
  188.1560  174.1850  139.8930 O   0  0  0  0  0  0  0  0  0  0  0  0
  188.2610  172.9200  139.3100 C   0  0  0  0  0  2  0  0  0  0  0  0
  188.6140  173.0440  137.8360 C   0  0  0  0  0  2  0  0  0  0  0  0
  190.1000  173.3310  137.6650 C   0  0  0  0  0  2  0  0  0  0  0  0
  190.9290  172.0530  137.7500 C   0  0  2  0  0  3  0  0  0  0  0  0
  192.4030  172.3310  137.8850 C   0  0  0  0  0  0  0  0  0  0  0  0
  193.1220  172.6730  136.8090 C   0  0  0  0  0  2  0  0  0  0  0  0
  192.2430  171.8370  140.3420 C   0  0  0  0  0  2  0  0  0  0  0  0
  193.1360  171.8380  139.1110 C   0  0  2  0  0  3  0  0  0  0  0  0
  192.7130  174.1260  139.8840 O   0  0  0  0  0  1  0  0  0  0  0  0
  193.3160  172.9010  140.2050 C   0  0  1  0  0  3  0  0  0  0  0  0
  190.6480  171.1590  136.5540 C   0  0  0  0  0  2  0  0  0  0  0  0
  190.7860  169.6970  136.9610 C   0  0  0  0  0  2  0  0  0  0  0  0
  190.4250  169.5270  138.3330 O   0  0  0  0  0  0  0  0  0  0  0  0
  190.4360  168.1680  140.3620 N   0  0  0  0  0  1  0  0  0  0  0  0
  192.2410  168.2080  138.9020 O   0  0  0  0  0  0  0  0  0  0  0  0
  191.0860  168.6300  139.1800 C   0  0  0  0  0  0  0  0  0  0  0  0
  192.0860  177.9950  144.3060 C   0  0  0  0  0  2  0  0  0  0  0  0
  195.4520  174.5770  145.0850 C   0  0  0  0  0  1  0  0  0  0  0  0
  194.1140  174.8600  144.5830 N   0  0  0  0  0  0  0  0  0  0  0  0
  194.2090  175.1910  143.1640 C   0  0  0  0  0  2  0  0  0  0  0  0
  192.4880  176.5300  144.1800 C   0  0  2  0  0  3  0  0  0  0  0  0
  193.4800  176.0220  145.2220 C   0  0  2  0  0  3  0  0  0  0  0  0
  193.1610  176.2540  142.8590 C   0  0  0  0  0  2  0  0  0  0  0  0
  194.4850  177.1150  145.6340 C   0  0  0  0  0  1  0  0  0  0  0  0
  187.7480  176.2990  144.8090 C   0  0  2  0  0  3  0  0  0  0  0  0
  186.8820  177.5140  144.5800 C   0  0  0  0  0  0  0  0  0  0  0  0
  186.2350  178.1070  145.6760 C   0  0  0  0  0  3  0  0  0  0  0  0
  185.9300  179.2130  143.1240 C   0  0  0  0  0  3  0  0  0  0  0  0
  185.2860  179.7970  144.2240 C   0  0  0  0  0  3  0  0  0  0  0  0
  186.7240  178.0760  143.3010 C   0  0  0  0  0  3  0  0  0  0  0  0
  185.4350  179.2420  145.4970 C   0  0  0  0  0  3  0  0  0  0  0  0
  187.9600  175.9830  146.1930 O   0  0  0  0  0  0  0  0  0  0  0  0
  191.5450  176.5930  148.3220 C   0  0  0  0  0  3  0  0  0  0  0  0
  190.0000  175.0790  147.2320 C   0  0  0  0  0  3  0  0  0  0  0  0
  189.5260  177.4510  147.2950 C   0  0  0  0  0  3  0  0  0  0  0  0
  189.1590  176.1570  146.9060 C   0  0  0  0  0  0  0  0  0  0  0  0
  190.7130  177.6710  148.0040 C   0  0  0  0  0  3  0  0  0  0  0  0
  191.1900  175.2970  147.9360 C   0  0  0  0  0  3  0  0  0  0  0  0
  2  3  2  0  0  0  0
  2 27  1  0  0  0  0
  3  1  2  0  0  0  0
  4  8  1  0  0  0  0
  4  1  1  1  0  0  0
  5  8  1  0  0  0  0
  6  4  1  0  0  0  0
  7 10  1  6  0  0  0
  7  9  1  0  0  0  0
  7  6  1  0  0  0  0
  9  5  1  0  0  0  0
 11 10  1  0  0  0  0
 12 11  1  0  0  0  0
 13 14  1  0  0  0  0
 13 12  1  0  0  0  0
 14 21  1  6  0  0  0
 14 15  1  0  0  0  0
 16 15  2  0  0  0  0
 18 15  1  6  0  0  0
 18 20  1  0  0  0  0
 18 17  1  0  0  0  0
 20 19  1  6  0  0  0
 20 17  1  0  0  0  0
 21 22  1  0  0  0  0
 22 23  1  0  0  0  0
 23 26  1  0  0  0  0
 25 26  2  0  0  0  0
 26 24  1  0  0  0  0
 29 28  1  0  0  0  0
 29 32  1  0  0  0  0
 30 29  1  0  0  0  0
 31 27  1  1  0  0  0
 31 32  1  0  0  0  0
 32 34  1  6  0  0  0
 33 30  1  0  0  0  0
 33 31  1  0  0  0  0
 35  1  1  1  0  0  0
 35 42  1  0  0  0  0
 36 35  1  0  0  0  0
 36 37  1  0  0  0  0
 38 40  1  0  0  0  0
 38 39  2  0  0  0  0
 39 41  1  0  0  0  0
 40 36  2  0  0  0  0
 41 37  2  0  0  0  0
 42 46  1  0  0  0  0
 44 48  1  0  0  0  0
 45 47  2  0  0  0  0
 46 44  2  0  0  0  0
 46 45  1  0  0  0  0
 47 43  1  0  0  0  0
 48 43  2  0  0  0  0
M  END
>  <MODEL>
2

>  <REMARK>
 VINA RESULT:      -6.9      2.894      6.667
  Name = 
  18 active torsions:
  status: ('A' for Active; 'I' for Inactive)
    1  A    between atoms: C_2  and  C_15
    2  A    between atoms: O_6  and  C_16
    3  A    between atoms: O_6  and  C_30
    4  A    between atoms: C_10  and  C_16
    5  A    between atoms: C_10  and  C_25
    6  A    between atoms: C_11  and  C_39
    7  A    between atoms: C_13  and  C_18
    8  A    between atoms: C_15  and  C_18
    9  A    between atoms: C_17  and  O_38
   10  A    between atoms: C_18  and  O_38
   11  A    between atoms: C_20  and  C_21
   12  A    between atoms: C_21  and  C_37
   13  A    between atoms: C_25  and  C_27
   14  A    between atoms: C_27  and  C_32
   15  A    between atoms: C_27  and  C_39
   16  A    between atoms: C_31  and  C_32
   17  A    between atoms: C_31  and  O_41
   18  A    between atoms: C_40  and  O_41
                            x       y       z     vdW  Elec       q    Type
                         _______ _______ _______ _____ _____    ______ ____

>  <TORSDO>
F 18

$$$$
=
 OpenBabel11062421503D

 48 52  0  0  1  0  0  0  0  0999 V2000
  190.2470  174.4770  144.9190 C   0  0  0  0  0  0  0  0  0  0  0  0
  188.7850  175.4380  146.8540 C   0  0  0  0  0  3  0  0  0  0  0  0
  189.5220  174.9510  145.8970 C   0  0  0  0  0  0  0  0  0  0  0  0
  189.5820  174.3000  143.5840 C   0  0  2  0  0  3  0  0  0  0  0  0
  187.6930  174.8230  142.0590 C   0  0  0  0  0  2  0  0  0  0  0  0
  190.5010  174.5480  142.5480 O   0  0  0  0  0  0  0  0  0  0  0  0
  189.9430  173.9880  141.3840 C   0  0  1  0  0  3  0  0  0  0  0  0
  188.3380  175.1770  143.3970 C   0  0  0  0  0  2  0  0  0  0  0  0
  188.7390  174.8220  140.9430 C   0  0  0  0  0  2  0  0  0  0  0  0
  190.8970  173.9680  140.3620 O   0  0  0  0  0  0  0  0  0  0  0  0
  191.9910  173.2870  140.9010 C   0  0  0  0  0  2  0  0  0  0  0  0
  191.9850  171.8350  140.4500 C   0  0  0  0  0  2  0  0  0  0  0  0
  193.3670  171.2160  140.6220 C   0  0  0  0  0  2  0  0  0  0  0  0
  194.4580  172.2830  140.6430 C   0  0  2  0  0  3  0  0  0  0  0  0
  195.1900  172.3840  139.3310 C   0  0  0  0  0  0  0  0  0  0  0  0
  195.7820  171.3030  138.8090 C   0  0  0  0  0  2  0  0  0  0  0  0
  194.6490  174.8360  139.2830 C   0  0  0  0  0  2  0  0  0  0  0  0
  195.6030  173.7440  138.8220 C   0  0  2  0  0  3  0  0  0  0  0  0
  193.4630  173.5910  137.6370 O   0  0  0  0  0  1  0  0  0  0  0  0
  194.6070  174.3760  137.8380 C   0  0  1  0  0  3  0  0  0  0  0  0
  195.4220  172.0290  141.7910 C   0  0  0  0  0  2  0  0  0  0  0  0
  195.7730  173.3500  142.4670 C   0  0  0  0  0  2  0  0  0  0  0  0
  196.6040  173.1200  143.6070 O   0  0  0  0  0  0  0  0  0  0  0  0
  197.6800  175.3110  143.5490 N   0  0  0  0  0  1  0  0  0  0  0  0
  197.4920  174.0870  145.5140 O   0  0  0  0  0  0  0  0  0  0  0  0
  197.2690  174.1530  144.2750 C   0  0  0  0  0  0  0  0  0  0  0  0
  188.2910  176.8400  146.7600 C   0  0  0  0  0  2  0  0  0  0  0  0
  184.1190  178.6920  145.0900 C   0  0  0  0  0  1  0  0  0  0  0  0
  184.7370  177.7570  146.0210 N   0  0  0  0  0  0  0  0  0  0  0  0
  185.0050  178.4560  147.2750 C   0  0  0  0  0  2  0  0  0  0  0  0
  186.7700  176.8770  146.8510 C   0  0  2  0  0  3  0  0  0  0  0  0
  186.0370  177.2440  145.5650 C   0  0  2  0  0  3  0  0  0  0  0  0
  186.3010  177.9020  147.8530 C   0  0  0  0  0  2  0  0  0  0  0  0
  186.8320  178.2620  144.7250 C   0  0  0  0  0  1  0  0  0  0  0  0
  191.6670  174.0140  145.1590 C   0  0  2  0  0  3  0  0  0  0  0  0
  192.6890  175.1010  145.3900 C   0  0  0  0  0  0  0  0  0  0  0  0
  193.4630  175.5520  144.3080 C   0  0  0  0  0  3  0  0  0  0  0  0
  193.8110  176.7030  146.8340 C   0  0  0  0  0  3  0  0  0  0  0  0
  194.5810  177.1460  145.7480 C   0  0  0  0  0  3  0  0  0  0  0  0
  192.8700  175.6850  146.6560 C   0  0  0  0  0  3  0  0  0  0  0  0
  194.4090  176.5670  144.4890 C   0  0  0  0  0  3  0  0  0  0  0  0
  192.0970  172.9890  144.2510 O   0  0  0  0  0  0  0  0  0  0  0  0
  194.3310  169.5480  145.2110 C   0  0  0  0  0  3  0  0  0  0  0  0
  193.9870  171.9360  145.4250 C   0  0  0  0  0  3  0  0  0  0  0  0
  192.4830  170.6150  144.0650 C   0  0  0  0  0  3  0  0  0  0  0  0
  192.8620  171.8590  144.5840 C   0  0  0  0  0  0  0  0  0  0  0  0
  193.2150  169.4620  144.3740 C   0  0  0  0  0  3  0  0  0  0  0  0
  194.7160  170.7840  145.7380 C   0  0  0  0  0  3  0  0  0  0  0  0
  1 35  1  0  0  0  0
  1  3  2  0  0  0  0
  3  2  2  0  0  0  0
  4  1  1  1  0  0  0
  5  8  1  0  0  0  0
  6  4  1  0  0  0  0
  7 10  1  6  0  0  0
  7  6  1  0  0  0  0
  8  4  1  0  0  0  0
  9  7  1  0  0  0  0
  9  5  1  0  0  0  0
 10 11  1  0  0  0  0
 12 13  1  0  0  0  0
 12 11  1  0  0  0  0
 14 13  1  6  0  0  0
 14 21  1  0  0  0  0
 15 14  1  0  0  0  0
 16 15  2  0  0  0  0
 18 17  1  0  0  0  0
 18 15  1  1  0  0  0
 20 19  1  1  0  0  0
 20 18  1  0  0  0  0
 20 17  1  0  0  0  0
 21 22  1  0  0  0  0
 22 23  1  0  0  0  0
 23 26  1  0  0  0  0
 24 26  1  0  0  0  0
 26 25  2  0  0  0  0
 27  2  1  0  0  0  0
 28 29  1  0  0  0  0
 29 30  1  0  0  0  0
 30 33  1  0  0  0  0
 31 27  1  6  0  0  0
 31 33  1  0  0  0  0
 32 34  1  1  0  0  0
 32 29  1  0  0  0  0
 32 31  1  0  0  0  0
 35 42  1  6  0  0  0
 35 36  1  0  0  0  0
 36 40  1  0  0  0  0
 37 41  1  0  0  0  0
 37 36  2  0  0  0  0
 39 38  1  0  0  0  0
 40 38  2  0  0  0  0
 41 39  2  0  0  0  0
 42 46  1  0  0  0  0
 43 48  1  0  0  0  0
 44 48  2  0  0  0  0
 45 47  1  0  0  0  0
 45 46  2  0  0  0  0
 46 44  1  0  0  0  0
 47 43  2  0  0  0  0
M  END
>  <MODEL>
3

>  <REMARK>
 VINA RESULT:      -6.8      3.008      7.558
  Name = 
  18 active torsions:
  status: ('A' for Active; 'I' for Inactive)
    1  A    between atoms: C_2  and  C_15
    2  A    between atoms: O_6  and  C_16
    3  A    between atoms: O_6  and  C_30
    4  A    between atoms: C_10  and  C_16
    5  A    between atoms: C_10  and  C_25
    6  A    between atoms: C_11  and  C_39
    7  A    between atoms: C_13  and  C_18
    8  A    between atoms: C_15  and  C_18
    9  A    between atoms: C_17  and  O_38
   10  A    between atoms: C_18  and  O_38
   11  A    between atoms: C_20  and  C_21
   12  A    between atoms: C_21  and  C_37
   13  A    between atoms: C_25  and  C_27
   14  A    between atoms: C_27  and  C_32
   15  A    between atoms: C_27  and  C_39
   16  A    between atoms: C_31  and  C_32
   17  A    between atoms: C_31  and  O_41
   18  A    between atoms: C_40  and  O_41
                            x       y       z     vdW  Elec       q    Type
                         _______ _______ _______ _____ _____    ______ ____

>  <TORSDO>
F 18

$$$$
=
 OpenBabel11062421503D

 48 52  0  0  1  0  0  0  0  0999 V2000
  189.3880  176.8570  143.8600 C   0  0  0  0  0  0  0  0  0  0  0  0
  191.8210  177.5930  143.2710 C   0  0  0  0  0  3  0  0  0  0  0  0
  190.6070  177.2340  143.5750 C   0  0  0  0  0  0  0  0  0  0  0  0
  188.5330  176.3630  142.7300 C   0  0  2  0  0  3  0  0  0  0  0  0
  187.0980  176.8660  140.7650 C   0  0  0  0  0  2  0  0  0  0  0  0
  189.2250  175.3890  141.9860 O   0  0  0  0  0  0  0  0  0  0  0  0
  188.2560  174.7070  141.2290 C   0  0  1  0  0  3  0  0  0  0  0  0
  188.0440  177.4780  141.7960 C   0  0  0  0  0  2  0  0  0  0  0  0
  187.7290  175.6270  140.1270 C   0  0  0  0  0  2  0  0  0  0  0  0
  188.8190  173.5640  140.6540 O   0  0  0  0  0  0  0  0  0  0  0  0
  190.1980  173.7850  140.6860 C   0  0  0  0  0  2  0  0  0  0  0  0
  190.9480  172.4660  140.5900 C   0  0  0  0  0  2  0  0  0  0  0  0
  192.3020  172.6680  139.9210 C   0  0  0  0  0  2  0  0  0  0  0  0
  192.1760  173.4900  138.6420 C   0  0  2  0  0  3  0  0  0  0  0  0
  191.8600  172.6400  137.4400 C   0  0  0  0  0  0  0  0  0  0  0  0
  192.6780  171.6390  137.0930 C   0  0  0  0  0  2  0  0  0  0  0  0
  189.7860  174.0000  137.0450 C   0  0  0  0  0  2  0  0  0  0  0  0
  190.8800  173.1540  136.4120 C   0  0  2  0  0  3  0  0  0  0  0  0
  189.3170  171.7530  137.6790 O   0  0  0  0  0  1  0  0  0  0  0  0
  189.4560  172.5980  136.5690 C   0  0  1  0  0  3  0  0  0  0  0  0
  193.4340  174.3130  138.4170 C   0  0  0  0  0  2  0  0  0  0  0  0
  193.9510  174.8360  139.7530 C   0  0  0  0  0  2  0  0  0  0  0  0
  195.3650  174.6540  139.8440 O   0  0  0  0  0  0  0  0  0  0  0  0
  196.2260  176.6130  141.0200 N   0  0  0  0  0  1  0  0  0  0  0  0
  196.7130  174.4510  141.7150 O   0  0  0  0  0  0  0  0  0  0  0  0
  196.1280  175.1970  140.8830 C   0  0  0  0  0  0  0  0  0  0  0  0
  192.7940  176.5670  142.8010 C   0  0  0  0  0  2  0  0  0  0  0  0
  195.7100  174.3620  146.0040 C   0  0  0  0  0  1  0  0  0  0  0  0
  194.3730  174.4160  145.4260 N   0  0  0  0  0  0  0  0  0  0  0  0
  194.3340  173.5380  144.2600 C   0  0  0  0  0  2  0  0  0  0  0  0
  192.9640  175.4730  143.8480 C   0  0  2  0  0  3  0  0  0  0  0  0
  193.9980  175.7490  144.9360 C   0  0  2  0  0  3  0  0  0  0  0  0
  193.4170  174.1760  143.2240 C   0  0  0  0  0  2  0  0  0  0  0  0
  195.1920  176.5590  144.3950 C   0  0  0  0  0  1  0  0  0  0  0  0
  188.8300  177.0260  145.2550 C   0  0  2  0  0  3  0  0  0  0  0  0
  189.7690  176.6980  146.3910 C   0  0  0  0  0  0  0  0  0  0  0  0
  190.3270  175.4120  146.4650 C   0  0  0  0  0  3  0  0  0  0  0  0
  191.0000  177.3250  148.3910 C   0  0  0  0  0  3  0  0  0  0  0  0
  191.5510  176.0380  148.4580 C   0  0  0  0  0  3  0  0  0  0  0  0
  190.1130  177.6550  147.3620 C   0  0  0  0  0  3  0  0  0  0  0  0
  191.2110  175.0810  147.4980 C   0  0  0  0  0  3  0  0  0  0  0  0
  187.5090  176.4880  145.4120 O   0  0  0  0  0  0  0  0  0  0  0  0
  183.9820  178.7250  145.9690 C   0  0  0  0  0  3  0  0  0  0  0  0
  185.8970  177.5830  146.9160 C   0  0  0  0  0  3  0  0  0  0  0  0
  185.5840  177.6340  144.5170 C   0  0  0  0  0  3  0  0  0  0  0  0
  186.3350  177.2290  145.6280 C   0  0  0  0  0  0  0  0  0  0  0  0
  184.4100  178.3770  144.6840 C   0  0  0  0  0  3  0  0  0  0  0  0
  184.7250  178.3300  147.0850 C   0  0  0  0  0  3  0  0  0  0  0  0
  2  3  2  0  0  0  0
  3  1  2  0  0  0  0
  4  1  1  1  0  0  0
  5  8  1  0  0  0  0
  6  4  1  0  0  0  0
  7 10  1  6  0  0  0
  7  6  1  0  0  0  0
  8  4  1  0  0  0  0
  9  5  1  0  0  0  0
  9  7  1  0  0  0  0
 10 11  1  0  0  0  0
 12 11  1  0  0  0  0
 13 12  1  0  0  0  0
 14 21  1  6  0  0  0
 14 13  1  0  0  0  0
 15 14  1  0  0  0  0
 16 15  2  0  0  0  0
 18 20  1  0  0  0  0
 18 17  1  0  0  0  0
 18 15  1  1  0  0  0
 20 17  1  0  0  0  0
 20 19  1  1  0  0  0
 21 22  1  0  0  0  0
 22 23  1  0  0  0  0
 23 26  1  0  0  0  0
 26 24  1  0  0  0  0
 26 25  2  0  0  0  0
 27  2  1  0  0  0  0
 29 28  1  0  0  0  0
 30 29  1  0  0  0  0
 31 27  1  6  0  0  0
 31 32  1  0  0  0  0
 32 34  1  6  0  0  0
 32 29  1  0  0  0  0
 33 31  1  0  0  0  0
 33 30  1  0  0  0  0
 35  1  1  6  0  0  0
 35 42  1  0  0  0  0
 35 36  1  0  0  0  0
 36 37  2  0  0  0  0
 36 40  1  0  0  0  0
 37 41  1  0  0  0  0
 38 39  1  0  0  0  0
 40 38  2  0  0  0  0
 41 39  2  0  0  0  0
 42 46  1  0  0  0  0
 43 48  1  0  0  0  0
 44 48  2  0  0  0  0
 45 47  1  0  0  0  0
 45 46  2  0  0  0  0
 46 44  1  0  0  0  0
 47 43  2  0  0  0  0
M  END
>  <MODEL>
4

>  <REMARK>
 VINA RESULT:      -6.7      2.913      6.242
  Name = 
  18 active torsions:
  status: ('A' for Active; 'I' for Inactive)
    1  A    between atoms: C_2  and  C_15
    2  A    between atoms: O_6  and  C_16
    3  A    between atoms: O_6  and  C_30
    4  A    between atoms: C_10  and  C_16
    5  A    between atoms: C_10  and  C_25
    6  A    between atoms: C_11  and  C_39
    7  A    between atoms: C_13  and  C_18
    8  A    between atoms: C_15  and  C_18
    9  A    between atoms: C_17  and  O_38
   10  A    between atoms: C_18  and  O_38
   11  A    between atoms: C_20  and  C_21
   12  A    between atoms: C_21  and  C_37
   13  A    between atoms: C_25  and  C_27
   14  A    between atoms: C_27  and  C_32
   15  A    between atoms: C_27  and  C_39
   16  A    between atoms: C_31  and  C_32
   17  A    between atoms: C_31  and  O_41
   18  A    between atoms: C_40  and  O_41
                            x       y       z     vdW  Elec       q    Type
                         _______ _______ _______ _____ _____    ______ ____

>  <TORSDO>
F 18

$$$$
=
 OpenBabel11062421503D

 48 52  0  0  1  0  0  0  0  0999 V2000
  189.4900  176.9120  144.1040 C   0  0  0  0  0  0  0  0  0  0  0  0
  191.9100  177.6150  143.4290 C   0  0  0  0  0  3  0  0  0  0  0  0
  190.7020  177.2740  143.7760 C   0  0  0  0  0  0  0  0  0  0  0  0
  188.6160  176.3500  143.0210 C   0  0  2  0  0  3  0  0  0  0  0  0
  187.4480  176.6570  140.8500 C   0  0  0  0  0  2  0  0  0  0  0  0
  189.1200  175.1110  142.5850 O   0  0  0  0  0  0  0  0  0  0  0  0
  188.0710  174.4800  141.8910 C   0  0  1  0  0  3  0  0  0  0  0  0
  188.4420  177.2900  141.8220 C   0  0  0  0  0  2  0  0  0  0  0  0
  187.8270  175.2030  140.5660 C   0  0  0  0  0  2  0  0  0  0  0  0
  188.4030  173.1450  141.6410 O   0  0  0  0  0  0  0  0  0  0  0  0
  189.1280  173.1690  140.4470 C   0  0  0  0  0  2  0  0  0  0  0  0
  190.5020  172.5510  140.6500 C   0  0  0  0  0  2  0  0  0  0  0  0
  191.5910  173.6030  140.4830 C   0  0  0  0  0  2  0  0  0  0  0  0
  192.6860  173.1270  139.5320 C   0  0  2  0  0  3  0  0  0  0  0  0
  193.9940  172.8820  140.2370 C   0  0  0  0  0  0  0  0  0  0  0  0
  194.7450  173.9170  140.6330 C   0  0  0  0  0  2  0  0  0  0  0  0
  193.6140  170.4160  139.9560 C   0  0  0  0  0  2  0  0  0  0  0  0
  194.6430  171.5220  140.1330 C   0  0  2  0  0  3  0  0  0  0  0  0
  193.4090  171.1360  142.2160 O   0  0  0  0  0  1  0  0  0  0  0  0
  194.3070  170.5760  141.2950 C   0  0  1  0  0  3  0  0  0  0  0  0
  192.8560  174.1120  138.3870 C   0  0  0  0  0  2  0  0  0  0  0  0
  192.8930  173.3580  137.0620 C   0  0  0  0  0  2  0  0  0  0  0  0
  191.5670  173.1460  136.5740 O   0  0  0  0  0  0  0  0  0  0  0  0
  190.8050  175.2540  135.6040 N   0  0  0  0  0  1  0  0  0  0  0  0
  189.5800  174.1380  137.2320 O   0  0  0  0  0  0  0  0  0  0  0  0
  190.6150  174.1700  136.5120 C   0  0  0  0  0  0  0  0  0  0  0  0
  192.8770  176.5650  143.0050 C   0  0  0  0  0  2  0  0  0  0  0  0
  196.4890  174.3010  145.3380 C   0  0  0  0  0  1  0  0  0  0  0  0
  195.0740  174.6450  145.3500 N   0  0  0  0  0  0  0  0  0  0  0  0
  194.3330  173.5950  144.6580 C   0  0  0  0  0  2  0  0  0  0  0  0
  193.3120  175.7250  144.1990 C   0  0  2  0  0  3  0  0  0  0  0  0
  194.7650  175.8910  144.6340 C   0  0  2  0  0  3  0  0  0  0  0  0
  193.1730  174.2490  143.9170 C   0  0  0  0  0  2  0  0  0  0  0  0
  195.6940  176.1490  143.4330 C   0  0  0  0  0  1  0  0  0  0  0  0
  188.9550  177.1640  145.4960 C   0  0  2  0  0  3  0  0  0  0  0  0
  189.9000  176.8610  146.6350 C   0  0  0  0  0  0  0  0  0  0  0  0
  190.2090  177.8780  147.5530 C   0  0  0  0  0  3  0  0  0  0  0  0
  191.3150  175.3300  147.8840 C   0  0  0  0  0  3  0  0  0  0  0  0
  191.6200  176.3510  148.7950 C   0  0  0  0  0  3  0  0  0  0  0  0
  190.4590  175.5830  146.8080 C   0  0  0  0  0  3  0  0  0  0  0  0
  191.0710  177.6240  148.6270 C   0  0  0  0  0  3  0  0  0  0  0  0
  187.6220  176.6730  145.6950 O   0  0  0  0  0  0  0  0  0  0  0  0
  184.0590  178.9230  145.6990 C   0  0  0  0  0  3  0  0  0  0  0  0
  186.2800  178.5380  144.8120 C   0  0  0  0  0  3  0  0  0  0  0  0
  185.4060  177.1000  146.5510 C   0  0  0  0  0  3  0  0  0  0  0  0
  186.4470  177.4430  145.6780 C   0  0  0  0  0  0  0  0  0  0  0  0
  184.2170  177.8380  146.5650 C   0  0  0  0  0  3  0  0  0  0  0  0
  185.0900  179.2730  144.8210 C   0  0  0  0  0  3  0  0  0  0  0  0
  2  3  2  0  0  0  0
  3  1  2  0  0  0  0
  4  1  1  1  0  0  0
  5  8  1  0  0  0  0
  6  4  1  0  0  0  0
  7 10  1  6  0  0  0
  7  6  1  0  0  0  0
  8  4  1  0  0  0  0
  9  5  1  0  0  0  0
  9  7  1  0  0  0  0
 11 12  1  0  0  0  0
 11 10  1  0  0  0  0
 13 12  1  0  0  0  0
 14 21  1  6  0  0  0
 14 15  1  0  0  0  0
 14 13  1  0  0  0  0
 15 16  2  0  0  0  0
 17 18  1  0  0  0  0
 17 20  1  0  0  0  0
 18 15  1  1  0  0  0
 18 20  1  0  0  0  0
 20 19  1  1  0  0  0
 22 21  1  0  0  0  0
 23 22  1  0  0  0  0
 24 26  1  0  0  0  0
 26 23  1  0  0  0  0
 26 25  2  0  0  0  0
 27  2  1  0  0  0  0
 28 29  1  0  0  0  0
 30 29  1  0  0  0  0
 31 27  1  6  0  0  0
 31 32  1  0  0  0  0
 32 34  1  6  0  0  0
 32 29  1  0  0  0  0
 33 31  1  0  0  0  0
 33 30  1  0  0  0  0
 35  1  1  6  0  0  0
 35 42  1  0  0  0  0
 35 36  1  0  0  0  0
 36 40  2  0  0  0  0
 36 37  1  0  0  0  0
 37 41  2  0  0  0  0
 38 39  2  0  0  0  0
 40 38  1  0  0  0  0
 41 39  1  0  0  0  0
 43 47  1  0  0  0  0
 44 48  1  0  0  0  0
 44 46  2  0  0  0  0
 45 47  2  0  0  0  0
 46 42  1  0  0  0  0
 46 45  1  0  0  0  0
 48 43  2  0  0  0  0
M  END
>  <MODEL>
5

>  <REMARK>
 VINA RESULT:      -6.6      2.888      6.408
  Name = 
  18 active torsions:
  status: ('A' for Active; 'I' for Inactive)
    1  A    between atoms: C_2  and  C_15
    2  A    between atoms: O_6  and  C_16
    3  A    between atoms: O_6  and  C_30
    4  A    between atoms: C_10  and  C_16
    5  A    between atoms: C_10  and  C_25
    6  A    between atoms: C_11  and  C_39
    7  A    between atoms: C_13  and  C_18
    8  A    between atoms: C_15  and  C_18
    9  A    between atoms: C_17  and  O_38
   10  A    between atoms: C_18  and  O_38
   11  A    between atoms: C_20  and  C_21
   12  A    between atoms: C_21  and  C_37
   13  A    between atoms: C_25  and  C_27
   14  A    between atoms: C_27  and  C_32
   15  A    between atoms: C_27  and  C_39
   16  A    between atoms: C_31  and  C_32
   17  A    between atoms: C_31  and  O_41
   18  A    between atoms: C_40  and  O_41
                            x       y       z     vdW  Elec       q    Type
                         _______ _______ _______ _____ _____    ______ ____

>  <TORSDO>
F 18

$$$$
=
 OpenBabel11062421503D

 48 52  0  0  1  0  0  0  0  0999 V2000
  195.0100  173.6420  144.9340 C   0  0  0  0  0  0  0  0  0  0  0  0
  197.3590  174.3320  144.0350 C   0  0  0  0  0  3  0  0  0  0  0  0
  196.1900  173.9750  144.4820 C   0  0  0  0  0  0  0  0  0  0  0  0
  194.3320  174.5950  145.8760 C   0  0  2  0  0  3  0  0  0  0  0  0
  194.1730  176.8730  146.8520 C   0  0  0  0  0  2  0  0  0  0  0  0
  192.9410  174.5770  145.6670 O   0  0  0  0  0  0  0  0  0  0  0  0
  192.3630  175.1600  146.8100 C   0  0  1  0  0  3  0  0  0  0  0  0
  194.8540  176.0340  145.7730 C   0  0  0  0  0  2  0  0  0  0  0  0
  192.6590  176.6600  146.8220 C   0  0  0  0  0  2  0  0  0  0  0  0
  190.9800  174.9560  146.8000 O   0  0  0  0  0  0  0  0  0  0  0  0
  190.4340  176.1890  146.4340 C   0  0  0  0  0  2  0  0  0  0  0  0
  189.2450  175.9880  145.5080 C   0  0  0  0  0  2  0  0  0  0  0  0
  188.7410  177.3280  144.9880 C   0  0  0  0  0  2  0  0  0  0  0  0
  187.6730  177.1450  143.9140 C   0  0  2  0  0  3  0  0  0  0  0  0
  188.2540  177.1120  142.5250 C   0  0  0  0  0  0  0  0  0  0  0  0
  188.8110  178.2120  142.0050 C   0  0  0  0  0  2  0  0  0  0  0  0
  187.7130  174.6690  142.3110 C   0  0  0  0  0  2  0  0  0  0  0  0
  187.8530  175.9990  141.5850 C   0  0  2  0  0  3  0  0  0  0  0  0
  190.0500  175.1140  142.2190 O   0  0  0  0  0  1  0  0  0  0  0  0
  188.9180  174.9040  141.4190 C   0  0  1  0  0  3  0  0  0  0  0  0
  186.6080  178.2220  144.0380 C   0  0  0  0  0  2  0  0  0  0  0  0
  185.6380  177.8600  145.1570 C   0  0  0  0  0  2  0  0  0  0  0  0
  185.7680  178.7780  146.2430 O   0  0  0  0  0  0  0  0  0  0  0  0
  186.7860  179.3110  148.3980 N   0  0  0  0  0  1  0  0  0  0  0  0
  185.9250  177.2050  147.9350 O   0  0  0  0  0  0  0  0  0  0  0  0
  186.1510  178.3760  147.5270 C   0  0  0  0  0  0  0  0  0  0  0  0
  197.4720  175.5150  143.1370 C   0  0  0  0  0  2  0  0  0  0  0  0
  196.3910  174.9260  138.4350 C   0  0  0  0  0  1  0  0  0  0  0  0
  197.4250  174.8280  139.4570 N   0  0  0  0  0  0  0  0  0  0  0  0
  197.3770  173.4920  140.0430 C   0  0  0  0  0  2  0  0  0  0  0  0
  197.9410  175.0910  141.7500 C   0  0  2  0  0  3  0  0  0  0  0  0
  197.2360  175.7620  140.5760 C   0  0  2  0  0  3  0  0  0  0  0  0
  197.7240  173.6150  141.5210 C   0  0  0  0  0  2  0  0  0  0  0  0
  195.7550  176.0480  140.8870 C   0  0  0  0  0  1  0  0  0  0  0  0
  194.4070  172.2930  144.6100 C   0  0  2  0  0  3  0  0  0  0  0  0
  195.2930  171.0950  144.8510 C   0  0  0  0  0  0  0  0  0  0  0  0
  195.8340  170.8920  146.1310 C   0  0  0  0  0  3  0  0  0  0  0  0
  196.3800  169.0580  144.0910 C   0  0  0  0  0  3  0  0  0  0  0  0
  196.9180  168.8640  145.3710 C   0  0  0  0  0  3  0  0  0  0  0  0
  195.5720  170.1680  143.8310 C   0  0  0  0  0  3  0  0  0  0  0  0
  196.6480  169.7830  146.3880 C   0  0  0  0  0  3  0  0  0  0  0  0
  193.7100  172.2640  143.3560 O   0  0  0  0  0  0  0  0  0  0  0  0
  189.5660  171.6310  142.9220 C   0  0  0  0  0  3  0  0  0  0  0  0
  191.7900  171.6060  141.9620 C   0  0  0  0  0  3  0  0  0  0  0  0
  191.4750  172.2770  144.2660 C   0  0  0  0  0  3  0  0  0  0  0  0
  192.3320  172.0490  143.1820 C   0  0  0  0  0  0  0  0  0  0  0  0
  190.0960  172.0720  144.1380 C   0  0  0  0  0  3  0  0  0  0  0  0
  190.4130  171.3970  141.8340 C   0  0  0  0  0  3  0  0  0  0  0  0
  2  3  2  0  0  0  0
  3  1  2  0  0  0  0
  4  1  1  6  0  0  0
  6  4  1  0  0  0  0
  6  7  1  0  0  0  0
  7 10  1  6  0  0  0
  7  9  1  0  0  0  0
  8  4  1  0  0  0  0
  8  5  1  0  0  0  0
  9  5  1  0  0  0  0
 11 10  1  0  0  0  0
 12 11  1  0  0  0  0
 13 12  1  0  0  0  0
 14 21  1  6  0  0  0
 14 13  1  0  0  0  0
 15 14  1  0  0  0  0
 16 15  2  0  0  0  0
 18 17  1  0  0  0  0
 18 15  1  1  0  0  0
 20 18  1  0  0  0  0
 20 19  1  1  0  0  0
 20 17  1  0  0  0  0
 21 22  1  0  0  0  0
 22 23  1  0  0  0  0
 23 26  1  0  0  0  0
 26 25  2  0  0  0  0
 26 24  1  0  0  0  0
 27  2  1  0  0  0  0
 28 29  1  0  0  0  0
 29 30  1  0  0  0  0
 29 32  1  0  0  0  0
 30 33  1  0  0  0  0
 31 27  1  1  0  0  0
 32 34  1  1  0  0  0
 32 31  1  0  0  0  0
 33 31  1  0  0  0  0
 35 42  1  6  0  0  0
 35 36  1  0  0  0  0
 35  1  1  0  0  0  0
 36 37  1  0  0  0  0
 37 41  2  0  0  0  0
 38 39  2  0  0  0  0
 39 41  1  0  0  0  0
 40 38  1  0  0  0  0
 40 36  2  0  0  0  0
 43 47  1  0  0  0  0
 44 46  2  0  0  0  0
 46 42  1  0  0  0  0
 46 45  1  0  0  0  0
 47 45  2  0  0  0  0
 48 44  1  0  0  0  0
 48 43  2  0  0  0  0
M  END
>  <MODEL>
6

>  <REMARK>
 VINA RESULT:      -6.6      2.881      9.216
  Name = 
  18 active torsions:
  status: ('A' for Active; 'I' for Inactive)
    1  A    between atoms: C_2  and  C_15
    2  A    between atoms: O_6  and  C_16
    3  A    between atoms: O_6  and  C_30
    4  A    between atoms: C_10  and  C_16
    5  A    between atoms: C_10  and  C_25
    6  A    between atoms: C_11  and  C_39
    7  A    between atoms: C_13  and  C_18
    8  A    between atoms: C_15  and  C_18
    9  A    between atoms: C_17  and  O_38
   10  A    between atoms: C_18  and  O_38
   11  A    between atoms: C_20  and  C_21
   12  A    between atoms: C_21  and  C_37
   13  A    between atoms: C_25  and  C_27
   14  A    between atoms: C_27  and  C_32
   15  A    between atoms: C_27  and  C_39
   16  A    between atoms: C_31  and  C_32
   17  A    between atoms: C_31  and  O_41
   18  A    between atoms: C_40  and  O_41
                            x       y       z     vdW  Elec       q    Type
                         _______ _______ _______ _____ _____    ______ ____

>  <TORSDO>
F 18

$$$$
=
 OpenBabel11062421503D

 48 52  0  0  1  0  0  0  0  0999 V2000
  188.6710  175.9490  143.8280 C   0  0  0  0  0  0  0  0  0  0  0  0
  190.3230  177.9280  143.4280 C   0  0  0  0  0  3  0  0  0  0  0  0
  189.4880  176.9500  143.6290 C   0  0  0  0  0  0  0  0  0  0  0  0
  188.9750  174.6550  143.1300 C   0  0  2  0  0  3  0  0  0  0  0  0
  188.2560  172.8450  141.5890 C   0  0  0  0  0  2  0  0  0  0  0  0
  190.2140  174.7400  142.4670 O   0  0  0  0  0  0  0  0  0  0  0  0
  190.6060  173.4180  142.1920 C   0  0  1  0  0  3  0  0  0  0  0  0
  187.8860  174.2200  142.1410 C   0  0  0  0  0  2  0  0  0  0  0  0
  189.7060  172.8340  141.1020 C   0  0  0  0  0  2  0  0  0  0  0  0
  191.9360  173.3960  141.7620 O   0  0  0  0  0  0  0  0  0  0  0  0
  191.8910  173.7950  140.4240 C   0  0  0  0  0  2  0  0  0  0  0  0
  193.2220  173.5180  139.7440 C   0  0  0  0  0  2  0  0  0  0  0  0
  193.9570  172.3870  140.4490 C   0  0  0  0  0  2  0  0  0  0  0  0
  195.3830  172.7890  140.8140 C   0  0  2  0  0  3  0  0  0  0  0  0
  196.2800  172.8880  139.6090 C   0  0  0  0  0  0  0  0  0  0  0  0
  196.3070  171.8960  138.7110 C   0  0  0  0  0  2  0  0  0  0  0  0
  197.0600  175.1490  140.3720 C   0  0  0  0  0  2  0  0  0  0  0  0
  197.4210  173.8780  139.6190 C   0  0  2  0  0  3  0  0  0  0  0  0
  195.8280  175.2310  138.3370 O   0  0  0  0  0  1  0  0  0  0  0  0
  197.1300  175.1800  138.8570 C   0  0  1  0  0  3  0  0  0  0  0  0
  195.9550  171.8290  141.8450 C   0  0  0  0  0  2  0  0  0  0  0  0
  194.8200  171.0830  142.5370 C   0  0  0  0  0  2  0  0  0  0  0  0
  194.7840  171.4100  143.9280 O   0  0  0  0  0  0  0  0  0  0  0  0
  194.2780  169.1030  144.5460 N   0  0  0  0  0  1  0  0  0  0  0  0
  194.5690  170.7660  146.1410 O   0  0  0  0  0  0  0  0  0  0  0  0
  194.5400  170.4540  144.9200 C   0  0  0  0  0  0  0  0  0  0  0  0
  191.7180  177.8210  143.9390 C   0  0  0  0  0  2  0  0  0  0  0  0
  195.2540  174.5690  144.6720 C   0  0  0  0  0  1  0  0  0  0  0  0
  194.0200  174.8690  143.9580 N   0  0  0  0  0  0  0  0  0  0  0  0
  194.3580  175.5430  142.7080 C   0  0  0  0  0  2  0  0  0  0  0  0
  192.3150  176.4650  143.5840 C   0  0  2  0  0  3  0  0  0  0  0  0
  193.1320  175.7900  144.6810 C   0  0  2  0  0  3  0  0  0  0  0  0
  193.2690  176.5690  142.4190 C   0  0  0  0  0  2  0  0  0  0  0  0
  193.8900  176.8190  145.5420 C   0  0  0  0  0  1  0  0  0  0  0  0
  187.4050  176.1310  144.6350 C   0  0  2  0  0  3  0  0  0  0  0  0
  186.5040  177.2660  144.2120 C   0  0  0  0  0  0  0  0  0  0  0  0
  185.7560  177.1400  143.0300 C   0  0  0  0  0  3  0  0  0  0  0  0
  185.5250  179.4620  144.5740 C   0  0  0  0  0  3  0  0  0  0  0  0
  184.7830  179.3280  143.3920 C   0  0  0  0  0  3  0  0  0  0  0  0
  186.3830  178.4360  144.9830 C   0  0  0  0  0  3  0  0  0  0  0  0
  184.9020  178.1710  142.6190 C   0  0  0  0  0  3  0  0  0  0  0  0
  187.6120  176.0440  146.0520 O   0  0  0  0  0  0  0  0  0  0  0  0
  191.2880  176.5790  148.0420 C   0  0  0  0  0  3  0  0  0  0  0  0
  189.6830  175.1000  146.9900 C   0  0  0  0  0  3  0  0  0  0  0  0
  189.2380  177.4760  147.1140 C   0  0  0  0  0  3  0  0  0  0  0  0
  188.8410  176.1920  146.7180 C   0  0  0  0  0  0  0  0  0  0  0  0
  190.4550  177.6700  147.7770 C   0  0  0  0  0  3  0  0  0  0  0  0
  190.9030  175.2940  147.6480 C   0  0  0  0  0  3  0  0  0  0  0  0
  2  3  2  0  0  0  0
  2 27  1  0  0  0  0
  3  1  2  0  0  0  0
  4  1  1  6  0  0  0
  5  8  1  0  0  0  0
  6  4  1  0  0  0  0
  7 10  1  6  0  0  0
  7  6  1  0  0  0  0
  8  4  1  0  0  0  0
  9  5  1  0  0  0  0
  9  7  1  0  0  0  0
 11 10  1  0  0  0  0
 12 11  1  0  0  0  0
 12 13  1  0  0  0  0
 14 13  1  6  0  0  0
 14 21  1  0  0  0  0
 15 14  1  0  0  0  0
 16 15  2  0  0  0  0
 18 15  1  6  0  0  0
 18 17  1  0  0  0  0
 20 19  1  6  0  0  0
 20 18  1  0  0  0  0
 20 17  1  0  0  0  0
 21 22  1  0  0  0  0
 22 23  1  0  0  0  0
 23 26  1  0  0  0  0
 24 26  1  0  0  0  0
 26 25  2  0  0  0  0
 29 28  1  0  0  0  0
 29 32  1  0  0  0  0
 30 29  1  0  0  0  0
 31 27  1  1  0  0  0
 31 32  1  0  0  0  0
 32 34  1  6  0  0  0
 33 30  1  0  0  0  0
 33 31  1  0  0  0  0
 35  1  1  6  0  0  0
 35 42  1  0  0  0  0
 36 35  1  0  0  0  0
 36 40  1  0  0  0  0
 37 36  2  0  0  0  0
 38 40  2  0  0  0  0
 39 38  1  0  0  0  0
 41 37  1  0  0  0  0
 41 39  2  0  0  0  0
 42 46  1  0  0  0  0
 44 48  1  0  0  0  0
 45 47  2  0  0  0  0
 46 44  2  0  0  0  0
 46 45  1  0  0  0  0
 47 43  1  0  0  0  0
 48 43  2  0  0  0  0
M  END
>  <MODEL>
7

>  <REMARK>
 VINA RESULT:      -6.6      2.558      5.270
  Name = 
  18 active torsions:
  status: ('A' for Active; 'I' for Inactive)
    1  A    between atoms: C_2  and  C_15
    2  A    between atoms: O_6  and  C_16
    3  A    between atoms: O_6  and  C_30
    4  A    between atoms: C_10  and  C_16
    5  A    between atoms: C_10  and  C_25
    6  A    between atoms: C_11  and  C_39
    7  A    between atoms: C_13  and  C_18
    8  A    between atoms: C_15  and  C_18
    9  A    between atoms: C_17  and  O_38
   10  A    between atoms: C_18  and  O_38
   11  A    between atoms: C_20  and  C_21
   12  A    between atoms: C_21  and  C_37
   13  A    between atoms: C_25  and  C_27
   14  A    between atoms: C_27  and  C_32
   15  A    between atoms: C_27  and  C_39
   16  A    between atoms: C_31  and  C_32
   17  A    between atoms: C_31  and  O_41
   18  A    between atoms: C_40  and  O_41
                            x       y       z     vdW  Elec       q    Type
                         _______ _______ _______ _____ _____    ______ ____

>  <TORSDO>
F 18

$$$$
=
 OpenBabel11062421503D

 48 52  0  0  1  0  0  0  0  0999 V2000
  192.4860  173.5030  142.4120 C   0  0  0  0  0  0  0  0  0  0  0  0
  193.7740  174.7350  140.5070 C   0  0  0  0  0  3  0  0  0  0  0  0
  193.1390  174.1270  141.4670 C   0  0  0  0  0  0  0  0  0  0  0  0
  191.0560  173.1360  142.1420 C   0  0  2  0  0  3  0  0  0  0  0  0
  188.9960  171.9350  142.8380 C   0  0  0  0  0  2  0  0  0  0  0  0
  190.3010  174.2920  141.8690 O   0  0  0  0  0  0  0  0  0  0  0  0
  189.1170  173.8530  141.2500 C   0  0  1  0  0  3  0  0  0  0  0  0
  190.4000  172.3440  143.2800 C   0  0  0  0  0  2  0  0  0  0  0  0
  188.2370  173.1400  142.2780 C   0  0  0  0  0  2  0  0  0  0  0  0
  188.4240  174.9460  140.7210 O   0  0  0  0  0  0  0  0  0  0  0  0
  188.4630  175.9200  141.7220 C   0  0  0  0  0  2  0  0  0  0  0  0
  187.1060  176.5900  141.8630 C   0  0  0  0  0  2  0  0  0  0  0  0
  187.2310  177.8940  142.6390 C   0  0  0  0  0  2  0  0  0  0  0  0
  187.2670  177.6480  144.1440 C   0  0  2  0  0  3  0  0  0  0  0  0
  186.3160  178.5410  144.8960 C   0  0  0  0  0  0  0  0  0  0  0  0
  185.6770  179.5280  144.2580 C   0  0  0  0  0  2  0  0  0  0  0  0
  186.1720  177.2240  147.0300 C   0  0  0  0  0  2  0  0  0  0  0  0
  186.3920  178.5930  146.4040 C   0  0  2  0  0  3  0  0  0  0  0  0
  184.0430  177.9180  146.2210 O   0  0  0  0  0  1  0  0  0  0  0  0
  185.0690  178.2630  147.1120 C   0  0  1  0  0  3  0  0  0  0  0  0
  188.6860  177.7920  144.6690 C   0  0  0  0  0  2  0  0  0  0  0  0
  189.2040  176.4330  145.1270 C   0  0  0  0  0  2  0  0  0  0  0  0
  189.7730  176.5320  146.4340 O   0  0  0  0  0  0  0  0  0  0  0  0
  191.1600  175.2860  148.0110 N   0  0  0  0  0  1  0  0  0  0  0  0
  189.0540  174.5430  147.3740 O   0  0  0  0  0  0  0  0  0  0  0  0
  189.9530  175.4200  147.2630 C   0  0  0  0  0  0  0  0  0  0  0  0
  194.0560  174.0100  139.2360 C   0  0  0  0  0  2  0  0  0  0  0  0
  190.3800  172.7240  136.3280 C   0  0  0  0  0  1  0  0  0  0  0  0
  191.2570  173.8050  136.7580 N   0  0  0  0  0  0  0  0  0  0  0  0
  192.4480  173.8030  135.9130 C   0  0  0  0  0  2  0  0  0  0  0  0
  193.0640  174.4220  138.1550 C   0  0  2  0  0  3  0  0  0  0  0  0
  191.7460  173.6540  138.1360 C   0  0  2  0  0  3  0  0  0  0  0  0
  193.6350  174.2160  136.7740 C   0  0  0  0  0  2  0  0  0  0  0  0
  191.9350  172.1840  138.5570 C   0  0  0  0  0  1  0  0  0  0  0  0
  193.1180  173.2690  143.7660 C   0  0  2  0  0  3  0  0  0  0  0  0
  193.4500  174.5050  144.5660 C   0  0  0  0  0  0  0  0  0  0  0  0
  194.5910  174.5010  145.3850 C   0  0  0  0  0  3  0  0  0  0  0  0
  193.0030  176.7990  145.2340 C   0  0  0  0  0  3  0  0  0  0  0  0
  194.1420  176.7860  146.0500 C   0  0  0  0  0  3  0  0  0  0  0  0
  192.6570  175.6640  144.4950 C   0  0  0  0  0  3  0  0  0  0  0  0
  194.9320  175.6370  146.1290 C   0  0  0  0  0  3  0  0  0  0  0  0
  194.1610  172.2830  143.7490 O   0  0  0  0  0  0  0  0  0  0  0  0
  194.1190  168.6500  145.8830 C   0  0  0  0  0  3  0  0  0  0  0  0
  195.0620  170.8550  145.5400 C   0  0  0  0  0  3  0  0  0  0  0  0
  193.2580  170.0780  144.1270 C   0  0  0  0  0  3  0  0  0  0  0  0
  194.1720  171.0800  144.4750 C   0  0  0  0  0  0  0  0  0  0  0  0
  193.2310  168.8650  144.8250 C   0  0  0  0  0  3  0  0  0  0  0  0
  195.0340  169.6450  146.2420 C   0  0  0  0  0  3  0  0  0  0  0  0
  2  3  2  0  0  0  0
  3  1  2  0  0  0  0
  4  1  1  1  0  0  0
  4  8  1  0  0  0  0
  5  8  1  0  0  0  0
  6  4  1  0  0  0  0
  7 10  1  1  0  0  0
  7  6  1  0  0  0  0
  7  9  1  0  0  0  0
  9  5  1  0  0  0  0
 10 11  1  0  0  0  0
 11 12  1  0  0  0  0
 12 13  1  0  0  0  0
 14 13  1  6  0  0  0
 14 21  1  0  0  0  0
 14 15  1  0  0  0  0
 16 15  2  0  0  0  0
 17 20  1  0  0  0  0
 18 15  1  6  0  0  0
 18 17  1  0  0  0  0
 18 20  1  0  0  0  0
 20 19  1  6  0  0  0
 21 22  1  0  0  0  0
 22 23  1  0  0  0  0
 23 26  1  0  0  0  0
 26 25  2  0  0  0  0
 26 24  1  0  0  0  0
 27  2  1  0  0  0  0
 28 29  1  0  0  0  0
 29 32  1  0  0  0  0
 30 29  1  0  0  0  0
 30 33  1  0  0  0  0
 31 27  1  1  0  0  0
 32 31  1  0  0  0  0
 32 34  1  6  0  0  0
 33 31  1  0  0  0  0
 35  1  1  6  0  0  0
 35 36  1  0  0  0  0
 36 37  1  0  0  0  0
 37 41  2  0  0  0  0
 38 39  2  0  0  0  0
 39 41  1  0  0  0  0
 40 36  2  0  0  0  0
 40 38  1  0  0  0  0
 42 35  1  0  0  0  0
 42 46  1  0  0  0  0
 43 48  1  0  0  0  0
 44 48  2  0  0  0  0
 45 46  2  0  0  0  0
 45 47  1  0  0  0  0
 46 44  1  0  0  0  0
 47 43  2  0  0  0  0
M  END
>  <MODEL>
8

>  <REMARK>
 VINA RESULT:      -6.5      2.736      8.390
  Name = 
  18 active torsions:
  status: ('A' for Active; 'I' for Inactive)
    1  A    between atoms: C_2  and  C_15
    2  A    between atoms: O_6  and  C_16
    3  A    between atoms: O_6  and  C_30
    4  A    between atoms: C_10  and  C_16
    5  A    between atoms: C_10  and  C_25
    6  A    between atoms: C_11  and  C_39
    7  A    between atoms: C_13  and  C_18
    8  A    between atoms: C_15  and  C_18
    9  A    between atoms: C_17  and  O_38
   10  A    between atoms: C_18  and  O_38
   11  A    between atoms: C_20  and  C_21
   12  A    between atoms: C_21  and  C_37
   13  A    between atoms: C_25  and  C_27
   14  A    between atoms: C_27  and  C_32
   15  A    between atoms: C_27  and  C_39
   16  A    between atoms: C_31  and  C_32
   17  A    between atoms: C_31  and  O_41
   18  A    between atoms: C_40  and  O_41
                            x       y       z     vdW  Elec       q    Type
                         _______ _______ _______ _____ _____    ______ ____

>  <TORSDO>
F 18

$$$$
=
 OpenBabel11062421503D

 48 52  0  0  1  0  0  0  0  0999 V2000
  189.6860  176.1700  143.9570 C   0  0  0  0  0  0  0  0  0  0  0  0
  191.9400  177.1780  143.1160 C   0  0  0  0  0  3  0  0  0  0  0  0
  190.8130  176.6860  143.5430 C   0  0  0  0  0  0  0  0  0  0  0  0
  189.0210  175.1550  143.0730 C   0  0  2  0  0  3  0  0  0  0  0  0
  188.1790  174.5110  140.8270 C   0  0  0  0  0  2  0  0  0  0  0  0
  189.6580  173.9070  143.2030 O   0  0  0  0  0  0  0  0  0  0  0  0
  188.7660  172.9520  142.6820 C   0  0  1  0  0  3  0  0  0  0  0  0
  188.9750  175.5630  141.5960 C   0  0  0  0  0  2  0  0  0  0  0  0
  188.6820  173.1060  141.1630 C   0  0  0  0  0  2  0  0  0  0  0  0
  189.2090  171.6640  142.9980 O   0  0  0  0  0  0  0  0  0  0  0  0
  190.4310  171.5280  142.3340 C   0  0  0  0  0  2  0  0  0  0  0  0
  190.6610  170.0780  141.9420 C   0  0  0  0  0  2  0  0  0  0  0  0
  191.6630  169.9860  140.7980 C   0  0  0  0  0  2  0  0  0  0  0  0
  192.7960  170.9930  140.9650 C   0  0  2  0  0  3  0  0  0  0  0  0
  193.2210  171.6040  139.6560 C   0  0  0  0  0  0  0  0  0  0  0  0
  193.8530  170.8580  138.7420 C   0  0  0  0  0  2  0  0  0  0  0  0
  192.3080  173.8050  140.4480 C   0  0  0  0  0  2  0  0  0  0  0  0
  193.3080  173.1080  139.5380 C   0  0  2  0  0  3  0  0  0  0  0  0
  191.0240  172.8460  138.6870 O   0  0  0  0  0  1  0  0  0  0  0  0
  192.0490  173.7660  138.9540 C   0  0  1  0  0  3  0  0  0  0  0  0
  193.9740  170.3500  141.6780 C   0  0  0  0  0  2  0  0  0  0  0  0
  194.1860  171.0230  143.0300 C   0  0  0  0  0  2  0  0  0  0  0  0
  193.5460  170.2740  144.0640 O   0  0  0  0  0  0  0  0  0  0  0  0
  194.6740  168.2350  144.7960 N   0  0  0  0  0  1  0  0  0  0  0  0
  194.5710  170.1290  146.1350 O   0  0  0  0  0  0  0  0  0  0  0  0
  194.2630  169.5780  145.0440 C   0  0  0  0  0  0  0  0  0  0  0  0
  193.1330  176.2920  143.0030 C   0  0  0  0  0  2  0  0  0  0  0  0
  196.5380  174.1690  145.7450 C   0  0  0  0  0  1  0  0  0  0  0  0
  195.2070  174.7590  145.7170 N   0  0  0  0  0  0  0  0  0  0  0  0
  194.2390  173.7110  145.4090 C   0  0  0  0  0  2  0  0  0  0  0  0
  193.5410  175.7680  144.3750 C   0  0  2  0  0  3  0  0  0  0  0  0
  195.0370  175.7790  144.6720 C   0  0  2  0  0  3  0  0  0  0  0  0
  193.1340  174.3270  144.5590 C   0  0  0  0  0  2  0  0  0  0  0  0
  195.8720  175.5010  143.4080 C   0  0  0  0  0  1  0  0  0  0  0  0
  189.0240  176.6660  145.2230 C   0  0  2  0  0  3  0  0  0  0  0  0
  189.8600  176.6030  146.4790 C   0  0  0  0  0  0  0  0  0  0  0  0
  190.4500  175.3820  146.8440 C   0  0  0  0  0  3  0  0  0  0  0  0
  190.8720  177.6520  148.4240 C   0  0  0  0  0  3  0  0  0  0  0  0
  191.4560  176.4290  148.7830 C   0  0  0  0  0  3  0  0  0  0  0  0
  190.0770  177.7390  147.2780 C   0  0  0  0  0  3  0  0  0  0  0  0
  191.2410  175.2950  147.9960 C   0  0  0  0  0  3  0  0  0  0  0  0
  187.6800  176.1940  145.3890 O   0  0  0  0  0  0  0  0  0  0  0  0
  184.2800  178.6060  146.0080 C   0  0  0  0  0  3  0  0  0  0  0  0
  186.1080  177.3060  146.9230 C   0  0  0  0  0  3  0  0  0  0  0  0
  185.8410  177.4960  144.5260 C   0  0  0  0  0  3  0  0  0  0  0  0
  186.5470  176.9920  145.6250 C   0  0  0  0  0  0  0  0  0  0  0  0
  184.7090  178.2980  144.7140 C   0  0  0  0  0  3  0  0  0  0  0  0
  184.9790  178.1120  147.1130 C   0  0  0  0  0  3  0  0  0  0  0  0
  2  3  2  0  0  0  0
  3  1  2  0  0  0  0
  4  6  1  0  0  0  0
  4  1  1  1  0  0  0
  5  9  1  0  0  0  0
  5  8  1  0  0  0  0
  7 10  1  6  0  0  0
  7  6  1  0  0  0  0
  8  4  1  0  0  0  0
  9  7  1  0  0  0  0
 11 10  1  0  0  0  0
 12 11  1  0  0  0  0
 13 12  1  0  0  0  0
 14 13  1  6  0  0  0
 14 21  1  0  0  0  0
 15 14  1  0  0  0  0
 16 15  2  0  0  0  0
 18 15  1  1  0  0  0
 18 17  1  0  0  0  0
 20 19  1  1  0  0  0
 20 18  1  0  0  0  0
 20 17  1  0  0  0  0
 21 22  1  0  0  0  0
 22 23  1  0  0  0  0
 23 26  1  0  0  0  0
 24 26  1  0  0  0  0
 26 25  2  0  0  0  0
 27  2  1  0  0  0  0
 29 28  1  0  0  0  0
 30 29  1  0  0  0  0
 31 27  1  6  0  0  0
 31 33  1  0  0  0  0
 31 32  1  0  0  0  0
 32 34  1  6  0  0  0
 32 29  1  0  0  0  0
 33 30  1  0  0  0  0
 35  1  1  6  0  0  0
 35 42  1  0  0  0  0
 35 36  1  0  0  0  0
 36 37  2  0  0  0  0
 36 40  1  0  0  0  0
 37 41  1  0  0  0  0
 38 39  1  0  0  0  0
 40 38  2  0  0  0  0
 41 39  2  0  0  0  0
 42 46  1  0  0  0  0
 43 48  1  0  0  0  0
 44 48  2  0  0  0  0
 45 47  1  0  0  0  0
 45 46  2  0  0  0  0
 46 44  1  0  0  0  0
 47 43  2  0  0  0  0
M  END
>  <MODEL>
9

>  <REMARK>
 VINA RESULT:      -6.5      2.289      5.289
  Name = 
  18 active torsions:
  status: ('A' for Active; 'I' for Inactive)
    1  A    between atoms: C_2  and  C_15
    2  A    between atoms: O_6  and  C_16
    3  A    between atoms: O_6  and  C_30
    4  A    between atoms: C_10  and  C_16
    5  A    between atoms: C_10  and  C_25
    6  A    between atoms: C_11  and  C_39
    7  A    between atoms: C_13  and  C_18
    8  A    between atoms: C_15  and  C_18
    9  A    between atoms: C_17  and  O_38
   10  A    between atoms: C_18  and  O_38
   11  A    between atoms: C_20  and  C_21
   12  A    between atoms: C_21  and  C_37
   13  A    between atoms: C_25  and  C_27
   14  A    between atoms: C_27  and  C_32
   15  A    between atoms: C_27  and  C_39
   16  A    between atoms: C_31  and  C_32
   17  A    between atoms: C_31  and  O_41
   18  A    between atoms: C_40  and  O_41
                            x       y       z     vdW  Elec       q    Type
                         _______ _______ _______ _____ _____    ______ ____

>  <TORSDO>
F 18

$$$$
