=
 OpenBabel11072409243D

 39 43  0  0  1  0  0  0  0  0999 V2000
  190.3780  174.9550  143.3020 C   0  0  2  0  0  3  0  0  0  0  0  0
  189.8970  175.6640  145.6010 O   0  0  0  0  0  0  0  0  0  0  0  0
  192.6350  175.9140  146.3200 C   0  0  2  0  0  3  0  0  0  0  0  0
  193.3750  175.5400  144.0480 C   0  0  0  0  0  0  0  0  0  0  0  0
  192.1950  176.0240  144.8550 C   0  0  1  0  0  0  0  0  0  0  0  0
  190.3120  175.4420  146.9320 C   0  0  0  0  0  2  0  0  0  0  0  0
  191.5260  176.3100  147.2790 C   0  0  0  0  0  2  0  0  0  0  0  0
  190.9070  175.1720  144.7380 C   0  0  2  0  0  3  0  0  0  0  0  0
  193.9870  176.5900  146.5500 C   0  0  0  0  0  2  0  0  0  0  0  0
  195.7440  175.4860  143.6930 O   0  0  0  0  0  1  0  0  0  0  0  0
  194.9730  175.8940  145.8160 O   0  0  0  0  0  0  0  0  0  0  0  0
  191.9080  177.4800  144.4890 C   0  0  0  0  0  1  0  0  0  0  0  0
  194.7310  176.0940  144.4350 C   0  0  2  0  0  3  0  0  0  0  0  0
  193.2510  174.7460  143.1280 O   0  0  0  0  0  0  0  0  0  0  0  0
  189.4650  177.0320  142.6010 O   0  0  0  0  0  0  0  0  0  0  0  0
  189.2510  175.8670  142.8910 C   0  0  0  0  0  0  0  0  0  0  0  0
  187.8380  175.3720  142.9260 C   0  0  0  0  0  2  0  0  0  0  0  0
  186.2850  177.0230  144.1780 C   0  0  0  0  0  0  0  0  0  0  0  0
  184.4440  178.0560  142.8110 C   0  0  0  0  0  2  0  0  0  0  0  0
  186.8560  176.4990  142.9130 C   0  0  0  0  0  0  0  0  0  0  0  0
  185.4870  178.1600  141.6920 C   0  0  0  0  0  2  0  0  0  0  0  0
  186.3220  177.2320  146.5930 C   0  0  0  0  0  3  0  0  0  0  0  0
  185.1550  177.9990  146.5500 C   0  0  0  0  0  0  0  0  0  0  0  0
  183.4010  179.0130  145.2870 F   0  0  0  0  0  0  0  0  0  0  0  0
  185.1190  177.8140  144.1320 C   0  0  0  0  0  0  0  0  0  0  0  0
  186.4470  177.0010  141.7420 C   0  0  0  0  0  3  0  0  0  0  0  0
  184.5980  178.4700  147.7300 O   0  0  0  0  0  1  0  0  0  0  0  0
  184.5470  178.2880  145.3210 C   0  0  0  0  0  0  0  0  0  0  0  0
  186.8850  176.7420  145.4130 C   0  0  0  0  0  3  0  0  0  0  0  0
  189.9770  173.5030  143.0740 C   0  0  0  0  0  2  0  0  0  0  0  0
  190.8720  173.9240  140.7670 C   0  0  1  0  0  3  0  0  0  0  0  0
  189.9120  173.1410  139.8930 C   0  0  1  0  0  3  0  0  0  0  0  0
  190.7030  172.9000  141.8740 C   0  0  2  0  0  3  0  0  0  0  0  0
  189.7180  172.1340  141.0120 C   0  0  0  0  0  2  0  0  0  0  0  0
  192.1600  173.8340  140.2420 O   0  0  0  0  0  1  0  0  0  0  0  0
  188.6290  173.9310  139.6750 C   0  0  0  0  0  2  0  0  0  0  0  0
  187.5270  174.9360  137.8530 O   0  0  0  0  0  0  0  0  0  0  0  0
  188.4100  174.1790  138.2160 C   0  0  0  0  0  0  0  0  0  0  0  0
  189.2510  173.4810  137.1990 C   0  0  0  0  0  1  0  0  0  0  0  0
  1 30  1  1  0  0  0
  2  6  1  0  0  0  0
  3  9  1  6  0  0  0
  3  7  1  0  0  0  0
  4 13  1  0  0  0  0
  4  5  1  0  0  0  0
  5 12  1  6  0  0  0
  5  3  1  0  0  0  0
  6  7  1  0  0  0  0
  8  1  1  6  0  0  0
  8  5  1  0  0  0  0
  8  2  1  0  0  0  0
 11  9  1  0  0  0  0
 13 10  1  6  0  0  0
 13 11  1  0  0  0  0
 14  4  2  0  0  0  0
 15 16  2  0  0  0  0
 16 17  1  0  0  0  0
 16  1  1  0  0  0  0
 18 29  1  0  0  0  0
 19 25  1  0  0  0  0
 20 17  1  0  0  0  0
 20 18  1  0  0  0  0
 21 26  1  0  0  0  0
 21 19  1  0  0  0  0
 23 22  1  0  0  0  0
 23 27  1  0  0  0  0
 24 28  1  0  0  0  0
 25 18  2  0  0  0  0
 25 28  1  0  0  0  0
 26 20  2  0  0  0  0
 28 23  2  0  0  0  0
 29 22  2  0  0  0  0
 31 35  1  6  0  0  0
 31 33  1  0  0  0  0
 32 36  1  1  0  0  0
 32 31  1  0  0  0  0
 32 34  1  0  0  0  0
 33 30  1  1  0  0  0
 34 33  1  0  0  0  0
 37 38  2  0  0  0  0
 38 36  1  0  0  0  0
 39 38  1  0  0  0  0
M  END
>  <MODEL>
1

>  <REMARK>
 VINA RESULT:      -8.6      0.000      0.000
  Name = 
  8 active torsions:
  status: ('A' for Active; 'I' for Inactive)
    1  A    between atoms: C_10  and  C_12
    2  A    between atoms: C_10  and  C_28
    3  A    between atoms: C_10  and  C_39
    4  A    between atoms: C_13  and  C_38
    5  A    between atoms: C_19  and  C_25
    6  A    between atoms: C_20  and  C_25
    7  A    between atoms: C_26  and  C_28
    8  A    between atoms: C_38  and  C_39
                            x       y       z     vdW  Elec       q    Type
                         _______ _______ _______ _____ _____    ______ ____

>  <TORSDO>
F 8

$$$$
=
 OpenBabel11072409243D

 39 43  0  0  1  0  0  0  0  0999 V2000
  190.6040  175.1580  144.1090 C   0  0  2  0  0  3  0  0  0  0  0  0
  192.0770  175.1100  146.0700 O   0  0  0  0  0  0  0  0  0  0  0  0
  194.4610  175.3690  144.5460 C   0  0  2  0  0  3  0  0  0  0  0  0
  193.2350  175.7500  142.4960 C   0  0  0  0  0  0  0  0  0  0  0  0
  193.1200  175.8710  143.9960 C   0  0  1  0  0  0  0  0  0  0  0  0
  193.2850  174.5400  146.5260 C   0  0  0  0  0  2  0  0  0  0  0  0
  194.4900  175.3670  146.0640 C   0  0  0  0  0  2  0  0  0  0  0  0
  192.0370  174.9840  144.6590 C   0  0  2  0  0  3  0  0  0  0  0  0
  195.6400  176.0610  143.8590 C   0  0  0  0  0  2  0  0  0  0  0  0
  194.5410  176.0070  140.5040 O   0  0  0  0  0  1  0  0  0  0  0  0
  195.6440  175.7010  142.4930 O   0  0  0  0  0  0  0  0  0  0  0  0
  192.9060  177.3400  144.3610 C   0  0  0  0  0  1  0  0  0  0  0  0
  194.5110  176.2790  141.8720 C   0  0  2  0  0  3  0  0  0  0  0  0
  192.3510  175.2570  141.8140 O   0  0  0  0  0  0  0  0  0  0  0  0
  189.0210  175.0280  145.8750 O   0  0  0  0  0  0  0  0  0  0  0  0
  189.6120  175.7420  145.0810 C   0  0  0  0  0  0  0  0  0  0  0  0
  189.2690  177.1980  145.0160 C   0  0  0  0  0  2  0  0  0  0  0  0
  186.7370  177.6360  144.6970 C   0  0  0  0  0  0  0  0  0  0  0  0
  185.5650  178.7710  146.6110 C   0  0  0  0  0  2  0  0  0  0  0  0
  187.9150  177.4750  145.5850 C   0  0  0  0  0  0  0  0  0  0  0  0
  186.4220  177.8790  147.5170 C   0  0  0  0  0  2  0  0  0  0  0  0
  185.6560  177.3720  142.5430 C   0  0  0  0  0  3  0  0  0  0  0  0
  184.5050  177.9920  143.0390 C   0  0  0  0  0  0  0  0  0  0  0  0
  183.3500  179.0560  144.8370 F   0  0  0  0  0  0  0  0  0  0  0  0
  185.5700  178.2430  145.2040 C   0  0  0  0  0  0  0  0  0  0  0  0
  187.7770  177.6350  146.9060 C   0  0  0  0  0  3  0  0  0  0  0  0
  183.4090  178.1710  142.2090 O   0  0  0  0  0  1  0  0  0  0  0  0
  184.4610  178.4340  144.3680 C   0  0  0  0  0  0  0  0  0  0  0  0
  186.7690  177.1970  143.3670 C   0  0  0  0  0  3  0  0  0  0  0  0
  190.0650  173.8490  143.5460 C   0  0  0  0  0  2  0  0  0  0  0  0
  188.4960  172.9110  141.8270 C   0  0  1  0  0  3  0  0  0  0  0  0
  188.6990  173.8450  140.6500 C   0  0  1  0  0  3  0  0  0  0  0  0
  188.7580  174.0580  142.7850 C   0  0  2  0  0  3  0  0  0  0  0  0
  188.9940  174.9840  141.6080 C   0  0  0  0  0  2  0  0  0  0  0  0
  187.1540  172.5400  141.9020 O   0  0  0  0  0  1  0  0  0  0  0  0
  189.9600  173.4670  139.8860 C   0  0  0  0  0  2  0  0  0  0  0  0
  190.7300  173.7610  137.6800 O   0  0  0  0  0  0  0  0  0  0  0  0
  189.7640  173.6760  138.4180 C   0  0  0  0  0  0  0  0  0  0  0  0
  188.3890  173.8090  137.8530 C   0  0  0  0  0  1  0  0  0  0  0  0
  1 30  1  1  0  0  0
  1 16  1  0  0  0  0
  2  6  1  0  0  0  0
  3  9  1  6  0  0  0
  3  7  1  0  0  0  0
  4  5  1  0  0  0  0
  5 12  1  1  0  0  0
  5  3  1  0  0  0  0
  5  8  1  0  0  0  0
  7  6  1  0  0  0  0
  8  1  1  6  0  0  0
  8  2  1  0  0  0  0
 11  9  1  0  0  0  0
 13 10  1  6  0  0  0
 13 11  1  0  0  0  0
 13  4  1  0  0  0  0
 14  4  2  0  0  0  0
 16 15  2  0  0  0  0
 17 16  1  0  0  0  0
 17 20  1  0  0  0  0
 18 25  1  0  0  0  0
 18 20  1  0  0  0  0
 19 21  1  0  0  0  0
 20 26  2  0  0  0  0
 22 23  2  0  0  0  0
 22 29  1  0  0  0  0
 23 28  1  0  0  0  0
 25 19  1  0  0  0  0
 26 21  1  0  0  0  0
 27 23  1  0  0  0  0
 28 24  1  0  0  0  0
 28 25  2  0  0  0  0
 29 18  2  0  0  0  0
 31 35  1  1  0  0  0
 31 33  1  0  0  0  0
 32 36  1  6  0  0  0
 32 34  1  0  0  0  0
 32 31  1  0  0  0  0
 33 30  1  1  0  0  0
 34 33  1  0  0  0  0
 37 38  2  0  0  0  0
 38 36  1  0  0  0  0
 39 38  1  0  0  0  0
M  END
>  <MODEL>
2

>  <REMARK>
 VINA RESULT:      -8.4      1.838      2.969
  Name = 
  8 active torsions:
  status: ('A' for Active; 'I' for Inactive)
    1  A    between atoms: C_10  and  C_12
    2  A    between atoms: C_10  and  C_28
    3  A    between atoms: C_10  and  C_39
    4  A    between atoms: C_13  and  C_38
    5  A    between atoms: C_19  and  C_25
    6  A    between atoms: C_20  and  C_25
    7  A    between atoms: C_26  and  C_28
    8  A    between atoms: C_38  and  C_39
                            x       y       z     vdW  Elec       q    Type
                         _______ _______ _______ _____ _____    ______ ____

>  <TORSDO>
F 8

$$$$
=
 OpenBabel11072409243D

 39 43  0  0  1  0  0  0  0  0999 V2000
  190.9610  175.0140  144.6390 C   0  0  2  0  0  3  0  0  0  0  0  0
  189.3260  174.6640  142.8430 O   0  0  0  0  0  0  0  0  0  0  0  0
  190.3840  172.1370  142.0880 C   0  0  2  0  0  3  0  0  0  0  0  0
  191.8990  172.0900  143.9720 C   0  0  0  0  0  0  0  0  0  0  0  0
  190.5920  172.6830  143.5060 C   0  0  1  0  0  0  0  0  0  0  0  0
  189.2370  174.2200  141.5060 C   0  0  0  0  0  2  0  0  0  0  0  0
  189.1260  172.6930  141.4420 C   0  0  0  0  0  2  0  0  0  0  0  0
  190.5660  174.2250  143.3700 C   0  0  2  0  0  3  0  0  0  0  0  0
  190.5360  170.6160  142.0470 C   0  0  0  0  0  2  0  0  0  0  0  0
  193.3730  170.2050  144.1080 O   0  0  0  0  0  1  0  0  0  0  0  0
  191.8690  170.2840  142.3760 O   0  0  0  0  0  0  0  0  0  0  0  0
  189.4730  172.2090  144.4330 C   0  0  0  0  0  1  0  0  0  0  0  0
  192.0880  170.6040  143.7380 C   0  0  2  0  0  3  0  0  0  0  0  0
  192.7630  172.7630  144.5120 O   0  0  0  0  0  0  0  0  0  0  0  0
  189.1390  175.0010  146.1610 O   0  0  0  0  0  0  0  0  0  0  0  0
  189.8140  175.6500  145.3790 C   0  0  0  0  0  0  0  0  0  0  0  0
  189.4300  177.0680  145.0890 C   0  0  0  0  0  2  0  0  0  0  0  0
  186.9100  177.5380  144.7230 C   0  0  0  0  0  0  0  0  0  0  0  0
  185.7430  178.7870  146.5680 C   0  0  0  0  0  2  0  0  0  0  0  0
  188.0760  177.3980  145.6300 C   0  0  0  0  0  0  0  0  0  0  0  0
  186.5740  177.9230  147.5250 C   0  0  0  0  0  2  0  0  0  0  0  0
  185.8440  177.1910  142.5740 C   0  0  0  0  0  3  0  0  0  0  0  0
  184.7010  177.8560  143.0270 C   0  0  0  0  0  0  0  0  0  0  0  0
  183.5510  179.0280  144.7600 F   0  0  0  0  0  0  0  0  0  0  0  0
  185.7500  178.1910  145.1880 C   0  0  0  0  0  0  0  0  0  0  0  0
  187.9290  177.6240  146.9400 C   0  0  0  0  0  3  0  0  0  0  0  0
  183.6170  178.0150  142.1780 O   0  0  0  0  0  1  0  0  0  0  0  0
  184.6530  178.3630  144.3320 C   0  0  0  0  0  0  0  0  0  0  0  0
  186.9470  177.0350  143.4160 C   0  0  0  0  0  3  0  0  0  0  0  0
  192.0210  176.0630  144.3300 C   0  0  0  0  0  2  0  0  0  0  0  0
  194.2670  176.7660  145.2030 C   0  0  1  0  0  3  0  0  0  0  0  0
  194.7480  175.5180  145.9170 C   0  0  1  0  0  3  0  0  0  0  0  0
  192.8340  176.4250  145.5700 C   0  0  2  0  0  3  0  0  0  0  0  0
  193.3130  175.1610  146.2560 C   0  0  0  0  0  2  0  0  0  0  0  0
  194.6730  177.8950  145.9130 O   0  0  0  0  0  1  0  0  0  0  0  0
  195.3110  174.5190  144.9160 C   0  0  0  0  0  2  0  0  0  0  0  0
  197.6230  174.6670  144.4930 O   0  0  0  0  0  0  0  0  0  0  0  0
  196.7470  174.2300  145.2190 C   0  0  0  0  0  0  0  0  0  0  0  0
  197.1140  173.3820  146.3910 C   0  0  0  0  0  1  0  0  0  0  0  0
  1 30  1  6  0  0  0
  1 16  1  0  0  0  0
  2  8  1  0  0  0  0
  3  7  1  1  0  0  0
  3  5  1  0  0  0  0
  4 14  2  0  0  0  0
  5  4  1  0  0  0  0
  5 12  1  1  0  0  0
  6  2  1  0  0  0  0
  7  6  1  0  0  0  0
  8  5  1  0  0  0  0
  8  1  1  1  0  0  0
  9  3  1  0  0  0  0
  9 11  1  0  0  0  0
 11 13  1  0  0  0  0
 13  4  1  0  0  0  0
 13 10  1  6  0  0  0
 16 15  2  0  0  0  0
 17 16  1  0  0  0  0
 17 20  1  0  0  0  0
 18 25  1  0  0  0  0
 18 20  1  0  0  0  0
 19 21  1  0  0  0  0
 20 26  2  0  0  0  0
 22 23  2  0  0  0  0
 22 29  1  0  0  0  0
 23 28  1  0  0  0  0
 25 19  1  0  0  0  0
 26 21  1  0  0  0  0
 27 23  1  0  0  0  0
 28 24  1  0  0  0  0
 28 25  2  0  0  0  0
 29 18  2  0  0  0  0
 31 33  1  0  0  0  0
 31 35  1  1  0  0  0
 31 32  1  0  0  0  0
 32 36  1  6  0  0  0
 32 34  1  0  0  0  0
 33 30  1  6  0  0  0
 33 34  1  0  0  0  0
 36 38  1  0  0  0  0
 37 38  2  0  0  0  0
 38 39  1  0  0  0  0
M  END
>  <MODEL>
3

>  <REMARK>
 VINA RESULT:      -8.3      2.137      5.833
  Name = 
  8 active torsions:
  status: ('A' for Active; 'I' for Inactive)
    1  A    between atoms: C_10  and  C_12
    2  A    between atoms: C_10  and  C_28
    3  A    between atoms: C_10  and  C_39
    4  A    between atoms: C_13  and  C_38
    5  A    between atoms: C_19  and  C_25
    6  A    between atoms: C_20  and  C_25
    7  A    between atoms: C_26  and  C_28
    8  A    between atoms: C_38  and  C_39
                            x       y       z     vdW  Elec       q    Type
                         _______ _______ _______ _____ _____    ______ ____

>  <TORSDO>
F 8

$$$$
=
 OpenBabel11072409243D

 39 43  0  0  1  0  0  0  0  0999 V2000
  191.7410  174.6600  144.3170 C   0  0  2  0  0  3  0  0  0  0  0  0
  193.1900  173.1650  145.6170 O   0  0  0  0  0  0  0  0  0  0  0  0
  195.5590  173.9250  144.2420 C   0  0  2  0  0  3  0  0  0  0  0  0
  194.4220  175.6890  143.0410 C   0  0  0  0  0  0  0  0  0  0  0  0
  194.3510  174.8680  144.3050 C   0  0  1  0  0  0  0  0  0  0  0  0
  194.2520  172.2490  145.4580 C   0  0  0  0  0  2  0  0  0  0  0  0
  195.6010  172.9740  145.4260 C   0  0  0  0  0  2  0  0  0  0  0  0
  193.1090  173.9520  144.4410 C   0  0  2  0  0  3  0  0  0  0  0  0
  196.8510  174.6900  143.9560 C   0  0  0  0  0  2  0  0  0  0  0  0
  195.7320  176.9120  141.4510 O   0  0  0  0  0  1  0  0  0  0  0  0
  196.7640  175.2620  142.6680 O   0  0  0  0  0  0  0  0  0  0  0  0
  194.4610  175.8020  145.5100 C   0  0  0  0  0  1  0  0  0  0  0  0
  195.7760  176.2750  142.6910 C   0  0  2  0  0  3  0  0  0  0  0  0
  193.4450  175.8780  142.3330 O   0  0  0  0  0  0  0  0  0  0  0  0
  191.1560  175.1640  146.5630 O   0  0  0  0  0  0  0  0  0  0  0  0
  191.4010  175.5950  145.4490 C   0  0  0  0  0  0  0  0  0  0  0  0
  191.2650  177.0640  145.1900 C   0  0  0  0  0  2  0  0  0  0  0  0
  188.6980  177.2380  144.9010 C   0  0  0  0  0  0  0  0  0  0  0  0
  187.8490  177.1830  142.5330 C   0  0  0  0  0  2  0  0  0  0  0  0
  190.0680  177.3710  144.3480 C   0  0  0  0  0  0  0  0  0  0  0  0
  189.0570  178.0680  142.2000 C   0  0  0  0  0  2  0  0  0  0  0  0
  187.1820  177.0290  146.7810 C   0  0  0  0  0  3  0  0  0  0  0  0
  186.0970  176.9480  145.9040 C   0  0  0  0  0  0  0  0  0  0  0  0
  185.2490  176.9130  143.6730 F   0  0  0  0  0  0  0  0  0  0  0  0
  187.6020  177.1770  144.0160 C   0  0  0  0  0  0  0  0  0  0  0  0
  190.2370  177.7160  143.0670 C   0  0  0  0  0  3  0  0  0  0  0  0
  184.8150  176.7960  146.4100 O   0  0  0  0  0  1  0  0  0  0  0  0
  186.3030  177.0150  144.5200 C   0  0  0  0  0  0  0  0  0  0  0  0
  188.4790  177.1700  146.2830 C   0  0  0  0  0  3  0  0  0  0  0  0
  190.6140  173.6540  144.1230 C   0  0  0  0  0  2  0  0  0  0  0  0
  189.1090  172.8340  142.2890 C   0  0  1  0  0  3  0  0  0  0  0  0
  189.9080  173.1510  141.0410 C   0  0  1  0  0  3  0  0  0  0  0  0
  189.6920  174.0560  142.9750 C   0  0  2  0  0  3  0  0  0  0  0  0
  190.5150  174.3540  141.7370 C   0  0  0  0  0  2  0  0  0  0  0  0
  187.7530  173.0430  142.0410 O   0  0  0  0  0  1  0  0  0  0  0  0
  190.9740  172.0890  140.8100 C   0  0  0  0  0  2  0  0  0  0  0  0
  192.0020  171.4840  138.7800 O   0  0  0  0  0  0  0  0  0  0  0  0
  190.9550  171.6310  139.3860 C   0  0  0  0  0  0  0  0  0  0  0  0
  189.6580  171.3770  138.6930 C   0  0  0  0  0  1  0  0  0  0  0  0
  1 30  1  1  0  0  0
  1 16  1  0  0  0  0
  3  9  1  1  0  0  0
  3  5  1  0  0  0  0
  3  7  1  0  0  0  0
  4  5  1  0  0  0  0
  5  8  1  0  0  0  0
  5 12  1  1  0  0  0
  6  2  1  0  0  0  0
  7  6  1  0  0  0  0
  8  1  1  1  0  0  0
  8  2  1  0  0  0  0
 11 13  1  0  0  0  0
 11  9  1  0  0  0  0
 13 10  1  6  0  0  0
 13  4  1  0  0  0  0
 14  4  2  0  0  0  0
 16 15  2  0  0  0  0
 17 16  1  0  0  0  0
 18 29  1  0  0  0  0
 19 25  1  0  0  0  0
 20 18  1  0  0  0  0
 20 17  1  0  0  0  0
 21 19  1  0  0  0  0
 21 26  1  0  0  0  0
 23 27  1  0  0  0  0
 23 22  1  0  0  0  0
 24 28  1  0  0  0  0
 25 28  1  0  0  0  0
 25 18  2  0  0  0  0
 26 20  2  0  0  0  0
 28 23  2  0  0  0  0
 29 22  2  0  0  0  0
 31 35  1  6  0  0  0
 31 33  1  0  0  0  0
 32 36  1  1  0  0  0
 32 34  1  0  0  0  0
 32 31  1  0  0  0  0
 33 30  1  1  0  0  0
 34 33  1  0  0  0  0
 37 38  2  0  0  0  0
 38 36  1  0  0  0  0
 39 38  1  0  0  0  0
M  END
>  <MODEL>
4

>  <REMARK>
 VINA RESULT:      -8.3      2.027      3.286
  Name = 
  8 active torsions:
  status: ('A' for Active; 'I' for Inactive)
    1  A    between atoms: C_10  and  C_12
    2  A    between atoms: C_10  and  C_28
    3  A    between atoms: C_10  and  C_39
    4  A    between atoms: C_13  and  C_38
    5  A    between atoms: C_19  and  C_25
    6  A    between atoms: C_20  and  C_25
    7  A    between atoms: C_26  and  C_28
    8  A    between atoms: C_38  and  C_39
                            x       y       z     vdW  Elec       q    Type
                         _______ _______ _______ _____ _____    ______ ____

>  <TORSDO>
F 8

$$$$
=
 OpenBabel11072409243D

 39 43  0  0  1  0  0  0  0  0999 V2000
  189.9920  174.9930  142.7260 C   0  0  2  0  0  3  0  0  0  0  0  0
  189.3150  175.0130  145.0850 O   0  0  0  0  0  0  0  0  0  0  0  0
  191.9640  175.3520  146.0590 C   0  0  2  0  0  3  0  0  0  0  0  0
  192.8540  175.6730  143.8330 C   0  0  0  0  0  0  0  0  0  0  0  0
  191.5860  175.7990  144.6410 C   0  0  1  0  0  0  0  0  0  0  0  0
  189.6890  174.4920  146.3420 C   0  0  0  0  0  2  0  0  0  0  0  0
  190.7690  175.3600  146.9960 C   0  0  0  0  0  2  0  0  0  0  0  0
  190.4190  174.8770  144.2070 C   0  0  2  0  0  3  0  0  0  0  0  0
  193.2090  176.0830  146.5620 C   0  0  0  0  0  2  0  0  0  0  0  0
  195.2260  175.9670  143.6650 O   0  0  0  0  0  1  0  0  0  0  0  0
  194.3080  175.7150  145.7540 O   0  0  0  0  0  0  0  0  0  0  0  0
  191.1390  177.2620  144.6410 C   0  0  0  0  0  1  0  0  0  0  0  0
  194.1110  176.2460  144.4570 C   0  0  2  0  0  3  0  0  0  0  0  0
  192.8740  175.1430  142.7340 O   0  0  0  0  0  0  0  0  0  0  0  0
  187.6410  174.9740  142.3970 O   0  0  0  0  0  0  0  0  0  0  0  0
  188.6540  175.6460  142.4960 C   0  0  0  0  0  0  0  0  0  0  0  0
  188.5690  177.1270  142.2910 C   0  0  0  0  0  2  0  0  0  0  0  0
  186.8470  177.7470  144.1230 C   0  0  0  0  0  0  0  0  0  0  0  0
  184.4550  177.9340  143.3680 C   0  0  0  0  0  2  0  0  0  0  0  0
  187.2350  177.6670  142.6930 C   0  0  0  0  0  0  0  0  0  0  0  0
  185.0220  178.6130  142.1150 C   0  0  0  0  0  2  0  0  0  0  0  0
  187.4210  177.7220  146.4780 C   0  0  0  0  0  3  0  0  0  0  0  0
  186.0710  177.8630  146.8140 C   0  0  0  0  0  0  0  0  0  0  0  0
  183.7910  178.0630  146.1390 F   0  0  0  0  0  0  0  0  0  0  0  0
  185.4880  177.9090  144.4600 C   0  0  0  0  0  0  0  0  0  0  0  0
  186.3610  178.0300  141.7480 C   0  0  0  0  0  3  0  0  0  0  0  0
  185.6970  177.9100  148.1480 O   0  0  0  0  0  1  0  0  0  0  0  0
  185.1010  177.9510  145.8080 C   0  0  0  0  0  0  0  0  0  0  0  0
  187.8090  177.6610  145.1390 C   0  0  0  0  0  3  0  0  0  0  0  0
  190.0320  173.6380  142.0320 C   0  0  0  0  0  2  0  0  0  0  0  0
  189.0100  172.7370  139.9240 C   0  0  1  0  0  3  0  0  0  0  0  0
  190.1890  172.0650  139.2470 C   0  0  1  0  0  3  0  0  0  0  0  0
  189.9410  173.7800  140.5150 C   0  0  2  0  0  3  0  0  0  0  0  0
  191.1240  173.0890  139.8640 C   0  0  0  0  0  2  0  0  0  0  0  0
  188.1970  173.3320  138.9600 O   0  0  0  0  0  1  0  0  0  0  0  0
  190.4410  170.6940  139.8590 C   0  0  0  0  0  2  0  0  0  0  0  0
  190.6390  168.4780  139.0900 O   0  0  0  0  0  0  0  0  0  0  0  0
  190.3680  169.6320  138.8090 C   0  0  0  0  0  0  0  0  0  0  0  0
  189.9910  169.9820  137.4080 C   0  0  0  0  0  1  0  0  0  0  0  0
  1 30  1  1  0  0  0
  2  6  1  0  0  0  0
  3  9  1  1  0  0  0
  3  7  1  0  0  0  0
  4 13  1  0  0  0  0
  4  5  1  0  0  0  0
  5 12  1  1  0  0  0
  5  3  1  0  0  0  0
  6  7  1  0  0  0  0
  8  1  1  6  0  0  0
  8  5  1  0  0  0  0
  8  2  1  0  0  0  0
 11  9  1  0  0  0  0
 13 10  1  6  0  0  0
 13 11  1  0  0  0  0
 14  4  2  0  0  0  0
 15 16  2  0  0  0  0
 16  1  1  0  0  0  0
 17 16  1  0  0  0  0
 17 20  1  0  0  0  0
 18 25  2  0  0  0  0
 18 29  1  0  0  0  0
 19 25  1  0  0  0  0
 20 18  1  0  0  0  0
 21 19  1  0  0  0  0
 22 23  1  0  0  0  0
 23 27  1  0  0  0  0
 25 28  1  0  0  0  0
 26 21  1  0  0  0  0
 26 20  2  0  0  0  0
 28 24  1  0  0  0  0
 28 23  2  0  0  0  0
 29 22  2  0  0  0  0
 31 35  1  6  0  0  0
 31 33  1  0  0  0  0
 32 36  1  1  0  0  0
 32 34  1  0  0  0  0
 32 31  1  0  0  0  0
 33 30  1  1  0  0  0
 34 33  1  0  0  0  0
 38 37  2  0  0  0  0
 38 36  1  0  0  0  0
 39 38  1  0  0  0  0
M  END
>  <MODEL>
5

>  <REMARK>
 VINA RESULT:      -8.2      1.618      2.107
  Name = 
  8 active torsions:
  status: ('A' for Active; 'I' for Inactive)
    1  A    between atoms: C_10  and  C_12
    2  A    between atoms: C_10  and  C_28
    3  A    between atoms: C_10  and  C_39
    4  A    between atoms: C_13  and  C_38
    5  A    between atoms: C_19  and  C_25
    6  A    between atoms: C_20  and  C_25
    7  A    between atoms: C_26  and  C_28
    8  A    between atoms: C_38  and  C_39
                            x       y       z     vdW  Elec       q    Type
                         _______ _______ _______ _____ _____    ______ ____

>  <TORSDO>
F 8

$$$$
=
 OpenBabel11072409243D

 39 43  0  0  1  0  0  0  0  0999 V2000
  191.2870  176.1530  143.9860 C   0  0  2  0  0  3  0  0  0  0  0  0
  192.2080  174.6120  145.6580 O   0  0  0  0  0  0  0  0  0  0  0  0
  194.7780  174.5050  144.4500 C   0  0  2  0  0  3  0  0  0  0  0  0
  194.2210  176.2450  142.8650 C   0  0  0  0  0  0  0  0  0  0  0  0
  193.8560  175.7110  144.2280 C   0  0  1  0  0  0  0  0  0  0  0  0
  193.0030  173.4510  145.7660 C   0  0  0  0  0  2  0  0  0  0  0  0
  194.4940  173.8050  145.7680 C   0  0  0  0  0  2  0  0  0  0  0  0
  192.4130  175.1670  144.3710 C   0  0  2  0  0  3  0  0  0  0  0  0
  196.2410  174.8660  144.1900 C   0  0  0  0  0  2  0  0  0  0  0  0
  195.9070  176.7990  141.2540 O   0  0  0  0  0  1  0  0  0  0  0  0
  196.3910  175.1970  142.8250 O   0  0  0  0  0  0  0  0  0  0  0  0
  194.1260  176.7920  145.2740 C   0  0  0  0  0  1  0  0  0  0  0  0
  195.7010  176.4080  142.5780 C   0  0  2  0  0  3  0  0  0  0  0  0
  193.3760  176.5350  142.0330 O   0  0  0  0  0  0  0  0  0  0  0  0
  190.5430  177.4640  145.8220 O   0  0  0  0  0  0  0  0  0  0  0  0
  190.3350  176.5030  145.1010 C   0  0  0  0  0  0  0  0  0  0  0  0
  189.1680  175.6120  145.3940 C   0  0  0  0  0  2  0  0  0  0  0  0
  187.0870  176.8700  144.5020 C   0  0  0  0  0  0  0  0  0  0  0  0
  186.0360  178.5210  146.0820 C   0  0  0  0  0  2  0  0  0  0  0  0
  187.9180  176.3960  145.6360 C   0  0  0  0  0  0  0  0  0  0  0  0
  186.3080  177.4780  147.1730 C   0  0  0  0  0  2  0  0  0  0  0  0
  186.4510  176.7920  142.1640 C   0  0  0  0  0  3  0  0  0  0  0  0
  185.5260  177.8180  142.3760 C   0  0  0  0  0  0  0  0  0  0  0  0
  184.4890  179.3860  143.8480 F   0  0  0  0  0  0  0  0  0  0  0  0
  186.1400  177.8910  144.7210 C   0  0  0  0  0  0  0  0  0  0  0  0
  187.5780  176.7210  146.8890 C   0  0  0  0  0  3  0  0  0  0  0  0
  184.7650  178.2860  141.3160 O   0  0  0  0  0  1  0  0  0  0  0  0
  185.3720  178.3740  143.6520 C   0  0  0  0  0  0  0  0  0  0  0  0
  187.2320  176.3210  143.2210 C   0  0  0  0  0  3  0  0  0  0  0  0
  190.5060  175.6570  142.7770 C   0  0  0  0  0  2  0  0  0  0  0  0
  190.9330  173.9060  141.0300 C   0  0  1  0  0  3  0  0  0  0  0  0
  189.6310  173.1310  141.0140 C   0  0  1  0  0  3  0  0  0  0  0  0
  190.7580  174.1740  142.5140 C   0  0  2  0  0  3  0  0  0  0  0  0
  189.4390  173.4270  142.4900 C   0  0  0  0  0  2  0  0  0  0  0  0
  192.0010  173.0290  140.8390 O   0  0  0  0  0  1  0  0  0  0  0  0
  188.5840  173.8710  140.1940 C   0  0  0  0  0  2  0  0  0  0  0  0
  188.6810  172.0990  138.6460 O   0  0  0  0  0  0  0  0  0  0  0  0
  188.4900  173.2900  138.8190 C   0  0  0  0  0  0  0  0  0  0  0  0
  188.1920  174.1680  137.6490 C   0  0  0  0  0  1  0  0  0  0  0  0
  1 30  1  6  0  0  0
  1 16  1  0  0  0  0
  2  6  1  0  0  0  0
  3  9  1  1  0  0  0
  3  7  1  0  0  0  0
  4  5  1  0  0  0  0
  5  8  1  0  0  0  0
  5  3  1  0  0  0  0
  5 12  1  1  0  0  0
  6  7  1  0  0  0  0
  8  1  1  1  0  0  0
  8  2  1  0  0  0  0
 11  9  1  0  0  0  0
 13 10  1  6  0  0  0
 13 11  1  0  0  0  0
 13  4  1  0  0  0  0
 14  4  2  0  0  0  0
 16 17  1  0  0  0  0
 16 15  2  0  0  0  0
 17 20  1  0  0  0  0
 18 25  1  0  0  0  0
 18 20  1  0  0  0  0
 19 21  1  0  0  0  0
 20 26  2  0  0  0  0
 22 23  2  0  0  0  0
 22 29  1  0  0  0  0
 23 28  1  0  0  0  0
 25 19  1  0  0  0  0
 26 21  1  0  0  0  0
 27 23  1  0  0  0  0
 28 24  1  0  0  0  0
 28 25  2  0  0  0  0
 29 18  2  0  0  0  0
 31 35  1  1  0  0  0
 31 33  1  0  0  0  0
 32 36  1  6  0  0  0
 32 31  1  0  0  0  0
 32 34  1  0  0  0  0
 33 30  1  6  0  0  0
 34 33  1  0  0  0  0
 37 38  2  0  0  0  0
 38 36  1  0  0  0  0
 39 38  1  0  0  0  0
M  END
>  <MODEL>
6

>  <REMARK>
 VINA RESULT:      -8.1      1.806      2.916
  Name = 
  8 active torsions:
  status: ('A' for Active; 'I' for Inactive)
    1  A    between atoms: C_10  and  C_12
    2  A    between atoms: C_10  and  C_28
    3  A    between atoms: C_10  and  C_39
    4  A    between atoms: C_13  and  C_38
    5  A    between atoms: C_19  and  C_25
    6  A    between atoms: C_20  and  C_25
    7  A    between atoms: C_26  and  C_28
    8  A    between atoms: C_38  and  C_39
                            x       y       z     vdW  Elec       q    Type
                         _______ _______ _______ _____ _____    ______ ____

>  <TORSDO>
F 8

$$$$
=
 OpenBabel11072409243D

 39 43  0  0  1  0  0  0  0  0999 V2000
  187.5820  176.8010  142.8670 C   0  0  2  0  0  3  0  0  0  0  0  0
  185.6170  177.9250  141.9180 O   0  0  0  0  0  0  0  0  0  0  0  0
  184.2800  178.1520  144.4150 C   0  0  2  0  0  3  0  0  0  0  0  0
  186.2060  177.3490  145.6380 C   0  0  0  0  0  0  0  0  0  0  0  0
  185.8080  178.0280  144.3510 C   0  0  1  0  0  0  0  0  0  0  0  0
  184.2070  177.9170  141.9790 C   0  0  0  0  0  2  0  0  0  0  0  0
  183.7050  178.7670  143.1510 C   0  0  0  0  0  2  0  0  0  0  0  0
  186.1110  177.2370  143.0540 C   0  0  2  0  0  3  0  0  0  0  0  0
  183.8260  178.7860  145.7300 C   0  0  0  0  0  2  0  0  0  0  0  0
  185.9400  177.1090  148.0080 O   0  0  0  0  0  1  0  0  0  0  0  0
  184.1700  177.9210  146.7940 O   0  0  0  0  0  0  0  0  0  0  0  0
  186.4560  179.4110  144.2980 C   0  0  0  0  0  1  0  0  0  0  0  0
  185.5800  177.8900  146.9090 C   0  0  2  0  0  3  0  0  0  0  0  0
  186.9910  176.4140  145.6650 O   0  0  0  0  0  0  0  0  0  0  0  0
  188.5560  178.2880  141.2910 O   0  0  0  0  0  0  0  0  0  0  0  0
  188.5250  177.8990  142.4470 C   0  0  0  0  0  0  0  0  0  0  0  0
  189.5060  178.4580  143.4300 C   0  0  0  0  0  2  0  0  0  0  0  0
  190.8690  176.9230  145.0090 C   0  0  0  0  0  0  0  0  0  0  0  0
  193.2250  176.4140  144.2870 C   0  0  0  0  0  2  0  0  0  0  0  0
  190.6470  177.5220  143.6700 C   0  0  0  0  0  0  0  0  0  0  0  0
  192.6460  176.3000  142.8720 C   0  0  0  0  0  2  0  0  0  0  0  0
  190.0930  176.3690  147.2380 C   0  0  0  0  0  3  0  0  0  0  0  0
  191.3410  175.8180  147.5410 C   0  0  0  0  0  0  0  0  0  0  0  0
  193.5780  175.2980  146.8880 F   0  0  0  0  0  0  0  0  0  0  0  0
  192.1220  176.3500  145.3070 C   0  0  0  0  0  0  0  0  0  0  0  0
  191.5070  177.2660  142.6770 C   0  0  0  0  0  3  0  0  0  0  0  0
  191.5670  175.2820  148.8000 O   0  0  0  0  0  1  0  0  0  0  0  0
  192.3610  175.8130  146.5810 C   0  0  0  0  0  0  0  0  0  0  0  0
  189.8570  176.9230  145.9780 C   0  0  0  0  0  3  0  0  0  0  0  0
  187.6920  175.6290  141.9010 C   0  0  0  0  0  2  0  0  0  0  0  0
  189.5020  174.2010  142.8920 C   0  0  1  0  0  3  0  0  0  0  0  0
  189.5780  173.0420  141.9190 C   0  0  1  0  0  3  0  0  0  0  0  0
  188.0120  174.3270  142.6300 C   0  0  2  0  0  3  0  0  0  0  0  0
  188.0960  173.1880  141.6320 C   0  0  0  0  0  2  0  0  0  0  0  0
  189.7080  173.7350  144.1910 O   0  0  0  0  0  1  0  0  0  0  0  0
  190.3880  173.4330  140.6910 C   0  0  0  0  0  2  0  0  0  0  0  0
  191.7690  171.5520  141.0090 O   0  0  0  0  0  0  0  0  0  0  0  0
  191.1990  172.2730  140.2080 C   0  0  0  0  0  0  0  0  0  0  0  0
  191.3390  172.0080  138.7460 C   0  0  0  0  0  1  0  0  0  0  0  0
  1 30  1  6  0  0  0
  2  6  1  0  0  0  0
  2  8  1  0  0  0  0
  3  7  1  6  0  0  0
  3  9  1  0  0  0  0
  4 14  2  0  0  0  0
  4 13  1  0  0  0  0
  5 12  1  6  0  0  0
  5  3  1  0  0  0  0
  5  4  1  0  0  0  0
  6  7  1  0  0  0  0
  8  1  1  6  0  0  0
  8  5  1  0  0  0  0
  9 11  1  0  0  0  0
 11 13  1  0  0  0  0
 13 10  1  1  0  0  0
 15 16  2  0  0  0  0
 16  1  1  0  0  0  0
 16 17  1  0  0  0  0
 17 20  1  0  0  0  0
 18 25  2  0  0  0  0
 18 29  1  0  0  0  0
 19 25  1  0  0  0  0
 20 18  1  0  0  0  0
 21 19  1  0  0  0  0
 22 23  1  0  0  0  0
 23 27  1  0  0  0  0
 25 28  1  0  0  0  0
 26 21  1  0  0  0  0
 26 20  2  0  0  0  0
 28 24  1  0  0  0  0
 28 23  2  0  0  0  0
 29 22  2  0  0  0  0
 31 35  1  1  0  0  0
 32 36  1  6  0  0  0
 32 31  1  0  0  0  0
 33 30  1  6  0  0  0
 33 31  1  0  0  0  0
 34 32  1  0  0  0  0
 34 33  1  0  0  0  0
 38 36  1  0  0  0  0
 38 37  2  0  0  0  0
 39 38  1  0  0  0  0
M  END
>  <MODEL>
7

>  <REMARK>
 VINA RESULT:      -7.8      2.740      6.511
  Name = 
  8 active torsions:
  status: ('A' for Active; 'I' for Inactive)
    1  A    between atoms: C_10  and  C_12
    2  A    between atoms: C_10  and  C_28
    3  A    between atoms: C_10  and  C_39
    4  A    between atoms: C_13  and  C_38
    5  A    between atoms: C_19  and  C_25
    6  A    between atoms: C_20  and  C_25
    7  A    between atoms: C_26  and  C_28
    8  A    between atoms: C_38  and  C_39
                            x       y       z     vdW  Elec       q    Type
                         _______ _______ _______ _____ _____    ______ ____

>  <TORSDO>
F 8

$$$$
=
 OpenBabel11072409243D

 39 43  0  0  1  0  0  0  0  0999 V2000
  191.3510  174.3940  143.5770 C   0  0  2  0  0  3  0  0  0  0  0  0
  192.1510  172.3430  144.6610 O   0  0  0  0  0  0  0  0  0  0  0  0
  194.8360  173.2510  144.8670 C   0  0  2  0  0  3  0  0  0  0  0  0
  194.2560  175.4710  144.1030 C   0  0  0  0  0  0  0  0  0  0  0  0
  193.6760  174.2490  144.7720 C   0  0  1  0  0  0  0  0  0  0  0  0
  193.2220  171.4250  144.6260 C   0  0  0  0  0  2  0  0  0  0  0  0
  194.4000  171.9250  145.4680 C   0  0  0  0  0  2  0  0  0  0  0  0
  192.5580  173.5200  143.9850 C   0  0  2  0  0  3  0  0  0  0  0  0
  196.0740  173.8910  145.4950 C   0  0  0  0  0  2  0  0  0  0  0  0
  196.0660  177.0230  143.8630 O   0  0  0  0  0  1  0  0  0  0  0  0
  196.5390  174.9150  144.6390 O   0  0  0  0  0  0  0  0  0  0  0  0
  193.1830  174.6330  146.1680 C   0  0  0  0  0  1  0  0  0  0  0  0
  195.5870  175.9630  144.6350 C   0  0  2  0  0  3  0  0  0  0  0  0
  193.6880  176.0400  143.1840 O   0  0  0  0  0  0  0  0  0  0  0  0
  189.8950  174.2820  145.4490 O   0  0  0  0  0  0  0  0  0  0  0  0
  190.5740  174.9880  144.7240 C   0  0  0  0  0  0  0  0  0  0  0  0
  190.5550  176.4710  144.9260 C   0  0  0  0  0  2  0  0  0  0  0  0
  188.0860  177.2430  144.8100 C   0  0  0  0  0  0  0  0  0  0  0  0
  187.1510  177.6030  142.5030 C   0  0  0  0  0  2  0  0  0  0  0  0
  189.4260  177.1170  144.1870 C   0  0  0  0  0  0  0  0  0  0  0  0
  188.5140  178.2220  142.1700 C   0  0  0  0  0  2  0  0  0  0  0  0
  186.6410  177.2010  146.7560 C   0  0  0  0  0  3  0  0  0  0  0  0
  185.5300  177.4490  145.9440 C   0  0  0  0  0  0  0  0  0  0  0  0
  184.6070  177.8160  143.7730 F   0  0  0  0  0  0  0  0  0  0  0  0
  186.9690  177.5130  143.9920 C   0  0  0  0  0  0  0  0  0  0  0  0
  189.6170  177.5350  142.9310 C   0  0  0  0  0  3  0  0  0  0  0  0
  184.2700  177.5410  146.5130 O   0  0  0  0  0  1  0  0  0  0  0  0
  185.6900  177.5990  144.5600 C   0  0  0  0  0  0  0  0  0  0  0  0
  187.9140  177.0950  146.1930 C   0  0  0  0  0  3  0  0  0  0  0  0
  190.4070  173.6360  142.6530 C   0  0  0  0  0  2  0  0  0  0  0  0
  188.9220  173.8890  140.6450 C   0  0  1  0  0  3  0  0  0  0  0  0
  189.7750  173.3170  139.5300 C   0  0  1  0  0  3  0  0  0  0  0  0
  190.1710  174.3900  141.3460 C   0  0  2  0  0  3  0  0  0  0  0  0
  191.0260  173.7900  140.2470 C   0  0  0  0  0  2  0  0  0  0  0  0
  188.1910  174.9750  140.1640 O   0  0  0  0  0  1  0  0  0  0  0  0
  189.7110  171.7970  139.5400 C   0  0  0  0  0  2  0  0  0  0  0  0
  189.8450  172.0280  137.2010 O   0  0  0  0  0  0  0  0  0  0  0  0
  189.7650  171.2610  138.1450 C   0  0  0  0  0  0  0  0  0  0  0  0
  189.6920  169.7910  137.8990 C   0  0  0  0  0  1  0  0  0  0  0  0
  1 30  1  1  0  0  0
  1 16  1  0  0  0  0
  3  7  1  1  0  0  0
  3  9  1  0  0  0  0
  4 13  1  0  0  0  0
  4  5  1  0  0  0  0
  5  3  1  0  0  0  0
  5 12  1  1  0  0  0
  6  2  1  0  0  0  0
  6  7  1  0  0  0  0
  8  1  1  1  0  0  0
  8  2  1  0  0  0  0
  8  5  1  0  0  0  0
 11  9  1  0  0  0  0
 13 10  1  6  0  0  0
 13 11  1  0  0  0  0
 14  4  2  0  0  0  0
 16 17  1  0  0  0  0
 16 15  2  0  0  0  0
 18 29  1  0  0  0  0
 19 25  1  0  0  0  0
 20 18  1  0  0  0  0
 20 17  1  0  0  0  0
 21 19  1  0  0  0  0
 21 26  1  0  0  0  0
 23 27  1  0  0  0  0
 23 22  1  0  0  0  0
 24 28  1  0  0  0  0
 25 28  1  0  0  0  0
 25 18  2  0  0  0  0
 26 20  2  0  0  0  0
 28 23  2  0  0  0  0
 29 22  2  0  0  0  0
 31 35  1  6  0  0  0
 31 33  1  0  0  0  0
 32 36  1  1  0  0  0
 32 34  1  0  0  0  0
 32 31  1  0  0  0  0
 33 30  1  1  0  0  0
 34 33  1  0  0  0  0
 37 38  2  0  0  0  0
 38 36  1  0  0  0  0
 39 38  1  0  0  0  0
M  END
>  <MODEL>
8

>  <REMARK>
 VINA RESULT:      -7.8      1.974      2.801
  Name = 
  8 active torsions:
  status: ('A' for Active; 'I' for Inactive)
    1  A    between atoms: C_10  and  C_12
    2  A    between atoms: C_10  and  C_28
    3  A    between atoms: C_10  and  C_39
    4  A    between atoms: C_13  and  C_38
    5  A    between atoms: C_19  and  C_25
    6  A    between atoms: C_20  and  C_25
    7  A    between atoms: C_26  and  C_28
    8  A    between atoms: C_38  and  C_39
                            x       y       z     vdW  Elec       q    Type
                         _______ _______ _______ _____ _____    ______ ____

>  <TORSDO>
F 8

$$$$
=
 OpenBabel11072409243D

 39 43  0  0  1  0  0  0  0  0999 V2000
  190.6490  174.9910  142.9670 C   0  0  2  0  0  3  0  0  0  0  0  0
  190.2040  175.0380  145.3800 O   0  0  0  0  0  0  0  0  0  0  0  0
  192.9210  175.4840  146.0840 C   0  0  2  0  0  3  0  0  0  0  0  0
  193.5790  175.7880  143.7760 C   0  0  0  0  0  0  0  0  0  0  0  0
  192.3920  175.8890  144.7020 C   0  0  1  0  0  0  0  0  0  0  0  0
  190.7160  174.5560  146.6040 C   0  0  0  0  0  2  0  0  0  0  0  0
  191.8230  175.4730  147.1330 C   0  0  0  0  0  2  0  0  0  0  0  0
  191.2220  174.9200  144.4010 C   0  0  2  0  0  3  0  0  0  0  0  0
  194.1840  176.2660  146.4490 C   0  0  0  0  0  2  0  0  0  0  0  0
  195.9120  176.1550  143.3720 O   0  0  0  0  0  1  0  0  0  0  0  0
  195.2110  175.9170  145.5450 O   0  0  0  0  0  0  0  0  0  0  0  0
  191.8970  177.3350  144.7200 C   0  0  0  0  0  1  0  0  0  0  0  0
  194.8710  176.4140  144.2640 C   0  0  2  0  0  3  0  0  0  0  0  0
  193.5110  175.2350  142.6900 O   0  0  0  0  0  0  0  0  0  0  0  0
  188.3070  174.7520  142.6550 O   0  0  0  0  0  0  0  0  0  0  0  0
  189.2380  175.5110  142.8670 C   0  0  0  0  0  0  0  0  0  0  0  0
  188.9770  176.9840  142.9330 C   0  0  0  0  0  2  0  0  0  0  0  0
  186.5020  177.6140  143.3590 C   0  0  0  0  0  0  0  0  0  0  0  0
  186.0040  178.6780  145.5840 C   0  0  0  0  0  2  0  0  0  0  0  0
  187.8600  177.3080  143.8720 C   0  0  0  0  0  0  0  0  0  0  0  0
  186.9970  177.6630  146.1640 C   0  0  0  0  0  2  0  0  0  0  0  0
  184.8520  177.5880  141.5840 C   0  0  0  0  0  3  0  0  0  0  0  0
  183.9390  178.2450  142.4150 C   0  0  0  0  0  0  0  0  0  0  0  0
  183.4200  179.2450  144.5190 F   0  0  0  0  0  0  0  0  0  0  0  0
  185.5760  178.2580  144.2050 C   0  0  0  0  0  0  0  0  0  0  0  0
  188.1050  177.3760  145.1850 C   0  0  0  0  0  3  0  0  0  0  0  0
  182.6780  178.5600  141.9350 O   0  0  0  0  0  1  0  0  0  0  0  0
  184.3000  178.5870  143.7250 C   0  0  0  0  0  0  0  0  0  0  0  0
  186.1300  177.2760  142.0520 C   0  0  0  0  0  3  0  0  0  0  0  0
  190.7540  173.6440  142.2630 C   0  0  0  0  0  2  0  0  0  0  0  0
  189.8210  173.1110  139.9940 C   0  0  1  0  0  3  0  0  0  0  0  0
  190.8190  172.1050  139.4560 C   0  0  1  0  0  3  0  0  0  0  0  0
  190.9330  173.8100  140.7560 C   0  0  2  0  0  3  0  0  0  0  0  0
  191.9240  172.7840  140.2420 C   0  0  0  0  0  2  0  0  0  0  0  0
  189.3800  173.9330  138.9570 O   0  0  0  0  0  1  0  0  0  0  0  0
  190.5420  170.7240  140.0310 C   0  0  0  0  0  2  0  0  0  0  0  0
  190.9730  168.6290  139.0470 O   0  0  0  0  0  0  0  0  0  0  0  0
  190.4290  169.7130  138.9340 C   0  0  0  0  0  0  0  0  0  0  0  0
  189.6760  170.0360  137.6870 C   0  0  0  0  0  1  0  0  0  0  0  0
  1 30  1  1  0  0  0
  2  6  1  0  0  0  0
  3  9  1  1  0  0  0
  3  7  1  0  0  0  0
  4 13  1  0  0  0  0
  4  5  1  0  0  0  0
  5 12  1  1  0  0  0
  5  3  1  0  0  0  0
  6  7  1  0  0  0  0
  8  1  1  6  0  0  0
  8  5  1  0  0  0  0
  8  2  1  0  0  0  0
 11  9  1  0  0  0  0
 13 10  1  6  0  0  0
 13 11  1  0  0  0  0
 14  4  2  0  0  0  0
 15 16  2  0  0  0  0
 16 17  1  0  0  0  0
 16  1  1  0  0  0  0
 17 20  1  0  0  0  0
 18 20  1  0  0  0  0
 18 25  1  0  0  0  0
 19 21  1  0  0  0  0
 20 26  2  0  0  0  0
 22 29  1  0  0  0  0
 22 23  2  0  0  0  0
 23 28  1  0  0  0  0
 25 19  1  0  0  0  0
 26 21  1  0  0  0  0
 27 23  1  0  0  0  0
 28 25  2  0  0  0  0
 28 24  1  0  0  0  0
 29 18  2  0  0  0  0
 31 35  1  6  0  0  0
 31 33  1  0  0  0  0
 32 31  1  0  0  0  0
 32 36  1  1  0  0  0
 32 34  1  0  0  0  0
 33 30  1  1  0  0  0
 34 33  1  0  0  0  0
 38 37  2  0  0  0  0
 38 36  1  0  0  0  0
 39 38  1  0  0  0  0
M  END
>  <MODEL>
9

>  <REMARK>
 VINA RESULT:      -7.7      1.827      2.742
  Name = 
  8 active torsions:
  status: ('A' for Active; 'I' for Inactive)
    1  A    between atoms: C_10  and  C_12
    2  A    between atoms: C_10  and  C_28
    3  A    between atoms: C_10  and  C_39
    4  A    between atoms: C_13  and  C_38
    5  A    between atoms: C_19  and  C_25
    6  A    between atoms: C_20  and  C_25
    7  A    between atoms: C_26  and  C_28
    8  A    between atoms: C_38  and  C_39
                            x       y       z     vdW  Elec       q    Type
                         _______ _______ _______ _____ _____    ______ ____

>  <TORSDO>
F 8

$$$$
