=
 OpenBabel11072409443D

 59 65  0  0  1  0  0  0  0  0999 V2000
  190.9010  172.4810  139.0210 O   0  0  0  0  0  0  0  0  0  0  0  0
  192.5380  172.9540  140.7660 N   0  0  0  0  0  0  0  0  0  0  0  0
  191.5740  170.1790  138.8710 C   0  0  1  0  0  3  0  0  0  0  0  0
  191.8560  170.6070  140.2880 C   0  0  0  0  0  2  0  0  0  0  0  0
  191.4800  172.0630  140.2340 C   0  0  2  0  0  0  0  0  0  0  0  0
  192.6470  174.1940  139.9920 C   0  0  0  0  0  1  0  0  0  0  0  0
  191.2240  172.8040  141.4700 C   0  0  2  0  0  3  0  0  0  0  0  0
  190.6400  171.2790  138.3420 C   0  0  2  0  0  3  0  0  0  0  0  0
  188.9610  174.4830  142.9440 C   0  0  2  0  0  3  0  0  0  0  0  0
  190.2220  173.9570  141.2720 C   0  0  1  0  0  3  0  0  0  0  0  0
  188.8110  173.5780  141.7180 C   0  0  2  0  0  0  0  0  0  0  0  0
  187.7700  174.6440  142.0110 C   0  0  2  0  0  3  0  0  0  0  0  0
  188.5640  172.2840  142.1810 O   0  0  0  0  0  1  0  0  0  0  0  0
  190.3240  174.9250  142.4230 C   0  0  0  0  0  2  0  0  0  0  0  0
  187.8830  175.8560  141.0760 C   0  0  1  0  0  3  0  0  0  0  0  0
  186.9560  176.4030  138.9390 O   0  0  0  0  0  1  0  0  0  0  0  0
  187.7080  175.4460  139.6210 C   0  0  0  0  0  2  0  0  0  0  0  0
  186.8950  176.9590  141.4630 C   0  0  0  0  0  2  0  0  0  0  0  0
  187.5440  178.0920  142.2530 C   0  0  2  0  0  3  0  0  0  0  0  0
  188.9110  178.1550  141.9750 O   0  0  0  0  0  1  0  0  0  0  0  0
  184.4540  177.6920  146.0360 O   0  0  0  0  0  1  0  0  0  0  0  0
  185.7610  177.6850  145.5650 C   0  0  0  0  0  0  0  0  0  0  0  0
  187.3150  177.8990  143.7170 C   0  0  0  0  0  0  0  0  0  0  0  0
  186.8290  177.4660  146.4450 C   0  0  0  0  0  0  0  0  0  0  0  0
  188.1450  177.4600  145.9560 C   0  0  0  0  0  0  0  0  0  0  0  0
  188.3830  177.6720  144.5950 C   0  0  0  0  0  3  0  0  0  0  0  0
  186.5800  177.2570  147.7980 O   0  0  0  0  0  1  0  0  0  0  0  0
  189.2980  177.2250  146.8670 C   0  0  0  0  0  1  0  0  0  0  0  0
  186.0050  177.8980  144.2060 C   0  0  0  0  0  3  0  0  0  0  0  0
  190.6730  171.4840  136.8320 C   0  0  0  0  0  2  0  0  0  0  0  0
  189.5900  172.2670  136.4360 O   0  0  0  0  0  1  0  0  0  0  0  0
  192.8870  170.0040  138.0850 C   0  0  0  0  0  2  0  0  0  0  0  0
  194.0790  169.6940  138.9800 C   0  0  0  0  0  2  0  0  0  0  0  0
  195.0270  170.7940  138.9390 N   0  0  0  0  0  2  0  0  0  0  0  0
  195.6950  171.2630  140.1140 C   0  0  0  0  0  0  0  0  0  0  0  0
  195.4110  170.7140  141.2620 N   0  0  0  0  0  0  0  0  0  0  0  0
  197.9310  172.0830  139.9080 O   0  0  0  0  0  0  0  0  0  0  0  0
  196.6990  172.3420  139.9520 C   0  0  0  0  0  0  0  0  0  0  0  0
  196.2410  173.6970  139.8310 N   0  0  0  0  0  2  0  0  0  0  0  0
  197.9410  175.1380  140.6560 O   0  0  0  0  0  0  0  0  0  0  0  0
  197.0510  174.8940  139.5970 C   0  0  2  0  0  0  0  0  0  0  0  0
  196.8720  176.0540  140.4990 C   0  0  0  0  0  2  0  0  0  0  0  0
  197.7270  175.0110  138.2290 C   0  0  0  0  0  2  0  0  0  0  0  0
  196.7760  174.9970  137.0760 C   0  0  0  0  0  0  0  0  0  0  0  0
  196.1460  173.9440  136.7920 O   0  0  0  0  0  1  0  0  0  0  0  0
  196.6090  176.1360  136.3010 O   0  0  0  0  0  0  0  0  0  0  0  0
  196.0010  171.0500  142.5500 C   0  0  0  0  0  2  0  0  0  0  0  0
  193.1690  172.1440  144.8640 C   0  0  0  0  0  3  0  0  0  0  0  0
  195.0410  171.8780  143.3390 C   0  0  0  0  0  0  0  0  0  0  0  0
  194.1000  174.0780  143.7520 C   0  0  0  0  0  3  0  0  0  0  0  0
  195.0270  173.2580  143.1040 C   0  0  0  0  0  3  0  0  0  0  0  0
  193.1690  173.5200  144.6290 C   0  0  0  0  0  3  0  0  0  0  0  0
  194.1030  171.3050  144.2320 C   0  0  0  0  0  0  0  0  0  0  0  0
  194.0640  169.8890  144.4980 N   0  0  0  0  0  0  0  0  0  0  0  0
  192.0560  169.8490  143.2980 O   0  0  0  0  0  1  0  0  0  0  0  0
  193.0130  169.0500  143.9250 C   0  0  0  0  0  2  0  0  0  0  0  0
  195.1370  169.2870  145.2900 C   0  0  0  0  0  2  0  0  0  0  0  0
  196.7440  170.2710  146.4350 C   0  0  0  0  0  1  0  0  0  0  0  0
  195.3760  170.0080  146.4610 O   0  0  0  0  0  0  0  0  0  0  0  0
  1  5  1  0  0  0  0
  3 32  1  6  0  0  0
  3  4  1  0  0  0  0
  5  4  1  1  0  0  0
  5  2  1  0  0  0  0
  5  7  1  0  0  0  0
  6  2  1  0  0  0  0
  7  2  1  6  0  0  0
  8 30  1  6  0  0  0
  8  3  1  0  0  0  0
  8  1  1  0  0  0  0
  9 14  1  6  0  0  0
 10  7  1  0  0  0  0
 10 11  1  0  0  0  0
 10 14  1  1  0  0  0
 11 12  1  0  0  0  0
 11 13  1  1  0  0  0
 11  9  1  0  0  0  0
 12 15  1  6  0  0  0
 12  9  1  0  0  0  0
 15 17  1  6  0  0  0
 15 18  1  0  0  0  0
 16 17  1  0  0  0  0
 18 19  1  0  0  0  0
 19 20  1  1  0  0  0
 19 23  1  0  0  0  0
 22 21  1  0  0  0  0
 22 24  1  0  0  0  0
 23 29  1  0  0  0  0
 23 26  2  0  0  0  0
 24 27  1  0  0  0  0
 25 24  2  0  0  0  0
 25 28  1  0  0  0  0
 26 25  1  0  0  0  0
 29 22  2  0  0  0  0
 31 30  1  0  0  0  0
 32 33  1  0  0  0  0
 34 33  1  0  0  0  0
 34 35  1  0  0  0  0
 35 36  2  0  0  0  0
 36 47  1  0  0  0  0
 37 38  2  0  0  0  0
 38 35  1  0  0  0  0
 39 38  1  0  0  0  0
 41 43  1  6  0  0  0
 41 39  1  0  0  0  0
 41 42  1  0  0  0  0
 41 40  1  0  0  0  0
 42 40  1  0  0  0  0
 44 43  1  0  0  0  0
 45 44  1  0  0  0  0
 46 44  2  0  0  0  0
 47 49  1  0  0  0  0
 49 53  1  0  0  0  0
 50 52  2  0  0  0  0
 51 49  2  0  0  0  0
 51 50  1  0  0  0  0
 52 48  1  0  0  0  0
 53 54  1  0  0  0  0
 53 48  2  0  0  0  0
 54 57  1  0  0  0  0
 55 56  1  0  0  0  0
 56 54  1  0  0  0  0
 57 59  1  0  0  0  0
 58 59  1  0  0  0  0
M  END
>  <MODEL>
1

>  <REMARK>
 VINA RESULT:      -5.6      0.000      0.000
  Name = 
  20 active torsions:
  status: ('A' for Active; 'I' for Inactive)
    1  A    between atoms: C_5  and  C_18
    2  A    between atoms: C_5  and  C_28
    3  A    between atoms: C_7  and  C_19
    4  A    between atoms: C_7  and  N_36
    5  A    between atoms: C_8  and  C_58
    6  A    between atoms: C_13  and  C_51
    7  A    between atoms: C_13  and  N_56
    8  A    between atoms: C_14  and  N_17
    9  A    between atoms: C_14  and  O_57
   10  A    between atoms: C_15  and  C_25
   11  A    between atoms: N_17  and  C_45
   12  A    between atoms: N_17  and  C_49
   13  A    between atoms: C_18  and  C_47
   14  A    between atoms: C_21  and  N_22
   15  A    between atoms: C_21  and  C_55
   16  A    between atoms: C_23  and  C_55
   17  A    between atoms: C_29  and  C_51
   18  A    between atoms: C_30  and  C_59
   19  A    between atoms: C_31  and  C_47
   20  A    between atoms: C_32  and  C_47
                            x       y       z     vdW  Elec       q    Type
                         _______ _______ _______ _____ _____    ______ ____

>  <TORSDO>
F 20

$$$$
=
 OpenBabel11072409443D

 59 65  0  0  1  0  0  0  0  0999 V2000
  189.0800  173.9080  143.1950 O   0  0  0  0  0  0  0  0  0  0  0  0
  191.1110  175.2260  143.4920 N   0  0  0  0  0  0  0  0  0  0  0  0
  190.2960  171.8360  143.2380 C   0  0  1  0  0  3  0  0  0  0  0  0
  191.0890  172.8050  144.0750 C   0  0  0  0  0  2  0  0  0  0  0  0
  190.2860  174.0660  143.9040 C   0  0  2  0  0  0  0  0  0  0  0  0
  190.4080  176.0800  142.5310 C   0  0  0  0  0  1  0  0  0  0  0  0
  190.4550  175.1790  144.8380 C   0  0  2  0  0  3  0  0  0  0  0  0
  188.9230  172.5140  143.1050 C   0  0  2  0  0  3  0  0  0  0  0  0
  188.9650  177.2050  146.7860 C   0  0  2  0  0  3  0  0  0  0  0  0
  189.1760  176.0240  144.9900 C   0  0  1  0  0  3  0  0  0  0  0  0
  188.5030  175.8130  146.3450 C   0  0  2  0  0  0  0  0  0  0  0  0
  187.4980  176.8150  146.8850 C   0  0  2  0  0  3  0  0  0  0  0  0
  189.0440  174.8890  147.2420 O   0  0  0  0  0  1  0  0  0  0  0  0
  189.5390  177.4320  145.3910 C   0  0  0  0  0  2  0  0  0  0  0  0
  186.6250  177.4320  145.7830 C   0  0  1  0  0  3  0  0  0  0  0  0
  184.7350  176.4780  146.8970 O   0  0  0  0  0  1  0  0  0  0  0  0
  185.3080  176.6820  145.6420 C   0  0  0  0  0  2  0  0  0  0  0  0
  186.3890  178.9240  146.0210 C   0  0  0  0  0  2  0  0  0  0  0  0
  185.3120  179.5110  145.1120 C   0  0  2  0  0  3  0  0  0  0  0  0
  184.0430  179.1420  145.5640 O   0  0  0  0  0  1  0  0  0  0  0  0
  188.3450  178.2160  141.4860 O   0  0  0  0  0  1  0  0  0  0  0  0
  187.0430  178.4010  141.9360 C   0  0  0  0  0  0  0  0  0  0  0  0
  185.5190  179.0560  143.7040 C   0  0  0  0  0  0  0  0  0  0  0  0
  185.9580  178.1300  141.0930 C   0  0  0  0  0  0  0  0  0  0  0  0
  184.6480  178.3200  141.5600 C   0  0  0  0  0  0  0  0  0  0  0  0
  184.4320  178.7770  142.8630 C   0  0  0  0  0  3  0  0  0  0  0  0
  186.1840  177.6760  139.7970 O   0  0  0  0  0  1  0  0  0  0  0  0
  183.4760  178.0360  140.6880 C   0  0  0  0  0  1  0  0  0  0  0  0
  186.8220  178.8590  143.2380 C   0  0  0  0  0  3  0  0  0  0  0  0
  188.1300  172.1320  141.8610 C   0  0  0  0  0  2  0  0  0  0  0  0
  187.8920  173.2650  141.0840 O   0  0  0  0  0  1  0  0  0  0  0  0
  191.0150  171.5530  141.9060 C   0  0  0  0  0  2  0  0  0  0  0  0
  192.5130  171.8170  141.9720 C   0  0  0  0  0  2  0  0  0  0  0  0
  192.9100  172.6900  140.8800 N   0  0  0  0  0  2  0  0  0  0  0  0
  193.8060  173.7870  141.0740 C   0  0  0  0  0  0  0  0  0  0  0  0
  194.2450  174.0380  142.2760 N   0  0  0  0  0  0  0  0  0  0  0  0
  194.9150  175.6060  139.9900 O   0  0  0  0  0  0  0  0  0  0  0  0
  194.2050  174.5710  139.8800 C   0  0  0  0  0  0  0  0  0  0  0  0
  193.7780  174.1220  138.5850 N   0  0  0  0  0  2  0  0  0  0  0  0
  193.3840  175.8750  137.0300 O   0  0  0  0  0  0  0  0  0  0  0  0
  194.1140  174.7030  137.2850 C   0  0  2  0  0  0  0  0  0  0  0  0
  193.0680  174.7440  136.2390 C   0  0  0  0  0  2  0  0  0  0  0  0
  195.6030  174.8640  136.9680 C   0  0  0  0  0  2  0  0  0  0  0  0
  196.2830  173.5930  136.5720 C   0  0  0  0  0  0  0  0  0  0  0  0
  197.4650  173.6200  136.1390 O   0  0  0  0  0  0  0  0  0  0  0  0
  195.6010  172.3870  136.6560 O   0  0  0  0  0  1  0  0  0  0  0  0
  195.1700  175.0970  142.6550 C   0  0  0  0  0  2  0  0  0  0  0  0
  194.8200  175.4780  146.4370 C   0  0  0  0  0  3  0  0  0  0  0  0
  194.8130  175.6100  144.0120 C   0  0  0  0  0  0  0  0  0  0  0  0
  193.4820  177.1560  145.3270 C   0  0  0  0  0  3  0  0  0  0  0  0
  193.9160  176.6810  144.0870 C   0  0  0  0  0  3  0  0  0  0  0  0
  193.9310  176.5530  146.5010 C   0  0  0  0  0  3  0  0  0  0  0  0
  195.2790  174.9940  145.2000 C   0  0  0  0  0  0  0  0  0  0  0  0
  196.1910  173.8790  145.1790 N   0  0  0  0  0  0  0  0  0  0  0  0
  197.9410  174.1830  143.6560 O   0  0  0  0  0  1  0  0  0  0  0  0
  197.6270  174.0910  145.0130 C   0  0  0  0  0  2  0  0  0  0  0  0
  195.6660  172.5300  145.4010 C   0  0  0  0  0  2  0  0  0  0  0  0
  195.6790  171.0810  143.7400 C   0  0  0  0  0  1  0  0  0  0  0  0
  196.4630  171.5620  144.7870 O   0  0  0  0  0  0  0  0  0  0  0  0
  1  5  1  0  0  0  0
  2  5  1  0  0  0  0
  3 32  1  6  0  0  0
  3  4  1  0  0  0  0
  5  4  1  1  0  0  0
  5  7  1  0  0  0  0
  6  2  1  0  0  0  0
  7  2  1  6  0  0  0
  7 10  1  0  0  0  0
  8 30  1  6  0  0  0
  8  1  1  0  0  0  0
  8  3  1  0  0  0  0
  9 14  1  6  0  0  0
  9 12  1  0  0  0  0
 10 14  1  1  0  0  0
 10 11  1  0  0  0  0
 11  9  1  0  0  0  0
 11 12  1  0  0  0  0
 11 13  1  1  0  0  0
 12 15  1  6  0  0  0
 15 17  1  1  0  0  0
 15 18  1  0  0  0  0
 17 16  1  0  0  0  0
 19 20  1  1  0  0  0
 19 18  1  0  0  0  0
 21 22  1  0  0  0  0
 22 29  1  0  0  0  0
 23 19  1  0  0  0  0
 24 25  1  0  0  0  0
 24 22  2  0  0  0  0
 25 26  2  0  0  0  0
 26 23  1  0  0  0  0
 27 24  1  0  0  0  0
 28 25  1  0  0  0  0
 29 23  2  0  0  0  0
 31 30  1  0  0  0  0
 32 33  1  0  0  0  0
 34 35  1  0  0  0  0
 34 33  1  0  0  0  0
 35 36  2  0  0  0  0
 36 47  1  0  0  0  0
 38 37  2  0  0  0  0
 38 35  1  0  0  0  0
 39 38  1  0  0  0  0
 40 41  1  0  0  0  0
 41 43  1  6  0  0  0
 41 39  1  0  0  0  0
 42 40  1  0  0  0  0
 42 41  1  0  0  0  0
 44 46  1  0  0  0  0
 44 43  1  0  0  0  0
 45 44  2  0  0  0  0
 47 49  1  0  0  0  0
 48 52  1  0  0  0  0
 49 51  2  0  0  0  0
 49 53  1  0  0  0  0
 50 52  2  0  0  0  0
 51 50  1  0  0  0  0
 53 48  2  0  0  0  0
 54 53  1  0  0  0  0
 54 57  1  0  0  0  0
 55 56  1  0  0  0  0
 56 54  1  0  0  0  0
 58 59  1  0  0  0  0
 59 57  1  0  0  0  0
M  END
>  <MODEL>
2

>  <REMARK>
 VINA RESULT:      -5.6      2.608      4.746
  Name = 
  20 active torsions:
  status: ('A' for Active; 'I' for Inactive)
    1  A    between atoms: C_5  and  C_18
    2  A    between atoms: C_5  and  C_28
    3  A    between atoms: C_7  and  C_19
    4  A    between atoms: C_7  and  N_36
    5  A    between atoms: C_8  and  C_58
    6  A    between atoms: C_13  and  C_51
    7  A    between atoms: C_13  and  N_56
    8  A    between atoms: C_14  and  N_17
    9  A    between atoms: C_14  and  O_57
   10  A    between atoms: C_15  and  C_25
   11  A    between atoms: N_17  and  C_45
   12  A    between atoms: N_17  and  C_49
   13  A    between atoms: C_18  and  C_47
   14  A    between atoms: C_21  and  N_22
   15  A    between atoms: C_21  and  C_55
   16  A    between atoms: C_23  and  C_55
   17  A    between atoms: C_29  and  C_51
   18  A    between atoms: C_30  and  C_59
   19  A    between atoms: C_31  and  C_47
   20  A    between atoms: C_32  and  C_47
                            x       y       z     vdW  Elec       q    Type
                         _______ _______ _______ _____ _____    ______ ____

>  <TORSDO>
F 20

$$$$
=
 OpenBabel11072409443D

 59 65  0  0  1  0  0  0  0  0999 V2000
  190.5510  172.0240  139.4140 O   0  0  0  0  0  0  0  0  0  0  0  0
  192.4850  172.7120  140.7310 N   0  0  0  0  0  0  0  0  0  0  0  0
  191.1540  169.7020  139.5530 C   0  0  1  0  0  3  0  0  0  0  0  0
  191.6950  170.3510  140.8000 C   0  0  0  0  0  2  0  0  0  0  0  0
  191.3360  171.7930  140.5600 C   0  0  2  0  0  0  0  0  0  0  0  0
  192.4680  173.7960  139.7450 C   0  0  0  0  0  1  0  0  0  0  0  0
  191.3200  172.7440  141.6710 C   0  0  2  0  0  3  0  0  0  0  0  0
  190.1540  170.7370  139.0130 C   0  0  2  0  0  3  0  0  0  0  0  0
  189.1030  174.4890  143.1410 C   0  0  2  0  0  3  0  0  0  0  0  0
  190.3140  173.8900  141.4550 C   0  0  1  0  0  3  0  0  0  0  0  0
  188.9170  173.5340  141.9570 C   0  0  2  0  0  0  0  0  0  0  0  0
  187.8860  174.6140  142.2370 C   0  0  2  0  0  3  0  0  0  0  0  0
  188.6800  172.2610  142.4810 O   0  0  0  0  0  1  0  0  0  0  0  0
  190.4520  174.9050  142.5630 C   0  0  0  0  0  2  0  0  0  0  0  0
  187.9740  175.7870  141.2500 C   0  0  1  0  0  3  0  0  0  0  0  0
  187.1390  176.2270  139.0510 O   0  0  0  0  0  1  0  0  0  0  0  0
  187.8580  175.3040  139.8110 C   0  0  0  0  0  2  0  0  0  0  0  0
  186.9290  176.8610  141.5580 C   0  0  0  0  0  2  0  0  0  0  0  0
  187.5100  178.0630  142.2990 C   0  0  2  0  0  3  0  0  0  0  0  0
  188.8940  178.1150  142.1260 O   0  0  0  0  0  1  0  0  0  0  0  0
  188.8400  177.1560  146.9280 O   0  0  0  0  0  1  0  0  0  0  0  0
  187.8570  177.5570  146.0320 C   0  0  0  0  0  0  0  0  0  0  0  0
  187.1640  177.9940  143.7500 C   0  0  0  0  0  0  0  0  0  0  0  0
  186.5850  177.9200  146.4940 C   0  0  0  0  0  0  0  0  0  0  0  0
  185.6000  178.3260  145.5790 C   0  0  0  0  0  0  0  0  0  0  0  0
  185.8940  178.3660  144.2130 C   0  0  0  0  0  3  0  0  0  0  0  0
  186.3040  177.8770  147.8560 O   0  0  0  0  0  1  0  0  0  0  0  0
  184.2430  178.7220  146.0420 C   0  0  0  0  0  1  0  0  0  0  0  0
  188.1440  177.5980  144.6650 C   0  0  0  0  0  3  0  0  0  0  0  0
  189.9140  170.6810  137.5090 C   0  0  0  0  0  2  0  0  0  0  0  0
  189.5700  171.9470  137.0370 O   0  0  0  0  0  1  0  0  0  0  0  0
  192.2980  169.3370  138.5900 C   0  0  0  0  0  2  0  0  0  0  0  0
  193.6220  169.0970  139.3030 C   0  0  0  0  0  2  0  0  0  0  0  0
  194.6200  170.0380  138.8220 N   0  0  0  0  0  2  0  0  0  0  0  0
  195.4650  170.7690  139.7140 C   0  0  0  0  0  0  0  0  0  0  0  0
  195.3040  170.6190  141.0000 N   0  0  0  0  0  0  0  0  0  0  0  0
  197.7120  171.3030  139.0980 O   0  0  0  0  0  0  0  0  0  0  0  0
  196.5010  171.6480  139.1190 C   0  0  0  0  0  0  0  0  0  0  0  0
  196.0960  172.9030  138.5500 N   0  0  0  0  0  2  0  0  0  0  0  0
  197.9410  174.3940  138.6960 O   0  0  0  0  0  0  0  0  0  0  0  0
  196.9380  173.8790  137.8580 C   0  0  2  0  0  0  0  0  0  0  0  0
  196.9090  175.2860  138.3160 C   0  0  0  0  0  2  0  0  0  0  0  0
  197.4790  173.4710  136.4850 C   0  0  0  0  0  2  0  0  0  0  0  0
  196.4180  173.1410  135.4850 C   0  0  0  0  0  0  0  0  0  0  0  0
  196.2080  173.9120  134.5130 O   0  0  0  0  0  0  0  0  0  0  0  0
  195.6460  171.9990  135.6460 O   0  0  0  0  0  1  0  0  0  0  0  0
  196.0800  171.2660  142.0490 C   0  0  0  0  0  2  0  0  0  0  0  0
  194.7760  171.5190  145.6280 C   0  0  0  0  0  3  0  0  0  0  0  0
  195.4920  170.9350  143.3810 C   0  0  0  0  0  0  0  0  0  0  0  0
  194.7990  169.2030  144.9350 C   0  0  0  0  0  3  0  0  0  0  0  0
  195.2730  169.5850  143.6780 C   0  0  0  0  0  3  0  0  0  0  0  0
  194.5540  170.1690  145.9100 C   0  0  0  0  0  3  0  0  0  0  0  0
  195.2410  171.9230  144.3640 C   0  0  0  0  0  0  0  0  0  0  0  0
  195.4640  173.3250  144.1160 N   0  0  0  0  0  0  0  0  0  0  0  0
  197.6220  173.0070  144.9620 O   0  0  0  0  0  1  0  0  0  0  0  0
  196.7050  173.9710  144.5400 C   0  0  0  0  0  2  0  0  0  0  0  0
  194.4600  174.0800  143.3640 C   0  0  0  0  0  2  0  0  0  0  0  0
  194.7410  176.0200  142.3560 C   0  0  0  0  0  1  0  0  0  0  0  0
  195.0070  174.6590  142.2180 O   0  0  0  0  0  0  0  0  0  0  0  0
  1  5  1  0  0  0  0
  3 32  1  6  0  0  0
  3  4  1  0  0  0  0
  5  2  1  0  0  0  0
  5  4  1  1  0  0  0
  5  7  1  0  0  0  0
  6  2  1  0  0  0  0
  7  2  1  6  0  0  0
  8 30  1  6  0  0  0
  8  1  1  0  0  0  0
  8  3  1  0  0  0  0
  9 14  1  6  0  0  0
 10  7  1  0  0  0  0
 10 11  1  0  0  0  0
 10 14  1  1  0  0  0
 11 12  1  0  0  0  0
 11 13  1  1  0  0  0
 11  9  1  0  0  0  0
 12 15  1  6  0  0  0
 12  9  1  0  0  0  0
 15 17  1  6  0  0  0
 15 18  1  0  0  0  0
 16 17  1  0  0  0  0
 18 19  1  0  0  0  0
 19 20  1  1  0  0  0
 19 23  1  0  0  0  0
 22 24  1  0  0  0  0
 22 21  1  0  0  0  0
 23 26  2  0  0  0  0
 23 29  1  0  0  0  0
 24 27  1  0  0  0  0
 25 28  1  0  0  0  0
 25 24  2  0  0  0  0
 26 25  1  0  0  0  0
 29 22  2  0  0  0  0
 31 30  1  0  0  0  0
 32 33  1  0  0  0  0
 34 33  1  0  0  0  0
 34 35  1  0  0  0  0
 35 36  2  0  0  0  0
 36 47  1  0  0  0  0
 37 38  2  0  0  0  0
 38 35  1  0  0  0  0
 39 38  1  0  0  0  0
 41 43  1  6  0  0  0
 41 42  1  0  0  0  0
 41 39  1  0  0  0  0
 41 40  1  0  0  0  0
 42 40  1  0  0  0  0
 44 46  1  0  0  0  0
 44 43  1  0  0  0  0
 45 44  2  0  0  0  0
 47 49  1  0  0  0  0
 48 52  1  0  0  0  0
 49 51  2  0  0  0  0
 49 53  1  0  0  0  0
 50 52  2  0  0  0  0
 51 50  1  0  0  0  0
 53 48  2  0  0  0  0
 54 53  1  0  0  0  0
 54 56  1  0  0  0  0
 56 55  1  0  0  0  0
 57 54  1  0  0  0  0
 59 58  1  0  0  0  0
 59 57  1  0  0  0  0
M  END
>  <MODEL>
3

>  <REMARK>
 VINA RESULT:      -5.4      1.437      2.648
  Name = 
  20 active torsions:
  status: ('A' for Active; 'I' for Inactive)
    1  A    between atoms: C_5  and  C_18
    2  A    between atoms: C_5  and  C_28
    3  A    between atoms: C_7  and  C_19
    4  A    between atoms: C_7  and  N_36
    5  A    between atoms: C_8  and  C_58
    6  A    between atoms: C_13  and  C_51
    7  A    between atoms: C_13  and  N_56
    8  A    between atoms: C_14  and  N_17
    9  A    between atoms: C_14  and  O_57
   10  A    between atoms: C_15  and  C_25
   11  A    between atoms: N_17  and  C_45
   12  A    between atoms: N_17  and  C_49
   13  A    between atoms: C_18  and  C_47
   14  A    between atoms: C_21  and  N_22
   15  A    between atoms: C_21  and  C_55
   16  A    between atoms: C_23  and  C_55
   17  A    between atoms: C_29  and  C_51
   18  A    between atoms: C_30  and  C_59
   19  A    between atoms: C_31  and  C_47
   20  A    between atoms: C_32  and  C_47
                            x       y       z     vdW  Elec       q    Type
                         _______ _______ _______ _____ _____    ______ ____

>  <TORSDO>
F 20

$$$$
=
 OpenBabel11072409443D

 59 65  0  0  1  0  0  0  0  0999 V2000
  193.1720  174.5600  144.6900 O   0  0  0  0  0  0  0  0  0  0  0  0
  193.0400  176.4220  143.1200 N   0  0  0  0  0  0  0  0  0  0  0  0
  195.5690  174.6910  144.8030 C   0  0  1  0  0  3  0  0  0  0  0  0
  195.0860  176.0850  144.5000 C   0  0  0  0  0  2  0  0  0  0  0  0
  193.6040  175.8610  144.3700 C   0  0  2  0  0  0  0  0  0  0  0  0
  192.0030  175.5560  142.5540 C   0  0  0  0  0  1  0  0  0  0  0  0
  192.6770  176.9900  144.4580 C   0  0  2  0  0  3  0  0  0  0  0  0
  194.3000  173.9670  145.2820 C   0  0  2  0  0  3  0  0  0  0  0  0
  190.4020  177.8530  146.5060 C   0  0  2  0  0  3  0  0  0  0  0  0
  191.2970  176.5820  145.0070 C   0  0  1  0  0  3  0  0  0  0  0  0
  191.2600  176.5850  146.5340 C   0  0  2  0  0  0  0  0  0  0  0  0
  189.9410  176.6310  147.2860 C   0  0  2  0  0  3  0  0  0  0  0  0
  192.4240  176.8830  147.2470 O   0  0  0  0  0  1  0  0  0  0  0  0
  190.3670  177.7690  144.9840 C   0  0  0  0  0  2  0  0  0  0  0  0
  188.8300  175.8390  146.5820 C   0  0  1  0  0  3  0  0  0  0  0  0
  189.2170  173.8540  145.3030 O   0  0  0  0  0  1  0  0  0  0  0  0
  189.1210  174.3450  146.6050 C   0  0  0  0  0  2  0  0  0  0  0  0
  187.4560  176.1430  147.1820 C   0  0  0  0  0  2  0  0  0  0  0  0
  187.0320  177.5980  146.9940 C   0  0  2  0  0  3  0  0  0  0  0  0
  186.0760  177.9510  147.9490 O   0  0  0  0  0  1  0  0  0  0  0  0
  183.3060  178.7510  144.0270 O   0  0  0  0  0  1  0  0  0  0  0  0
  184.6430  178.4020  144.1730 C   0  0  0  0  0  0  0  0  0  0  0  0
  186.4990  177.8080  145.6140 C   0  0  0  0  0  0  0  0  0  0  0  0
  185.4710  178.2870  143.0490 C   0  0  0  0  0  0  0  0  0  0  0  0
  186.8210  177.9350  143.2110 C   0  0  0  0  0  0  0  0  0  0  0  0
  187.3310  177.7020  144.4910 C   0  0  0  0  0  3  0  0  0  0  0  0
  184.9520  178.5210  141.7790 O   0  0  0  0  0  1  0  0  0  0  0  0
  187.7240  177.8110  142.0350 C   0  0  0  0  0  1  0  0  0  0  0  0
  185.1580  178.1660  145.4510 C   0  0  0  0  0  3  0  0  0  0  0  0
  194.3000  172.4570  145.0730 C   0  0  0  0  0  2  0  0  0  0  0  0
  195.1730  171.8540  145.9770 O   0  0  0  0  0  1  0  0  0  0  0  0
  196.2470  174.0710  143.5680 C   0  0  0  0  0  2  0  0  0  0  0  0
  196.2330  174.9920  142.3560 C   0  0  0  0  0  2  0  0  0  0  0  0
  196.8390  174.3210  141.2180 N   0  0  0  0  0  2  0  0  0  0  0  0
  196.1480  173.3100  140.4780 C   0  0  0  0  0  0  0  0  0  0  0  0
  194.9550  172.9500  140.8640 N   0  0  0  0  0  0  0  0  0  0  0  0
  197.9370  172.1550  139.3930 O   0  0  0  0  0  0  0  0  0  0  0  0
  196.8260  172.7410  139.2890 C   0  0  0  0  0  0  0  0  0  0  0  0
  196.1870  172.8560  138.0090 N   0  0  0  0  0  2  0  0  0  0  0  0
  195.5720  171.9470  135.9000 O   0  0  0  0  0  0  0  0  0  0  0  0
  196.6460  172.3090  136.7320 C   0  0  2  0  0  0  0  0  0  0  0  0
  196.3540  170.8900  136.4270 C   0  0  0  0  0  2  0  0  0  0  0  0
  197.7160  173.1080  135.9850 C   0  0  0  0  0  2  0  0  0  0  0  0
  197.3680  174.5470  135.7760 C   0  0  0  0  0  0  0  0  0  0  0  0
  197.9410  175.4380  136.4560 O   0  0  0  0  0  1  0  0  0  0  0  0
  196.3910  174.8960  134.8540 O   0  0  0  0  0  0  0  0  0  0  0  0
  194.1030  171.9570  140.2260 C   0  0  0  0  0  2  0  0  0  0  0  0
  190.3430  172.4960  140.5980 C   0  0  0  0  0  3  0  0  0  0  0  0
  192.7230  172.0480  140.7880 C   0  0  0  0  0  0  0  0  0  0  0  0
  191.3220  172.0890  142.7700 C   0  0  0  0  0  3  0  0  0  0  0  0
  192.5760  171.9350  142.1750 C   0  0  0  0  0  3  0  0  0  0  0  0
  190.2070  172.3720  141.9830 C   0  0  0  0  0  3  0  0  0  0  0  0
  191.5940  172.3310  139.9800 C   0  0  0  0  0  0  0  0  0  0  0  0
  191.6920  172.4730  138.5490 N   0  0  0  0  0  0  0  0  0  0  0  0
  192.2290  170.2270  138.1760 O   0  0  0  0  0  1  0  0  0  0  0  0
  191.5210  171.3180  137.6700 C   0  0  0  0  0  2  0  0  0  0  0  0
  191.8910  173.8080  137.9820 C   0  0  0  0  0  2  0  0  0  0  0  0
  191.5950  175.0370  136.1760 C   0  0  0  0  0  1  0  0  0  0  0  0
  191.9830  173.7640  136.5900 O   0  0  0  0  0  0  0  0  0  0  0  0
  1  8  1  0  0  0  0
  2  5  1  0  0  0  0
  3 32  1  6  0  0  0
  3  8  1  0  0  0  0
  4  3  1  0  0  0  0
  5  7  1  0  0  0  0
  5  4  1  1  0  0  0
  5  1  1  0  0  0  0
  6  2  1  0  0  0  0
  7  2  1  6  0  0  0
  7 10  1  0  0  0  0
  8 30  1  6  0  0  0
  9 14  1  6  0  0  0
  9 11  1  0  0  0  0
  9 12  1  0  0  0  0
 10 14  1  6  0  0  0
 10 11  1  0  0  0  0
 11 13  1  1  0  0  0
 11 12  1  0  0  0  0
 12 15  1  6  0  0  0
 15 17  1  1  0  0  0
 15 18  1  0  0  0  0
 16 17  1  0  0  0  0
 19 18  1  0  0  0  0
 19 20  1  1  0  0  0
 21 22  1  0  0  0  0
 22 29  1  0  0  0  0
 23 19  1  0  0  0  0
 24 25  1  0  0  0  0
 24 22  2  0  0  0  0
 25 26  2  0  0  0  0
 26 23  1  0  0  0  0
 27 24  1  0  0  0  0
 28 25  1  0  0  0  0
 29 23  2  0  0  0  0
 30 31  1  0  0  0  0
 33 32  1  0  0  0  0
 34 33  1  0  0  0  0
 35 36  2  0  0  0  0
 35 34  1  0  0  0  0
 38 37  2  0  0  0  0
 38 35  1  0  0  0  0
 39 38  1  0  0  0  0
 40 42  1  0  0  0  0
 40 41  1  0  0  0  0
 41 43  1  6  0  0  0
 41 39  1  0  0  0  0
 42 41  1  0  0  0  0
 44 43  1  0  0  0  0
 44 45  1  0  0  0  0
 46 44  2  0  0  0  0
 47 49  1  0  0  0  0
 47 36  1  0  0  0  0
 48 52  1  0  0  0  0
 49 51  2  0  0  0  0
 51 50  1  0  0  0  0
 52 50  2  0  0  0  0
 53 48  2  0  0  0  0
 53 49  1  0  0  0  0
 54 53  1  0  0  0  0
 56 55  1  0  0  0  0
 56 54  1  0  0  0  0
 57 54  1  0  0  0  0
 58 59  1  0  0  0  0
 59 57  1  0  0  0  0
M  END
>  <MODEL>
4

>  <REMARK>
 VINA RESULT:      -5.0      2.294      5.717
  Name = 
  20 active torsions:
  status: ('A' for Active; 'I' for Inactive)
    1  A    between atoms: C_5  and  C_18
    2  A    between atoms: C_5  and  C_28
    3  A    between atoms: C_7  and  C_19
    4  A    between atoms: C_7  and  N_36
    5  A    between atoms: C_8  and  C_58
    6  A    between atoms: C_13  and  C_51
    7  A    between atoms: C_13  and  N_56
    8  A    between atoms: C_14  and  N_17
    9  A    between atoms: C_14  and  O_57
   10  A    between atoms: C_15  and  C_25
   11  A    between atoms: N_17  and  C_45
   12  A    between atoms: N_17  and  C_49
   13  A    between atoms: C_18  and  C_47
   14  A    between atoms: C_21  and  N_22
   15  A    between atoms: C_21  and  C_55
   16  A    between atoms: C_23  and  C_55
   17  A    between atoms: C_29  and  C_51
   18  A    between atoms: C_30  and  C_59
   19  A    between atoms: C_31  and  C_47
   20  A    between atoms: C_32  and  C_47
                            x       y       z     vdW  Elec       q    Type
                         _______ _______ _______ _____ _____    ______ ____

>  <TORSDO>
F 20

$$$$
=
 OpenBabel11072409443D

 59 65  0  0  1  0  0  0  0  0999 V2000
  193.7760  175.7890  143.9260 O   0  0  0  0  0  0  0  0  0  0  0  0
  194.4670  176.1920  146.2290 N   0  0  0  0  0  0  0  0  0  0  0  0
  195.5770  174.2430  143.5490 C   0  0  1  0  0  3  0  0  0  0  0  0
  195.2590  174.1650  145.0190 C   0  0  0  0  0  2  0  0  0  0  0  0
  194.1940  175.2210  145.1450 C   0  0  2  0  0  0  0  0  0  0  0  0
  194.0770  177.5540  145.8530 C   0  0  0  0  0  1  0  0  0  0  0  0
  193.3120  175.2430  146.3110 C   0  0  2  0  0  3  0  0  0  0  0  0
  194.3530  174.9550  142.9520 C   0  0  2  0  0  3  0  0  0  0  0  0
  190.1940  174.8170  146.7740 C   0  0  2  0  0  3  0  0  0  0  0  0
  191.9280  175.8420  145.9960 C   0  0  1  0  0  3  0  0  0  0  0  0
  190.9590  174.7970  145.4470 C   0  0  2  0  0  0  0  0  0  0  0  0
  189.4590  175.0370  145.4600 C   0  0  2  0  0  3  0  0  0  0  0  0
  191.4050  173.4900  145.2410 O   0  0  0  0  0  1  0  0  0  0  0  0
  191.1110  175.9330  147.2600 C   0  0  0  0  0  2  0  0  0  0  0  0
  189.0910  176.5050  145.2030 C   0  0  1  0  0  3  0  0  0  0  0  0
  190.5540  178.0750  144.1440 O   0  0  0  0  0  1  0  0  0  0  0  0
  189.6960  177.0020  143.8980 C   0  0  0  0  0  2  0  0  0  0  0  0
  187.5760  176.7180  145.2260 C   0  0  0  0  0  2  0  0  0  0  0  0
  187.1690  178.1500  144.8870 C   0  0  2  0  0  3  0  0  0  0  0  0
  186.5580  178.7530  145.9880 O   0  0  0  0  0  1  0  0  0  0  0  0
  182.7070  178.8860  142.9990 O   0  0  0  0  0  1  0  0  0  0  0  0
  184.0410  178.5540  142.7980 C   0  0  0  0  0  0  0  0  0  0  0  0
  186.2540  178.1620  143.7060 C   0  0  0  0  0  0  0  0  0  0  0  0
  184.5140  178.2730  141.5090 C   0  0  0  0  0  0  0  0  0  0  0  0
  185.8650  177.9410  141.3200 C   0  0  0  0  0  0  0  0  0  0  0  0
  186.7300  177.8900  142.4160 C   0  0  0  0  0  3  0  0  0  0  0  0
  183.6430  178.3260  140.4250 O   0  0  0  0  0  1  0  0  0  0  0  0
  186.3950  177.6430  139.9610 C   0  0  0  0  0  1  0  0  0  0  0  0
  184.9100  178.5010  143.8910 C   0  0  0  0  0  3  0  0  0  0  0  0
  194.6160  175.7210  141.6610 C   0  0  0  0  0  2  0  0  0  0  0  0
  193.4580  175.7510  140.8840 O   0  0  0  0  0  1  0  0  0  0  0  0
  196.9220  174.9570  143.3220 C   0  0  0  0  0  2  0  0  0  0  0  0
  197.9380  174.0920  142.5880 C   0  0  0  0  0  2  0  0  0  0  0  0
  197.8140  174.2920  141.1540 N   0  0  0  0  0  2  0  0  0  0  0  0
  197.0110  173.4360  140.3360 C   0  0  0  0  0  0  0  0  0  0  0  0
  196.4100  172.4190  140.8870 N   0  0  0  0  0  0  0  0  0  0  0  0
  197.8920  173.7210  138.1320 O   0  0  0  0  0  0  0  0  0  0  0  0
  196.8920  173.7720  138.8960 C   0  0  0  0  0  0  0  0  0  0  0  0
  195.6060  174.1460  138.3800 N   0  0  0  0  0  2  0  0  0  0  0  0
  195.7020  175.7210  136.6020 O   0  0  0  0  0  0  0  0  0  0  0  0
  195.2570  174.4460  136.9910 C   0  0  2  0  0  0  0  0  0  0  0  0
  194.3020  175.5460  136.7250 C   0  0  0  0  0  2  0  0  0  0  0  0
  195.5870  173.3730  135.9500 C   0  0  0  0  0  2  0  0  0  0  0  0
  194.6090  172.2440  135.9090 C   0  0  0  0  0  0  0  0  0  0  0  0
  194.8090  171.2110  136.6010 O   0  0  0  0  0  1  0  0  0  0  0  0
  193.4950  172.3220  135.0850 O   0  0  0  0  0  0  0  0  0  0  0  0
  195.5460  171.4580  140.2160 C   0  0  0  0  0  2  0  0  0  0  0  0
  192.4970  170.4270  142.2690 C   0  0  0  0  0  3  0  0  0  0  0  0
  194.2060  171.4460  140.8750 C   0  0  0  0  0  0  0  0  0  0  0  0
  191.9990  172.4460  141.0370 C   0  0  0  0  0  3  0  0  0  0  0  0
  193.2950  172.4460  140.5160 C   0  0  0  0  0  3  0  0  0  0  0  0
  191.6000  171.4350  141.9100 C   0  0  0  0  0  3  0  0  0  0  0  0
  193.8100  170.4190  141.7660 C   0  0  0  0  0  0  0  0  0  0  0  0
  194.7020  169.3560  142.1560 N   0  0  0  0  0  0  0  0  0  0  0  0
  194.1010  168.3020  140.1560 O   0  0  0  0  0  1  0  0  0  0  0  0
  194.8720  168.1750  141.3130 C   0  0  0  0  0  2  0  0  0  0  0  0
  195.4970  169.5120  143.3750 C   0  0  0  0  0  2  0  0  0  0  0  0
  196.8220  170.7530  144.6250 C   0  0  0  0  0  1  0  0  0  0  0  0
  196.0370  170.7950  143.4760 O   0  0  0  0  0  0  0  0  0  0  0  0
  1  5  1  0  0  0  0
  3 32  1  1  0  0  0
  3  4  1  0  0  0  0
  5  4  1  6  0  0  0
  5  2  1  0  0  0  0
  5  7  1  0  0  0  0
  6  2  1  0  0  0  0
  7  2  1  1  0  0  0
  8 30  1  6  0  0  0
  8  3  1  0  0  0  0
  8  1  1  0  0  0  0
  9 14  1  1  0  0  0
 10  7  1  0  0  0  0
 10 14  1  1  0  0  0
 11 13  1  6  0  0  0
 11 12  1  0  0  0  0
 11 10  1  0  0  0  0
 11  9  1  0  0  0  0
 12 15  1  1  0  0  0
 12  9  1  0  0  0  0
 15 17  1  6  0  0  0
 15 18  1  0  0  0  0
 17 16  1  0  0  0  0
 19 18  1  0  0  0  0
 19 20  1  1  0  0  0
 22 21  1  0  0  0  0
 22 29  1  0  0  0  0
 23 29  2  0  0  0  0
 23 19  1  0  0  0  0
 24 22  2  0  0  0  0
 25 24  1  0  0  0  0
 25 26  2  0  0  0  0
 26 23  1  0  0  0  0
 27 24  1  0  0  0  0
 28 25  1  0  0  0  0
 31 30  1  0  0  0  0
 33 32  1  0  0  0  0
 34 33  1  0  0  0  0
 35 36  2  0  0  0  0
 35 34  1  0  0  0  0
 37 38  2  0  0  0  0
 38 35  1  0  0  0  0
 39 38  1  0  0  0  0
 40 42  1  0  0  0  0
 40 41  1  0  0  0  0
 41 43  1  6  0  0  0
 41 39  1  0  0  0  0
 42 41  1  0  0  0  0
 44 43  1  0  0  0  0
 44 45  1  0  0  0  0
 46 44  2  0  0  0  0
 47 49  1  0  0  0  0
 47 36  1  0  0  0  0
 49 53  1  0  0  0  0
 50 52  2  0  0  0  0
 51 49  2  0  0  0  0
 51 50  1  0  0  0  0
 52 48  1  0  0  0  0
 53 54  1  0  0  0  0
 53 48  2  0  0  0  0
 54 57  1  0  0  0  0
 55 56  1  0  0  0  0
 56 54  1  0  0  0  0
 57 59  1  0  0  0  0
 59 58  1  0  0  0  0
M  END
>  <MODEL>
5

>  <REMARK>
 VINA RESULT:      -4.9      2.614      4.743
  Name = 
  20 active torsions:
  status: ('A' for Active; 'I' for Inactive)
    1  A    between atoms: C_5  and  C_18
    2  A    between atoms: C_5  and  C_28
    3  A    between atoms: C_7  and  C_19
    4  A    between atoms: C_7  and  N_36
    5  A    between atoms: C_8  and  C_58
    6  A    between atoms: C_13  and  C_51
    7  A    between atoms: C_13  and  N_56
    8  A    between atoms: C_14  and  N_17
    9  A    between atoms: C_14  and  O_57
   10  A    between atoms: C_15  and  C_25
   11  A    between atoms: N_17  and  C_45
   12  A    between atoms: N_17  and  C_49
   13  A    between atoms: C_18  and  C_47
   14  A    between atoms: C_21  and  N_22
   15  A    between atoms: C_21  and  C_55
   16  A    between atoms: C_23  and  C_55
   17  A    between atoms: C_29  and  C_51
   18  A    between atoms: C_30  and  C_59
   19  A    between atoms: C_31  and  C_47
   20  A    between atoms: C_32  and  C_47
                            x       y       z     vdW  Elec       q    Type
                         _______ _______ _______ _____ _____    ______ ____

>  <TORSDO>
F 20

$$$$
=
 OpenBabel11072409443D

 59 65  0  0  1  0  0  0  0  0999 V2000
  195.6010  174.6830  142.9350 O   0  0  0  0  0  0  0  0  0  0  0  0
  193.8940  172.9410  142.9490 N   0  0  0  0  0  0  0  0  0  0  0  0
  195.9050  174.5470  145.3150 C   0  0  1  0  0  3  0  0  0  0  0  0
  195.4610  173.1780  144.8700 C   0  0  0  0  0  2  0  0  0  0  0  0
  195.2250  173.4090  143.4020 C   0  0  2  0  0  0  0  0  0  0  0  0
  193.3080  173.8440  141.9550 C   0  0  0  0  0  1  0  0  0  0  0  0
  195.1520  172.2750  142.4800 C   0  0  2  0  0  3  0  0  0  0  0  0
  196.3280  175.2320  144.0050 C   0  0  2  0  0  3  0  0  0  0  0  0
  196.7950  171.1850  139.9850 C   0  0  2  0  0  3  0  0  0  0  0  0
  195.6120  172.6400  141.0560 C   0  0  1  0  0  3  0  0  0  0  0  0
  197.1080  172.4060  140.8550 C   0  0  2  0  0  0  0  0  0  0  0  0
  197.7030  172.2880  139.4630 C   0  0  2  0  0  3  0  0  0  0  0  0
  197.8820  171.9650  141.9310 O   0  0  0  0  0  1  0  0  0  0  0  0
  195.3090  171.5010  140.1140 C   0  0  0  0  0  2  0  0  0  0  0  0
  197.0190  173.2140  138.4460 C   0  0  1  0  0  3  0  0  0  0  0  0
  196.2670  175.4210  138.9870 O   0  0  0  0  0  1  0  0  0  0  0  0
  197.4020  174.6680  138.6830 C   0  0  0  0  0  2  0  0  0  0  0  0
  197.3210  172.7910  137.0070 C   0  0  0  0  0  2  0  0  0  0  0  0
  196.1520  173.0340  136.0560 C   0  0  2  0  0  3  0  0  0  0  0  0
  195.9310  174.4040  135.9010 O   0  0  0  0  0  1  0  0  0  0  0  0
  193.6400  168.9190  136.9380 O   0  0  0  0  0  1  0  0  0  0  0  0
  193.7110  170.3050  137.0090 C   0  0  0  0  0  0  0  0  0  0  0  0
  194.9210  172.3580  136.5660 C   0  0  0  0  0  0  0  0  0  0  0  0
  192.6620  171.0390  137.5790 C   0  0  0  0  0  0  0  0  0  0  0  0
  192.7480  172.4390  137.6460 C   0  0  0  0  0  0  0  0  0  0  0  0
  193.8760  173.0930  137.1450 C   0  0  0  0  0  3  0  0  0  0  0  0
  191.5430  170.3780  138.0760 O   0  0  0  0  0  1  0  0  0  0  0  0
  191.6510  173.2430  138.2510 C   0  0  0  0  0  1  0  0  0  0  0  0
  194.8360  170.9640  136.5080 C   0  0  0  0  0  3  0  0  0  0  0  0
  196.2310  176.7530  144.0100 C   0  0  0  0  0  2  0  0  0  0  0  0
  197.1730  177.2910  143.1350 O   0  0  0  0  0  1  0  0  0  0  0  0
  194.7800  175.2570  146.0890 C   0  0  0  0  0  2  0  0  0  0  0  0
  193.7980  175.9840  145.1800 C   0  0  0  0  0  2  0  0  0  0  0  0
  192.6380  175.1440  144.9340 N   0  0  0  0  0  2  0  0  0  0  0  0
  191.3030  175.6300  145.0980 C   0  0  0  0  0  0  0  0  0  0  0  0
  191.1230  176.8490  145.5240 N   0  0  0  0  0  0  0  0  0  0  0  0
  189.4650  174.2020  145.6430 O   0  0  0  0  0  0  0  0  0  0  0  0
  190.1890  174.7150  144.7490 C   0  0  0  0  0  0  0  0  0  0  0  0
  189.9380  174.4310  143.3640 N   0  0  0  0  0  2  0  0  0  0  0  0
  188.6240  173.9180  141.4510 O   0  0  0  0  0  0  0  0  0  0  0  0
  188.8570  173.6190  142.8030 C   0  0  2  0  0  0  0  0  0  0  0  0
  187.6150  174.2990  142.3700 C   0  0  0  0  0  2  0  0  0  0  0  0
  188.9230  172.1110  143.0630 C   0  0  0  0  0  2  0  0  0  0  0  0
  190.2320  171.4880  142.7010 C   0  0  0  0  0  0  0  0  0  0  0  0
  191.0830  171.2470  143.5970 O   0  0  0  0  0  1  0  0  0  0  0  0
  190.5200  171.2010  141.3740 O   0  0  0  0  0  0  0  0  0  0  0  0
  189.8430  177.5120  145.7320 C   0  0  0  0  0  2  0  0  0  0  0  0
  187.2300  177.9210  142.9800 C   0  0  0  0  0  3  0  0  0  0  0  0
  189.1830  177.7500  144.4140 C   0  0  0  0  0  0  0  0  0  0  0  0
  189.4440  177.9940  142.0130 C   0  0  0  0  0  3  0  0  0  0  0  0
  190.0040  177.8490  143.2850 C   0  0  0  0  0  3  0  0  0  0  0  0
  188.0580  178.0260  141.8610 C   0  0  0  0  0  3  0  0  0  0  0  0
  187.7750  177.7870  144.2690 C   0  0  0  0  0  0  0  0  0  0  0  0
  186.8840  177.6750  145.3970 N   0  0  0  0  0  0  0  0  0  0  0  0
  186.3200  176.6810  147.4380 O   0  0  0  0  0  1  0  0  0  0  0  0
  186.7840  176.4240  146.1470 C   0  0  0  0  0  2  0  0  0  0  0  0
  186.1360  178.8550  145.8290 C   0  0  0  0  0  2  0  0  0  0  0  0
  185.0310  180.0890  144.3740 C   0  0  0  0  0  1  0  0  0  0  0  0
  184.9080  178.9530  145.1710 O   0  0  0  0  0  0  0  0  0  0  0  0
  1  5  1  0  0  0  0
  1  8  1  0  0  0  0
  2  5  1  0  0  0  0
  3 32  1  6  0  0  0
  4  3  1  0  0  0  0
  5  4  1  1  0  0  0
  6  2  1  0  0  0  0
  7  2  1  6  0  0  0
  7  5  1  0  0  0  0
  8 30  1  1  0  0  0
  8  3  1  0  0  0  0
  9 14  1  6  0  0  0
  9 11  1  0  0  0  0
 10 14  1  6  0  0  0
 10  7  1  0  0  0  0
 11 10  1  0  0  0  0
 11 13  1  1  0  0  0
 12 15  1  6  0  0  0
 12  9  1  0  0  0  0
 12 11  1  0  0  0  0
 15 18  1  6  0  0  0
 15 17  1  0  0  0  0
 17 16  1  0  0  0  0
 19 20  1  1  0  0  0
 19 23  1  0  0  0  0
 19 18  1  0  0  0  0
 21 22  1  0  0  0  0
 22 24  1  0  0  0  0
 23 26  2  0  0  0  0
 24 25  2  0  0  0  0
 24 27  1  0  0  0  0
 25 28  1  0  0  0  0
 26 25  1  0  0  0  0
 29 23  1  0  0  0  0
 29 22  2  0  0  0  0
 31 30  1  0  0  0  0
 33 32  1  0  0  0  0
 34 35  1  0  0  0  0
 34 33  1  0  0  0  0
 35 36  2  0  0  0  0
 36 47  1  0  0  0  0
 38 35  1  0  0  0  0
 38 37  2  0  0  0  0
 39 38  1  0  0  0  0
 40 42  1  0  0  0  0
 40 41  1  0  0  0  0
 41 43  1  1  0  0  0
 41 39  1  0  0  0  0
 42 41  1  0  0  0  0
 44 43  1  0  0  0  0
 44 45  1  0  0  0  0
 46 44  2  0  0  0  0
 48 53  1  0  0  0  0
 49 47  1  0  0  0  0
 50 51  2  0  0  0  0
 51 49  1  0  0  0  0
 52 50  1  0  0  0  0
 52 48  2  0  0  0  0
 53 49  2  0  0  0  0
 53 54  1  0  0  0  0
 54 57  1  0  0  0  0
 54 56  1  0  0  0  0
 56 55  1  0  0  0  0
 58 59  1  0  0  0  0
 59 57  1  0  0  0  0
M  END
>  <MODEL>
6

>  <REMARK>
 VINA RESULT:      -4.8      2.622      9.751
  Name = 
  20 active torsions:
  status: ('A' for Active; 'I' for Inactive)
    1  A    between atoms: C_5  and  C_18
    2  A    between atoms: C_5  and  C_28
    3  A    between atoms: C_7  and  C_19
    4  A    between atoms: C_7  and  N_36
    5  A    between atoms: C_8  and  C_58
    6  A    between atoms: C_13  and  C_51
    7  A    between atoms: C_13  and  N_56
    8  A    between atoms: C_14  and  N_17
    9  A    between atoms: C_14  and  O_57
   10  A    between atoms: C_15  and  C_25
   11  A    between atoms: N_17  and  C_45
   12  A    between atoms: N_17  and  C_49
   13  A    between atoms: C_18  and  C_47
   14  A    between atoms: C_21  and  N_22
   15  A    between atoms: C_21  and  C_55
   16  A    between atoms: C_23  and  C_55
   17  A    between atoms: C_29  and  C_51
   18  A    between atoms: C_30  and  C_59
   19  A    between atoms: C_31  and  C_47
   20  A    between atoms: C_32  and  C_47
                            x       y       z     vdW  Elec       q    Type
                         _______ _______ _______ _____ _____    ______ ____

>  <TORSDO>
F 20

$$$$
=
 OpenBabel11072409443D

 59 65  0  0  1  0  0  0  0  0999 V2000
  193.2210  174.6840  144.8310 O   0  0  0  0  0  0  0  0  0  0  0  0
  193.0960  176.5420  143.2560 N   0  0  0  0  0  0  0  0  0  0  0  0
  195.6040  174.8970  145.0500 C   0  0  1  0  0  3  0  0  0  0  0  0
  195.0890  176.2740  144.7250 C   0  0  0  0  0  2  0  0  0  0  0  0
  193.6220  176.0000  144.5300 C   0  0  2  0  0  0  0  0  0  0  0  0
  192.1140  175.6420  142.6440 C   0  0  0  0  0  1  0  0  0  0  0  0
  192.6550  177.0970  144.5750 C   0  0  2  0  0  3  0  0  0  0  0  0
  194.3410  174.1300  145.4740 C   0  0  2  0  0  3  0  0  0  0  0  0
  190.2440  177.9040  146.4870 C   0  0  2  0  0  3  0  0  0  0  0  0
  191.2660  176.6420  145.0630 C   0  0  1  0  0  3  0  0  0  0  0  0
  191.1510  176.6730  146.5860 C   0  0  2  0  0  0  0  0  0  0  0  0
  189.7950  176.6780  147.2690 C   0  0  2  0  0  3  0  0  0  0  0  0
  192.2640  177.0340  147.3500 O   0  0  0  0  0  1  0  0  0  0  0  0
  190.2910  177.7880  144.9680 C   0  0  0  0  0  2  0  0  0  0  0  0
  188.7540  175.8270  146.5270 C   0  0  1  0  0  3  0  0  0  0  0  0
  189.7770  173.7680  145.8620 O   0  0  0  0  0  1  0  0  0  0  0  0
  188.9450  174.3460  146.8230 C   0  0  0  0  0  2  0  0  0  0  0  0
  187.3270  176.2750  146.8500 C   0  0  0  0  0  2  0  0  0  0  0  0
  187.0670  177.7370  146.4960 C   0  0  2  0  0  3  0  0  0  0  0  0
  186.3370  178.3590  147.5110 O   0  0  0  0  0  1  0  0  0  0  0  0
  186.8720  176.8270  141.6840 O   0  0  0  0  0  1  0  0  0  0  0  0
  186.2660  177.3520  142.8190 C   0  0  0  0  0  0  0  0  0  0  0  0
  186.3430  177.8340  145.1930 C   0  0  0  0  0  0  0  0  0  0  0  0
  184.9890  177.9230  142.7380 C   0  0  0  0  0  0  0  0  0  0  0  0
  184.3860  178.4470  143.8930 C   0  0  0  0  0  0  0  0  0  0  0  0
  185.0610  178.3970  145.1150 C   0  0  0  0  0  3  0  0  0  0  0  0
  184.3250  177.9670  141.5160 O   0  0  0  0  0  1  0  0  0  0  0  0
  183.0280  179.0550  143.8370 C   0  0  0  0  0  1  0  0  0  0  0  0
  186.9370  177.3060  144.0430 C   0  0  0  0  0  3  0  0  0  0  0  0
  194.4010  172.6210  145.2660 C   0  0  0  0  0  2  0  0  0  0  0  0
  195.7290  172.1960  145.2630 O   0  0  0  0  0  1  0  0  0  0  0  0
  196.3570  174.3010  143.8480 C   0  0  0  0  0  2  0  0  0  0  0  0
  196.2510  175.1580  142.5940 C   0  0  0  0  0  2  0  0  0  0  0  0
  196.7140  174.4060  141.4410 N   0  0  0  0  0  2  0  0  0  0  0  0
  195.8060  173.8160  140.5060 C   0  0  0  0  0  0  0  0  0  0  0  0
  194.5240  173.9180  140.7210 N   0  0  0  0  0  0  0  0  0  0  0  0
  197.0690  172.0850  139.4470 O   0  0  0  0  0  0  0  0  0  0  0  0
  196.3820  173.1330  139.3220 C   0  0  0  0  0  0  0  0  0  0  0  0
  196.1310  173.6820  138.0190 N   0  0  0  0  0  2  0  0  0  0  0  0
  197.9410  173.0790  136.6020 O   0  0  0  0  0  0  0  0  0  0  0  0
  196.5430  173.1320  136.7270 C   0  0  2  0  0  0  0  0  0  0  0  0
  197.2640  174.0150  135.7830 C   0  0  0  0  0  2  0  0  0  0  0  0
  195.8690  171.8300  136.2860 C   0  0  0  0  0  2  0  0  0  0  0  0
  194.4180  171.7470  136.6340 C   0  0  0  0  0  0  0  0  0  0  0  0
  193.6040  172.5680  136.1370 O   0  0  0  0  0  0  0  0  0  0  0  0
  193.9740  170.7830  137.5270 O   0  0  0  0  0  1  0  0  0  0  0  0
  193.4610  173.3970  139.8740 C   0  0  0  0  0  2  0  0  0  0  0  0
  190.7860  171.1260  141.3760 C   0  0  0  0  0  3  0  0  0  0  0  0
  192.7710  172.2720  140.5720 C   0  0  0  0  0  0  0  0  0  0  0  0
  192.9770  170.3290  142.0140 C   0  0  0  0  0  3  0  0  0  0  0  0
  193.5660  171.3580  141.2750 C   0  0  0  0  0  3  0  0  0  0  0  0
  191.5890  170.2150  142.0670 C   0  0  0  0  0  3  0  0  0  0  0  0
  191.3600  172.1600  140.6170 C   0  0  0  0  0  0  0  0  0  0  0  0
  190.4960  173.0830  139.9250 N   0  0  0  0  0  0  0  0  0  0  0  0
  189.4770  174.0020  138.0310 O   0  0  0  0  0  1  0  0  0  0  0  0
  190.5050  173.1640  138.4660 C   0  0  0  0  0  2  0  0  0  0  0  0
  189.5510  173.8870  140.7020 C   0  0  0  0  0  2  0  0  0  0  0  0
  188.3770  174.1630  142.5470 C   0  0  0  0  0  1  0  0  0  0  0  0
  189.3860  173.3790  141.9920 O   0  0  0  0  0  0  0  0  0  0  0  0
  1  8  1  0  0  0  0
  2  5  1  0  0  0  0
  3 32  1  6  0  0  0
  3  8  1  0  0  0  0
  4  3  1  0  0  0  0
  5  7  1  0  0  0  0
  5  4  1  1  0  0  0
  5  1  1  0  0  0  0
  6  2  1  0  0  0  0
  7  2  1  6  0  0  0
  7 10  1  0  0  0  0
  8 30  1  6  0  0  0
  9 14  1  6  0  0  0
  9 11  1  0  0  0  0
  9 12  1  0  0  0  0
 10 14  1  6  0  0  0
 10 11  1  0  0  0  0
 11 12  1  0  0  0  0
 11 13  1  1  0  0  0
 12 15  1  6  0  0  0
 15 17  1  1  0  0  0
 15 18  1  0  0  0  0
 16 17  1  0  0  0  0
 19 18  1  0  0  0  0
 19 20  1  1  0  0  0
 21 22  1  0  0  0  0
 22 29  1  0  0  0  0
 23 19  1  0  0  0  0
 24 22  2  0  0  0  0
 24 25  1  0  0  0  0
 25 26  2  0  0  0  0
 26 23  1  0  0  0  0
 27 24  1  0  0  0  0
 28 25  1  0  0  0  0
 29 23  2  0  0  0  0
 31 30  1  0  0  0  0
 33 32  1  0  0  0  0
 34 33  1  0  0  0  0
 35 36  2  0  0  0  0
 35 34  1  0  0  0  0
 38 37  2  0  0  0  0
 38 35  1  0  0  0  0
 39 38  1  0  0  0  0
 40 41  1  0  0  0  0
 41 43  1  6  0  0  0
 41 39  1  0  0  0  0
 42 40  1  0  0  0  0
 42 41  1  0  0  0  0
 43 44  1  0  0  0  0
 44 46  1  0  0  0  0
 45 44  2  0  0  0  0
 47 49  1  0  0  0  0
 47 36  1  0  0  0  0
 48 52  1  0  0  0  0
 49 53  1  0  0  0  0
 49 51  2  0  0  0  0
 50 52  2  0  0  0  0
 51 50  1  0  0  0  0
 53 48  2  0  0  0  0
 54 53  1  0  0  0  0
 54 57  1  0  0  0  0
 55 56  1  0  0  0  0
 56 54  1  0  0  0  0
 57 59  1  0  0  0  0
 59 58  1  0  0  0  0
M  END
>  <MODEL>
7

>  <REMARK>
 VINA RESULT:      -4.6      2.349      5.788
  Name = 
  20 active torsions:
  status: ('A' for Active; 'I' for Inactive)
    1  A    between atoms: C_5  and  C_18
    2  A    between atoms: C_5  and  C_28
    3  A    between atoms: C_7  and  C_19
    4  A    between atoms: C_7  and  N_36
    5  A    between atoms: C_8  and  C_58
    6  A    between atoms: C_13  and  C_51
    7  A    between atoms: C_13  and  N_56
    8  A    between atoms: C_14  and  N_17
    9  A    between atoms: C_14  and  O_57
   10  A    between atoms: C_15  and  C_25
   11  A    between atoms: N_17  and  C_45
   12  A    between atoms: N_17  and  C_49
   13  A    between atoms: C_18  and  C_47
   14  A    between atoms: C_21  and  N_22
   15  A    between atoms: C_21  and  C_55
   16  A    between atoms: C_23  and  C_55
   17  A    between atoms: C_29  and  C_51
   18  A    between atoms: C_30  and  C_59
   19  A    between atoms: C_31  and  C_47
   20  A    between atoms: C_32  and  C_47
                            x       y       z     vdW  Elec       q    Type
                         _______ _______ _______ _____ _____    ______ ____

>  <TORSDO>
F 20

$$$$
=
 OpenBabel11072409443D

 59 65  0  0  1  0  0  0  0  0999 V2000
  193.7030  175.8740  144.0500 O   0  0  0  0  0  0  0  0  0  0  0  0
  194.3060  176.0880  146.4030 N   0  0  0  0  0  0  0  0  0  0  0  0
  195.5750  174.4380  143.5960 C   0  0  1  0  0  3  0  0  0  0  0  0
  195.2150  174.2120  145.0410 C   0  0  0  0  0  2  0  0  0  0  0  0
  194.1050  175.2120  145.2260 C   0  0  2  0  0  0  0  0  0  0  0  0
  193.8740  177.4640  146.1400 C   0  0  0  0  0  1  0  0  0  0  0  0
  193.1880  175.0930  146.3590 C   0  0  2  0  0  3  0  0  0  0  0  0
  194.3410  175.1560  143.0250 C   0  0  2  0  0  3  0  0  0  0  0  0
  190.0770  174.5340  146.7170 C   0  0  2  0  0  3  0  0  0  0  0  0
  191.7910  175.6670  146.0530 C   0  0  1  0  0  3  0  0  0  0  0  0
  190.8700  174.6320  145.4110 C   0  0  2  0  0  0  0  0  0  0  0  0
  189.3630  174.8210  145.4050 C   0  0  2  0  0  3  0  0  0  0  0  0
  191.3650  173.3570  145.1260 O   0  0  0  0  0  1  0  0  0  0  0  0
  190.9450  175.6440  147.3010 C   0  0  0  0  0  2  0  0  0  0  0  0
  188.9510  176.2910  145.2400 C   0  0  1  0  0  3  0  0  0  0  0  0
  189.9720  178.2980  144.4320 O   0  0  0  0  0  1  0  0  0  0  0  0
  189.7350  176.9590  144.1200 C   0  0  0  0  0  2  0  0  0  0  0  0
  187.4430  176.4310  145.0190 C   0  0  0  0  0  2  0  0  0  0  0  0
  187.0010  177.8780  144.8190 C   0  0  2  0  0  3  0  0  0  0  0  0
  186.3350  178.3420  145.9550 O   0  0  0  0  0  1  0  0  0  0  0  0
  182.6370  178.9070  142.8400 O   0  0  0  0  0  1  0  0  0  0  0  0
  183.9610  178.5260  142.6620 C   0  0  0  0  0  0  0  0  0  0  0  0
  186.1260  177.9910  143.6140 C   0  0  0  0  0  0  0  0  0  0  0  0
  184.4630  178.2900  141.3750 C   0  0  0  0  0  0  0  0  0  0  0  0
  185.8040  177.9070  141.2090 C   0  0  0  0  0  0  0  0  0  0  0  0
  186.6310  177.7630  142.3260 C   0  0  0  0  0  3  0  0  0  0  0  0
  183.6300  178.4350  140.2700 O   0  0  0  0  0  1  0  0  0  0  0  0
  186.3640  177.6550  139.8530 C   0  0  0  0  0  1  0  0  0  0  0  0
  184.7930  178.3790  143.7760 C   0  0  0  0  0  3  0  0  0  0  0  0
  194.6130  176.0470  141.8190 C   0  0  0  0  0  2  0  0  0  0  0  0
  193.4260  176.2800  141.1250 O   0  0  0  0  0  1  0  0  0  0  0  0
  196.8960  175.2190  143.4800 C   0  0  0  0  0  2  0  0  0  0  0  0
  197.8950  174.5620  142.5370 C   0  0  0  0  0  2  0  0  0  0  0  0
  197.3010  174.4030  141.2210 N   0  0  0  0  0  2  0  0  0  0  0  0
  196.6780  173.1810  140.8140 C   0  0  0  0  0  0  0  0  0  0  0  0
  196.6840  172.1660  141.6330 N   0  0  0  0  0  0  0  0  0  0  0  0
  196.4090  172.3250  138.5980 O   0  0  0  0  0  0  0  0  0  0  0  0
  196.0360  173.1460  139.4770 C   0  0  0  0  0  0  0  0  0  0  0  0
  194.9640  174.0620  139.2030 N   0  0  0  0  0  2  0  0  0  0  0  0
  192.7830  174.2310  138.2740 O   0  0  0  0  0  0  0  0  0  0  0  0
  194.1560  174.1480  137.9860 C   0  0  2  0  0  0  0  0  0  0  0  0
  193.2360  173.0320  137.6710 C   0  0  0  0  0  2  0  0  0  0  0  0
  194.5950  175.1750  136.9390 C   0  0  0  0  0  2  0  0  0  0  0  0
  196.0400  175.0850  136.5660 C   0  0  0  0  0  0  0  0  0  0  0  0
  196.8880  175.8010  137.1590 O   0  0  0  0  0  1  0  0  0  0  0  0
  196.4400  174.2340  135.5460 O   0  0  0  0  0  0  0  0  0  0  0  0
  196.0880  170.8590  141.3940 C   0  0  0  0  0  2  0  0  0  0  0  0
  193.5180  169.8690  144.0370 C   0  0  0  0  0  3  0  0  0  0  0  0
  195.4500  170.3640  142.6500 C   0  0  0  0  0  0  0  0  0  0  0  0
  195.7430  169.7040  144.9680 C   0  0  0  0  0  3  0  0  0  0  0  0
  196.2840  170.0950  143.7410 C   0  0  0  0  0  3  0  0  0  0  0  0
  194.3600  169.5950  145.1170 C   0  0  0  0  0  3  0  0  0  0  0  0
  194.0450  170.2500  142.7910 C   0  0  0  0  0  0  0  0  0  0  0  0
  193.1400  170.5310  141.7040 N   0  0  0  0  0  0  0  0  0  0  0  0
  193.7220  168.5020  140.6960 O   0  0  0  0  0  1  0  0  0  0  0  0
  193.2220  169.7820  140.4520 C   0  0  0  0  0  2  0  0  0  0  0  0
  192.0860  171.5270  141.9000 C   0  0  0  0  0  2  0  0  0  0  0  0
  191.4210  173.5930  141.5150 C   0  0  0  0  0  1  0  0  0  0  0  0
  192.5660  172.8240  141.7150 O   0  0  0  0  0  0  0  0  0  0  0  0
  1  5  1  0  0  0  0
  3 32  1  1  0  0  0
  3  4  1  0  0  0  0
  5  4  1  6  0  0  0
  5  7  1  0  0  0  0
  5  2  1  0  0  0  0
  6  2  1  0  0  0  0
  7  2  1  1  0  0  0
  8 30  1  6  0  0  0
  8  3  1  0  0  0  0
  8  1  1  0  0  0  0
  9 14  1  1  0  0  0
 10  7  1  0  0  0  0
 10 14  1  1  0  0  0
 11 13  1  6  0  0  0
 11 10  1  0  0  0  0
 11  9  1  0  0  0  0
 12 15  1  1  0  0  0
 12 11  1  0  0  0  0
 12  9  1  0  0  0  0
 15 17  1  6  0  0  0
 17 16  1  0  0  0  0
 18 15  1  0  0  0  0
 19 18  1  0  0  0  0
 19 20  1  1  0  0  0
 22 21  1  0  0  0  0
 22 29  1  0  0  0  0
 23 29  2  0  0  0  0
 23 19  1  0  0  0  0
 24 22  2  0  0  0  0
 25 24  1  0  0  0  0
 25 26  2  0  0  0  0
 26 23  1  0  0  0  0
 27 24  1  0  0  0  0
 28 25  1  0  0  0  0
 31 30  1  0  0  0  0
 33 32  1  0  0  0  0
 34 33  1  0  0  0  0
 35 34  1  0  0  0  0
 35 36  2  0  0  0  0
 37 38  2  0  0  0  0
 38 35  1  0  0  0  0
 39 38  1  0  0  0  0
 41 43  1  6  0  0  0
 41 40  1  0  0  0  0
 41 39  1  0  0  0  0
 42 41  1  0  0  0  0
 42 40  1  0  0  0  0
 44 43  1  0  0  0  0
 44 45  1  0  0  0  0
 46 44  2  0  0  0  0
 47 36  1  0  0  0  0
 47 49  1  0  0  0  0
 48 52  1  0  0  0  0
 49 53  1  0  0  0  0
 49 51  2  0  0  0  0
 50 52  2  0  0  0  0
 51 50  1  0  0  0  0
 53 48  2  0  0  0  0
 54 57  1  0  0  0  0
 54 53  1  0  0  0  0
 56 55  1  0  0  0  0
 56 54  1  0  0  0  0
 58 59  1  0  0  0  0
 59 57  1  0  0  0  0
M  END
>  <MODEL>
8

>  <REMARK>
 VINA RESULT:      -4.6      2.481      4.943
  Name = 
  20 active torsions:
  status: ('A' for Active; 'I' for Inactive)
    1  A    between atoms: C_5  and  C_18
    2  A    between atoms: C_5  and  C_28
    3  A    between atoms: C_7  and  C_19
    4  A    between atoms: C_7  and  N_36
    5  A    between atoms: C_8  and  C_58
    6  A    between atoms: C_13  and  C_51
    7  A    between atoms: C_13  and  N_56
    8  A    between atoms: C_14  and  N_17
    9  A    between atoms: C_14  and  O_57
   10  A    between atoms: C_15  and  C_25
   11  A    between atoms: N_17  and  C_45
   12  A    between atoms: N_17  and  C_49
   13  A    between atoms: C_18  and  C_47
   14  A    between atoms: C_21  and  N_22
   15  A    between atoms: C_21  and  C_55
   16  A    between atoms: C_23  and  C_55
   17  A    between atoms: C_29  and  C_51
   18  A    between atoms: C_30  and  C_59
   19  A    between atoms: C_31  and  C_47
   20  A    between atoms: C_32  and  C_47
                            x       y       z     vdW  Elec       q    Type
                         _______ _______ _______ _____ _____    ______ ____

>  <TORSDO>
F 20

$$$$
=
 OpenBabel11072409443D

 59 65  0  0  1  0  0  0  0  0999 V2000
  190.2830  172.6640  138.5610 O   0  0  0  0  0  0  0  0  0  0  0  0
  191.8570  172.6640  140.4230 N   0  0  0  0  0  0  0  0  0  0  0  0
  190.5610  170.3060  138.1920 C   0  0  1  0  0  3  0  0  0  0  0  0
  190.8180  170.5340  139.6580 C   0  0  0  0  0  2  0  0  0  0  0  0
  190.7010  172.0310  139.7470 C   0  0  2  0  0  0  0  0  0  0  0  0
  192.2270  173.9360  139.7960 C   0  0  0  0  0  1  0  0  0  0  0  0
  190.4940  172.6790  141.0430 C   0  0  2  0  0  3  0  0  0  0  0  0
  189.8650  171.6000  137.7420 C   0  0  2  0  0  3  0  0  0  0  0  0
  188.5700  174.6460  142.6380 C   0  0  2  0  0  3  0  0  0  0  0  0
  189.7190  174.0050  140.9250 C   0  0  1  0  0  3  0  0  0  0  0  0
  188.2610  173.8610  141.3590 C   0  0  2  0  0  0  0  0  0  0  0  0
  187.4300  175.0780  141.7270 C   0  0  2  0  0  3  0  0  0  0  0  0
  187.7810  172.6070  141.7440 O   0  0  0  0  0  1  0  0  0  0  0  0
  189.9920  174.8650  142.1340 C   0  0  0  0  0  2  0  0  0  0  0  0
  187.7640  176.3060  140.8680 C   0  0  1  0  0  3  0  0  0  0  0  0
  186.5000  176.9210  138.9320 O   0  0  0  0  0  1  0  0  0  0  0  0
  187.4770  176.0410  139.3970 C   0  0  0  0  0  2  0  0  0  0  0  0
  187.0270  177.5530  141.3590 C   0  0  0  0  0  2  0  0  0  0  0  0
  187.8350  178.3640  142.3700 C   0  0  2  0  0  3  0  0  0  0  0  0
  189.1970  178.2900  142.0720 O   0  0  0  0  0  1  0  0  0  0  0  0
  184.7740  176.4010  145.6560 O   0  0  0  0  0  1  0  0  0  0  0  0
  186.0420  176.8820  145.3530 C   0  0  0  0  0  0  0  0  0  0  0  0
  187.5730  177.8730  143.7560 C   0  0  0  0  0  0  0  0  0  0  0  0
  187.0530  176.8680  146.3230 C   0  0  0  0  0  0  0  0  0  0  0  0
  188.3310  177.3560  146.0040 C   0  0  0  0  0  0  0  0  0  0  0  0
  188.5880  177.8510  144.7220 C   0  0  0  0  0  3  0  0  0  0  0  0
  186.7870  176.3730  147.5950 O   0  0  0  0  0  1  0  0  0  0  0  0
  189.4260  177.3490  147.0120 C   0  0  0  0  0  1  0  0  0  0  0  0
  186.3040  177.3800  144.0740 C   0  0  0  0  0  3  0  0  0  0  0  0
  190.0320  171.9460  136.2680 C   0  0  0  0  0  2  0  0  0  0  0  0
  189.8070  173.3080  136.0720 O   0  0  0  0  0  1  0  0  0  0  0  0
  191.8730  169.9810  137.4550 C   0  0  0  0  0  2  0  0  0  0  0  0
  193.0020  169.5860  138.3960 C   0  0  0  0  0  2  0  0  0  0  0  0
  193.9440  170.6840  138.5260 N   0  0  0  0  0  2  0  0  0  0  0  0
  194.7670  170.8430  139.6860 C   0  0  0  0  0  0  0  0  0  0  0  0
  194.6350  170.0020  140.6730 N   0  0  0  0  0  0  0  0  0  0  0  0
  196.8900  171.8160  139.1760 O   0  0  0  0  0  0  0  0  0  0  0  0
  195.7480  171.9560  139.6880 C   0  0  0  0  0  0  0  0  0  0  0  0
  195.3670  173.2100  140.2740 N   0  0  0  0  0  2  0  0  0  0  0  0
  195.3390  175.5850  140.1870 O   0  0  0  0  0  0  0  0  0  0  0  0
  196.1500  174.4450  140.3190 C   0  0  2  0  0  0  0  0  0  0  0  0
  196.2050  175.2910  139.1050 C   0  0  0  0  0  2  0  0  0  0  0  0
  197.1600  174.5800  141.4620 C   0  0  0  0  0  2  0  0  0  0  0  0
  196.6970  175.4530  142.5840 C   0  0  0  0  0  0  0  0  0  0  0  0
  197.3390  176.4960  142.8750 O   0  0  0  0  0  0  0  0  0  0  0  0
  195.5770  175.0980  143.3220 O   0  0  0  0  0  1  0  0  0  0  0  0
  195.3950  170.0010  141.9150 C   0  0  0  0  0  2  0  0  0  0  0  0
  193.9700  169.3290  145.3920 C   0  0  0  0  0  3  0  0  0  0  0  0
  194.5200  169.5450  143.0360 C   0  0  0  0  0  0  0  0  0  0  0  0
  192.6490  168.1660  143.7360 C   0  0  0  0  0  3  0  0  0  0  0  0
  193.4570  168.6900  142.7240 C   0  0  0  0  0  3  0  0  0  0  0  0
  192.9080  168.4820  145.0690 C   0  0  0  0  0  3  0  0  0  0  0  0
  194.7860  169.8760  144.3870 C   0  0  0  0  0  0  0  0  0  0  0  0
  195.8770  170.7400  144.7640 N   0  0  0  0  0  0  0  0  0  0  0  0
  197.2020  172.5990  144.2530 O   0  0  0  0  0  1  0  0  0  0  0  0
  195.8860  172.1470  144.3700 C   0  0  0  0  0  2  0  0  0  0  0  0
  196.9420  170.2060  145.6140 C   0  0  0  0  0  2  0  0  0  0  0  0
  197.3480  168.3920  146.7990 C   0  0  0  0  0  1  0  0  0  0  0  0
  197.0320  168.8160  145.5110 O   0  0  0  0  0  0  0  0  0  0  0  0
  1  5  1  0  0  0  0
  3 32  1  6  0  0  0
  3  4  1  0  0  0  0
  5  4  1  6  0  0  0
  5  2  1  0  0  0  0
  5  7  1  0  0  0  0
  6  2  1  0  0  0  0
  7  2  1  6  0  0  0
  8 30  1  6  0  0  0
  8  3  1  0  0  0  0
  8  1  1  0  0  0  0
  9 14  1  6  0  0  0
 10  7  1  0  0  0  0
 10 11  1  0  0  0  0
 10 14  1  1  0  0  0
 11 12  1  0  0  0  0
 11 13  1  1  0  0  0
 11  9  1  0  0  0  0
 12 15  1  6  0  0  0
 12  9  1  0  0  0  0
 15 17  1  6  0  0  0
 15 18  1  0  0  0  0
 16 17  1  0  0  0  0
 18 19  1  0  0  0  0
 19 20  1  6  0  0  0
 19 23  1  0  0  0  0
 22 21  1  0  0  0  0
 22 24  1  0  0  0  0
 23 29  1  0  0  0  0
 23 26  2  0  0  0  0
 24 27  1  0  0  0  0
 25 24  2  0  0  0  0
 25 28  1  0  0  0  0
 26 25  1  0  0  0  0
 29 22  2  0  0  0  0
 31 30  1  0  0  0  0
 32 33  1  0  0  0  0
 33 34  1  0  0  0  0
 34 35  1  0  0  0  0
 35 38  1  0  0  0  0
 35 36  2  0  0  0  0
 36 47  1  0  0  0  0
 37 38  2  0  0  0  0
 38 39  1  0  0  0  0
 39 41  1  0  0  0  0
 40 41  1  0  0  0  0
 41 43  1  1  0  0  0
 42 40  1  0  0  0  0
 42 41  1  0  0  0  0
 43 44  1  0  0  0  0
 44 45  2  0  0  0  0
 44 46  1  0  0  0  0
 47 49  1  0  0  0  0
 49 53  1  0  0  0  0
 50 52  2  0  0  0  0
 51 49  2  0  0  0  0
 51 50  1  0  0  0  0
 52 48  1  0  0  0  0
 53 54  1  0  0  0  0
 53 48  2  0  0  0  0
 54 57  1  0  0  0  0
 55 56  1  0  0  0  0
 56 54  1  0  0  0  0
 59 57  1  0  0  0  0
 59 58  1  0  0  0  0
M  END
>  <MODEL>
9

>  <REMARK>
 VINA RESULT:      -4.6      1.588      2.452
  Name = 
  20 active torsions:
  status: ('A' for Active; 'I' for Inactive)
    1  A    between atoms: C_5  and  C_18
    2  A    between atoms: C_5  and  C_28
    3  A    between atoms: C_7  and  C_19
    4  A    between atoms: C_7  and  N_36
    5  A    between atoms: C_8  and  C_58
    6  A    between atoms: C_13  and  C_51
    7  A    between atoms: C_13  and  N_56
    8  A    between atoms: C_14  and  N_17
    9  A    between atoms: C_14  and  O_57
   10  A    between atoms: C_15  and  C_25
   11  A    between atoms: N_17  and  C_45
   12  A    between atoms: N_17  and  C_49
   13  A    between atoms: C_18  and  C_47
   14  A    between atoms: C_21  and  N_22
   15  A    between atoms: C_21  and  C_55
   16  A    between atoms: C_23  and  C_55
   17  A    between atoms: C_29  and  C_51
   18  A    between atoms: C_30  and  C_59
   19  A    between atoms: C_31  and  C_47
   20  A    between atoms: C_32  and  C_47
                            x       y       z     vdW  Elec       q    Type
                         _______ _______ _______ _____ _____    ______ ____

>  <TORSDO>
F 20

$$$$
