=
 OpenBabel11062419593D

 42 47  0  0  1  0  0  0  0  0999 V2000
  194.5350  174.1130  145.7730 C   0  0  0  0  0  2  0  0  0  0  0  0
  190.5890  173.5030  143.3160 C   0  0  0  0  0  0  0  0  0  0  0  0
  189.6100  172.8570  142.5630 C   0  0  0  0  0  3  0  0  0  0  0  0
  189.2420  175.5370  143.2430 C   0  0  0  0  0  0  0  0  0  0  0  0
  190.4130  174.8780  143.6740 C   0  0  0  0  0  0  0  0  0  0  0  0
  192.5400  174.8120  144.8330 C   0  0  0  0  0  0  0  0  0  0  0  0
  188.3190  174.8630  142.5030 N   0  0  0  0  0  0  0  0  0  0  0  0
  193.9200  172.9280  144.9980 C   0  0  1  0  0  3  0  0  0  0  0  0
  191.3360  175.5340  144.4100 C   0  0  0  0  0  3  0  0  0  0  0  0
  192.6950  173.4730  144.4460 N   0  0  0  0  0  0  0  0  0  0  0  0
  191.6810  172.8100  143.6870 C   0  0  0  0  0  3  0  0  0  0  0  0
  188.4750  173.5580  142.1620 C   0  0  0  0  0  3  0  0  0  0  0  0
  193.5500  175.2320  145.5760 C   0  0  0  0  0  0  0  0  0  0  0  0
  195.8340  171.4680  144.1540 N   0  0  0  0  0  0  0  0  0  0  0  0
  194.6850  172.9290  142.7320 O   0  0  0  0  0  0  0  0  0  0  0  0
  194.8330  172.4680  143.8980 C   0  0  0  0  0  0  0  0  0  0  0  0
  193.6470  168.1660  147.0880 C   0  0  0  0  0  1  0  0  0  0  0  0
  194.9620  168.4810  146.4060 C   0  0  1  0  0  3  0  0  0  0  0  0
  197.1630  170.2160  145.7950 C   0  0  0  0  0  3  0  0  0  0  0  0
  194.7530  169.5860  145.3520 C   0  0  0  0  0  2  0  0  0  0  0  0
  196.0260  168.8200  147.4550 C   0  0  0  0  0  2  0  0  0  0  0  0
  197.2710  169.3130  146.7750 C   0  0  0  0  0  3  0  0  0  0  0  0
  195.7970  170.7170  145.4090 C   0  0  2  0  0  3  0  0  0  0  0  0
  196.7530  171.0550  143.0940 C   0  0  0  0  0  2  0  0  0  0  0  0
  196.8340  168.6560  142.4040 C   0  0  0  0  0  1  0  0  0  0  0  0
  196.2230  170.4000  140.7680 C   0  0  0  0  0  1  0  0  0  0  0  0
  196.1230  169.9820  142.2190 C   0  0  0  0  0  3  0  0  0  0  0  0
  194.5280  177.5040  145.5140 O   0  0  0  0  0  0  0  0  0  0  0  0
  193.7130  176.5770  146.1520 C   0  0  0  0  0  0  0  0  0  0  0  0
  193.1230  176.9040  147.2160 O   0  0  0  0  0  1  0  0  0  0  0  0
  188.9900  176.9840  143.5470 C   0  0  0  0  0  2  0  0  0  0  0  0
  184.4670  178.2390  140.6450 C   0  0  0  0  0  1  0  0  0  0  0  0
  185.0960  177.9540  141.9620 C   0  0  0  0  0  0  0  0  0  0  0  0
  184.4250  177.9630  143.1030 O   0  0  0  0  0  0  0  0  0  0  0  0
  185.1110  177.5610  145.4010 C   0  0  0  0  0  3  0  0  0  0  0  0
  186.2370  177.2400  146.1820 C   0  0  0  0  0  0  0  0  0  0  0  0
  187.6510  177.1650  144.1830 C   0  0  0  0  0  0  0  0  0  0  0  0
  186.0990  177.1080  147.6560 C   0  0  0  0  0  1  0  0  0  0  0  0
  187.4990  177.0440  145.5770 C   0  0  0  0  0  3  0  0  0  0  0  0
  186.5150  177.4880  143.4370 C   0  0  0  0  0  0  0  0  0  0  0  0
  185.3010  177.6760  144.0260 C   0  0  0  0  0  0  0  0  0  0  0  0
  186.4140  177.6620  142.1070 N   0  0  0  0  0  0  0  0  0  0  0  0
  2  5  1  0  0  0  0
  2 11  2  0  0  0  0
  3  2  1  0  0  0  0
  4 31  1  0  0  0  0
  4  5  1  0  0  0  0
  5  9  2  0  0  0  0
  6 13  2  0  0  0  0
  7  4  2  0  0  0  0
  8 16  1  6  0  0  0
  8  1  1  0  0  0  0
  9  6  1  0  0  0  0
 10  6  1  0  0  0  0
 10  8  1  0  0  0  0
 11 10  1  0  0  0  0
 12  7  1  0  0  0  0
 12  3  2  0  0  0  0
 13  1  1  0  0  0  0
 13 29  1  0  0  0  0
 15 16  2  0  0  0  0
 16 14  1  0  0  0  0
 18 17  1  1  0  0  0
 18 21  1  0  0  0  0
 19 22  2  0  0  0  0
 20 23  1  0  0  0  0
 20 18  1  0  0  0  0
 22 21  1  0  0  0  0
 23 14  1  6  0  0  0
 23 19  1  0  0  0  0
 24 14  1  0  0  0  0
 26 27  1  0  0  0  0
 27 25  1  0  0  0  0
 27 24  1  0  0  0  0
 28 29  2  0  0  0  0
 29 30  1  0  0  0  0
 31 37  1  0  0  0  0
 32 33  1  0  0  0  0
 33 42  2  0  0  0  0
 33 34  1  0  0  0  0
 34 41  1  0  0  0  0
 35 36  1  0  0  0  0
 36 38  1  0  0  0  0
 37 39  1  0  0  0  0
 39 36  2  0  0  0  0
 40 41  1  0  0  0  0
 40 37  2  0  0  0  0
 41 35  2  0  0  0  0
 42 40  1  0  0  0  0
M  END
>  <MODEL>
1

>  <REMARK>
 VINA RESULT:      -8.2      0.000      0.000
  Name = 
  7 active torsions:
  status: ('A' for Active; 'I' for Inactive)
    1  A    between atoms: N_1  and  C_40
    2  A    between atoms: N_1  and  C_42
    3  A    between atoms: C_12  and  C_15
    4  A    between atoms: C_12  and  C_25
    5  A    between atoms: C_19  and  C_40
    6  A    between atoms: C_21  and  C_29
    7  A    between atoms: C_24  and  C_41
                            x       y       z     vdW  Elec       q    Type
                         _______ _______ _______ _____ _____    ______ ____

>  <TORSDO>
F 7

$$$$
=
 OpenBabel11062419593D

 42 47  0  0  1  0  0  0  0  0999 V2000
  188.8280  173.4350  141.9260 C   0  0  0  0  0  2  0  0  0  0  0  0
  193.1590  175.1260  141.3250 C   0  0  0  0  0  0  0  0  0  0  0  0
  194.3450  175.8010  141.6080 C   0  0  0  0  0  3  0  0  0  0  0  0
  194.1150  174.4340  139.1880 C   0  0  0  0  0  0  0  0  0  0  0  0
  193.0280  174.4190  140.0870 C   0  0  0  0  0  0  0  0  0  0  0  0
  190.7890  173.7590  140.7430 C   0  0  0  0  0  0  0  0  0  0  0  0
  195.2490  175.1150  139.5090 N   0  0  0  0  0  0  0  0  0  0  0  0
  189.7600  174.3340  142.7660 C   0  0  1  0  0  3  0  0  0  0  0  0
  191.8970  173.7460  139.7810 C   0  0  0  0  0  3  0  0  0  0  0  0
  190.9400  174.4820  141.9360 N   0  0  0  0  0  0  0  0  0  0  0  0
  192.1640  175.1590  142.2290 C   0  0  0  0  0  3  0  0  0  0  0  0
  195.3860  175.7850  140.6820 C   0  0  0  0  0  3  0  0  0  0  0  0
  189.6160  173.1540  140.6770 C   0  0  0  0  0  0  0  0  0  0  0  0
  189.2500  176.2920  144.3190 N   0  0  0  0  0  0  0  0  0  0  0  0
  188.5380  176.2760  142.0900 O   0  0  0  0  0  0  0  0  0  0  0  0
  189.1310  175.6730  143.0270 C   0  0  0  0  0  0  0  0  0  0  0  0
  193.6310  176.4520  146.5720 C   0  0  0  0  0  1  0  0  0  0  0  0
  192.1410  176.4530  146.8440 C   0  0  1  0  0  3  0  0  0  0  0  0
  189.5010  175.3600  146.5760 C   0  0  0  0  0  3  0  0  0  0  0  0
  191.3710  176.7090  145.5320 C   0  0  0  0  0  2  0  0  0  0  0  0
  191.7380  175.1570  147.5540 C   0  0  0  0  0  2  0  0  0  0  0  0
  190.2420  175.0750  147.6520 C   0  0  0  0  0  3  0  0  0  0  0  0
  190.1930  175.7460  145.2950 C   0  0  2  0  0  3  0  0  0  0  0  0
  188.5970  177.5730  144.5860 C   0  0  0  0  0  2  0  0  0  0  0  0
  186.2980  178.3130  143.9460 C   0  0  0  0  0  1  0  0  0  0  0  0
  186.7950  177.6760  146.2780 C   0  0  0  0  0  1  0  0  0  0  0  0
  187.1070  177.3810  144.8260 C   0  0  0  0  0  3  0  0  0  0  0  0
  189.7730  171.1220  139.2730 O   0  0  0  0  0  1  0  0  0  0  0  0
  189.1250  172.3140  139.5710 C   0  0  0  0  0  0  0  0  0  0  0  0
  188.1240  172.6590  138.8890 O   0  0  0  0  0  0  0  0  0  0  0  0
  194.0520  173.7450  137.8580 C   0  0  0  0  0  2  0  0  0  0  0  0
  189.5200  171.5420  135.6080 C   0  0  0  0  0  1  0  0  0  0  0  0
  190.4350  172.7060  135.7450 C   0  0  0  0  0  0  0  0  0  0  0  0
  190.2590  173.8470  135.1000 O   0  0  0  0  0  0  0  0  0  0  0  0
  191.5330  175.9190  135.0740 C   0  0  0  0  0  3  0  0  0  0  0  0
  192.6790  176.5230  135.6250 C   0  0  0  0  0  0  0  0  0  0  0  0
  193.1740  174.4990  136.9130 C   0  0  0  0  0  0  0  0  0  0  0  0
  193.0360  177.9140  135.2410 C   0  0  0  0  0  1  0  0  0  0  0  0
  193.4950  175.8170  136.5370 C   0  0  0  0  0  3  0  0  0  0  0  0
  192.0330  173.9280  136.3470 C   0  0  0  0  0  0  0  0  0  0  0  0
  191.2500  174.6130  135.4670 C   0  0  0  0  0  0  0  0  0  0  0  0
  191.5330  172.6940  136.5450 N   0  0  0  0  0  0  0  0  0  0  0  0
  1  8  1  0  0  0  0
  2  3  1  0  0  0  0
  2 11  2  0  0  0  0
  4  7  2  0  0  0  0
  4  5  1  0  0  0  0
  5  2  1  0  0  0  0
  6 10  1  0  0  0  0
  7 12  1  0  0  0  0
  8 16  1  6  0  0  0
  9  5  2  0  0  0  0
  9  6  1  0  0  0  0
 10 11  1  0  0  0  0
 10  8  1  0  0  0  0
 12  3  2  0  0  0  0
 13  6  2  0  0  0  0
 13  1  1  0  0  0  0
 14 24  1  0  0  0  0
 15 16  2  0  0  0  0
 16 14  1  0  0  0  0
 18 17  1  6  0  0  0
 18 21  1  0  0  0  0
 19 22  2  0  0  0  0
 20 18  1  0  0  0  0
 21 22  1  0  0  0  0
 23 14  1  6  0  0  0
 23 20  1  0  0  0  0
 23 19  1  0  0  0  0
 24 27  1  0  0  0  0
 25 27  1  0  0  0  0
 27 26  1  0  0  0  0
 28 29  1  0  0  0  0
 29 13  1  0  0  0  0
 30 29  2  0  0  0  0
 31  4  1  0  0  0  0
 32 33  1  0  0  0  0
 33 42  2  0  0  0  0
 34 41  1  0  0  0  0
 34 33  1  0  0  0  0
 35 41  2  0  0  0  0
 35 36  1  0  0  0  0
 36 39  2  0  0  0  0
 37 31  1  0  0  0  0
 38 36  1  0  0  0  0
 39 37  1  0  0  0  0
 40 42  1  0  0  0  0
 40 37  2  0  0  0  0
 41 40  1  0  0  0  0
M  END
>  <MODEL>
2

>  <REMARK>
 VINA RESULT:      -7.9      4.861      8.943
  Name = 
  7 active torsions:
  status: ('A' for Active; 'I' for Inactive)
    1  A    between atoms: N_1  and  C_40
    2  A    between atoms: N_1  and  C_42
    3  A    between atoms: C_12  and  C_15
    4  A    between atoms: C_12  and  C_25
    5  A    between atoms: C_19  and  C_40
    6  A    between atoms: C_21  and  C_29
    7  A    between atoms: C_24  and  C_41
                            x       y       z     vdW  Elec       q    Type
                         _______ _______ _______ _____ _____    ______ ____

>  <TORSDO>
F 7

$$$$
=
 OpenBabel11062419593D

 42 47  0  0  1  0  0  0  0  0999 V2000
  192.1880  172.4790  142.1050 C   0  0  0  0  0  2  0  0  0  0  0  0
  192.0900  175.2590  145.8780 C   0  0  0  0  0  0  0  0  0  0  0  0
  192.5520  176.0950  146.8930 C   0  0  0  0  0  3  0  0  0  0  0  0
  189.8160  175.5860  146.7060 C   0  0  0  0  0  0  0  0  0  0  0  0
  190.6880  174.9900  145.7690 C   0  0  0  0  0  0  0  0  0  0  0  0
  191.1430  173.5900  143.8430 C   0  0  0  0  0  0  0  0  0  0  0  0
  190.3200  176.3890  147.6830 N   0  0  0  0  0  0  0  0  0  0  0  0
  193.2660  173.2080  142.9340 C   0  0  1  0  0  3  0  0  0  0  0  0
  190.2010  174.1920  144.7940 C   0  0  0  0  0  3  0  0  0  0  0  0
  192.5120  173.8530  143.9920 N   0  0  0  0  0  0  0  0  0  0  0  0
  192.9800  174.7250  145.0240 C   0  0  0  0  0  3  0  0  0  0  0  0
  191.6470  176.6540  147.7920 C   0  0  0  0  0  3  0  0  0  0  0  0
  190.8980  172.8140  142.8020 C   0  0  0  0  0  0  0  0  0  0  0  0
  195.6450  172.3160  143.1560 N   0  0  0  0  0  0  0  0  0  0  0  0
  193.8660  171.3790  144.3530 O   0  0  0  0  0  0  0  0  0  0  0  0
  194.2540  172.2360  143.5130 C   0  0  0  0  0  0  0  0  0  0  0  0
  197.0690  177.0340  143.1630 C   0  0  0  0  0  1  0  0  0  0  0  0
  197.5320  175.6410  142.7900 C   0  0  1  0  0  3  0  0  0  0  0  0
  197.2140  173.1240  141.4500 C   0  0  0  0  0  3  0  0  0  0  0  0
  196.5900  174.5920  143.4150 C   0  0  0  0  0  2  0  0  0  0  0  0
  197.6650  175.5250  141.2680 C   0  0  0  0  0  2  0  0  0  0  0  0
  197.9390  174.0980  140.8900 C   0  0  0  0  0  3  0  0  0  0  0  0
  196.1380  173.4900  142.4380 C   0  0  2  0  0  3  0  0  0  0  0  0
  196.5980  171.3390  143.6820 C   0  0  0  0  0  2  0  0  0  0  0  0
  197.0310  172.4120  145.8960 C   0  0  0  0  0  1  0  0  0  0  0  0
  197.1920  169.9620  145.6500 C   0  0  0  0  0  1  0  0  0  0  0  0
  196.4540  171.2010  145.1910 C   0  0  0  0  0  3  0  0  0  0  0  0
  189.0170  172.8620  141.1940 O   0  0  0  0  0  0  0  0  0  0  0  0
  189.5780  172.3400  142.3530 C   0  0  0  0  0  0  0  0  0  0  0  0
  188.9470  171.4660  143.0040 O   0  0  0  0  0  1  0  0  0  0  0  0
  188.3380  175.3340  146.6840 C   0  0  0  0  0  2  0  0  0  0  0  0
  187.5570  176.3730  141.3210 C   0  0  0  0  0  1  0  0  0  0  0  0
  187.3630  176.7820  142.7370 C   0  0  0  0  0  0  0  0  0  0  0  0
  186.7380  177.8930  143.0930 O   0  0  0  0  0  0  0  0  0  0  0  0
  186.2530  178.8650  145.2690 C   0  0  0  0  0  3  0  0  0  0  0  0
  186.4260  178.6410  146.6470 C   0  0  0  0  0  0  0  0  0  0  0  0
  187.6050  176.5400  146.1970 C   0  0  0  0  0  0  0  0  0  0  0  0
  185.9020  179.6280  147.6270 C   0  0  0  0  0  1  0  0  0  0  0  0
  187.0990  177.4870  147.1080 C   0  0  0  0  0  3  0  0  0  0  0  0
  187.4190  176.7940  144.8360 C   0  0  0  0  0  0  0  0  0  0  0  0
  186.7690  177.9090  144.3980 C   0  0  0  0  0  0  0  0  0  0  0  0
  187.8140  176.0490  143.7880 N   0  0  0  0  0  0  0  0  0  0  0  0
  1 13  1  0  0  0  0
  1  8  1  0  0  0  0
  2  3  1  0  0  0  0
  3 12  2  0  0  0  0
  4  7  2  0  0  0  0
  5  2  1  0  0  0  0
  5  4  1  0  0  0  0
  6 10  1  0  0  0  0
  6  9  1  0  0  0  0
  7 12  1  0  0  0  0
  8 16  1  1  0  0  0
  8 10  1  0  0  0  0
  9  5  2  0  0  0  0
 10 11  1  0  0  0  0
 11  2  2  0  0  0  0
 13  6  2  0  0  0  0
 14 16  1  0  0  0  0
 14 24  1  0  0  0  0
 16 15  2  0  0  0  0
 18 17  1  6  0  0  0
 18 20  1  0  0  0  0
 19 23  1  0  0  0  0
 21 18  1  0  0  0  0
 22 21  1  0  0  0  0
 22 19  2  0  0  0  0
 23 14  1  1  0  0  0
 23 20  1  0  0  0  0
 24 27  1  0  0  0  0
 27 26  1  0  0  0  0
 27 25  1  0  0  0  0
 28 29  2  0  0  0  0
 29 13  1  0  0  0  0
 29 30  1  0  0  0  0
 31  4  1  0  0  0  0
 32 33  1  0  0  0  0
 33 34  1  0  0  0  0
 33 42  2  0  0  0  0
 34 41  1  0  0  0  0
 35 36  1  0  0  0  0
 36 39  2  0  0  0  0
 36 38  1  0  0  0  0
 37 31  1  0  0  0  0
 37 39  1  0  0  0  0
 40 37  2  0  0  0  0
 41 40  1  0  0  0  0
 41 35  2  0  0  0  0
 42 40  1  0  0  0  0
M  END
>  <MODEL>
3

>  <REMARK>
 VINA RESULT:      -7.7      2.560      4.720
  Name = 
  7 active torsions:
  status: ('A' for Active; 'I' for Inactive)
    1  A    between atoms: N_1  and  C_40
    2  A    between atoms: N_1  and  C_42
    3  A    between atoms: C_12  and  C_15
    4  A    between atoms: C_12  and  C_25
    5  A    between atoms: C_19  and  C_40
    6  A    between atoms: C_21  and  C_29
    7  A    between atoms: C_24  and  C_41
                            x       y       z     vdW  Elec       q    Type
                         _______ _______ _______ _____ _____    ______ ____

>  <TORSDO>
F 7

$$$$
=
 OpenBabel11062419593D

 42 47  0  0  1  0  0  0  0  0999 V2000
  195.3580  174.5140  145.9760 C   0  0  0  0  0  2  0  0  0  0  0  0
  191.2570  173.6350  143.8800 C   0  0  0  0  0  0  0  0  0  0  0  0
  190.2350  172.9110  143.2710 C   0  0  0  0  0  3  0  0  0  0  0  0
  189.8870  175.6470  143.6870 C   0  0  0  0  0  0  0  0  0  0  0  0
  191.0920  175.0400  144.1020 C   0  0  0  0  0  0  0  0  0  0  0  0
  193.2950  175.1040  145.1100 C   0  0  0  0  0  0  0  0  0  0  0  0
  188.9220  174.8950  143.0890 N   0  0  0  0  0  0  0  0  0  0  0  0
  194.7030  173.2520  145.3760 C   0  0  1  0  0  3  0  0  0  0  0  0
  192.0570  175.7740  144.6980 C   0  0  0  0  0  3  0  0  0  0  0  0
  193.4370  173.7320  144.8570 N   0  0  0  0  0  0  0  0  0  0  0  0
  192.3790  172.9890  144.2460 C   0  0  0  0  0  3  0  0  0  0  0  0
  189.0670  173.5620  142.8790 C   0  0  0  0  0  3  0  0  0  0  0  0
  194.3500  175.6030  145.7320 C   0  0  0  0  0  0  0  0  0  0  0  0
  196.2490  171.4430  144.4600 N   0  0  0  0  0  0  0  0  0  0  0  0
  195.5820  173.2660  143.1520 O   0  0  0  0  0  0  0  0  0  0  0  0
  195.5410  172.6800  144.2700 C   0  0  0  0  0  0  0  0  0  0  0  0
  193.3630  168.1660  146.7440 C   0  0  0  0  0  1  0  0  0  0  0  0
  194.7920  168.4030  146.3000 C   0  0  1  0  0  3  0  0  0  0  0  0
  197.1950  169.9650  146.1760 C   0  0  0  0  0  3  0  0  0  0  0  0
  194.8430  169.5930  145.3200 C   0  0  0  0  0  2  0  0  0  0  0  0
  195.6990  168.5710  147.5230 C   0  0  0  0  0  2  0  0  0  0  0  0
  197.0720  168.9920  147.0840 C   0  0  0  0  0  3  0  0  0  0  0  0
  195.9530  170.6150  145.6280 C   0  0  2  0  0  3  0  0  0  0  0  0
  197.1040  170.9120  143.3980 C   0  0  0  0  0  2  0  0  0  0  0  0
  196.5800  168.7550  142.2510 C   0  0  0  0  0  1  0  0  0  0  0  0
  196.5820  170.8700  140.9800 C   0  0  0  0  0  1  0  0  0  0  0  0
  196.2700  170.2370  142.3190 C   0  0  0  0  0  3  0  0  0  0  0  0
  195.2770  177.8650  145.3490 O   0  0  0  0  0  0  0  0  0  0  0  0
  194.5390  177.0030  146.1490 C   0  0  0  0  0  0  0  0  0  0  0  0
  194.0390  177.4330  147.2230 O   0  0  0  0  0  1  0  0  0  0  0  0
  189.6430  177.1170  143.8530 C   0  0  0  0  0  2  0  0  0  0  0  0
  185.9000  177.8480  147.8420 C   0  0  0  0  0  1  0  0  0  0  0  0
  186.2220  177.8130  146.3910 C   0  0  0  0  0  0  0  0  0  0  0  0
  185.3240  178.0230  145.4420 O   0  0  0  0  0  0  0  0  0  0  0  0
  185.4860  178.0350  143.0160 C   0  0  0  0  0  3  0  0  0  0  0  0
  186.4060  177.8590  141.9650 C   0  0  0  0  0  0  0  0  0  0  0  0
  188.2160  177.4510  143.5660 C   0  0  0  0  0  0  0  0  0  0  0  0
  185.9480  177.9770  140.5560 C   0  0  0  0  0  1  0  0  0  0  0  0
  187.7610  177.5680  142.2390 C   0  0  0  0  0  3  0  0  0  0  0  0
  187.2770  177.6280  144.5850 C   0  0  0  0  0  0  0  0  0  0  0  0
  185.9710  177.9080  144.3150 C   0  0  0  0  0  0  0  0  0  0  0  0
  187.4690  177.5590  145.9150 N   0  0  0  0  0  0  0  0  0  0  0  0
  2  5  1  0  0  0  0
  2 11  2  0  0  0  0
  3  2  1  0  0  0  0
  4 31  1  0  0  0  0
  4  5  1  0  0  0  0
  5  9  2  0  0  0  0
  6 13  2  0  0  0  0
  7  4  2  0  0  0  0
  8 16  1  6  0  0  0
  8  1  1  0  0  0  0
  9  6  1  0  0  0  0
 10  6  1  0  0  0  0
 10  8  1  0  0  0  0
 11 10  1  0  0  0  0
 12  7  1  0  0  0  0
 12  3  2  0  0  0  0
 13  1  1  0  0  0  0
 13 29  1  0  0  0  0
 15 16  2  0  0  0  0
 16 14  1  0  0  0  0
 18 17  1  1  0  0  0
 18 21  1  0  0  0  0
 19 22  2  0  0  0  0
 20 23  1  0  0  0  0
 20 18  1  0  0  0  0
 22 21  1  0  0  0  0
 23 14  1  6  0  0  0
 23 19  1  0  0  0  0
 24 14  1  0  0  0  0
 25 27  1  0  0  0  0
 26 27  1  0  0  0  0
 27 24  1  0  0  0  0
 28 29  2  0  0  0  0
 29 30  1  0  0  0  0
 33 32  1  0  0  0  0
 34 33  1  0  0  0  0
 35 41  1  0  0  0  0
 36 39  1  0  0  0  0
 36 35  2  0  0  0  0
 37 31  1  0  0  0  0
 37 40  1  0  0  0  0
 38 36  1  0  0  0  0
 39 37  2  0  0  0  0
 40 42  1  0  0  0  0
 41 40  2  0  0  0  0
 41 34  1  0  0  0  0
 42 33  2  0  0  0  0
M  END
>  <MODEL>
4

>  <REMARK>
 VINA RESULT:      -7.6      1.080      2.205
  Name = 
  7 active torsions:
  status: ('A' for Active; 'I' for Inactive)
    1  A    between atoms: N_1  and  C_40
    2  A    between atoms: N_1  and  C_42
    3  A    between atoms: C_12  and  C_15
    4  A    between atoms: C_12  and  C_25
    5  A    between atoms: C_19  and  C_40
    6  A    between atoms: C_21  and  C_29
    7  A    between atoms: C_24  and  C_41
                            x       y       z     vdW  Elec       q    Type
                         _______ _______ _______ _____ _____    ______ ____

>  <TORSDO>
F 7

$$$$
=
 OpenBabel11062419593D

 42 47  0  0  1  0  0  0  0  0999 V2000
  196.5350  175.3350  143.9060 C   0  0  0  0  0  2  0  0  0  0  0  0
  192.6240  176.1930  146.3450 C   0  0  0  0  0  0  0  0  0  0  0  0
  191.7620  176.2760  147.4360 C   0  0  0  0  0  3  0  0  0  0  0  0
  190.8740  177.1590  144.9430 C   0  0  0  0  0  0  0  0  0  0  0  0
  192.1830  176.6440  145.0590 C   0  0  0  0  0  0  0  0  0  0  0  0
  194.3460  176.0410  144.1450 C   0  0  0  0  0  0  0  0  0  0  0  0
  190.0680  177.2120  146.0390 N   0  0  0  0  0  0  0  0  0  0  0  0
  196.1150  175.1270  145.3760 C   0  0  1  0  0  3  0  0  0  0  0  0
  192.9940  176.5870  143.9800 C   0  0  0  0  0  3  0  0  0  0  0  0
  194.7390  175.5840  145.4120 N   0  0  0  0  0  0  0  0  0  0  0  0
  193.8560  175.6870  146.5310 C   0  0  0  0  0  3  0  0  0  0  0  0
  190.4790  176.7910  147.2630 C   0  0  0  0  0  3  0  0  0  0  0  0
  195.3130  175.9190  143.2530 C   0  0  0  0  0  0  0  0  0  0  0  0
  195.2410  172.7350  145.2510 N   0  0  0  0  0  0  0  0  0  0  0  0
  197.1390  173.2840  146.5040 O   0  0  0  0  0  0  0  0  0  0  0  0
  196.1970  173.6790  145.7630 C   0  0  0  0  0  0  0  0  0  0  0  0
  194.2470  172.9610  140.4290 C   0  0  0  0  0  1  0  0  0  0  0  0
  193.6900  172.4670  141.7470 C   0  0  1  0  0  3  0  0  0  0  0  0
  192.9120  172.8380  144.4840 C   0  0  0  0  0  3  0  0  0  0  0  0
  194.7920  172.4960  142.8260 C   0  0  0  0  0  2  0  0  0  0  0  0
  192.4390  173.2700  142.1200 C   0  0  0  0  0  2  0  0  0  0  0  0
  191.9990  172.9090  143.5100 C   0  0  0  0  0  3  0  0  0  0  0  0
  194.3530  173.1290  144.1590 C   0  0  2  0  0  3  0  0  0  0  0  0
  195.2930  171.3330  145.6680 C   0  0  0  0  0  2  0  0  0  0  0  0
  195.3910  169.2720  144.2600 C   0  0  0  0  0  1  0  0  0  0  0  0
  197.4200  170.1000  145.3950 C   0  0  0  0  0  1  0  0  0  0  0  0
  196.1380  170.5130  144.7040 C   0  0  0  0  0  3  0  0  0  0  0  0
  196.3790  176.7910  141.1960 O   0  0  0  0  0  1  0  0  0  0  0  0
  195.2460  176.2970  141.8310 C   0  0  0  0  0  0  0  0  0  0  0  0
  194.1750  176.1780  141.1780 O   0  0  0  0  0  0  0  0  0  0  0  0
  190.3210  177.6260  143.6300 C   0  0  0  0  0  2  0  0  0  0  0  0
  185.0230  179.1190  144.0260 C   0  0  0  0  0  1  0  0  0  0  0  0
  186.0320  178.0990  143.6330 C   0  0  0  0  0  0  0  0  0  0  0  0
  185.7120  176.9210  143.1230 O   0  0  0  0  0  0  0  0  0  0  0  0
  187.0660  175.0400  142.3880 C   0  0  0  0  0  3  0  0  0  0  0  0
  188.4030  174.6170  142.2650 C   0  0  0  0  0  0  0  0  0  0  0  0
  189.2010  176.7430  143.1860 C   0  0  0  0  0  0  0  0  0  0  0  0
  188.7030  173.2690  141.7170 C   0  0  0  0  0  1  0  0  0  0  0  0
  189.4630  175.4620  142.6630 C   0  0  0  0  0  3  0  0  0  0  0  0
  187.8640  177.1310  143.2960 C   0  0  0  0  0  0  0  0  0  0  0  0
  186.8460  176.3110  142.9120 C   0  0  0  0  0  0  0  0  0  0  0  0
  187.3690  178.2910  143.7670 N   0  0  0  0  0  0  0  0  0  0  0  0
  1  8  1  0  0  0  0
  2 11  2  0  0  0  0
  2  3  1  0  0  0  0
  4  5  1  0  0  0  0
  4  7  2  0  0  0  0
  5  2  1  0  0  0  0
  6 10  1  0  0  0  0
  7 12  1  0  0  0  0
  8 10  1  0  0  0  0
  8 16  1  6  0  0  0
  9  6  1  0  0  0  0
  9  5  2  0  0  0  0
 10 11  1  0  0  0  0
 12  3  2  0  0  0  0
 13  1  1  0  0  0  0
 13  6  2  0  0  0  0
 14 24  1  0  0  0  0
 14 16  1  0  0  0  0
 16 15  2  0  0  0  0
 18 17  1  6  0  0  0
 18 21  1  0  0  0  0
 18 20  1  0  0  0  0
 20 23  1  0  0  0  0
 21 22  1  0  0  0  0
 22 19  2  0  0  0  0
 23 19  1  0  0  0  0
 23 14  1  1  0  0  0
 25 27  1  0  0  0  0
 27 26  1  0  0  0  0
 27 24  1  0  0  0  0
 28 29  1  0  0  0  0
 29 13  1  0  0  0  0
 30 29  2  0  0  0  0
 31  4  1  0  0  0  0
 33 42  2  0  0  0  0
 33 32  1  0  0  0  0
 34 33  1  0  0  0  0
 35 41  1  0  0  0  0
 36 35  2  0  0  0  0
 36 39  1  0  0  0  0
 37 40  1  0  0  0  0
 37 31  1  0  0  0  0
 38 36  1  0  0  0  0
 39 37  2  0  0  0  0
 40 42  1  0  0  0  0
 41 34  1  0  0  0  0
 41 40  2  0  0  0  0
M  END
>  <MODEL>
5

>  <REMARK>
 VINA RESULT:      -7.5      2.303      4.329
  Name = 
  7 active torsions:
  status: ('A' for Active; 'I' for Inactive)
    1  A    between atoms: N_1  and  C_40
    2  A    between atoms: N_1  and  C_42
    3  A    between atoms: C_12  and  C_15
    4  A    between atoms: C_12  and  C_25
    5  A    between atoms: C_19  and  C_40
    6  A    between atoms: C_21  and  C_29
    7  A    between atoms: C_24  and  C_41
                            x       y       z     vdW  Elec       q    Type
                         _______ _______ _______ _____ _____    ______ ____

>  <TORSDO>
F 7

$$$$
=
 OpenBabel11062419593D

 42 47  0  0  1  0  0  0  0  0999 V2000
  191.5490  172.4600  140.8190 C   0  0  0  0  0  2  0  0  0  0  0  0
  190.7630  175.9040  143.9020 C   0  0  0  0  0  0  0  0  0  0  0  0
  190.9730  176.7560  144.9840 C   0  0  0  0  0  3  0  0  0  0  0  0
  188.7010  177.1130  143.4050 C   0  0  0  0  0  0  0  0  0  0  0  0
  189.6030  176.0770  143.0810 C   0  0  0  0  0  0  0  0  0  0  0  0
  190.3310  174.2090  141.7190 C   0  0  0  0  0  0  0  0  0  0  0  0
  188.9480  177.9140  144.4780 N   0  0  0  0  0  0  0  0  0  0  0  0
  192.2910  172.9770  142.0690 C   0  0  1  0  0  3  0  0  0  0  0  0
  189.3700  175.2760  142.0180 C   0  0  0  0  0  3  0  0  0  0  0  0
  191.4450  174.0490  142.5560 N   0  0  0  0  0  0  0  0  0  0  0  0
  191.6640  174.9360  143.6560 C   0  0  0  0  0  3  0  0  0  0  0  0
  190.0480  177.7610  145.2600 C   0  0  0  0  0  3  0  0  0  0  0  0
  190.3300  173.3360  140.7260 C   0  0  0  0  0  0  0  0  0  0  0  0
  193.5010  171.9280  144.0540 N   0  0  0  0  0  0  0  0  0  0  0  0
  191.5460  170.9910  143.1740 O   0  0  0  0  0  0  0  0  0  0  0  0
  192.4200  171.8990  143.1070 C   0  0  0  0  0  0  0  0  0  0  0  0
  194.5660  176.1510  146.3620 C   0  0  0  0  0  1  0  0  0  0  0  0
  195.1750  174.8350  145.9270 C   0  0  1  0  0  3  0  0  0  0  0  0
  195.7810  172.8330  143.9620 C   0  0  0  0  0  3  0  0  0  0  0  0
  194.0590  173.8550  145.5100 C   0  0  0  0  0  2  0  0  0  0  0  0
  196.2230  175.0780  144.8360 C   0  0  0  0  0  2  0  0  0  0  0  0
  196.6870  173.7650  144.2750 C   0  0  0  0  0  3  0  0  0  0  0  0
  194.3210  173.1330  144.1750 C   0  0  2  0  0  3  0  0  0  0  0  0
  193.6530  170.8520  145.0330 C   0  0  0  0  0  2  0  0  0  0  0  0
  193.4080  168.4200  144.5150 C   0  0  0  0  0  1  0  0  0  0  0  0
  195.6160  169.3480  145.1100 C   0  0  0  0  0  1  0  0  0  0  0  0
  194.3090  169.6340  144.4010 C   0  0  0  0  0  3  0  0  0  0  0  0
  188.0720  172.6740  139.9610 O   0  0  0  0  0  1  0  0  0  0  0  0
  189.3160  173.2180  139.6650 C   0  0  0  0  0  0  0  0  0  0  0  0
  189.5560  173.6050  138.4910 O   0  0  0  0  0  0  0  0  0  0  0  0
  187.4470  177.3460  142.6180 C   0  0  0  0  0  2  0  0  0  0  0  0
  182.3300  178.2910  140.7770 C   0  0  0  0  0  1  0  0  0  0  0  0
  183.2970  178.2930  141.9080 C   0  0  0  0  0  0  0  0  0  0  0  0
  182.9780  178.6750  143.1340 O   0  0  0  0  0  0  0  0  0  0  0  0
  184.2740  178.8160  145.1870 C   0  0  0  0  0  3  0  0  0  0  0  0
  185.5640  178.5870  145.7020 C   0  0  0  0  0  0  0  0  0  0  0  0
  186.3490  177.8350  143.5060 C   0  0  0  0  0  0  0  0  0  0  0  0
  185.8460  178.8630  147.1340 C   0  0  0  0  0  1  0  0  0  0  0  0
  186.5950  178.1010  144.8660 C   0  0  0  0  0  3  0  0  0  0  0  0
  185.0600  178.0750  143.0260 C   0  0  0  0  0  0  0  0  0  0  0  0
  184.0700  178.5440  143.8360 C   0  0  0  0  0  0  0  0  0  0  0  0
  184.5910  177.9050  141.7760 N   0  0  0  0  0  0  0  0  0  0  0  0
  1  8  1  0  0  0  0
  2  3  1  0  0  0  0
  3 12  2  0  0  0  0
  4  7  2  0  0  0  0
  5  4  1  0  0  0  0
  5  2  1  0  0  0  0
  6  9  1  0  0  0  0
  6 10  1  0  0  0  0
  7 12  1  0  0  0  0
  8 10  1  0  0  0  0
  8 16  1  1  0  0  0
  9  5  2  0  0  0  0
 10 11  1  0  0  0  0
 11  2  2  0  0  0  0
 13  1  1  0  0  0  0
 13  6  2  0  0  0  0
 14 24  1  0  0  0  0
 16 15  2  0  0  0  0
 16 14  1  0  0  0  0
 18 17  1  6  0  0  0
 19 23  1  0  0  0  0
 19 22  2  0  0  0  0
 20 18  1  0  0  0  0
 21 18  1  0  0  0  0
 22 21  1  0  0  0  0
 23 14  1  1  0  0  0
 23 20  1  0  0  0  0
 27 25  1  0  0  0  0
 27 24  1  0  0  0  0
 27 26  1  0  0  0  0
 29 28  1  0  0  0  0
 29 13  1  0  0  0  0
 30 29  2  0  0  0  0
 31  4  1  0  0  0  0
 31 37  1  0  0  0  0
 32 33  1  0  0  0  0
 33 34  1  0  0  0  0
 34 41  1  0  0  0  0
 35 36  1  0  0  0  0
 36 38  1  0  0  0  0
 37 39  1  0  0  0  0
 39 36  2  0  0  0  0
 40 37  2  0  0  0  0
 40 41  1  0  0  0  0
 41 35  2  0  0  0  0
 42 33  2  0  0  0  0
 42 40  1  0  0  0  0
M  END
>  <MODEL>
6

>  <REMARK>
 VINA RESULT:      -7.5      2.461      4.375
  Name = 
  7 active torsions:
  status: ('A' for Active; 'I' for Inactive)
    1  A    between atoms: N_1  and  C_40
    2  A    between atoms: N_1  and  C_42
    3  A    between atoms: C_12  and  C_15
    4  A    between atoms: C_12  and  C_25
    5  A    between atoms: C_19  and  C_40
    6  A    between atoms: C_21  and  C_29
    7  A    between atoms: C_24  and  C_41
                            x       y       z     vdW  Elec       q    Type
                         _______ _______ _______ _____ _____    ______ ____

>  <TORSDO>
F 7

$$$$
=
 OpenBabel11062419593D

 42 47  0  0  1  0  0  0  0  0999 V2000
  191.3610  172.2100  140.4600 C   0  0  0  0  0  2  0  0  0  0  0  0
  191.4240  176.2720  142.7990 C   0  0  0  0  0  0  0  0  0  0  0  0
  191.9340  177.3720  143.4870 C   0  0  0  0  0  3  0  0  0  0  0  0
  189.1920  177.2420  142.9940 C   0  0  0  0  0  0  0  0  0  0  0  0
  190.0190  176.1930  142.5380 C   0  0  0  0  0  0  0  0  0  0  0  0
  190.3840  174.0770  141.4130 C   0  0  0  0  0  0  0  0  0  0  0  0
  189.7390  178.2910  143.6680 N   0  0  0  0  0  0  0  0  0  0  0  0
  192.4670  173.0460  141.1370 C   0  0  1  0  0  3  0  0  0  0  0  0
  189.4880  175.1470  141.8660 C   0  0  0  0  0  3  0  0  0  0  0  0
  191.7520  174.1720  141.7060 N   0  0  0  0  0  0  0  0  0  0  0  0
  192.2730  175.3090  142.3980 C   0  0  0  0  0  3  0  0  0  0  0  0
  191.0710  178.3770  143.9170 C   0  0  0  0  0  3  0  0  0  0  0  0
  190.1010  172.9880  140.7190 C   0  0  0  0  0  0  0  0  0  0  0  0
  194.5910  172.2290  142.2890 N   0  0  0  0  0  0  0  0  0  0  0  0
  192.4650  171.6700  143.0930 O   0  0  0  0  0  0  0  0  0  0  0  0
  193.1550  172.2620  142.2170 C   0  0  0  0  0  0  0  0  0  0  0  0
  196.2670  176.7850  141.4360 C   0  0  0  0  0  1  0  0  0  0  0  0
  196.7260  175.3580  141.6490 C   0  0  1  0  0  3  0  0  0  0  0  0
  196.6850  172.5520  141.0490 C   0  0  0  0  0  3  0  0  0  0  0  0
  195.5590  174.5090  142.1930 C   0  0  0  0  0  2  0  0  0  0  0  0
  197.3400  174.8080  140.3570 C   0  0  0  0  0  2  0  0  0  0  0  0
  197.6210  173.3410  140.5120 C   0  0  0  0  0  3  0  0  0  0  0  0
  195.3740  173.1590  141.4760 C   0  0  2  0  0  3  0  0  0  0  0  0
  195.2600  171.4260  143.3120 C   0  0  0  0  0  2  0  0  0  0  0  0
  196.8830  172.3850  144.9520 C   0  0  0  0  0  1  0  0  0  0  0  0
  194.7220  171.4780  145.7270 C   0  0  0  0  0  1  0  0  0  0  0  0
  195.4180  172.2170  144.6030 C   0  0  0  0  0  3  0  0  0  0  0  0
  187.6970  172.5650  141.1260 O   0  0  0  0  0  1  0  0  0  0  0  0
  188.7700  172.5740  140.2440 C   0  0  0  0  0  0  0  0  0  0  0  0
  188.5870  172.2280  139.0460 O   0  0  0  0  0  0  0  0  0  0  0  0
  187.7060  177.2250  142.7900 C   0  0  0  0  0  2  0  0  0  0  0  0
  189.4220  174.6500  147.3590 C   0  0  0  0  0  1  0  0  0  0  0  0
  188.4340  175.5410  146.6960 C   0  0  0  0  0  0  0  0  0  0  0  0
  187.3930  176.0640  147.3240 O   0  0  0  0  0  0  0  0  0  0  0  0
  185.6020  177.5270  146.5710 C   0  0  0  0  0  3  0  0  0  0  0  0
  185.1280  178.2050  145.4320 C   0  0  0  0  0  0  0  0  0  0  0  0
  186.9930  177.3440  144.0970 C   0  0  0  0  0  0  0  0  0  0  0  0
  183.8890  179.0210  145.5210 C   0  0  0  0  0  1  0  0  0  0  0  0
  185.8180  178.1120  144.2030 C   0  0  0  0  0  3  0  0  0  0  0  0
  187.4350  176.6820  145.2440 C   0  0  0  0  0  0  0  0  0  0  0  0
  186.7650  176.7750  146.4270 C   0  0  0  0  0  0  0  0  0  0  0  0
  188.5140  175.8920  145.3860 N   0  0  0  0  0  0  0  0  0  0  0  0
  1 13  1  0  0  0  0
  1  8  1  0  0  0  0
  2  3  1  0  0  0  0
  3 12  2  0  0  0  0
  4  7  2  0  0  0  0
  5  2  1  0  0  0  0
  5  4  1  0  0  0  0
  6 10  1  0  0  0  0
  6  9  1  0  0  0  0
  7 12  1  0  0  0  0
  8 10  1  0  0  0  0
  8 16  1  1  0  0  0
  9  5  2  0  0  0  0
 10 11  1  0  0  0  0
 11  2  2  0  0  0  0
 13  6  2  0  0  0  0
 14 24  1  0  0  0  0
 16 14  1  0  0  0  0
 16 15  2  0  0  0  0
 18 17  1  6  0  0  0
 18 20  1  0  0  0  0
 19 23  1  0  0  0  0
 21 22  1  0  0  0  0
 21 18  1  0  0  0  0
 22 19  2  0  0  0  0
 23 20  1  0  0  0  0
 23 14  1  1  0  0  0
 24 27  1  0  0  0  0
 27 25  1  0  0  0  0
 27 26  1  0  0  0  0
 29 13  1  0  0  0  0
 29 28  1  0  0  0  0
 30 29  2  0  0  0  0
 31  4  1  0  0  0  0
 31 37  1  0  0  0  0
 33 34  1  0  0  0  0
 33 32  1  0  0  0  0
 36 38  1  0  0  0  0
 36 35  2  0  0  0  0
 37 39  2  0  0  0  0
 37 40  1  0  0  0  0
 39 36  1  0  0  0  0
 40 42  1  0  0  0  0
 40 41  2  0  0  0  0
 41 35  1  0  0  0  0
 41 34  1  0  0  0  0
 42 33  2  0  0  0  0
M  END
>  <MODEL>
7

>  <REMARK>
 VINA RESULT:      -7.4      2.898      5.372
  Name = 
  7 active torsions:
  status: ('A' for Active; 'I' for Inactive)
    1  A    between atoms: N_1  and  C_40
    2  A    between atoms: N_1  and  C_42
    3  A    between atoms: C_12  and  C_15
    4  A    between atoms: C_12  and  C_25
    5  A    between atoms: C_19  and  C_40
    6  A    between atoms: C_21  and  C_29
    7  A    between atoms: C_24  and  C_41
                            x       y       z     vdW  Elec       q    Type
                         _______ _______ _______ _____ _____    ______ ____

>  <TORSDO>
F 7

$$$$
=
 OpenBabel11062419593D

 42 47  0  0  1  0  0  0  0  0999 V2000
  196.4960  175.2640  143.9220 C   0  0  0  0  0  2  0  0  0  0  0  0
  192.5830  176.1660  146.3410 C   0  0  0  0  0  0  0  0  0  0  0  0
  191.7140  176.2540  147.4270 C   0  0  0  0  0  3  0  0  0  0  0  0
  190.8580  177.1710  144.9350 C   0  0  0  0  0  0  0  0  0  0  0  0
  192.1580  176.6340  145.0560 C   0  0  0  0  0  0  0  0  0  0  0  0
  194.3160  176.0030  144.1520 C   0  0  0  0  0  0  0  0  0  0  0  0
  190.0450  177.2280  146.0260 N   0  0  0  0  0  0  0  0  0  0  0  0
  196.0620  175.0520  145.3870 C   0  0  1  0  0  3  0  0  0  0  0  0
  192.9750  176.5730  143.9820 C   0  0  0  0  0  3  0  0  0  0  0  0
  194.6940  175.5310  145.4170 N   0  0  0  0  0  0  0  0  0  0  0  0
  193.8050  175.6390  146.5320 C   0  0  0  0  0  3  0  0  0  0  0  0
  190.4400  176.7910  147.2490 C   0  0  0  0  0  3  0  0  0  0  0  0
  195.2880  175.8730  143.2650 C   0  0  0  0  0  0  0  0  0  0  0  0
  195.1540  172.6730  145.2340 N   0  0  0  0  0  0  0  0  0  0  0  0
  197.0460  173.1850  146.5120 O   0  0  0  0  0  0  0  0  0  0  0  0
  196.1180  173.5990  145.7640 C   0  0  0  0  0  0  0  0  0  0  0  0
  194.2030  172.9290  140.4050 C   0  0  0  0  0  1  0  0  0  0  0  0
  193.6240  172.4470  141.7180 C   0  0  1  0  0  3  0  0  0  0  0  0
  192.8330  172.8320  144.4490 C   0  0  0  0  0  3  0  0  0  0  0  0
  194.7180  172.4490  142.8050 C   0  0  0  0  0  2  0  0  0  0  0  0
  192.3900  173.2780  142.0820 C   0  0  0  0  0  2  0  0  0  0  0  0
  191.9300  172.9260  143.4680 C   0  0  0  0  0  3  0  0  0  0  0  0
  194.2830  173.0900  144.1350 C   0  0  2  0  0  3  0  0  0  0  0  0
  195.1800  171.2680  145.6400 C   0  0  0  0  0  2  0  0  0  0  0  0
  195.8010  169.4650  144.0260 C   0  0  0  0  0  1  0  0  0  0  0  0
  197.1900  169.8780  146.0240 C   0  0  0  0  0  1  0  0  0  0  0  0
  196.3280  170.5310  144.9650 C   0  0  0  0  0  3  0  0  0  0  0  0
  196.3680  176.7910  141.2370 O   0  0  0  0  0  1  0  0  0  0  0  0
  195.2360  176.2630  141.8460 C   0  0  0  0  0  0  0  0  0  0  0  0
  194.1810  176.1240  141.1720 O   0  0  0  0  0  0  0  0  0  0  0  0
  190.3210  177.6570  143.6220 C   0  0  0  0  0  2  0  0  0  0  0  0
  188.6680  172.8630  141.4460 C   0  0  0  0  0  1  0  0  0  0  0  0
  188.3150  174.1770  142.0460 C   0  0  0  0  0  0  0  0  0  0  0  0
  187.0680  174.5820  142.2220 O   0  0  0  0  0  0  0  0  0  0  0  0
  186.1340  176.6290  143.1450 C   0  0  0  0  0  3  0  0  0  0  0  0
  186.5080  177.8640  143.7080 C   0  0  0  0  0  0  0  0  0  0  0  0
  188.8800  177.2950  143.4740 C   0  0  0  0  0  0  0  0  0  0  0  0
  185.4610  178.8290  144.1320 C   0  0  0  0  0  1  0  0  0  0  0  0
  187.8720  178.1950  143.8700 C   0  0  0  0  0  3  0  0  0  0  0  0
  188.4750  176.0800  142.9170 C   0  0  0  0  0  0  0  0  0  0  0  0
  187.1580  175.7660  142.7630 C   0  0  0  0  0  0  0  0  0  0  0  0
  189.2450  175.0750  142.4620 N   0  0  0  0  0  0  0  0  0  0  0  0
  1  8  1  0  0  0  0
  2 11  2  0  0  0  0
  2  3  1  0  0  0  0
  4  5  1  0  0  0  0
  4  7  2  0  0  0  0
  5  2  1  0  0  0  0
  6 10  1  0  0  0  0
  7 12  1  0  0  0  0
  8 10  1  0  0  0  0
  8 16  1  6  0  0  0
  9  6  1  0  0  0  0
  9  5  2  0  0  0  0
 10 11  1  0  0  0  0
 12  3  2  0  0  0  0
 13  1  1  0  0  0  0
 13  6  2  0  0  0  0
 14 24  1  0  0  0  0
 14 16  1  0  0  0  0
 16 15  2  0  0  0  0
 18 17  1  6  0  0  0
 18 21  1  0  0  0  0
 18 20  1  0  0  0  0
 20 23  1  0  0  0  0
 21 22  1  0  0  0  0
 22 19  2  0  0  0  0
 23 19  1  0  0  0  0
 23 14  1  1  0  0  0
 25 27  1  0  0  0  0
 27 24  1  0  0  0  0
 27 26  1  0  0  0  0
 28 29  1  0  0  0  0
 29 13  1  0  0  0  0
 30 29  2  0  0  0  0
 31  4  1  0  0  0  0
 32 33  1  0  0  0  0
 33 34  1  0  0  0  0
 33 42  2  0  0  0  0
 34 41  1  0  0  0  0
 35 36  1  0  0  0  0
 36 39  2  0  0  0  0
 36 38  1  0  0  0  0
 37 31  1  0  0  0  0
 37 39  1  0  0  0  0
 40 37  2  0  0  0  0
 41 40  1  0  0  0  0
 41 35  2  0  0  0  0
 42 40  1  0  0  0  0
M  END
>  <MODEL>
8

>  <REMARK>
 VINA RESULT:      -7.3      2.362      4.352
  Name = 
  7 active torsions:
  status: ('A' for Active; 'I' for Inactive)
    1  A    between atoms: N_1  and  C_40
    2  A    between atoms: N_1  and  C_42
    3  A    between atoms: C_12  and  C_15
    4  A    between atoms: C_12  and  C_25
    5  A    between atoms: C_19  and  C_40
    6  A    between atoms: C_21  and  C_29
    7  A    between atoms: C_24  and  C_41
                            x       y       z     vdW  Elec       q    Type
                         _______ _______ _______ _____ _____    ______ ____

>  <TORSDO>
F 7

$$$$
=
 OpenBabel11062419593D

 42 47  0  0  1  0  0  0  0  0999 V2000
  190.7880  177.0420  146.2760 C   0  0  0  0  0  2  0  0  0  0  0  0
  189.9530  174.2470  142.6060 C   0  0  0  0  0  0  0  0  0  0  0  0
  189.2820  173.6890  141.5200 C   0  0  0  0  0  3  0  0  0  0  0  0
  191.8420  172.7710  142.1410 C   0  0  0  0  0  0  0  0  0  0  0  0
  191.2680  173.7870  142.9360 C   0  0  0  0  0  0  0  0  0  0  0  0
  191.3180  175.3610  144.7780 C   0  0  0  0  0  0  0  0  0  0  0  0
  191.1400  172.2540  141.0950 N   0  0  0  0  0  0  0  0  0  0  0  0
  189.5910  176.8440  145.3230 C   0  0  1  0  0  3  0  0  0  0  0  0
  191.9530  174.3100  143.9760 C   0  0  0  0  0  3  0  0  0  0  0  0
  190.0190  175.7730  144.4450 N   0  0  0  0  0  0  0  0  0  0  0  0
  189.3410  175.2090  143.3200 C   0  0  0  0  0  3  0  0  0  0  0  0
  189.8950  172.6860  140.7710 C   0  0  0  0  0  3  0  0  0  0  0  0
  191.8010  176.0350  145.8070 C   0  0  0  0  0  0  0  0  0  0  0  0
  187.0760  176.9890  145.7250 N   0  0  0  0  0  0  0  0  0  0  0  0
  188.4430  175.5790  146.9970 O   0  0  0  0  0  0  0  0  0  0  0  0
  188.3570  176.4410  146.0790 C   0  0  0  0  0  0  0  0  0  0  0  0
  186.6710  177.0500  140.8130 C   0  0  0  0  0  1  0  0  0  0  0  0
  185.9810  177.5110  142.0800 C   0  0  1  0  0  3  0  0  0  0  0  0
  185.9400  178.8590  144.6120 C   0  0  0  0  0  3  0  0  0  0  0  0
  186.5980  176.7980  143.3000 C   0  0  0  0  0  2  0  0  0  0  0  0
  186.0230  179.0400  142.1710 C   0  0  0  0  0  2  0  0  0  0  0  0
  185.5100  179.4830  143.5110 C   0  0  0  0  0  3  0  0  0  0  0  0
  186.9330  177.7360  144.4750 C   0  0  2  0  0  3  0  0  0  0  0  0
  185.8830  176.6320  146.4920 C   0  0  0  0  0  2  0  0  0  0  0  0
  184.4810  178.5100  147.3580 C   0  0  0  0  0  1  0  0  0  0  0  0
  186.9060  178.4580  147.8110 C   0  0  0  0  0  1  0  0  0  0  0  0
  185.6660  177.6080  147.6390 C   0  0  0  0  0  3  0  0  0  0  0  0
  193.8250  176.9750  146.8780 O   0  0  0  0  0  1  0  0  0  0  0  0
  193.1290  175.8630  146.4210 C   0  0  0  0  0  0  0  0  0  0  0  0
  193.6450  174.7200  146.5410 O   0  0  0  0  0  0  0  0  0  0  0  0
  193.2010  172.2100  142.4330 C   0  0  0  0  0  2  0  0  0  0  0  0
  197.1920  173.7910  145.9010 C   0  0  0  0  0  1  0  0  0  0  0  0
  196.5650  173.8830  144.5560 C   0  0  0  0  0  0  0  0  0  0  0  0
  197.0260  174.6640  143.5930 O   0  0  0  0  0  0  0  0  0  0  0  0
  196.2680  175.0680  141.3180 C   0  0  0  0  0  3  0  0  0  0  0  0
  195.2710  174.6930  140.3980 C   0  0  0  0  0  0  0  0  0  0  0  0
  194.2680  173.1800  142.0440 C   0  0  0  0  0  0  0  0  0  0  0  0
  195.2600  175.2900  139.0370 C   0  0  0  0  0  1  0  0  0  0  0  0
  194.2760  173.7560  140.7590 C   0  0  0  0  0  3  0  0  0  0  0  0
  195.2690  173.5760  142.9330 C   0  0  0  0  0  0  0  0  0  0  0  0
  196.2250  174.4800  142.5790 C   0  0  0  0  0  0  0  0  0  0  0  0
  195.4610  173.1750  144.2030 N   0  0  0  0  0  0  0  0  0  0  0  0
  2  5  1  0  0  0  0
  2 11  2  0  0  0  0
  3  2  1  0  0  0  0
  4 31  1  0  0  0  0
  4  5  1  0  0  0  0
  5  9  2  0  0  0  0
  6 13  2  0  0  0  0
  7  4  2  0  0  0  0
  8 16  1  1  0  0  0
  8  1  1  0  0  0  0
  9  6  1  0  0  0  0
 10  6  1  0  0  0  0
 10  8  1  0  0  0  0
 11 10  1  0  0  0  0
 12  7  1  0  0  0  0
 12  3  2  0  0  0  0
 13  1  1  0  0  0  0
 13 29  1  0  0  0  0
 14 16  1  0  0  0  0
 14 24  1  0  0  0  0
 16 15  2  0  0  0  0
 18 17  1  6  0  0  0
 18 21  1  0  0  0  0
 18 20  1  0  0  0  0
 20 23  1  0  0  0  0
 21 22  1  0  0  0  0
 22 19  2  0  0  0  0
 23 19  1  0  0  0  0
 23 14  1  1  0  0  0
 24 27  1  0  0  0  0
 25 27  1  0  0  0  0
 27 26  1  0  0  0  0
 29 30  2  0  0  0  0
 29 28  1  0  0  0  0
 33 32  1  0  0  0  0
 34 33  1  0  0  0  0
 35 41  1  0  0  0  0
 36 39  1  0  0  0  0
 36 35  2  0  0  0  0
 37 31  1  0  0  0  0
 37 40  1  0  0  0  0
 38 36  1  0  0  0  0
 39 37  2  0  0  0  0
 40 42  1  0  0  0  0
 41 40  2  0  0  0  0
 41 34  1  0  0  0  0
 42 33  2  0  0  0  0
M  END
>  <MODEL>
9

>  <REMARK>
 VINA RESULT:      -7.3      2.878      9.731
  Name = 
  7 active torsions:
  status: ('A' for Active; 'I' for Inactive)
    1  A    between atoms: N_1  and  C_40
    2  A    between atoms: N_1  and  C_42
    3  A    between atoms: C_12  and  C_15
    4  A    between atoms: C_12  and  C_25
    5  A    between atoms: C_19  and  C_40
    6  A    between atoms: C_21  and  C_29
    7  A    between atoms: C_24  and  C_41
                            x       y       z     vdW  Elec       q    Type
                         _______ _______ _______ _____ _____    ______ ____

>  <TORSDO>
F 7

$$$$
