=
 OpenBabel11062422343D

 59 62  0  0  1  0  0  0  0  0999 V2000
  188.4150  172.7440  143.1690 F   0  0  0  0  0  0  0  0  0  0  0  0
  189.7010  171.9300  141.3760 C   0  0  0  0  0  0  0  0  0  0  0  0
  190.2220  172.7560  139.0320 C   0  0  0  0  0  0  0  0  0  0  0  0
  188.5830  174.2030  141.2520 C   0  0  1  0  0  3  0  0  0  0  0  0
  190.1320  172.1810  140.1860 C   0  0  0  0  0  0  0  0  0  0  0  0
  188.8970  174.3160  137.1110 Cl  0  0  0  0  0  0  0  0  0  0  0  0
  187.3530  172.1280  141.2810 F   0  0  0  0  0  0  0  0  0  0  0  0
  190.4810  171.2830  142.2790 F   0  0  0  0  0  0  0  0  0  0  0  0
  188.4920  172.7360  141.7850 C   0  0  0  0  0  0  0  0  0  0  0  0
  189.2080  173.8160  138.7660 C   0  0  0  0  0  0  0  0  0  0  0  0
  188.4670  174.4040  139.7370 C   0  0  0  0  0  3  0  0  0  0  0  0
  191.1290  172.2280  137.9720 C   0  0  0  0  0  2  0  0  0  0  0  0
  192.5900  172.4460  138.3480 C   0  0  0  0  0  2  0  0  0  0  0  0
  192.8990  173.8600  136.4100 O   0  0  0  0  0  1  0  0  0  0  0  0
  193.1430  173.7540  137.7790 C   0  0  2  0  0  3  0  0  0  0  0  0
  194.6270  173.9990  138.0890 C   0  0  1  0  0  3  0  0  0  0  0  0
  195.5190  173.7090  136.8770 C   0  0  1  0  0  3  0  0  0  0  0  0
  196.2400  174.8550  136.5470 O   0  0  0  0  0  1  0  0  0  0  0  0
  196.4990  172.5840  137.1650 C   0  0  0  0  0  2  0  0  0  0  0  0
  196.0950  171.8810  138.2970 O   0  0  0  0  0  0  0  0  0  0  0  0
  197.2060  171.1160  138.6560 C   0  0  0  0  0  1  0  0  0  0  0  0
  194.8470  175.3110  138.5390 O   0  0  0  0  0  0  0  0  0  0  0  0
  194.8860  175.2280  139.9350 C   0  0  0  0  0  2  0  0  0  0  0  0
  195.9790  174.2570  140.3770 C   0  0  1  0  0  3  0  0  0  0  0  0
  197.9380  174.8690  141.5960 O   0  0  0  0  0  1  0  0  0  0  0  0
  197.2930  174.9530  140.5130 C   0  0  0  0  0  0  0  0  0  0  0  0
  197.8130  175.7030  139.4650 O   0  0  0  0  0  0  0  0  0  0  0  0
  195.5940  173.5990  141.6910 C   0  0  0  0  0  2  0  0  0  0  0  0
  194.1080  173.2860  141.7100 C   0  0  0  0  0  2  0  0  0  0  0  0
  193.8720  171.7910  141.8430 C   0  0  0  0  0  2  0  0  0  0  0  0
  195.1860  171.0390  141.8590 C   0  0  0  0  0  1  0  0  0  0  0  0
  187.6790  175.1710  142.0200 C   0  0  0  0  0  2  0  0  0  0  0  0
  187.9530  176.6390  141.7050 C   0  0  0  0  0  2  0  0  0  0  0  0
  188.7160  177.3010  142.8380 C   0  0  0  0  0  2  0  0  0  0  0  0
  189.8280  176.3850  143.3340 C   0  0  0  0  0  2  0  0  0  0  0  0
  190.1250  176.5950  144.8220 C   0  0  2  0  0  0  0  0  0  0  0  0
  192.2310  176.5600  147.1130 O   0  0  0  0  0  1  0  0  0  0  0  0
  192.0320  176.2070  145.7710 C   0  0  2  0  0  0  0  0  0  0  0  0
  191.4280  177.3700  144.9940 C   0  0  0  0  0  2  0  0  0  0  0  0
  190.7260  175.4130  145.6050 C   0  0  2  0  0  3  0  0  0  0  0  0
  193.2830  175.6510  145.0620 C   0  0  1  0  0  3  0  0  0  0  0  0
  194.5510  176.3620  145.5010 C   0  0  2  0  0  3  0  0  0  0  0  0
  195.7170  176.4240  144.0970 S   0  0  0  0  0  1  0  0  0  0  0  0
  194.2210  174.9570  146.0310 C   0  0  2  0  0  3  0  0  0  0  0  0
  194.9250  173.8060  145.3260 C   0  0  0  0  0  2  0  0  0  0  0  0
  194.9440  171.4310  145.4680 O   0  0  0  0  0  1  0  0  0  0  0  0
  194.1050  172.5420  145.4970 C   0  0  0  0  0  2  0  0  0  0  0  0
  190.3650  173.0570  145.4230 O   0  0  0  0  0  1  0  0  0  0  0  0
  191.4100  173.9940  143.6170 O   0  0  0  0  0  0  0  0  0  0  0  0
  190.8260  174.0920  144.8780 C   0  0  0  0  0  0  0  0  0  0  0  0
  188.9580  177.2750  145.5510 C   0  0  0  0  0  2  0  0  0  0  0  0
  188.3150  176.3900  146.4250 O   0  0  0  0  0  0  0  0  0  0  0  0
  186.9790  176.8070  146.4460 C   0  0  0  0  0  2  0  0  0  0  0  0
  186.8810  178.2760  146.0470 C   0  0  0  0  0  2  0  0  0  0  0  0
  185.1550  179.0400  143.0540 C   0  0  0  0  0  2  0  0  0  0  0  0
  185.6360  178.5160  145.3280 N   0  0  0  0  0  0  0  0  0  0  0  0
  185.9310  179.4690  144.2700 C   0  0  0  0  0  2  0  0  0  0  0  0
  185.2750  177.2660  144.6650 C   0  0  0  0  0  2  0  0  0  0  0  0
  185.0270  177.5440  143.1870 C   0  0  0  0  0  2  0  0  0  0  0  0
  2  9  1  0  0  0  0
  2  8  1  0  0  0  0
  3  5  2  0  0  0  0
  4  9  1  0  0  0  0
  4 32  1  1  0  0  0
  5  2  2  0  0  0  0
  6 10  1  0  0  0  0
  7  9  1  0  0  0  0
  9  1  1  0  0  0  0
 10  3  1  0  0  0  0
 10 11  2  0  0  0  0
 11  4  1  0  0  0  0
 12 13  1  0  0  0  0
 12  3  1  0  0  0  0
 15 14  1  6  0  0  0
 15 16  1  0  0  0  0
 15 13  1  0  0  0  0
 16 22  1  6  0  0  0
 17 18  1  1  0  0  0
 17 19  1  0  0  0  0
 17 16  1  0  0  0  0
 19 20  1  0  0  0  0
 20 21  1  0  0  0  0
 22 23  1  0  0  0  0
 24 23  1  1  0  0  0
 24 26  1  0  0  0  0
 24 28  1  0  0  0  0
 26 25  1  0  0  0  0
 27 26  2  0  0  0  0
 28 29  1  0  0  0  0
 29 30  1  0  0  0  0
 30 31  1  0  0  0  0
 33 32  1  0  0  0  0
 33 34  1  0  0  0  0
 34 35  1  0  0  0  0
 36 35  1  6  0  0  0
 36 39  1  0  0  0  0
 36 51  1  0  0  0  0
 36 40  1  0  0  0  0
 38 37  1  1  0  0  0
 39 38  1  0  0  0  0
 40 50  1  6  0  0  0
 40 38  1  0  0  0  0
 41 42  1  0  0  0  0
 41 38  1  1  0  0  0
 41 44  1  0  0  0  0
 42 43  1  6  0  0  0
 42 44  1  0  0  0  0
 44 45  1  6  0  0  0
 45 47  1  0  0  0  0
 46 47  1  0  0  0  0
 49 50  2  0  0  0  0
 50 48  1  0  0  0  0
 51 52  1  0  0  0  0
 52 53  1  0  0  0  0
 54 53  1  0  0  0  0
 55 59  1  0  0  0  0
 55 57  1  0  0  0  0
 56 54  1  0  0  0  0
 57 56  1  0  0  0  0
 58 56  1  0  0  0  0
 59 58  1  0  0  0  0
M  END
>  <MODEL>
1

>  <REMARK>
 VINA RESULT:      -4.9      0.000      0.000
  Name = 
  28 active torsions:
  status: ('A' for Active; 'I' for Inactive)
    1  A    between atoms: C_5  and  C_19
    2  A    between atoms: C_6  and  C_10
    3  A    between atoms: C_7  and  C_26
    4  A    between atoms: C_7  and  C_42
    5  A    between atoms: C_9  and  C_13
    6  A    between atoms: C_9  and  C_49
    7  A    between atoms: C_10  and  C_32
    8  A    between atoms: C_12  and  C_38
    9  A    between atoms: C_12  and  C_52
   10  A    between atoms: C_13  and  C_47
   11  A    between atoms: N_14  and  C_46
   12  A    between atoms: O_16  and  C_20
   13  A    between atoms: C_19  and  C_41
   14  A    between atoms: C_20  and  C_24
   15  A    between atoms: C_21  and  C_25
   16  A    between atoms: C_21  and  C_26
   17  A    between atoms: C_21  and  C_56
   18  A    between atoms: C_24  and  C_35
   19  A    between atoms: C_27  and  C_44
   20  A    between atoms: C_28  and  C_46
   21  A    between atoms: C_28  and  O_57
   22  A    between atoms: C_32  and  C_49
   23  A    between atoms: C_35  and  O_37
   24  A    between atoms: C_35  and  C_51
   25  A    between atoms: O_37  and  C_56
   26  A    between atoms: C_41  and  C_51
   27  A    between atoms: C_47  and  O_57
   28  A    between atoms: C_58  and  C_59
                            x       y       z     vdW  Elec       q    Type
                         _______ _______ _______ _____ _____    ______ ____

>  <TORSDO>
F 28

$$$$
=
 OpenBabel11062422343D

 59 62  0  0  1  0  0  0  0  0999 V2000
  191.3170  172.1800  144.8180 F   0  0  0  0  0  0  0  0  0  0  0  0
  189.5770  172.9430  143.4320 C   0  0  0  0  0  0  0  0  0  0  0  0
  189.1000  175.1080  142.1930 C   0  0  0  0  0  0  0  0  0  0  0  0
  191.6410  174.3620  143.8350 C   0  0  1  0  0  3  0  0  0  0  0  0
  189.1670  173.9170  142.6920 C   0  0  0  0  0  0  0  0  0  0  0  0
  189.7110  177.8190  142.5780 Cl  0  0  0  0  0  0  0  0  0  0  0  0
  190.0220  173.8690  145.5550 F   0  0  0  0  0  0  0  0  0  0  0  0
  189.3440  171.6530  143.0800 F   0  0  0  0  0  0  0  0  0  0  0  0
  190.6360  173.3260  144.4380 C   0  0  0  0  0  0  0  0  0  0  0  0
  190.0290  176.1060  142.7950 C   0  0  0  0  0  0  0  0  0  0  0  0
  191.1040  175.7690  143.5480 C   0  0  0  0  0  3  0  0  0  0  0  0
  188.0100  175.4910  141.2490 C   0  0  0  0  0  2  0  0  0  0  0  0
  186.8830  176.2090  141.9830 C   0  0  0  0  0  2  0  0  0  0  0  0
  187.2260  177.8980  140.2840 O   0  0  0  0  0  1  0  0  0  0  0  0
  186.2810  177.3420  141.1480 C   0  0  2  0  0  3  0  0  0  0  0  0
  185.5890  178.4360  141.9750 C   0  0  1  0  0  3  0  0  0  0  0  0
  184.2190  178.8080  141.3990 C   0  0  1  0  0  3  0  0  0  0  0  0
  184.2220  178.5950  140.0230 O   0  0  0  0  0  1  0  0  0  0  0  0
  183.1110  177.9720  142.0180 C   0  0  0  0  0  2  0  0  0  0  0  0
  182.0360  177.8810  141.1370 O   0  0  0  0  0  0  0  0  0  0  0  0
  181.0530  178.7020  141.6900 C   0  0  0  0  0  1  0  0  0  0  0  0
  185.4530  178.0520  143.3190 O   0  0  0  0  0  0  0  0  0  0  0  0
  185.8270  179.1720  144.0700 C   0  0  0  0  0  2  0  0  0  0  0  0
  186.1850  178.7580  145.4950 C   0  0  1  0  0  3  0  0  0  0  0  0
  183.8470  178.9690  145.9260 O   0  0  0  0  0  0  0  0  0  0  0  0
  184.9560  178.4970  146.3030 C   0  0  0  0  0  0  0  0  0  0  0  0
  185.0180  177.7510  147.4740 O   0  0  0  0  0  1  0  0  0  0  0  0
  187.0730  177.5250  145.4750 C   0  0  0  0  0  2  0  0  0  0  0  0
  188.0460  177.5560  146.6410 C   0  0  0  0  0  2  0  0  0  0  0  0
  189.3180  176.7970  146.3050 C   0  0  0  0  0  2  0  0  0  0  0  0
  190.3500  176.9660  147.4000 C   0  0  0  0  0  1  0  0  0  0  0  0
  192.9700  174.4090  144.5920 C   0  0  0  0  0  2  0  0  0  0  0  0
  193.8760  175.5590  144.1600 C   0  0  0  0  0  2  0  0  0  0  0  0
  195.1160  175.0350  143.4580 C   0  0  0  0  0  2  0  0  0  0  0  0
  194.7550  173.8700  142.5440 C   0  0  0  0  0  2  0  0  0  0  0  0
  195.5700  172.6140  142.8650 C   0  0  2  0  0  0  0  0  0  0  0  0
  196.7230  169.9010  141.8640 O   0  0  0  0  0  1  0  0  0  0  0  0
  195.8490  170.9410  141.5190 C   0  0  2  0  0  0  0  0  0  0  0  0
  196.5190  172.2950  141.7140 C   0  0  0  0  0  2  0  0  0  0  0  0
  194.8840  171.2480  142.6760 C   0  0  2  0  0  3  0  0  0  0  0  0
  195.2340  170.8190  140.1100 C   0  0  1  0  0  3  0  0  0  0  0  0
  196.2910  170.5950  139.0430 C   0  0  2  0  0  3  0  0  0  0  0  0
  195.7530  171.3920  137.4920 S   0  0  0  0  0  1  0  0  0  0  0  0
  195.4150  169.4290  139.5310 C   0  0  2  0  0  3  0  0  0  0  0  0
  194.2270  169.0840  138.6460 C   0  0  0  0  0  2  0  0  0  0  0  0
  192.2200  168.1730  139.5420 O   0  0  0  0  0  1  0  0  0  0  0  0
  192.9440  169.3550  139.4070 C   0  0  0  0  0  2  0  0  0  0  0  0
  192.6550  170.4060  142.8640 O   0  0  0  0  0  1  0  0  0  0  0  0
  192.8680  172.2080  141.4730 O   0  0  0  0  0  0  0  0  0  0  0  0
  193.4100  171.2640  142.3410 C   0  0  0  0  0  0  0  0  0  0  0  0
  196.3170  172.7370  144.2000 C   0  0  0  0  0  2  0  0  0  0  0  0
  195.6470  172.0600  145.2260 O   0  0  0  0  0  0  0  0  0  0  0  0
  196.6600  171.5010  146.0140 C   0  0  0  0  0  2  0  0  0  0  0  0
  197.3080  170.3290  145.2840 C   0  0  0  0  0  2  0  0  0  0  0  0
  195.3550  168.5440  147.6340 C   0  0  0  0  0  2  0  0  0  0  0  0
  196.8880  169.0710  145.8870 N   0  0  0  0  0  0  0  0  0  0  0  0
  196.5780  169.3460  147.2800 C   0  0  0  0  0  2  0  0  0  0  0  0
  195.6270  168.6910  145.2540 C   0  0  0  0  0  2  0  0  0  0  0  0
  194.5930  168.4130  146.3390 C   0  0  0  0  0  2  0  0  0  0  0  0
  2  9  1  0  0  0  0
  3  5  2  0  0  0  0
  3 10  1  0  0  0  0
  4  9  1  0  0  0  0
  4 32  1  1  0  0  0
  5  2  2  0  0  0  0
  6 10  1  0  0  0  0
  8  2  1  0  0  0  0
  9  1  1  0  0  0  0
  9  7  1  0  0  0  0
 10 11  2  0  0  0  0
 11  4  1  0  0  0  0
 12 13  1  0  0  0  0
 12  3  1  0  0  0  0
 15 14  1  1  0  0  0
 15 16  1  0  0  0  0
 15 13  1  0  0  0  0
 16 22  1  1  0  0  0
 17 18  1  6  0  0  0
 17 16  1  0  0  0  0
 17 19  1  0  0  0  0
 20 21  1  0  0  0  0
 20 19  1  0  0  0  0
 22 23  1  0  0  0  0
 24 23  1  6  0  0  0
 24 26  1  0  0  0  0
 25 26  2  0  0  0  0
 26 27  1  0  0  0  0
 28 24  1  0  0  0  0
 28 29  1  0  0  0  0
 30 29  1  0  0  0  0
 30 31  1  0  0  0  0
 33 32  1  0  0  0  0
 34 33  1  0  0  0  0
 35 34  1  0  0  0  0
 36 35  1  6  0  0  0
 36 51  1  0  0  0  0
 38 39  1  0  0  0  0
 38 37  1  1  0  0  0
 38 40  1  0  0  0  0
 39 36  1  0  0  0  0
 40 50  1  6  0  0  0
 40 36  1  0  0  0  0
 41 38  1  1  0  0  0
 42 43  1  6  0  0  0
 42 44  1  0  0  0  0
 42 41  1  0  0  0  0
 44 45  1  6  0  0  0
 44 41  1  0  0  0  0
 45 47  1  0  0  0  0
 47 46  1  0  0  0  0
 49 50  2  0  0  0  0
 50 48  1  0  0  0  0
 51 52  1  0  0  0  0
 52 53  1  0  0  0  0
 54 56  1  0  0  0  0
 54 53  1  0  0  0  0
 56 57  1  0  0  0  0
 57 55  1  0  0  0  0
 58 56  1  0  0  0  0
 58 59  1  0  0  0  0
 59 55  1  0  0  0  0
M  END
>  <MODEL>
2

>  <REMARK>
 VINA RESULT:      -4.5      3.844      9.652
  Name = 
  28 active torsions:
  status: ('A' for Active; 'I' for Inactive)
    1  A    between atoms: C_5  and  C_19
    2  A    between atoms: C_6  and  C_10
    3  A    between atoms: C_7  and  C_26
    4  A    between atoms: C_7  and  C_42
    5  A    between atoms: C_9  and  C_13
    6  A    between atoms: C_9  and  C_49
    7  A    between atoms: C_10  and  C_32
    8  A    between atoms: C_12  and  C_38
    9  A    between atoms: C_12  and  C_52
   10  A    between atoms: C_13  and  C_47
   11  A    between atoms: N_14  and  C_46
   12  A    between atoms: O_16  and  C_20
   13  A    between atoms: C_19  and  C_41
   14  A    between atoms: C_20  and  C_24
   15  A    between atoms: C_21  and  C_25
   16  A    between atoms: C_21  and  C_26
   17  A    between atoms: C_21  and  C_56
   18  A    between atoms: C_24  and  C_35
   19  A    between atoms: C_27  and  C_44
   20  A    between atoms: C_28  and  C_46
   21  A    between atoms: C_28  and  O_57
   22  A    between atoms: C_32  and  C_49
   23  A    between atoms: C_35  and  O_37
   24  A    between atoms: C_35  and  C_51
   25  A    between atoms: O_37  and  C_56
   26  A    between atoms: C_41  and  C_51
   27  A    between atoms: C_47  and  O_57
   28  A    between atoms: C_58  and  C_59
                            x       y       z     vdW  Elec       q    Type
                         _______ _______ _______ _____ _____    ______ ____

>  <TORSDO>
F 28

$$$$
=
 OpenBabel11062422343D

 59 62  0  0  1  0  0  0  0  0999 V2000
  188.7810  174.2850  143.3250 F   0  0  0  0  0  0  0  0  0  0  0  0
  189.0700  173.1630  141.2780 C   0  0  0  0  0  0  0  0  0  0  0  0
  188.6890  173.7670  138.8410 C   0  0  0  0  0  0  0  0  0  0  0  0
  188.3550  175.5960  141.3420 C   0  0  1  0  0  3  0  0  0  0  0  0
  189.0010  173.2740  139.9950 C   0  0  0  0  0  0  0  0  0  0  0  0
  186.9380  175.4530  137.4400 Cl  0  0  0  0  0  0  0  0  0  0  0  0
  186.9520  173.7890  142.1080 F   0  0  0  0  0  0  0  0  0  0  0  0
  190.0470  172.4260  141.8640 F   0  0  0  0  0  0  0  0  0  0  0  0
  188.2750  174.1980  142.0380 C   0  0  0  0  0  0  0  0  0  0  0  0
  187.8280  174.9830  138.8790 C   0  0  0  0  0  0  0  0  0  0  0  0
  187.6530  175.7430  139.9870 C   0  0  0  0  0  3  0  0  0  0  0  0
  188.9840  173.0300  137.5780 C   0  0  0  0  0  2  0  0  0  0  0  0
  189.7500  171.7440  137.8660 C   0  0  0  0  0  2  0  0  0  0  0  0
  190.3220  170.1050  136.1810 O   0  0  0  0  0  1  0  0  0  0  0  0
  190.6700  171.3490  136.7080 C   0  0  2  0  0  3  0  0  0  0  0  0
  192.1680  171.3980  137.0470 C   0  0  1  0  0  3  0  0  0  0  0  0
  192.7550  169.9970  137.2450 C   0  0  1  0  0  3  0  0  0  0  0  0
  193.6730  169.7330  136.2310 O   0  0  0  0  0  1  0  0  0  0  0  0
  193.4610  169.8750  138.5850 C   0  0  0  0  0  2  0  0  0  0  0  0
  194.7290  169.3270  138.4060 O   0  0  0  0  0  0  0  0  0  0  0  0
  195.5900  170.1970  139.0760 C   0  0  0  0  0  1  0  0  0  0  0  0
  192.8930  172.0840  136.0600 O   0  0  0  0  0  0  0  0  0  0  0  0
  193.6920  173.0030  136.7500 C   0  0  0  0  0  2  0  0  0  0  0  0
  192.8220  174.0770  137.3990 C   0  0  1  0  0  3  0  0  0  0  0  0
  193.8930  175.0090  139.3170 O   0  0  0  0  0  0  0  0  0  0  0  0
  193.0750  174.1580  138.8680 C   0  0  0  0  0  0  0  0  0  0  0  0
  192.4280  173.3010  139.7500 O   0  0  0  0  0  1  0  0  0  0  0  0
  193.0800  175.4240  136.7460 C   0  0  0  0  0  2  0  0  0  0  0  0
  193.3340  175.2500  135.2580 C   0  0  0  0  0  2  0  0  0  0  0  0
  193.1000  176.5530  134.5130 C   0  0  0  0  0  2  0  0  0  0  0  0
  193.1520  177.7320  135.4630 C   0  0  0  0  0  1  0  0  0  0  0  0
  188.0070  176.7490  142.2860 C   0  0  0  0  0  2  0  0  0  0  0  0
  189.0370  177.8760  142.2760 C   0  0  0  0  0  2  0  0  0  0  0  0
  189.8390  177.8870  143.5640 C   0  0  0  0  0  2  0  0  0  0  0  0
  190.8840  176.7780  143.5470 C   0  0  0  0  0  2  0  0  0  0  0  0
  191.5040  176.5500  144.9290 C   0  0  2  0  0  0  0  0  0  0  0  0
  194.0250  175.7840  146.5860 O   0  0  0  0  0  1  0  0  0  0  0  0
  193.5150  175.8310  145.2810 C   0  0  2  0  0  0  0  0  0  0  0  0
  192.8880  177.1890  144.9970 C   0  0  0  0  0  2  0  0  0  0  0  0
  192.1280  175.1710  145.2150 C   0  0  2  0  0  3  0  0  0  0  0  0
  194.5270  175.4420  144.1840 C   0  0  1  0  0  3  0  0  0  0  0  0
  195.9100  176.0040  144.4590 C   0  0  2  0  0  3  0  0  0  0  0  0
  196.7270  176.3840  142.8710 S   0  0  0  0  0  1  0  0  0  0  0  0
  195.6080  174.5180  144.7130 C   0  0  2  0  0  3  0  0  0  0  0  0
  196.0450  173.5600  143.6140 C   0  0  0  0  0  2  0  0  0  0  0  0
  194.7560  172.0300  144.9020 O   0  0  0  0  0  1  0  0  0  0  0  0
  195.1150  172.3630  143.5980 C   0  0  0  0  0  2  0  0  0  0  0  0
  191.4950  172.9780  144.5070 O   0  0  0  0  0  1  0  0  0  0  0  0
  192.2310  174.3370  142.8220 O   0  0  0  0  0  0  0  0  0  0  0  0
  191.9370  174.1030  144.1630 C   0  0  0  0  0  0  0  0  0  0  0  0
  190.5920  177.0480  146.0580 C   0  0  0  0  0  2  0  0  0  0  0  0
  189.9200  175.9880  146.6800 O   0  0  0  0  0  0  0  0  0  0  0  0
  188.6830  176.5170  147.0630 C   0  0  0  0  0  2  0  0  0  0  0  0
  187.6530  176.2980  145.9590 C   0  0  0  0  0  2  0  0  0  0  0  0
  185.7750  179.0540  147.1410 C   0  0  0  0  0  2  0  0  0  0  0  0
  186.3780  176.8930  146.3390 N   0  0  0  0  0  0  0  0  0  0  0  0
  186.6530  177.8580  147.3910 C   0  0  0  0  0  2  0  0  0  0  0  0
  185.9030  177.6620  145.1910 C   0  0  0  0  0  2  0  0  0  0  0  0
  185.5720  179.0770  145.6470 C   0  0  0  0  0  2  0  0  0  0  0  0
  2  8  1  0  0  0  0
  2  9  1  0  0  0  0
  3 10  1  0  0  0  0
  3  5  2  0  0  0  0
  4  9  1  0  0  0  0
  4 32  1  1  0  0  0
  5  2  2  0  0  0  0
  6 10  1  0  0  0  0
  9  7  1  0  0  0  0
  9  1  1  0  0  0  0
 10 11  2  0  0  0  0
 11  4  1  0  0  0  0
 12 13  1  0  0  0  0
 12  3  1  0  0  0  0
 15 14  1  1  0  0  0
 15 16  1  0  0  0  0
 15 13  1  0  0  0  0
 16 22  1  6  0  0  0
 16 17  1  0  0  0  0
 17 18  1  6  0  0  0
 17 19  1  0  0  0  0
 20 19  1  0  0  0  0
 20 21  1  0  0  0  0
 22 23  1  0  0  0  0
 23 24  1  0  0  0  0
 24 28  1  6  0  0  0
 24 26  1  0  0  0  0
 26 25  2  0  0  0  0
 26 27  1  0  0  0  0
 29 28  1  0  0  0  0
 30 29  1  0  0  0  0
 30 31  1  0  0  0  0
 33 32  1  0  0  0  0
 33 34  1  0  0  0  0
 35 34  1  0  0  0  0
 36 35  1  6  0  0  0
 36 39  1  0  0  0  0
 36 40  1  0  0  0  0
 36 51  1  0  0  0  0
 38 37  1  1  0  0  0
 39 38  1  0  0  0  0
 40 50  1  6  0  0  0
 40 38  1  0  0  0  0
 41 42  1  0  0  0  0
 41 44  1  0  0  0  0
 41 38  1  1  0  0  0
 42 43  1  6  0  0  0
 42 44  1  0  0  0  0
 44 45  1  6  0  0  0
 47 45  1  0  0  0  0
 47 46  1  0  0  0  0
 49 50  2  0  0  0  0
 50 48  1  0  0  0  0
 51 52  1  0  0  0  0
 52 53  1  0  0  0  0
 54 56  1  0  0  0  0
 54 53  1  0  0  0  0
 55 57  1  0  0  0  0
 56 57  1  0  0  0  0
 58 59  1  0  0  0  0
 58 56  1  0  0  0  0
 59 55  1  0  0  0  0
M  END
>  <MODEL>
3

>  <REMARK>
 VINA RESULT:      -4.3      1.943      3.356
  Name = 
  28 active torsions:
  status: ('A' for Active; 'I' for Inactive)
    1  A    between atoms: C_5  and  C_19
    2  A    between atoms: C_6  and  C_10
    3  A    between atoms: C_7  and  C_26
    4  A    between atoms: C_7  and  C_42
    5  A    between atoms: C_9  and  C_13
    6  A    between atoms: C_9  and  C_49
    7  A    between atoms: C_10  and  C_32
    8  A    between atoms: C_12  and  C_38
    9  A    between atoms: C_12  and  C_52
   10  A    between atoms: C_13  and  C_47
   11  A    between atoms: N_14  and  C_46
   12  A    between atoms: O_16  and  C_20
   13  A    between atoms: C_19  and  C_41
   14  A    between atoms: C_20  and  C_24
   15  A    between atoms: C_21  and  C_25
   16  A    between atoms: C_21  and  C_26
   17  A    between atoms: C_21  and  C_56
   18  A    between atoms: C_24  and  C_35
   19  A    between atoms: C_27  and  C_44
   20  A    between atoms: C_28  and  C_46
   21  A    between atoms: C_28  and  O_57
   22  A    between atoms: C_32  and  C_49
   23  A    between atoms: C_35  and  O_37
   24  A    between atoms: C_35  and  C_51
   25  A    between atoms: O_37  and  C_56
   26  A    between atoms: C_41  and  C_51
   27  A    between atoms: C_47  and  O_57
   28  A    between atoms: C_58  and  C_59
                            x       y       z     vdW  Elec       q    Type
                         _______ _______ _______ _____ _____    ______ ____

>  <TORSDO>
F 28

$$$$
=
 OpenBabel11062422343D

 59 62  0  0  1  0  0  0  0  0999 V2000
  192.6290  177.8230  141.9200 F   0  0  0  0  0  0  0  0  0  0  0  0
  191.4570  177.7800  143.9580 C   0  0  0  0  0  0  0  0  0  0  0  0
  191.6220  176.4000  146.0840 C   0  0  0  0  0  0  0  0  0  0  0  0
  193.4870  176.3050  143.5900 C   0  0  1  0  0  3  0  0  0  0  0  0
  191.3950  177.2420  145.1290 C   0  0  0  0  0  0  0  0  0  0  0  0
  192.4370  173.7930  146.7280 Cl  0  0  0  0  0  0  0  0  0  0  0  0
  191.4040  175.9990  142.4120 F   0  0  0  0  0  0  0  0  0  0  0  0
  191.1700  179.0940  143.7770 F   0  0  0  0  0  0  0  0  0  0  0  0
  192.2320  176.9760  142.9420 C   0  0  0  0  0  0  0  0  0  0  0  0
  192.4640  175.2270  145.7140 C   0  0  0  0  0  0  0  0  0  0  0  0
  193.2340  175.1800  144.6000 C   0  0  0  0  0  3  0  0  0  0  0  0
  190.8970  176.4900  147.3850 C   0  0  0  0  0  2  0  0  0  0  0  0
  189.5540  177.1910  147.2110 C   0  0  0  0  0  2  0  0  0  0  0  0
  188.8440  174.8930  146.9530 O   0  0  0  0  0  1  0  0  0  0  0  0
  188.3910  176.1990  147.1420 C   0  0  2  0  0  3  0  0  0  0  0  0
  187.3160  176.5580  146.1050 C   0  0  1  0  0  3  0  0  0  0  0  0
  186.0240  177.0480  146.7660 C   0  0  1  0  0  3  0  0  0  0  0  0
  186.1920  177.0730  148.1490 O   0  0  0  0  0  1  0  0  0  0  0  0
  185.6540  178.4450  146.2960 C   0  0  0  0  0  2  0  0  0  0  0  0
  184.2720  178.5490  146.1580 O   0  0  0  0  0  0  0  0  0  0  0  0
  184.0770  178.9890  144.8480 C   0  0  0  0  0  1  0  0  0  0  0  0
  187.7820  177.5230  145.1970 O   0  0  0  0  0  0  0  0  0  0  0  0
  188.0480  176.8270  144.0120 C   0  0  0  0  0  2  0  0  0  0  0  0
  186.8480  176.9060  143.0720 C   0  0  1  0  0  3  0  0  0  0  0  0
  188.0980  178.3380  141.6280 O   0  0  0  0  0  0  0  0  0  0  0  0
  186.9740  178.0630  142.1360 C   0  0  0  0  0  0  0  0  0  0  0  0
  185.8730  178.8500  141.8230 O   0  0  0  0  0  1  0  0  0  0  0  0
  186.7090  175.6110  142.2910 C   0  0  0  0  0  2  0  0  0  0  0  0
  188.0340  174.8690  142.2580 C   0  0  0  0  0  2  0  0  0  0  0  0
  188.4810  174.6220  140.8260 C   0  0  0  0  0  2  0  0  0  0  0  0
  189.8270  173.9280  140.7960 C   0  0  0  0  0  1  0  0  0  0  0  0
  194.5470  175.9090  142.5590 C   0  0  0  0  0  2  0  0  0  0  0  0
  194.1150  174.7590  141.6530 C   0  0  0  0  0  2  0  0  0  0  0  0
  194.8140  173.4700  142.0460 C   0  0  0  0  0  2  0  0  0  0  0  0
  194.3810  172.3310  141.1310 C   0  0  0  0  0  2  0  0  0  0  0  0
  193.4950  171.3150  141.8570 C   0  0  2  0  0  0  0  0  0  0  0  0
  193.0360  169.5620  144.3890 O   0  0  0  0  0  1  0  0  0  0  0  0
  193.9790  170.3780  143.7480 C   0  0  2  0  0  0  0  0  0  0  0  0
  193.3500  171.6990  143.3270 C   0  0  0  0  0  2  0  0  0  0  0  0
  194.1330  169.9760  142.2720 C   0  0  2  0  0  3  0  0  0  0  0  0
  195.2770  170.6070  144.5500 C   0  0  1  0  0  3  0  0  0  0  0  0
  195.2050  171.8590  145.4060 C   0  0  2  0  0  3  0  0  0  0  0  0
  196.8700  172.6000  145.5190 S   0  0  0  0  0  1  0  0  0  0  0  0
  195.0510  170.4670  146.0440 C   0  0  2  0  0  3  0  0  0  0  0  0
  196.3030  169.9020  146.6990 C   0  0  0  0  0  2  0  0  0  0  0  0
  194.6130  168.2970  147.1770 O   0  0  0  0  0  1  0  0  0  0  0  0
  195.9670  168.5740  147.3480 C   0  0  0  0  0  2  0  0  0  0  0  0
  196.1580  168.7080  142.2250 O   0  0  0  0  0  1  0  0  0  0  0  0
  196.1650  170.5450  140.8640 O   0  0  0  0  0  0  0  0  0  0  0  0
  195.5400  169.7110  141.7880 C   0  0  0  0  0  0  0  0  0  0  0  0
  192.1300  171.1510  141.1760 C   0  0  0  0  0  2  0  0  0  0  0  0
  192.1560  171.6220  139.8570 O   0  0  0  0  0  0  0  0  0  0  0  0
  191.2380  170.8220  139.1680 C   0  0  0  0  0  2  0  0  0  0  0  0
  191.1560  169.4420  139.8110 C   0  0  0  0  0  2  0  0  0  0  0  0
  192.4910  168.5130  136.6680 C   0  0  0  0  0  2  0  0  0  0  0  0
  191.5190  168.4160  138.8420 N   0  0  0  0  0  0  0  0  0  0  0  0
  191.3480  168.9960  137.5200 C   0  0  0  0  0  2  0  0  0  0  0  0
  192.9500  168.1660  138.9980 C   0  0  0  0  0  2  0  0  0  0  0  0
  193.6250  168.2890  137.6370 C   0  0  0  0  0  2  0  0  0  0  0  0
  1  9  1  0  0  0  0
  2  5  2  0  0  0  0
  3 12  1  0  0  0  0
  4 32  1  6  0  0  0
  4 11  1  0  0  0  0
  5  3  2  0  0  0  0
  7  9  1  0  0  0  0
  8  2  1  0  0  0  0
  9  4  1  0  0  0  0
  9  2  1  0  0  0  0
 10  3  1  0  0  0  0
 10  6  1  0  0  0  0
 11 10  2  0  0  0  0
 13 12  1  0  0  0  0
 15 14  1  6  0  0  0
 15 13  1  0  0  0  0
 16 22  1  6  0  0  0
 16 17  1  0  0  0  0
 16 15  1  0  0  0  0
 17 18  1  1  0  0  0
 19 17  1  0  0  0  0
 20 19  1  0  0  0  0
 21 20  1  0  0  0  0
 23 22  1  0  0  0  0
 24 28  1  6  0  0  0
 24 23  1  0  0  0  0
 25 26  2  0  0  0  0
 26 24  1  0  0  0  0
 27 26  1  0  0  0  0
 29 28  1  0  0  0  0
 30 29  1  0  0  0  0
 31 30  1  0  0  0  0
 33 34  1  0  0  0  0
 33 32  1  0  0  0  0
 35 34  1  0  0  0  0
 36 35  1  6  0  0  0
 36 40  1  0  0  0  0
 36 39  1  0  0  0  0
 38 37  1  1  0  0  0
 39 38  1  0  0  0  0
 40 50  1  6  0  0  0
 40 38  1  0  0  0  0
 41 38  1  6  0  0  0
 41 42  1  0  0  0  0
 41 44  1  0  0  0  0
 42 43  1  1  0  0  0
 42 44  1  0  0  0  0
 44 45  1  1  0  0  0
 45 47  1  0  0  0  0
 46 47  1  0  0  0  0
 49 50  2  0  0  0  0
 50 48  1  0  0  0  0
 51 36  1  0  0  0  0
 52 51  1  0  0  0  0
 53 54  1  0  0  0  0
 53 52  1  0  0  0  0
 55 57  1  0  0  0  0
 55 59  1  0  0  0  0
 56 58  1  0  0  0  0
 56 54  1  0  0  0  0
 57 56  1  0  0  0  0
 59 58  1  0  0  0  0
M  END
>  <MODEL>
4

>  <REMARK>
 VINA RESULT:      -3.8      3.615      9.437
  Name = 
  28 active torsions:
  status: ('A' for Active; 'I' for Inactive)
    1  A    between atoms: C_5  and  C_19
    2  A    between atoms: C_6  and  C_10
    3  A    between atoms: C_7  and  C_26
    4  A    between atoms: C_7  and  C_42
    5  A    between atoms: C_9  and  C_13
    6  A    between atoms: C_9  and  C_49
    7  A    between atoms: C_10  and  C_32
    8  A    between atoms: C_12  and  C_38
    9  A    between atoms: C_12  and  C_52
   10  A    between atoms: C_13  and  C_47
   11  A    between atoms: N_14  and  C_46
   12  A    between atoms: O_16  and  C_20
   13  A    between atoms: C_19  and  C_41
   14  A    between atoms: C_20  and  C_24
   15  A    between atoms: C_21  and  C_25
   16  A    between atoms: C_21  and  C_26
   17  A    between atoms: C_21  and  C_56
   18  A    between atoms: C_24  and  C_35
   19  A    between atoms: C_27  and  C_44
   20  A    between atoms: C_28  and  C_46
   21  A    between atoms: C_28  and  O_57
   22  A    between atoms: C_32  and  C_49
   23  A    between atoms: C_35  and  O_37
   24  A    between atoms: C_35  and  C_51
   25  A    between atoms: O_37  and  C_56
   26  A    between atoms: C_41  and  C_51
   27  A    between atoms: C_47  and  O_57
   28  A    between atoms: C_58  and  C_59
                            x       y       z     vdW  Elec       q    Type
                         _______ _______ _______ _____ _____    ______ ____

>  <TORSDO>
F 28

$$$$
=
 OpenBabel11062422343D

 59 62  0  0  1  0  0  0  0  0999 V2000
  188.4520  174.4040  143.2010 F   0  0  0  0  0  0  0  0  0  0  0  0
  189.2020  172.9720  141.4920 C   0  0  0  0  0  0  0  0  0  0  0  0
  189.2620  173.0960  138.9560 C   0  0  0  0  0  0  0  0  0  0  0  0
  188.3360  175.2960  140.9590 C   0  0  1  0  0  3  0  0  0  0  0  0
  189.3750  172.8470  140.2200 C   0  0  0  0  0  0  0  0  0  0  0  0
  187.7110  174.3280  136.9680 Cl  0  0  0  0  0  0  0  0  0  0  0  0
  186.9290  173.5240  141.7950 F   0  0  0  0  0  0  0  0  0  0  0  0
  190.0920  172.4500  142.3730 F   0  0  0  0  0  0  0  0  0  0  0  0
  188.2110  174.0420  141.8850 C   0  0  0  0  0  0  0  0  0  0  0  0
  188.3340  174.2090  138.6060 C   0  0  0  0  0  0  0  0  0  0  0  0
  187.9010  175.1320  139.4990 C   0  0  0  0  0  3  0  0  0  0  0  0
  189.8410  172.1800  137.9310 C   0  0  0  0  0  2  0  0  0  0  0  0
  189.7410  170.7270  138.3820 C   0  0  0  0  0  2  0  0  0  0  0  0
  191.0330  168.6960  138.1500 O   0  0  0  0  0  1  0  0  0  0  0  0
  191.1120  170.0530  138.4650 C   0  0  2  0  0  3  0  0  0  0  0  0
  191.8380  170.2610  139.8020 C   0  0  1  0  0  3  0  0  0  0  0  0
  191.6290  169.0810  140.7560 C   0  0  1  0  0  3  0  0  0  0  0  0
  192.6950  168.1930  140.6370 O   0  0  0  0  0  1  0  0  0  0  0  0
  191.5400  169.5440  142.2010 C   0  0  0  0  0  2  0  0  0  0  0  0
  192.8160  169.6150  142.7560 O   0  0  0  0  0  0  0  0  0  0  0  0
  192.8300  170.8210  143.4590 C   0  0  0  0  0  1  0  0  0  0  0  0
  193.2120  170.4800  139.6100 O   0  0  0  0  0  0  0  0  0  0  0  0
  193.4280  171.8250  139.9310 C   0  0  0  0  0  2  0  0  0  0  0  0
  193.2890  172.6950  138.6840 C   0  0  1  0  0  3  0  0  0  0  0  0
  193.6330  174.9910  138.1300 O   0  0  0  0  0  0  0  0  0  0  0  0
  193.9440  174.0220  138.8800 C   0  0  0  0  0  0  0  0  0  0  0  0
  194.9020  174.2050  139.8700 O   0  0  0  0  0  1  0  0  0  0  0  0
  193.8870  171.9850  137.4810 C   0  0  0  0  0  2  0  0  0  0  0  0
  195.3660  172.3090  137.3590 C   0  0  0  0  0  2  0  0  0  0  0  0
  196.2040  171.0420  137.4140 C   0  0  0  0  0  2  0  0  0  0  0  0
  197.6310  171.3590  137.8100 C   0  0  0  0  0  1  0  0  0  0  0  0
  187.7400  176.5580  141.5870 C   0  0  0  0  0  2  0  0  0  0  0  0
  188.7860  177.6100  141.9480 C   0  0  0  0  0  2  0  0  0  0  0  0
  189.2190  177.4670  143.3960 C   0  0  0  0  0  2  0  0  0  0  0  0
  190.6190  176.8700  143.4740 C   0  0  0  0  0  2  0  0  0  0  0  0
  191.1830  176.9110  144.8960 C   0  0  2  0  0  0  0  0  0  0  0  0
  193.6230  176.4400  146.7720 O   0  0  0  0  0  1  0  0  0  0  0  0
  193.1600  176.2340  145.4640 C   0  0  2  0  0  0  0  0  0  0  0  0
  192.5820  177.5200  144.8890 C   0  0  0  0  0  2  0  0  0  0  0  0
  191.7570  175.6050  145.4770 C   0  0  2  0  0  3  0  0  0  0  0  0
  194.1970  175.6110  144.5090 C   0  0  1  0  0  3  0  0  0  0  0  0
  195.6210  175.9470  144.9140 C   0  0  2  0  0  3  0  0  0  0  0  0
  196.6530  176.0820  143.4130 S   0  0  0  0  0  1  0  0  0  0  0  0
  195.0380  174.5530  145.1980 C   0  0  2  0  0  3  0  0  0  0  0  0
  195.4140  173.4670  144.1990 C   0  0  0  0  0  2  0  0  0  0  0  0
  196.9370  172.6550  145.8370 O   0  0  0  0  0  1  0  0  0  0  0  0
  195.9370  172.2590  144.9520 C   0  0  0  0  0  2  0  0  0  0  0  0
  191.8330  174.3840  143.4240 O   0  0  0  0  0  0  0  0  0  0  0  0
  191.1260  173.1610  145.2220 O   0  0  0  0  0  1  0  0  0  0  0  0
  191.5710  174.3510  144.6530 C   0  0  0  0  0  0  0  0  0  0  0  0
  190.2480  177.6460  145.8660 C   0  0  0  0  0  2  0  0  0  0  0  0
  189.5580  176.7480  146.6910 O   0  0  0  0  0  0  0  0  0  0  0  0
  188.2750  177.2900  146.8230 C   0  0  0  0  0  2  0  0  0  0  0  0
  187.2450  176.3650  146.1830 C   0  0  0  0  0  2  0  0  0  0  0  0
  185.0170  178.9620  147.0860 C   0  0  0  0  0  2  0  0  0  0  0  0
  185.8980  176.8300  146.4860 N   0  0  0  0  0  0  0  0  0  0  0  0
  186.0240  177.9070  147.4550 C   0  0  0  0  0  2  0  0  0  0  0  0
  185.3670  177.4370  145.2670 C   0  0  0  0  0  2  0  0  0  0  0  0
  184.8560  178.8350  145.5920 C   0  0  0  0  0  2  0  0  0  0  0  0
  2  9  1  0  0  0  0
  2  8  1  0  0  0  0
  3  5  2  0  0  0  0
  4 32  1  1  0  0  0
  4  9  1  0  0  0  0
  5  2  2  0  0  0  0
  6 10  1  0  0  0  0
  7  9  1  0  0  0  0
  9  1  1  0  0  0  0
 10  3  1  0  0  0  0
 10 11  2  0  0  0  0
 11  4  1  0  0  0  0
 12 13  1  0  0  0  0
 12  3  1  0  0  0  0
 13 15  1  0  0  0  0
 15 14  1  1  0  0  0
 15 16  1  0  0  0  0
 16 22  1  6  0  0  0
 16 17  1  0  0  0  0
 17 18  1  1  0  0  0
 17 19  1  0  0  0  0
 19 20  1  0  0  0  0
 20 21  1  0  0  0  0
 22 23  1  0  0  0  0
 24 28  1  6  0  0  0
 24 26  1  0  0  0  0
 24 23  1  0  0  0  0
 25 26  2  0  0  0  0
 26 27  1  0  0  0  0
 29 30  1  0  0  0  0
 29 28  1  0  0  0  0
 30 31  1  0  0  0  0
 32 33  1  0  0  0  0
 33 34  1  0  0  0  0
 34 35  1  0  0  0  0
 36 35  1  6  0  0  0
 36 40  1  0  0  0  0
 36 51  1  0  0  0  0
 38 40  1  0  0  0  0
 38 37  1  1  0  0  0
 39 36  1  0  0  0  0
 39 38  1  0  0  0  0
 40 50  1  6  0  0  0
 41 42  1  0  0  0  0
 41 44  1  0  0  0  0
 41 38  1  1  0  0  0
 42 43  1  6  0  0  0
 42 44  1  0  0  0  0
 44 45  1  6  0  0  0
 45 47  1  0  0  0  0
 47 46  1  0  0  0  0
 48 50  2  0  0  0  0
 50 49  1  0  0  0  0
 51 52  1  0  0  0  0
 52 53  1  0  0  0  0
 54 56  1  0  0  0  0
 54 53  1  0  0  0  0
 55 57  1  0  0  0  0
 56 57  1  0  0  0  0
 58 59  1  0  0  0  0
 58 56  1  0  0  0  0
 59 55  1  0  0  0  0
M  END
>  <MODEL>
5

>  <REMARK>
 VINA RESULT:      -3.8      1.901      3.350
  Name = 
  28 active torsions:
  status: ('A' for Active; 'I' for Inactive)
    1  A    between atoms: C_5  and  C_19
    2  A    between atoms: C_6  and  C_10
    3  A    between atoms: C_7  and  C_26
    4  A    between atoms: C_7  and  C_42
    5  A    between atoms: C_9  and  C_13
    6  A    between atoms: C_9  and  C_49
    7  A    between atoms: C_10  and  C_32
    8  A    between atoms: C_12  and  C_38
    9  A    between atoms: C_12  and  C_52
   10  A    between atoms: C_13  and  C_47
   11  A    between atoms: N_14  and  C_46
   12  A    between atoms: O_16  and  C_20
   13  A    between atoms: C_19  and  C_41
   14  A    between atoms: C_20  and  C_24
   15  A    between atoms: C_21  and  C_25
   16  A    between atoms: C_21  and  C_26
   17  A    between atoms: C_21  and  C_56
   18  A    between atoms: C_24  and  C_35
   19  A    between atoms: C_27  and  C_44
   20  A    between atoms: C_28  and  C_46
   21  A    between atoms: C_28  and  O_57
   22  A    between atoms: C_32  and  C_49
   23  A    between atoms: C_35  and  O_37
   24  A    between atoms: C_35  and  C_51
   25  A    between atoms: O_37  and  C_56
   26  A    between atoms: C_41  and  C_51
   27  A    between atoms: C_47  and  O_57
   28  A    between atoms: C_58  and  C_59
                            x       y       z     vdW  Elec       q    Type
                         _______ _______ _______ _____ _____    ______ ____

>  <TORSDO>
F 28

$$$$
=
 OpenBabel11062422343D

 59 62  0  0  1  0  0  0  0  0999 V2000
  187.6130  175.8760  148.0050 F   0  0  0  0  0  0  0  0  0  0  0  0
  186.7650  176.5340  145.9120 C   0  0  0  0  0  0  0  0  0  0  0  0
  187.7940  177.0190  143.6410 C   0  0  0  0  0  0  0  0  0  0  0  0
  189.2230  175.9830  146.2090 C   0  0  1  0  0  3  0  0  0  0  0  0
  187.0640  176.7740  144.6800 C   0  0  0  0  0  0  0  0  0  0  0  0
  190.2630  177.9840  142.7190 Cl  0  0  0  0  0  0  0  0  0  0  0  0
  188.1730  177.9090  147.2120 F   0  0  0  0  0  0  0  0  0  0  0  0
  185.5930  175.9350  146.2410 F   0  0  0  0  0  0  0  0  0  0  0  0
  187.9380  176.5890  146.8610 C   0  0  0  0  0  0  0  0  0  0  0  0
  189.2520  177.1770  143.9080 C   0  0  0  0  0  0  0  0  0  0  0  0
  189.8530  176.7650  145.0500 C   0  0  0  0  0  3  0  0  0  0  0  0
  187.1790  177.3450  142.3220 C   0  0  0  0  0  2  0  0  0  0  0  0
  185.7060  176.9530  142.2980 C   0  0  0  0  0  2  0  0  0  0  0  0
  185.5330  179.1370  141.2720 O   0  0  0  0  0  1  0  0  0  0  0  0
  184.8610  177.9320  141.4790 C   0  0  2  0  0  3  0  0  0  0  0  0
  183.4560  178.1820  142.0470 C   0  0  1  0  0  3  0  0  0  0  0  0
  183.4790  179.1730  143.2140 C   0  0  1  0  0  3  0  0  0  0  0  0
  182.1730  179.4860  143.5820 O   0  0  0  0  0  1  0  0  0  0  0  0
  184.2000  178.5950  144.4210 C   0  0  0  0  0  2  0  0  0  0  0  0
  183.4960  178.8970  145.5840 O   0  0  0  0  0  0  0  0  0  0  0  0
  184.4120  178.6940  146.6170 C   0  0  0  0  0  1  0  0  0  0  0  0
  182.5750  178.6370  141.0520 O   0  0  0  0  0  0  0  0  0  0  0  0
  181.5320  177.7050  141.0170 C   0  0  0  0  0  2  0  0  0  0  0  0
  180.2050  178.3830  141.3460 C   0  0  1  0  0  3  0  0  0  0  0  0
  179.5300  180.1180  139.8520 O   0  0  0  0  0  1  0  0  0  0  0  0
  179.5350  178.8800  140.1070 C   0  0  0  0  0  0  0  0  0  0  0  0
  178.9060  178.0000  139.2350 O   0  0  0  0  0  0  0  0  0  0  0  0
  179.2940  177.4200  142.0870 C   0  0  0  0  0  2  0  0  0  0  0  0
  178.1170  178.1660  142.6930 C   0  0  0  0  0  2  0  0  0  0  0  0
  178.5880  179.1520  143.7490 C   0  0  0  0  0  2  0  0  0  0  0  0
  178.2560  178.6480  145.1390 C   0  0  0  0  0  1  0  0  0  0  0  0
  190.2720  175.5630  147.2420 C   0  0  0  0  0  2  0  0  0  0  0  0
  191.7030  175.6220  146.7150 C   0  0  0  0  0  2  0  0  0  0  0  0
  192.0850  174.3160  146.0430 C   0  0  0  0  0  2  0  0  0  0  0  0
  192.6460  174.5800  144.6500 C   0  0  0  0  0  2  0  0  0  0  0  0
  192.2130  173.5110  143.6440 C   0  0  2  0  0  0  0  0  0  0  0  0
  192.5850  170.6170  142.5580 O   0  0  0  0  0  1  0  0  0  0  0  0
  193.1460  171.5700  143.4200 C   0  0  2  0  0  0  0  0  0  0  0  0
  192.0810  172.1580  144.3370 C   0  0  0  0  0  2  0  0  0  0  0  0
  193.2910  172.9270  142.7120 C   0  0  2  0  0  3  0  0  0  0  0  0
  194.3610  171.0680  144.2250 C   0  0  1  0  0  3  0  0  0  0  0  0
  194.2340  169.6010  144.5960 C   0  0  2  0  0  3  0  0  0  0  0  0
  195.0410  169.3210  146.2100 S   0  0  0  0  0  1  0  0  0  0  0  0
  195.1660  170.0390  143.4530 C   0  0  2  0  0  3  0  0  0  0  0  0
  196.6380  170.1630  143.8160 C   0  0  0  0  0  2  0  0  0  0  0  0
  196.6570  170.8800  141.5470 O   0  0  0  0  0  1  0  0  0  0  0  0
  197.3440  170.9830  142.7550 C   0  0  0  0  0  2  0  0  0  0  0  0
  195.1550  174.0270  141.6990 O   0  0  0  0  0  0  0  0  0  0  0  0
  195.3740  173.6780  143.9490 O   0  0  0  0  0  1  0  0  0  0  0  0
  194.6570  173.5710  142.7590 C   0  0  0  0  0  0  0  0  0  0  0  0
  190.9230  173.9000  142.9090 C   0  0  0  0  0  2  0  0  0  0  0  0
  191.0380  173.6960  141.5280 O   0  0  0  0  0  0  0  0  0  0  0  0
  190.0060  172.8090  141.2050 C   0  0  0  0  0  2  0  0  0  0  0  0
  189.1220  173.4060  140.1140 C   0  0  0  0  0  2  0  0  0  0  0  0
  190.5630  171.9690  137.2190 C   0  0  0  0  0  2  0  0  0  0  0  0
  189.8780  173.5390  138.8750 N   0  0  0  0  0  0  0  0  0  0  0  0
  190.6130  172.2990  138.6860 C   0  0  0  0  0  2  0  0  0  0  0  0
  188.9080  173.6110  137.7850 C   0  0  0  0  0  2  0  0  0  0  0  0
  189.2690  172.5700  136.7330 C   0  0  0  0  0  2  0  0  0  0  0  0
  2  8  1  0  0  0  0
  2  9  1  0  0  0  0
  3 10  1  0  0  0  0
  3  5  2  0  0  0  0
  4  9  1  0  0  0  0
  4 32  1  1  0  0  0
  5  2  2  0  0  0  0
  6 10  1  0  0  0  0
  9  7  1  0  0  0  0
  9  1  1  0  0  0  0
 10 11  2  0  0  0  0
 11  4  1  0  0  0  0
 12  3  1  0  0  0  0
 13 12  1  0  0  0  0
 15 14  1  1  0  0  0
 15 16  1  0  0  0  0
 15 13  1  0  0  0  0
 16 22  1  6  0  0  0
 16 17  1  0  0  0  0
 17 18  1  1  0  0  0
 17 19  1  0  0  0  0
 19 20  1  0  0  0  0
 20 21  1  0  0  0  0
 23 22  1  0  0  0  0
 24 23  1  6  0  0  0
 24 28  1  0  0  0  0
 25 26  1  0  0  0  0
 26 24  1  0  0  0  0
 27 26  2  0  0  0  0
 28 29  1  0  0  0  0
 29 30  1  0  0  0  0
 30 31  1  0  0  0  0
 33 32  1  0  0  0  0
 34 33  1  0  0  0  0
 35 34  1  0  0  0  0
 36 51  1  6  0  0  0
 36 39  1  0  0  0  0
 36 35  1  0  0  0  0
 38 37  1  6  0  0  0
 38 39  1  0  0  0  0
 40 50  1  1  0  0  0
 40 38  1  0  0  0  0
 40 36  1  0  0  0  0
 41 38  1  6  0  0  0
 41 42  1  0  0  0  0
 42 43  1  1  0  0  0
 44 45  1  1  0  0  0
 44 41  1  0  0  0  0
 44 42  1  0  0  0  0
 46 47  1  0  0  0  0
 47 45  1  0  0  0  0
 48 50  2  0  0  0  0
 50 49  1  0  0  0  0
 52 51  1  0  0  0  0
 53 52  1  0  0  0  0
 54 53  1  0  0  0  0
 55 57  1  0  0  0  0
 56 54  1  0  0  0  0
 57 56  1  0  0  0  0
 58 56  1  0  0  0  0
 59 55  1  0  0  0  0
 59 58  1  0  0  0  0
M  END
>  <MODEL>
6

>  <REMARK>
 VINA RESULT:      -3.7      4.455     10.382
  Name = 
  28 active torsions:
  status: ('A' for Active; 'I' for Inactive)
    1  A    between atoms: C_5  and  C_19
    2  A    between atoms: C_6  and  C_10
    3  A    between atoms: C_7  and  C_26
    4  A    between atoms: C_7  and  C_42
    5  A    between atoms: C_9  and  C_13
    6  A    between atoms: C_9  and  C_49
    7  A    between atoms: C_10  and  C_32
    8  A    between atoms: C_12  and  C_38
    9  A    between atoms: C_12  and  C_52
   10  A    between atoms: C_13  and  C_47
   11  A    between atoms: N_14  and  C_46
   12  A    between atoms: O_16  and  C_20
   13  A    between atoms: C_19  and  C_41
   14  A    between atoms: C_20  and  C_24
   15  A    between atoms: C_21  and  C_25
   16  A    between atoms: C_21  and  C_26
   17  A    between atoms: C_21  and  C_56
   18  A    between atoms: C_24  and  C_35
   19  A    between atoms: C_27  and  C_44
   20  A    between atoms: C_28  and  C_46
   21  A    between atoms: C_28  and  O_57
   22  A    between atoms: C_32  and  C_49
   23  A    between atoms: C_35  and  O_37
   24  A    between atoms: C_35  and  C_51
   25  A    between atoms: O_37  and  C_56
   26  A    between atoms: C_41  and  C_51
   27  A    between atoms: C_47  and  O_57
   28  A    between atoms: C_58  and  C_59
                            x       y       z     vdW  Elec       q    Type
                         _______ _______ _______ _____ _____    ______ ____

>  <TORSDO>
F 28

$$$$
=
 OpenBabel11062422343D

 59 62  0  0  1  0  0  0  0  0999 V2000
  192.5770  172.9490  145.6310 F   0  0  0  0  0  0  0  0  0  0  0  0
  190.4430  173.1340  144.6590 C   0  0  0  0  0  0  0  0  0  0  0  0
  189.3540  174.7590  143.0390 C   0  0  0  0  0  0  0  0  0  0  0  0
  192.3170  174.7120  144.0010 C   0  0  1  0  0  3  0  0  0  0  0  0
  189.7180  173.7970  143.8220 C   0  0  0  0  0  0  0  0  0  0  0  0
  189.6550  177.4780  142.4140 Cl  0  0  0  0  0  0  0  0  0  0  0  0
  191.2960  174.7160  146.1870 F   0  0  0  0  0  0  0  0  0  0  0  0
  190.3100  171.7900  144.7860 F   0  0  0  0  0  0  0  0  0  0  0  0
  191.6650  173.8740  145.1490 C   0  0  0  0  0  0  0  0  0  0  0  0
  190.2580  175.9430  143.0200 C   0  0  0  0  0  0  0  0  0  0  0  0
  191.5300  175.9220  143.4860 C   0  0  0  0  0  3  0  0  0  0  0  0
  188.0120  174.7620  142.3890 C   0  0  0  0  0  2  0  0  0  0  0  0
  187.1170  175.8360  142.9960 C   0  0  0  0  0  2  0  0  0  0  0  0
  187.0750  176.7370  140.7510 O   0  0  0  0  0  1  0  0  0  0  0  0
  186.3380  176.6090  141.9290 C   0  0  2  0  0  3  0  0  0  0  0  0
  185.8150  177.9760  142.3960 C   0  0  1  0  0  3  0  0  0  0  0  0
  184.7550  178.5390  141.4440 C   0  0  1  0  0  3  0  0  0  0  0  0
  185.1180  178.2610  140.1290 O   0  0  0  0  0  1  0  0  0  0  0  0
  183.3890  177.9280  141.7110 C   0  0  0  0  0  2  0  0  0  0  0  0
  182.6490  177.8850  140.5310 O   0  0  0  0  0  0  0  0  0  0  0  0
  181.5640  178.7320  140.7620 C   0  0  0  0  0  1  0  0  0  0  0  0
  185.2980  177.9080  143.7000 O   0  0  0  0  0  0  0  0  0  0  0  0
  185.9320  178.9330  144.4100 C   0  0  0  0  0  2  0  0  0  0  0  0
  186.1640  178.5090  145.8580 C   0  0  1  0  0  3  0  0  0  0  0  0
  183.9760  178.5150  146.8120 O   0  0  0  0  0  1  0  0  0  0  0  0
  184.9590  177.8260  146.4170 C   0  0  0  0  0  0  0  0  0  0  0  0
  184.9070  176.4410  146.5190 O   0  0  0  0  0  0  0  0  0  0  0  0
  187.3750  177.5960  145.9490 C   0  0  0  0  0  2  0  0  0  0  0  0
  188.3050  178.0620  147.0550 C   0  0  0  0  0  2  0  0  0  0  0  0
  189.3850  177.0280  147.3260 C   0  0  0  0  0  2  0  0  0  0  0  0
  190.6870  177.4250  146.6620 C   0  0  0  0  0  1  0  0  0  0  0  0
  193.7790  175.0680  144.2840 C   0  0  0  0  0  2  0  0  0  0  0  0
  194.3050  176.2110  143.4200 C   0  0  0  0  0  2  0  0  0  0  0  0
  195.4430  175.7380  142.5340 C   0  0  0  0  0  2  0  0  0  0  0  0
  195.3640  174.2300  142.3290 C   0  0  0  0  0  2  0  0  0  0  0  0
  195.1380  173.8600  140.8610 C   0  0  2  0  0  0  0  0  0  0  0  0
  193.8040  171.9360  138.8090 O   0  0  0  0  0  1  0  0  0  0  0  0
  194.0660  172.1080  140.1760 C   0  0  2  0  0  0  0  0  0  0  0  0
  193.6720  173.5080  140.6260 C   0  0  0  0  0  2  0  0  0  0  0  0
  195.5480  172.4460  140.4080 C   0  0  2  0  0  3  0  0  0  0  0  0
  193.4420  171.0320  141.0870 C   0  0  1  0  0  3  0  0  0  0  0  0
  192.0650  170.6080  140.6100 C   0  0  2  0  0  3  0  0  0  0  0  0
  191.0370  170.1800  142.0570 S   0  0  0  0  0  1  0  0  0  0  0  0
  193.2860  169.7040  140.3700 C   0  0  2  0  0  3  0  0  0  0  0  0
  193.4650  168.5630  141.3620 C   0  0  0  0  0  2  0  0  0  0  0  0
  194.0910  168.8070  143.6440 O   0  0  0  0  0  1  0  0  0  0  0  0
  194.5660  168.9220  142.3400 C   0  0  0  0  0  2  0  0  0  0  0  0
  196.1680  171.8540  142.6390 O   0  0  0  0  0  1  0  0  0  0  0  0
  197.0820  170.5210  141.0200 O   0  0  0  0  0  0  0  0  0  0  0  0
  196.2850  171.5920  141.4150 C   0  0  0  0  0  0  0  0  0  0  0  0
  195.6180  174.9630  139.9090 C   0  0  0  0  0  2  0  0  0  0  0  0
  195.9530  174.4450  138.6510 O   0  0  0  0  0  0  0  0  0  0  0  0
  195.3980  175.3410  137.7300 C   0  0  0  0  0  2  0  0  0  0  0  0
  193.8880  175.1450  137.6490 C   0  0  0  0  0  2  0  0  0  0  0  0
  191.3660  175.6690  135.2230 C   0  0  0  0  0  2  0  0  0  0  0  0
  193.4530  175.1710  136.2590 N   0  0  0  0  0  0  0  0  0  0  0  0
  192.0480  174.7970  136.2420 C   0  0  0  0  0  2  0  0  0  0  0  0
  193.5130  176.5620  135.8160 C   0  0  0  0  0  2  0  0  0  0  0  0
  192.1690  176.9450  135.2090 C   0  0  0  0  0  2  0  0  0  0  0  0
  2  8  1  0  0  0  0
  2  9  1  0  0  0  0
  3  5  2  0  0  0  0
  4 32  1  1  0  0  0
  4  9  1  0  0  0  0
  5  2  2  0  0  0  0
  6 10  1  0  0  0  0
  9  1  1  0  0  0  0
  9  7  1  0  0  0  0
 10  3  1  0  0  0  0
 10 11  2  0  0  0  0
 11  4  1  0  0  0  0
 12 13  1  0  0  0  0
 12  3  1  0  0  0  0
 15 14  1  6  0  0  0
 15 16  1  0  0  0  0
 15 13  1  0  0  0  0
 16 22  1  1  0  0  0
 17 18  1  6  0  0  0
 17 19  1  0  0  0  0
 17 16  1  0  0  0  0
 20 21  1  0  0  0  0
 20 19  1  0  0  0  0
 22 23  1  0  0  0  0
 24 23  1  6  0  0  0
 24 28  1  0  0  0  0
 24 26  1  0  0  0  0
 26 27  2  0  0  0  0
 26 25  1  0  0  0  0
 28 29  1  0  0  0  0
 29 30  1  0  0  0  0
 31 30  1  0  0  0  0
 33 32  1  0  0  0  0
 34 33  1  0  0  0  0
 35 34  1  0  0  0  0
 36 51  1  6  0  0  0
 36 35  1  0  0  0  0
 38 37  1  6  0  0  0
 38 40  1  0  0  0  0
 38 39  1  0  0  0  0
 39 36  1  0  0  0  0
 40 36  1  0  0  0  0
 40 50  1  1  0  0  0
 41 38  1  6  0  0  0
 42 41  1  0  0  0  0
 42 43  1  1  0  0  0
 44 42  1  0  0  0  0
 44 41  1  0  0  0  0
 44 45  1  1  0  0  0
 45 47  1  0  0  0  0
 47 46  1  0  0  0  0
 49 50  2  0  0  0  0
 50 48  1  0  0  0  0
 52 51  1  0  0  0  0
 53 52  1  0  0  0  0
 54 53  1  0  0  0  0
 55 57  1  0  0  0  0
 56 54  1  0  0  0  0
 57 56  1  0  0  0  0
 58 56  1  0  0  0  0
 59 55  1  0  0  0  0
 59 58  1  0  0  0  0
M  END
>  <MODEL>
7

>  <REMARK>
 VINA RESULT:      -3.3      3.487      9.281
  Name = 
  28 active torsions:
  status: ('A' for Active; 'I' for Inactive)
    1  A    between atoms: C_5  and  C_19
    2  A    between atoms: C_6  and  C_10
    3  A    between atoms: C_7  and  C_26
    4  A    between atoms: C_7  and  C_42
    5  A    between atoms: C_9  and  C_13
    6  A    between atoms: C_9  and  C_49
    7  A    between atoms: C_10  and  C_32
    8  A    between atoms: C_12  and  C_38
    9  A    between atoms: C_12  and  C_52
   10  A    between atoms: C_13  and  C_47
   11  A    between atoms: N_14  and  C_46
   12  A    between atoms: O_16  and  C_20
   13  A    between atoms: C_19  and  C_41
   14  A    between atoms: C_20  and  C_24
   15  A    between atoms: C_21  and  C_25
   16  A    between atoms: C_21  and  C_26
   17  A    between atoms: C_21  and  C_56
   18  A    between atoms: C_24  and  C_35
   19  A    between atoms: C_27  and  C_44
   20  A    between atoms: C_28  and  C_46
   21  A    between atoms: C_28  and  O_57
   22  A    between atoms: C_32  and  C_49
   23  A    between atoms: C_35  and  O_37
   24  A    between atoms: C_35  and  C_51
   25  A    between atoms: O_37  and  C_56
   26  A    between atoms: C_41  and  C_51
   27  A    between atoms: C_47  and  O_57
   28  A    between atoms: C_58  and  C_59
                            x       y       z     vdW  Elec       q    Type
                         _______ _______ _______ _____ _____    ______ ____

>  <TORSDO>
F 28

$$$$
=
 OpenBabel11062422343D

 59 62  0  0  1  0  0  0  0  0999 V2000
  191.4340  177.7150  146.1510 F   0  0  0  0  0  0  0  0  0  0  0  0
  193.0920  177.0020  144.6420 C   0  0  0  0  0  0  0  0  0  0  0  0
  194.2040  174.7760  144.1330 C   0  0  0  0  0  0  0  0  0  0  0  0
  191.8720  175.3410  146.1210 C   0  0  1  0  0  3  0  0  0  0  0  0
  193.7400  175.9820  144.1920 C   0  0  0  0  0  0  0  0  0  0  0  0
  194.8130  172.4550  145.5890 Cl  0  0  0  0  0  0  0  0  0  0  0  0
  193.4010  176.9970  146.9810 F   0  0  0  0  0  0  0  0  0  0  0  0
  192.7240  178.0150  143.8180 F   0  0  0  0  0  0  0  0  0  0  0  0
  192.4510  176.7880  145.9930 C   0  0  0  0  0  0  0  0  0  0  0  0
  193.8660  173.9060  145.2950 C   0  0  0  0  0  0  0  0  0  0  0  0
  192.8800  174.1870  146.1810 C   0  0  0  0  0  3  0  0  0  0  0  0
  195.1920  174.3760  143.0900 C   0  0  0  0  0  2  0  0  0  0  0  0
  194.8310  174.9850  141.7390 C   0  0  0  0  0  2  0  0  0  0  0  0
  196.1460  176.7690  140.7700 O   0  0  0  0  0  1  0  0  0  0  0  0
  196.0720  175.3860  140.9380 C   0  0  2  0  0  3  0  0  0  0  0  0
  196.2120  174.6660  139.5880 C   0  0  1  0  0  3  0  0  0  0  0  0
  196.9770  173.3450  139.7210 C   0  0  1  0  0  3  0  0  0  0  0  0
  197.7500  173.3720  140.8790 O   0  0  0  0  0  1  0  0  0  0  0  0
  196.0300  172.1590  139.7960 C   0  0  0  0  0  2  0  0  0  0  0  0
  196.4740  171.2570  140.7610 O   0  0  0  0  0  0  0  0  0  0  0  0
  195.3080  170.7670  141.3510 C   0  0  0  0  0  1  0  0  0  0  0  0
  194.9580  174.4320  139.0000 O   0  0  0  0  0  0  0  0  0  0  0  0
  195.2180  174.1680  137.6510 C   0  0  0  0  0  2  0  0  0  0  0  0
  193.9410  174.3100  136.8270 C   0  0  1  0  0  3  0  0  0  0  0  0
  192.7050  172.2810  137.0510 O   0  0  0  0  0  0  0  0  0  0  0  0
  192.8360  173.4870  137.4030 C   0  0  0  0  0  0  0  0  0  0  0  0
  191.9410  174.0330  138.3150 O   0  0  0  0  0  1  0  0  0  0  0  0
  193.5260  175.7700  136.7530 C   0  0  0  0  0  2  0  0  0  0  0  0
  194.5870  176.5850  136.0350 C   0  0  0  0  0  2  0  0  0  0  0  0
  194.1310  176.9540  134.6330 C   0  0  0  0  0  2  0  0  0  0  0  0
  192.6180  176.9690  134.5480 C   0  0  0  0  0  1  0  0  0  0  0  0
  190.8130  175.2210  147.2200 C   0  0  0  0  0  2  0  0  0  0  0  0
  189.5790  174.4300  146.7930 C   0  0  0  0  0  2  0  0  0  0  0  0
  188.9260  175.0640  145.5780 C   0  0  0  0  0  2  0  0  0  0  0  0
  189.3970  174.3770  144.3030 C   0  0  0  0  0  2  0  0  0  0  0  0
  189.5760  175.3670  143.1480 C   0  0  2  0  0  0  0  0  0  0  0  0
  188.5420  177.9100  141.6810 O   0  0  0  0  0  1  0  0  0  0  0  0
  188.2130  176.9820  142.6790 C   0  0  2  0  0  0  0  0  0  0  0  0
  189.3760  176.7960  143.6450 C   0  0  0  0  0  2  0  0  0  0  0  0
  188.4010  175.5440  142.1690 C   0  0  2  0  0  3  0  0  0  0  0  0
  186.9040  177.2900  143.4340 C   0  0  1  0  0  3  0  0  0  0  0  0
  186.7750  178.7650  143.7740 C   0  0  2  0  0  3  0  0  0  0  0  0
  185.8780  178.9370  145.3540 S   0  0  0  0  0  1  0  0  0  0  0  0
  185.9680  178.1580  142.6130 C   0  0  2  0  0  3  0  0  0  0  0  0
  184.5240  177.7980  142.9330 C   0  0  0  0  0  2  0  0  0  0  0  0
  183.7420  178.0420  140.6990 O   0  0  0  0  0  1  0  0  0  0  0  0
  183.6040  178.5480  141.9900 C   0  0  0  0  0  2  0  0  0  0  0  0
  187.1810  173.5550  141.6520 O   0  0  0  0  0  0  0  0  0  0  0  0
  186.1960  174.8820  143.2320 O   0  0  0  0  0  1  0  0  0  0  0  0
  187.2250  174.6090  142.3360 C   0  0  0  0  0  0  0  0  0  0  0  0
  190.9300  175.1940  142.4460 C   0  0  0  0  0  2  0  0  0  0  0  0
  190.8470  174.2730  141.3940 O   0  0  0  0  0  0  0  0  0  0  0  0
  191.7320  173.2460  141.7390 C   0  0  0  0  0  2  0  0  0  0  0  0
  190.9600  171.9690  142.0540 C   0  0  0  0  0  2  0  0  0  0  0  0
  190.8870  168.8890  140.3140 C   0  0  0  0  0  2  0  0  0  0  0  0
  191.6490  170.8160  141.4900 N   0  0  0  0  0  0  0  0  0  0  0  0
  190.7380  169.6860  141.5820 C   0  0  0  0  0  2  0  0  0  0  0  0
  191.8330  171.0790  140.0650 C   0  0  0  0  0  2  0  0  0  0  0  0
  191.2920  169.8980  139.2700 C   0  0  0  0  0  2  0  0  0  0  0  0
  2  9  1  0  0  0  0
  3  5  2  0  0  0  0
  3 10  1  0  0  0  0
  4 11  1  0  0  0  0
  4 32  1  1  0  0  0
  5  2  2  0  0  0  0
  8  2  1  0  0  0  0
  9  4  1  0  0  0  0
  9  1  1  0  0  0  0
  9  7  1  0  0  0  0
 10  6  1  0  0  0  0
 10 11  2  0  0  0  0
 12  3  1  0  0  0  0
 13 12  1  0  0  0  0
 15 14  1  6  0  0  0
 15 13  1  0  0  0  0
 16 22  1  1  0  0  0
 16 17  1  0  0  0  0
 16 15  1  0  0  0  0
 17 19  1  0  0  0  0
 17 18  1  1  0  0  0
 19 20  1  0  0  0  0
 20 21  1  0  0  0  0
 23 22  1  0  0  0  0
 24 28  1  1  0  0  0
 24 26  1  0  0  0  0
 24 23  1  0  0  0  0
 25 26  2  0  0  0  0
 26 27  1  0  0  0  0
 29 28  1  0  0  0  0
 30 29  1  0  0  0  0
 31 30  1  0  0  0  0
 33 32  1  0  0  0  0
 34 33  1  0  0  0  0
 35 34  1  0  0  0  0
 36 51  1  6  0  0  0
 36 39  1  0  0  0  0
 36 35  1  0  0  0  0
 38 37  1  6  0  0  0
 38 39  1  0  0  0  0
 40 50  1  1  0  0  0
 40 38  1  0  0  0  0
 40 36  1  0  0  0  0
 41 38  1  6  0  0  0
 41 42  1  0  0  0  0
 42 43  1  1  0  0  0
 44 45  1  1  0  0  0
 44 41  1  0  0  0  0
 44 42  1  0  0  0  0
 46 47  1  0  0  0  0
 47 45  1  0  0  0  0
 48 50  2  0  0  0  0
 50 49  1  0  0  0  0
 52 53  1  0  0  0  0
 52 51  1  0  0  0  0
 53 54  1  0  0  0  0
 55 57  1  0  0  0  0
 56 57  1  0  0  0  0
 56 54  1  0  0  0  0
 58 56  1  0  0  0  0
 59 58  1  0  0  0  0
 59 55  1  0  0  0  0
M  END
>  <MODEL>
8

>  <REMARK>
 VINA RESULT:      -3.2      3.609      7.211
  Name = 
  28 active torsions:
  status: ('A' for Active; 'I' for Inactive)
    1  A    between atoms: C_5  and  C_19
    2  A    between atoms: C_6  and  C_10
    3  A    between atoms: C_7  and  C_26
    4  A    between atoms: C_7  and  C_42
    5  A    between atoms: C_9  and  C_13
    6  A    between atoms: C_9  and  C_49
    7  A    between atoms: C_10  and  C_32
    8  A    between atoms: C_12  and  C_38
    9  A    between atoms: C_12  and  C_52
   10  A    between atoms: C_13  and  C_47
   11  A    between atoms: N_14  and  C_46
   12  A    between atoms: O_16  and  C_20
   13  A    between atoms: C_19  and  C_41
   14  A    between atoms: C_20  and  C_24
   15  A    between atoms: C_21  and  C_25
   16  A    between atoms: C_21  and  C_26
   17  A    between atoms: C_21  and  C_56
   18  A    between atoms: C_24  and  C_35
   19  A    between atoms: C_27  and  C_44
   20  A    between atoms: C_28  and  C_46
   21  A    between atoms: C_28  and  O_57
   22  A    between atoms: C_32  and  C_49
   23  A    between atoms: C_35  and  O_37
   24  A    between atoms: C_35  and  C_51
   25  A    between atoms: O_37  and  C_56
   26  A    between atoms: C_41  and  C_51
   27  A    between atoms: C_47  and  O_57
   28  A    between atoms: C_58  and  C_59
                            x       y       z     vdW  Elec       q    Type
                         _______ _______ _______ _____ _____    ______ ____

>  <TORSDO>
F 28

$$$$
=
 OpenBabel11062422343D

 59 62  0  0  1  0  0  0  0  0999 V2000
  188.1050  174.4100  143.4890 F   0  0  0  0  0  0  0  0  0  0  0  0
  188.9620  172.7330  142.0800 C   0  0  0  0  0  0  0  0  0  0  0  0
  189.4870  172.5810  139.6000 C   0  0  0  0  0  0  0  0  0  0  0  0
  188.5020  175.0670  141.2000 C   0  0  1  0  0  3  0  0  0  0  0  0
  189.3420  172.4560  140.8790 C   0  0  0  0  0  0  0  0  0  0  0  0
  188.4820  173.7560  137.2580 Cl  0  0  0  0  0  0  0  0  0  0  0  0
  186.7580  173.5540  141.9000 F   0  0  0  0  0  0  0  0  0  0  0  0
  189.6080  172.2140  143.1540 F   0  0  0  0  0  0  0  0  0  0  0  0
  188.0580  173.9380  142.1870 C   0  0  0  0  0  0  0  0  0  0  0  0
  188.7840  173.7440  138.9880 C   0  0  0  0  0  0  0  0  0  0  0  0
  188.3170  174.7970  139.7020 C   0  0  0  0  0  3  0  0  0  0  0  0
  190.1210  171.5060  138.7840 C   0  0  0  0  0  2  0  0  0  0  0  0
  190.2280  170.2100  139.5810 C   0  0  0  0  0  2  0  0  0  0  0  0
  191.8970  170.6260  141.2820 O   0  0  0  0  0  1  0  0  0  0  0  0
  191.6510  169.9570  140.0820 C   0  0  2  0  0  3  0  0  0  0  0  0
  192.7480  170.2660  139.0520 C   0  0  1  0  0  3  0  0  0  0  0  0
  192.6950  169.3080  137.8570 C   0  0  1  0  0  3  0  0  0  0  0  0
  191.8540  168.2400  138.1560 O   0  0  0  0  0  1  0  0  0  0  0  0
  192.1740  170.0040  136.6100 C   0  0  0  0  0  2  0  0  0  0  0  0
  191.8840  169.0610  135.6270 O   0  0  0  0  0  0  0  0  0  0  0  0
  191.2460  169.7840  134.6180 C   0  0  0  0  0  1  0  0  0  0  0  0
  192.6680  171.5940  138.6020 O   0  0  0  0  0  0  0  0  0  0  0  0
  193.7430  172.2590  139.2010 C   0  0  0  0  0  2  0  0  0  0  0  0
  194.0610  173.5440  138.4390 C   0  0  1  0  0  3  0  0  0  0  0  0
  195.2320  174.1510  140.4280 O   0  0  0  0  0  1  0  0  0  0  0  0
  194.9990  174.4100  139.2140 C   0  0  0  0  0  0  0  0  0  0  0  0
  195.6110  175.5070  138.6200 O   0  0  0  0  0  0  0  0  0  0  0  0
  194.6530  173.2130  137.0790 C   0  0  0  0  0  2  0  0  0  0  0  0
  195.9620  172.4610  137.2420 C   0  0  0  0  0  2  0  0  0  0  0  0
  196.0790  171.3490  136.2130 C   0  0  0  0  0  2  0  0  0  0  0  0
  194.9860  171.4640  135.1710 C   0  0  0  0  0  1  0  0  0  0  0  0
  187.9660  176.4450  141.5950 C   0  0  0  0  0  2  0  0  0  0  0  0
  189.0640  177.4570  141.9110 C   0  0  0  0  0  2  0  0  0  0  0  0
  189.5690  177.2810  143.3320 C   0  0  0  0  0  2  0  0  0  0  0  0
  190.9120  176.5600  143.3320 C   0  0  0  0  0  2  0  0  0  0  0  0
  191.3760  176.2090  144.7480 C   0  0  2  0  0  0  0  0  0  0  0  0
  193.7350  175.4320  146.6250 O   0  0  0  0  0  1  0  0  0  0  0  0
  193.3850  175.6020  145.2780 C   0  0  2  0  0  0  0  0  0  0  0  0
  192.6790  176.9350  145.0690 C   0  0  0  0  0  2  0  0  0  0  0  0
  192.0800  174.8560  144.9550 C   0  0  2  0  0  3  0  0  0  0  0  0
  194.5540  175.4280  144.2870 C   0  0  1  0  0  3  0  0  0  0  0  0
  195.8050  176.1570  144.7450 C   0  0  2  0  0  3  0  0  0  0  0  0
  196.7220  176.7470  143.2810 S   0  0  0  0  0  1  0  0  0  0  0  0
  195.6940  174.6290  144.8900 C   0  0  2  0  0  3  0  0  0  0  0  0
  196.3790  173.8140  143.8040 C   0  0  0  0  0  2  0  0  0  0  0  0
  196.7830  171.5770  143.1030 O   0  0  0  0  0  1  0  0  0  0  0  0
  196.2970  172.3430  144.1600 C   0  0  0  0  0  2  0  0  0  0  0  0
  192.3660  172.6990  143.9660 O   0  0  0  0  0  1  0  0  0  0  0  0
  191.8690  174.3610  142.4770 O   0  0  0  0  0  0  0  0  0  0  0  0
  192.1150  173.9150  143.7730 C   0  0  0  0  0  0  0  0  0  0  0  0
  190.2930  176.4960  145.7960 C   0  0  0  0  0  2  0  0  0  0  0  0
  189.4330  175.4020  145.9570 O   0  0  0  0  0  0  0  0  0  0  0  0
  188.5700  175.7670  146.9960 C   0  0  0  0  0  2  0  0  0  0  0  0
  188.0020  177.1600  146.7430 C   0  0  0  0  0  2  0  0  0  0  0  0
  184.5180  177.5550  146.2690 C   0  0  0  0  0  2  0  0  0  0  0  0
  186.8210  177.0710  145.8940 N   0  0  0  0  0  0  0  0  0  0  0  0
  185.6950  176.7560  146.7590 C   0  0  0  0  0  2  0  0  0  0  0  0
  186.5700  178.4100  145.3660 C   0  0  0  0  0  2  0  0  0  0  0  0
  185.1210  178.7890  145.6480 C   0  0  0  0  0  2  0  0  0  0  0  0
  2  9  1  0  0  0  0
  2  8  1  0  0  0  0
  3  5  2  0  0  0  0
  4 32  1  1  0  0  0
  4  9  1  0  0  0  0
  5  2  2  0  0  0  0
  6 10  1  0  0  0  0
  7  9  1  0  0  0  0
  9  1  1  0  0  0  0
 10  3  1  0  0  0  0
 10 11  2  0  0  0  0
 11  4  1  0  0  0  0
 12 13  1  0  0  0  0
 12  3  1  0  0  0  0
 13 15  1  0  0  0  0
 15 14  1  1  0  0  0
 16 22  1  6  0  0  0
 16 15  1  0  0  0  0
 17 18  1  1  0  0  0
 17 16  1  0  0  0  0
 19 17  1  0  0  0  0
 20 19  1  0  0  0  0
 21 20  1  0  0  0  0
 22 23  1  0  0  0  0
 24 28  1  6  0  0  0
 24 23  1  0  0  0  0
 24 26  1  0  0  0  0
 26 25  1  0  0  0  0
 27 26  2  0  0  0  0
 28 29  1  0  0  0  0
 30 29  1  0  0  0  0
 31 30  1  0  0  0  0
 32 33  1  0  0  0  0
 33 34  1  0  0  0  0
 34 35  1  0  0  0  0
 36 35  1  6  0  0  0
 36 40  1  0  0  0  0
 36 39  1  0  0  0  0
 36 51  1  0  0  0  0
 38 37  1  1  0  0  0
 39 38  1  0  0  0  0
 40 50  1  6  0  0  0
 40 38  1  0  0  0  0
 41 42  1  0  0  0  0
 41 44  1  0  0  0  0
 41 38  1  1  0  0  0
 42 43  1  6  0  0  0
 42 44  1  0  0  0  0
 44 45  1  6  0  0  0
 45 47  1  0  0  0  0
 46 47  1  0  0  0  0
 49 50  2  0  0  0  0
 50 48  1  0  0  0  0
 51 52  1  0  0  0  0
 52 53  1  0  0  0  0
 54 53  1  0  0  0  0
 55 57  1  0  0  0  0
 56 54  1  0  0  0  0
 56 57  1  0  0  0  0
 58 59  1  0  0  0  0
 58 56  1  0  0  0  0
 59 55  1  0  0  0  0
M  END
>  <MODEL>
9

>  <REMARK>
 VINA RESULT:      -3.1      2.003      3.217
  Name = 
  28 active torsions:
  status: ('A' for Active; 'I' for Inactive)
    1  A    between atoms: C_5  and  C_19
    2  A    between atoms: C_6  and  C_10
    3  A    between atoms: C_7  and  C_26
    4  A    between atoms: C_7  and  C_42
    5  A    between atoms: C_9  and  C_13
    6  A    between atoms: C_9  and  C_49
    7  A    between atoms: C_10  and  C_32
    8  A    between atoms: C_12  and  C_38
    9  A    between atoms: C_12  and  C_52
   10  A    between atoms: C_13  and  C_47
   11  A    between atoms: N_14  and  C_46
   12  A    between atoms: O_16  and  C_20
   13  A    between atoms: C_19  and  C_41
   14  A    between atoms: C_20  and  C_24
   15  A    between atoms: C_21  and  C_25
   16  A    between atoms: C_21  and  C_26
   17  A    between atoms: C_21  and  C_56
   18  A    between atoms: C_24  and  C_35
   19  A    between atoms: C_27  and  C_44
   20  A    between atoms: C_28  and  C_46
   21  A    between atoms: C_28  and  O_57
   22  A    between atoms: C_32  and  C_49
   23  A    between atoms: C_35  and  O_37
   24  A    between atoms: C_35  and  C_51
   25  A    between atoms: O_37  and  C_56
   26  A    between atoms: C_41  and  C_51
   27  A    between atoms: C_47  and  O_57
   28  A    between atoms: C_58  and  C_59
                            x       y       z     vdW  Elec       q    Type
                         _______ _______ _______ _____ _____    ______ ____

>  <TORSDO>
F 28

$$$$
