=
 OpenBabel11062423023D

 62 70  0  0  1  0  0  0  0  0999 V2000
  194.5290  172.8830  142.0700 C   0  0  0  0  0  2  0  0  0  0  0  0
  194.9430  173.7540  143.0140 C   0  0  1  0  0  3  0  0  0  0  0  0
  194.7690  172.8980  139.5390 C   0  0  2  0  0  3  0  0  0  0  0  0
  192.0700  171.2580  138.9310 C   0  0  0  0  0  2  0  0  0  0  0  0
  190.6770  173.2950  139.2730 C   0  0  0  0  0  0  0  0  0  0  0  0
  190.3620  173.6960  140.5530 C   0  0  0  0  0  0  0  0  0  0  0  0
  193.4760  170.6080  138.8200 C   0  0  2  0  0  0  0  0  0  0  0  0
  195.7340  171.2470  138.0440 F   0  0  0  0  0  0  0  0  0  0  0  0
  193.9410  173.3120  140.7660 C   0  0  1  0  0  3  0  0  0  0  0  0
  195.1390  170.4760  140.2260 C   0  0  0  0  0  2  0  0  0  0  0  0
  191.4560  173.3270  141.4170 C   0  0  0  0  0  0  0  0  0  0  0  0
  188.2330  174.5230  139.8300 C   0  0  0  0  0  3  0  0  0  0  0  0
  189.1550  174.3090  140.8790 C   0  0  0  0  0  3  0  0  0  0  0  0
  189.7660  173.4730  138.2180 C   0  0  0  0  0  3  0  0  0  0  0  0
  191.2460  172.7980  142.5220 O   0  0  0  0  0  0  0  0  0  0  0  0
  193.7780  169.7970  140.0820 C   0  0  0  0  0  2  0  0  0  0  0  0
  192.0760  172.7470  139.2160 C   0  0  1  0  0  3  0  0  0  0  0  0
  192.5550  172.9120  140.5870 N   0  0  0  0  0  0  0  0  0  0  0  0
  188.5440  174.1040  138.5110 C   0  0  0  0  0  3  0  0  0  0  0  0
  194.8030  171.4100  139.0740 C   0  0  1  0  0  0  0  0  0  0  0  0
  196.2680  174.0230  138.0050 O   0  0  0  0  0  1  0  0  0  0  0  0
  197.2970  172.8380  139.7990 C   0  0  0  0  0  1  0  0  0  0  0  0
  196.1060  173.6520  139.3420 C   0  0  2  0  0  3  0  0  0  0  0  0
  193.4350  169.7930  137.6410 O   0  0  0  0  0  0  0  0  0  0  0  0
  192.9640  170.4590  136.4950 C   0  0  0  0  0  2  0  0  0  0  0  0
  193.5830  171.3420  134.5540 C   0  0  0  0  0  1  0  0  0  0  0  0
  193.8280  170.2540  135.4100 O   0  0  0  0  0  0  0  0  0  0  0  0
  195.6330  172.8800  145.4220 C   0  0  2  0  0  3  0  0  0  0  0  0
  195.8310  171.7770  144.3990 C   0  0  1  0  0  0  0  0  0  0  0  0
  194.6770  171.1070  143.9700 O   0  0  0  0  0  1  0  0  0  0  0  0
  194.2730  172.9500  145.7550 O   0  0  0  0  0  1  0  0  0  0  0  0
  196.0100  173.2240  143.9510 C   0  0  1  0  0  3  0  0  0  0  0  0
  197.1100  170.9640  144.5370 C   0  0  0  0  0  1  0  0  0  0  0  0
  195.9640  175.7900  142.3540 O   0  0  0  0  0  0  0  0  0  0  0  0
  194.9110  175.2160  142.7490 C   0  0  0  0  0  0  0  0  0  0  0  0
  193.6240  175.9810  142.9190 C   0  0  0  0  0  2  0  0  0  0  0  0
  191.0090  175.6650  145.3570 C   0  0  2  0  0  0  0  0  0  0  0  0
  190.3990  174.5690  145.9800 O   0  0  0  0  0  1  0  0  0  0  0  0
  193.0530  176.2140  144.3400 C   0  0  2  0  0  3  0  0  0  0  0  0
  192.3670  176.3490  147.1390 C   0  0  2  0  0  3  0  0  0  0  0  0
  194.1640  176.3690  145.3590 C   0  0  0  0  0  2  0  0  0  0  0  0
  192.2060  175.1730  144.7560 O   0  0  0  0  0  0  0  0  0  0  0  0
  193.6290  177.0590  146.6100 C   0  0  0  0  0  2  0  0  0  0  0  0
  191.2350  176.6580  146.3520 O   0  0  0  0  0  0  0  0  0  0  0  0
  188.7980  175.2690  144.2940 C   0  0  0  0  0  2  0  0  0  0  0  0
  189.9720  176.2000  144.3120 C   0  0  2  0  0  0  0  0  0  0  0  0
  189.6790  177.6380  144.6490 C   0  0  0  0  0  2  0  0  0  0  0  0
  188.5430  176.6710  144.8320 C   0  0  2  0  0  0  0  0  0  0  0  0
  186.8760  176.2870  142.8290 C   0  0  0  0  0  2  0  0  0  0  0  0
  186.3830  177.9720  144.6500 C   0  0  0  0  0  3  0  0  0  0  0  0
  184.7650  177.6960  142.7560 C   0  0  1  0  0  3  0  0  0  0  0  0
  187.4500  177.2160  143.9020 C   0  0  1  0  0  3  0  0  0  0  0  0
  186.6760  178.1240  141.2900 O   0  0  0  0  0  1  0  0  0  0  0  0
  185.9470  177.1150  141.9370 C   0  0  1  0  0  3  0  0  0  0  0  0
  185.1830  178.2190  144.1110 C   0  0  0  0  0  3  0  0  0  0  0  0
  184.1190  178.7180  142.0530 O   0  0  0  0  0  0  0  0  0  0  0  0
  182.7720  178.5610  142.2620 N   0  0  0  0  0  2  0  0  0  0  0  0
  182.3540  177.7480  140.0000 O   0  0  0  0  0  0  0  0  0  0  0  0
  180.6710  177.9640  141.5360 O   0  0  0  0  0  1  0  0  0  0  0  0
  181.8810  178.1280  141.2560 C   0  0  0  0  0  0  0  0  0  0  0  0
  192.1290  176.6100  148.5180 O   0  0  0  0  0  0  0  0  0  0  0  0
  191.1500  177.6210  148.6210 C   0  0  0  0  0  1  0  0  0  0  0  0
  2  1  1  6  0  0  0
  3 23  1  1  0  0  0
  3  9  1  0  0  0  0
  5  6  1  0  0  0  0
  6 13  2  0  0  0  0
  6 11  1  0  0  0  0
  7 24  1  6  0  0  0
  7  4  1  0  0  0  0
  7 20  1  0  0  0  0
  7 16  1  0  0  0  0
  9  1  1  1  0  0  0
 11 15  2  0  0  0  0
 12 13  1  0  0  0  0
 14 19  1  0  0  0  0
 14  5  2  0  0  0  0
 16 10  1  0  0  0  0
 17  4  1  1  0  0  0
 17  5  1  0  0  0  0
 17 18  1  0  0  0  0
 18  9  1  0  0  0  0
 18 11  1  0  0  0  0
 19 12  2  0  0  0  0
 20  8  1  6  0  0  0
 20  3  1  0  0  0  0
 20 10  1  0  0  0  0
 21 23  1  0  0  0  0
 23 22  1  6  0  0  0
 25 24  1  0  0  0  0
 26 27  1  0  0  0  0
 27 25  1  0  0  0  0
 28 31  1  6  0  0  0
 29 33  1  1  0  0  0
 29 28  1  0  0  0  0
 30 29  1  0  0  0  0
 32  2  1  6  0  0  0
 32 29  1  0  0  0  0
 32 28  1  0  0  0  0
 34 35  2  0  0  0  0
 35 36  1  0  0  0  0
 35  2  1  0  0  0  0
 37 38  1  1  0  0  0
 37 44  1  0  0  0  0
 39 36  1  6  0  0  0
 39 42  1  0  0  0  0
 39 41  1  0  0  0  0
 40 61  1  1  0  0  0
 41 43  1  0  0  0  0
 42 37  1  0  0  0  0
 43 40  1  0  0  0  0
 44 40  1  0  0  0  0
 46 45  1  6  0  0  0
 46 47  1  0  0  0  0
 46 48  1  0  0  0  0
 46 37  1  0  0  0  0
 47 48  1  0  0  0  0
 48 45  1  1  0  0  0
 51 56  1  6  0  0  0
 51 55  1  0  0  0  0
 52 49  1  1  0  0  0
 52 50  1  0  0  0  0
 52 48  1  0  0  0  0
 54 53  1  1  0  0  0
 54 51  1  0  0  0  0
 54 49  1  0  0  0  0
 55 50  2  0  0  0  0
 56 57  1  0  0  0  0
 58 60  2  0  0  0  0
 60 59  1  0  0  0  0
 60 57  1  0  0  0  0
 61 62  1  0  0  0  0
M  END
>  <MODEL>
1

>  <REMARK>
 VINA RESULT:      -7.1      0.000      0.000
  Name = 
  14 active torsions:
  status: ('A' for Active; 'I' for Inactive)
    1  A    between atoms: N_1  and  O_62
    2  A    between atoms: C_2  and  C_19
    3  A    between atoms: C_3  and  C_28
    4  A    between atoms: C_11  and  O_46
    5  A    between atoms: C_13  and  C_18
    6  A    between atoms: C_14  and  C_34
    7  A    between atoms: C_14  and  C_55
    8  A    between atoms: C_16  and  C_55
    9  A    between atoms: C_23  and  O_62
   10  A    between atoms: C_24  and  C_58
   11  A    between atoms: O_32  and  C_36
   12  A    between atoms: C_34  and  C_53
   13  A    between atoms: C_38  and  O_44
   14  A    between atoms: C_38  and  O_46
                            x       y       z     vdW  Elec       q    Type
                         _______ _______ _______ _____ _____    ______ ____

>  <TORSDO>
F 14

$$$$
=
 OpenBabel11062423023D

 62 70  0  0  1  0  0  0  0  0999 V2000
  192.1350  172.0300  140.5660 C   0  0  0  0  0  2  0  0  0  0  0  0
  190.9090  172.5920  140.5720 C   0  0  1  0  0  3  0  0  0  0  0  0
  193.5960  170.9990  142.3740 C   0  0  2  0  0  3  0  0  0  0  0  0
  196.4080  171.8730  141.0820 C   0  0  0  0  0  2  0  0  0  0  0  0
  196.1630  174.1940  141.9550 C   0  0  0  0  0  0  0  0  0  0  0  0
  195.3650  175.0930  141.2820 C   0  0  0  0  0  0  0  0  0  0  0  0
  195.8820  170.4140  141.0100 C   0  0  2  0  0  0  0  0  0  0  0  0
  194.6760  168.8270  142.4700 F   0  0  0  0  0  0  0  0  0  0  0  0
  193.1490  172.2710  141.6360 C   0  0  1  0  0  3  0  0  0  0  0  0
  193.9970  169.5740  140.3050 C   0  0  0  0  0  2  0  0  0  0  0  0
  194.2890  174.3580  140.6650 C   0  0  0  0  0  0  0  0  0  0  0  0
  196.8000  176.9100  141.8960 C   0  0  0  0  0  3  0  0  0  0  0  0
  195.6450  176.4560  141.2220 C   0  0  0  0  0  3  0  0  0  0  0  0
  197.3310  174.6170  142.6110 C   0  0  0  0  0  3  0  0  0  0  0  0
  193.9480  174.5890  139.4920 O   0  0  0  0  0  0  0  0  0  0  0  0
  195.2460  170.1540  139.6430 C   0  0  0  0  0  2  0  0  0  0  0  0
  195.5620  172.8160  141.9160 C   0  0  1  0  0  3  0  0  0  0  0  0
  194.3120  173.0180  141.1860 N   0  0  0  0  0  0  0  0  0  0  0  0
  197.6320  175.9910  142.5840 C   0  0  0  0  0  3  0  0  0  0  0  0
  194.5310  169.9660  141.6730 C   0  0  1  0  0  0  0  0  0  0  0  0
  191.4930  169.8160  142.5830 O   0  0  0  0  0  1  0  0  0  0  0  0
  192.0100  171.3530  144.3300 C   0  0  0  0  0  1  0  0  0  0  0  0
  192.5470  170.3630  143.3180 C   0  0  2  0  0  3  0  0  0  0  0  0
  197.0230  169.5790  141.2510 O   0  0  0  0  0  0  0  0  0  0  0  0
  197.8690  170.0390  142.2760 C   0  0  0  0  0  2  0  0  0  0  0  0
  197.2560  170.1150  144.4090 C   0  0  0  0  0  1  0  0  0  0  0  0
  197.7440  169.2400  143.4220 O   0  0  0  0  0  0  0  0  0  0  0  0
  188.7570  172.6060  139.0200 C   0  0  2  0  0  3  0  0  0  0  0  0
  189.9120  171.9470  138.2900 C   0  0  1  0  0  0  0  0  0  0  0  0
  190.8830  172.8030  137.7530 O   0  0  0  0  0  1  0  0  0  0  0  0
  188.9100  173.9970  138.9480 O   0  0  0  0  0  1  0  0  0  0  0  0
  189.8480  171.8240  139.8090 C   0  0  1  0  0  3  0  0  0  0  0  0
  189.5740  170.6860  137.5090 C   0  0  0  0  0  1  0  0  0  0  0  0
  189.7210  172.9170  142.5990 O   0  0  0  0  0  0  0  0  0  0  0  0
  190.4740  173.4260  141.7230 C   0  0  0  0  0  0  0  0  0  0  0  0
  190.9620  174.8460  141.8460 C   0  0  0  0  0  2  0  0  0  0  0  0
  190.1890  175.2890  145.3230 C   0  0  2  0  0  0  0  0  0  0  0  0
  190.0940  174.4100  146.4100 O   0  0  0  0  0  1  0  0  0  0  0  0
  191.2760  175.4300  143.2470 C   0  0  2  0  0  3  0  0  0  0  0  0
  192.2750  176.2260  145.8340 C   0  0  2  0  0  3  0  0  0  0  0  0
  192.7570  175.7080  143.4060 C   0  0  0  0  0  2  0  0  0  0  0  0
  190.8670  174.5790  144.2880 O   0  0  0  0  0  0  0  0  0  0  0  0
  192.9810  176.6960  144.5460 C   0  0  0  0  0  2  0  0  0  0  0  0
  190.8810  176.4510  145.7670 O   0  0  0  0  0  0  0  0  0  0  0  0
  187.9320  175.8240  146.2130 C   0  0  0  0  0  2  0  0  0  0  0  0
  188.7170  175.6700  144.9470 C   0  0  2  0  0  0  0  0  0  0  0  0
  188.7700  176.8730  144.0430 C   0  0  0  0  0  2  0  0  0  0  0  0
  188.1610  177.0900  145.4000 C   0  0  2  0  0  0  0  0  0  0  0  0
  186.2830  178.9210  145.6510 C   0  0  0  0  0  2  0  0  0  0  0  0
  186.3820  177.4020  143.6310 C   0  0  0  0  0  3  0  0  0  0  0  0
  184.5380  179.0900  143.8140 C   0  0  1  0  0  3  0  0  0  0  0  0
  186.7380  177.5730  145.0840 C   0  0  1  0  0  3  0  0  0  0  0  0
  184.0570  178.0720  145.9860 O   0  0  0  0  0  1  0  0  0  0  0  0
  184.7910  179.0810  145.3440 C   0  0  1  0  0  3  0  0  0  0  0  0
  185.3610  178.0630  143.0700 C   0  0  0  0  0  3  0  0  0  0  0  0
  183.1850  178.8850  143.5260 O   0  0  0  0  0  0  0  0  0  0  0  0
  183.1190  178.3530  142.2630 N   0  0  0  0  0  2  0  0  0  0  0  0
  180.8220  179.0930  141.9000 O   0  0  0  0  0  1  0  0  0  0  0  0
  181.9860  177.9380  140.3020 O   0  0  0  0  0  0  0  0  0  0  0  0
  181.9560  178.4050  141.4650 C   0  0  0  0  0  0  0  0  0  0  0  0
  192.8390  176.7990  147.0080 O   0  0  0  0  0  0  0  0  0  0  0  0
  194.2050  177.0600  146.7690 C   0  0  0  0  0  1  0  0  0  0  0  0
  2  1  1  1  0  0  0
  2 35  1  0  0  0  0
  3 23  1  6  0  0  0
  5 14  1  0  0  0  0
  6  5  2  0  0  0  0
  7  4  1  0  0  0  0
  7 24  1  1  0  0  0
  7 20  1  0  0  0  0
  9  1  1  6  0  0  0
  9  3  1  0  0  0  0
 10 20  1  0  0  0  0
 11 18  1  0  0  0  0
 11  6  1  0  0  0  0
 12 19  1  0  0  0  0
 13  6  1  0  0  0  0
 13 12  2  0  0  0  0
 15 11  2  0  0  0  0
 16 10  1  0  0  0  0
 16  7  1  0  0  0  0
 17  4  1  6  0  0  0
 17  5  1  0  0  0  0
 18  9  1  0  0  0  0
 18 17  1  0  0  0  0
 19 14  2  0  0  0  0
 20  3  1  0  0  0  0
 20  8  1  1  0  0  0
 21 23  1  0  0  0  0
 23 22  1  1  0  0  0
 24 25  1  0  0  0  0
 25 27  1  0  0  0  0
 27 26  1  0  0  0  0
 28 31  1  1  0  0  0
 28 32  1  0  0  0  0
 29 33  1  6  0  0  0
 29 28  1  0  0  0  0
 29 32  1  0  0  0  0
 30 29  1  0  0  0  0
 32  2  1  1  0  0  0
 35 36  1  0  0  0  0
 35 34  2  0  0  0  0
 37 44  1  0  0  0  0
 37 38  1  1  0  0  0
 39 36  1  6  0  0  0
 39 41  1  0  0  0  0
 39 42  1  0  0  0  0
 40 61  1  1  0  0  0
 41 43  1  0  0  0  0
 42 37  1  0  0  0  0
 43 40  1  0  0  0  0
 44 40  1  0  0  0  0
 46 47  1  6  0  0  0
 46 37  1  0  0  0  0
 46 48  1  0  0  0  0
 46 45  1  0  0  0  0
 48 47  1  1  0  0  0
 48 45  1  0  0  0  0
 51 56  1  1  0  0  0
 51 54  1  0  0  0  0
 52 50  1  6  0  0  0
 52 48  1  0  0  0  0
 52 49  1  0  0  0  0
 54 49  1  0  0  0  0
 54 53  1  1  0  0  0
 55 50  2  0  0  0  0
 55 51  1  0  0  0  0
 57 56  1  0  0  0  0
 59 60  2  0  0  0  0
 60 58  1  0  0  0  0
 60 57  1  0  0  0  0
 62 61  1  0  0  0  0
M  END
>  <MODEL>
2

>  <REMARK>
 VINA RESULT:      -7.0      2.153      5.152
  Name = 
  14 active torsions:
  status: ('A' for Active; 'I' for Inactive)
    1  A    between atoms: N_1  and  O_62
    2  A    between atoms: C_2  and  C_19
    3  A    between atoms: C_3  and  C_28
    4  A    between atoms: C_11  and  O_46
    5  A    between atoms: C_13  and  C_18
    6  A    between atoms: C_14  and  C_34
    7  A    between atoms: C_14  and  C_55
    8  A    between atoms: C_16  and  C_55
    9  A    between atoms: C_23  and  O_62
   10  A    between atoms: C_24  and  C_58
   11  A    between atoms: O_32  and  C_36
   12  A    between atoms: C_34  and  C_53
   13  A    between atoms: C_38  and  O_44
   14  A    between atoms: C_38  and  O_46
                            x       y       z     vdW  Elec       q    Type
                         _______ _______ _______ _____ _____    ______ ____

>  <TORSDO>
F 14

$$$$
=
 OpenBabel11062423023D

 62 70  0  0  1  0  0  0  0  0999 V2000
  192.6170  174.5940  144.6970 C   0  0  0  0  0  2  0  0  0  0  0  0
  191.4940  175.3420  144.6730 C   0  0  1  0  0  3  0  0  0  0  0  0
  194.6440  174.1790  143.2200 C   0  0  2  0  0  3  0  0  0  0  0  0
  194.7960  171.0080  143.7290 C   0  0  0  0  0  2  0  0  0  0  0  0
  192.9510  170.5920  142.1070 C   0  0  0  0  0  0  0  0  0  0  0  0
  191.6440  170.7790  142.5000 C   0  0  0  0  0  0  0  0  0  0  0  0
  195.7850  172.0010  144.3970 C   0  0  2  0  0  0  0  0  0  0  0  0
  197.0020  174.0630  143.7870 F   0  0  0  0  0  0  0  0  0  0  0  0
  193.1580  173.8970  143.4920 C   0  0  1  0  0  3  0  0  0  0  0  0
  195.4660  173.7950  145.5970 C   0  0  0  0  0  2  0  0  0  0  0  0
  191.6200  171.8390  143.4760 C   0  0  0  0  0  0  0  0  0  0  0  0
  190.9050  168.9930  141.0840 C   0  0  0  0  0  3  0  0  0  0  0  0
  190.5920  170.0030  142.0210 C   0  0  0  0  0  3  0  0  0  0  0  0
  193.2920  169.5770  141.1960 C   0  0  0  0  0  3  0  0  0  0  0  0
  190.9490  171.7350  144.5170 O   0  0  0  0  0  0  0  0  0  0  0  0
  195.3450  172.2900  145.8340 C   0  0  0  0  0  2  0  0  0  0  0  0
  193.8460  171.6310  142.7240 C   0  0  1  0  0  3  0  0  0  0  0  0
  192.9160  172.4640  143.4840 N   0  0  0  0  0  0  0  0  0  0  0  0
  192.2480  168.7880  140.6800 C   0  0  0  0  0  3  0  0  0  0  0  0
  195.7480  173.5470  144.1230 C   0  0  1  0  0  0  0  0  0  0  0  0
  194.6010  176.5600  143.6640 O   0  0  0  0  0  1  0  0  0  0  0  0
  194.3270  175.9110  141.3860 C   0  0  0  0  0  1  0  0  0  0  0  0
  194.9790  175.6050  142.7170 C   0  0  2  0  0  3  0  0  0  0  0  0
  197.0700  171.3700  144.3330 O   0  0  0  0  0  0  0  0  0  0  0  0
  197.0430  170.0510  143.8460 C   0  0  0  0  0  2  0  0  0  0  0  0
  197.2900  169.0140  141.8980 C   0  0  0  0  0  1  0  0  0  0  0  0
  197.9400  169.8950  142.7790 O   0  0  0  0  0  0  0  0  0  0  0  0
  190.0240  176.9430  146.1950 C   0  0  2  0  0  3  0  0  0  0  0  0
  190.8030  175.9770  147.0680 C   0  0  1  0  0  0  0  0  0  0  0  0
  190.3080  174.6680  147.1500 O   0  0  0  0  0  1  0  0  0  0  0  0
  188.9030  176.2810  145.6780 O   0  0  0  0  0  1  0  0  0  0  0  0
  191.4170  176.4140  145.7430 C   0  0  1  0  0  3  0  0  0  0  0  0
  191.4350  176.5710  148.3190 C   0  0  0  0  0  1  0  0  0  0  0  0
  191.1470  176.5450  142.6590 O   0  0  0  0  0  0  0  0  0  0  0  0
  190.7820  175.5830  143.3920 C   0  0  0  0  0  0  0  0  0  0  0  0
  189.6670  174.6620  142.9690 C   0  0  0  0  0  2  0  0  0  0  0  0
  189.4730  173.0110  139.7870 C   0  0  2  0  0  0  0  0  0  0  0  0
  188.8490  171.8370  139.3460 O   0  0  0  0  0  1  0  0  0  0  0  0
  189.2310  174.6180  141.4830 C   0  0  2  0  0  3  0  0  0  0  0  0
  187.9480  174.5530  138.8990 C   0  0  2  0  0  3  0  0  0  0  0  0
  188.0430  175.5240  141.2330 C   0  0  0  0  0  2  0  0  0  0  0  0
  188.9010  173.3200  141.0580 O   0  0  0  0  0  0  0  0  0  0  0  0
  187.9350  175.8420  139.7450 C   0  0  0  0  0  2  0  0  0  0  0  0
  189.2520  174.0150  138.8020 O   0  0  0  0  0  0  0  0  0  0  0  0
  191.3510  171.7850  138.7180 C   0  0  0  0  0  2  0  0  0  0  0  0
  191.0030  172.6850  139.8640 C   0  0  2  0  0  0  0  0  0  0  0  0
  191.7490  173.9900  139.9400 C   0  0  0  0  0  2  0  0  0  0  0  0
  191.9470  173.1860  138.6860 C   0  0  2  0  0  0  0  0  0  0  0  0
  193.9720  171.6760  137.9400 C   0  0  0  0  0  2  0  0  0  0  0  0
  194.2470  174.1640  138.3030 C   0  0  0  0  0  3  0  0  0  0  0  0
  196.2330  172.7900  137.6340 C   0  0  1  0  0  3  0  0  0  0  0  0
  193.4600  172.9290  138.6560 C   0  0  1  0  0  3  0  0  0  0  0  0
  195.7100  171.4020  139.5800 O   0  0  0  0  0  1  0  0  0  0  0  0
  195.4760  171.5630  138.2050 C   0  0  1  0  0  3  0  0  0  0  0  0
  195.5140  174.0970  137.8780 C   0  0  0  0  0  3  0  0  0  0  0  0
  197.5250  172.8760  138.1630 O   0  0  0  0  0  0  0  0  0  0  0  0
  197.6240  174.0930  138.7880 N   0  0  0  0  0  2  0  0  0  0  0  0
  197.9380  173.1110  141.0000 O   0  0  0  0  0  1  0  0  0  0  0  0
  197.9130  175.3770  140.6770 O   0  0  0  0  0  0  0  0  0  0  0  0
  197.7830  174.2320  140.1840 C   0  0  0  0  0  0  0  0  0  0  0  0
  187.3630  174.7340  137.6150 O   0  0  0  0  0  0  0  0  0  0  0  0
  186.7890  176.0230  137.5600 C   0  0  0  0  0  1  0  0  0  0  0  0
  2  1  1  6  0  0  0
  3 23  1  1  0  0  0
  3  9  1  0  0  0  0
  3 20  1  0  0  0  0
  4  7  1  0  0  0  0
  5  6  1  0  0  0  0
  5 17  1  0  0  0  0
  6 11  1  0  0  0  0
  7 24  1  6  0  0  0
  7 16  1  0  0  0  0
  9  1  1  1  0  0  0
 10 16  1  0  0  0  0
 11 18  1  0  0  0  0
 11 15  2  0  0  0  0
 12 13  1  0  0  0  0
 13  6  2  0  0  0  0
 14  5  2  0  0  0  0
 17 18  1  0  0  0  0
 17  4  1  1  0  0  0
 18  9  1  0  0  0  0
 19 12  2  0  0  0  0
 19 14  1  0  0  0  0
 20  8  1  6  0  0  0
 20  7  1  0  0  0  0
 20 10  1  0  0  0  0
 23 22  1  6  0  0  0
 23 21  1  0  0  0  0
 25 24  1  0  0  0  0
 26 27  1  0  0  0  0
 27 25  1  0  0  0  0
 28 31  1  6  0  0  0
 28 29  1  0  0  0  0
 29 30  1  0  0  0  0
 29 33  1  1  0  0  0
 32  2  1  6  0  0  0
 32 28  1  0  0  0  0
 32 29  1  0  0  0  0
 34 35  2  0  0  0  0
 35  2  1  0  0  0  0
 36 35  1  0  0  0  0
 37 38  1  6  0  0  0
 37 46  1  0  0  0  0
 37 42  1  0  0  0  0
 39 36  1  1  0  0  0
 40 61  1  6  0  0  0
 40 43  1  0  0  0  0
 41 39  1  0  0  0  0
 42 39  1  0  0  0  0
 43 41  1  0  0  0  0
 44 40  1  0  0  0  0
 44 37  1  0  0  0  0
 46 45  1  1  0  0  0
 46 47  1  0  0  0  0
 48 45  1  6  0  0  0
 48 46  1  0  0  0  0
 48 47  1  0  0  0  0
 49 54  1  0  0  0  0
 50 52  1  0  0  0  0
 51 55  1  0  0  0  0
 51 56  1  1  0  0  0
 51 54  1  0  0  0  0
 52 49  1  6  0  0  0
 52 48  1  0  0  0  0
 54 53  1  1  0  0  0
 55 50  2  0  0  0  0
 56 57  1  0  0  0  0
 57 60  1  0  0  0  0
 60 59  2  0  0  0  0
 60 58  1  0  0  0  0
 62 61  1  0  0  0  0
M  END
>  <MODEL>
3

>  <REMARK>
 VINA RESULT:      -6.9      3.284      8.367
  Name = 
  14 active torsions:
  status: ('A' for Active; 'I' for Inactive)
    1  A    between atoms: N_1  and  O_62
    2  A    between atoms: C_2  and  C_19
    3  A    between atoms: C_3  and  C_28
    4  A    between atoms: C_11  and  O_46
    5  A    between atoms: C_13  and  C_18
    6  A    between atoms: C_14  and  C_34
    7  A    between atoms: C_14  and  C_55
    8  A    between atoms: C_16  and  C_55
    9  A    between atoms: C_23  and  O_62
   10  A    between atoms: C_24  and  C_58
   11  A    between atoms: O_32  and  C_36
   12  A    between atoms: C_34  and  C_53
   13  A    between atoms: C_38  and  O_44
   14  A    between atoms: C_38  and  O_46
                            x       y       z     vdW  Elec       q    Type
                         _______ _______ _______ _____ _____    ______ ____

>  <TORSDO>
F 14

$$$$
=
 OpenBabel11062423023D

 62 70  0  0  1  0  0  0  0  0999 V2000
  192.9970  171.9620  137.4580 C   0  0  0  0  0  2  0  0  0  0  0  0
  194.1200  171.4600  138.0120 C   0  0  1  0  0  3  0  0  0  0  0  0
  192.0420  174.2800  137.0320 C   0  0  2  0  0  3  0  0  0  0  0  0
  188.9760  173.4980  137.6030 C   0  0  0  0  0  2  0  0  0  0  0  0
  189.3400  173.5950  140.0660 C   0  0  0  0  0  0  0  0  0  0  0  0
  189.9250  172.5270  140.7100 C   0  0  0  0  0  0  0  0  0  0  0  0
  189.5190  173.7190  136.1650 C   0  0  2  0  0  0  0  0  0  0  0  0
  191.0920  175.2400  135.0150 F   0  0  0  0  0  0  0  0  0  0  0  0
  192.2570  173.1290  138.0280 C   0  0  1  0  0  3  0  0  0  0  0  0
  191.2120  172.8550  135.0950 C   0  0  0  0  0  2  0  0  0  0  0  0
  190.8490  171.9070  139.7940 C   0  0  0  0  0  0  0  0  0  0  0  0
  188.6140  172.9240  142.6750 C   0  0  0  0  0  3  0  0  0  0  0  0
  189.5920  172.1520  142.0090 C   0  0  0  0  0  3  0  0  0  0  0  0
  188.3470  174.3620  140.6980 C   0  0  0  0  0  3  0  0  0  0  0  0
  190.8940  170.6700  139.6710 O   0  0  0  0  0  0  0  0  0  0  0  0
  189.8230  172.3710  135.5080 C   0  0  0  0  0  2  0  0  0  0  0  0
  189.9620  173.8060  138.7130 C   0  0  1  0  0  3  0  0  0  0  0  0
  190.9960  172.7750  138.6560 N   0  0  0  0  0  0  0  0  0  0  0  0
  188.0010  174.0200  142.0170 C   0  0  0  0  0  3  0  0  0  0  0  0
  191.0040  174.1420  135.8760 C   0  0  1  0  0  0  0  0  0  0  0  0
  194.1170  174.3550  135.7840 O   0  0  0  0  0  1  0  0  0  0  0  0
  194.1040  175.5110  137.8680 C   0  0  0  0  0  1  0  0  0  0  0  0
  193.3060  175.0890  136.6530 C   0  0  2  0  0  3  0  0  0  0  0  0
  188.4980  174.4500  135.4730 O   0  0  0  0  0  0  0  0  0  0  0  0
  188.1410  175.6640  136.0860 C   0  0  0  0  0  2  0  0  0  0  0  0
  185.9500  176.0220  136.0350 C   0  0  0  0  0  1  0  0  0  0  0  0
  187.1420  176.3180  135.3490 O   0  0  0  0  0  0  0  0  0  0  0  0
  195.7350  169.4160  137.5110 C   0  0  2  0  0  3  0  0  0  0  0  0
  194.5400  169.3660  136.5780 C   0  0  1  0  0  0  0  0  0  0  0  0
  193.3390  168.8920  137.1240 O   0  0  0  0  0  1  0  0  0  0  0  0
  195.3560  168.9070  138.7600 O   0  0  0  0  0  1  0  0  0  0  0  0
  195.0360  170.7290  137.0500 C   0  0  1  0  0  3  0  0  0  0  0  0
  194.8410  169.0190  135.1270 C   0  0  0  0  0  1  0  0  0  0  0  0
  195.6660  172.9540  139.0120 O   0  0  0  0  0  0  0  0  0  0  0  0
  194.7330  172.1230  139.1920 C   0  0  0  0  0  0  0  0  0  0  0  0
  194.2140  171.8240  140.5740 C   0  0  0  0  0  2  0  0  0  0  0  0
  193.9930  173.0750  143.9310 C   0  0  2  0  0  0  0  0  0  0  0  0
  193.8280  172.4620  145.1800 O   0  0  0  0  0  1  0  0  0  0  0  0
  194.8230  172.5550  141.7970 C   0  0  2  0  0  3  0  0  0  0  0  0
  196.2860  173.5310  144.0840 C   0  0  2  0  0  3  0  0  0  0  0  0
  196.3360  172.4730  141.7870 C   0  0  0  0  0  2  0  0  0  0  0  0
  194.3560  172.0400  143.0190 O   0  0  0  0  0  0  0  0  0  0  0  0
  196.9210  173.5630  142.6790 C   0  0  0  0  0  2  0  0  0  0  0  0
  194.9860  174.0850  144.0730 O   0  0  0  0  0  0  0  0  0  0  0  0
  191.7030  173.5590  144.7650 C   0  0  0  0  0  2  0  0  0  0  0  0
  192.6160  173.7410  143.5910 C   0  0  2  0  0  0  0  0  0  0  0  0
  192.8840  175.1600  143.1660 C   0  0  0  0  0  2  0  0  0  0  0  0
  192.1390  174.9850  144.4610 C   0  0  2  0  0  0  0  0  0  0  0  0
  190.3150  176.6970  145.2840 C   0  0  0  0  0  2  0  0  0  0  0  0
  190.7140  176.2790  142.8220 C   0  0  0  0  0  3  0  0  0  0  0  0
  188.9290  177.8930  143.5240 C   0  0  1  0  0  3  0  0  0  0  0  0
  190.8130  175.7190  144.2170 C   0  0  1  0  0  3  0  0  0  0  0  0
  188.0350  176.0520  144.8650 O   0  0  0  0  0  1  0  0  0  0  0  0
  188.9080  177.1520  144.8860 C   0  0  1  0  0  3  0  0  0  0  0  0
  189.8330  177.2360  142.5050 C   0  0  0  0  0  3  0  0  0  0  0  0
  187.6420  178.0010  142.9890 O   0  0  0  0  0  0  0  0  0  0  0  0
  187.7460  177.7650  141.6410 N   0  0  0  0  0  2  0  0  0  0  0  0
  185.3370  177.8860  141.2730 O   0  0  0  0  0  1  0  0  0  0  0  0
  186.8020  177.4900  139.5590 O   0  0  0  0  0  0  0  0  0  0  0  0
  186.6260  177.6610  140.7880 C   0  0  0  0  0  0  0  0  0  0  0  0
  197.1060  174.1480  145.0700 O   0  0  0  0  0  0  0  0  0  0  0  0
  197.0420  173.3790  146.2520 C   0  0  0  0  0  1  0  0  0  0  0  0
  2  1  1  6  0  0  0
  2 35  1  0  0  0  0
  3 23  1  6  0  0  0
  3  9  1  0  0  0  0
  5 14  2  0  0  0  0
  5  6  1  0  0  0  0
  6 13  2  0  0  0  0
  7 24  1  6  0  0  0
  7  4  1  0  0  0  0
  9  1  1  6  0  0  0
  9 18  1  0  0  0  0
 10 16  1  0  0  0  0
 10 20  1  0  0  0  0
 11  6  1  0  0  0  0
 13 12  1  0  0  0  0
 14 19  1  0  0  0  0
 15 11  2  0  0  0  0
 16  7  1  0  0  0  0
 17  4  1  6  0  0  0
 17  5  1  0  0  0  0
 18 17  1  0  0  0  0
 18 11  1  0  0  0  0
 19 12  2  0  0  0  0
 20  8  1  6  0  0  0
 20  7  1  0  0  0  0
 20  3  1  0  0  0  0
 21 23  1  0  0  0  0
 23 22  1  1  0  0  0
 24 25  1  0  0  0  0
 27 26  1  0  0  0  0
 27 25  1  0  0  0  0
 28 31  1  1  0  0  0
 29 33  1  6  0  0  0
 29 32  1  0  0  0  0
 29 30  1  0  0  0  0
 29 28  1  0  0  0  0
 32 28  1  0  0  0  0
 32  2  1  1  0  0  0
 34 35  2  0  0  0  0
 35 36  1  0  0  0  0
 37 44  1  0  0  0  0
 37 38  1  1  0  0  0
 39 36  1  6  0  0  0
 39 42  1  0  0  0  0
 40 61  1  1  0  0  0
 41 39  1  0  0  0  0
 41 43  1  0  0  0  0
 42 37  1  0  0  0  0
 43 40  1  0  0  0  0
 44 40  1  0  0  0  0
 46 47  1  6  0  0  0
 46 37  1  0  0  0  0
 46 48  1  0  0  0  0
 46 45  1  0  0  0  0
 48 47  1  1  0  0  0
 48 45  1  0  0  0  0
 51 56  1  6  0  0  0
 51 54  1  0  0  0  0
 52 50  1  6  0  0  0
 52 48  1  0  0  0  0
 52 49  1  0  0  0  0
 54 53  1  6  0  0  0
 54 49  1  0  0  0  0
 55 50  2  0  0  0  0
 55 51  1  0  0  0  0
 57 56  1  0  0  0  0
 59 60  2  0  0  0  0
 60 58  1  0  0  0  0
 60 57  1  0  0  0  0
 61 62  1  0  0  0  0
M  END
>  <MODEL>
4

>  <REMARK>
 VINA RESULT:      -6.8      2.557      5.360
  Name = 
  14 active torsions:
  status: ('A' for Active; 'I' for Inactive)
    1  A    between atoms: N_1  and  O_62
    2  A    between atoms: C_2  and  C_19
    3  A    between atoms: C_3  and  C_28
    4  A    between atoms: C_11  and  O_46
    5  A    between atoms: C_13  and  C_18
    6  A    between atoms: C_14  and  C_34
    7  A    between atoms: C_14  and  C_55
    8  A    between atoms: C_16  and  C_55
    9  A    between atoms: C_23  and  O_62
   10  A    between atoms: C_24  and  C_58
   11  A    between atoms: O_32  and  C_36
   12  A    between atoms: C_34  and  C_53
   13  A    between atoms: C_38  and  O_44
   14  A    between atoms: C_38  and  O_46
                            x       y       z     vdW  Elec       q    Type
                         _______ _______ _______ _____ _____    ______ ____

>  <TORSDO>
F 14

$$$$
=
 OpenBabel11062423023D

 62 70  0  0  1  0  0  0  0  0999 V2000
  190.9800  172.1240  140.3760 C   0  0  0  0  0  2  0  0  0  0  0  0
  191.0050  172.7390  141.5770 C   0  0  1  0  0  3  0  0  0  0  0  0
  192.0170  170.0070  139.4230 C   0  0  2  0  0  3  0  0  0  0  0  0
  192.4730  171.1570  136.4550 C   0  0  0  0  0  2  0  0  0  0  0  0
  194.5170  172.3870  137.1740 C   0  0  0  0  0  0  0  0  0  0  0  0
  194.3900  173.5970  137.8220 C   0  0  0  0  0  0  0  0  0  0  0  0
  191.3310  170.1600  136.7890 C   0  0  2  0  0  0  0  0  0  0  0  0
  190.9960  168.1670  138.2120 F   0  0  0  0  0  0  0  0  0  0  0  0
  192.1860  171.4980  139.7540 C   0  0  1  0  0  3  0  0  0  0  0  0
  189.7480  170.2020  138.2890 C   0  0  0  0  0  2  0  0  0  0  0  0
  193.1700  173.5650  138.5890 C   0  0  0  0  0  0  0  0  0  0  0  0
  196.4090  174.4070  136.8190 C   0  0  0  0  0  3  0  0  0  0  0  0
  195.3060  174.6340  137.6720 C   0  0  0  0  0  3  0  0  0  0  0  0
  195.5910  172.1460  136.3000 C   0  0  0  0  0  3  0  0  0  0  0  0
  192.3890  174.5320  138.5870 O   0  0  0  0  0  0  0  0  0  0  0  0
  190.0120  170.9150  136.9630 C   0  0  0  0  0  2  0  0  0  0  0  0
  193.4290  171.4400  137.5980 C   0  0  1  0  0  3  0  0  0  0  0  0
  192.6820  172.2120  138.5900 N   0  0  0  0  0  0  0  0  0  0  0  0
  196.5430  173.1690  136.1420 C   0  0  0  0  0  3  0  0  0  0  0  0
  191.1240  169.5590  138.2250 C   0  0  1  0  0  0  0  0  0  0  0  0
  190.7820  169.2060  141.3460 O   0  0  0  0  0  1  0  0  0  0  0  0
  193.1550  169.2410  141.5630 C   0  0  0  0  0  1  0  0  0  0  0  0
  191.9740  169.0470  140.6370 C   0  0  2  0  0  3  0  0  0  0  0  0
  191.2920  169.2340  135.6950 O   0  0  0  0  0  0  0  0  0  0  0  0
  192.4380  168.4260  135.5810 C   0  0  0  0  0  2  0  0  0  0  0  0
  194.4990  168.1660  134.7960 C   0  0  0  0  0  1  0  0  0  0  0  0
  193.4710  169.1170  134.9320 O   0  0  0  0  0  0  0  0  0  0  0  0
  189.0480  174.1480  142.6810 C   0  0  2  0  0  3  0  0  0  0  0  0
  188.5070  173.3460  141.5130 C   0  0  1  0  0  0  0  0  0  0  0  0
  188.7780  173.8450  140.2310 O   0  0  0  0  0  1  0  0  0  0  0  0
  189.6920  175.2900  142.1860 O   0  0  0  0  0  1  0  0  0  0  0  0
  189.6770  172.7740  142.3060 C   0  0  1  0  0  3  0  0  0  0  0  0
  187.1620  172.6690  141.7360 C   0  0  0  0  0  1  0  0  0  0  0  0
  193.3660  172.7430  141.8020 O   0  0  0  0  0  0  0  0  0  0  0  0
  192.2490  172.7400  142.3910 C   0  0  0  0  0  0  0  0  0  0  0  0
  192.1610  172.7720  143.8940 C   0  0  0  0  0  2  0  0  0  0  0  0
  191.6260  175.3020  146.3840 C   0  0  2  0  0  0  0  0  0  0  0  0
  191.5070  175.2720  147.7790 O   0  0  0  0  0  1  0  0  0  0  0  0
  192.6060  174.0430  144.6610 C   0  0  2  0  0  3  0  0  0  0  0  0
  193.8170  176.1210  146.2530 C   0  0  2  0  0  3  0  0  0  0  0  0
  194.1140  174.1960  144.6410 C   0  0  0  0  0  2  0  0  0  0  0  0
  192.1750  174.0420  145.9980 O   0  0  0  0  0  0  0  0  0  0  0  0
  194.4940  175.6400  144.9550 C   0  0  0  0  0  2  0  0  0  0  0  0
  192.4500  176.4120  146.0440 O   0  0  0  0  0  0  0  0  0  0  0  0
  189.2030  175.2470  146.9300 C   0  0  0  0  0  2  0  0  0  0  0  0
  190.1790  175.5380  145.8320 C   0  0  2  0  0  0  0  0  0  0  0  0
  190.1310  176.9230  145.2440 C   0  0  0  0  0  2  0  0  0  0  0  0
  189.3000  176.6970  146.4760 C   0  0  2  0  0  0  0  0  0  0  0  0
  186.9140  177.6740  147.0130 C   0  0  0  0  0  2  0  0  0  0  0  0
  187.8430  177.6840  144.6610 C   0  0  0  0  0  3  0  0  0  0  0  0
  185.5460  178.5940  145.0820 C   0  0  1  0  0  3  0  0  0  0  0  0
  187.8720  177.0220  146.0140 C   0  0  1  0  0  3  0  0  0  0  0  0
  185.0640  176.4270  146.1110 O   0  0  0  0  0  1  0  0  0  0  0  0
  185.5260  177.7280  146.3680 C   0  0  1  0  0  3  0  0  0  0  0  0
  186.7720  178.3620  144.2300 C   0  0  0  0  0  3  0  0  0  0  0  0
  184.4030  178.3720  144.3070 O   0  0  0  0  0  0  0  0  0  0  0  0
  184.8160  178.2660  143.0030 N   0  0  0  0  0  2  0  0  0  0  0  0
  182.5630  178.5200  142.1020 O   0  0  0  0  0  1  0  0  0  0  0  0
  184.3830  178.2360  140.7430 O   0  0  0  0  0  0  0  0  0  0  0  0
  183.9260  178.2920  141.9080 C   0  0  0  0  0  0  0  0  0  0  0  0
  194.4970  177.2200  146.8500 O   0  0  0  0  0  0  0  0  0  0  0  0
  195.1290  177.9650  145.8310 C   0  0  0  0  0  1  0  0  0  0  0  0
  2  1  1  1  0  0  0
  2 35  1  0  0  0  0
  3  9  1  0  0  0  0
  3 23  1  1  0  0  0
  4  7  1  0  0  0  0
  5 17  1  0  0  0  0
  5  6  1  0  0  0  0
  6 11  1  0  0  0  0
  7 24  1  6  0  0  0
  7 16  1  0  0  0  0
  7 20  1  0  0  0  0
  9  1  1  6  0  0  0
 11 18  1  0  0  0  0
 12 13  1  0  0  0  0
 13  6  2  0  0  0  0
 14  5  2  0  0  0  0
 15 11  2  0  0  0  0
 16 10  1  0  0  0  0
 17  4  1  6  0  0  0
 17 18  1  0  0  0  0
 18  9  1  0  0  0  0
 19 14  1  0  0  0  0
 19 12  2  0  0  0  0
 20  8  1  6  0  0  0
 20 10  1  0  0  0  0
 20  3  1  0  0  0  0
 23 21  1  0  0  0  0
 23 22  1  1  0  0  0
 25 24  1  0  0  0  0
 26 27  1  0  0  0  0
 27 25  1  0  0  0  0
 28 31  1  6  0  0  0
 29 33  1  1  0  0  0
 29 32  1  0  0  0  0
 29 28  1  0  0  0  0
 30 29  1  0  0  0  0
 32  2  1  6  0  0  0
 32 28  1  0  0  0  0
 34 35  2  0  0  0  0
 35 36  1  0  0  0  0
 37 38  1  1  0  0  0
 39 36  1  1  0  0  0
 39 42  1  0  0  0  0
 40 61  1  6  0  0  0
 41 39  1  0  0  0  0
 41 43  1  0  0  0  0
 42 37  1  0  0  0  0
 43 40  1  0  0  0  0
 44 40  1  0  0  0  0
 44 37  1  0  0  0  0
 46 47  1  6  0  0  0
 46 37  1  0  0  0  0
 46 48  1  0  0  0  0
 46 45  1  0  0  0  0
 48 47  1  1  0  0  0
 48 45  1  0  0  0  0
 51 56  1  6  0  0  0
 51 54  1  0  0  0  0
 52 50  1  6  0  0  0
 52 48  1  0  0  0  0
 52 49  1  0  0  0  0
 54 53  1  6  0  0  0
 54 49  1  0  0  0  0
 55 50  2  0  0  0  0
 55 51  1  0  0  0  0
 57 56  1  0  0  0  0
 59 60  2  0  0  0  0
 60 58  1  0  0  0  0
 60 57  1  0  0  0  0
 62 61  1  0  0  0  0
M  END
>  <MODEL>
5

>  <REMARK>
 VINA RESULT:      -6.5      2.263      4.522
  Name = 
  14 active torsions:
  status: ('A' for Active; 'I' for Inactive)
    1  A    between atoms: N_1  and  O_62
    2  A    between atoms: C_2  and  C_19
    3  A    between atoms: C_3  and  C_28
    4  A    between atoms: C_11  and  O_46
    5  A    between atoms: C_13  and  C_18
    6  A    between atoms: C_14  and  C_34
    7  A    between atoms: C_14  and  C_55
    8  A    between atoms: C_16  and  C_55
    9  A    between atoms: C_23  and  O_62
   10  A    between atoms: C_24  and  C_58
   11  A    between atoms: O_32  and  C_36
   12  A    between atoms: C_34  and  C_53
   13  A    between atoms: C_38  and  O_44
   14  A    between atoms: C_38  and  O_46
                            x       y       z     vdW  Elec       q    Type
                         _______ _______ _______ _____ _____    ______ ____

>  <TORSDO>
F 14

$$$$
=
 OpenBabel11062423023D

 62 70  0  0  1  0  0  0  0  0999 V2000
  191.5240  172.5700  141.4150 C   0  0  0  0  0  2  0  0  0  0  0  0
  191.0280  173.5900  142.1450 C   0  0  1  0  0  3  0  0  0  0  0  0
  193.3090  170.7850  141.7170 C   0  0  2  0  0  3  0  0  0  0  0  0
  194.3420  170.8150  138.6710 C   0  0  0  0  0  2  0  0  0  0  0  0
  195.6800  172.8780  139.0760 C   0  0  0  0  0  0  0  0  0  0  0  0
  195.0550  174.1060  139.0690 C   0  0  0  0  0  0  0  0  0  0  0  0
  193.4480  169.6750  139.2310 C   0  0  2  0  0  0  0  0  0  0  0  0
  193.2170  168.3900  141.3290 F   0  0  0  0  0  0  0  0  0  0  0  0
  192.9800  172.2420  141.3540 C   0  0  1  0  0  3  0  0  0  0  0  0
  191.5260  169.6990  140.2630 C   0  0  0  0  0  2  0  0  0  0  0  0
  193.7100  173.9230  139.5540 C   0  0  0  0  0  0  0  0  0  0  0  0
  197.0050  175.1540  138.1550 C   0  0  0  0  0  3  0  0  0  0  0  0
  195.6740  175.2670  138.6160 C   0  0  0  0  0  3  0  0  0  0  0  0
  196.9940  172.7350  138.5980 C   0  0  0  0  0  3  0  0  0  0  0  0
  192.7460  174.4630  138.9830 O   0  0  0  0  0  0  0  0  0  0  0  0
  191.9920  169.9040  138.8220 C   0  0  0  0  0  2  0  0  0  0  0  0
  194.7950  171.8340  139.6990 C   0  0  1  0  0  3  0  0  0  0  0  0
  193.6090  172.5930  140.0910 N   0  0  0  0  0  0  0  0  0  0  0  0
  197.6530  173.8930  138.1490 C   0  0  0  0  0  3  0  0  0  0  0  0
  192.9720  169.6280  140.7270 C   0  0  1  0  0  0  0  0  0  0  0  0
  191.8280  170.6140  143.6250 O   0  0  0  0  0  1  0  0  0  0  0  0
  194.0940  171.1770  144.1030 C   0  0  0  0  0  1  0  0  0  0  0  0
  193.1450  170.4080  143.2090 C   0  0  2  0  0  3  0  0  0  0  0  0
  193.9850  168.4610  138.6900 O   0  0  0  0  0  0  0  0  0  0  0  0
  195.3900  168.3980  138.6940 C   0  0  0  0  0  2  0  0  0  0  0  0
  197.2870  168.4590  139.8460 C   0  0  0  0  0  1  0  0  0  0  0  0
  195.8910  168.5320  139.9970 O   0  0  0  0  0  0  0  0  0  0  0  0
  188.6330  174.6620  142.5370 C   0  0  2  0  0  3  0  0  0  0  0  0
  188.5480  173.5910  141.4650 C   0  0  1  0  0  0  0  0  0  0  0  0
  189.0160  173.9430  140.1910 O   0  0  0  0  0  1  0  0  0  0  0  0
  189.1470  175.8340  141.9660 O   0  0  0  0  0  1  0  0  0  0  0  0
  189.5830  173.4280  142.5730 C   0  0  1  0  0  3  0  0  0  0  0  0
  187.3430  172.6650  141.5420 C   0  0  0  0  0  1  0  0  0  0  0  0
  192.4700  175.4310  142.5390 O   0  0  0  0  0  0  0  0  0  0  0  0
  191.9270  174.3940  143.0130 C   0  0  0  0  0  0  0  0  0  0  0  0
  192.1480  173.9860  144.4460 C   0  0  0  0  0  2  0  0  0  0  0  0
  190.2570  175.8440  146.8660 C   0  0  2  0  0  0  0  0  0  0  0  0
  189.5380  175.4830  148.0120 O   0  0  0  0  0  1  0  0  0  0  0  0
  192.0460  175.0470  145.5710 C   0  0  2  0  0  3  0  0  0  0  0  0
  192.1590  176.7120  147.9240 C   0  0  2  0  0  3  0  0  0  0  0  0
  193.3750  175.2280  146.2760 C   0  0  0  0  0  2  0  0  0  0  0  0
  191.0720  174.7220  146.5300 O   0  0  0  0  0  0  0  0  0  0  0  0
  193.3940  176.5630  147.0140 C   0  0  0  0  0  2  0  0  0  0  0  0
  191.0010  177.0180  147.1740 O   0  0  0  0  0  0  0  0  0  0  0  0
  187.8270  176.0130  146.3780 C   0  0  0  0  0  2  0  0  0  0  0  0
  189.1870  176.1770  145.7720 C   0  0  2  0  0  0  0  0  0  0  0  0
  189.5090  177.5370  145.2110 C   0  0  0  0  0  2  0  0  0  0  0  0
  188.2330  177.4300  145.9990 C   0  0  2  0  0  0  0  0  0  0  0  0
  186.5290  176.7800  144.0980 C   0  0  0  0  0  2  0  0  0  0  0  0
  186.1240  178.7690  145.6080 C   0  0  0  0  0  3  0  0  0  0  0  0
  184.4740  178.2420  143.7960 C   0  0  1  0  0  3  0  0  0  0  0  0
  187.1520  177.8540  144.9950 C   0  0  1  0  0  3  0  0  0  0  0  0
  186.3840  178.3360  142.2700 O   0  0  0  0  0  1  0  0  0  0  0  0
  185.6230  177.4820  143.0830 C   0  0  1  0  0  3  0  0  0  0  0  0
  184.9280  178.9700  145.0410 C   0  0  0  0  0  3  0  0  0  0  0  0
  183.8610  179.1550  142.9320 O   0  0  0  0  0  0  0  0  0  0  0  0
  182.8330  178.4930  142.3120 N   0  0  0  0  0  2  0  0  0  0  0  0
  183.9400  178.4830  140.1370 O   0  0  0  0  0  0  0  0  0  0  0  0
  181.8760  177.5420  140.4460 O   0  0  0  0  0  1  0  0  0  0  0  0
  182.8300  178.1910  140.9320 C   0  0  0  0  0  0  0  0  0  0  0  0
  192.3620  177.6500  148.9740 O   0  0  0  0  0  0  0  0  0  0  0  0
  191.1060  178.1530  149.3770 C   0  0  0  0  0  1  0  0  0  0  0  0
  2  1  1  1  0  0  0
  2 35  1  0  0  0  0
  3 23  1  1  0  0  0
  4  7  1  0  0  0  0
  5 17  1  0  0  0  0
  6  5  1  0  0  0  0
  6 11  1  0  0  0  0
  7 24  1  6  0  0  0
  7 20  1  0  0  0  0
  9  1  1  6  0  0  0
  9  3  1  0  0  0  0
 10 20  1  0  0  0  0
 11 18  1  0  0  0  0
 12 13  1  0  0  0  0
 13  6  2  0  0  0  0
 14  5  2  0  0  0  0
 15 11  2  0  0  0  0
 16  7  1  0  0  0  0
 16 10  1  0  0  0  0
 17  4  1  6  0  0  0
 17 18  1  0  0  0  0
 18  9  1  0  0  0  0
 19 12  2  0  0  0  0
 19 14  1  0  0  0  0
 20  8  1  1  0  0  0
 20  3  1  0  0  0  0
 23 21  1  0  0  0  0
 23 22  1  1  0  0  0
 24 25  1  0  0  0  0
 25 27  1  0  0  0  0
 26 27  1  0  0  0  0
 28 31  1  6  0  0  0
 28 32  1  0  0  0  0
 29 33  1  1  0  0  0
 29 28  1  0  0  0  0
 29 32  1  0  0  0  0
 30 29  1  0  0  0  0
 32  2  1  6  0  0  0
 34 35  2  0  0  0  0
 35 36  1  0  0  0  0
 37 44  1  0  0  0  0
 37 38  1  1  0  0  0
 39 36  1  6  0  0  0
 39 41  1  0  0  0  0
 39 42  1  0  0  0  0
 40 61  1  1  0  0  0
 41 43  1  0  0  0  0
 42 37  1  0  0  0  0
 43 40  1  0  0  0  0
 44 40  1  0  0  0  0
 46 47  1  6  0  0  0
 46 48  1  0  0  0  0
 46 45  1  0  0  0  0
 46 37  1  0  0  0  0
 48 47  1  1  0  0  0
 48 45  1  0  0  0  0
 51 56  1  6  0  0  0
 51 55  1  0  0  0  0
 52 49  1  1  0  0  0
 52 50  1  0  0  0  0
 52 48  1  0  0  0  0
 54 53  1  1  0  0  0
 54 51  1  0  0  0  0
 54 49  1  0  0  0  0
 55 50  2  0  0  0  0
 57 56  1  0  0  0  0
 58 60  2  0  0  0  0
 59 60  1  0  0  0  0
 60 57  1  0  0  0  0
 61 62  1  0  0  0  0
M  END
>  <MODEL>
6

>  <REMARK>
 VINA RESULT:      -6.3      2.078      4.285
  Name = 
  14 active torsions:
  status: ('A' for Active; 'I' for Inactive)
    1  A    between atoms: N_1  and  O_62
    2  A    between atoms: C_2  and  C_19
    3  A    between atoms: C_3  and  C_28
    4  A    between atoms: C_11  and  O_46
    5  A    between atoms: C_13  and  C_18
    6  A    between atoms: C_14  and  C_34
    7  A    between atoms: C_14  and  C_55
    8  A    between atoms: C_16  and  C_55
    9  A    between atoms: C_23  and  O_62
   10  A    between atoms: C_24  and  C_58
   11  A    between atoms: O_32  and  C_36
   12  A    between atoms: C_34  and  C_53
   13  A    between atoms: C_38  and  O_44
   14  A    between atoms: C_38  and  O_46
                            x       y       z     vdW  Elec       q    Type
                         _______ _______ _______ _____ _____    ______ ____

>  <TORSDO>
F 14

$$$$
=
 OpenBabel11062423023D

 62 70  0  0  1  0  0  0  0  0999 V2000
  193.1610  172.0330  138.3020 C   0  0  0  0  0  2  0  0  0  0  0  0
  192.2640  171.2490  138.9350 C   0  0  1  0  0  3  0  0  0  0  0  0
  195.6310  171.7300  137.7790 C   0  0  2  0  0  3  0  0  0  0  0  0
  196.3890  174.8540  137.8900 C   0  0  0  0  0  2  0  0  0  0  0  0
  196.4390  174.8210  140.3810 C   0  0  0  0  0  0  0  0  0  0  0  0
  195.2570  174.8940  141.0860 C   0  0  0  0  0  0  0  0  0  0  0  0
  196.2560  174.0820  136.5500 C   0  0  2  0  0  0  0  0  0  0  0  0
  196.8120  171.8430  135.6610 F   0  0  0  0  0  0  0  0  0  0  0  0
  194.5660  172.2130  138.7770 C   0  0  1  0  0  3  0  0  0  0  0  0
  194.6510  172.8600  135.7210 C   0  0  0  0  0  2  0  0  0  0  0  0
  194.2320  174.2520  140.3030 C   0  0  0  0  0  0  0  0  0  0  0  0
  196.3210  176.1200  142.8480 C   0  0  0  0  0  3  0  0  0  0  0  0
  195.1500  175.5350  142.3170 C   0  0  0  0  0  3  0  0  0  0  0  0
  197.6120  175.4180  140.8750 C   0  0  0  0  0  3  0  0  0  0  0  0
  193.1100  174.7730  140.1680 O   0  0  0  0  0  0  0  0  0  0  0  0
  194.8890  174.3560  135.9220 C   0  0  0  0  0  2  0  0  0  0  0  0
  196.2650  173.9970  139.1350 C   0  0  1  0  0  3  0  0  0  0  0  0
  194.8700  173.5660  139.2120 N   0  0  0  0  0  0  0  0  0  0  0  0
  197.5390  176.0570  142.1260 C   0  0  0  0  0  3  0  0  0  0  0  0
  195.9280  172.5470  136.4840 C   0  0  1  0  0  0  0  0  0  0  0  0
  197.0680  169.8230  137.3770 O   0  0  0  0  0  1  0  0  0  0  0  0
  194.8660  169.6880  136.4730 C   0  0  0  0  0  1  0  0  0  0  0  0
  195.7410  170.1970  137.5990 C   0  0  2  0  0  3  0  0  0  0  0  0
  197.3390  174.5410  135.7290 O   0  0  0  0  0  0  0  0  0  0  0  0
  196.9570  175.4440  134.7210 C   0  0  0  0  0  2  0  0  0  0  0  0
  196.2960  177.5590  134.8670 C   0  0  0  0  0  1  0  0  0  0  0  0
  197.4270  176.7350  135.0050 O   0  0  0  0  0  0  0  0  0  0  0  0
  189.6700  170.8970  138.5040 C   0  0  2  0  0  3  0  0  0  0  0  0
  190.2580  171.7680  137.4100 C   0  0  1  0  0  0  0  0  0  0  0  0
  190.5000  173.1090  137.7400 O   0  0  0  0  0  1  0  0  0  0  0  0
  189.4500  171.6850  139.6410 O   0  0  0  0  0  1  0  0  0  0  0  0
  191.1500  170.7140  138.0570 C   0  0  1  0  0  3  0  0  0  0  0  0
  189.7930  171.4640  135.9930 C   0  0  0  0  0  1  0  0  0  0  0  0
  193.2960  169.3570  139.9230 O   0  0  0  0  0  0  0  0  0  0  0  0
  192.6750  170.4400  140.1120 C   0  0  0  0  0  0  0  0  0  0  0  0
  192.3800  170.9360  141.5030 C   0  0  0  0  0  2  0  0  0  0  0  0
  193.5840  172.6170  144.4380 C   0  0  2  0  0  0  0  0  0  0  0  0
  193.5200  172.3310  145.8070 O   0  0  0  0  0  1  0  0  0  0  0  0
  193.5330  171.4790  142.3840 C   0  0  2  0  0  3  0  0  0  0  0  0
  195.8150  172.0030  144.0710 C   0  0  2  0  0  3  0  0  0  0  0  0
  194.8210  170.7210  142.1310 C   0  0  0  0  0  2  0  0  0  0  0  0
  193.2380  171.4110  143.7570 O   0  0  0  0  0  0  0  0  0  0  0  0
  196.0120  171.5430  142.6130 C   0  0  0  0  0  2  0  0  0  0  0  0
  194.9000  173.0780  144.1520 O   0  0  0  0  0  0  0  0  0  0  0  0
  191.1910  173.1810  144.0740 C   0  0  0  0  0  2  0  0  0  0  0  0
  192.5610  173.7780  144.1910 C   0  0  2  0  0  0  0  0  0  0  0  0
  192.7540  174.8010  145.2780 C   0  0  0  0  0  2  0  0  0  0  0  0
  191.4480  174.0570  145.2930 C   0  0  2  0  0  0  0  0  0  0  0  0
  189.3050  175.0160  144.0980 C   0  0  0  0  0  2  0  0  0  0  0  0
  189.8530  175.6060  146.4960 C   0  0  0  0  0  3  0  0  0  0  0  0
  187.8180  176.5950  145.4180 C   0  0  1  0  0  3  0  0  0  0  0  0
  190.3970  175.1680  145.1610 C   0  0  1  0  0  3  0  0  0  0  0  0
  189.3390  177.3830  143.6710 O   0  0  0  0  0  1  0  0  0  0  0  0
  188.5050  176.3210  144.0550 C   0  0  1  0  0  3  0  0  0  0  0  0
  188.7040  176.2850  146.6030 C   0  0  0  0  0  3  0  0  0  0  0  0
  187.3860  177.9220  145.5070 O   0  0  0  0  0  0  0  0  0  0  0  0
  186.0170  177.8940  145.5990 N   0  0  0  0  0  2  0  0  0  0  0  0
  186.0120  178.3030  148.0050 O   0  0  0  0  0  1  0  0  0  0  0  0
  184.0700  178.0450  146.8190 O   0  0  0  0  0  0  0  0  0  0  0  0
  185.3230  178.0340  146.8200 C   0  0  0  0  0  0  0  0  0  0  0  0
  197.0430  172.3150  144.7180 O   0  0  0  0  0  0  0  0  0  0  0  0
  196.8150  172.3790  146.1090 C   0  0  0  0  0  1  0  0  0  0  0  0
  2  1  1  6  0  0  0
  2 35  1  0  0  0  0
  3 23  1  6  0  0  0
  3  9  1  0  0  0  0
  5 14  2  0  0  0  0
  5  6  1  0  0  0  0
  6 13  2  0  0  0  0
  7 24  1  6  0  0  0
  7  4  1  0  0  0  0
  9  1  1  6  0  0  0
  9 18  1  0  0  0  0
 10 16  1  0  0  0  0
 10 20  1  0  0  0  0
 11  6  1  0  0  0  0
 13 12  1  0  0  0  0
 14 19  1  0  0  0  0
 15 11  2  0  0  0  0
 16  7  1  0  0  0  0
 17  4  1  6  0  0  0
 17 18  1  0  0  0  0
 17  5  1  0  0  0  0
 18 11  1  0  0  0  0
 19 12  2  0  0  0  0
 20  8  1  6  0  0  0
 20  7  1  0  0  0  0
 20  3  1  0  0  0  0
 21 23  1  0  0  0  0
 23 22  1  6  0  0  0
 25 27  1  0  0  0  0
 25 24  1  0  0  0  0
 26 27  1  0  0  0  0
 28 31  1  1  0  0  0
 29 33  1  6  0  0  0
 29 30  1  0  0  0  0
 29 32  1  0  0  0  0
 29 28  1  0  0  0  0
 32 28  1  0  0  0  0
 32  2  1  1  0  0  0
 34 35  2  0  0  0  0
 35 36  1  0  0  0  0
 37 38  1  1  0  0  0
 39 36  1  6  0  0  0
 39 42  1  0  0  0  0
 40 44  1  0  0  0  0
 40 61  1  6  0  0  0
 41 39  1  0  0  0  0
 41 43  1  0  0  0  0
 42 37  1  0  0  0  0
 43 40  1  0  0  0  0
 44 37  1  0  0  0  0
 46 45  1  6  0  0  0
 46 37  1  0  0  0  0
 46 47  1  0  0  0  0
 46 48  1  0  0  0  0
 47 48  1  0  0  0  0
 48 45  1  1  0  0  0
 50 55  2  0  0  0  0
 51 56  1  6  0  0  0
 51 55  1  0  0  0  0
 52 49  1  6  0  0  0
 52 48  1  0  0  0  0
 52 50  1  0  0  0  0
 54 53  1  1  0  0  0
 54 49  1  0  0  0  0
 54 51  1  0  0  0  0
 56 57  1  0  0  0  0
 57 60  1  0  0  0  0
 59 60  2  0  0  0  0
 60 58  1  0  0  0  0
 61 62  1  0  0  0  0
M  END
>  <MODEL>
7

>  <REMARK>
 VINA RESULT:      -6.1      2.871      5.926
  Name = 
  14 active torsions:
  status: ('A' for Active; 'I' for Inactive)
    1  A    between atoms: N_1  and  O_62
    2  A    between atoms: C_2  and  C_19
    3  A    between atoms: C_3  and  C_28
    4  A    between atoms: C_11  and  O_46
    5  A    between atoms: C_13  and  C_18
    6  A    between atoms: C_14  and  C_34
    7  A    between atoms: C_14  and  C_55
    8  A    between atoms: C_16  and  C_55
    9  A    between atoms: C_23  and  O_62
   10  A    between atoms: C_24  and  C_58
   11  A    between atoms: O_32  and  C_36
   12  A    between atoms: C_34  and  C_53
   13  A    between atoms: C_38  and  O_44
   14  A    between atoms: C_38  and  O_46
                            x       y       z     vdW  Elec       q    Type
                         _______ _______ _______ _____ _____    ______ ____

>  <TORSDO>
F 14

$$$$
=
 OpenBabel11062423023D

 62 70  0  0  1  0  0  0  0  0999 V2000
  192.2610  175.2710  144.4360 C   0  0  0  0  0  2  0  0  0  0  0  0
  193.3920  174.6120  144.7640 C   0  0  1  0  0  3  0  0  0  0  0  0
  189.8080  175.0170  145.0550 C   0  0  2  0  0  3  0  0  0  0  0  0
  188.6390  175.9600  142.2120 C   0  0  0  0  0  2  0  0  0  0  0  0
  189.0950  173.7260  141.2080 C   0  0  0  0  0  0  0  0  0  0  0  0
  190.3700  173.4160  140.7880 C   0  0  0  0  0  0  0  0  0  0  0  0
  188.6120  176.8790  143.4630 C   0  0  2  0  0  0  0  0  0  0  0  0
  188.2230  176.6530  145.8930 F   0  0  0  0  0  0  0  0  0  0  0  0
  190.9690  174.5790  144.1470 C   0  0  1  0  0  3  0  0  0  0  0  0
  190.1800  177.5240  144.8350 C   0  0  0  0  0  2  0  0  0  0  0  0
  191.3000  174.1070  141.6440 C   0  0  0  0  0  0  0  0  0  0  0  0
  189.5130  172.0760  138.9960 C   0  0  0  0  0  3  0  0  0  0  0  0
  190.6270  172.6010  139.6890 C   0  0  0  0  0  3  0  0  0  0  0  0
  187.9700  173.2370  140.5210 C   0  0  0  0  0  3  0  0  0  0  0  0
  192.2840  174.7030  141.1700 O   0  0  0  0  0  0  0  0  0  0  0  0
  189.7710  177.8750  143.4050 C   0  0  0  0  0  2  0  0  0  0  0  0
  189.1340  174.5490  142.4660 C   0  0  1  0  0  3  0  0  0  0  0  0
  190.5630  174.6500  142.7540 N   0  0  0  0  0  0  0  0  0  0  0  0
  188.1970  172.3960  139.4160 C   0  0  0  0  0  3  0  0  0  0  0  0
  189.1420  176.4140  144.8670 C   0  0  1  0  0  0  0  0  0  0  0  0
  188.6230  174.5530  147.1150 O   0  0  0  0  0  1  0  0  0  0  0  0
  190.8410  175.3940  147.3470 C   0  0  0  0  0  1  0  0  0  0  0  0
  189.8900  174.5480  146.5280 C   0  0  2  0  0  3  0  0  0  0  0  0
  187.3320  177.5250  143.4430 O   0  0  0  0  0  0  0  0  0  0  0  0
  186.8480  177.8060  142.1530 C   0  0  0  0  0  2  0  0  0  0  0  0
  184.8280  178.3000  141.3740 C   0  0  0  0  0  1  0  0  0  0  0  0
  185.5670  177.2640  141.9730 O   0  0  0  0  0  0  0  0  0  0  0  0
  195.8780  175.4680  145.1250 C   0  0  2  0  0  3  0  0  0  0  0  0
  194.9580  176.6500  144.8830 C   0  0  1  0  0  0  0  0  0  0  0  0
  194.5710  176.8810  143.5550 O   0  0  0  0  0  1  0  0  0  0  0  0
  196.1820  174.8720  143.8940 O   0  0  0  0  0  1  0  0  0  0  0  0
  194.3880  175.4170  145.5760 C   0  0  1  0  0  3  0  0  0  0  0  0
  195.1850  177.8640  145.7720 C   0  0  0  0  0  1  0  0  0  0  0  0
  193.6390  172.6560  146.0810 O   0  0  0  0  0  0  0  0  0  0  0  0
  193.3740  173.1380  144.9440 C   0  0  0  0  0  0  0  0  0  0  0  0
  193.0080  172.2450  143.7870 C   0  0  0  0  0  2  0  0  0  0  0  0
  195.9400  172.0370  141.7260 C   0  0  2  0  0  0  0  0  0  0  0  0
  197.2570  172.4890  141.8740 O   0  0  0  0  0  1  0  0  0  0  0  0
  194.1120  171.4280  143.0700 C   0  0  2  0  0  3  0  0  0  0  0  0
  196.3090  169.7720  142.2010 C   0  0  2  0  0  3  0  0  0  0  0  0
  194.3350  170.0920  143.7480 C   0  0  0  0  0  2  0  0  0  0  0  0
  195.3390  172.1130  143.0180 O   0  0  0  0  0  0  0  0  0  0  0  0
  195.0370  169.1330  142.7910 C   0  0  0  0  0  2  0  0  0  0  0  0
  195.9930  170.7160  141.1970 O   0  0  0  0  0  0  0  0  0  0  0  0
  196.3140  173.9370  140.1690 C   0  0  0  0  0  2  0  0  0  0  0  0
  195.2700  172.9900  140.6790 C   0  0  2  0  0  0  0  0  0  0  0  0
  194.5840  172.1330  139.6480 C   0  0  0  0  0  2  0  0  0  0  0  0
  195.7670  172.9290  139.1680 C   0  0  2  0  0  0  0  0  0  0  0  0
  194.4340  175.0860  138.4560 C   0  0  0  0  0  2  0  0  0  0  0  0
  196.1560  174.0370  136.9300 C   0  0  0  0  0  3  0  0  0  0  0  0
  194.9000  176.0650  136.1600 C   0  0  1  0  0  3  0  0  0  0  0  0
  195.1820  173.8110  138.0570 C   0  0  1  0  0  3  0  0  0  0  0  0
  192.8750  174.7820  136.6490 O   0  0  0  0  0  1  0  0  0  0  0  0
  193.8080  175.6800  137.1910 C   0  0  1  0  0  3  0  0  0  0  0  0
  196.0020  175.0360  136.0520 C   0  0  0  0  0  3  0  0  0  0  0  0
  194.3460  176.2740  134.8940 O   0  0  0  0  0  0  0  0  0  0  0  0
  193.7850  177.5260  134.9020 N   0  0  0  0  0  2  0  0  0  0  0  0
  195.9140  178.6560  134.5180 O   0  0  0  0  0  0  0  0  0  0  0  0
  193.9520  179.8160  134.7340 O   0  0  0  0  0  1  0  0  0  0  0  0
  194.5410  178.7110  134.7640 C   0  0  0  0  0  0  0  0  0  0  0  0
  197.2400  168.8040  141.7300 O   0  0  0  0  0  0  0  0  0  0  0  0
  196.6930  168.1690  140.5950 C   0  0  0  0  0  1  0  0  0  0  0  0
  2  1  1  1  0  0  0
  2 35  1  0  0  0  0
  3 23  1  1  0  0  0
  4  7  1  0  0  0  0
  5 17  1  0  0  0  0
  6  5  1  0  0  0  0
  6 11  1  0  0  0  0
  7 24  1  1  0  0  0
  7 20  1  0  0  0  0
  9  1  1  6  0  0  0
  9  3  1  0  0  0  0
 10 20  1  0  0  0  0
 11 18  1  0  0  0  0
 12 19  2  0  0  0  0
 12 13  1  0  0  0  0
 13  6  2  0  0  0  0
 14  5  2  0  0  0  0
 15 11  2  0  0  0  0
 16  7  1  0  0  0  0
 16 10  1  0  0  0  0
 17  4  1  6  0  0  0
 17 18  1  0  0  0  0
 18  9  1  0  0  0  0
 19 14  1  0  0  0  0
 20  3  1  0  0  0  0
 20  8  1  1  0  0  0
 23 21  1  0  0  0  0
 23 22  1  1  0  0  0
 25 24  1  0  0  0  0
 26 27  1  0  0  0  0
 27 25  1  0  0  0  0
 28 31  1  6  0  0  0
 28 32  1  0  0  0  0
 29 28  1  0  0  0  0
 29 32  1  0  0  0  0
 29 33  1  1  0  0  0
 30 29  1  0  0  0  0
 32  2  1  6  0  0  0
 35 34  2  0  0  0  0
 36 35  1  0  0  0  0
 37 38  1  1  0  0  0
 37 42  1  0  0  0  0
 39 41  1  0  0  0  0
 39 36  1  1  0  0  0
 40 61  1  6  0  0  0
 40 43  1  0  0  0  0
 42 39  1  0  0  0  0
 43 41  1  0  0  0  0
 44 37  1  0  0  0  0
 44 40  1  0  0  0  0
 45 46  1  0  0  0  0
 46 47  1  1  0  0  0
 46 37  1  0  0  0  0
 48 47  1  6  0  0  0
 48 45  1  0  0  0  0
 48 46  1  0  0  0  0
 51 56  1  6  0  0  0
 51 54  1  0  0  0  0
 52 50  1  6  0  0  0
 52 49  1  0  0  0  0
 52 48  1  0  0  0  0
 54 53  1  6  0  0  0
 54 49  1  0  0  0  0
 55 51  1  0  0  0  0
 55 50  2  0  0  0  0
 56 57  1  0  0  0  0
 58 60  2  0  0  0  0
 59 60  1  0  0  0  0
 60 57  1  0  0  0  0
 62 61  1  0  0  0  0
M  END
>  <MODEL>
8

>  <REMARK>
 VINA RESULT:      -6.0      3.121      8.767
  Name = 
  14 active torsions:
  status: ('A' for Active; 'I' for Inactive)
    1  A    between atoms: N_1  and  O_62
    2  A    between atoms: C_2  and  C_19
    3  A    between atoms: C_3  and  C_28
    4  A    between atoms: C_11  and  O_46
    5  A    between atoms: C_13  and  C_18
    6  A    between atoms: C_14  and  C_34
    7  A    between atoms: C_14  and  C_55
    8  A    between atoms: C_16  and  C_55
    9  A    between atoms: C_23  and  O_62
   10  A    between atoms: C_24  and  C_58
   11  A    between atoms: O_32  and  C_36
   12  A    between atoms: C_34  and  C_53
   13  A    between atoms: C_38  and  O_44
   14  A    between atoms: C_38  and  O_46
                            x       y       z     vdW  Elec       q    Type
                         _______ _______ _______ _____ _____    ______ ____

>  <TORSDO>
F 14

$$$$
=
 OpenBabel11062423023D

 62 70  0  0  1  0  0  0  0  0999 V2000
  191.5110  172.5440  141.6210 C   0  0  0  0  0  2  0  0  0  0  0  0
  190.5380  173.1410  142.3400 C   0  0  1  0  0  3  0  0  0  0  0  0
  193.3930  170.8640  141.9360 C   0  0  2  0  0  3  0  0  0  0  0  0
  195.5760  172.4670  140.2010 C   0  0  0  0  0  2  0  0  0  0  0  0
  196.0300  174.0260  142.0910 C   0  0  0  0  0  0  0  0  0  0  0  0
  195.1730  175.0790  142.3240 C   0  0  0  0  0  0  0  0  0  0  0  0
  194.8580  171.2000  139.6610 C   0  0  2  0  0  0  0  0  0  0  0  0
  194.0980  169.0150  140.5290 F   0  0  0  0  0  0  0  0  0  0  0  0
  192.8850  172.2980  142.1540 C   0  0  1  0  0  3  0  0  0  0  0  0
  192.7470  170.6830  139.4820 C   0  0  0  0  0  2  0  0  0  0  0  0
  193.8480  174.6690  141.9330 C   0  0  0  0  0  0  0  0  0  0  0  0
  196.9810  176.4540  143.0850 C   0  0  0  0  0  3  0  0  0  0  0  0
  195.6020  176.3090  142.8160 C   0  0  0  0  0  3  0  0  0  0  0  0
  197.4100  174.1540  142.3260 C   0  0  0  0  0  3  0  0  0  0  0  0
  193.1150  175.4240  141.2700 O   0  0  0  0  0  0  0  0  0  0  0  0
  193.7100  171.6050  138.7350 C   0  0  0  0  0  2  0  0  0  0  0  0
  195.2680  172.8080  141.6460 C   0  0  1  0  0  3  0  0  0  0  0  0
  193.8760  173.2520  141.6860 N   0  0  0  0  0  0  0  0  0  0  0  0
  197.8720  175.3790  142.8390 C   0  0  0  0  0  3  0  0  0  0  0  0
  193.8220  170.3850  140.5140 C   0  0  1  0  0  0  0  0  0  0  0  0
  191.4160  169.5260  142.3400 O   0  0  0  0  0  1  0  0  0  0  0  0
  192.6880  170.1270  144.2640 C   0  0  0  0  0  1  0  0  0  0  0  0
  192.7140  169.7690  142.7940 C   0  0  2  0  0  3  0  0  0  0  0  0
  195.8680  170.4410  138.9830 O   0  0  0  0  0  0  0  0  0  0  0  0
  195.5580  170.1300  137.6470 C   0  0  0  0  0  2  0  0  0  0  0  0
  196.7640  170.5780  135.8380 C   0  0  0  0  0  1  0  0  0  0  0  0
  196.7060  169.7220  136.9520 O   0  0  0  0  0  0  0  0  0  0  0  0
  188.0750  173.9240  141.7380 C   0  0  2  0  0  3  0  0  0  0  0  0
  188.7130  173.2620  140.5310 C   0  0  1  0  0  0  0  0  0  0  0  0
  189.6380  174.0300  139.8110 O   0  0  0  0  0  1  0  0  0  0  0  0
  188.5500  175.2390  141.8360 O   0  0  0  0  0  1  0  0  0  0  0  0
  189.1250  172.7880  141.9210 C   0  0  1  0  0  3  0  0  0  0  0  0
  187.8220  172.3110  139.7440 C   0  0  0  0  0  1  0  0  0  0  0  0
  190.3450  172.7430  144.6690 O   0  0  0  0  0  0  0  0  0  0  0  0
  190.7740  173.5070  143.7600 C   0  0  0  0  0  0  0  0  0  0  0  0
  191.5480  174.7560  144.0950 C   0  0  0  0  0  2  0  0  0  0  0  0
  189.0110  176.0000  146.3090 C   0  0  2  0  0  0  0  0  0  0  0  0
  188.1940  175.3990  147.2740 O   0  0  0  0  0  1  0  0  0  0  0  0
  191.0910  175.6470  145.2770 C   0  0  2  0  0  3  0  0  0  0  0  0
  190.5470  177.0150  147.7580 C   0  0  2  0  0  3  0  0  0  0  0  0
  192.2420  175.9430  146.2180 C   0  0  0  0  0  2  0  0  0  0  0  0
  190.0480  175.0640  146.0170 O   0  0  0  0  0  0  0  0  0  0  0  0
  191.9170  177.1670  147.0680 C   0  0  0  0  0  2  0  0  0  0  0  0
  189.4870  177.2290  146.8490 O   0  0  0  0  0  0  0  0  0  0  0  0
  186.6600  176.1800  145.5270 C   0  0  0  0  0  2  0  0  0  0  0  0
  188.0850  176.2950  145.0800 C   0  0  2  0  0  0  0  0  0  0  0  0
  188.4990  177.6210  144.5000 C   0  0  0  0  0  2  0  0  0  0  0  0
  187.1360  177.5710  145.1330 C   0  0  2  0  0  0  0  0  0  0  0  0
  185.8970  176.9240  142.9000 C   0  0  0  0  0  2  0  0  0  0  0  0
  184.9480  178.6550  144.4810 C   0  0  0  0  0  3  0  0  0  0  0  0
  183.7280  178.1270  142.3560 C   0  0  1  0  0  3  0  0  0  0  0  0
  186.1900  177.9610  143.9880 C   0  0  1  0  0  3  0  0  0  0  0  0
  185.8340  178.6470  141.2230 O   0  0  0  0  0  1  0  0  0  0  0  0
  185.0820  177.6120  141.8010 C   0  0  1  0  0  3  0  0  0  0  0  0
  183.8490  178.7600  143.7230 C   0  0  0  0  0  3  0  0  0  0  0  0
  183.1410  179.0440  141.4780 O   0  0  0  0  0  0  0  0  0  0  0  0
  181.7860  178.9900  141.6880 N   0  0  0  0  0  2  0  0  0  0  0  0
  181.3850  177.5420  139.7660 O   0  0  0  0  0  0  0  0  0  0  0  0
  179.6810  178.2530  141.1190 O   0  0  0  0  0  1  0  0  0  0  0  0
  180.9010  178.2960  140.8360 C   0  0  0  0  0  0  0  0  0  0  0  0
  190.4200  177.8410  148.9100 O   0  0  0  0  0  0  0  0  0  0  0  0
  191.6770  177.9210  149.5470 C   0  0  0  0  0  1  0  0  0  0  0  0
  2  1  1  1  0  0  0
  2 35  1  0  0  0  0
  3  9  1  0  0  0  0
  3 23  1  6  0  0  0
  5  6  2  0  0  0  0
  5 14  1  0  0  0  0
  6 13  1  0  0  0  0
  7 24  1  6  0  0  0
  7  4  1  0  0  0  0
  7 20  1  0  0  0  0
  9  1  1  6  0  0  0
 10 20  1  0  0  0  0
 11  6  1  0  0  0  0
 13 12  2  0  0  0  0
 14 19  2  0  0  0  0
 15 11  2  0  0  0  0
 16 10  1  0  0  0  0
 16  7  1  0  0  0  0
 17  4  1  6  0  0  0
 17 18  1  0  0  0  0
 17  5  1  0  0  0  0
 18 11  1  0  0  0  0
 18  9  1  0  0  0  0
 19 12  1  0  0  0  0
 20  8  1  1  0  0  0
 20  3  1  0  0  0  0
 21 23  1  0  0  0  0
 23 22  1  1  0  0  0
 25 24  1  0  0  0  0
 26 27  1  0  0  0  0
 27 25  1  0  0  0  0
 28 31  1  1  0  0  0
 28 32  1  0  0  0  0
 29 33  1  6  0  0  0
 29 28  1  0  0  0  0
 29 32  1  0  0  0  0
 30 29  1  0  0  0  0
 32  2  1  1  0  0  0
 35 36  1  0  0  0  0
 35 34  2  0  0  0  0
 37 44  1  0  0  0  0
 37 38  1  1  0  0  0
 39 36  1  6  0  0  0
 39 42  1  0  0  0  0
 39 41  1  0  0  0  0
 40 61  1  1  0  0  0
 41 43  1  0  0  0  0
 42 37  1  0  0  0  0
 43 40  1  0  0  0  0
 44 40  1  0  0  0  0
 46 47  1  6  0  0  0
 46 48  1  0  0  0  0
 46 45  1  0  0  0  0
 46 37  1  0  0  0  0
 48 47  1  1  0  0  0
 48 45  1  0  0  0  0
 51 56  1  6  0  0  0
 51 55  1  0  0  0  0
 52 49  1  1  0  0  0
 52 50  1  0  0  0  0
 52 48  1  0  0  0  0
 54 53  1  1  0  0  0
 54 51  1  0  0  0  0
 54 49  1  0  0  0  0
 55 50  2  0  0  0  0
 56 57  1  0  0  0  0
 58 60  2  0  0  0  0
 60 59  1  0  0  0  0
 60 57  1  0  0  0  0
 61 62  1  0  0  0  0
M  END
>  <MODEL>
9

>  <REMARK>
 VINA RESULT:      -5.8      2.023      4.525
  Name = 
  14 active torsions:
  status: ('A' for Active; 'I' for Inactive)
    1  A    between atoms: N_1  and  O_62
    2  A    between atoms: C_2  and  C_19
    3  A    between atoms: C_3  and  C_28
    4  A    between atoms: C_11  and  O_46
    5  A    between atoms: C_13  and  C_18
    6  A    between atoms: C_14  and  C_34
    7  A    between atoms: C_14  and  C_55
    8  A    between atoms: C_16  and  C_55
    9  A    between atoms: C_23  and  O_62
   10  A    between atoms: C_24  and  C_58
   11  A    between atoms: O_32  and  C_36
   12  A    between atoms: C_34  and  C_53
   13  A    between atoms: C_38  and  O_44
   14  A    between atoms: C_38  and  O_46
                            x       y       z     vdW  Elec       q    Type
                         _______ _______ _______ _____ _____    ______ ____

>  <TORSDO>
F 14

$$$$
