=
 OpenBabel11062423123D

 34 39  0  0  1  0  0  0  0  0999 V2000
  187.6280  177.3730  145.2590 C   0  0  0  0  0  3  0  0  0  0  0  0
  187.5520  175.5540  143.1600 C   0  0  0  0  0  3  0  0  0  0  0  0
  185.9350  177.4610  143.5480 N   0  0  0  0  0  0  0  0  0  0  0  0
  189.4110  173.9250  142.7590 C   0  0  0  0  0  2  0  0  0  0  0  0
  189.3260  176.5600  146.7660 C   0  0  0  0  0  0  0  0  0  0  0  0
  188.4110  174.9270  142.2500 C   0  0  0  0  0  0  0  0  0  0  0  0
  185.6840  178.0480  141.2040 C   0  0  1  0  0  3  0  0  0  0  0  0
  186.3710  177.7870  144.8870 C   0  0  0  0  0  0  0  0  0  0  0  0
  190.8350  174.9330  145.7900 C   0  0  0  0  0  0  0  0  0  0  0  0
  189.7140  175.7270  145.7150 C   0  0  0  0  0  3  0  0  0  0  0  0
  186.6010  176.8880  141.3940 C   0  0  0  0  0  0  0  0  0  0  0  0
  184.5900  177.6600  140.4220 O   0  0  0  0  0  1  0  0  0  0  0  0
  185.5470  178.3500  145.8730 C   0  0  0  0  0  3  0  0  0  0  0  0
  186.6660  176.5520  142.7150 C   0  0  0  0  0  0  0  0  0  0  0  0
  186.0190  178.4340  147.2040 C   0  0  0  0  0  3  0  0  0  0  0  0
  190.0960  176.5360  147.9290 C   0  0  0  0  0  3  0  0  0  0  0  0
  191.1800  174.0300  144.6310 C   0  0  0  0  0  2  0  0  0  0  0  0
  190.6950  174.5930  143.2750 C   0  0  1  0  0  3  0  0  0  0  0  0
  187.4410  176.2800  140.4530 C   0  0  0  0  0  3  0  0  0  0  0  0
  188.3530  175.2940  140.8890 C   0  0  0  0  0  3  0  0  0  0  0  0
  187.2870  177.9170  147.5580 C   0  0  0  0  0  3  0  0  0  0  0  0
  188.0990  177.3660  146.5580 C   0  0  0  0  0  0  0  0  0  0  0  0
  191.1920  175.7210  147.9790 N   0  0  0  0  0  0  0  0  0  0  0  0
  185.2680  178.4220  142.6650 C   0  0  1  0  0  3  0  0  0  0  0  0
  191.5500  174.9420  146.9470 N   0  0  0  0  0  0  0  0  0  0  0  0
  183.4440  179.4170  143.8910 O   0  0  0  0  0  1  0  0  0  0  0  0
  183.7610  178.4570  142.9260 C   0  0  0  0  0  2  0  0  0  0  0  0
  191.7920  174.5710  142.2430 C   0  0  0  0  0  0  0  0  0  0  0  0
  191.9110  173.5690  141.5600 O   0  0  0  0  0  0  0  0  0  0  0  0
  194.6570  175.6320  143.7630 O   0  0  0  0  0  0  0  0  0  0  0  0
  193.6410  175.9250  143.0800 C   0  0  0  0  0  0  0  0  0  0  0  0
  192.7710  175.7010  142.0170 C   0  0  2  0  0  3  0  0  0  0  0  0
  191.5280  177.8950  143.1370 C   0  0  0  0  0  1  0  0  0  0  0  0
  192.4110  176.7960  142.8060 N   0  0  0  0  0  0  0  0  0  0  0  0
  1 22  1  0  0  0  0
  3  8  1  0  0  0  0
  4 18  1  0  0  0  0
  5 16  1  0  0  0  0
  6  4  1  0  0  0  0
  6  2  2  0  0  0  0
  7 12  1  6  0  0  0
  7 11  1  0  0  0  0
  7 24  1  0  0  0  0
  8  1  2  0  0  0  0
  8 13  1  0  0  0  0
  9 25  2  0  0  0  0
 10  9  1  0  0  0  0
 10  5  2  0  0  0  0
 11 14  2  0  0  0  0
 13 15  2  0  0  0  0
 14  2  1  0  0  0  0
 14  3  1  0  0  0  0
 15 21  1  0  0  0  0
 16 23  2  0  0  0  0
 17  9  1  0  0  0  0
 18 28  1  6  0  0  0
 18 17  1  0  0  0  0
 19 20  2  0  0  0  0
 19 11  1  0  0  0  0
 20  6  1  0  0  0  0
 22  5  1  0  0  0  0
 22 21  2  0  0  0  0
 24 27  1  6  0  0  0
 24  3  1  0  0  0  0
 25 23  1  0  0  0  0
 27 26  1  0  0  0  0
 29 28  2  0  0  0  0
 31 30  2  0  0  0  0
 32 28  1  1  0  0  0
 32 34  1  0  0  0  0
 32 31  1  0  0  0  0
 34 31  1  0  0  0  0
 34 33  1  0  0  0  0
M  END
>  <MODEL>
1

>  <REMARK>
 VINA RESULT:      -8.1      0.000      0.000
  Name = 
  3 active torsions:
  status: ('A' for Active; 'I' for Inactive)
    1  A    between atoms: C_9  and  C_13
    2  A    between atoms: C_13  and  C_24
    3  A    between atoms: C_22  and  C_33
                            x       y       z     vdW  Elec       q    Type
                         _______ _______ _______ _____ _____    ______ ____

>  <TORSDO>
F 3

$$$$
=
 OpenBabel11062423123D

 34 39  0  0  1  0  0  0  0  0999 V2000
  191.5100  173.8890  144.2450 C   0  0  0  0  0  3  0  0  0  0  0  0
  190.2000  175.4920  142.3910 C   0  0  0  0  0  3  0  0  0  0  0  0
  191.3560  173.2910  141.9160 N   0  0  0  0  0  0  0  0  0  0  0  0
  188.8450  177.4770  143.0910 C   0  0  0  0  0  2  0  0  0  0  0  0
  191.5870  175.1760  146.2830 C   0  0  0  0  0  0  0  0  0  0  0  0
  189.0230  176.2370  142.2580 C   0  0  0  0  0  0  0  0  0  0  0  0
  189.7230  172.5030  140.3000 C   0  0  1  0  0  3  0  0  0  0  0  0
  192.0240  173.1680  143.1930 C   0  0  0  0  0  0  0  0  0  0  0  0
  190.0380  177.0390  146.3490 C   0  0  0  0  0  0  0  0  0  0  0  0
  190.6400  176.0030  145.6750 C   0  0  0  0  0  3  0  0  0  0  0  0
  189.3800  173.8540  140.8260 C   0  0  0  0  0  0  0  0  0  0  0  0
  189.9110  172.5710  138.9150 O   0  0  0  0  0  1  0  0  0  0  0  0
  193.2410  172.4980  143.3880 C   0  0  0  0  0  3  0  0  0  0  0  0
  190.3510  174.2870  141.6820 C   0  0  0  0  0  0  0  0  0  0  0  0
  193.9050  172.6180  144.6320 C   0  0  0  0  0  3  0  0  0  0  0  0
  191.9420  175.4580  147.6020 C   0  0  0  0  0  3  0  0  0  0  0  0
  189.0480  177.9160  145.6230 C   0  0  0  0  0  2  0  0  0  0  0  0
  188.3040  177.1640  144.4950 C   0  0  1  0  0  3  0  0  0  0  0  0
  188.1900  174.5760  140.6630 C   0  0  0  0  0  3  0  0  0  0  0  0
  188.0140  175.7750  141.3880 C   0  0  0  0  0  3  0  0  0  0  0  0
  193.3820  173.4390  145.6570 C   0  0  0  0  0  3  0  0  0  0  0  0
  192.1610  174.0940  145.4470 C   0  0  0  0  0  0  0  0  0  0  0  0
  191.3390  176.5080  148.2370 N   0  0  0  0  0  0  0  0  0  0  0  0
  191.0410  172.1440  141.0620 C   0  0  1  0  0  3  0  0  0  0  0  0
  190.4200  177.2760  147.6330 N   0  0  0  0  0  0  0  0  0  0  0  0
  192.9900  172.9080  139.8610 O   0  0  0  0  0  1  0  0  0  0  0  0
  192.2300  171.7760  140.1710 C   0  0  0  0  0  2  0  0  0  0  0  0
  186.8140  177.3700  144.5810 C   0  0  0  0  0  0  0  0  0  0  0  0
  186.1260  176.4190  144.9080 O   0  0  0  0  0  0  0  0  0  0  0  0
  184.0530  178.9910  145.7620 O   0  0  0  0  0  0  0  0  0  0  0  0
  184.8360  178.7830  144.7990 C   0  0  0  0  0  0  0  0  0  0  0  0
  186.1150  178.6710  144.2590 C   0  0  2  0  0  3  0  0  0  0  0  0
  184.6400  178.0960  141.9990 C   0  0  0  0  0  1  0  0  0  0  0  0
  185.0980  178.4390  143.3300 N   0  0  0  0  0  0  0  0  0  0  0  0
  1 22  1  0  0  0  0
  3  8  1  0  0  0  0
  4 18  1  0  0  0  0
  5 16  1  0  0  0  0
  6  2  1  0  0  0  0
  6  4  1  0  0  0  0
  7 12  1  6  0  0  0
  7 11  1  0  0  0  0
  7 24  1  0  0  0  0
  8 13  1  0  0  0  0
  8  1  2  0  0  0  0
  9 25  2  0  0  0  0
 10  5  2  0  0  0  0
 10  9  1  0  0  0  0
 11 14  1  0  0  0  0
 13 15  2  0  0  0  0
 14  3  1  0  0  0  0
 14  2  2  0  0  0  0
 15 21  1  0  0  0  0
 16 23  2  0  0  0  0
 17  9  1  0  0  0  0
 18 28  1  6  0  0  0
 18 17  1  0  0  0  0
 19 11  2  0  0  0  0
 19 20  1  0  0  0  0
 20  6  2  0  0  0  0
 22 21  2  0  0  0  0
 22  5  1  0  0  0  0
 24 27  1  6  0  0  0
 24  3  1  0  0  0  0
 25 23  1  0  0  0  0
 26 27  1  0  0  0  0
 28 29  2  0  0  0  0
 31 30  2  0  0  0  0
 32 28  1  1  0  0  0
 32 31  1  0  0  0  0
 33 34  1  0  0  0  0
 34 32  1  0  0  0  0
 34 31  1  0  0  0  0
M  END
>  <MODEL>
2

>  <REMARK>
 VINA RESULT:      -8.0      2.126      6.584
  Name = 
  3 active torsions:
  status: ('A' for Active; 'I' for Inactive)
    1  A    between atoms: C_9  and  C_13
    2  A    between atoms: C_13  and  C_24
    3  A    between atoms: C_22  and  C_33
                            x       y       z     vdW  Elec       q    Type
                         _______ _______ _______ _____ _____    ______ ____

>  <TORSDO>
F 3

$$$$
=
 OpenBabel11062423123D

 34 39  0  0  1  0  0  0  0  0999 V2000
  189.3780  175.4970  143.2540 C   0  0  0  0  0  3  0  0  0  0  0  0
  191.2350  173.4300  143.3170 C   0  0  0  0  0  3  0  0  0  0  0  0
  189.5480  173.8730  141.4830 N   0  0  0  0  0  0  0  0  0  0  0  0
  193.0330  173.3270  145.0560 C   0  0  0  0  0  2  0  0  0  0  0  0
  189.5000  176.5500  145.4200 C   0  0  0  0  0  0  0  0  0  0  0  0
  192.5810  173.2050  143.6260 C   0  0  0  0  0  0  0  0  0  0  0  0
  191.0200  173.2650  139.6480 C   0  0  1  0  0  3  0  0  0  0  0  0
  188.7700  174.8590  142.1990 C   0  0  0  0  0  0  0  0  0  0  0  0
  191.5010  176.0190  146.6800 C   0  0  0  0  0  0  0  0  0  0  0  0
  190.6880  175.8360  145.5860 C   0  0  0  0  0  3  0  0  0  0  0  0
  191.6850  173.1100  140.9720 C   0  0  0  0  0  0  0  0  0  0  0  0
  190.9730  172.0270  138.9970 O   0  0  0  0  0  1  0  0  0  0  0  0
  187.4020  175.0900  141.9920 C   0  0  0  0  0  3  0  0  0  0  0  0
  190.8090  173.4010  141.9770 C   0  0  0  0  0  0  0  0  0  0  0  0
  186.6980  175.9290  142.8880 C   0  0  0  0  0  3  0  0  0  0  0  0
  189.1320  177.4400  146.4290 C   0  0  0  0  0  3  0  0  0  0  0  0
  192.7540  175.1910  146.8160 C   0  0  0  0  0  2  0  0  0  0  0  0
  193.3460  174.7800  145.4470 C   0  0  1  0  0  3  0  0  0  0  0  0
  193.0400  172.8750  141.2430 C   0  0  0  0  0  3  0  0  0  0  0  0
  193.4860  172.9260  142.5820 C   0  0  0  0  0  3  0  0  0  0  0  0
  187.3460  176.4960  144.0100 C   0  0  0  0  0  3  0  0  0  0  0  0
  188.7150  176.2610  144.1950 C   0  0  0  0  0  0  0  0  0  0  0  0
  189.9520  177.5840  147.5140 N   0  0  0  0  0  0  0  0  0  0  0  0
  189.5960  173.7950  140.0210 C   0  0  1  0  0  3  0  0  0  0  0  0
  191.0970  176.8950  147.6390 N   0  0  0  0  0  0  0  0  0  0  0  0
  188.0500  173.4200  138.2060 O   0  0  0  0  0  1  0  0  0  0  0  0
  188.4290  172.9690  139.4740 C   0  0  0  0  0  2  0  0  0  0  0  0
  194.8210  175.0760  145.3700 C   0  0  0  0  0  0  0  0  0  0  0  0
  195.5690  174.4310  146.0840 O   0  0  0  0  0  0  0  0  0  0  0  0
  194.1530  176.3170  142.2620 O   0  0  0  0  0  0  0  0  0  0  0  0
  195.0050  176.0970  143.1610 C   0  0  0  0  0  0  0  0  0  0  0  0
  195.4310  176.1400  144.4860 C   0  0  2  0  0  3  0  0  0  0  0  0
  197.6270  174.9010  143.3670 C   0  0  0  0  0  1  0  0  0  0  0  0
  196.3610  175.5550  143.6240 N   0  0  0  0  0  0  0  0  0  0  0  0
  1 22  1  0  0  0  0
  2  6  1  0  0  0  0
  3 14  1  0  0  0  0
  3  8  1  0  0  0  0
  4 18  1  0  0  0  0
  5 10  2  0  0  0  0
  5 16  1  0  0  0  0
  6  4  1  0  0  0  0
  7 12  1  1  0  0  0
  7 24  1  0  0  0  0
  7 11  1  0  0  0  0
  8  1  2  0  0  0  0
  9 17  1  0  0  0  0
  9 25  2  0  0  0  0
 10  9  1  0  0  0  0
 11 19  2  0  0  0  0
 11 14  1  0  0  0  0
 13  8  1  0  0  0  0
 13 15  2  0  0  0  0
 14  2  2  0  0  0  0
 15 21  1  0  0  0  0
 16 23  2  0  0  0  0
 18 28  1  1  0  0  0
 18 17  1  0  0  0  0
 19 20  1  0  0  0  0
 20  6  2  0  0  0  0
 21 22  2  0  0  0  0
 22  5  1  0  0  0  0
 23 25  1  0  0  0  0
 24 27  1  1  0  0  0
 24  3  1  0  0  0  0
 26 27  1  0  0  0  0
 28 29  2  0  0  0  0
 30 31  2  0  0  0  0
 31 34  1  0  0  0  0
 31 32  1  0  0  0  0
 32 28  1  1  0  0  0
 33 34  1  0  0  0  0
 34 32  1  0  0  0  0
M  END
>  <MODEL>
3

>  <REMARK>
 VINA RESULT:      -7.8      2.968      4.995
  Name = 
  3 active torsions:
  status: ('A' for Active; 'I' for Inactive)
    1  A    between atoms: C_9  and  C_13
    2  A    between atoms: C_13  and  C_24
    3  A    between atoms: C_22  and  C_33
                            x       y       z     vdW  Elec       q    Type
                         _______ _______ _______ _____ _____    ______ ____

>  <TORSDO>
F 3

$$$$
=
 OpenBabel11062423123D

 34 39  0  0  1  0  0  0  0  0999 V2000
  189.8360  175.0700  143.2630 C   0  0  0  0  0  3  0  0  0  0  0  0
  192.1290  176.4010  144.0940 C   0  0  0  0  0  3  0  0  0  0  0  0
  189.8760  176.4370  145.2470 N   0  0  0  0  0  0  0  0  0  0  0  0
  194.3500  176.0030  143.0090 C   0  0  0  0  0  2  0  0  0  0  0  0
  190.3580  174.1660  141.0890 C   0  0  0  0  0  0  0  0  0  0  0  0
  193.5040  176.1840  144.2400 C   0  0  0  0  0  0  0  0  0  0  0  0
  190.7600  176.4110  147.5090 C   0  0  1  0  0  3  0  0  0  0  0  0
  189.1270  175.8100  144.1800 C   0  0  0  0  0  0  0  0  0  0  0  0
  192.7270  174.0760  140.5850 C   0  0  0  0  0  0  0  0  0  0  0  0
  191.6880  174.4530  141.4030 C   0  0  0  0  0  3  0  0  0  0  0  0
  191.8440  176.4140  146.4860 C   0  0  0  0  0  0  0  0  0  0  0  0
  190.8660  177.5530  148.3110 O   0  0  0  0  0  1  0  0  0  0  0  0
  187.7660  176.0350  143.9300 C   0  0  0  0  0  3  0  0  0  0  0  0
  191.3090  176.4910  145.2330 C   0  0  0  0  0  0  0  0  0  0  0  0
  187.1880  175.5330  142.7400 C   0  0  0  0  0  3  0  0  0  0  0  0
  190.1030  173.5110  139.8840 C   0  0  0  0  0  3  0  0  0  0  0  0
  194.1390  174.4470  140.9660 C   0  0  0  0  0  2  0  0  0  0  0  0
  194.3330  174.5550  142.4960 C   0  0  1  0  0  3  0  0  0  0  0  0
  193.2160  176.2010  146.6720 C   0  0  0  0  0  3  0  0  0  0  0  0
  194.0480  176.0840  145.5380 C   0  0  0  0  0  3  0  0  0  0  0  0
  187.9750  174.8500  141.7840 C   0  0  0  0  0  3  0  0  0  0  0  0
  189.3320  174.6270  142.0550 C   0  0  0  0  0  0  0  0  0  0  0  0
  191.1570  173.1680  139.0840 N   0  0  0  0  0  0  0  0  0  0  0  0
  189.4530  176.4080  146.6490 C   0  0  1  0  0  3  0  0  0  0  0  0
  192.4280  173.4420  139.4190 N   0  0  0  0  0  0  0  0  0  0  0  0
  187.2020  177.0330  147.2500 O   0  0  0  0  0  1  0  0  0  0  0  0
  188.4700  177.5400  146.9520 C   0  0  0  0  0  2  0  0  0  0  0  0
  195.5400  173.7820  142.9580 C   0  0  0  0  0  0  0  0  0  0  0  0
  196.6340  174.1470  142.5660 O   0  0  0  0  0  0  0  0  0  0  0  0
  193.1910  172.4010  145.0130 O   0  0  0  0  0  0  0  0  0  0  0  0
  194.4100  172.5620  144.7440 C   0  0  0  0  0  0  0  0  0  0  0  0
  195.4790  172.5650  143.8540 C   0  0  2  0  0  3  0  0  0  0  0  0
  196.8160  173.3500  146.1370 C   0  0  0  0  0  1  0  0  0  0  0  0
  195.8400  172.9240  145.1540 N   0  0  0  0  0  0  0  0  0  0  0  0
  1  8  1  0  0  0  0
  2  6  2  0  0  0  0
  2 14  1  0  0  0  0
  3 24  1  0  0  0  0
  4  6  1  0  0  0  0
  5 10  1  0  0  0  0
  5 22  1  0  0  0  0
  6 20  1  0  0  0  0
  7 12  1  1  0  0  0
  8  3  1  0  0  0  0
  9 17  1  0  0  0  0
  9 10  2  0  0  0  0
 11 19  1  0  0  0  0
 11  7  1  0  0  0  0
 13  8  2  0  0  0  0
 14  3  1  0  0  0  0
 14 11  2  0  0  0  0
 15 13  1  0  0  0  0
 16  5  2  0  0  0  0
 17 18  1  0  0  0  0
 18 28  1  6  0  0  0
 18  4  1  0  0  0  0
 20 19  2  0  0  0  0
 21 22  1  0  0  0  0
 21 15  2  0  0  0  0
 22  1  2  0  0  0  0
 23 25  2  0  0  0  0
 23 16  1  0  0  0  0
 24 27  1  1  0  0  0
 24  7  1  0  0  0  0
 25  9  1  0  0  0  0
 27 26  1  0  0  0  0
 29 28  2  0  0  0  0
 31 30  2  0  0  0  0
 31 34  1  0  0  0  0
 32 28  1  6  0  0  0
 32 31  1  0  0  0  0
 32 34  1  0  0  0  0
 34 33  1  0  0  0  0
M  END
>  <MODEL>
4

>  <REMARK>
 VINA RESULT:      -7.7      2.945      6.084
  Name = 
  3 active torsions:
  status: ('A' for Active; 'I' for Inactive)
    1  A    between atoms: C_9  and  C_13
    2  A    between atoms: C_13  and  C_24
    3  A    between atoms: C_22  and  C_33
                            x       y       z     vdW  Elec       q    Type
                         _______ _______ _______ _____ _____    ______ ____

>  <TORSDO>
F 3

$$$$
=
 OpenBabel11062423123D

 34 39  0  0  1  0  0  0  0  0999 V2000
  187.3780  176.0560  142.1490 C   0  0  0  0  0  3  0  0  0  0  0  0
  189.3870  176.0500  144.0680 C   0  0  0  0  0  3  0  0  0  0  0  0
  187.1510  177.2220  144.2450 N   0  0  0  0  0  0  0  0  0  0  0  0
  191.4040  174.5820  143.8590 C   0  0  0  0  0  2  0  0  0  0  0  0
  188.3330  175.0060  140.2000 C   0  0  0  0  0  0  0  0  0  0  0  0
  190.2870  175.1690  144.6780 C   0  0  0  0  0  0  0  0  0  0  0  0
  186.8210  176.7600  146.6070 C   0  0  1  0  0  3  0  0  0  0  0  0
  186.7600  177.0560  142.8630 C   0  0  0  0  0  0  0  0  0  0  0  0
  190.3470  173.7300  140.6360 C   0  0  0  0  0  0  0  0  0  0  0  0
  189.3530  174.5830  141.0550 C   0  0  0  0  0  3  0  0  0  0  0  0
  188.1140  176.2130  146.1060 C   0  0  0  0  0  0  0  0  0  0  0  0
  187.0670  177.6950  147.6190 O   0  0  0  0  0  1  0  0  0  0  0  0
  185.9200  177.9370  142.1670 C   0  0  0  0  0  3  0  0  0  0  0  0
  188.2900  176.5460  144.7940 C   0  0  0  0  0  0  0  0  0  0  0  0
  185.7710  177.7910  140.7670 C   0  0  0  0  0  3  0  0  0  0  0  0
  188.3720  174.5650  138.8770 C   0  0  0  0  0  3  0  0  0  0  0  0
  191.4390  173.3380  141.6010 C   0  0  0  0  0  2  0  0  0  0  0  0
  190.9600  173.3390  143.0710 C   0  0  1  0  0  3  0  0  0  0  0  0
  188.9960  175.3370  146.7520 C   0  0  0  0  0  3  0  0  0  0  0  0
  190.0880  174.8120  146.0280 C   0  0  0  0  0  3  0  0  0  0  0  0
  186.4930  176.8020  140.0600 C   0  0  0  0  0  3  0  0  0  0  0  0
  187.3210  175.9250  140.7740 C   0  0  0  0  0  0  0  0  0  0  0  0
  189.3850  173.7340  138.4880 N   0  0  0  0  0  0  0  0  0  0  0  0
  186.1910  177.4150  145.3340 C   0  0  1  0  0  3  0  0  0  0  0  0
  190.3440  173.3310  139.3360 N   0  0  0  0  0  0  0  0  0  0  0  0
  184.4350  179.0700  145.3030 O   0  0  0  0  0  1  0  0  0  0  0  0
  185.8100  178.8900  145.4790 C   0  0  0  0  0  2  0  0  0  0  0  0
  191.3380  172.0630  143.7770 C   0  0  0  0  0  0  0  0  0  0  0  0
  190.5450  171.6000  144.5780 O   0  0  0  0  0  0  0  0  0  0  0  0
  192.5270  168.9590  144.5510 O   0  0  0  0  0  0  0  0  0  0  0  0
  192.7790  170.1730  144.3320 C   0  0  0  0  0  0  0  0  0  0  0  0
  192.6480  171.3360  143.5780 C   0  0  2  0  0  3  0  0  0  0  0  0
  194.2650  172.3060  145.5930 C   0  0  0  0  0  1  0  0  0  0  0  0
  193.4500  171.4960  144.7100 N   0  0  0  0  0  0  0  0  0  0  0  0
  1  8  1  0  0  0  0
  2  6  2  0  0  0  0
  2 14  1  0  0  0  0
  3 14  1  0  0  0  0
  3 24  1  0  0  0  0
  4  6  1  0  0  0  0
  5 22  1  0  0  0  0
  5 10  1  0  0  0  0
  6 20  1  0  0  0  0
  7 12  1  1  0  0  0
  8  3  1  0  0  0  0
  9 10  2  0  0  0  0
  9 17  1  0  0  0  0
 11  7  1  0  0  0  0
 11 19  1  0  0  0  0
 13  8  2  0  0  0  0
 14 11  2  0  0  0  0
 15 13  1  0  0  0  0
 16  5  2  0  0  0  0
 17 18  1  0  0  0  0
 18 28  1  1  0  0  0
 18  4  1  0  0  0  0
 20 19  2  0  0  0  0
 21 15  2  0  0  0  0
 21 22  1  0  0  0  0
 22  1  2  0  0  0  0
 23 16  1  0  0  0  0
 23 25  2  0  0  0  0
 24 27  1  1  0  0  0
 24  7  1  0  0  0  0
 25  9  1  0  0  0  0
 26 27  1  0  0  0  0
 28 29  2  0  0  0  0
 31 30  2  0  0  0  0
 31 34  1  0  0  0  0
 32 28  1  1  0  0  0
 32 31  1  0  0  0  0
 32 34  1  0  0  0  0
 34 33  1  0  0  0  0
M  END
>  <MODEL>
5

>  <REMARK>
 VINA RESULT:      -7.6      2.689      5.344
  Name = 
  3 active torsions:
  status: ('A' for Active; 'I' for Inactive)
    1  A    between atoms: C_9  and  C_13
    2  A    between atoms: C_13  and  C_24
    3  A    between atoms: C_22  and  C_33
                            x       y       z     vdW  Elec       q    Type
                         _______ _______ _______ _____ _____    ______ ____

>  <TORSDO>
F 3

$$$$
=
 OpenBabel11062423123D

 34 39  0  0  1  0  0  0  0  0999 V2000
  190.9830  176.1100  145.4130 C   0  0  0  0  0  3  0  0  0  0  0  0
  189.2800  174.5630  143.8540 C   0  0  0  0  0  3  0  0  0  0  0  0
  188.6220  176.5660  145.2540 N   0  0  0  0  0  0  0  0  0  0  0  0
  190.1520  172.8130  142.2890 C   0  0  0  0  0  2  0  0  0  0  0  0
  193.1030  174.9620  145.4010 C   0  0  0  0  0  0  0  0  0  0  0  0
  189.2290  173.9630  142.5900 C   0  0  0  0  0  0  0  0  0  0  0  0
  186.9960  177.4420  143.6760 C   0  0  1  0  0  3  0  0  0  0  0  0
  189.8690  176.6890  145.9750 C   0  0  0  0  0  0  0  0  0  0  0  0
  193.3400  173.3160  143.6380 C   0  0  0  0  0  0  0  0  0  0  0  0
  192.5790  174.2210  144.3400 C   0  0  0  0  0  3  0  0  0  0  0  0
  187.6250  176.1820  143.1880 C   0  0  0  0  0  0  0  0  0  0  0  0
  185.6150  177.2590  143.8070 O   0  0  0  0  0  1  0  0  0  0  0  0
  189.9860  177.2140  147.2710 C   0  0  0  0  0  3  0  0  0  0  0  0
  188.4840  175.6900  144.1270 C   0  0  0  0  0  0  0  0  0  0  0  0
  191.2170  177.0950  147.9580 C   0  0  0  0  0  3  0  0  0  0  0  0
  194.4290  174.7260  145.7630 C   0  0  0  0  0  3  0  0  0  0  0  0
  192.7030  172.5220  142.5230 C   0  0  0  0  0  2  0  0  0  0  0  0
  191.5440  173.2840  141.8390 C   0  0  1  0  0  3  0  0  0  0  0  0
  187.5430  175.6050  141.9140 C   0  0  0  0  0  3  0  0  0  0  0  0
  188.3550  174.4890  141.6170 C   0  0  0  0  0  3  0  0  0  0  0  0
  192.3110  176.4160  147.3730 C   0  0  0  0  0  3  0  0  0  0  0  0
  192.1790  175.9060  146.0740 C   0  0  0  0  0  0  0  0  0  0  0  0
  195.1520  173.8050  145.0580 N   0  0  0  0  0  0  0  0  0  0  0  0
  187.6970  177.6840  145.0530 C   0  0  1  0  0  3  0  0  0  0  0  0
  194.6270  173.1180  144.0310 N   0  0  0  0  0  0  0  0  0  0  0  0
  186.5220  176.6070  146.8650 O   0  0  0  0  0  1  0  0  0  0  0  0
  186.7530  177.8400  146.2480 C   0  0  0  0  0  2  0  0  0  0  0  0
  191.6820  173.2720  140.3390 C   0  0  0  0  0  0  0  0  0  0  0  0
  192.3740  174.1330  139.8250 O   0  0  0  0  0  0  0  0  0  0  0  0
  192.4200  171.8250  137.3380 O   0  0  0  0  0  0  0  0  0  0  0  0
  191.5360  172.2060  138.1490 C   0  0  0  0  0  0  0  0  0  0  0  0
  190.9960  172.2790  139.4290 C   0  0  2  0  0  3  0  0  0  0  0  0
  189.1210  173.7900  138.0830 C   0  0  0  0  0  1  0  0  0  0  0  0
  190.2450  172.9630  138.4710 N   0  0  0  0  0  0  0  0  0  0  0  0
  1  8  2  0  0  0  0
  1 22  1  0  0  0  0
  2 14  1  0  0  0  0
  3  8  1  0  0  0  0
  4  6  1  0  0  0  0
  5 16  1  0  0  0  0
  5 22  1  0  0  0  0
  6  2  2  0  0  0  0
  7 12  1  1  0  0  0
  7 24  1  0  0  0  0
  8 13  1  0  0  0  0
  9 25  2  0  0  0  0
  9 10  1  0  0  0  0
 10  5  2  0  0  0  0
 11  7  1  0  0  0  0
 11 14  2  0  0  0  0
 13 15  2  0  0  0  0
 14  3  1  0  0  0  0
 17  9  1  0  0  0  0
 18 28  1  6  0  0  0
 18  4  1  0  0  0  0
 18 17  1  0  0  0  0
 19 11  1  0  0  0  0
 20 19  2  0  0  0  0
 20  6  1  0  0  0  0
 21 15  1  0  0  0  0
 22 21  2  0  0  0  0
 23 16  2  0  0  0  0
 24  3  1  0  0  0  0
 24 27  1  1  0  0  0
 25 23  1  0  0  0  0
 27 26  1  0  0  0  0
 29 28  2  0  0  0  0
 30 31  2  0  0  0  0
 31 34  1  0  0  0  0
 31 32  1  0  0  0  0
 32 28  1  1  0  0  0
 33 34  1  0  0  0  0
 34 32  1  0  0  0  0
M  END
>  <MODEL>
6

>  <REMARK>
 VINA RESULT:      -7.5      2.730      4.179
  Name = 
  3 active torsions:
  status: ('A' for Active; 'I' for Inactive)
    1  A    between atoms: C_9  and  C_13
    2  A    between atoms: C_13  and  C_24
    3  A    between atoms: C_22  and  C_33
                            x       y       z     vdW  Elec       q    Type
                         _______ _______ _______ _____ _____    ______ ____

>  <TORSDO>
F 3

$$$$
=
 OpenBabel11062423123D

 34 39  0  0  1  0  0  0  0  0999 V2000
  191.1940  174.5090  142.7160 C   0  0  0  0  0  3  0  0  0  0  0  0
  192.8080  176.2950  144.1060 C   0  0  0  0  0  3  0  0  0  0  0  0
  190.3240  175.9460  144.4440 N   0  0  0  0  0  0  0  0  0  0  0  0
  195.2990  176.2850  143.8610 C   0  0  0  0  0  2  0  0  0  0  0  0
  192.5720  173.6270  140.9450 C   0  0  0  0  0  0  0  0  0  0  0  0
  194.0650  176.3540  144.7180 C   0  0  0  0  0  0  0  0  0  0  0  0
  190.3700  176.1930  146.8600 C   0  0  1  0  0  3  0  0  0  0  0  0
  190.1020  175.1390  143.2640 C   0  0  0  0  0  0  0  0  0  0  0  0
  194.9500  173.9730  141.2610 C   0  0  0  0  0  0  0  0  0  0  0  0
  193.6460  174.1790  141.6460 C   0  0  0  0  0  3  0  0  0  0  0  0
  191.7220  176.3600  146.2560 C   0  0  0  0  0  0  0  0  0  0  0  0
  190.0020  177.3690  147.5240 O   0  0  0  0  0  1  0  0  0  0  0  0
  188.8910  175.0850  142.5590 C   0  0  0  0  0  3  0  0  0  0  0  0
  191.6440  176.2750  144.8960 C   0  0  0  0  0  0  0  0  0  0  0  0
  188.8480  174.4270  141.3070 C   0  0  0  0  0  3  0  0  0  0  0  0
  192.8590  172.8810  139.8020 C   0  0  0  0  0  3  0  0  0  0  0  0
  196.0640  174.6270  142.0410 C   0  0  0  0  0  2  0  0  0  0  0  0
  195.7000  174.8390  143.5290 C   0  0  1  0  0  3  0  0  0  0  0  0
  192.9620  176.4250  146.9040 C   0  0  0  0  0  3  0  0  0  0  0  0
  194.1400  176.4200  146.1250 C   0  0  0  0  0  3  0  0  0  0  0  0
  190.0170  173.8670  140.7410 C   0  0  0  0  0  3  0  0  0  0  0  0
  191.2160  173.9230  141.4650 C   0  0  0  0  0  0  0  0  0  0  0  0
  194.1650  172.7120  139.4350 N   0  0  0  0  0  0  0  0  0  0  0  0
  189.4570  175.8990  145.6240 C   0  0  1  0  0  3  0  0  0  0  0  0
  195.1790  173.2420  140.1360 N   0  0  0  0  0  0  0  0  0  0  0  0
  188.5710  177.9140  144.6360 O   0  0  0  0  0  1  0  0  0  0  0  0
  188.2550  176.8320  145.4630 C   0  0  0  0  0  2  0  0  0  0  0  0
  196.7870  174.3360  144.4430 C   0  0  0  0  0  0  0  0  0  0  0  0
  197.9400  174.6020  144.1550 O   0  0  0  0  0  0  0  0  0  0  0  0
  197.5310  171.1430  145.3910 O   0  0  0  0  0  0  0  0  0  0  0  0
  196.7650  172.1360  145.4990 C   0  0  0  0  0  0  0  0  0  0  0  0
  196.5400  173.4980  145.6770 C   0  0  2  0  0  3  0  0  0  0  0  0
  193.9260  172.6590  145.4040 C   0  0  0  0  0  1  0  0  0  0  0  0
  195.3670  172.7590  145.5140 N   0  0  0  0  0  0  0  0  0  0  0  0
  1  8  1  0  0  0  0
  2  6  2  0  0  0  0
  2 14  1  0  0  0  0
  3 14  1  0  0  0  0
  3 24  1  0  0  0  0
  4  6  1  0  0  0  0
  5 22  1  0  0  0  0
  5 10  1  0  0  0  0
  6 20  1  0  0  0  0
  7 12  1  6  0  0  0
  8  3  1  0  0  0  0
  9 10  2  0  0  0  0
  9 17  1  0  0  0  0
 11  7  1  0  0  0  0
 11 19  1  0  0  0  0
 13  8  2  0  0  0  0
 14 11  2  0  0  0  0
 15 13  1  0  0  0  0
 16  5  2  0  0  0  0
 17 18  1  0  0  0  0
 18  4  1  0  0  0  0
 18 28  1  1  0  0  0
 20 19  2  0  0  0  0
 21 15  2  0  0  0  0
 21 22  1  0  0  0  0
 22  1  2  0  0  0  0
 23 16  1  0  0  0  0
 23 25  2  0  0  0  0
 24 27  1  6  0  0  0
 24  7  1  0  0  0  0
 25  9  1  0  0  0  0
 26 27  1  0  0  0  0
 29 28  2  0  0  0  0
 30 31  2  0  0  0  0
 31 34  1  0  0  0  0
 31 32  1  0  0  0  0
 32 28  1  6  0  0  0
 33 34  1  0  0  0  0
 34 32  1  0  0  0  0
M  END
>  <MODEL>
7

>  <REMARK>
 VINA RESULT:      -7.5      3.236      6.634
  Name = 
  3 active torsions:
  status: ('A' for Active; 'I' for Inactive)
    1  A    between atoms: C_9  and  C_13
    2  A    between atoms: C_13  and  C_24
    3  A    between atoms: C_22  and  C_33
                            x       y       z     vdW  Elec       q    Type
                         _______ _______ _______ _____ _____    ______ ____

>  <TORSDO>
F 3

$$$$
=
 OpenBabel11062423123D

 34 39  0  0  1  0  0  0  0  0999 V2000
  191.3150  176.1030  145.3260 C   0  0  0  0  0  3  0  0  0  0  0  0
  190.1210  174.4050  143.4780 C   0  0  0  0  0  3  0  0  0  0  0  0
  188.9290  176.0420  144.9960 N   0  0  0  0  0  0  0  0  0  0  0  0
  191.4730  173.0780  141.8410 C   0  0  0  0  0  2  0  0  0  0  0  0
  193.6380  175.4590  145.3980 C   0  0  0  0  0  0  0  0  0  0  0  0
  190.2940  173.9550  142.1640 C   0  0  0  0  0  0  0  0  0  0  0  0
  187.2560  176.7110  143.3660 C   0  0  1  0  0  3  0  0  0  0  0  0
  190.0640  176.3550  145.8360 C   0  0  0  0  0  0  0  0  0  0  0  0
  194.3630  174.1150  143.5150 C   0  0  0  0  0  0  0  0  0  0  0  0
  193.3700  174.7460  144.2280 C   0  0  0  0  0  3  0  0  0  0  0  0
  188.1880  175.6840  142.8210 C   0  0  0  0  0  0  0  0  0  0  0  0
  185.9480  176.2140  143.3530 O   0  0  0  0  0  1  0  0  0  0  0  0
  189.9700  176.7430  147.1810 C   0  0  0  0  0  3  0  0  0  0  0  0
  189.0720  175.2900  143.7840 C   0  0  0  0  0  0  0  0  0  0  0  0
  191.1470  176.8220  147.9620 C   0  0  0  0  0  3  0  0  0  0  0  0
  194.9560  175.4820  145.8550 C   0  0  0  0  0  3  0  0  0  0  0  0
  194.0010  173.3320  142.2780 C   0  0  0  0  0  2  0  0  0  0  0  0
  192.7470  173.8920  141.5660 C   0  0  1  0  0  3  0  0  0  0  0  0
  188.3260  175.2500  141.4950 C   0  0  0  0  0  3  0  0  0  0  0  0
  189.3900  174.3810  141.1690 C   0  0  0  0  0  3  0  0  0  0  0  0
  192.4040  176.4710  147.4180 C   0  0  0  0  0  3  0  0  0  0  0  0
  192.4790  176.0940  146.0700 C   0  0  0  0  0  0  0  0  0  0  0  0
  195.9160  174.8280  145.1340 N   0  0  0  0  0  0  0  0  0  0  0  0
  187.7890  176.9440  144.8190 C   0  0  1  0  0  3  0  0  0  0  0  0
  195.6320  174.1630  144.0040 N   0  0  0  0  0  0  0  0  0  0  0  0
  186.6360  177.9100  146.7060 O   0  0  0  0  0  1  0  0  0  0  0  0
  186.7560  176.7530  145.9310 C   0  0  0  0  0  2  0  0  0  0  0  0
  192.9850  174.0800  140.0910 C   0  0  0  0  0  0  0  0  0  0  0  0
  192.2420  173.5020  139.3170 O   0  0  0  0  0  0  0  0  0  0  0  0
  193.5180  175.6810  137.1250 O   0  0  0  0  0  0  0  0  0  0  0  0
  194.0120  175.1140  138.1330 C   0  0  0  0  0  0  0  0  0  0  0  0
  194.1020  174.9150  139.5080 C   0  0  2  0  0  3  0  0  0  0  0  0
  195.9650  173.0560  138.6800 C   0  0  0  0  0  1  0  0  0  0  0  0
  194.9630  174.0970  138.7730 N   0  0  0  0  0  0  0  0  0  0  0  0
  1  8  2  0  0  0  0
  1 22  1  0  0  0  0
  2 14  1  0  0  0  0
  3  8  1  0  0  0  0
  4  6  1  0  0  0  0
  5 16  1  0  0  0  0
  5 22  1  0  0  0  0
  6  2  2  0  0  0  0
  7 12  1  1  0  0  0
  7 24  1  0  0  0  0
  8 13  1  0  0  0  0
  9 25  2  0  0  0  0
  9 10  1  0  0  0  0
 10  5  2  0  0  0  0
 11  7  1  0  0  0  0
 11 14  2  0  0  0  0
 13 15  2  0  0  0  0
 14  3  1  0  0  0  0
 17  9  1  0  0  0  0
 18 28  1  6  0  0  0
 18  4  1  0  0  0  0
 18 17  1  0  0  0  0
 19 11  1  0  0  0  0
 20 19  2  0  0  0  0
 20  6  1  0  0  0  0
 21 15  1  0  0  0  0
 22 21  2  0  0  0  0
 23 16  2  0  0  0  0
 24  3  1  0  0  0  0
 24 27  1  1  0  0  0
 25 23  1  0  0  0  0
 27 26  1  0  0  0  0
 29 28  2  0  0  0  0
 30 31  2  0  0  0  0
 31 34  1  0  0  0  0
 31 32  1  0  0  0  0
 32 28  1  6  0  0  0
 33 34  1  0  0  0  0
 34 32  1  0  0  0  0
M  END
>  <MODEL>
8

>  <REMARK>
 VINA RESULT:      -7.5      2.786      4.233
  Name = 
  3 active torsions:
  status: ('A' for Active; 'I' for Inactive)
    1  A    between atoms: C_9  and  C_13
    2  A    between atoms: C_13  and  C_24
    3  A    between atoms: C_22  and  C_33
                            x       y       z     vdW  Elec       q    Type
                         _______ _______ _______ _____ _____    ______ ____

>  <TORSDO>
F 3

$$$$
=
 OpenBabel11062423123D

 34 39  0  0  1  0  0  0  0  0999 V2000
  192.4950  173.7840  142.1860 C   0  0  0  0  0  3  0  0  0  0  0  0
  191.0680  174.9880  144.2450 C   0  0  0  0  0  3  0  0  0  0  0  0
  193.5770  174.6710  144.1480 N   0  0  0  0  0  0  0  0  0  0  0  0
  188.6250  175.4960  144.0330 C   0  0  0  0  0  2  0  0  0  0  0  0
  190.8390  172.8410  140.7080 C   0  0  0  0  0  0  0  0  0  0  0  0
  190.0190  175.8940  144.4380 C   0  0  0  0  0  0  0  0  0  0  0  0
  194.1300  176.8070  145.1650 C   0  0  1  0  0  3  0  0  0  0  0  0
  193.5930  173.7750  143.0130 C   0  0  0  0  0  0  0  0  0  0  0  0
  188.6020  173.7200  141.0210 C   0  0  0  0  0  0  0  0  0  0  0  0
  189.9190  173.6270  141.4050 C   0  0  0  0  0  3  0  0  0  0  0  0
  192.6580  176.6040  145.0590 C   0  0  0  0  0  0  0  0  0  0  0  0
  194.4900  176.9530  146.5090 O   0  0  0  0  0  1  0  0  0  0  0  0
  194.5730  172.7950  142.7920 C   0  0  0  0  0  3  0  0  0  0  0  0
  192.3880  175.3700  144.5410 C   0  0  0  0  0  0  0  0  0  0  0  0
  194.3780  171.8410  141.7660 C   0  0  0  0  0  3  0  0  0  0  0  0
  190.3700  172.1080  139.6180 C   0  0  0  0  0  3  0  0  0  0  0  0
  187.6510  174.5600  141.8370 C   0  0  0  0  0  2  0  0  0  0  0  0
  188.3580  175.7430  142.5400 C   0  0  1  0  0  3  0  0  0  0  0  0
  191.6330  177.5370  145.2700 C   0  0  0  0  0  3  0  0  0  0  0  0
  190.3060  177.1750  144.9530 C   0  0  0  0  0  3  0  0  0  0  0  0
  193.1920  171.8360  140.9950 C   0  0  0  0  0  3  0  0  0  0  0  0
  192.2290  172.8280  141.2240 C   0  0  0  0  0  0  0  0  0  0  0  0
  189.0510  172.2060  139.2750 N   0  0  0  0  0  0  0  0  0  0  0  0
  194.7190  175.5040  144.5300 C   0  0  1  0  0  3  0  0  0  0  0  0
  188.1920  172.9830  139.9530 N   0  0  0  0  0  0  0  0  0  0  0  0
  196.9380  174.5910  144.7940 O   0  0  0  0  0  1  0  0  0  0  0  0
  195.6950  174.7280  145.4180 C   0  0  0  0  0  2  0  0  0  0  0  0
  187.6300  177.0410  142.3070 C   0  0  0  0  0  0  0  0  0  0  0  0
  188.2980  178.0440  142.1260 O   0  0  0  0  0  0  0  0  0  0  0  0
  185.3110  178.2900  140.1380 O   0  0  0  0  0  0  0  0  0  0  0  0
  185.6280  178.0370  141.3290 C   0  0  0  0  0  0  0  0  0  0  0  0
  186.1250  177.1850  142.3110 C   0  0  2  0  0  3  0  0  0  0  0  0
  185.6730  179.4210  143.8650 C   0  0  0  0  0  1  0  0  0  0  0  0
  185.7780  178.4480  142.7960 N   0  0  0  0  0  0  0  0  0  0  0  0
  1  8  1  0  0  0  0
  2  6  2  0  0  0  0
  2 14  1  0  0  0  0
  3 24  1  0  0  0  0
  3 14  1  0  0  0  0
  4  6  1  0  0  0  0
  5 22  1  0  0  0  0
  5 10  1  0  0  0  0
  6 20  1  0  0  0  0
  7 12  1  1  0  0  0
  8  3  1  0  0  0  0
  9 10  2  0  0  0  0
  9 17  1  0  0  0  0
 11  7  1  0  0  0  0
 11 19  1  0  0  0  0
 13  8  2  0  0  0  0
 14 11  2  0  0  0  0
 15 13  1  0  0  0  0
 16  5  2  0  0  0  0
 17 18  1  0  0  0  0
 18 28  1  1  0  0  0
 18  4  1  0  0  0  0
 20 19  2  0  0  0  0
 21 22  1  0  0  0  0
 21 15  2  0  0  0  0
 22  1  2  0  0  0  0
 23 16  1  0  0  0  0
 23 25  2  0  0  0  0
 24  7  1  0  0  0  0
 24 27  1  1  0  0  0
 25  9  1  0  0  0  0
 26 27  1  0  0  0  0
 29 28  2  0  0  0  0
 30 31  2  0  0  0  0
 31 32  1  0  0  0  0
 31 34  1  0  0  0  0
 32 28  1  6  0  0  0
 32 34  1  0  0  0  0
 34 33  1  0  0  0  0
M  END
>  <MODEL>
9

>  <REMARK>
 VINA RESULT:      -7.4      2.685      8.135
  Name = 
  3 active torsions:
  status: ('A' for Active; 'I' for Inactive)
    1  A    between atoms: C_9  and  C_13
    2  A    between atoms: C_13  and  C_24
    3  A    between atoms: C_22  and  C_33
                            x       y       z     vdW  Elec       q    Type
                         _______ _______ _______ _____ _____    ______ ____

>  <TORSDO>
F 3

$$$$
