=
 OpenBabel11062418293D

 48 51  0  0  1  0  0  0  0  0999 V2000
  188.1790  175.1680  141.1120 C   0  0  0  0  0  3  0  0  0  0  0  0
  190.5980  172.2630  141.7370 C   0  0  0  0  0  0  0  0  0  0  0  0
  190.3000  173.3500  144.3680 C   0  0  0  0  0  2  0  0  0  0  0  0
  188.9690  174.0470  140.8380 C   0  0  0  0  0  0  0  0  0  0  0  0
  190.5210  171.5160  140.7270 O   0  0  0  0  0  0  0  0  0  0  0  0
  189.6590  174.0480  143.1910 C   0  0  0  0  0  0  0  0  0  0  0  0
  188.8810  175.2020  143.4230 C   0  0  0  0  0  0  0  0  0  0  0  0
  191.4760  172.5060  143.9920 C   0  0  0  0  0  3  0  0  0  0  0  0
  191.5940  171.9520  142.7800 C   0  0  0  0  0  0  0  0  0  0  0  0
  188.1160  175.7470  142.3740 C   0  0  0  0  0  0  0  0  0  0  0  0
  189.7100  173.4550  141.9030 C   0  0  0  0  0  0  0  0  0  0  0  0
  188.9800  173.5250  139.4090 C   0  0  0  0  0  0  0  0  0  0  0  0
  188.3320  172.2880  139.3180 O   0  0  0  0  0  1  0  0  0  0  0  0
  190.2870  173.3590  138.9820 F   0  0  0  0  0  0  0  0  0  0  0  0
  188.3190  174.4270  138.5730 O   0  0  0  0  0  1  0  0  0  0  0  0
  189.6250  176.8890  145.1570 C   0  0  0  0  0  0  0  0  0  0  0  0
  190.2990  177.5390  144.3100 O   0  0  0  0  0  0  0  0  0  0  0  0
  188.8190  175.7830  144.7340 N   0  0  0  0  0  2  0  0  0  0  0  0
  189.6340  177.2760  146.6120 C   0  0  2  0  0  3  0  0  0  0  0  0
  191.7660  176.0770  146.9540 C   0  0  0  0  0  2  0  0  0  0  0  0
  191.4690  176.8150  148.2410 C   0  0  0  0  0  2  0  0  0  0  0  0
  190.3350  176.2050  147.4370 C   0  0  0  0  0  3  0  0  0  0  0  0
  188.2340  177.5200  147.1590 C   0  0  0  0  0  2  0  0  0  0  0  0
  187.4040  178.0100  146.1480 O   0  0  0  0  0  0  0  0  0  0  0  0
  185.8420  177.6470  148.2300 O   0  0  0  0  0  1  0  0  0  0  0  0
  185.8250  177.8180  146.7300 P   0  0  0  0  0  0  0  0  0  0  0  0
  185.0980  176.4640  146.0110 O   0  0  0  0  0  0  0  0  0  0  0  0
  184.9220  179.1970  146.3450 O   0  0  0  0  0  1  0  0  0  0  0  0
  192.7130  170.9900  142.4800 C   0  0  1  0  0  3  0  0  0  0  0  0
  193.8690  171.6670  141.7590 C   0  0  0  0  0  1  0  0  0  0  0  0
  193.2080  170.2980  143.7470 C   0  0  0  0  0  2  0  0  0  0  0  0
  196.1910  171.2650  145.9280 N   0  0  0  0  0  2  0  0  0  0  0  0
  194.4220  170.9420  144.2290 N   0  0  0  0  0  2  0  0  0  0  0  0
  195.1560  170.4680  145.3590 C   0  0  0  0  0  0  0  0  0  0  0  0
  194.8810  169.3540  145.8720 O   0  0  0  0  0  0  0  0  0  0  0  0
  196.4750  172.5420  145.4350 N   0  0  0  0  0  0  0  0  0  0  0  0
  197.1700  173.3290  144.6610 O   0  0  0  0  0  0  0  0  0  0  0  0
  196.2280  173.8280  145.4110 N   0  0  0  0  0  0  0  0  0  0  0  0
  195.4850  174.9250  145.8610 N   0  0  0  0  0  2  0  0  0  0  0  0
  194.7040  177.4510  145.5220 O   0  0  0  0  0  1  0  0  0  0  0  0
  196.3700  176.5250  143.7310 O   0  0  0  0  0  0  0  0  0  0  0  0
  195.0560  176.2030  144.7450 P   0  0  1  0  0  0  0  0  0  0  0  0
  193.6360  175.6860  143.7450 C   0  0  0  0  0  1  0  0  0  0  0  0
  185.9790  176.8850  142.6570 N   0  0  0  0  0  0  0  0  0  0  0  0
  187.2640  176.9420  142.5000 C   0  0  0  0  0  3  0  0  0  0  0  0
  183.8870  178.0090  142.6180 N   0  0  0  0  0  2  0  0  0  0  0  0
  185.8110  179.3580  143.1100 C   0  0  0  0  0  1  0  0  0  0  0  0
  185.1680  178.0560  142.7980 C   0  0  0  0  0  0  0  0  0  0  0  0
  1 10  1  0  0  0  0
  2 11  1  0  0  0  0
  2  9  1  0  0  0  0
  4  1  2  0  0  0  0
  4 11  1  0  0  0  0
  5  2  2  0  0  0  0
  6  7  1  0  0  0  0
  6  3  1  0  0  0  0
  7 18  1  0  0  0  0
  8  3  1  0  0  0  0
  9  8  2  0  0  0  0
 10 45  1  0  0  0  0
 10  7  2  0  0  0  0
 11  6  2  0  0  0  0
 12  4  1  0  0  0  0
 13 12  1  0  0  0  0
 14 12  1  0  0  0  0
 15 12  1  0  0  0  0
 16 19  1  0  0  0  0
 17 16  2  0  0  0  0
 18 16  1  0  0  0  0
 19 23  1  1  0  0  0
 19 22  1  0  0  0  0
 20 22  1  0  0  0  0
 20 21  1  0  0  0  0
 22 21  1  0  0  0  0
 24 26  1  0  0  0  0
 24 23  1  0  0  0  0
 26 25  1  0  0  0  0
 27 26  2  0  0  0  0
 28 26  1  0  0  0  0
 29 30  1  1  0  0  0
 29  9  1  0  0  0  0
 29 31  1  0  0  0  0
 31 33  1  0  0  0  0
 33 34  1  0  0  0  0
 34 35  2  0  0  0  0
 34 32  1  0  0  0  0
 36 32  1  0  0  0  0
 37 38  1  0  0  0  0
 37 36  1  0  0  0  0
 38 36  1  0  0  0  0
 38 39  1  0  0  0  0
 41 42  2  0  0  0  0
 42 43  1  6  0  0  0
 42 40  1  0  0  0  0
 42 39  1  0  0  0  0
 44 48  1  0  0  0  0
 45 44  2  0  0  0  0
 46 48  2  0  0  0  0
 48 47  1  0  0  0  0
M  END
>  <MODEL>
1

>  <REMARK>
 VINA RESULT:      -7.2      0.000      0.000
  Name = 
  15 active torsions:
  status: ('A' for Active; 'I' for Inactive)
    1  A    between atoms: N_5  and  N_15
    2  A    between atoms: N_7  and  C_44
    3  A    between atoms: C_8  and  C_11
    4  A    between atoms: C_8  and  O_18
    5  A    between atoms: C_10  and  C_13
    6  A    between atoms: C_11  and  C_12
    7  A    between atoms: C_11  and  C_34
    8  A    between atoms: C_16  and  C_38
    9  A    between atoms: C_16  and  C_44
   10  A    between atoms: O_18  and  P_41
   11  A    between atoms: N_20  and  C_32
   12  A    between atoms: N_24  and  C_36
   13  A    between atoms: P_30  and  N_48
   14  A    between atoms: N_39  and  N_48
   15  A    between atoms: C_42  and  C_47
                            x       y       z     vdW  Elec       q    Type
                         _______ _______ _______ _____ _____    ______ ____

>  <TORSDO>
F 15

$$$$
=
 OpenBabel11062418293D

 48 51  0  0  1  0  0  0  0  0999 V2000
  188.7200  174.6940  140.9720 C   0  0  0  0  0  3  0  0  0  0  0  0
  190.8300  171.6400  141.9230 C   0  0  0  0  0  0  0  0  0  0  0  0
  190.3310  172.8240  144.4810 C   0  0  0  0  0  2  0  0  0  0  0  0
  189.4480  173.5110  140.8120 C   0  0  0  0  0  0  0  0  0  0  0  0
  190.8070  170.8710  140.9270 O   0  0  0  0  0  0  0  0  0  0  0  0
  189.8760  173.5310  143.2270 C   0  0  0  0  0  0  0  0  0  0  0  0
  189.1670  174.7450  143.3460 C   0  0  0  0  0  0  0  0  0  0  0  0
  191.4740  171.8850  144.2560 C   0  0  0  0  0  3  0  0  0  0  0  0
  191.6800  171.2880  143.0760 C   0  0  0  0  0  0  0  0  0  0  0  0
  188.5650  175.3130  142.2070 C   0  0  0  0  0  0  0  0  0  0  0  0
  190.0220  172.8980  141.9650 C   0  0  0  0  0  0  0  0  0  0  0  0
  189.5750  172.9480  139.4040 C   0  0  0  0  0  0  0  0  0  0  0  0
  188.8670  173.7270  138.4830 O   0  0  0  0  0  1  0  0  0  0  0  0
  189.0590  171.6630  139.3670 F   0  0  0  0  0  0  0  0  0  0  0  0
  190.9170  172.9310  139.0220 O   0  0  0  0  0  1  0  0  0  0  0  0
  189.8150  176.4540  145.0970 C   0  0  0  0  0  0  0  0  0  0  0  0
  190.5910  177.0520  144.3000 O   0  0  0  0  0  0  0  0  0  0  0  0
  189.0070  175.3670  144.6290 N   0  0  0  0  0  2  0  0  0  0  0  0
  189.7050  176.8850  146.5350 C   0  0  2  0  0  3  0  0  0  0  0  0
  191.7470  175.5820  147.0180 C   0  0  0  0  0  2  0  0  0  0  0  0
  191.4630  176.4200  148.2450 C   0  0  0  0  0  2  0  0  0  0  0  0
  190.3140  175.8300  147.4490 C   0  0  0  0  0  3  0  0  0  0  0  0
  188.2660  177.1630  146.9510 C   0  0  0  0  0  2  0  0  0  0  0  0
  187.6030  177.8620  145.9400 O   0  0  0  0  0  0  0  0  0  0  0  0
  185.9360  178.0970  147.9580 O   0  0  0  0  0  1  0  0  0  0  0  0
  185.9930  177.9760  146.4530 P   0  0  0  0  0  0  0  0  0  0  0  0
  185.1240  176.6060  145.9590 O   0  0  0  0  0  1  0  0  0  0  0  0
  185.2880  179.3530  145.7650 O   0  0  0  0  0  0  0  0  0  0  0  0
  192.7490  170.2390  142.9230 C   0  0  1  0  0  3  0  0  0  0  0  0
  194.0750  170.8370  142.4780 C   0  0  0  0  0  1  0  0  0  0  0  0
  192.9320  169.4370  144.2080 C   0  0  0  0  0  2  0  0  0  0  0  0
  195.9610  169.4730  146.5360 N   0  0  0  0  0  2  0  0  0  0  0  0
  194.2820  169.6170  144.7250 N   0  0  0  0  0  2  0  0  0  0  0  0
  194.7160  169.0700  145.9710 C   0  0  0  0  0  0  0  0  0  0  0  0
  193.9940  168.2460  146.5870 O   0  0  0  0  0  0  0  0  0  0  0  0
  196.7560  170.4430  145.9200 N   0  0  0  0  0  0  0  0  0  0  0  0
  197.7150  170.7670  145.0970 O   0  0  0  0  0  0  0  0  0  0  0  0
  197.0760  171.7010  145.7440 N   0  0  0  0  0  0  0  0  0  0  0  0
  196.8690  173.0530  146.0360 N   0  0  0  0  0  2  0  0  0  0  0  0
  194.2320  173.0000  145.6470 O   0  0  0  0  0  0  0  0  0  0  0  0
  195.2470  175.3350  146.2400 O   0  0  0  0  0  1  0  0  0  0  0  0
  195.4480  173.8690  145.4230 P   0  0  1  0  0  0  0  0  0  0  0  0
  195.6490  174.1910  143.6500 C   0  0  0  0  0  1  0  0  0  0  0  0
  186.5290  176.6270  142.4780 N   0  0  0  0  0  0  0  0  0  0  0  0
  187.7970  176.5710  142.2130 C   0  0  0  0  0  3  0  0  0  0  0  0
  186.4160  178.9990  142.5320 N   0  0  0  0  0  2  0  0  0  0  0  0
  184.3170  177.8330  142.5260 C   0  0  0  0  0  1  0  0  0  0  0  0
  185.8020  177.8610  142.4980 C   0  0  0  0  0  0  0  0  0  0  0  0
  1 10  1  0  0  0  0
  2 11  1  0  0  0  0
  2  9  1  0  0  0  0
  4  1  2  0  0  0  0
  4 11  1  0  0  0  0
  5  2  2  0  0  0  0
  6  7  1  0  0  0  0
  6  3  1  0  0  0  0
  7 18  1  0  0  0  0
  8  3  1  0  0  0  0
  9  8  2  0  0  0  0
 10 45  1  0  0  0  0
 10  7  2  0  0  0  0
 11  6  2  0  0  0  0
 12  4  1  0  0  0  0
 13 12  1  0  0  0  0
 14 12  1  0  0  0  0
 15 12  1  0  0  0  0
 16 19  1  0  0  0  0
 17 16  2  0  0  0  0
 18 16  1  0  0  0  0
 19 23  1  1  0  0  0
 19 22  1  0  0  0  0
 20 22  1  0  0  0  0
 20 21  1  0  0  0  0
 22 21  1  0  0  0  0
 24 26  1  0  0  0  0
 24 23  1  0  0  0  0
 26 25  1  0  0  0  0
 27 26  1  0  0  0  0
 28 26  2  0  0  0  0
 29 30  1  1  0  0  0
 29  9  1  0  0  0  0
 29 31  1  0  0  0  0
 31 33  1  0  0  0  0
 33 34  1  0  0  0  0
 34 32  1  0  0  0  0
 34 35  2  0  0  0  0
 36 32  1  0  0  0  0
 37 38  1  0  0  0  0
 37 36  1  0  0  0  0
 38 36  1  0  0  0  0
 38 39  1  0  0  0  0
 42 43  1  6  0  0  0
 42 40  2  0  0  0  0
 42 39  1  0  0  0  0
 42 41  1  0  0  0  0
 44 48  1  0  0  0  0
 45 44  2  0  0  0  0
 48 47  1  0  0  0  0
 48 46  2  0  0  0  0
M  END
>  <MODEL>
2

>  <REMARK>
 VINA RESULT:      -7.1      1.293      1.557
  Name = 
  15 active torsions:
  status: ('A' for Active; 'I' for Inactive)
    1  A    between atoms: N_5  and  N_15
    2  A    between atoms: N_7  and  C_44
    3  A    between atoms: C_8  and  C_11
    4  A    between atoms: C_8  and  O_18
    5  A    between atoms: C_10  and  C_13
    6  A    between atoms: C_11  and  C_12
    7  A    between atoms: C_11  and  C_34
    8  A    between atoms: C_16  and  C_38
    9  A    between atoms: C_16  and  C_44
   10  A    between atoms: O_18  and  P_41
   11  A    between atoms: N_20  and  C_32
   12  A    between atoms: N_24  and  C_36
   13  A    between atoms: P_30  and  N_48
   14  A    between atoms: N_39  and  N_48
   15  A    between atoms: C_42  and  C_47
                            x       y       z     vdW  Elec       q    Type
                         _______ _______ _______ _____ _____    ______ ____

>  <TORSDO>
F 15

$$$$
=
 OpenBabel11062418293D

 48 51  0  0  1  0  0  0  0  0999 V2000
  188.2230  174.8910  140.6960 C   0  0  0  0  0  3  0  0  0  0  0  0
  191.1480  172.4290  140.9490 C   0  0  0  0  0  0  0  0  0  0  0  0
  190.7850  173.1870  143.6850 C   0  0  0  0  0  2  0  0  0  0  0  0
  189.1870  173.9640  140.2860 C   0  0  0  0  0  0  0  0  0  0  0  0
  191.1590  171.7800  139.8700 O   0  0  0  0  0  0  0  0  0  0  0  0
  189.9760  173.8660  142.6060 C   0  0  0  0  0  0  0  0  0  0  0  0
  189.0160  174.8310  142.9770 C   0  0  0  0  0  0  0  0  0  0  0  0
  192.0740  172.6110  143.1900 C   0  0  0  0  0  3  0  0  0  0  0  0
  192.2320  172.2060  141.9250 C   0  0  0  0  0  0  0  0  0  0  0  0
  188.1180  175.3250  142.0120 C   0  0  0  0  0  0  0  0  0  0  0  0
  190.0710  173.4180  141.2620 C   0  0  0  0  0  0  0  0  0  0  0  0
  189.2230  173.5920  138.8110 C   0  0  0  0  0  0  0  0  0  0  0  0
  190.5030  173.7750  138.2750 O   0  0  0  0  0  1  0  0  0  0  0  0
  188.3430  174.3950  138.1060 F   0  0  0  0  0  0  0  0  0  0  0  0
  188.8710  172.2510  138.6550 O   0  0  0  0  0  1  0  0  0  0  0  0
  189.6480  176.3640  144.8890 C   0  0  0  0  0  0  0  0  0  0  0  0
  190.2830  177.1410  144.1240 O   0  0  0  0  0  0  0  0  0  0  0  0
  188.9130  175.2630  144.3420 N   0  0  0  0  0  2  0  0  0  0  0  0
  189.6280  176.5920  146.3770 C   0  0  2  0  0  3  0  0  0  0  0  0
  191.6650  175.2320  146.6910 C   0  0  0  0  0  2  0  0  0  0  0  0
  191.3250  175.8260  148.0400 C   0  0  0  0  0  2  0  0  0  0  0  0
  190.2150  175.3890  147.1020 C   0  0  0  0  0  3  0  0  0  0  0  0
  188.2290  176.8840  146.9030 C   0  0  0  0  0  2  0  0  0  0  0  0
  187.5550  177.7350  146.0240 O   0  0  0  0  0  0  0  0  0  0  0  0
  186.0990  178.0130  148.1940 O   0  0  0  0  0  1  0  0  0  0  0  0
  186.0100  177.9370  146.6880 P   0  0  0  0  0  0  0  0  0  0  0  0
  185.0090  176.6430  146.2410 O   0  0  0  0  0  1  0  0  0  0  0  0
  185.3400  179.3780  146.1040 O   0  0  0  0  0  0  0  0  0  0  0  0
  193.4890  171.4970  141.4960 C   0  0  1  0  0  3  0  0  0  0  0  0
  193.2320  170.0360  141.1590 C   0  0  0  0  0  1  0  0  0  0  0  0
  194.1540  172.2050  140.3190 C   0  0  0  0  0  2  0  0  0  0  0  0
  194.9570  175.9390  140.3510 N   0  0  0  0  0  2  0  0  0  0  0  0
  194.6390  173.5150  140.7300 N   0  0  0  0  0  2  0  0  0  0  0  0
  194.2730  174.7230  140.0610 C   0  0  0  0  0  0  0  0  0  0  0  0
  193.3610  174.7180  139.1960 O   0  0  0  0  0  0  0  0  0  0  0  0
  196.0280  175.9710  141.2490 N   0  0  0  0  0  0  0  0  0  0  0  0
  197.2780  175.7260  141.5320 O   0  0  0  0  0  0  0  0  0  0  0  0
  196.5090  176.2790  142.4270 N   0  0  0  0  0  0  0  0  0  0  0  0
  196.3250  176.8180  143.7050 N   0  0  0  0  0  2  0  0  0  0  0  0
  194.5840  177.3600  145.6500 O   0  0  0  0  0  1  0  0  0  0  0  0
  193.6950  175.8360  143.7190 O   0  0  0  0  0  0  0  0  0  0  0  0
  195.0030  176.2570  144.7050 P   0  0  1  0  0  0  0  0  0  0  0  0
  195.5320  174.8070  145.6550 C   0  0  0  0  0  1  0  0  0  0  0  0
  186.4170  176.9420  141.3500 N   0  0  0  0  0  0  0  0  0  0  0  0
  187.0740  176.3290  142.2850 C   0  0  0  0  0  3  0  0  0  0  0  0
  185.2180  178.3620  142.8290 N   0  0  0  0  0  2  0  0  0  0  0  0
  184.4800  178.3400  140.5450 C   0  0  0  0  0  1  0  0  0  0  0  0
  185.3910  177.9000  141.6330 C   0  0  0  0  0  0  0  0  0  0  0  0
  1 10  1  0  0  0  0
  2 11  1  0  0  0  0
  2  9  1  0  0  0  0
  4  1  2  0  0  0  0
  4 11  1  0  0  0  0
  5  2  2  0  0  0  0
  6  7  1  0  0  0  0
  6  3  1  0  0  0  0
  7 18  1  0  0  0  0
  8  3  1  0  0  0  0
  9  8  2  0  0  0  0
 10 45  1  0  0  0  0
 10  7  2  0  0  0  0
 11  6  2  0  0  0  0
 12  4  1  0  0  0  0
 13 12  1  0  0  0  0
 14 12  1  0  0  0  0
 15 12  1  0  0  0  0
 16 19  1  0  0  0  0
 17 16  2  0  0  0  0
 18 16  1  0  0  0  0
 19 23  1  1  0  0  0
 19 22  1  0  0  0  0
 20 22  1  0  0  0  0
 20 21  1  0  0  0  0
 22 21  1  0  0  0  0
 24 26  1  0  0  0  0
 24 23  1  0  0  0  0
 26 25  1  0  0  0  0
 27 26  1  0  0  0  0
 28 26  2  0  0  0  0
 29 30  1  6  0  0  0
 29  9  1  0  0  0  0
 31 33  1  0  0  0  0
 31 29  1  0  0  0  0
 32 36  1  0  0  0  0
 34 32  1  0  0  0  0
 34 33  1  0  0  0  0
 35 34  2  0  0  0  0
 36 37  1  0  0  0  0
 36 38  1  0  0  0  0
 37 38  1  0  0  0  0
 38 39  1  0  0  0  0
 39 42  1  0  0  0  0
 41 42  2  0  0  0  0
 42 40  1  0  0  0  0
 42 43  1  1  0  0  0
 44 48  1  0  0  0  0
 44 45  2  0  0  0  0
 47 48  1  0  0  0  0
 48 46  2  0  0  0  0
M  END
>  <MODEL>
3

>  <REMARK>
 VINA RESULT:      -6.6      2.214      2.697
  Name = 
  15 active torsions:
  status: ('A' for Active; 'I' for Inactive)
    1  A    between atoms: N_5  and  N_15
    2  A    between atoms: N_7  and  C_44
    3  A    between atoms: C_8  and  C_11
    4  A    between atoms: C_8  and  O_18
    5  A    between atoms: C_10  and  C_13
    6  A    between atoms: C_11  and  C_12
    7  A    between atoms: C_11  and  C_34
    8  A    between atoms: C_16  and  C_38
    9  A    between atoms: C_16  and  C_44
   10  A    between atoms: O_18  and  P_41
   11  A    between atoms: N_20  and  C_32
   12  A    between atoms: N_24  and  C_36
   13  A    between atoms: P_30  and  N_48
   14  A    between atoms: N_39  and  N_48
   15  A    between atoms: C_42  and  C_47
                            x       y       z     vdW  Elec       q    Type
                         _______ _______ _______ _____ _____    ______ ____

>  <TORSDO>
F 15

$$$$
=
 OpenBabel11062418293D

 48 51  0  0  1  0  0  0  0  0999 V2000
  189.8410  176.8450  146.3960 C   0  0  0  0  0  3  0  0  0  0  0  0
  192.5090  174.3510  145.2370 C   0  0  0  0  0  0  0  0  0  0  0  0
  190.8180  174.5070  142.9340 C   0  0  0  0  0  2  0  0  0  0  0  0
  190.9960  176.0560  146.4380 C   0  0  0  0  0  0  0  0  0  0  0  0
  193.4790  174.4770  146.0300 O   0  0  0  0  0  0  0  0  0  0  0  0
  190.4250  175.2270  144.2020 C   0  0  0  0  0  0  0  0  0  0  0  0
  189.2480  176.0060  144.2090 C   0  0  0  0  0  0  0  0  0  0  0  0
  191.7280  173.3430  143.1660 C   0  0  0  0  0  3  0  0  0  0  0  0
  192.5590  173.2900  144.2130 C   0  0  0  0  0  0  0  0  0  0  0  0
  188.9740  176.8400  145.3100 C   0  0  0  0  0  0  0  0  0  0  0  0
  191.3120  175.2440  145.3100 C   0  0  0  0  0  0  0  0  0  0  0  0
  191.8480  176.1230  147.6970 C   0  0  0  0  0  0  0  0  0  0  0  0
  193.1380  176.5810  147.4090 O   0  0  0  0  0  1  0  0  0  0  0  0
  191.9530  174.8620  148.2570 F   0  0  0  0  0  0  0  0  0  0  0  0
  191.2660  177.0020  148.6130 O   0  0  0  0  0  1  0  0  0  0  0  0
  188.3880  176.9880  142.0410 C   0  0  0  0  0  0  0  0  0  0  0  0
  189.3360  177.8200  141.9820 O   0  0  0  0  0  0  0  0  0  0  0  0
  188.3680  175.9980  143.0760 N   0  0  0  0  0  2  0  0  0  0  0  0
  187.2830  177.0040  141.0190 C   0  0  2  0  0  3  0  0  0  0  0  0
  185.8580  178.5440  142.3220 C   0  0  0  0  0  2  0  0  0  0  0  0
  185.1210  178.2520  141.0330 C   0  0  0  0  0  2  0  0  0  0  0  0
  185.9330  177.1610  141.7060 C   0  0  0  0  0  3  0  0  0  0  0  0
  187.2790  175.7570  140.1450 C   0  0  0  0  0  2  0  0  0  0  0  0
  188.5040  175.0940  140.2540 O   0  0  0  0  0  0  0  0  0  0  0  0
  187.8280  172.7050  139.3910 O   0  0  0  0  0  1  0  0  0  0  0  0
  188.5270  173.9790  138.9790 P   0  0  0  0  0  0  0  0  0  0  0  0
  190.1260  173.6340  138.5340 O   0  0  0  0  0  1  0  0  0  0  0  0
  187.7160  174.6430  137.6480 O   0  0  0  0  0  0  0  0  0  0  0  0
  193.5660  172.1780  144.3400 C   0  0  1  0  0  3  0  0  0  0  0  0
  192.8980  170.8220  144.5100 C   0  0  0  0  0  1  0  0  0  0  0  0
  194.5230  172.1530  143.1510 C   0  0  0  0  0  2  0  0  0  0  0  0
  197.2700  174.5740  144.2380 N   0  0  0  0  0  2  0  0  0  0  0  0
  195.4190  173.3000  143.2040 N   0  0  0  0  0  2  0  0  0  0  0  0
  196.5700  173.3480  144.0490 C   0  0  0  0  0  0  0  0  0  0  0  0
  196.9600  172.3140  144.6480 O   0  0  0  0  0  0  0  0  0  0  0  0
  196.8230  175.7620  143.6500 N   0  0  0  0  0  0  0  0  0  0  0  0
  196.2850  176.9450  143.7560 O   0  0  0  0  0  0  0  0  0  0  0  0
  196.6460  176.5010  142.5840 N   0  0  0  0  0  0  0  0  0  0  0  0
  196.7670  176.6780  141.2020 N   0  0  0  0  0  2  0  0  0  0  0  0
  197.2340  175.6840  138.7720 O   0  0  0  0  0  0  0  0  0  0  0  0
  197.7080  174.0680  140.7730 O   0  0  0  0  0  1  0  0  0  0  0  0
  196.7240  175.2880  140.1390 P   0  0  1  0  0  0  0  0  0  0  0  0
  195.0220  174.6790  140.0020 C   0  0  0  0  0  1  0  0  0  0  0  0
  186.9120  177.5840  146.3780 N   0  0  0  0  0  0  0  0  0  0  0  0
  187.7830  177.7000  145.4240 C   0  0  0  0  0  3  0  0  0  0  0  0
  185.7550  179.4370  147.3110 N   0  0  0  0  0  2  0  0  0  0  0  0
  184.5620  178.1550  145.6680 C   0  0  0  0  0  1  0  0  0  0  0  0
  185.7700  178.4400  146.4850 C   0  0  0  0  0  0  0  0  0  0  0  0
  1  4  1  0  0  0  0
  2 11  1  0  0  0  0
  2  5  2  0  0  0  0
  3  8  1  0  0  0  0
  3  6  1  0  0  0  0
  4 12  1  0  0  0  0
  6  7  2  0  0  0  0
  6 11  1  0  0  0  0
  7 10  1  0  0  0  0
  8  9  2  0  0  0  0
  9 29  1  0  0  0  0
  9  2  1  0  0  0  0
 10 45  1  0  0  0  0
 10  1  2  0  0  0  0
 11  4  2  0  0  0  0
 12 14  1  0  0  0  0
 12 15  1  0  0  0  0
 13 12  1  0  0  0  0
 16 18  1  0  0  0  0
 17 16  2  0  0  0  0
 18  7  1  0  0  0  0
 19 23  1  1  0  0  0
 19 22  1  0  0  0  0
 19 16  1  0  0  0  0
 21 22  1  0  0  0  0
 21 20  1  0  0  0  0
 22 20  1  0  0  0  0
 23 24  1  0  0  0  0
 26 25  1  0  0  0  0
 26 24  1  0  0  0  0
 27 26  1  0  0  0  0
 28 26  2  0  0  0  0
 29 30  1  6  0  0  0
 31 33  1  0  0  0  0
 31 29  1  0  0  0  0
 33 34  1  0  0  0  0
 34 32  1  0  0  0  0
 34 35  2  0  0  0  0
 36 37  1  0  0  0  0
 36 32  1  0  0  0  0
 38 36  1  0  0  0  0
 38 37  1  0  0  0  0
 39 38  1  0  0  0  0
 40 42  2  0  0  0  0
 42 43  1  6  0  0  0
 42 41  1  0  0  0  0
 42 39  1  0  0  0  0
 44 48  1  0  0  0  0
 45 44  2  0  0  0  0
 47 48  1  0  0  0  0
 48 46  2  0  0  0  0
M  END
>  <MODEL>
4

>  <REMARK>
 VINA RESULT:      -6.6      3.224      5.872
  Name = 
  15 active torsions:
  status: ('A' for Active; 'I' for Inactive)
    1  A    between atoms: N_5  and  N_15
    2  A    between atoms: N_7  and  C_44
    3  A    between atoms: C_8  and  C_11
    4  A    between atoms: C_8  and  O_18
    5  A    between atoms: C_10  and  C_13
    6  A    between atoms: C_11  and  C_12
    7  A    between atoms: C_11  and  C_34
    8  A    between atoms: C_16  and  C_38
    9  A    between atoms: C_16  and  C_44
   10  A    between atoms: O_18  and  P_41
   11  A    between atoms: N_20  and  C_32
   12  A    between atoms: N_24  and  C_36
   13  A    between atoms: P_30  and  N_48
   14  A    between atoms: N_39  and  N_48
   15  A    between atoms: C_42  and  C_47
                            x       y       z     vdW  Elec       q    Type
                         _______ _______ _______ _____ _____    ______ ____

>  <TORSDO>
F 15

$$$$
=
 OpenBabel11062418293D

 48 51  0  0  1  0  0  0  0  0999 V2000
  189.5450  177.2180  146.6490 C   0  0  0  0  0  3  0  0  0  0  0  0
  192.6650  175.1740  145.7750 C   0  0  0  0  0  0  0  0  0  0  0  0
  191.1640  175.0140  143.3430 C   0  0  0  0  0  2  0  0  0  0  0  0
  190.8040  176.6280  146.8040 C   0  0  0  0  0  0  0  0  0  0  0  0
  193.5340  175.4690  146.6370 O   0  0  0  0  0  0  0  0  0  0  0  0
  190.5580  175.6810  144.5550 C   0  0  0  0  0  0  0  0  0  0  0  0
  189.2750  176.2580  144.4480 C   0  0  0  0  0  0  0  0  0  0  0  0
  192.2280  174.0180  143.6800 C   0  0  0  0  0  3  0  0  0  0  0  0
  192.9690  174.1180  144.7890 C   0  0  0  0  0  0  0  0  0  0  0  0
  188.7810  177.0540  145.4990 C   0  0  0  0  0  0  0  0  0  0  0  0
  191.3380  175.8610  145.7280 C   0  0  0  0  0  0  0  0  0  0  0  0
  191.5280  176.8540  148.1230 C   0  0  0  0  0  0  0  0  0  0  0  0
  190.8900  177.8370  148.8870 O   0  0  0  0  0  1  0  0  0  0  0  0
  192.8250  177.2740  147.8770 F   0  0  0  0  0  0  0  0  0  0  0  0
  191.5450  175.6690  148.8600 O   0  0  0  0  0  1  0  0  0  0  0  0
  188.5500  176.9860  142.1350 C   0  0  0  0  0  0  0  0  0  0  0  0
  189.4430  177.8770  142.0790 O   0  0  0  0  0  0  0  0  0  0  0  0
  188.5030  176.0890  143.2510 N   0  0  0  0  0  2  0  0  0  0  0  0
  187.5440  176.8330  141.0260 C   0  0  2  0  0  3  0  0  0  0  0  0
  186.1120  178.6240  141.9420 C   0  0  0  0  0  2  0  0  0  0  0  0
  185.4870  178.1930  140.6340 C   0  0  0  0  0  2  0  0  0  0  0  0
  186.1470  177.1650  141.5340 C   0  0  0  0  0  3  0  0  0  0  0  0
  187.5560  175.4370  140.4160 C   0  0  0  0  0  2  0  0  0  0  0  0
  188.8550  174.9240  140.4220 O   0  0  0  0  0  0  0  0  0  0  0  0
  190.0200  172.6300  140.9570 O   0  0  0  0  0  1  0  0  0  0  0  0
  188.6790  173.2560  140.6520 P   0  0  0  0  0  0  0  0  0  0  0  0
  188.0210  172.5400  139.2630 O   0  0  0  0  0  0  0  0  0  0  0  0
  187.6370  172.9830  141.9580 O   0  0  0  0  0  1  0  0  0  0  0  0
  194.1270  173.1870  145.0270 C   0  0  1  0  0  3  0  0  0  0  0  0
  194.0510  171.9470  144.1480 C   0  0  0  0  0  1  0  0  0  0  0  0
  195.4640  173.8970  144.8300 C   0  0  0  0  0  2  0  0  0  0  0  0
  195.4390  176.3320  141.8870 N   0  0  0  0  0  2  0  0  0  0  0  0
  195.5480  174.4450  143.4830 N   0  0  0  0  0  2  0  0  0  0  0  0
  195.5970  175.8480  143.2180 C   0  0  0  0  0  0  0  0  0  0  0  0
  195.7590  176.6660  144.1580 O   0  0  0  0  0  0  0  0  0  0  0  0
  195.1800  175.4600  140.8250 N   0  0  0  0  0  0  0  0  0  0  0  0
  194.5180  174.4570  140.3180 O   0  0  0  0  0  0  0  0  0  0  0  0
  195.4260  175.0600  139.6020 N   0  0  0  0  0  0  0  0  0  0  0  0
  196.1390  175.1940  138.4060 N   0  0  0  0  0  2  0  0  0  0  0  0
  196.0150  175.8700  135.8300 O   0  0  0  0  0  0  0  0  0  0  0  0
  195.3180  173.4140  136.3970 O   0  0  0  0  0  1  0  0  0  0  0  0
  195.3090  175.0360  136.8750 P   0  0  1  0  0  0  0  0  0  0  0  0
  193.5950  175.6010  137.0500 C   0  0  0  0  0  1  0  0  0  0  0  0
  186.6430  177.6650  146.4990 N   0  0  0  0  0  0  0  0  0  0  0  0
  187.4610  177.7100  145.4950 C   0  0  0  0  0  3  0  0  0  0  0  0
  184.6970  178.4980  147.5770 N   0  0  0  0  0  2  0  0  0  0  0  0
  184.7960  178.7770  145.1940 C   0  0  0  0  0  1  0  0  0  0  0  0
  185.3720  178.3250  146.4860 C   0  0  0  0  0  0  0  0  0  0  0  0
  1  4  1  0  0  0  0
  2  5  2  0  0  0  0
  3  8  1  0  0  0  0
  3  6  1  0  0  0  0
  4 12  1  0  0  0  0
  6 11  1  0  0  0  0
  7  6  2  0  0  0  0
  7 10  1  0  0  0  0
  8  9  2  0  0  0  0
  9 29  1  0  0  0  0
  9  2  1  0  0  0  0
 10  1  2  0  0  0  0
 11  2  1  0  0  0  0
 11  4  2  0  0  0  0
 12 15  1  0  0  0  0
 12 13  1  0  0  0  0
 14 12  1  0  0  0  0
 16 18  1  0  0  0  0
 17 16  2  0  0  0  0
 18  7  1  0  0  0  0
 19 23  1  1  0  0  0
 19 22  1  0  0  0  0
 19 16  1  0  0  0  0
 21 22  1  0  0  0  0
 21 20  1  0  0  0  0
 22 20  1  0  0  0  0
 23 24  1  0  0  0  0
 24 26  1  0  0  0  0
 26 25  1  0  0  0  0
 26 28  1  0  0  0  0
 27 26  2  0  0  0  0
 29 30  1  6  0  0  0
 31 29  1  0  0  0  0
 32 34  1  0  0  0  0
 33 31  1  0  0  0  0
 34 33  1  0  0  0  0
 34 35  2  0  0  0  0
 36 32  1  0  0  0  0
 37 36  1  0  0  0  0
 38 37  1  0  0  0  0
 38 36  1  0  0  0  0
 39 38  1  0  0  0  0
 40 42  2  0  0  0  0
 41 42  1  0  0  0  0
 42 43  1  1  0  0  0
 42 39  1  0  0  0  0
 45 10  1  0  0  0  0
 45 44  2  0  0  0  0
 47 48  1  0  0  0  0
 48 44  1  0  0  0  0
 48 46  2  0  0  0  0
M  END
>  <MODEL>
5

>  <REMARK>
 VINA RESULT:      -6.5      3.843      6.468
  Name = 
  15 active torsions:
  status: ('A' for Active; 'I' for Inactive)
    1  A    between atoms: N_5  and  N_15
    2  A    between atoms: N_7  and  C_44
    3  A    between atoms: C_8  and  C_11
    4  A    between atoms: C_8  and  O_18
    5  A    between atoms: C_10  and  C_13
    6  A    between atoms: C_11  and  C_12
    7  A    between atoms: C_11  and  C_34
    8  A    between atoms: C_16  and  C_38
    9  A    between atoms: C_16  and  C_44
   10  A    between atoms: O_18  and  P_41
   11  A    between atoms: N_20  and  C_32
   12  A    between atoms: N_24  and  C_36
   13  A    between atoms: P_30  and  N_48
   14  A    between atoms: N_39  and  N_48
   15  A    between atoms: C_42  and  C_47
                            x       y       z     vdW  Elec       q    Type
                         _______ _______ _______ _____ _____    ______ ____

>  <TORSDO>
F 15

$$$$
=
 OpenBabel11062418293D

 48 51  0  0  1  0  0  0  0  0999 V2000
  187.6660  177.4780  146.4640 C   0  0  0  0  0  3  0  0  0  0  0  0
  184.8360  178.0470  143.9440 C   0  0  0  0  0  0  0  0  0  0  0  0
  186.3820  176.0230  142.6380 C   0  0  0  0  0  2  0  0  0  0  0  0
  186.4870  178.0020  145.9230 C   0  0  0  0  0  0  0  0  0  0  0  0
  183.9250  178.6510  144.5670 O   0  0  0  0  0  0  0  0  0  0  0  0
  186.8820  176.6340  143.9260 C   0  0  0  0  0  0  0  0  0  0  0  0
  188.0860  176.1550  144.4870 C   0  0  0  0  0  0  0  0  0  0  0  0
  185.4450  176.9110  141.8820 C   0  0  0  0  0  3  0  0  0  0  0  0
  184.6810  177.8220  142.4950 C   0  0  0  0  0  0  0  0  0  0  0  0
  188.4610  176.5670  145.7800 C   0  0  0  0  0  0  0  0  0  0  0  0
  186.0680  177.5560  144.6340 C   0  0  0  0  0  0  0  0  0  0  0  0
  185.7200  179.0170  146.7560 C   0  0  0  0  0  0  0  0  0  0  0  0
  184.4550  178.5330  147.1040 O   0  0  0  0  0  1  0  0  0  0  0  0
  185.5500  180.1840  146.0300 F   0  0  0  0  0  0  0  0  0  0  0  0
  186.4230  179.2890  147.9310 O   0  0  0  0  0  1  0  0  0  0  0  0
  190.0020  175.5670  142.9430 C   0  0  0  0  0  0  0  0  0  0  0  0
  190.4490  176.7480  142.9650 O   0  0  0  0  0  0  0  0  0  0  0  0
  188.8910  175.2070  143.7720 N   0  0  0  0  0  2  0  0  0  0  0  0
  190.6390  174.5180  142.0720 C   0  0  2  0  0  3  0  0  0  0  0  0
  188.7160  174.4330  140.5250 C   0  0  0  0  0  2  0  0  0  0  0  0
  189.7630  173.4940  139.9710 C   0  0  0  0  0  2  0  0  0  0  0  0
  189.5710  173.6140  141.4700 C   0  0  0  0  0  3  0  0  0  0  0  0
  191.6650  173.6800  142.8240 C   0  0  0  0  0  2  0  0  0  0  0  0
  192.7870  173.4640  142.0210 O   0  0  0  0  0  0  0  0  0  0  0  0
  193.9270  175.3790  143.4150 O   0  0  0  0  0  1  0  0  0  0  0  0
  194.1110  173.9510  142.9590 P   0  0  0  0  0  0  0  0  0  0  0  0
  195.5430  173.8210  142.0590 O   0  0  0  0  0  0  0  0  0  0  0  0
  194.2240  172.9500  144.3200 O   0  0  0  0  0  1  0  0  0  0  0  0
  183.6430  178.5960  141.7260 C   0  0  1  0  0  3  0  0  0  0  0  0
  184.0030  178.7250  140.2530 C   0  0  0  0  0  1  0  0  0  0  0  0
  182.2570  177.9780  141.8830 C   0  0  0  0  0  2  0  0  0  0  0  0
  178.8830  179.5840  141.0870 N   0  0  0  0  0  2  0  0  0  0  0  0
  181.2300  178.9590  141.5600 N   0  0  0  0  0  2  0  0  0  0  0  0
  179.8320  178.6740  141.6380 C   0  0  0  0  0  0  0  0  0  0  0  0
  179.4300  177.6100  142.1730 O   0  0  0  0  0  0  0  0  0  0  0  0
  179.2930  180.7400  140.4160 N   0  0  0  0  0  0  0  0  0  0  0  0
  180.2430  181.5160  139.9730 O   0  0  0  0  0  0  0  0  0  0  0  0
  178.9970  181.8360  139.7640 N   0  0  0  0  0  0  0  0  0  0  0  0
  178.0380  182.7040  139.2320 N   0  0  0  0  0  2  0  0  0  0  0  0
  177.6930  182.8790  136.5940 O   0  0  0  0  0  0  0  0  0  0  0  0
  177.7900  185.1530  137.8820 O   0  0  0  0  0  1  0  0  0  0  0  0
  178.3760  183.5720  137.7510 P   0  0  1  0  0  0  0  0  0  0  0  0
  180.1650  183.6160  137.4660 C   0  0  0  0  0  1  0  0  0  0  0  0
  190.5020  176.9480  147.0570 N   0  0  0  0  0  0  0  0  0  0  0  0
  189.6890  176.1290  146.4670 C   0  0  0  0  0  3  0  0  0  0  0  0
  191.9240  176.8590  148.9580 N   0  0  0  0  0  2  0  0  0  0  0  0
  192.6680  175.6590  147.0160 C   0  0  0  0  0  1  0  0  0  0  0  0
  191.6820  176.5040  147.7370 C   0  0  0  0  0  0  0  0  0  0  0  0
  2  5  2  0  0  0  0
  2 11  1  0  0  0  0
  3  6  1  0  0  0  0
  4  1  1  0  0  0  0
  4 12  1  0  0  0  0
  6  7  2  0  0  0  0
  6 11  1  0  0  0  0
  7 10  1  0  0  0  0
  8  9  2  0  0  0  0
  8  3  1  0  0  0  0
  9  2  1  0  0  0  0
 10  1  2  0  0  0  0
 10 45  1  0  0  0  0
 11  4  2  0  0  0  0
 12 13  1  0  0  0  0
 12 15  1  0  0  0  0
 14 12  1  0  0  0  0
 16 17  2  0  0  0  0
 16 18  1  0  0  0  0
 18  7  1  0  0  0  0
 19 23  1  1  0  0  0
 19 16  1  0  0  0  0
 20 22  1  0  0  0  0
 21 20  1  0  0  0  0
 21 22  1  0  0  0  0
 22 19  1  0  0  0  0
 24 23  1  0  0  0  0
 24 26  1  0  0  0  0
 26 25  1  0  0  0  0
 26 28  1  0  0  0  0
 27 26  2  0  0  0  0
 29 30  1  6  0  0  0
 29 31  1  0  0  0  0
 29  9  1  0  0  0  0
 32 34  1  0  0  0  0
 33 34  1  0  0  0  0
 33 31  1  0  0  0  0
 34 35  2  0  0  0  0
 36 32  1  0  0  0  0
 37 36  1  0  0  0  0
 38 37  1  0  0  0  0
 38 36  1  0  0  0  0
 39 38  1  0  0  0  0
 40 42  2  0  0  0  0
 42 43  1  6  0  0  0
 42 41  1  0  0  0  0
 42 39  1  0  0  0  0
 44 48  1  0  0  0  0
 45 44  2  0  0  0  0
 47 48  1  0  0  0  0
 48 46  2  0  0  0  0
M  END
>  <MODEL>
6

>  <REMARK>
 VINA RESULT:      -6.3      4.956     11.961
  Name = 
  15 active torsions:
  status: ('A' for Active; 'I' for Inactive)
    1  A    between atoms: N_5  and  N_15
    2  A    between atoms: N_7  and  C_44
    3  A    between atoms: C_8  and  C_11
    4  A    between atoms: C_8  and  O_18
    5  A    between atoms: C_10  and  C_13
    6  A    between atoms: C_11  and  C_12
    7  A    between atoms: C_11  and  C_34
    8  A    between atoms: C_16  and  C_38
    9  A    between atoms: C_16  and  C_44
   10  A    between atoms: O_18  and  P_41
   11  A    between atoms: N_20  and  C_32
   12  A    between atoms: N_24  and  C_36
   13  A    between atoms: P_30  and  N_48
   14  A    between atoms: N_39  and  N_48
   15  A    between atoms: C_42  and  C_47
                            x       y       z     vdW  Elec       q    Type
                         _______ _______ _______ _____ _____    ______ ____

>  <TORSDO>
F 15

$$$$
=
 OpenBabel11062418293D

 48 51  0  0  1  0  0  0  0  0999 V2000
  187.8180  175.2900  140.1280 C   0  0  0  0  0  3  0  0  0  0  0  0
  190.0210  172.1840  140.5500 C   0  0  0  0  0  0  0  0  0  0  0  0
  189.5440  172.9330  143.2710 C   0  0  0  0  0  2  0  0  0  0  0  0
  188.5720  174.1670  139.7710 C   0  0  0  0  0  0  0  0  0  0  0  0
  189.9980  171.5810  139.4450 O   0  0  0  0  0  0  0  0  0  0  0  0
  189.0470  173.8180  142.1510 C   0  0  0  0  0  0  0  0  0  0  0  0
  188.3110  174.9780  142.4730 C   0  0  0  0  0  0  0  0  0  0  0  0
  190.7050  172.0740  142.8810 C   0  0  0  0  0  3  0  0  0  0  0  0
  190.9030  171.6770  141.6190 C   0  0  0  0  0  0  0  0  0  0  0  0
  187.6720  175.7010  141.4480 C   0  0  0  0  0  0  0  0  0  0  0  0
  189.1840  173.3960  140.8030 C   0  0  0  0  0  0  0  0  0  0  0  0
  188.6840  173.8370  138.2900 C   0  0  0  0  0  0  0  0  0  0  0  0
  187.9370  174.7310  137.5160 O   0  0  0  0  0  1  0  0  0  0  0  0
  188.2030  172.5600  138.0590 F   0  0  0  0  0  0  0  0  0  0  0  0
  190.0190  173.9210  137.8890 O   0  0  0  0  0  1  0  0  0  0  0  0
  188.8540  176.4940  144.4250 C   0  0  0  0  0  0  0  0  0  0  0  0
  189.4910  177.2980  143.6890 O   0  0  0  0  0  0  0  0  0  0  0  0
  188.1610  175.3840  143.8410 N   0  0  0  0  0  2  0  0  0  0  0  0
  188.7880  176.6980  145.9150 C   0  0  2  0  0  3  0  0  0  0  0  0
  186.3230  176.7960  146.0190 C   0  0  0  0  0  2  0  0  0  0  0  0
  186.8270  176.9740  147.4340 C   0  0  0  0  0  2  0  0  0  0  0  0
  187.5970  177.5760  146.2740 C   0  0  0  0  0  3  0  0  0  0  0  0
  190.0680  177.3030  146.4770 C   0  0  0  0  0  2  0  0  0  0  0  0
  190.8060  176.3230  147.1450 O   0  0  0  0  0  0  0  0  0  0  0  0
  193.3930  175.9030  146.9420 O   0  0  0  0  0  1  0  0  0  0  0  0
  192.1210  175.9830  146.1320 P   0  0  0  0  0  0  0  0  0  0  0  0
  192.2740  177.1880  144.9490 O   0  0  0  0  0  0  0  0  0  0  0  0
  191.8610  174.4930  145.3700 O   0  0  0  0  0  1  0  0  0  0  0  0
  191.9940  170.6950  141.2850 C   0  0  1  0  0  3  0  0  0  0  0  0
  193.2610  171.3910  140.8100 C   0  0  0  0  0  1  0  0  0  0  0  0
  192.3010  169.7790  142.4650 C   0  0  0  0  0  2  0  0  0  0  0  0
  194.9350  170.4130  145.1590 N   0  0  0  0  0  2  0  0  0  0  0  0
  193.5100  170.2240  143.1450 N   0  0  0  0  0  2  0  0  0  0  0  0
  193.8790  169.7710  144.4490 C   0  0  0  0  0  0  0  0  0  0  0  0
  193.2610  168.8180  144.9880 O   0  0  0  0  0  0  0  0  0  0  0  0
  195.5950  171.5240  144.6260 N   0  0  0  0  0  0  0  0  0  0  0  0
  196.5740  172.0360  143.9320 O   0  0  0  0  0  0  0  0  0  0  0  0
  195.6730  172.8200  144.4550 N   0  0  0  0  0  0  0  0  0  0  0  0
  195.1570  174.1020  144.6730 N   0  0  0  0  0  2  0  0  0  0  0  0
  195.6960  176.6810  144.2630 O   0  0  0  0  0  1  0  0  0  0  0  0
  196.8760  174.9990  142.6440 O   0  0  0  0  0  0  0  0  0  0  0  0
  195.4830  175.3790  143.5230 P   0  0  1  0  0  0  0  0  0  0  0  0
  194.0810  175.5470  142.3860 C   0  0  0  0  0  1  0  0  0  0  0  0
  185.8110  176.9500  142.4070 N   0  0  0  0  0  0  0  0  0  0  0  0
  186.8740  176.9210  141.6650 C   0  0  0  0  0  3  0  0  0  0  0  0
  183.8640  178.2850  142.1410 N   0  0  0  0  0  2  0  0  0  0  0  0
  185.6700  179.2730  143.3750 C   0  0  0  0  0  1  0  0  0  0  0  0
  185.0570  178.1490  142.6230 C   0  0  0  0  0  0  0  0  0  0  0  0
  1 10  1  0  0  0  0
  2 11  1  0  0  0  0
  2  9  1  0  0  0  0
  4  1  2  0  0  0  0
  4 11  1  0  0  0  0
  5  2  2  0  0  0  0
  6  7  1  0  0  0  0
  6  3  1  0  0  0  0
  7 18  1  0  0  0  0
  8  3  1  0  0  0  0
  9  8  2  0  0  0  0
 10 45  1  0  0  0  0
 10  7  2  0  0  0  0
 11  6  2  0  0  0  0
 12  4  1  0  0  0  0
 13 12  1  0  0  0  0
 14 12  1  0  0  0  0
 15 12  1  0  0  0  0
 16 19  1  0  0  0  0
 17 16  2  0  0  0  0
 18 16  1  0  0  0  0
 19 22  1  0  0  0  0
 19 23  1  6  0  0  0
 20 22  1  0  0  0  0
 20 21  1  0  0  0  0
 22 21  1  0  0  0  0
 23 24  1  0  0  0  0
 26 25  1  0  0  0  0
 26 24  1  0  0  0  0
 27 26  2  0  0  0  0
 28 26  1  0  0  0  0
 29 30  1  1  0  0  0
 29  9  1  0  0  0  0
 29 31  1  0  0  0  0
 31 33  1  0  0  0  0
 33 34  1  0  0  0  0
 34 35  2  0  0  0  0
 34 32  1  0  0  0  0
 36 32  1  0  0  0  0
 37 38  1  0  0  0  0
 37 36  1  0  0  0  0
 38 36  1  0  0  0  0
 38 39  1  0  0  0  0
 41 42  2  0  0  0  0
 42 43  1  6  0  0  0
 42 40  1  0  0  0  0
 42 39  1  0  0  0  0
 44 48  1  0  0  0  0
 45 44  2  0  0  0  0
 46 48  2  0  0  0  0
 48 47  1  0  0  0  0
M  END
>  <MODEL>
7

>  <REMARK>
 VINA RESULT:      -6.3      2.100      2.872
  Name = 
  15 active torsions:
  status: ('A' for Active; 'I' for Inactive)
    1  A    between atoms: N_5  and  N_15
    2  A    between atoms: N_7  and  C_44
    3  A    between atoms: C_8  and  C_11
    4  A    between atoms: C_8  and  O_18
    5  A    between atoms: C_10  and  C_13
    6  A    between atoms: C_11  and  C_12
    7  A    between atoms: C_11  and  C_34
    8  A    between atoms: C_16  and  C_38
    9  A    between atoms: C_16  and  C_44
   10  A    between atoms: O_18  and  P_41
   11  A    between atoms: N_20  and  C_32
   12  A    between atoms: N_24  and  C_36
   13  A    between atoms: P_30  and  N_48
   14  A    between atoms: N_39  and  N_48
   15  A    between atoms: C_42  and  C_47
                            x       y       z     vdW  Elec       q    Type
                         _______ _______ _______ _____ _____    ______ ____

>  <TORSDO>
F 15

$$$$
=
 OpenBabel11062418293D

 48 51  0  0  1  0  0  0  0  0999 V2000
  189.8230  176.9810  146.2610 C   0  0  0  0  0  3  0  0  0  0  0  0
  192.6980  174.8000  144.9730 C   0  0  0  0  0  0  0  0  0  0  0  0
  190.9980  174.9420  142.6740 C   0  0  0  0  0  2  0  0  0  0  0  0
  191.0420  176.2940  146.2640 C   0  0  0  0  0  0  0  0  0  0  0  0
  193.6530  174.9640  145.7760 O   0  0  0  0  0  0  0  0  0  0  0  0
  190.5440  175.5500  143.9800 C   0  0  0  0  0  0  0  0  0  0  0  0
  189.3040  176.2230  144.0270 C   0  0  0  0  0  0  0  0  0  0  0  0
  192.0060  173.8500  142.8430 C   0  0  0  0  0  3  0  0  0  0  0  0
  192.8390  173.8090  143.8890 C   0  0  0  0  0  0  0  0  0  0  0  0
  188.9590  176.9640  145.1730 C   0  0  0  0  0  0  0  0  0  0  0  0
  191.4270  175.5800  145.0910 C   0  0  0  0  0  0  0  0  0  0  0  0
  191.8850  176.3620  147.5280 C   0  0  0  0  0  0  0  0  0  0  0  0
  191.3400  177.2610  148.4510 O   0  0  0  0  0  1  0  0  0  0  0  0
  193.1640  176.7900  147.2130 F   0  0  0  0  0  0  0  0  0  0  0  0
  191.9400  175.1020  148.1260 O   0  0  0  0  0  1  0  0  0  0  0  0
  188.3920  177.2300  141.8920 C   0  0  0  0  0  0  0  0  0  0  0  0
  189.2910  178.1160  141.8650 O   0  0  0  0  0  0  0  0  0  0  0  0
  188.4270  176.2040  142.8910 N   0  0  0  0  0  2  0  0  0  0  0  0
  187.2890  177.2180  140.8670 C   0  0  2  0  0  3  0  0  0  0  0  0
  185.6900  178.6760  142.0570 C   0  0  0  0  0  2  0  0  0  0  0  0
  184.9920  178.1920  140.8050 C   0  0  0  0  0  2  0  0  0  0  0  0
  185.9310  177.2670  141.5540 C   0  0  0  0  0  3  0  0  0  0  0  0
  187.3620  176.0080  139.9460 C   0  0  0  0  0  2  0  0  0  0  0  0
  188.2330  175.0540  140.4780 O   0  0  0  0  0  0  0  0  0  0  0  0
  188.0740  174.5700  137.9000 O   0  0  0  0  0  0  0  0  0  0  0  0
  188.5670  173.9890  139.2050 P   0  0  0  0  0  0  0  0  0  0  0  0
  187.8170  172.4930  139.4810 O   0  0  0  0  0  1  0  0  0  0  0  0
  190.2410  173.7550  139.1030 O   0  0  0  0  0  1  0  0  0  0  0  0
  193.9390  172.7820  143.9550 C   0  0  1  0  0  3  0  0  0  0  0  0
  193.7950  171.8710  145.1650 C   0  0  0  0  0  1  0  0  0  0  0  0
  194.0100  171.9580  142.6740 C   0  0  0  0  0  2  0  0  0  0  0  0
  197.6570  171.9710  141.5390 N   0  0  0  0  0  2  0  0  0  0  0  0
  195.2350  172.2630  141.9470 N   0  0  0  0  0  2  0  0  0  0  0  0
  196.4300  171.4920  142.0840 C   0  0  0  0  0  0  0  0  0  0  0  0
  196.4130  170.3980  142.7020 O   0  0  0  0  0  0  0  0  0  0  0  0
  197.7340  173.2180  140.9120 N   0  0  0  0  0  0  0  0  0  0  0  0
  197.7520  173.9400  139.8260 O   0  0  0  0  0  0  0  0  0  0  0  0
  197.8340  174.5210  140.9910 N   0  0  0  0  0  0  0  0  0  0  0  0
  197.9400  175.6810  141.7660 N   0  0  0  0  0  2  0  0  0  0  0  0
  196.9840  177.3830  143.5810 O   0  0  0  0  0  1  0  0  0  0  0  0
  195.2150  175.8490  142.4170 O   0  0  0  0  0  0  0  0  0  0  0  0
  196.7810  175.9860  143.0400 P   0  0  1  0  0  0  0  0  0  0  0  0
  197.0070  174.7770  144.3720 C   0  0  0  0  0  1  0  0  0  0  0  0
  186.8120  177.4220  146.2340 N   0  0  0  0  0  0  0  0  0  0  0  0
  187.6970  177.7090  145.3320 C   0  0  0  0  0  3  0  0  0  0  0  0
  185.1580  178.4950  147.5580 N   0  0  0  0  0  2  0  0  0  0  0  0
  184.8110  178.5370  145.1830 C   0  0  0  0  0  1  0  0  0  0  0  0
  185.6000  178.1690  146.3870 C   0  0  0  0  0  0  0  0  0  0  0  0
  1  4  1  0  0  0  0
  2 11  1  0  0  0  0
  2  5  2  0  0  0  0
  3  8  1  0  0  0  0
  3  6  1  0  0  0  0
  4 12  1  0  0  0  0
  6  7  2  0  0  0  0
  6 11  1  0  0  0  0
  7 10  1  0  0  0  0
  8  9  2  0  0  0  0
  9 29  1  0  0  0  0
  9  2  1  0  0  0  0
 10 45  1  0  0  0  0
 10  1  2  0  0  0  0
 11  4  2  0  0  0  0
 12 15  1  0  0  0  0
 12 13  1  0  0  0  0
 14 12  1  0  0  0  0
 16 18  1  0  0  0  0
 17 16  2  0  0  0  0
 18  7  1  0  0  0  0
 19 23  1  1  0  0  0
 19 22  1  0  0  0  0
 19 16  1  0  0  0  0
 21 22  1  0  0  0  0
 21 20  1  0  0  0  0
 22 20  1  0  0  0  0
 23 24  1  0  0  0  0
 25 26  2  0  0  0  0
 26 27  1  0  0  0  0
 26 24  1  0  0  0  0
 28 26  1  0  0  0  0
 29 30  1  1  0  0  0
 31 29  1  0  0  0  0
 32 34  1  0  0  0  0
 33 34  1  0  0  0  0
 33 31  1  0  0  0  0
 34 35  2  0  0  0  0
 36 38  1  0  0  0  0
 36 32  1  0  0  0  0
 37 36  1  0  0  0  0
 37 38  1  0  0  0  0
 38 39  1  0  0  0  0
 39 42  1  0  0  0  0
 41 42  2  0  0  0  0
 42 40  1  0  0  0  0
 42 43  1  1  0  0  0
 44 48  1  0  0  0  0
 45 44  2  0  0  0  0
 47 48  1  0  0  0  0
 48 46  2  0  0  0  0
M  END
>  <MODEL>
8

>  <REMARK>
 VINA RESULT:      -6.3      3.348      5.788
  Name = 
  15 active torsions:
  status: ('A' for Active; 'I' for Inactive)
    1  A    between atoms: N_5  and  N_15
    2  A    between atoms: N_7  and  C_44
    3  A    between atoms: C_8  and  C_11
    4  A    between atoms: C_8  and  O_18
    5  A    between atoms: C_10  and  C_13
    6  A    between atoms: C_11  and  C_12
    7  A    between atoms: C_11  and  C_34
    8  A    between atoms: C_16  and  C_38
    9  A    between atoms: C_16  and  C_44
   10  A    between atoms: O_18  and  P_41
   11  A    between atoms: N_20  and  C_32
   12  A    between atoms: N_24  and  C_36
   13  A    between atoms: P_30  and  N_48
   14  A    between atoms: N_39  and  N_48
   15  A    between atoms: C_42  and  C_47
                            x       y       z     vdW  Elec       q    Type
                         _______ _______ _______ _____ _____    ______ ____

>  <TORSDO>
F 15

$$$$
=
 OpenBabel11062418293D

 48 51  0  0  1  0  0  0  0  0999 V2000
  187.9900  176.1360  144.3690 C   0  0  0  0  0  3  0  0  0  0  0  0
  191.4880  174.7090  145.0060 C   0  0  0  0  0  0  0  0  0  0  0  0
  191.2860  174.5070  142.1590 C   0  0  0  0  0  2  0  0  0  0  0  0
  189.1320  175.7500  145.0790 C   0  0  0  0  0  0  0  0  0  0  0  0
  191.8110  175.0710  146.1680 O   0  0  0  0  0  0  0  0  0  0  0  0
  190.0920  174.9640  142.9640 C   0  0  0  0  0  0  0  0  0  0  0  0
  188.9100  175.3300  142.2860 C   0  0  0  0  0  0  0  0  0  0  0  0
  192.2510  173.6740  142.9420 C   0  0  0  0  0  3  0  0  0  0  0  0
  192.3870  173.8030  144.2660 C   0  0  0  0  0  0  0  0  0  0  0  0
  187.8630  175.9450  142.9990 C   0  0  0  0  0  0  0  0  0  0  0  0
  190.2210  175.1710  144.3620 C   0  0  0  0  0  0  0  0  0  0  0  0
  189.1380  175.9820  146.5820 C   0  0  0  0  0  0  0  0  0  0  0  0
  190.0540  176.9780  146.9360 O   0  0  0  0  0  1  0  0  0  0  0  0
  189.4980  174.8150  147.2340 F   0  0  0  0  0  0  0  0  0  0  0  0
  187.8690  176.3870  147.0010 O   0  0  0  0  0  1  0  0  0  0  0  0
  188.4070  173.8980  140.2610 C   0  0  0  0  0  0  0  0  0  0  0  0
  187.9440  172.9640  140.9730 O   0  0  0  0  0  0  0  0  0  0  0  0
  188.7980  175.1350  140.8690 N   0  0  0  0  0  2  0  0  0  0  0  0
  188.5320  173.7420  138.7690 C   0  0  2  0  0  3  0  0  0  0  0  0
  190.7040  172.6160  139.1080 C   0  0  0  0  0  2  0  0  0  0  0  0
  190.3410  172.4360  137.6500 C   0  0  0  0  0  2  0  0  0  0  0  0
  189.9990  173.7310  138.3610 C   0  0  0  0  0  3  0  0  0  0  0  0
  187.7890  174.8300  138.0050 C   0  0  0  0  0  2  0  0  0  0  0  0
  188.1990  174.8420  136.6700 O   0  0  0  0  0  0  0  0  0  0  0  0
  186.9380  177.1090  137.0870 O   0  0  0  0  0  1  0  0  0  0  0  0
  187.4980  176.2280  135.9960 P   0  0  0  0  0  0  0  0  0  0  0  0
  186.2580  175.7930  134.9230 O   0  0  0  0  0  0  0  0  0  0  0  0
  188.6820  177.0910  135.1470 O   0  0  0  0  0  1  0  0  0  0  0  0
  193.4670  173.0570  145.0040 C   0  0  1  0  0  3  0  0  0  0  0  0
  194.2210  172.0990  144.0940 C   0  0  0  0  0  1  0  0  0  0  0  0
  194.4380  174.0150  145.6890 C   0  0  0  0  0  2  0  0  0  0  0  0
  196.0580  176.5250  143.3080 N   0  0  0  0  0  2  0  0  0  0  0  0
  195.3260  174.6190  144.7050 N   0  0  0  0  0  2  0  0  0  0  0  0
  195.3480  176.0220  144.4370 C   0  0  0  0  0  0  0  0  0  0  0  0
  194.7250  176.8200  145.1810 O   0  0  0  0  0  0  0  0  0  0  0  0
  196.6990  175.6630  142.4130 N   0  0  0  0  0  0  0  0  0  0  0  0
  197.4390  174.6140  142.1830 O   0  0  0  0  0  0  0  0  0  0  0  0
  196.9890  175.3190  141.1830 N   0  0  0  0  0  0  0  0  0  0  0  0
  196.8810  175.5450  139.8070 N   0  0  0  0  0  2  0  0  0  0  0  0
  195.6490  175.2320  137.4640 O   0  0  0  0  0  0  0  0  0  0  0  0
  196.0440  173.0450  138.8440 O   0  0  0  0  0  1  0  0  0  0  0  0
  195.6690  174.6930  138.8760 P   0  0  1  0  0  0  0  0  0  0  0  0
  194.0410  174.9260  139.6410 C   0  0  0  0  0  1  0  0  0  0  0  0
  186.0960  177.5630  142.5490 N   0  0  0  0  0  0  0  0  0  0  0  0
  186.5880  176.3740  142.3960 C   0  0  0  0  0  3  0  0  0  0  0  0
  183.7950  178.1450  142.6480 N   0  0  0  0  0  2  0  0  0  0  0  0
  184.8020  178.1530  140.4680 C   0  0  0  0  0  1  0  0  0  0  0  0
  184.8650  177.9710  141.9410 C   0  0  0  0  0  0  0  0  0  0  0  0
  1  4  1  0  0  0  0
  2  5  2  0  0  0  0
  3  8  1  0  0  0  0
  3  6  1  0  0  0  0
  4 12  1  0  0  0  0
  6 11  1  0  0  0  0
  7  6  2  0  0  0  0
  7 10  1  0  0  0  0
  8  9  2  0  0  0  0
  9 29  1  0  0  0  0
  9  2  1  0  0  0  0
 10  1  2  0  0  0  0
 11  2  1  0  0  0  0
 11  4  2  0  0  0  0
 12 13  1  0  0  0  0
 12 15  1  0  0  0  0
 12 14  1  0  0  0  0
 16 18  1  0  0  0  0
 16 17  2  0  0  0  0
 18  7  1  0  0  0  0
 19 23  1  6  0  0  0
 19 16  1  0  0  0  0
 21 22  1  0  0  0  0
 21 20  1  0  0  0  0
 22 19  1  0  0  0  0
 22 20  1  0  0  0  0
 24 23  1  0  0  0  0
 26 24  1  0  0  0  0
 26 25  1  0  0  0  0
 27 26  2  0  0  0  0
 28 26  1  0  0  0  0
 29 30  1  6  0  0  0
 29 31  1  0  0  0  0
 32 34  1  0  0  0  0
 33 31  1  0  0  0  0
 34 33  1  0  0  0  0
 34 35  2  0  0  0  0
 36 32  1  0  0  0  0
 37 36  1  0  0  0  0
 38 37  1  0  0  0  0
 38 36  1  0  0  0  0
 39 38  1  0  0  0  0
 40 42  2  0  0  0  0
 41 42  1  0  0  0  0
 42 43  1  1  0  0  0
 42 39  1  0  0  0  0
 45 44  2  0  0  0  0
 45 10  1  0  0  0  0
 47 48  1  0  0  0  0
 48 44  1  0  0  0  0
 48 46  2  0  0  0  0
M  END
>  <MODEL>
9

>  <REMARK>
 VINA RESULT:      -6.1      3.450      6.466
  Name = 
  15 active torsions:
  status: ('A' for Active; 'I' for Inactive)
    1  A    between atoms: N_5  and  N_15
    2  A    between atoms: N_7  and  C_44
    3  A    between atoms: C_8  and  C_11
    4  A    between atoms: C_8  and  O_18
    5  A    between atoms: C_10  and  C_13
    6  A    between atoms: C_11  and  C_12
    7  A    between atoms: C_11  and  C_34
    8  A    between atoms: C_16  and  C_38
    9  A    between atoms: C_16  and  C_44
   10  A    between atoms: O_18  and  P_41
   11  A    between atoms: N_20  and  C_32
   12  A    between atoms: N_24  and  C_36
   13  A    between atoms: P_30  and  N_48
   14  A    between atoms: N_39  and  N_48
   15  A    between atoms: C_42  and  C_47
                            x       y       z     vdW  Elec       q    Type
                         _______ _______ _______ _____ _____    ______ ____

>  <TORSDO>
F 15

$$$$
