=
 OpenBabel11062421023D

 38 42  0  0  1  0  0  0  0  0999 V2000
  193.0940  175.6480  146.6790 C   0  0  0  0  0  2  0  0  0  0  0  0
  191.8830  176.5700  146.7620 C   0  0  1  0  0  3  0  0  0  0  0  0
  190.7230  176.0160  145.9170 C   0  0  1  0  0  3  0  0  0  0  0  0
  191.4990  176.7420  148.0930 O   0  0  0  0  0  1  0  0  0  0  0  0
  192.1450  174.8760  144.4940 C   0  0  0  0  0  2  0  0  0  0  0  0
  191.1230  175.8520  144.5680 O   0  0  0  0  0  0  0  0  0  0  0  0
  193.4160  175.3410  145.2180 C   0  0  2  0  0  3  0  0  0  0  0  0
  195.7520  174.7630  144.2820 C   0  0  1  0  0  0  0  0  0  0  0  0
  196.1920  174.6590  140.2000 O   0  0  0  0  0  0  0  0  0  0  0  0
  197.0040  174.1170  144.8820 C   0  0  0  0  0  1  0  0  0  0  0  0
  197.6030  175.7770  142.3360 O   0  0  0  0  0  0  0  0  0  0  0  0
  196.7720  174.3970  141.7680 P   0  0  2  0  0  0  0  0  0  0  0  0
  194.1050  172.9760  144.5130 C   0  0  0  0  0  2  0  0  0  0  0  0
  194.8620  172.8020  143.1930 C   0  0  0  0  0  2  0  0  0  0  0  0
  194.5640  174.3180  145.1340 C   0  0  2  0  0  3  0  0  0  0  0  0
  197.6860  173.1940  141.7910 O   0  0  0  0  0  1  0  0  0  0  0  0
  196.0120  176.2790  144.1660 C   0  0  0  0  0  2  0  0  0  0  0  0
  195.3940  174.1860  142.9290 C   0  0  1  0  0  3  0  0  0  0  0  0
  196.6200  176.6810  142.7960 C   0  0  0  0  0  2  0  0  0  0  0  0
  190.0930  174.7420  146.4890 C   0  0  0  0  0  2  0  0  0  0  0  0
  188.7590  175.0420  147.1500 C   0  0  0  0  0  2  0  0  0  0  0  0
  188.3100  176.4470  146.7920 C   0  0  0  0  0  2  0  0  0  0  0  0
  187.0140  176.4090  145.9960 C   0  0  0  0  0  2  0  0  0  0  0  0
  187.1170  177.3350  144.7890 C   0  0  2  0  0  3  0  0  0  0  0  0
  184.2290  177.7750  140.3230 C   0  0  0  0  0  2  0  0  0  0  0  0
  189.2940  178.2460  143.4430 F   0  0  0  0  0  0  0  0  0  0  0  0
  185.7640  178.0120  144.3830 C   0  0  1  0  0  3  0  0  0  0  0  0
  185.6920  178.1610  140.5100 C   0  0  0  0  0  2  0  0  0  0  0  0
  186.2310  177.6460  141.8530 C   0  0  1  0  0  3  0  0  0  0  0  0
  183.4350  178.3740  141.4420 C   0  0  0  0  0  3  0  0  0  0  0  0
  188.3070  177.5050  142.8100 C   0  0  0  0  0  0  0  0  0  0  0  0
  187.3670  178.3910  142.2270 O   0  0  0  0  0  0  0  0  0  0  0  0
  183.8940  178.2930  142.6950 C   0  0  0  0  0  3  0  0  0  0  0  0
  187.7030  176.6090  143.7310 O   0  0  0  0  0  0  0  0  0  0  0  0
  188.9140  176.7650  141.8080 F   0  0  0  0  0  0  0  0  0  0  0  0
  185.1880  177.5730  143.0150 C   0  0  2  0  0  3  0  0  0  0  0  0
  184.4630  179.0680  146.0610 O   0  0  0  0  0  0  0  0  0  0  0  0
  184.7200  178.0330  145.4680 C   0  0  0  0  0  3  0  0  0  0  0  0
  1  2  1  0  0  0  0
  2  4  1  1  0  0  0
  3 20  1  1  0  0  0
  3  2  1  0  0  0  0
  5  6  1  0  0  0  0
  6  3  1  0  0  0  0
  7  5  1  1  0  0  0
  7  1  1  0  0  0  0
  8 10  1  1  0  0  0
  8 15  1  0  0  0  0
 11 19  1  0  0  0  0
 12  9  2  6  0  0  0
 12 16  1  0  0  0  0
 12 11  1  0  0  0  0
 12 18  1  0  0  0  0
 14 13  1  0  0  0  0
 15 13  1  6  0  0  0
 15  7  1  0  0  0  0
 17  8  1  0  0  0  0
 18 14  1  1  0  0  0
 18  8  1  0  0  0  0
 19 17  1  0  0  0  0
 20 21  1  0  0  0  0
 22 21  1  0  0  0  0
 23 22  1  0  0  0  0
 24 23  1  1  0  0  0
 25 28  1  0  0  0  0
 25 30  1  0  0  0  0
 27 24  1  0  0  0  0
 27 38  1  1  0  0  0
 29 28  1  6  0  0  0
 29 32  1  0  0  0  0
 29 36  1  0  0  0  0
 30 33  2  0  0  0  0
 31 26  1  0  0  0  0
 31 34  1  0  0  0  0
 32 31  1  0  0  0  0
 34 24  1  0  0  0  0
 35 31  1  0  0  0  0
 36 33  1  6  0  0  0
 36 27  1  0  0  0  0
 38 37  2  0  0  0  0
M  END
>  <MODEL>
1

>  <REMARK>
 VINA RESULT:      -8.6      0.000      0.000
  Name = 
  7 active torsions:
  status: ('A' for Active; 'I' for Inactive)
    1  A    between atoms: C_2  and  C_34
    2  A    between atoms: C_7  and  C_26
    3  A    between atoms: C_16  and  C_38
    4  A    between atoms: C_20  and  C_22
    5  A    between atoms: C_20  and  C_34
    6  A    between atoms: C_21  and  C_32
    7  A    between atoms: C_22  and  C_32
                            x       y       z     vdW  Elec       q    Type
                         _______ _______ _______ _____ _____    ______ ____

>  <TORSDO>
F 7

$$$$
=
 OpenBabel11062421023D

 38 42  0  0  1  0  0  0  0  0999 V2000
  195.0160  175.1510  146.1020 C   0  0  0  0  0  2  0  0  0  0  0  0
  194.1730  176.3980  145.8610 C   0  0  1  0  0  3  0  0  0  0  0  0
  192.6760  176.0430  145.8430 C   0  0  1  0  0  3  0  0  0  0  0  0
  194.4510  177.3630  146.8300 O   0  0  0  0  0  1  0  0  0  0  0  0
  193.0760  173.8660  145.1790 C   0  0  0  0  0  2  0  0  0  0  0  0
  192.4070  175.0680  144.8530 O   0  0  0  0  0  0  0  0  0  0  0  0
  194.6010  174.0450  145.1360 C   0  0  2  0  0  3  0  0  0  0  0  0
  196.3190  172.2840  144.3520 C   0  0  1  0  0  0  0  0  0  0  0  0
  195.4760  170.2020  140.9140 O   0  0  0  0  0  0  0  0  0  0  0  0
  197.4830  171.5620  145.0370 C   0  0  0  0  0  1  0  0  0  0  0  0
  197.6980  171.5430  141.9470 O   0  0  0  0  0  0  0  0  0  0  0  0
  196.4110  170.4770  142.2980 P   0  0  2  0  0  0  0  0  0  0  0  0
  194.4150  171.5510  145.6940 C   0  0  0  0  0  2  0  0  0  0  0  0
  194.6720  170.5340  144.5770 C   0  0  0  0  0  2  0  0  0  0  0  0
  195.3680  172.7480  145.4550 C   0  0  2  0  0  3  0  0  0  0  0  0
  196.9490  169.1700  142.8310 O   0  0  0  0  0  1  0  0  0  0  0  0
  196.9130  173.3650  143.4270 C   0  0  0  0  0  2  0  0  0  0  0  0
  195.4380  171.3410  143.5610 C   0  0  1  0  0  3  0  0  0  0  0  0
  197.1650  172.8500  141.9850 C   0  0  0  0  0  2  0  0  0  0  0  0
  192.1200  175.6410  147.2140 C   0  0  0  0  0  2  0  0  0  0  0  0
  190.7010  176.1510  147.3970 C   0  0  0  0  0  2  0  0  0  0  0  0
  189.7120  175.0220  147.1690 C   0  0  0  0  0  2  0  0  0  0  0  0
  188.2980  175.5680  147.0330 C   0  0  0  0  0  2  0  0  0  0  0  0
  188.2510  176.6230  145.9340 C   0  0  2  0  0  3  0  0  0  0  0  0
  184.3930  178.1820  142.5930 C   0  0  0  0  0  2  0  0  0  0  0  0
  190.1080  177.3270  144.0800 F   0  0  0  0  0  0  0  0  0  0  0  0
  187.0090  177.5740  146.0120 C   0  0  1  0  0  3  0  0  0  0  0  0
  185.8960  178.2790  142.3650 C   0  0  0  0  0  2  0  0  0  0  0  0
  186.6700  177.4950  143.4360 C   0  0  1  0  0  3  0  0  0  0  0  0
  184.0820  178.7450  143.9450 C   0  0  0  0  0  3  0  0  0  0  0  0
  188.8540  176.8640  143.7110 C   0  0  0  0  0  0  0  0  0  0  0  0
  187.9930  177.9720  143.5140 O   0  0  0  0  0  0  0  0  0  0  0  0
  184.8430  178.4100  144.9920 C   0  0  0  0  0  3  0  0  0  0  0  0
  188.3580  175.9650  144.6910 O   0  0  0  0  0  0  0  0  0  0  0  0
  188.9920  176.1790  142.5140 F   0  0  0  0  0  0  0  0  0  0  0  0
  185.9980  177.4390  144.8460 C   0  0  2  0  0  3  0  0  0  0  0  0
  186.5310  178.5570  148.1160 O   0  0  0  0  0  0  0  0  0  0  0  0
  186.3350  177.6210  147.3570 C   0  0  0  0  0  3  0  0  0  0  0  0
  2  1  1  0  0  0  0
  2  4  1  1  0  0  0
  3  2  1  0  0  0  0
  3 20  1  1  0  0  0
  6  5  1  0  0  0  0
  6  3  1  0  0  0  0
  7  5  1  1  0  0  0
  7 15  1  0  0  0  0
  7  1  1  0  0  0  0
  8 10  1  1  0  0  0
  8 15  1  0  0  0  0
 11 19  1  0  0  0  0
 11 12  1  0  0  0  0
 12  9  2  6  0  0  0
 12 16  1  0  0  0  0
 12 18  1  0  0  0  0
 14 13  1  0  0  0  0
 15 13  1  6  0  0  0
 17  8  1  0  0  0  0
 18  8  1  0  0  0  0
 18 14  1  1  0  0  0
 19 17  1  0  0  0  0
 20 21  1  0  0  0  0
 22 21  1  0  0  0  0
 23 22  1  0  0  0  0
 24 27  1  0  0  0  0
 24 23  1  1  0  0  0
 25 30  1  0  0  0  0
 27 38  1  1  0  0  0
 28 25  1  0  0  0  0
 29 28  1  6  0  0  0
 29 32  1  0  0  0  0
 29 36  1  0  0  0  0
 30 33  2  0  0  0  0
 31 26  1  0  0  0  0
 31 34  1  0  0  0  0
 32 31  1  0  0  0  0
 34 24  1  0  0  0  0
 35 31  1  0  0  0  0
 36 33  1  6  0  0  0
 36 27  1  0  0  0  0
 38 37  2  0  0  0  0
M  END
>  <MODEL>
2

>  <REMARK>
 VINA RESULT:      -8.3      1.914      2.533
  Name = 
  7 active torsions:
  status: ('A' for Active; 'I' for Inactive)
    1  A    between atoms: C_2  and  C_34
    2  A    between atoms: C_7  and  C_26
    3  A    between atoms: C_16  and  C_38
    4  A    between atoms: C_20  and  C_22
    5  A    between atoms: C_20  and  C_34
    6  A    between atoms: C_21  and  C_32
    7  A    between atoms: C_22  and  C_32
                            x       y       z     vdW  Elec       q    Type
                         _______ _______ _______ _____ _____    ______ ____

>  <TORSDO>
F 7

$$$$
=
 OpenBabel11062421023D

 38 42  0  0  1  0  0  0  0  0999 V2000
  194.0410  174.6710  146.3600 C   0  0  0  0  0  2  0  0  0  0  0  0
  194.3960  176.1260  146.0760 C   0  0  1  0  0  3  0  0  0  0  0  0
  193.9550  176.5230  144.6570 C   0  0  1  0  0  3  0  0  0  0  0  0
  193.8170  176.9590  147.0350 O   0  0  0  0  0  1  0  0  0  0  0  0
  194.0900  174.3510  143.8770 C   0  0  0  0  0  2  0  0  0  0  0  0
  194.5530  175.6750  143.6930 O   0  0  0  0  0  0  0  0  0  0  0  0
  194.5470  173.7810  145.2270 C   0  0  2  0  0  3  0  0  0  0  0  0
  195.2030  171.2870  145.3610 C   0  0  1  0  0  0  0  0  0  0  0  0
  196.8850  169.5820  142.0250 O   0  0  0  0  0  0  0  0  0  0  0  0
  194.8280  170.1420  146.3060 C   0  0  0  0  0  1  0  0  0  0  0  0
  197.4600  169.6190  144.7580 O   0  0  0  0  0  0  0  0  0  0  0  0
  196.2300  169.4770  143.5820 P   0  0  2  0  0  0  0  0  0  0  0  0
  193.0350  171.8810  144.4080 C   0  0  0  0  0  2  0  0  0  0  0  0
  193.6630  170.7560  143.5790 C   0  0  0  0  0  2  0  0  0  0  0  0
  194.0870  172.3280  145.4520 C   0  0  2  0  0  3  0  0  0  0  0  0
  195.4970  168.1670  143.7510 O   0  0  0  0  0  1  0  0  0  0  0  0
  196.6310  171.7460  145.7180 C   0  0  0  0  0  2  0  0  0  0  0  0
  195.1290  170.8820  143.9040 C   0  0  1  0  0  3  0  0  0  0  0  0
  197.7230  170.9990  144.9060 C   0  0  0  0  0  2  0  0  0  0  0  0
  192.4350  176.6100  144.4830 C   0  0  0  0  0  2  0  0  0  0  0  0
  192.0740  177.2410  143.1490 C   0  0  0  0  0  2  0  0  0  0  0  0
  190.7420  176.7000  142.6640 C   0  0  0  0  0  2  0  0  0  0  0  0
  189.6020  177.6040  143.1080 C   0  0  0  0  0  2  0  0  0  0  0  0
  188.7610  176.9010  144.1680 C   0  0  2  0  0  3  0  0  0  0  0  0
  184.9210  178.6200  147.4500 C   0  0  0  0  0  2  0  0  0  0  0  0
  189.4450  175.0110  145.9950 F   0  0  0  0  0  0  0  0  0  0  0  0
  187.2240  177.1800  144.0560 C   0  0  1  0  0  3  0  0  0  0  0  0
  185.8570  177.4380  147.6750 C   0  0  0  0  0  2  0  0  0  0  0  0
  186.9850  177.4210  146.6330 C   0  0  1  0  0  3  0  0  0  0  0  0
  184.3320  178.5030  146.0790 C   0  0  0  0  0  3  0  0  0  0  0  0
  188.9310  176.2410  146.3810 C   0  0  0  0  0  0  0  0  0  0  0  0
  187.5270  176.1250  146.5380 O   0  0  0  0  0  0  0  0  0  0  0  0
  185.1210  178.1920  145.0450 C   0  0  0  0  0  3  0  0  0  0  0  0
  189.2860  177.2360  145.4340 O   0  0  0  0  0  0  0  0  0  0  0  0
  189.4980  176.5700  147.6020 F   0  0  0  0  0  0  0  0  0  0  0  0
  186.6110  177.9900  145.2250 C   0  0  2  0  0  3  0  0  0  0  0  0
  186.3970  176.8950  141.8520 O   0  0  0  0  0  0  0  0  0  0  0  0
  186.7710  177.6790  142.7100 C   0  0  0  0  0  3  0  0  0  0  0  0
  2  1  1  0  0  0  0
  2  4  1  1  0  0  0
  3 20  1  1  0  0  0
  3  2  1  0  0  0  0
  6  5  1  0  0  0  0
  6  3  1  0  0  0  0
  7  5  1  6  0  0  0
  7 15  1  0  0  0  0
  7  1  1  0  0  0  0
  8 15  1  0  0  0  0
  8 17  1  0  0  0  0
  8 10  1  1  0  0  0
 11 19  1  0  0  0  0
 12  9  2  6  0  0  0
 12 16  1  0  0  0  0
 12 18  1  0  0  0  0
 12 11  1  0  0  0  0
 14 13  1  0  0  0  0
 15 13  1  6  0  0  0
 18 14  1  1  0  0  0
 18  8  1  0  0  0  0
 19 17  1  0  0  0  0
 21 20  1  0  0  0  0
 22 23  1  0  0  0  0
 22 21  1  0  0  0  0
 24 23  1  6  0  0  0
 24 34  1  0  0  0  0
 25 28  1  0  0  0  0
 26 31  1  0  0  0  0
 27 38  1  6  0  0  0
 27 24  1  0  0  0  0
 27 36  1  0  0  0  0
 29 28  1  1  0  0  0
 30 25  1  0  0  0  0
 31 32  1  0  0  0  0
 31 35  1  0  0  0  0
 32 29  1  0  0  0  0
 33 30  2  0  0  0  0
 34 31  1  0  0  0  0
 36 33  1  6  0  0  0
 36 29  1  0  0  0  0
 37 38  2  0  0  0  0
M  END
>  <MODEL>
3

>  <REMARK>
 VINA RESULT:      -8.0      2.620      4.271
  Name = 
  7 active torsions:
  status: ('A' for Active; 'I' for Inactive)
    1  A    between atoms: C_2  and  C_34
    2  A    between atoms: C_7  and  C_26
    3  A    between atoms: C_16  and  C_38
    4  A    between atoms: C_20  and  C_22
    5  A    between atoms: C_20  and  C_34
    6  A    between atoms: C_21  and  C_32
    7  A    between atoms: C_22  and  C_32
                            x       y       z     vdW  Elec       q    Type
                         _______ _______ _______ _____ _____    ______ ____

>  <TORSDO>
F 7

$$$$
=
 OpenBabel11062421023D

 38 42  0  0  1  0  0  0  0  0999 V2000
  192.3500  172.6500  140.7620 C   0  0  0  0  0  2  0  0  0  0  0  0
  191.4450  171.4240  140.7900 C   0  0  1  0  0  3  0  0  0  0  0  0
  190.2190  171.6780  141.6860 C   0  0  1  0  0  3  0  0  0  0  0  0
  191.0590  171.0790  139.4940 O   0  0  0  0  0  1  0  0  0  0  0  0
  191.3310  173.2450  142.9700 C   0  0  0  0  0  2  0  0  0  0  0  0
  190.6240  172.0200  142.9990 O   0  0  0  0  0  0  0  0  0  0  0  0
  192.6450  173.1140  142.1860 C   0  0  2  0  0  3  0  0  0  0  0  0
  194.3100  174.6670  143.4050 C   0  0  1  0  0  0  0  0  0  0  0  0
  193.1780  176.1830  147.0490 O   0  0  0  0  0  1  0  0  0  0  0  0
  195.5460  175.4530  142.9590 C   0  0  0  0  0  1  0  0  0  0  0  0
  195.4660  174.9580  146.0160 O   0  0  0  0  0  0  0  0  0  0  0  0
  194.2360  176.1080  145.7310 P   0  0  2  0  0  0  0  0  0  0  0  0
  192.5550  175.6700  142.0350 C   0  0  0  0  0  2  0  0  0  0  0  0
  192.7220  176.4820  143.3240 C   0  0  0  0  0  2  0  0  0  0  0  0
  193.4610  174.4200  142.1580 C   0  0  2  0  0  3  0  0  0  0  0  0
  194.8440  177.4670  145.4730 O   0  0  0  0  0  0  0  0  0  0  0  0
  194.7940  173.4300  144.1880 C   0  0  0  0  0  2  0  0  0  0  0  0
  193.3730  175.4950  144.2580 C   0  0  1  0  0  3  0  0  0  0  0  0
  194.9160  173.6930  145.7120 C   0  0  0  0  0  2  0  0  0  0  0  0
  189.2290  172.6920  141.1050 C   0  0  0  0  0  2  0  0  0  0  0  0
  188.1400  173.0270  142.1090 C   0  0  0  0  0  2  0  0  0  0  0  0
  187.7350  174.4830  141.9690 C   0  0  0  0  0  2  0  0  0  0  0  0
  188.4960  175.3490  142.9620 C   0  0  0  0  0  2  0  0  0  0  0  0
  187.7550  176.6620  143.1840 C   0  0  2  0  0  3  0  0  0  0  0  0
  184.3870  178.3080  146.9820 C   0  0  0  0  0  2  0  0  0  0  0  0
  186.5290  178.3180  141.4130 F   0  0  0  0  0  0  0  0  0  0  0  0
  187.8860  177.2350  144.6360 C   0  0  1  0  0  3  0  0  0  0  0  0
  184.4600  178.8060  145.5440 C   0  0  0  0  0  2  0  0  0  0  0  0
  185.3780  177.9130  144.6950 C   0  0  1  0  0  3  0  0  0  0  0  0
  185.7690  178.3230  147.5580 C   0  0  0  0  0  3  0  0  0  0  0  0
  185.8330  177.7310  142.4590 C   0  0  0  0  0  0  0  0  0  0  0  0
  185.8160  178.6220  143.5600 O   0  0  0  0  0  0  0  0  0  0  0  0
  186.7910  177.8490  146.8380 C   0  0  0  0  0  3  0  0  0  0  0  0
  186.4130  176.4780  142.7890 O   0  0  0  0  0  0  0  0  0  0  0  0
  184.5320  177.5160  142.0300 F   0  0  0  0  0  0  0  0  0  0  0  0
  186.5750  177.2590  145.4590 C   0  0  2  0  0  3  0  0  0  0  0  0
  190.0740  177.3520  145.5420 O   0  0  0  0  0  0  0  0  0  0  0  0
  189.0510  176.6970  145.4230 C   0  0  0  0  0  3  0  0  0  0  0  0
  1  2  1  0  0  0  0
  2  4  1  6  0  0  0
  2  3  1  0  0  0  0
  3 20  1  6  0  0  0
  3  6  1  0  0  0  0
  5  6  1  0  0  0  0
  7  1  1  6  0  0  0
  7  5  1  0  0  0  0
  8 10  1  6  0  0  0
  8 17  1  0  0  0  0
  8 18  1  0  0  0  0
 12 16  2  6  0  0  0
 12 11  1  0  0  0  0
 12  9  1  0  0  0  0
 13 14  1  0  0  0  0
 15 13  1  1  0  0  0
 15  7  1  0  0  0  0
 15  8  1  0  0  0  0
 17 19  1  0  0  0  0
 18 14  1  6  0  0  0
 18 12  1  0  0  0  0
 19 11  1  0  0  0  0
 20 21  1  0  0  0  0
 22 21  1  0  0  0  0
 22 23  1  0  0  0  0
 24 23  1  1  0  0  0
 24 27  1  0  0  0  0
 25 30  1  0  0  0  0
 26 31  1  0  0  0  0
 27 38  1  1  0  0  0
 27 36  1  0  0  0  0
 28 25  1  0  0  0  0
 29 36  1  0  0  0  0
 29 28  1  1  0  0  0
 31 34  1  0  0  0  0
 31 32  1  0  0  0  0
 32 29  1  0  0  0  0
 33 30  2  0  0  0  0
 34 24  1  0  0  0  0
 35 31  1  0  0  0  0
 36 33  1  1  0  0  0
 38 37  2  0  0  0  0
M  END
>  <MODEL>
4

>  <REMARK>
 VINA RESULT:      -7.9      2.927      4.844
  Name = 
  7 active torsions:
  status: ('A' for Active; 'I' for Inactive)
    1  A    between atoms: C_2  and  C_34
    2  A    between atoms: C_7  and  C_26
    3  A    between atoms: C_16  and  C_38
    4  A    between atoms: C_20  and  C_22
    5  A    between atoms: C_20  and  C_34
    6  A    between atoms: C_21  and  C_32
    7  A    between atoms: C_22  and  C_32
                            x       y       z     vdW  Elec       q    Type
                         _______ _______ _______ _____ _____    ______ ____

>  <TORSDO>
F 7

$$$$
=
 OpenBabel11062421023D

 38 42  0  0  1  0  0  0  0  0999 V2000
  192.7180  174.0920  140.9340 C   0  0  0  0  0  2  0  0  0  0  0  0
  191.7990  173.2150  140.0910 C   0  0  1  0  0  3  0  0  0  0  0  0
  190.5000  172.9030  140.8550 C   0  0  1  0  0  3  0  0  0  0  0  0
  191.5290  173.8340  138.8700 O   0  0  0  0  0  1  0  0  0  0  0  0
  191.5090  173.1600  142.9190 C   0  0  0  0  0  2  0  0  0  0  0  0
  190.7870  172.2710  142.0890 O   0  0  0  0  0  0  0  0  0  0  0  0
  192.8870  173.4860  142.3250 C   0  0  2  0  0  3  0  0  0  0  0  0
  195.1420  173.9480  143.4960 C   0  0  1  0  0  0  0  0  0  0  0  0
  196.4480  171.2020  146.2570 O   0  0  0  0  0  0  0  0  0  0  0  0
  196.0140  175.1960  143.6610 C   0  0  0  0  0  1  0  0  0  0  0  0
  197.5820  172.5590  144.0940 O   0  0  0  0  0  0  0  0  0  0  0  0
  196.5710  172.6930  145.4650 P   0  0  2  0  0  0  0  0  0  0  0  0
  193.0780  174.6260  144.6110 C   0  0  0  0  0  2  0  0  0  0  0  0
  194.0420  174.0320  145.6430 C   0  0  0  0  0  2  0  0  0  0  0  0
  193.7180  174.4290  143.2150 C   0  0  2  0  0  3  0  0  0  0  0  0
  197.1110  173.7410  146.4090 O   0  0  0  0  0  1  0  0  0  0  0  0
  195.8060  173.0440  142.4380 C   0  0  0  0  0  2  0  0  0  0  0  0
  194.9610  173.1920  144.7950 C   0  0  1  0  0  3  0  0  0  0  0  0
  196.7900  172.0160  143.0580 C   0  0  0  0  0  2  0  0  0  0  0  0
  189.5790  174.1150  141.0300 C   0  0  0  0  0  2  0  0  0  0  0  0
  188.1820  173.6830  141.4400 C   0  0  0  0  0  2  0  0  0  0  0  0
  187.5770  174.7130  142.3780 C   0  0  0  0  0  2  0  0  0  0  0  0
  188.4020  175.9900  142.3760 C   0  0  0  0  0  2  0  0  0  0  0  0
  187.5160  177.1830  142.7160 C   0  0  2  0  0  3  0  0  0  0  0  0
  184.2740  178.2140  146.8280 C   0  0  0  0  0  2  0  0  0  0  0  0
  185.9500  178.7310  141.1240 F   0  0  0  0  0  0  0  0  0  0  0  0
  187.6860  177.7110  144.1810 C   0  0  1  0  0  3  0  0  0  0  0  0
  184.1670  178.7730  145.4140 C   0  0  0  0  0  2  0  0  0  0  0  0
  185.1240  178.0450  144.4580 C   0  0  1  0  0  3  0  0  0  0  0  0
  185.6830  178.3900  147.3010 C   0  0  0  0  0  3  0  0  0  0  0  0
  185.4200  178.0140  142.1870 C   0  0  0  0  0  0  0  0  0  0  0  0
  185.3750  178.8510  143.3300 O   0  0  0  0  0  0  0  0  0  0  0  0
  186.6980  178.0850  146.4860 C   0  0  0  0  0  3  0  0  0  0  0  0
  186.1830  176.8380  142.4110 O   0  0  0  0  0  0  0  0  0  0  0  0
  184.1290  177.6450  141.8450 F   0  0  0  0  0  0  0  0  0  0  0  0
  186.4520  177.5270  145.0980 C   0  0  2  0  0  3  0  0  0  0  0  0
  189.9190  178.0680  144.8940 O   0  0  0  0  0  0  0  0  0  0  0  0
  188.9700  177.3020  144.8530 C   0  0  0  0  0  3  0  0  0  0  0  0
  2  4  1  6  0  0  0
  2  3  1  0  0  0  0
  2  1  1  0  0  0  0
  3 20  1  1  0  0  0
  3  6  1  0  0  0  0
  6  5  1  0  0  0  0
  7  1  1  6  0  0  0
  7  5  1  0  0  0  0
  7 15  1  0  0  0  0
  8 10  1  1  0  0  0
  8 18  1  0  0  0  0
 11 12  1  0  0  0  0
 12  9  2  1  0  0  0
 12 16  1  0  0  0  0
 13 14  1  0  0  0  0
 15  8  1  0  0  0  0
 15 13  1  1  0  0  0
 17 19  1  0  0  0  0
 17  8  1  0  0  0  0
 18 12  1  0  0  0  0
 18 14  1  1  0  0  0
 19 11  1  0  0  0  0
 20 21  1  0  0  0  0
 21 22  1  0  0  0  0
 23 22  1  0  0  0  0
 24 23  1  1  0  0  0
 24 27  1  0  0  0  0
 25 30  1  0  0  0  0
 26 31  1  0  0  0  0
 27 38  1  1  0  0  0
 27 36  1  0  0  0  0
 28 25  1  0  0  0  0
 29 36  1  0  0  0  0
 29 28  1  1  0  0  0
 31 34  1  0  0  0  0
 31 32  1  0  0  0  0
 32 29  1  0  0  0  0
 33 30  2  0  0  0  0
 34 24  1  0  0  0  0
 35 31  1  0  0  0  0
 36 33  1  1  0  0  0
 38 37  2  0  0  0  0
M  END
>  <MODEL>
5

>  <REMARK>
 VINA RESULT:      -7.9      2.806      4.549
  Name = 
  7 active torsions:
  status: ('A' for Active; 'I' for Inactive)
    1  A    between atoms: C_2  and  C_34
    2  A    between atoms: C_7  and  C_26
    3  A    between atoms: C_16  and  C_38
    4  A    between atoms: C_20  and  C_22
    5  A    between atoms: C_20  and  C_34
    6  A    between atoms: C_21  and  C_32
    7  A    between atoms: C_22  and  C_32
                            x       y       z     vdW  Elec       q    Type
                         _______ _______ _______ _____ _____    ______ ____

>  <TORSDO>
F 7

$$$$
=
 OpenBabel11062421023D

 38 42  0  0  1  0  0  0  0  0999 V2000
  195.0860  175.6210  145.1010 C   0  0  0  0  0  2  0  0  0  0  0  0
  194.2880  176.8640  145.4780 C   0  0  1  0  0  3  0  0  0  0  0  0
  192.8230  176.7230  145.0290 C   0  0  1  0  0  3  0  0  0  0  0  0
  194.3730  177.0930  146.8530 O   0  0  0  0  0  1  0  0  0  0  0  0
  193.3620  175.2600  143.3210 C   0  0  0  0  0  2  0  0  0  0  0  0
  192.7500  176.4970  143.6330 O   0  0  0  0  0  0  0  0  0  0  0  0
  194.8660  175.2880  143.6270 C   0  0  2  0  0  3  0  0  0  0  0  0
  196.5350  174.0600  142.0860 C   0  0  1  0  0  0  0  0  0  0  0  0
  195.6940  173.9650  138.0670 O   0  0  0  0  0  0  0  0  0  0  0  0
  197.6540  173.0440  142.3310 C   0  0  0  0  0  1  0  0  0  0  0  0
  197.9410  174.5290  139.6280 O   0  0  0  0  0  0  0  0  0  0  0  0
  196.6060  173.4860  139.4100 P   0  0  2  0  0  0  0  0  0  0  0  0
  194.5730  172.8510  142.8930 C   0  0  0  0  0  2  0  0  0  0  0  0
  194.8170  172.4990  141.4230 C   0  0  0  0  0  2  0  0  0  0  0  0
  195.5760  173.9680  143.2730 C   0  0  2  0  0  3  0  0  0  0  0  0
  197.0810  172.0620  139.2360 O   0  0  0  0  0  1  0  0  0  0  0  0
  197.1900  175.4280  141.8090 C   0  0  0  0  0  2  0  0  0  0  0  0
  195.6370  173.6650  140.9330 C   0  0  1  0  0  3  0  0  0  0  0  0
  197.4560  175.6730  140.3000 C   0  0  0  0  0  2  0  0  0  0  0  0
  192.0300  175.6800  145.8230 C   0  0  0  0  0  2  0  0  0  0  0  0
  190.7770  176.2900  146.4250 C   0  0  0  0  0  2  0  0  0  0  0  0
  189.8280  175.1910  146.8690 C   0  0  0  0  0  2  0  0  0  0  0  0
  188.3890  175.6840  146.8430 C   0  0  0  0  0  2  0  0  0  0  0  0
  188.2180  176.7370  145.7550 C   0  0  2  0  0  3  0  0  0  0  0  0
  183.9620  178.4500  143.0280 C   0  0  0  0  0  2  0  0  0  0  0  0
  189.7970  177.3550  143.6320 F   0  0  0  0  0  0  0  0  0  0  0  0
  187.0430  177.7410  146.0120 C   0  0  1  0  0  3  0  0  0  0  0  0
  185.4160  178.4820  142.5720 C   0  0  0  0  0  2  0  0  0  0  0  0
  186.3110  177.6690  143.5190 C   0  0  1  0  0  3  0  0  0  0  0  0
  183.8860  179.0300  144.4060 C   0  0  0  0  0  3  0  0  0  0  0  0
  188.4820  176.9450  143.4630 C   0  0  0  0  0  0  0  0  0  0  0  0
  187.6490  178.0890  143.3900 O   0  0  0  0  0  0  0  0  0  0  0  0
  184.7840  178.6650  145.3270 C   0  0  0  0  0  3  0  0  0  0  0  0
  188.1050  176.0710  144.5160 O   0  0  0  0  0  0  0  0  0  0  0  0
  188.4070  176.2520  142.2660 F   0  0  0  0  0  0  0  0  0  0  0  0
  185.8610  177.6450  145.0160 C   0  0  2  0  0  3  0  0  0  0  0  0
  186.6610  178.8710  148.0610 O   0  0  0  0  0  0  0  0  0  0  0  0
  186.5850  177.8200  147.4440 C   0  0  0  0  0  3  0  0  0  0  0  0
  1  2  1  0  0  0  0
  2  4  1  1  0  0  0
  3  2  1  0  0  0  0
  3 20  1  1  0  0  0
  5  6  1  0  0  0  0
  6  3  1  0  0  0  0
  7  5  1  1  0  0  0
  7  1  1  0  0  0  0
  8 10  1  1  0  0  0
  8 15  1  0  0  0  0
 11 19  1  0  0  0  0
 12  9  2  6  0  0  0
 12 11  1  0  0  0  0
 12 18  1  0  0  0  0
 14 13  1  0  0  0  0
 15 13  1  6  0  0  0
 15  7  1  0  0  0  0
 16 12  1  0  0  0  0
 17  8  1  0  0  0  0
 18 14  1  1  0  0  0
 18  8  1  0  0  0  0
 19 17  1  0  0  0  0
 20 21  1  0  0  0  0
 21 22  1  0  0  0  0
 23 22  1  0  0  0  0
 24 27  1  0  0  0  0
 24 23  1  1  0  0  0
 25 30  1  0  0  0  0
 27 38  1  1  0  0  0
 28 25  1  0  0  0  0
 29 28  1  6  0  0  0
 29 36  1  0  0  0  0
 30 33  2  0  0  0  0
 31 26  1  0  0  0  0
 31 34  1  0  0  0  0
 32 31  1  0  0  0  0
 32 29  1  0  0  0  0
 34 24  1  0  0  0  0
 35 31  1  0  0  0  0
 36 33  1  6  0  0  0
 36 27  1  0  0  0  0
 38 37  2  0  0  0  0
M  END
>  <MODEL>
6

>  <REMARK>
 VINA RESULT:      -7.7      1.677      2.283
  Name = 
  7 active torsions:
  status: ('A' for Active; 'I' for Inactive)
    1  A    between atoms: C_2  and  C_34
    2  A    between atoms: C_7  and  C_26
    3  A    between atoms: C_16  and  C_38
    4  A    between atoms: C_20  and  C_22
    5  A    between atoms: C_20  and  C_34
    6  A    between atoms: C_21  and  C_32
    7  A    between atoms: C_22  and  C_32
                            x       y       z     vdW  Elec       q    Type
                         _______ _______ _______ _____ _____    ______ ____

>  <TORSDO>
F 7

$$$$
=
 OpenBabel11062421023D

 38 42  0  0  1  0  0  0  0  0999 V2000
  194.0550  174.5480  146.0180 C   0  0  0  0  0  2  0  0  0  0  0  0
  193.0060  175.5450  146.4990 C   0  0  1  0  0  3  0  0  0  0  0  0
  192.8490  176.6940  145.4870 C   0  0  1  0  0  3  0  0  0  0  0  0
  191.7900  174.8970  146.7180 O   0  0  0  0  0  1  0  0  0  0  0  0
  195.0030  176.4440  144.6860 C   0  0  0  0  0  2  0  0  0  0  0  0
  194.0890  177.3460  145.2780 O   0  0  0  0  0  0  0  0  0  0  0  0
  195.3360  175.2830  145.6340 C   0  0  2  0  0  3  0  0  0  0  0  0
  195.7560  173.2670  144.0760 C   0  0  1  0  0  0  0  0  0  0  0  0
  193.7870  169.7650  144.9230 O   0  0  0  0  0  1  0  0  0  0  0  0
  196.8390  172.9320  143.0450 C   0  0  0  0  0  1  0  0  0  0  0  0
  194.2350  171.3050  142.6360 O   0  0  0  0  0  0  0  0  0  0  0  0
  194.9320  170.6570  144.0540 P   0  0  2  0  0  0  0  0  0  0  0  0
  197.0610  173.4540  146.1310 C   0  0  0  0  0  2  0  0  0  0  0  0
  196.6550  171.9930  145.9180 C   0  0  0  0  0  2  0  0  0  0  0  0
  196.3550  174.2930  145.0380 C   0  0  2  0  0  3  0  0  0  0  0  0
  196.1130  169.7830  143.7000 O   0  0  0  0  0  0  0  0  0  0  0  0
  194.4830  173.6750  143.3080 C   0  0  0  0  0  2  0  0  0  0  0  0
  195.4620  172.1080  145.0040 C   0  0  1  0  0  3  0  0  0  0  0  0
  193.5420  172.4740  143.0230 C   0  0  0  0  0  2  0  0  0  0  0  0
  192.1910  176.2710  144.1690 C   0  0  0  0  0  2  0  0  0  0  0  0
  192.0020  177.4640  143.2480 C   0  0  0  0  0  2  0  0  0  0  0  0
  190.8070  178.2840  143.7010 C   0  0  0  0  0  2  0  0  0  0  0  0
  189.5770  177.9400  142.8760 C   0  0  0  0  0  2  0  0  0  0  0  0
  188.5820  177.1560  143.7240 C   0  0  2  0  0  3  0  0  0  0  0  0
  184.5020  178.6650  146.8160 C   0  0  0  0  0  2  0  0  0  0  0  0
  188.9420  174.9760  145.3040 F   0  0  0  0  0  0  0  0  0  0  0  0
  187.0860  177.5630  143.4980 C   0  0  1  0  0  3  0  0  0  0  0  0
  185.3360  177.3970  146.9540 C   0  0  0  0  0  2  0  0  0  0  0  0
  186.5720  177.4460  146.0430 C   0  0  1  0  0  3  0  0  0  0  0  0
  184.0660  178.7920  145.3900 C   0  0  0  0  0  3  0  0  0  0  0  0
  188.4610  176.1720  145.8170 C   0  0  0  0  0  0  0  0  0  0  0  0
  187.0440  176.1400  145.8090 O   0  0  0  0  0  0  0  0  0  0  0  0
  184.9470  178.5760  144.4070 C   0  0  0  0  0  3  0  0  0  0  0  0
  188.9790  177.2640  145.0740 O   0  0  0  0  0  0  0  0  0  0  0  0
  188.9040  176.2780  147.1250 F   0  0  0  0  0  0  0  0  0  0  0  0
  186.3940  178.2380  144.7080 C   0  0  2  0  0  3  0  0  0  0  0  0
  186.2420  177.7190  141.2880 O   0  0  0  0  0  0  0  0  0  0  0  0
  186.8180  178.2840  142.2040 C   0  0  0  0  0  3  0  0  0  0  0  0
  1  2  1  0  0  0  0
  2  4  1  6  0  0  0
  3 20  1  6  0  0  0
  3  2  1  0  0  0  0
  5  6  1  0  0  0  0
  6  3  1  0  0  0  0
  7  5  1  6  0  0  0
  7  1  1  0  0  0  0
  8 10  1  6  0  0  0
  8 18  1  0  0  0  0
  8 15  1  0  0  0  0
 11 19  1  0  0  0  0
 11 12  1  0  0  0  0
 12 16  2  6  0  0  0
 12  9  1  0  0  0  0
 12 18  1  0  0  0  0
 14 13  1  0  0  0  0
 15  7  1  0  0  0  0
 15 13  1  1  0  0  0
 17  8  1  0  0  0  0
 18 14  1  6  0  0  0
 19 17  1  0  0  0  0
 21 22  1  0  0  0  0
 21 20  1  0  0  0  0
 23 22  1  0  0  0  0
 24 23  1  6  0  0  0
 24 34  1  0  0  0  0
 25 28  1  0  0  0  0
 26 31  1  0  0  0  0
 27 38  1  6  0  0  0
 27 24  1  0  0  0  0
 27 36  1  0  0  0  0
 29 28  1  6  0  0  0
 30 25  1  0  0  0  0
 31 35  1  0  0  0  0
 32 31  1  0  0  0  0
 32 29  1  0  0  0  0
 33 30  2  0  0  0  0
 34 31  1  0  0  0  0
 36 33  1  6  0  0  0
 36 29  1  0  0  0  0
 37 38  2  0  0  0  0
M  END
>  <MODEL>
7

>  <REMARK>
 VINA RESULT:      -7.7      2.408      3.901
  Name = 
  7 active torsions:
  status: ('A' for Active; 'I' for Inactive)
    1  A    between atoms: C_2  and  C_34
    2  A    between atoms: C_7  and  C_26
    3  A    between atoms: C_16  and  C_38
    4  A    between atoms: C_20  and  C_22
    5  A    between atoms: C_20  and  C_34
    6  A    between atoms: C_21  and  C_32
    7  A    between atoms: C_22  and  C_32
                            x       y       z     vdW  Elec       q    Type
                         _______ _______ _______ _____ _____    ______ ____

>  <TORSDO>
F 7

$$$$
=
 OpenBabel11062421023D

 38 42  0  0  1  0  0  0  0  0999 V2000
  193.9360  173.9570  145.4240 C   0  0  0  0  0  2  0  0  0  0  0  0
  194.6940  175.2430  145.1150 C   0  0  1  0  0  3  0  0  0  0  0  0
  194.0150  176.0080  143.9650 C   0  0  1  0  0  3  0  0  0  0  0  0
  194.7870  176.0350  146.2610 O   0  0  0  0  0  1  0  0  0  0  0  0
  193.0970  174.0850  143.0680 C   0  0  0  0  0  2  0  0  0  0  0  0
  193.9330  175.1960  142.8080 O   0  0  0  0  0  0  0  0  0  0  0  0
  193.7040  173.1670  144.1380 C   0  0  2  0  0  3  0  0  0  0  0  0
  193.0170  170.7790  143.4360 C   0  0  1  0  0  0  0  0  0  0  0  0
  191.3600  170.2950  139.7100 O   0  0  0  0  0  0  0  0  0  0  0  0
  192.7740  169.4770  144.2050 C   0  0  0  0  0  1  0  0  0  0  0  0
  193.3480  169.0140  141.1970 O   0  0  0  0  0  0  0  0  0  0  0  0
  191.7870  169.7060  141.2380 P   0  0  2  0  0  0  0  0  0  0  0  0
  191.3250  172.2540  144.3950 C   0  0  0  0  0  2  0  0  0  0  0  0
  190.7150  171.4710  143.2280 C   0  0  0  0  0  2  0  0  0  0  0  0
  192.8380  171.9270  144.4290 C   0  0  2  0  0  3  0  0  0  0  0  0
  190.7770  168.6840  141.7040 O   0  0  0  0  0  1  0  0  0  0  0  0
  194.3820  170.6610  142.7290 C   0  0  0  0  0  2  0  0  0  0  0  0
  191.9260  171.0690  142.4280 C   0  0  1  0  0  3  0  0  0  0  0  0
  194.2680  170.0820  141.2940 C   0  0  0  0  0  2  0  0  0  0  0  0
  192.6590  176.6140  144.3410 C   0  0  0  0  0  2  0  0  0  0  0  0
  191.9840  177.2330  143.1300 C   0  0  0  0  0  2  0  0  0  0  0  0
  191.0200  178.3190  143.5730 C   0  0  0  0  0  2  0  0  0  0  0  0
  189.6380  178.0820  142.9820 C   0  0  0  0  0  2  0  0  0  0  0  0
  188.7950  177.2530  143.9440 C   0  0  2  0  0  3  0  0  0  0  0  0
  184.9080  178.5420  147.3660 C   0  0  0  0  0  2  0  0  0  0  0  0
  189.4800  175.1680  145.5450 F   0  0  0  0  0  0  0  0  0  0  0  0
  187.2560  177.5300  143.8500 C   0  0  1  0  0  3  0  0  0  0  0  0
  185.8530  177.3510  147.4600 C   0  0  0  0  0  2  0  0  0  0  0  0
  186.9920  177.4660  146.4350 C   0  0  1  0  0  3  0  0  0  0  0  0
  184.3330  178.5810  145.9840 C   0  0  0  0  0  3  0  0  0  0  0  0
  188.9510  176.3390  146.0660 C   0  0  0  0  0  0  0  0  0  0  0  0
  187.5470  176.1940  146.1940 O   0  0  0  0  0  0  0  0  0  0  0  0
  185.1340  178.4000  144.9290 C   0  0  0  0  0  3  0  0  0  0  0  0
  189.3050  177.4420  145.2460 O   0  0  0  0  0  0  0  0  0  0  0  0
  189.5030  176.5290  147.3230 F   0  0  0  0  0  0  0  0  0  0  0  0
  186.6250  178.1920  145.1000 C   0  0  2  0  0  3  0  0  0  0  0  0
  186.3160  177.5100  141.6730 O   0  0  0  0  0  0  0  0  0  0  0  0
  186.8100  178.1790  142.5670 C   0  0  0  0  0  3  0  0  0  0  0  0
  2  1  1  0  0  0  0
  2  4  1  1  0  0  0
  3 20  1  1  0  0  0
  3  2  1  0  0  0  0
  6  5  1  0  0  0  0
  6  3  1  0  0  0  0
  7  5  1  6  0  0  0
  7 15  1  0  0  0  0
  7  1  1  0  0  0  0
  8 10  1  1  0  0  0
  8 15  1  0  0  0  0
 11 12  1  0  0  0  0
 11 19  1  0  0  0  0
 12  9  2  6  0  0  0
 12 16  1  0  0  0  0
 12 18  1  0  0  0  0
 14 13  1  0  0  0  0
 15 13  1  6  0  0  0
 17  8  1  0  0  0  0
 18 14  1  1  0  0  0
 18  8  1  0  0  0  0
 19 17  1  0  0  0  0
 21 22  1  0  0  0  0
 21 20  1  0  0  0  0
 23 22  1  0  0  0  0
 24 23  1  6  0  0  0
 24 34  1  0  0  0  0
 25 28  1  0  0  0  0
 26 31  1  0  0  0  0
 27 38  1  6  0  0  0
 27 24  1  0  0  0  0
 27 36  1  0  0  0  0
 29 28  1  1  0  0  0
 30 25  1  0  0  0  0
 31 32  1  0  0  0  0
 31 35  1  0  0  0  0
 32 29  1  0  0  0  0
 33 30  2  0  0  0  0
 34 31  1  0  0  0  0
 36 33  1  6  0  0  0
 36 29  1  0  0  0  0
 37 38  2  0  0  0  0
M  END
>  <MODEL>
8

>  <REMARK>
 VINA RESULT:      -7.6      3.158      4.786
  Name = 
  7 active torsions:
  status: ('A' for Active; 'I' for Inactive)
    1  A    between atoms: C_2  and  C_34
    2  A    between atoms: C_7  and  C_26
    3  A    between atoms: C_16  and  C_38
    4  A    between atoms: C_20  and  C_22
    5  A    between atoms: C_20  and  C_34
    6  A    between atoms: C_21  and  C_32
    7  A    between atoms: C_22  and  C_32
                            x       y       z     vdW  Elec       q    Type
                         _______ _______ _______ _____ _____    ______ ____

>  <TORSDO>
F 7

$$$$
=
 OpenBabel11062421023D

 38 42  0  0  1  0  0  0  0  0999 V2000
  190.8470  173.1460  140.8750 C   0  0  0  0  0  2  0  0  0  0  0  0
  189.4720  172.6710  141.3290 C   0  0  1  0  0  3  0  0  0  0  0  0
  188.9440  173.5570  142.4720 C   0  0  1  0  0  3  0  0  0  0  0  0
  188.5850  172.6600  140.2500 O   0  0  0  0  0  1  0  0  0  0  0  0
  191.0710  174.1430  143.1610 C   0  0  0  0  0  2  0  0  0  0  0  0
  189.8480  173.5550  143.5610 O   0  0  0  0  0  0  0  0  0  0  0  0
  191.7690  173.3030  142.0820 C   0  0  2  0  0  3  0  0  0  0  0  0
  194.3220  173.4150  142.4560 C   0  0  1  0  0  0  0  0  0  0  0  0
  195.6510  174.7190  146.1160 O   0  0  0  0  0  1  0  0  0  0  0  0
  195.5310  173.4130  141.5170 C   0  0  0  0  0  1  0  0  0  0  0  0
  196.2490  172.5860  144.4150 O   0  0  0  0  0  0  0  0  0  0  0  0
  195.9220  174.2590  144.5100 P   0  0  2  0  0  0  0  0  0  0  0  0
  193.1470  175.4390  141.7580 C   0  0  0  0  0  2  0  0  0  0  0  0
  194.1930  175.7980  142.8170 C   0  0  0  0  0  2  0  0  0  0  0  0
  193.1210  173.8950  141.6410 C   0  0  2  0  0  3  0  0  0  0  0  0
  197.0730  175.0480  143.9300 O   0  0  0  0  0  0  0  0  0  0  0  0
  194.2250  172.0200  143.1050 C   0  0  0  0  0  2  0  0  0  0  0  0
  194.4180  174.4860  143.5220 C   0  0  1  0  0  3  0  0  0  0  0  0
  195.0000  171.9260  144.4470 C   0  0  0  0  0  2  0  0  0  0  0  0
  188.5730  174.9770  142.0330 C   0  0  0  0  0  2  0  0  0  0  0  0
  187.0690  175.1830  142.0650 C   0  0  0  0  0  2  0  0  0  0  0  0
  186.6970  176.1020  143.2150 C   0  0  0  0  0  2  0  0  0  0  0  0
  187.5340  177.3710  143.1790 C   0  0  0  0  0  2  0  0  0  0  0  0
  188.1000  177.6620  144.5650 C   0  0  2  0  0  3  0  0  0  0  0  0
  191.8820  175.2910  147.4890 C   0  0  0  0  0  2  0  0  0  0  0  0
  186.8570  178.4450  146.8500 F   0  0  0  0  0  0  0  0  0  0  0  0
  189.6650  177.6950  144.6250 C   0  0  1  0  0  3  0  0  0  0  0  0
  190.6990  176.1010  148.0040 C   0  0  0  0  0  2  0  0  0  0  0  0
  189.6990  176.3980  146.8770 C   0  0  1  0  0  3  0  0  0  0  0  0
  192.5630  176.0780  146.4130 C   0  0  0  0  0  3  0  0  0  0  0  0
  187.5810  177.2630  146.7860 C   0  0  0  0  0  0  0  0  0  0  0  0
  188.9060  177.5090  147.2240 O   0  0  0  0  0  0  0  0  0  0  0  0
  191.8290  176.6840  145.4730 C   0  0  0  0  0  3  0  0  0  0  0  0
  187.5380  176.7360  145.4690 O   0  0  0  0  0  0  0  0  0  0  0  0
  186.9810  176.3550  147.6440 F   0  0  0  0  0  0  0  0  0  0  0  0
  190.3190  176.5610  145.4510 C   0  0  2  0  0  3  0  0  0  0  0  0
  191.2910  178.6650  143.1980 O   0  0  0  0  0  0  0  0  0  0  0  0
  190.3420  177.9050  143.2960 C   0  0  0  0  0  3  0  0  0  0  0  0
  1  2  1  0  0  0  0
  2  4  1  6  0  0  0
  2  3  1  0  0  0  0
  3 20  1  6  0  0  0
  3  6  1  0  0  0  0
  5  6  1  0  0  0  0
  7  1  1  6  0  0  0
  7  5  1  0  0  0  0
  8 10  1  6  0  0  0
  8 17  1  0  0  0  0
  8 18  1  0  0  0  0
 11 19  1  0  0  0  0
 11 12  1  0  0  0  0
 12 16  2  6  0  0  0
 12  9  1  0  0  0  0
 13 14  1  0  0  0  0
 15 13  1  1  0  0  0
 15  7  1  0  0  0  0
 15  8  1  0  0  0  0
 17 19  1  0  0  0  0
 18 14  1  6  0  0  0
 18 12  1  0  0  0  0
 20 21  1  0  0  0  0
 21 22  1  0  0  0  0
 23 22  1  0  0  0  0
 24 23  1  6  0  0  0
 24 27  1  0  0  0  0
 24 34  1  0  0  0  0
 25 28  1  0  0  0  0
 27 38  1  6  0  0  0
 27 36  1  0  0  0  0
 29 32  1  0  0  0  0
 29 28  1  1  0  0  0
 30 25  1  0  0  0  0
 31 26  1  0  0  0  0
 31 32  1  0  0  0  0
 31 35  1  0  0  0  0
 33 30  2  0  0  0  0
 34 31  1  0  0  0  0
 36 33  1  1  0  0  0
 36 29  1  0  0  0  0
 37 38  2  0  0  0  0
M  END
>  <MODEL>
9

>  <REMARK>
 VINA RESULT:      -7.5      2.701      5.520
  Name = 
  7 active torsions:
  status: ('A' for Active; 'I' for Inactive)
    1  A    between atoms: C_2  and  C_34
    2  A    between atoms: C_7  and  C_26
    3  A    between atoms: C_16  and  C_38
    4  A    between atoms: C_20  and  C_22
    5  A    between atoms: C_20  and  C_34
    6  A    between atoms: C_21  and  C_32
    7  A    between atoms: C_22  and  C_32
                            x       y       z     vdW  Elec       q    Type
                         _______ _______ _______ _____ _____    ______ ____

>  <TORSDO>
F 7

$$$$
