=
 OpenBabel11062422293D

 43 48  0  0  1  0  0  0  0  0999 V2000
  190.6450  172.8780  142.3090 C   0  0  1  0  0  3  0  0  0  0  0  0
  191.4610  173.0820  144.6330 C   0  0  0  0  0  2  0  0  0  0  0  0
  191.8610  172.7230  143.2120 C   0  0  2  0  0  3  0  0  0  0  0  0
  189.9510  172.9670  144.6630 C   0  0  2  0  0  3  0  0  0  0  0  0
  189.6710  171.7370  142.5220 C   0  0  0  0  0  2  0  0  0  0  0  0
  189.4500  173.0580  143.2300 C   0  0  2  0  0  3  0  0  0  0  0  0
  193.0010  173.4220  142.7470 O   0  0  0  0  0  0  0  0  0  0  0  0
  196.2430  172.2660  143.2520 C   0  0  0  0  0  2  0  0  0  0  0  0
  194.0050  173.4310  143.7410 C   0  0  2  0  0  3  0  0  0  0  0  0
  194.9060  174.6740  143.6270 C   0  0  1  0  0  3  0  0  0  0  0  0
  195.2900  174.9460  142.1830 C   0  0  0  0  0  0  0  0  0  0  0  0
  195.9660  173.8980  141.3700 C   0  0  0  0  0  0  0  0  0  0  0  0
  194.9260  176.0620  141.5970 C   0  0  0  0  0  0  0  0  0  0  0  0
  196.2190  174.1290  140.1560 O   0  0  0  0  0  0  0  0  0  0  0  0
  194.7930  172.1140  143.7090 C   0  0  2  0  0  3  0  0  0  0  0  0
  196.3170  172.6390  141.8810 O   0  0  0  0  0  0  0  0  0  0  0  0
  194.5830  177.1150  141.0450 O   0  0  0  0  0  0  0  0  0  0  0  0
  194.3460  175.8740  144.4110 C   0  0  2  0  0  3  0  0  0  0  0  0
  194.1910  176.5920  146.6670 C   0  0  0  0  0  2  0  0  0  0  0  0
  195.3460  176.8360  144.6200 O   0  0  0  0  0  0  0  0  0  0  0  0
  193.8360  175.4450  145.7720 C   0  0  0  0  0  2  0  0  0  0  0  0
  194.9410  177.5410  145.7630 C   0  0  0  0  0  2  0  0  0  0  0  0
  194.7680  171.5070  145.0420 C   0  0  0  0  0  0  0  0  0  0  0  0
  194.7450  171.0040  146.1380 C   0  0  0  0  0  3  0  0  0  0  0  0
  189.3530  174.0970  145.4850 C   0  0  0  0  0  2  0  0  0  0  0  0
  190.3760  175.9640  146.8230 C   0  0  0  0  0  3  0  0  0  0  0  0
  190.3650  174.6820  146.4240 C   0  0  0  0  0  3  0  0  0  0  0  0
  186.0960  177.0740  143.2210 C   0  0  0  0  0  0  0  0  0  0  0  0
  185.4130  179.0290  145.2670 C   0  0  0  0  0  2  0  0  0  0  0  0
  184.8180  177.7020  143.2830 N   0  0  0  0  0  2  0  0  0  0  0  0
  189.3920  177.0320  146.4020 C   0  0  1  0  0  3  0  0  0  0  0  0
  186.8020  177.2340  146.3770 C   0  0  0  0  0  0  0  0  0  0  0  0
  187.2390  177.7390  143.9310 C   0  0  2  0  0  3  0  0  0  0  0  0
  188.4960  176.8650  144.0020 C   0  0  0  0  0  2  0  0  0  0  0  0
  189.5270  177.5090  144.9280 C   0  0  2  0  0  3  0  0  0  0  0  0
  186.7740  178.2910  145.3030 C   0  0  1  0  0  3  0  0  0  0  0  0
  184.7160  179.0180  143.9000 C   0  0  0  0  0  2  0  0  0  0  0  0
  186.2460  176.0050  142.5730 O   0  0  0  0  0  0  0  0  0  0  0  0
  185.7250  176.8010  146.8680 O   0  0  0  0  0  0  0  0  0  0  0  0
  188.0360  176.6410  146.8020 N   0  0  0  0  0  2  0  0  0  0  0  0
  191.3750  178.8550  143.8880 C   0  0  0  0  0  1  0  0  0  0  0  0
  191.0540  176.5240  143.1750 C   0  0  0  0  0  1  0  0  0  0  0  0
  190.9540  177.4740  144.3580 C   0  0  0  0  0  3  0  0  0  0  0  0
  1  5  1  1  0  0  0
  1  3  1  0  0  0  0
  1  6  1  0  0  0  0
  2  4  1  0  0  0  0
  3  7  1  6  0  0  0
  3  2  1  0  0  0  0
  4 25  1  1  0  0  0
  6  5  1  6  0  0  0
  6  4  1  0  0  0  0
  8 15  1  0  0  0  0
  9  7  1  6  0  0  0
 10 11  1  6  0  0  0
 10  9  1  0  0  0  0
 10 18  1  0  0  0  0
 12 16  1  0  0  0  0
 12 11  1  0  0  0  0
 13 11  2  0  0  0  0
 14 12  2  0  0  0  0
 15  9  1  0  0  0  0
 15 23  1  1  0  0  0
 16  8  1  0  0  0  0
 17 13  2  0  0  0  0
 18 20  1  0  0  0  0
 18 21  1  1  0  0  0
 20 22  1  0  0  0  0
 21 19  1  0  0  0  0
 22 19  1  0  0  0  0
 23 24  3  0  0  0  0
 25 27  1  0  0  0  0
 27 26  2  0  0  0  0
 28 30  1  0  0  0  0
 28 33  1  0  0  0  0
 30 37  1  0  0  0  0
 31 40  1  0  0  0  0
 31 26  1  6  0  0  0
 32 40  1  0  0  0  0
 32 39  2  0  0  0  0
 33 34  1  1  0  0  0
 33 36  1  0  0  0  0
 34 35  1  0  0  0  0
 35 43  1  6  0  0  0
 35 31  1  0  0  0  0
 36 29  1  6  0  0  0
 36 32  1  0  0  0  0
 37 29  1  0  0  0  0
 38 28  2  0  0  0  0
 41 43  1  0  0  0  0
 42 43  1  0  0  0  0
M  END
>  <MODEL>
1

>  <REMARK>
 VINA RESULT:      -8.4      0.000      0.000
  Name = 
  8 active torsions:
  status: ('A' for Active; 'I' for Inactive)
    1  A    between atoms: C_3  and  C_16
    2  A    between atoms: C_4  and  C_11
    3  A    between atoms: C_9  and  O_18
    4  A    between atoms: C_13  and  O_18
    5  A    between atoms: C_15  and  C_35
    6  A    between atoms: C_22  and  C_37
    7  A    between atoms: C_25  and  C_29
    8  A    between atoms: C_34  and  C_37
                            x       y       z     vdW  Elec       q    Type
                         _______ _______ _______ _____ _____    ______ ____

>  <TORSDO>
F 8

$$$$
=
 OpenBabel11062422293D

 43 48  0  0  1  0  0  0  0  0999 V2000
  190.3850  173.1350  142.5470 C   0  0  1  0  0  3  0  0  0  0  0  0
  191.4790  173.3260  144.7540 C   0  0  0  0  0  2  0  0  0  0  0  0
  191.7140  173.0300  143.2830 C   0  0  2  0  0  3  0  0  0  0  0  0
  189.9940  173.1180  144.9710 C   0  0  2  0  0  3  0  0  0  0  0  0
  189.5130  171.9320  142.8420 C   0  0  0  0  0  2  0  0  0  0  0  0
  189.3090  173.2170  143.6170 C   0  0  2  0  0  3  0  0  0  0  0  0
  192.7420  173.8100  142.7020 O   0  0  0  0  0  0  0  0  0  0  0  0
  195.2730  173.4040  140.3500 C   0  0  0  0  0  2  0  0  0  0  0  0
  193.8890  173.0150  142.4800 C   0  0  2  0  0  3  0  0  0  0  0  0
  195.1450  173.6380  143.1160 C   0  0  1  0  0  3  0  0  0  0  0  0
  195.2140  175.1320  142.8480 C   0  0  0  0  0  0  0  0  0  0  0  0
  195.1840  175.6520  141.4540 C   0  0  0  0  0  0  0  0  0  0  0  0
  195.1830  175.9880  143.8420 C   0  0  0  0  0  0  0  0  0  0  0  0
  195.1830  176.8990  141.2620 O   0  0  0  0  0  0  0  0  0  0  0  0
  194.0540  172.7320  140.9800 C   0  0  2  0  0  3  0  0  0  0  0  0
  195.1290  174.8190  140.3260 O   0  0  0  0  0  0  0  0  0  0  0  0
  195.1530  176.7950  144.7800 O   0  0  0  0  0  0  0  0  0  0  0  0
  195.3290  173.2090  144.5830 C   0  0  2  0  0  3  0  0  0  0  0  0
  195.8350  171.2320  145.7940 C   0  0  0  0  0  2  0  0  0  0  0  0
  196.6830  173.2690  144.9470 O   0  0  0  0  0  0  0  0  0  0  0  0
  194.8630  171.7830  144.7950 C   0  0  0  0  0  2  0  0  0  0  0  0
  196.8160  172.3600  146.0070 C   0  0  0  0  0  2  0  0  0  0  0  0
  194.1390  171.2840  140.7720 C   0  0  0  0  0  0  0  0  0  0  0  0
  194.2050  170.0920  140.6020 C   0  0  0  0  0  3  0  0  0  0  0  0
  189.4440  174.1860  145.9010 C   0  0  0  0  0  2  0  0  0  0  0  0
  190.5750  176.2110  146.8710 C   0  0  0  0  0  3  0  0  0  0  0  0
  190.5440  174.8890  146.6360 C   0  0  0  0  0  3  0  0  0  0  0  0
  186.1360  176.9660  143.3720 C   0  0  0  0  0  0  0  0  0  0  0  0
  185.4240  178.9710  145.3580 C   0  0  0  0  0  2  0  0  0  0  0  0
  184.8320  177.5350  143.4510 N   0  0  0  0  0  2  0  0  0  0  0  0
  189.5280  177.2120  146.4410 C   0  0  1  0  0  3  0  0  0  0  0  0
  186.9320  177.2910  146.4930 C   0  0  0  0  0  0  0  0  0  0  0  0
  187.2670  177.7130  144.0160 C   0  0  2  0  0  3  0  0  0  0  0  0
  188.5660  176.9030  144.0800 C   0  0  0  0  0  2  0  0  0  0  0  0
  189.5940  177.6330  144.9450 C   0  0  2  0  0  3  0  0  0  0  0  0
  186.8200  178.2990  145.3790 C   0  0  1  0  0  3  0  0  0  0  0  0
  184.6860  178.8700  144.0170 C   0  0  0  0  0  2  0  0  0  0  0  0
  186.3170  175.8780  142.7640 O   0  0  0  0  0  0  0  0  0  0  0  0
  185.8940  176.8300  147.0380 O   0  0  0  0  0  0  0  0  0  0  0  0
  188.2060  176.7760  146.9010 N   0  0  0  0  0  2  0  0  0  0  0  0
  191.3840  179.0420  143.8870 C   0  0  0  0  0  1  0  0  0  0  0  0
  191.0810  176.7280  143.1170 C   0  0  0  0  0  1  0  0  0  0  0  0
  191.0030  177.6400  144.3290 C   0  0  0  0  0  3  0  0  0  0  0  0
  1  5  1  6  0  0  0
  1  3  1  0  0  0  0
  1  6  1  0  0  0  0
  2  4  1  0  0  0  0
  3  7  1  6  0  0  0
  3  2  1  0  0  0  0
  4 25  1  1  0  0  0
  6  5  1  6  0  0  0
  6  4  1  0  0  0  0
  8 15  1  0  0  0  0
  9  7  1  6  0  0  0
  9 10  1  0  0  0  0
 10 11  1  1  0  0  0
 10 18  1  0  0  0  0
 11 13  2  0  0  0  0
 12 11  1  0  0  0  0
 13 17  2  0  0  0  0
 14 12  2  0  0  0  0
 15 23  1  1  0  0  0
 15  9  1  0  0  0  0
 16  8  1  0  0  0  0
 16 12  1  0  0  0  0
 18 21  1  6  0  0  0
 18 20  1  0  0  0  0
 19 22  1  0  0  0  0
 20 22  1  0  0  0  0
 21 19  1  0  0  0  0
 24 23  3  0  0  0  0
 25 27  1  0  0  0  0
 27 26  2  0  0  0  0
 28 30  1  0  0  0  0
 28 33  1  0  0  0  0
 30 37  1  0  0  0  0
 31 26  1  6  0  0  0
 31 40  1  0  0  0  0
 32 40  1  0  0  0  0
 32 39  2  0  0  0  0
 33 34  1  1  0  0  0
 33 36  1  0  0  0  0
 34 35  1  0  0  0  0
 35 43  1  6  0  0  0
 35 31  1  0  0  0  0
 36 29  1  6  0  0  0
 36 32  1  0  0  0  0
 37 29  1  0  0  0  0
 38 28  2  0  0  0  0
 41 43  1  0  0  0  0
 42 43  1  0  0  0  0
M  END
>  <MODEL>
2

>  <REMARK>
 VINA RESULT:      -7.8      1.176      2.250
  Name = 
  8 active torsions:
  status: ('A' for Active; 'I' for Inactive)
    1  A    between atoms: C_3  and  C_16
    2  A    between atoms: C_4  and  C_11
    3  A    between atoms: C_9  and  O_18
    4  A    between atoms: C_13  and  O_18
    5  A    between atoms: C_15  and  C_35
    6  A    between atoms: C_22  and  C_37
    7  A    between atoms: C_25  and  C_29
    8  A    between atoms: C_34  and  C_37
                            x       y       z     vdW  Elec       q    Type
                         _______ _______ _______ _____ _____    ______ ____

>  <TORSDO>
F 8

$$$$
=
 OpenBabel11062422293D

 43 48  0  0  1  0  0  0  0  0999 V2000
  194.9760  175.9990  146.1450 C   0  0  1  0  0  3  0  0  0  0  0  0
  192.8980  175.0710  145.1840 C   0  0  0  0  0  2  0  0  0  0  0  0
  194.4020  175.1800  144.9970 C   0  0  2  0  0  3  0  0  0  0  0  0
  192.5290  176.2010  146.1230 C   0  0  2  0  0  3  0  0  0  0  0  0
  194.6600  177.4700  145.9650 C   0  0  0  0  0  2  0  0  0  0  0  0
  193.7890  176.6170  146.8650 C   0  0  2  0  0  3  0  0  0  0  0  0
  195.0460  173.9330  144.8190 O   0  0  0  0  0  0  0  0  0  0  0  0
  197.1480  172.9160  142.2410 C   0  0  0  0  0  2  0  0  0  0  0  0
  194.9760  173.5400  143.4630 C   0  0  2  0  0  3  0  0  0  0  0  0
  194.7490  172.0230  143.3220 C   0  0  1  0  0  3  0  0  0  0  0  0
  195.6370  171.2430  144.2770 C   0  0  0  0  0  0  0  0  0  0  0  0
  197.1140  171.4200  144.2510 C   0  0  0  0  0  0  0  0  0  0  0  0
  195.1070  170.4920  145.2130 C   0  0  0  0  0  0  0  0  0  0  0  0
  197.8230  170.8040  145.0940 O   0  0  0  0  0  0  0  0  0  0  0  0
  196.2150  174.0340  142.7050 C   0  0  2  0  0  3  0  0  0  0  0  0
  197.7690  172.2680  143.3450 O   0  0  0  0  0  0  0  0  0  0  0  0
  194.6070  169.7830  146.0960 O   0  0  0  0  0  0  0  0  0  0  0  0
  193.2550  171.6530  143.3390 C   0  0  2  0  0  3  0  0  0  0  0  0
  191.3390  171.9860  141.9800 C   0  0  0  0  0  2  0  0  0  0  0  0
  193.0330  170.4690  142.6200 O   0  0  0  0  0  0  0  0  0  0  0  0
  192.4180  172.7400  142.6950 C   0  0  0  0  0  2  0  0  0  0  0  0
  191.6940  170.5370  142.2090 C   0  0  0  0  0  2  0  0  0  0  0  0
  195.7870  174.8180  141.5440 C   0  0  0  0  0  0  0  0  0  0  0  0
  195.4390  175.4660  140.5880 C   0  0  0  0  0  3  0  0  0  0  0  0
  191.4800  175.7360  147.1190 C   0  0  0  0  0  2  0  0  0  0  0  0
  189.3790  174.9390  145.9910 C   0  0  0  0  0  3  0  0  0  0  0  0
  190.5870  174.6910  146.5230 C   0  0  0  0  0  3  0  0  0  0  0  0
  185.3580  177.8830  143.2180 C   0  0  0  0  0  0  0  0  0  0  0  0
  185.3930  179.4610  145.6640 C   0  0  0  0  0  2  0  0  0  0  0  0
  184.3170  178.7960  143.5540 N   0  0  0  0  0  2  0  0  0  0  0  0
  188.7110  176.2930  145.9030 C   0  0  1  0  0  3  0  0  0  0  0  0
  186.2890  177.1690  146.2360 C   0  0  0  0  0  0  0  0  0  0  0  0
  186.6870  178.0550  143.8940 C   0  0  2  0  0  3  0  0  0  0  0  0
  187.6470  176.8870  143.6440 C   0  0  0  0  0  2  0  0  0  0  0  0
  188.8780  177.0230  144.5400 C   0  0  2  0  0  3  0  0  0  0  0  0
  186.4890  178.4010  145.3920 C   0  0  1  0  0  3  0  0  0  0  0  0
  184.6330  179.9280  144.4150 C   0  0  0  0  0  2  0  0  0  0  0  0
  185.1560  176.9770  142.3670 O   0  0  0  0  0  0  0  0  0  0  0  0
  185.1690  176.9400  146.7660 O   0  0  0  0  0  0  0  0  0  0  0  0
  187.3300  176.1960  146.3870 N   0  0  0  0  0  2  0  0  0  0  0  0
  190.8740  178.0340  143.3990 C   0  0  0  0  0  1  0  0  0  0  0  0
  189.9570  175.9210  142.5420 C   0  0  0  0  0  1  0  0  0  0  0  0
  190.1950  176.7370  143.8020 C   0  0  0  0  0  3  0  0  0  0  0  0
  1  5  1  6  0  0  0
  1  6  1  0  0  0  0
  2  4  1  0  0  0  0
  3  7  1  1  0  0  0
  3  2  1  0  0  0  0
  3  1  1  0  0  0  0
  4  6  1  0  0  0  0
  4 25  1  1  0  0  0
  6  5  1  6  0  0  0
  8 15  1  0  0  0  0
  8 16  1  0  0  0  0
  9  7  1  1  0  0  0
 10 18  1  0  0  0  0
 10  9  1  0  0  0  0
 10 11  1  1  0  0  0
 11 13  2  0  0  0  0
 12 11  1  0  0  0  0
 12 14  2  0  0  0  0
 13 17  2  0  0  0  0
 15 23  1  6  0  0  0
 15  9  1  0  0  0  0
 16 12  1  0  0  0  0
 18 21  1  6  0  0  0
 19 22  1  0  0  0  0
 19 21  1  0  0  0  0
 20 18  1  0  0  0  0
 22 20  1  0  0  0  0
 24 23  3  0  0  0  0
 26 27  2  0  0  0  0
 27 25  1  0  0  0  0
 28 30  1  0  0  0  0
 28 33  1  0  0  0  0
 30 37  1  0  0  0  0
 31 26  1  6  0  0  0
 31 40  1  0  0  0  0
 32 40  1  0  0  0  0
 32 39  2  0  0  0  0
 33 34  1  1  0  0  0
 33 36  1  0  0  0  0
 34 35  1  0  0  0  0
 35 43  1  6  0  0  0
 35 31  1  0  0  0  0
 36 29  1  6  0  0  0
 36 32  1  0  0  0  0
 37 29  1  0  0  0  0
 38 28  2  0  0  0  0
 41 43  1  0  0  0  0
 42 43  1  0  0  0  0
M  END
>  <MODEL>
3

>  <REMARK>
 VINA RESULT:      -7.5      1.627      4.151
  Name = 
  8 active torsions:
  status: ('A' for Active; 'I' for Inactive)
    1  A    between atoms: C_3  and  C_16
    2  A    between atoms: C_4  and  C_11
    3  A    between atoms: C_9  and  O_18
    4  A    between atoms: C_13  and  O_18
    5  A    between atoms: C_15  and  C_35
    6  A    between atoms: C_22  and  C_37
    7  A    between atoms: C_25  and  C_29
    8  A    between atoms: C_34  and  C_37
                            x       y       z     vdW  Elec       q    Type
                         _______ _______ _______ _____ _____    ______ ____

>  <TORSDO>
F 8

$$$$
=
 OpenBabel11062422293D

 43 48  0  0  1  0  0  0  0  0999 V2000
  192.0960  172.1720  141.1780 C   0  0  1  0  0  3  0  0  0  0  0  0
  191.9930  173.8430  142.9970 C   0  0  0  0  0  2  0  0  0  0  0  0
  192.7610  172.6450  142.4640 C   0  0  2  0  0  3  0  0  0  0  0  0
  190.6330  173.7720  142.3330 C   0  0  2  0  0  3  0  0  0  0  0  0
  190.8020  171.4440  141.4820 C   0  0  0  0  0  2  0  0  0  0  0  0
  190.7680  172.9070  141.0900 C   0  0  2  0  0  3  0  0  0  0  0  0
  194.1510  172.8750  142.3260 O   0  0  0  0  0  0  0  0  0  0  0  0
  197.1560  172.0400  143.8680 C   0  0  0  0  0  2  0  0  0  0  0  0
  194.7620  172.9340  143.5990 C   0  0  2  0  0  3  0  0  0  0  0  0
  195.4980  174.2700  143.8140 C   0  0  1  0  0  3  0  0  0  0  0  0
  196.3020  174.6590  142.5850 C   0  0  0  0  0  0  0  0  0  0  0  0
  197.3270  173.7340  142.0280 C   0  0  0  0  0  0  0  0  0  0  0  0
  196.0240  175.7620  141.9310 C   0  0  0  0  0  0  0  0  0  0  0  0
  197.9390  174.0560  140.9730 O   0  0  0  0  0  0  0  0  0  0  0  0
  195.6640  171.7110  143.8110 C   0  0  2  0  0  3  0  0  0  0  0  0
  197.6340  172.4930  142.6070 O   0  0  0  0  0  0  0  0  0  0  0  0
  195.7620  176.8010  141.3130 O   0  0  0  0  0  0  0  0  0  0  0  0
  194.5730  175.3600  144.3850 C   0  0  2  0  0  3  0  0  0  0  0  0
  193.7930  176.0790  146.5070 C   0  0  0  0  0  2  0  0  0  0  0  0
  195.3150  176.4940  144.7480 O   0  0  0  0  0  0  0  0  0  0  0  0
  193.8550  174.8690  145.6260 C   0  0  0  0  0  2  0  0  0  0  0  0
  194.5460  177.1330  145.7320 C   0  0  0  0  0  2  0  0  0  0  0  0
  195.2720  171.0330  145.0480 C   0  0  0  0  0  0  0  0  0  0  0  0
  194.9460  170.4790  146.0690 C   0  0  0  0  0  3  0  0  0  0  0  0
  190.1680  175.1640  141.9380 C   0  0  0  0  0  2  0  0  0  0  0  0
  190.2720  176.8800  143.7730 C   0  0  0  0  0  3  0  0  0  0  0  0
  190.8490  176.2190  142.7560 C   0  0  0  0  0  3  0  0  0  0  0  0
  186.5620  178.5130  147.7840 C   0  0  0  0  0  0  0  0  0  0  0  0
  184.6310  177.6950  145.7650 C   0  0  0  0  0  2  0  0  0  0  0  0
  185.1880  178.8880  147.8430 N   0  0  0  0  0  2  0  0  0  0  0  0
  188.8550  176.6870  144.2650 C   0  0  1  0  0  3  0  0  0  0  0  0
  186.7900  178.2330  144.5670 C   0  0  0  0  0  0  0  0  0  0  0  0
  186.9310  177.3340  146.9330 C   0  0  2  0  0  3  0  0  0  0  0  0
  188.4440  177.1690  146.7530 C   0  0  0  0  0  2  0  0  0  0  0  0
  188.7300  176.1000  145.6990 C   0  0  2  0  0  3  0  0  0  0  0  0
  186.1350  177.3580  145.6030 C   0  0  1  0  0  3  0  0  0  0  0  0
  184.2020  178.0290  147.2000 C   0  0  0  0  0  2  0  0  0  0  0  0
  187.4220  179.1530  148.4450 O   0  0  0  0  0  0  0  0  0  0  0  0
  186.2430  179.3110  144.2100 O   0  0  0  0  0  0  0  0  0  0  0  0
  188.0770  177.9080  144.0280 N   0  0  0  0  0  2  0  0  0  0  0  0
  189.4190  173.6930  145.9110 C   0  0  0  0  0  1  0  0  0  0  0  0
  190.2290  175.3130  147.5730 C   0  0  0  0  0  1  0  0  0  0  0  0
  189.8540  175.1350  146.1110 C   0  0  0  0  0  3  0  0  0  0  0  0
  1  5  1  1  0  0  0
  1  3  1  0  0  0  0
  3  7  1  6  0  0  0
  3  2  1  0  0  0  0
  4 25  1  6  0  0  0
  4  2  1  0  0  0  0
  6  1  1  0  0  0  0
  6  5  1  1  0  0  0
  6  4  1  0  0  0  0
  9  7  1  6  0  0  0
  9 15  1  0  0  0  0
  9 10  1  0  0  0  0
 10 11  1  6  0  0  0
 10 18  1  0  0  0  0
 12 11  1  0  0  0  0
 12 16  1  0  0  0  0
 13 11  2  0  0  0  0
 14 12  2  0  0  0  0
 15  8  1  0  0  0  0
 15 23  1  1  0  0  0
 16  8  1  0  0  0  0
 17 13  2  0  0  0  0
 18 20  1  0  0  0  0
 18 21  1  1  0  0  0
 20 22  1  0  0  0  0
 21 19  1  0  0  0  0
 22 19  1  0  0  0  0
 23 24  3  0  0  0  0
 25 27  1  0  0  0  0
 27 26  2  0  0  0  0
 28 30  1  0  0  0  0
 28 38  2  0  0  0  0
 29 37  1  0  0  0  0
 31 26  1  1  0  0  0
 31 35  1  0  0  0  0
 32 36  1  0  0  0  0
 33 34  1  6  0  0  0
 33 28  1  0  0  0  0
 35 43  1  1  0  0  0
 35 34  1  0  0  0  0
 36 29  1  1  0  0  0
 36 33  1  0  0  0  0
 37 30  1  0  0  0  0
 39 32  2  0  0  0  0
 40 31  1  0  0  0  0
 40 32  1  0  0  0  0
 41 43  1  0  0  0  0
 43 42  1  0  0  0  0
M  END
>  <MODEL>
4

>  <REMARK>
 VINA RESULT:      -7.3      1.558      2.687
  Name = 
  8 active torsions:
  status: ('A' for Active; 'I' for Inactive)
    1  A    between atoms: C_3  and  C_16
    2  A    between atoms: C_4  and  C_11
    3  A    between atoms: C_9  and  O_18
    4  A    between atoms: C_13  and  O_18
    5  A    between atoms: C_15  and  C_35
    6  A    between atoms: C_22  and  C_37
    7  A    between atoms: C_25  and  C_29
    8  A    between atoms: C_34  and  C_37
                            x       y       z     vdW  Elec       q    Type
                         _______ _______ _______ _____ _____    ______ ____

>  <TORSDO>
F 8

$$$$
=
 OpenBabel11062422293D

 43 48  0  0  1  0  0  0  0  0999 V2000
  195.0880  174.2750  144.9170 C   0  0  1  0  0  3  0  0  0  0  0  0
  194.1010  176.5320  144.7160 C   0  0  0  0  0  2  0  0  0  0  0  0
  195.0190  175.5230  144.0470 C   0  0  2  0  0  3  0  0  0  0  0  0
  194.0280  176.1040  146.1670 C   0  0  2  0  0  3  0  0  0  0  0  0
  195.9450  174.5230  146.1410 C   0  0  0  0  0  2  0  0  0  0  0  0
  194.4380  174.6410  146.2410 C   0  0  2  0  0  3  0  0  0  0  0  0
  194.6810  175.2520  142.6990 O   0  0  0  0  0  0  0  0  0  0  0  0
  192.3840  173.2690  140.9990 C   0  0  0  0  0  2  0  0  0  0  0  0
  194.3370  173.8900  142.5490 C   0  0  2  0  0  3  0  0  0  0  0  0
  195.1320  173.2250  141.4100 C   0  0  1  0  0  3  0  0  0  0  0  0
  195.1840  174.1170  140.1820 C   0  0  0  0  0  0  0  0  0  0  0  0
  193.9290  174.6060  139.5480 C   0  0  0  0  0  0  0  0  0  0  0  0
  196.3340  174.5640  139.7340 C   0  0  0  0  0  0  0  0  0  0  0  0
  194.0020  175.3930  138.5650 O   0  0  0  0  0  0  0  0  0  0  0  0
  192.8180  173.7430  142.3850 C   0  0  2  0  0  3  0  0  0  0  0  0
  192.6510  174.2550  140.0080 O   0  0  0  0  0  0  0  0  0  0  0  0
  197.4180  174.9850  139.3110 O   0  0  0  0  0  0  0  0  0  0  0  0
  196.4810  172.6640  141.8910 C   0  0  2  0  0  3  0  0  0  0  0  0
  197.2920  170.7410  143.0200 C   0  0  0  0  0  2  0  0  0  0  0  0
  197.0300  171.8050  140.9270 O   0  0  0  0  0  0  0  0  0  0  0  0
  196.3150  171.8660  143.1690 C   0  0  0  0  0  2  0  0  0  0  0  0
  197.8760  170.9450  141.6430 C   0  0  0  0  0  2  0  0  0  0  0  0
  192.3140  172.8080  143.3940 C   0  0  0  0  0  0  0  0  0  0  0  0
  191.9040  172.0360  144.2250 C   0  0  0  0  0  3  0  0  0  0  0  0
  192.6120  176.2640  146.6930 C   0  0  0  0  0  2  0  0  0  0  0  0
  190.4460  175.0990  146.1690 C   0  0  0  0  0  3  0  0  0  0  0  0
  191.7720  175.0640  146.3730 C   0  0  0  0  0  3  0  0  0  0  0  0
  185.6850  177.4360  144.0730 C   0  0  0  0  0  0  0  0  0  0  0  0
  185.8060  178.9420  146.5610 C   0  0  0  0  0  2  0  0  0  0  0  0
  184.5710  178.1650  144.5810 N   0  0  0  0  0  2  0  0  0  0  0  0
  189.5720  176.3320  146.2290 C   0  0  1  0  0  3  0  0  0  0  0  0
  187.1120  176.8060  146.9100 C   0  0  0  0  0  0  0  0  0  0  0  0
  187.0510  177.8000  144.5780 C   0  0  2  0  0  3  0  0  0  0  0  0
  188.1360  176.8050  144.1540 C   0  0  0  0  0  2  0  0  0  0  0  0
  189.4400  177.1120  144.8900 C   0  0  2  0  0  3  0  0  0  0  0  0
  187.0050  178.0750  146.1030 C   0  0  1  0  0  3  0  0  0  0  0  0
  184.8220  179.3120  145.4430 C   0  0  0  0  0  2  0  0  0  0  0  0
  185.5110  176.5300  143.2150 O   0  0  0  0  0  0  0  0  0  0  0  0
  186.1210  176.3900  147.5690 O   0  0  0  0  0  0  0  0  0  0  0  0
  188.3000  176.0070  146.8820 N   0  0  0  0  0  2  0  0  0  0  0  0
  191.1360  178.4550  143.6140 C   0  0  0  0  0  1  0  0  0  0  0  0
  190.3730  176.3120  142.6840 C   0  0  0  0  0  1  0  0  0  0  0  0
  190.6750  177.0550  143.9750 C   0  0  0  0  0  3  0  0  0  0  0  0
  1  5  1  1  0  0  0
  1  6  1  0  0  0  0
  2  4  1  0  0  0  0
  3  7  1  6  0  0  0
  3  2  1  0  0  0  0
  3  1  1  0  0  0  0
  4  6  1  0  0  0  0
  4 25  1  6  0  0  0
  6  5  1  1  0  0  0
  8 15  1  0  0  0  0
  9  7  1  6  0  0  0
 10 11  1  6  0  0  0
 10 18  1  0  0  0  0
 10  9  1  0  0  0  0
 12 16  1  0  0  0  0
 12 11  1  0  0  0  0
 13 11  2  0  0  0  0
 14 12  2  0  0  0  0
 15  9  1  0  0  0  0
 15 23  1  1  0  0  0
 16  8  1  0  0  0  0
 17 13  2  0  0  0  0
 18 21  1  1  0  0  0
 19 21  1  0  0  0  0
 20 22  1  0  0  0  0
 20 18  1  0  0  0  0
 22 19  1  0  0  0  0
 23 24  3  0  0  0  0
 26 27  2  0  0  0  0
 27 25  1  0  0  0  0
 28 33  1  0  0  0  0
 28 30  1  0  0  0  0
 30 37  1  0  0  0  0
 31 26  1  6  0  0  0
 31 40  1  0  0  0  0
 32 39  2  0  0  0  0
 33 34  1  1  0  0  0
 33 36  1  0  0  0  0
 34 35  1  0  0  0  0
 35 43  1  6  0  0  0
 35 31  1  0  0  0  0
 36 29  1  6  0  0  0
 36 32  1  0  0  0  0
 37 29  1  0  0  0  0
 38 28  2  0  0  0  0
 40 32  1  0  0  0  0
 41 43  1  0  0  0  0
 42 43  1  0  0  0  0
M  END
>  <MODEL>
5

>  <REMARK>
 VINA RESULT:      -7.3      1.558      3.648
  Name = 
  8 active torsions:
  status: ('A' for Active; 'I' for Inactive)
    1  A    between atoms: C_3  and  C_16
    2  A    between atoms: C_4  and  C_11
    3  A    between atoms: C_9  and  O_18
    4  A    between atoms: C_13  and  O_18
    5  A    between atoms: C_15  and  C_35
    6  A    between atoms: C_22  and  C_37
    7  A    between atoms: C_25  and  C_29
    8  A    between atoms: C_34  and  C_37
                            x       y       z     vdW  Elec       q    Type
                         _______ _______ _______ _____ _____    ______ ____

>  <TORSDO>
F 8

$$$$
=
 OpenBabel11062422293D

 43 48  0  0  1  0  0  0  0  0999 V2000
  193.4040  172.8080  141.9350 C   0  0  1  0  0  3  0  0  0  0  0  0
  192.7470  175.1720  142.2270 C   0  0  0  0  0  2  0  0  0  0  0  0
  192.8980  174.0500  141.2140 C   0  0  2  0  0  3  0  0  0  0  0  0
  193.6070  174.7640  143.4060 C   0  0  2  0  0  3  0  0  0  0  0  0
  194.8730  172.9490  142.2770 C   0  0  0  0  0  2  0  0  0  0  0  0
  193.8240  173.2620  143.3240 C   0  0  2  0  0  3  0  0  0  0  0  0
  191.7330  173.8180  140.4440 O   0  0  0  0  0  0  0  0  0  0  0  0
  188.4400  173.5250  141.5240 C   0  0  0  0  0  2  0  0  0  0  0  0
  190.8930  172.8900  141.1000 C   0  0  2  0  0  3  0  0  0  0  0  0
  190.2180  171.9310  140.1020 C   0  0  1  0  0  3  0  0  0  0  0  0
  189.6930  172.6790  138.8880 C   0  0  0  0  0  0  0  0  0  0  0  0
  188.7370  173.8090  139.0510 C   0  0  0  0  0  0  0  0  0  0  0  0
  190.1630  172.4170  137.6920 C   0  0  0  0  0  0  0  0  0  0  0  0
  188.3640  174.4510  138.0320 O   0  0  0  0  0  0  0  0  0  0  0  0
  189.8890  173.6280  141.9960 C   0  0  2  0  0  3  0  0  0  0  0  0
  188.2440  174.2220  140.2990 O   0  0  0  0  0  0  0  0  0  0  0  0
  190.6070  172.1710  136.5630 O   0  0  0  0  0  0  0  0  0  0  0  0
  191.0830  170.6940  139.8060 C   0  0  2  0  0  3  0  0  0  0  0  0
  191.8070  168.7350  140.9340 C   0  0  0  0  0  2  0  0  0  0  0  0
  190.2840  169.6290  139.3630 O   0  0  0  0  0  0  0  0  0  0  0  0
  191.8110  170.2280  141.0510 C   0  0  0  0  0  2  0  0  0  0  0  0
  191.0110  168.4710  139.6770 C   0  0  0  0  0  2  0  0  0  0  0  0
  189.9900  173.1050  143.3610 C   0  0  0  0  0  0  0  0  0  0  0  0
  190.0690  172.6780  144.4860 C   0  0  0  0  0  3  0  0  0  0  0  0
  192.9090  175.1090  144.7110 C   0  0  0  0  0  2  0  0  0  0  0  0
  191.7570  177.3430  144.6610 C   0  0  0  0  0  3  0  0  0  0  0  0
  192.8400  176.5920  144.9170 C   0  0  0  0  0  3  0  0  0  0  0  0
  186.2150  178.6140  144.2210 C   0  0  0  0  0  0  0  0  0  0  0  0
  186.3930  176.8120  141.9430 C   0  0  0  0  0  2  0  0  0  0  0  0
  185.2080  178.5520  143.2150 N   0  0  0  0  0  2  0  0  0  0  0  0
  190.4370  176.8400  144.1230 C   0  0  1  0  0  3  0  0  0  0  0  0
  188.7170  177.7030  142.3790 C   0  0  0  0  0  0  0  0  0  0  0  0
  187.1470  177.4460  144.3540 C   0  0  2  0  0  3  0  0  0  0  0  0
  188.3270  177.7180  145.2930 C   0  0  0  0  0  2  0  0  0  0  0  0
  189.3430  176.5800  145.1970 C   0  0  2  0  0  3  0  0  0  0  0  0
  187.5610  176.9250  142.9530 C   0  0  1  0  0  3  0  0  0  0  0  0
  185.0410  177.3110  142.4700 C   0  0  0  0  0  2  0  0  0  0  0  0
  186.2940  179.6180  144.9770 O   0  0  0  0  0  0  0  0  0  0  0  0
  188.5420  178.4520  141.3810 O   0  0  0  0  0  0  0  0  0  0  0  0
  190.0090  177.6770  142.9970 N   0  0  0  0  0  2  0  0  0  0  0  0
  189.0380  174.9700  147.1010 C   0  0  0  0  0  1  0  0  0  0  0  0
  189.8110  177.2530  147.5850 C   0  0  0  0  0  1  0  0  0  0  0  0
  189.8680  176.1250  146.5680 C   0  0  0  0  0  3  0  0  0  0  0  0
  1  5  1  6  0  0  0
  1  6  1  0  0  0  0
  2  4  1  0  0  0  0
  3  7  1  1  0  0  0
  3  1  1  0  0  0  0
  3  2  1  0  0  0  0
  4 25  1  1  0  0  0
  6  5  1  6  0  0  0
  6  4  1  0  0  0  0
  8 15  1  0  0  0  0
  9  7  1  6  0  0  0
  9 15  1  0  0  0  0
 10 11  1  6  0  0  0
 10  9  1  0  0  0  0
 11 12  1  0  0  0  0
 12 16  1  0  0  0  0
 13 11  2  0  0  0  0
 14 12  2  0  0  0  0
 15 23  1  1  0  0  0
 16  8  1  0  0  0  0
 17 13  2  0  0  0  0
 18 10  1  0  0  0  0
 18 21  1  1  0  0  0
 19 21  1  0  0  0  0
 20 22  1  0  0  0  0
 20 18  1  0  0  0  0
 22 19  1  0  0  0  0
 23 24  3  0  0  0  0
 25 27  1  0  0  0  0
 26 27  2  0  0  0  0
 28 33  1  0  0  0  0
 28 38  2  0  0  0  0
 29 37  1  0  0  0  0
 30 28  1  0  0  0  0
 31 26  1  1  0  0  0
 31 35  1  0  0  0  0
 32 36  1  0  0  0  0
 32 40  1  0  0  0  0
 33 34  1  6  0  0  0
 35 34  1  0  0  0  0
 35 43  1  1  0  0  0
 36 29  1  6  0  0  0
 36 33  1  0  0  0  0
 37 30  1  0  0  0  0
 39 32  2  0  0  0  0
 40 31  1  0  0  0  0
 43 41  1  0  0  0  0
 43 42  1  0  0  0  0
M  END
>  <MODEL>
6

>  <REMARK>
 VINA RESULT:      -7.2      2.790      5.608
  Name = 
  8 active torsions:
  status: ('A' for Active; 'I' for Inactive)
    1  A    between atoms: C_3  and  C_16
    2  A    between atoms: C_4  and  C_11
    3  A    between atoms: C_9  and  O_18
    4  A    between atoms: C_13  and  O_18
    5  A    between atoms: C_15  and  C_35
    6  A    between atoms: C_22  and  C_37
    7  A    between atoms: C_25  and  C_29
    8  A    between atoms: C_34  and  C_37
                            x       y       z     vdW  Elec       q    Type
                         _______ _______ _______ _____ _____    ______ ____

>  <TORSDO>
F 8

$$$$
=
 OpenBabel11062422293D

 43 48  0  0  1  0  0  0  0  0999 V2000
  193.0970  175.4070  146.5450 C   0  0  1  0  0  3  0  0  0  0  0  0
  193.5020  176.0820  144.2030 C   0  0  0  0  0  2  0  0  0  0  0  0
  193.9990  175.2000  145.3360 C   0  0  2  0  0  3  0  0  0  0  0  0
  192.6500  177.1440  144.8680 C   0  0  2  0  0  3  0  0  0  0  0  0
  193.3850  176.7390  147.2070 C   0  0  0  0  0  2  0  0  0  0  0  0
  192.2320  176.6160  146.2320 C   0  0  2  0  0  3  0  0  0  0  0  0
  194.1530  173.8410  144.9740 O   0  0  0  0  0  0  0  0  0  0  0  0
  197.5190  173.0260  144.6450 C   0  0  0  0  0  2  0  0  0  0  0  0
  195.1370  173.7140  143.9680 C   0  0  2  0  0  3  0  0  0  0  0  0
  195.1600  172.2950  143.3700 C   0  0  1  0  0  3  0  0  0  0  0  0
  195.0690  171.2380  144.4580 C   0  0  0  0  0  0  0  0  0  0  0  0
  196.0600  171.2090  145.5680 C   0  0  0  0  0  0  0  0  0  0  0  0
  194.0520  170.4110  144.4970 C   0  0  0  0  0  0  0  0  0  0  0  0
  195.9270  170.3580  146.4900 O   0  0  0  0  0  0  0  0  0  0  0  0
  196.5040  174.1600  144.5060 C   0  0  2  0  0  3  0  0  0  0  0  0
  197.1340  172.1080  145.6610 O   0  0  0  0  0  0  0  0  0  0  0  0
  193.0910  169.6310  144.5350 O   0  0  0  0  0  0  0  0  0  0  0  0
  194.1740  172.1410  142.1990 C   0  0  2  0  0  3  0  0  0  0  0  0
  192.8560  173.5370  140.8040 C   0  0  0  0  0  2  0  0  0  0  0  0
  194.8420  172.2680  140.9720 O   0  0  0  0  0  0  0  0  0  0  0  0
  193.1010  173.2100  142.2460 C   0  0  0  0  0  2  0  0  0  0  0  0
  193.8600  172.6870  140.0630 C   0  0  0  0  0  2  0  0  0  0  0  0
  197.0530  175.1940  143.6250 C   0  0  0  0  0  0  0  0  0  0  0  0
  197.5020  176.0430  142.8960 C   0  0  0  0  0  3  0  0  0  0  0  0
  191.4140  177.4280  144.0310 C   0  0  0  0  0  2  0  0  0  0  0  0
  190.3490  175.9840  142.2690 C   0  0  0  0  0  3  0  0  0  0  0  0
  191.4190  176.6280  142.7630 C   0  0  0  0  0  3  0  0  0  0  0  0
  187.3710  177.5360  146.8780 C   0  0  0  0  0  0  0  0  0  0  0  0
  185.1490  177.3710  145.0050 C   0  0  0  0  0  2  0  0  0  0  0  0
  186.0970  178.1130  147.1500 N   0  0  0  0  0  2  0  0  0  0  0  0
  188.9720  175.9460  142.8920 C   0  0  1  0  0  3  0  0  0  0  0  0
  187.2500  177.7370  143.6490 C   0  0  0  0  0  0  0  0  0  0  0  0
  187.4460  176.4620  145.8320 C   0  0  2  0  0  3  0  0  0  0  0  0
  188.8830  176.0870  145.4540 C   0  0  0  0  0  2  0  0  0  0  0  0
  188.8770  175.1660  144.2340 C   0  0  2  0  0  3  0  0  0  0  0  0
  186.5480  176.8250  144.6220 C   0  0  1  0  0  3  0  0  0  0  0  0
  184.9190  177.5370  146.5130 C   0  0  0  0  0  2  0  0  0  0  0  0
  188.3880  177.9150  147.5170 O   0  0  0  0  0  0  0  0  0  0  0  0
  186.8720  178.9320  143.5150 O   0  0  0  0  0  0  0  0  0  0  0  0
  188.4040  177.2980  142.9220 N   0  0  0  0  0  2  0  0  0  0  0  0
  189.3340  172.7820  143.5900 C   0  0  0  0  0  1  0  0  0  0  0  0
  190.0050  173.5610  145.8220 C   0  0  0  0  0  1  0  0  0  0  0  0
  189.8450  173.9800  144.3700 C   0  0  0  0  0  3  0  0  0  0  0  0
  1  5  1  1  0  0  0
  2  4  1  0  0  0  0
  2  3  1  0  0  0  0
  3  7  1  6  0  0  0
  3  1  1  0  0  0  0
  4 25  1  6  0  0  0
  4  6  1  0  0  0  0
  6  1  1  0  0  0  0
  6  5  1  1  0  0  0
  8 16  1  0  0  0  0
  9 15  1  0  0  0  0
  9  7  1  1  0  0  0
 10  9  1  0  0  0  0
 10 11  1  1  0  0  0
 11 13  2  0  0  0  0
 11 12  1  0  0  0  0
 12 16  1  0  0  0  0
 12 14  2  0  0  0  0
 13 17  2  0  0  0  0
 15 23  1  6  0  0  0
 15  8  1  0  0  0  0
 18 21  1  1  0  0  0
 18 10  1  0  0  0  0
 19 21  1  0  0  0  0
 20 18  1  0  0  0  0
 22 19  1  0  0  0  0
 22 20  1  0  0  0  0
 24 23  3  0  0  0  0
 26 27  2  0  0  0  0
 27 25  1  0  0  0  0
 28 30  1  0  0  0  0
 28 38  2  0  0  0  0
 29 37  1  0  0  0  0
 31 26  1  1  0  0  0
 31 40  1  0  0  0  0
 31 35  1  0  0  0  0
 32 36  1  0  0  0  0
 33 34  1  6  0  0  0
 33 28  1  0  0  0  0
 35 43  1  1  0  0  0
 35 34  1  0  0  0  0
 36 29  1  1  0  0  0
 36 33  1  0  0  0  0
 37 30  1  0  0  0  0
 39 32  2  0  0  0  0
 40 32  1  0  0  0  0
 41 43  1  0  0  0  0
 43 42  1  0  0  0  0
M  END
>  <MODEL>
7

>  <REMARK>
 VINA RESULT:      -6.9      2.074      4.672
  Name = 
  8 active torsions:
  status: ('A' for Active; 'I' for Inactive)
    1  A    between atoms: C_3  and  C_16
    2  A    between atoms: C_4  and  C_11
    3  A    between atoms: C_9  and  O_18
    4  A    between atoms: C_13  and  O_18
    5  A    between atoms: C_15  and  C_35
    6  A    between atoms: C_22  and  C_37
    7  A    between atoms: C_25  and  C_29
    8  A    between atoms: C_34  and  C_37
                            x       y       z     vdW  Elec       q    Type
                         _______ _______ _______ _____ _____    ______ ____

>  <TORSDO>
F 8

$$$$
=
 OpenBabel11062422293D

 43 48  0  0  1  0  0  0  0  0999 V2000
  194.7660  175.8000  146.1730 C   0  0  1  0  0  3  0  0  0  0  0  0
  192.4990  175.0400  145.5470 C   0  0  0  0  0  2  0  0  0  0  0  0
  193.9730  174.9530  145.1870 C   0  0  2  0  0  3  0  0  0  0  0  0
  192.3690  176.2870  146.3970 C   0  0  2  0  0  3  0  0  0  0  0  0
  194.5890  177.2750  145.8740 C   0  0  0  0  0  2  0  0  0  0  0  0
  193.7470  176.6180  146.9490 C   0  0  2  0  0  3  0  0  0  0  0  0
  194.4530  173.6270  145.0710 O   0  0  0  0  0  0  0  0  0  0  0  0
  196.7020  172.8870  142.5220 C   0  0  0  0  0  2  0  0  0  0  0  0
  194.4520  173.2260  143.7160 C   0  0  2  0  0  3  0  0  0  0  0  0
  194.4250  171.6930  143.5760 C   0  0  1  0  0  3  0  0  0  0  0  0
  195.3940  171.0350  144.5440 C   0  0  0  0  0  0  0  0  0  0  0  0
  196.8360  171.4020  144.5360 C   0  0  0  0  0  0  0  0  0  0  0  0
  194.9540  170.2230  145.4760 C   0  0  0  0  0  0  0  0  0  0  0  0
  197.6080  170.8840  145.3900 O   0  0  0  0  0  0  0  0  0  0  0  0
  195.6270  173.8750  142.9710 C   0  0  2  0  0  3  0  0  0  0  0  0
  197.3870  172.3260  143.6350 O   0  0  0  0  0  0  0  0  0  0  0  0
  194.5390  169.4580  146.3560 O   0  0  0  0  0  0  0  0  0  0  0  0
  192.9910  171.1330  143.5760 C   0  0  2  0  0  3  0  0  0  0  0  0
  190.9970  171.3870  142.3160 C   0  0  0  0  0  2  0  0  0  0  0  0
  192.8920  170.0330  142.7110 O   0  0  0  0  0  0  0  0  0  0  0  0
  192.0000  172.1760  143.1010 C   0  0  0  0  0  2  0  0  0  0  0  0
  191.5410  169.9790  142.3430 C   0  0  0  0  0  2  0  0  0  0  0  0
  195.1150  174.5960  141.8030 C   0  0  0  0  0  0  0  0  0  0  0  0
  194.6980  175.1880  140.8380 C   0  0  0  0  0  3  0  0  0  0  0  0
  191.4050  176.0440  147.5450 C   0  0  0  0  0  2  0  0  0  0  0  0
  189.5470  177.6830  147.1160 C   0  0  0  0  0  3  0  0  0  0  0  0
  190.5950  177.2680  147.8460 C   0  0  0  0  0  3  0  0  0  0  0  0
  186.4570  178.5600  142.4040 C   0  0  0  0  0  0  0  0  0  0  0  0
  187.9800  176.2660  141.4610 C   0  0  0  0  0  2  0  0  0  0  0  0
  186.5370  178.2090  141.0250 N   0  0  0  0  0  2  0  0  0  0  0  0
  189.0060  177.0050  145.8780 C   0  0  1  0  0  3  0  0  0  0  0  0
  189.3120  177.3400  143.3200 C   0  0  0  0  0  0  0  0  0  0  0  0
  186.7840  177.5020  143.4170 C   0  0  2  0  0  3  0  0  0  0  0  0
  186.8990  178.0470  144.8440 C   0  0  0  0  0  2  0  0  0  0  0  0
  187.4550  176.9660  145.7710 C   0  0  2  0  0  3  0  0  0  0  0  0
  188.0110  176.6740  142.9550 C   0  0  1  0  0  3  0  0  0  0  0  0
  186.7860  176.8180  140.6720 C   0  0  0  0  0  2  0  0  0  0  0  0
  186.1050  179.7200  142.7430 O   0  0  0  0  0  0  0  0  0  0  0  0
  190.0560  177.8140  142.4200 O   0  0  0  0  0  0  0  0  0  0  0  0
  189.6930  177.5220  144.6900 N   0  0  0  0  0  2  0  0  0  0  0  0
  185.2920  176.3790  146.9060 C   0  0  0  0  0  1  0  0  0  0  0  0
  186.6300  178.2440  147.7870 C   0  0  0  0  0  1  0  0  0  0  0  0
  186.7100  176.8840  147.1140 C   0  0  0  0  0  3  0  0  0  0  0  0
  1  5  1  6  0  0  0
  1  6  1  0  0  0  0
  2  4  1  0  0  0  0
  3  7  1  1  0  0  0
  3  2  1  0  0  0  0
  3  1  1  0  0  0  0
  4  6  1  0  0  0  0
  4 25  1  1  0  0  0
  6  5  1  6  0  0  0
  8 15  1  0  0  0  0
  8 16  1  0  0  0  0
  9  7  1  1  0  0  0
 10 18  1  0  0  0  0
 10  9  1  0  0  0  0
 10 11  1  1  0  0  0
 11 13  2  0  0  0  0
 12 11  1  0  0  0  0
 12 14  2  0  0  0  0
 13 17  2  0  0  0  0
 15 23  1  6  0  0  0
 15  9  1  0  0  0  0
 16 12  1  0  0  0  0
 18 21  1  6  0  0  0
 19 22  1  0  0  0  0
 19 21  1  0  0  0  0
 20 18  1  0  0  0  0
 22 20  1  0  0  0  0
 24 23  3  0  0  0  0
 25 27  1  0  0  0  0
 26 27  2  0  0  0  0
 28 38  2  0  0  0  0
 28 33  1  0  0  0  0
 30 28  1  0  0  0  0
 31 26  1  1  0  0  0
 32 40  1  0  0  0  0
 33 34  1  1  0  0  0
 34 35  1  0  0  0  0
 35 31  1  0  0  0  0
 35 43  1  1  0  0  0
 36 29  1  6  0  0  0
 36 32  1  0  0  0  0
 36 33  1  0  0  0  0
 37 30  1  0  0  0  0
 37 29  1  0  0  0  0
 39 32  2  0  0  0  0
 40 31  1  0  0  0  0
 41 43  1  0  0  0  0
 43 42  1  0  0  0  0
M  END
>  <MODEL>
8

>  <REMARK>
 VINA RESULT:      -6.8      2.124      4.916
  Name = 
  8 active torsions:
  status: ('A' for Active; 'I' for Inactive)
    1  A    between atoms: C_3  and  C_16
    2  A    between atoms: C_4  and  C_11
    3  A    between atoms: C_9  and  O_18
    4  A    between atoms: C_13  and  O_18
    5  A    between atoms: C_15  and  C_35
    6  A    between atoms: C_22  and  C_37
    7  A    between atoms: C_25  and  C_29
    8  A    between atoms: C_34  and  C_37
                            x       y       z     vdW  Elec       q    Type
                         _______ _______ _______ _____ _____    ______ ____

>  <TORSDO>
F 8

$$$$
=
 OpenBabel11062422293D

 43 48  0  0  1  0  0  0  0  0999 V2000
  189.6590  174.5000  140.5370 C   0  0  1  0  0  3  0  0  0  0  0  0
  189.1180  173.7570  142.8300 C   0  0  0  0  0  2  0  0  0  0  0  0
  190.1620  173.6960  141.7280 C   0  0  2  0  0  3  0  0  0  0  0  0
  187.8300  174.1550  142.1390 C   0  0  2  0  0  3  0  0  0  0  0  0
  188.5700  173.7440  139.8030 C   0  0  0  0  0  2  0  0  0  0  0  0
  188.1970  174.8070  140.8150 C   0  0  2  0  0  3  0  0  0  0  0  0
  191.4600  174.0700  142.1520 O   0  0  0  0  0  0  0  0  0  0  0  0
  194.6060  174.0390  140.6690 C   0  0  0  0  0  2  0  0  0  0  0  0
  192.4130  173.1460  141.6680 C   0  0  2  0  0  3  0  0  0  0  0  0
  193.3860  172.7000  142.7760 C   0  0  1  0  0  3  0  0  0  0  0  0
  193.8520  173.8830  143.6080 C   0  0  0  0  0  0  0  0  0  0  0  0
  194.5090  175.0510  142.9590 C   0  0  0  0  0  0  0  0  0  0  0  0
  193.5780  173.9430  144.8890 C   0  0  0  0  0  0  0  0  0  0  0  0
  194.8330  176.0450  143.6660 O   0  0  0  0  0  0  0  0  0  0  0  0
  193.1290  173.7210  140.4380 C   0  0  2  0  0  3  0  0  0  0  0  0
  194.7660  175.1180  141.5820 O   0  0  0  0  0  0  0  0  0  0  0  0
  193.3200  174.0000  146.0980 O   0  0  0  0  0  0  0  0  0  0  0  0
  192.8540  171.4910  143.5660 C   0  0  2  0  0  3  0  0  0  0  0  0
  192.3210  169.2140  143.1620 C   0  0  0  0  0  2  0  0  0  0  0  0
  193.9160  170.7140  144.0510 O   0  0  0  0  0  0  0  0  0  0  0  0
  192.0010  170.5990  142.6860 C   0  0  0  0  0  2  0  0  0  0  0  0
  193.3820  169.4270  144.2150 C   0  0  0  0  0  2  0  0  0  0  0  0
  193.0070  172.7750  139.3260 C   0  0  0  0  0  0  0  0  0  0  0  0
  192.9050  171.9920  138.4140 C   0  0  0  0  0  3  0  0  0  0  0  0
  187.0560  175.1410  142.9960 C   0  0  0  0  0  2  0  0  0  0  0  0
  187.2420  177.6200  142.6160 C   0  0  0  0  0  3  0  0  0  0  0  0
  186.7800  176.4130  142.2510 C   0  0  0  0  0  3  0  0  0  0  0  0
  189.5550  175.2570  147.2620 C   0  0  0  0  0  0  0  0  0  0  0  0
  191.4230  177.4690  146.9680 C   0  0  0  0  0  2  0  0  0  0  0  0
  190.8110  175.2900  147.9330 N   0  0  0  0  0  2  0  0  0  0  0  0
  188.1020  177.9120  143.8240 C   0  0  1  0  0  3  0  0  0  0  0  0
  190.3900  177.0500  144.7000 C   0  0  0  0  0  0  0  0  0  0  0  0
  188.9940  176.5540  146.7560 C   0  0  2  0  0  3  0  0  0  0  0  0
  187.7720  176.3710  145.8510 C   0  0  0  0  0  2  0  0  0  0  0  0
  187.4030  177.7030  145.1980 C   0  0  2  0  0  3  0  0  0  0  0  0
  190.1180  177.4210  146.1350 C   0  0  1  0  0  3  0  0  0  0  0  0
  191.4130  176.5860  148.2230 C   0  0  0  0  0  2  0  0  0  0  0  0
  188.9410  174.1660  147.1220 O   0  0  0  0  0  0  0  0  0  0  0  0
  191.4770  176.4950  144.3840 O   0  0  0  0  0  0  0  0  0  0  0  0
  189.3990  177.2420  143.6830 N   0  0  0  0  0  2  0  0  0  0  0  0
  185.6160  179.4020  145.6740 C   0  0  0  0  0  1  0  0  0  0  0  0
  185.1620  177.0330  146.1470 C   0  0  0  0  0  1  0  0  0  0  0  0
  185.8910  177.9820  145.2110 C   0  0  0  0  0  3  0  0  0  0  0  0
  1  5  1  6  0  0  0
  1  6  1  0  0  0  0
  1  3  1  0  0  0  0
  3  7  1  1  0  0  0
  3  2  1  0  0  0  0
  4  2  1  0  0  0  0
  4 25  1  1  0  0  0
  6  5  1  6  0  0  0
  6  4  1  0  0  0  0
  8 16  1  0  0  0  0
  9  7  1  1  0  0  0
  9 10  1  0  0  0  0
 10 18  1  0  0  0  0
 10 11  1  1  0  0  0
 11 13  2  0  0  0  0
 12 11  1  0  0  0  0
 12 14  2  0  0  0  0
 13 17  2  0  0  0  0
 15 23  1  6  0  0  0
 15  8  1  0  0  0  0
 15  9  1  0  0  0  0
 16 12  1  0  0  0  0
 18 21  1  6  0  0  0
 18 20  1  0  0  0  0
 19 22  1  0  0  0  0
 20 22  1  0  0  0  0
 21 19  1  0  0  0  0
 24 23  3  0  0  0  0
 27 26  2  0  0  0  0
 27 25  1  0  0  0  0
 28 30  1  0  0  0  0
 29 37  1  0  0  0  0
 30 37  1  0  0  0  0
 31 26  1  6  0  0  0
 31 35  1  0  0  0  0
 32 36  1  0  0  0  0
 33 34  1  6  0  0  0
 33 28  1  0  0  0  0
 35 43  1  6  0  0  0
 35 34  1  0  0  0  0
 36 33  1  0  0  0  0
 36 29  1  1  0  0  0
 38 28  2  0  0  0  0
 39 32  2  0  0  0  0
 40 31  1  0  0  0  0
 40 32  1  0  0  0  0
 43 41  1  0  0  0  0
 43 42  1  0  0  0  0
M  END
>  <MODEL>
9

>  <REMARK>
 VINA RESULT:      -6.5      2.301      4.978
  Name = 
  8 active torsions:
  status: ('A' for Active; 'I' for Inactive)
    1  A    between atoms: C_3  and  C_16
    2  A    between atoms: C_4  and  C_11
    3  A    between atoms: C_9  and  O_18
    4  A    between atoms: C_13  and  O_18
    5  A    between atoms: C_15  and  C_35
    6  A    between atoms: C_22  and  C_37
    7  A    between atoms: C_25  and  C_29
    8  A    between atoms: C_34  and  C_37
                            x       y       z     vdW  Elec       q    Type
                         _______ _______ _______ _____ _____    ______ ____

>  <TORSDO>
F 8

$$$$
