=
 OpenBabel11072408483D

 26 29  0  0  0  0  0  0  0  0999 V2000
  188.8530  176.5620  143.5110 C   0  0  0  0  0  0  0  0  0  0  0  0
  189.4690  173.2630  142.6900 C   0  0  0  0  0  2  0  0  0  0  0  0
  188.8560  172.3010  141.7240 C   0  0  0  0  0  2  0  0  0  0  0  0
  188.4810  175.2780  141.7370 C   0  0  0  0  0  0  0  0  0  0  0  0
  188.2620  174.9560  140.4550 C   0  0  0  0  0  2  0  0  0  0  0  0
  189.1020  172.6430  140.3300 N   0  0  0  0  0  0  0  0  0  0  0  0
  188.7790  173.7620  139.7590 C   0  0  0  0  0  3  0  0  0  0  0  0
  189.2040  174.5740  142.6970 C   0  0  0  0  0  0  0  0  0  0  0  0
  188.2260  176.5270  142.2770 C   0  0  0  0  0  0  0  0  0  0  0  0
  189.4710  175.3820  143.7580 N   0  0  0  0  0  0  0  0  0  0  0  0
  192.1860  175.4750  147.2790 C   0  0  0  0  0  3  0  0  0  0  0  0
  191.5470  175.0940  144.9230 C   0  0  0  0  0  3  0  0  0  0  0  0
  192.4310  174.6690  146.0490 C   0  0  0  0  0  2  0  0  0  0  0  0
  191.0120  175.4930  147.9070 C   0  0  0  0  0  3  0  0  0  0  0  0
  189.7940  174.8110  147.4320 C   0  0  0  0  0  3  0  0  0  0  0  0
  190.2090  175.0400  144.9510 C   0  0  0  0  0  0  0  0  0  0  0  0
  189.4520  174.6100  146.1530 C   0  0  0  0  0  3  0  0  0  0  0  0
  188.9480  177.7750  144.3820 C   0  0  0  0  0  2  0  0  0  0  0  0
  187.8770  177.7300  145.4550 C   0  0  0  0  0  1  0  0  0  0  0  0
  187.5620  177.6820  141.5880 C   0  0  0  0  0  2  0  0  0  0  0  0
  185.5160  178.3440  142.9060 C   0  0  0  0  0  2  0  0  0  0  0  0
  185.4070  178.0770  140.3840 C   0  0  0  0  0  2  0  0  0  0  0  0
  183.4240  177.8370  141.7720 O   0  0  0  0  0  0  0  0  0  0  0  0
  186.0470  177.5830  141.6840 C   0  0  0  0  0  3  0  0  0  0  0  0
  183.9100  178.3720  140.5660 C   0  0  0  0  0  2  0  0  0  0  0  0
  184.0040  178.6030  142.8000 C   0  0  0  0  0  2  0  0  0  0  0  0
  1 10  1  0  0  0  0
  1 18  1  0  0  0  0
  2  8  1  0  0  0  0
  3  2  1  0  0  0  0
  4  9  1  0  0  0  0
  4  8  2  0  0  0  0
  5  4  1  0  0  0  0
  6  3  1  0  0  0  0
  7  6  2  0  0  0  0
  7  5  1  0  0  0  0
  8 10  1  0  0  0  0
  9  1  2  0  0  0  0
 10 16  1  0  0  0  0
 11 14  2  0  0  0  0
 12 16  2  0  0  0  0
 12 13  1  0  0  0  0
 13 11  1  0  0  0  0
 15 14  1  0  0  0  0
 16 17  1  0  0  0  0
 17 15  2  0  0  0  0
 18 19  1  0  0  0  0
 20 24  1  0  0  0  0
 20  9  1  0  0  0  0
 22 25  1  0  0  0  0
 22 24  1  0  0  0  0
 23 26  1  0  0  0  0
 24 21  1  0  0  0  0
 25 23  1  0  0  0  0
 26 21  1  0  0  0  0
M  END
>  <MODEL>
1

>  <REMARK>
 VINA RESULT:      -7.3      0.000      0.000
  Name = 
  4 active torsions:
  status: ('A' for Active; 'I' for Inactive)
    1  A    between atoms: C_4  and  C_7
    2  A    between atoms: C_11  and  C_18
    3  A    between atoms: C_15  and  N_26
    4  A    between atoms: C_18  and  C_25
                            x       y       z     vdW  Elec       q    Type
                         _______ _______ _______ _____ _____    ______ ____

>  <TORSDO>
F 4

$$$$
=
 OpenBabel11072408483D

 26 29  0  0  0  0  0  0  0  0999 V2000
  189.1000  175.2820  145.7550 C   0  0  0  0  0  0  0  0  0  0  0  0
  187.4450  177.0190  143.2700 C   0  0  0  0  0  2  0  0  0  0  0  0
  187.7560  177.3410  141.8440 C   0  0  0  0  0  2  0  0  0  0  0  0
  189.1320  175.2790  143.5340 C   0  0  0  0  0  0  0  0  0  0  0  0
  189.3180  174.8170  142.2910 C   0  0  0  0  0  2  0  0  0  0  0  0
  187.7430  176.1760  140.9700 N   0  0  0  0  0  0  0  0  0  0  0  0
  188.4720  175.1130  141.1190 C   0  0  0  0  0  3  0  0  0  0  0  0
  188.1450  176.1440  144.0000 C   0  0  0  0  0  0  0  0  0  0  0  0
  189.7630  174.7660  144.6540 C   0  0  0  0  0  0  0  0  0  0  0  0
  188.0970  176.1020  145.3580 N   0  0  0  0  0  0  0  0  0  0  0  0
  185.7820  179.3190  147.3740 C   0  0  0  0  0  3  0  0  0  0  0  0
  187.7030  177.8160  146.9880 C   0  0  0  0  0  3  0  0  0  0  0  0
  186.9150  178.5790  148.0000 C   0  0  0  0  0  2  0  0  0  0  0  0
  184.7900  178.7090  146.7280 C   0  0  0  0  0  3  0  0  0  0  0  0
  184.7270  177.2590  146.4670 C   0  0  0  0  0  3  0  0  0  0  0  0
  187.2040  176.8350  146.2240 C   0  0  0  0  0  0  0  0  0  0  0  0
  185.7710  176.4490  146.2550 C   0  0  0  0  0  3  0  0  0  0  0  0
  189.3670  174.8830  147.1730 C   0  0  0  0  0  2  0  0  0  0  0  0
  190.5840  175.6190  147.7000 C   0  0  0  0  0  1  0  0  0  0  0  0
  190.8320  173.7140  144.6770 C   0  0  0  0  0  2  0  0  0  0  0  0
  193.1310  173.7940  145.7110 C   0  0  0  0  0  2  0  0  0  0  0  0
  192.8180  174.1140  143.2130 C   0  0  0  0  0  2  0  0  0  0  0  0
  194.7550  175.0160  144.3740 O   0  0  0  0  0  0  0  0  0  0  0  0
  192.2180  174.3360  144.6030 C   0  0  0  0  0  3  0  0  0  0  0  0
  194.3340  174.3600  143.2030 C   0  0  0  0  0  2  0  0  0  0  0  0
  194.6120  174.0830  145.4170 C   0  0  0  0  0  2  0  0  0  0  0  0
  1 18  1  0  0  0  0
  2  8  1  0  0  0  0
  3  2  1  0  0  0  0
  4  8  2  0  0  0  0
  4  9  1  0  0  0  0
  5  4  1  0  0  0  0
  6  7  2  0  0  0  0
  6  3  1  0  0  0  0
  7  5  1  0  0  0  0
  8 10  1  0  0  0  0
  9 20  1  0  0  0  0
  9  1  2  0  0  0  0
 10  1  1  0  0  0  0
 10 16  1  0  0  0  0
 11 13  1  0  0  0  0
 12 13  1  0  0  0  0
 14 11  2  0  0  0  0
 15 14  1  0  0  0  0
 16 17  1  0  0  0  0
 16 12  2  0  0  0  0
 17 15  2  0  0  0  0
 18 19  1  0  0  0  0
 22 24  1  0  0  0  0
 23 26  1  0  0  0  0
 24 20  1  0  0  0  0
 24 21  1  0  0  0  0
 25 22  1  0  0  0  0
 25 23  1  0  0  0  0
 26 21  1  0  0  0  0
M  END
>  <MODEL>
2

>  <REMARK>
 VINA RESULT:      -7.2      3.075      6.360
  Name = 
  4 active torsions:
  status: ('A' for Active; 'I' for Inactive)
    1  A    between atoms: C_4  and  C_7
    2  A    between atoms: C_11  and  C_18
    3  A    between atoms: C_15  and  N_26
    4  A    between atoms: C_18  and  C_25
                            x       y       z     vdW  Elec       q    Type
                         _______ _______ _______ _____ _____    ______ ____

>  <TORSDO>
F 4

$$$$
=
 OpenBabel11072408483D

 26 29  0  0  0  0  0  0  0  0999 V2000
  189.0270  175.9870  145.3720 C   0  0  0  0  0  0  0  0  0  0  0  0
  187.4130  176.1300  142.3210 C   0  0  0  0  0  2  0  0  0  0  0  0
  187.8550  175.9600  140.9030 C   0  0  0  0  0  2  0  0  0  0  0  0
  189.3970  175.1530  143.3480 C   0  0  0  0  0  0  0  0  0  0  0  0
  189.8730  174.3250  142.4090 C   0  0  0  0  0  2  0  0  0  0  0  0
  188.2460  174.5960  140.5770 N   0  0  0  0  0  0  0  0  0  0  0  0
  189.1700  173.9120  141.1780 C   0  0  0  0  0  3  0  0  0  0  0  0
  188.1770  175.8240  143.3760 C   0  0  0  0  0  0  0  0  0  0  0  0
  189.9510  175.2960  144.6080 C   0  0  0  0  0  0  0  0  0  0  0  0
  187.9340  176.2880  144.6300 N   0  0  0  0  0  0  0  0  0  0  0  0
  184.8840  178.3510  147.1240 C   0  0  0  0  0  3  0  0  0  0  0  0
  185.9500  176.4460  145.9680 C   0  0  0  0  0  3  0  0  0  0  0  0
  184.6650  177.0460  146.4360 C   0  0  0  0  0  2  0  0  0  0  0  0
  185.4180  179.4070  146.5140 C   0  0  0  0  0  3  0  0  0  0  0  0
  185.9440  179.4040  145.1370 C   0  0  0  0  0  3  0  0  0  0  0  0
  186.7740  177.0200  145.0810 C   0  0  0  0  0  0  0  0  0  0  0  0
  186.5230  178.3690  144.5160 C   0  0  0  0  0  3  0  0  0  0  0  0
  189.1590  176.2440  146.8410 C   0  0  0  0  0  2  0  0  0  0  0  0
  189.7010  177.6410  147.0780 C   0  0  0  0  0  1  0  0  0  0  0  0
  191.2180  174.6660  145.1060 C   0  0  0  0  0  2  0  0  0  0  0  0
  192.9530  175.8170  146.5300 C   0  0  0  0  0  2  0  0  0  0  0  0
  193.4260  175.2660  144.0980 C   0  0  0  0  0  2  0  0  0  0  0  0
  194.5940  177.0680  145.2410 O   0  0  0  0  0  0  0  0  0  0  0  0
  192.3610  175.6690  145.1220 C   0  0  0  0  0  3  0  0  0  0  0  0
  194.7550  175.9960  144.3450 C   0  0  0  0  0  2  0  0  0  0  0  0
  194.3350  176.4890  146.4970 C   0  0  0  0  0  2  0  0  0  0  0  0
  1 18  1  0  0  0  0
  2  8  1  0  0  0  0
  3  2  1  0  0  0  0
  4  8  2  0  0  0  0
  4  9  1  0  0  0  0
  5  4  1  0  0  0  0
  6  3  1  0  0  0  0
  6  7  2  0  0  0  0
  7  5  1  0  0  0  0
  8 10  1  0  0  0  0
  9 20  1  0  0  0  0
  9  1  2  0  0  0  0
 10 16  1  0  0  0  0
 10  1  1  0  0  0  0
 12 13  1  0  0  0  0
 13 11  1  0  0  0  0
 14 11  2  0  0  0  0
 15 14  1  0  0  0  0
 16 12  2  0  0  0  0
 17 16  1  0  0  0  0
 17 15  2  0  0  0  0
 18 19  1  0  0  0  0
 20 24  1  0  0  0  0
 22 25  1  0  0  0  0
 22 24  1  0  0  0  0
 23 26  1  0  0  0  0
 24 21  1  0  0  0  0
 25 23  1  0  0  0  0
 26 21  1  0  0  0  0
M  END
>  <MODEL>
3

>  <REMARK>
 VINA RESULT:      -7.2      3.027      6.274
  Name = 
  4 active torsions:
  status: ('A' for Active; 'I' for Inactive)
    1  A    between atoms: C_4  and  C_7
    2  A    between atoms: C_11  and  C_18
    3  A    between atoms: C_15  and  N_26
    4  A    between atoms: C_18  and  C_25
                            x       y       z     vdW  Elec       q    Type
                         _______ _______ _______ _____ _____    ______ ____

>  <TORSDO>
F 4

$$$$
=
 OpenBabel11072408483D

 26 29  0  0  0  0  0  0  0  0999 V2000
  189.8580  176.6820  144.1350 C   0  0  0  0  0  0  0  0  0  0  0  0
  190.1880  173.2870  143.5920 C   0  0  0  0  0  2  0  0  0  0  0  0
  189.2210  172.1760  143.3420 C   0  0  0  0  0  2  0  0  0  0  0  0
  188.6340  175.1120  143.1510 C   0  0  0  0  0  0  0  0  0  0  0  0
  187.7280  174.5730  142.3250 C   0  0  0  0  0  2  0  0  0  0  0  0
  188.5540  172.2670  142.0510 N   0  0  0  0  0  0  0  0  0  0  0  0
  187.8450  173.2730  141.6370 C   0  0  0  0  0  3  0  0  0  0  0  0
  189.8510  174.5810  143.5700 C   0  0  0  0  0  0  0  0  0  0  0  0
  188.6270  176.4380  143.5510 C   0  0  0  0  0  0  0  0  0  0  0  0
  190.6150  175.5580  144.1250 N   0  0  0  0  0  0  0  0  0  0  0  0
  194.8740  176.2320  145.2170 C   0  0  0  0  0  3  0  0  0  0  0  0
  192.9910  175.4400  143.8260 C   0  0  0  0  0  3  0  0  0  0  0  0
  194.4080  175.2070  144.2390 C   0  0  0  0  0  2  0  0  0  0  0  0
  194.3130  176.3950  146.4130 C   0  0  0  0  0  3  0  0  0  0  0  0
  193.1220  175.6680  146.8880 C   0  0  0  0  0  3  0  0  0  0  0  0
  191.9480  175.4250  144.6660 C   0  0  0  0  0  0  0  0  0  0  0  0
  192.1030  175.2420  146.1300 C   0  0  0  0  0  3  0  0  0  0  0  0
  190.3320  178.0280  144.5880 C   0  0  0  0  0  2  0  0  0  0  0  0
  191.1910  178.6660  143.5140 C   0  0  0  0  0  1  0  0  0  0  0  0
  187.5730  177.4600  143.2450 C   0  0  0  0  0  2  0  0  0  0  0  0
  185.9330  179.1070  144.2230 C   0  0  0  0  0  2  0  0  0  0  0  0
  186.2000  176.7910  145.2240 C   0  0  0  0  0  2  0  0  0  0  0  0
  185.3710  178.6560  146.5460 O   0  0  0  0  0  0  0  0  0  0  0  0
  186.9010  177.9530  144.5160 C   0  0  0  0  0  3  0  0  0  0  0  0
  185.1930  177.2880  146.2710 C   0  0  0  0  0  2  0  0  0  0  0  0
  184.9600  179.3420  145.3890 C   0  0  0  0  0  2  0  0  0  0  0  0
  1 18  1  0  0  0  0
  3  2  1  0  0  0  0
  4  9  1  0  0  0  0
  4  8  2  0  0  0  0
  5  4  1  0  0  0  0
  6  3  1  0  0  0  0
  7  6  2  0  0  0  0
  7  5  1  0  0  0  0
  8  2  1  0  0  0  0
  8 10  1  0  0  0  0
  9  1  2  0  0  0  0
 10  1  1  0  0  0  0
 10 16  1  0  0  0  0
 11 14  2  0  0  0  0
 12 13  1  0  0  0  0
 12 16  2  0  0  0  0
 13 11  1  0  0  0  0
 14 15  1  0  0  0  0
 16 17  1  0  0  0  0
 17 15  2  0  0  0  0
 19 18  1  0  0  0  0
 20  9  1  0  0  0  0
 20 24  1  0  0  0  0
 21 24  1  0  0  0  0
 21 26  1  0  0  0  0
 22 25  1  0  0  0  0
 24 22  1  0  0  0  0
 25 23  1  0  0  0  0
 26 23  1  0  0  0  0
M  END
>  <MODEL>
4

>  <REMARK>
 VINA RESULT:      -7.1      2.165      2.855
  Name = 
  4 active torsions:
  status: ('A' for Active; 'I' for Inactive)
    1  A    between atoms: C_4  and  C_7
    2  A    between atoms: C_11  and  C_18
    3  A    between atoms: C_15  and  N_26
    4  A    between atoms: C_18  and  C_25
                            x       y       z     vdW  Elec       q    Type
                         _______ _______ _______ _____ _____    ______ ____

>  <TORSDO>
F 4

$$$$
=
 OpenBabel11072408483D

 26 29  0  0  0  0  0  0  0  0999 V2000
  189.8980  176.9920  143.4320 C   0  0  0  0  0  0  0  0  0  0  0  0
  187.8370  174.6060  142.0190 C   0  0  0  0  0  2  0  0  0  0  0  0
  188.0160  173.5850  140.9440 C   0  0  0  0  0  2  0  0  0  0  0  0
  190.2060  175.0770  142.3510 C   0  0  0  0  0  0  0  0  0  0  0  0
  190.8170  173.9510  141.9580 C   0  0  0  0  0  2  0  0  0  0  0  0
  188.9260  172.5090  141.3110 N   0  0  0  0  0  0  0  0  0  0  0  0
  190.1620  172.6590  141.6780 C   0  0  0  0  0  3  0  0  0  0  0  0
  188.8470  175.2990  142.5570 C   0  0  0  0  0  0  0  0  0  0  0  0
  190.8670  176.1760  142.8720 C   0  0  0  0  0  0  0  0  0  0  0  0
  188.6690  176.4470  143.2630 N   0  0  0  0  0  0  0  0  0  0  0  0
  185.5030  178.5600  145.5630 C   0  0  0  0  0  3  0  0  0  0  0  0
  186.9050  176.6460  144.8750 C   0  0  0  0  0  3  0  0  0  0  0  0
  185.5730  177.0800  145.3930 C   0  0  0  0  0  2  0  0  0  0  0  0
  185.6390  179.4100  144.5480 C   0  0  0  0  0  3  0  0  0  0  0  0
  185.9670  179.0200  143.1640 C   0  0  0  0  0  3  0  0  0  0  0  0
  187.4170  177.0220  143.6960 C   0  0  0  0  0  0  0  0  0  0  0  0
  186.7300  177.9830  142.7970 C   0  0  0  0  0  3  0  0  0  0  0  0
  190.1840  178.2280  144.2260 C   0  0  0  0  0  2  0  0  0  0  0  0
  190.1350  177.9160  145.7100 C   0  0  0  0  0  1  0  0  0  0  0  0
  192.3510  176.3610  142.9790 C   0  0  0  0  0  2  0  0  0  0  0  0
  193.7020  174.5840  144.1540 C   0  0  0  0  0  2  0  0  0  0  0  0
  193.6680  176.9720  145.0130 C   0  0  0  0  0  2  0  0  0  0  0  0
  194.1660  175.1010  146.4860 O   0  0  0  0  0  0  0  0  0  0  0  0
  192.8720  175.8650  144.3190 C   0  0  0  0  0  3  0  0  0  0  0  0
  194.5350  176.4180  146.1540 C   0  0  0  0  0  2  0  0  0  0  0  0
  194.5600  174.3010  145.3980 C   0  0  0  0  0  2  0  0  0  0  0  0
  1 18  1  0  0  0  0
  2  8  1  0  0  0  0
  3  6  1  0  0  0  0
  3  2  1  0  0  0  0
  4  8  2  0  0  0  0
  4  9  1  0  0  0  0
  5  4  1  0  0  0  0
  6  7  2  0  0  0  0
  7  5  1  0  0  0  0
  8 10  1  0  0  0  0
  9 20  1  0  0  0  0
  9  1  2  0  0  0  0
 10  1  1  0  0  0  0
 10 16  1  0  0  0  0
 12 13  1  0  0  0  0
 13 11  1  0  0  0  0
 14 11  2  0  0  0  0
 15 14  1  0  0  0  0
 16 12  2  0  0  0  0
 17 15  2  0  0  0  0
 17 16  1  0  0  0  0
 18 19  1  0  0  0  0
 20 24  1  0  0  0  0
 21 24  1  0  0  0  0
 21 26  1  0  0  0  0
 22 25  1  0  0  0  0
 24 22  1  0  0  0  0
 25 23  1  0  0  0  0
 26 23  1  0  0  0  0
M  END
>  <MODEL>
5

>  <REMARK>
 VINA RESULT:      -6.5      3.100      6.256
  Name = 
  4 active torsions:
  status: ('A' for Active; 'I' for Inactive)
    1  A    between atoms: C_4  and  C_7
    2  A    between atoms: C_11  and  C_18
    3  A    between atoms: C_15  and  N_26
    4  A    between atoms: C_18  and  C_25
                            x       y       z     vdW  Elec       q    Type
                         _______ _______ _______ _____ _____    ______ ____

>  <TORSDO>
F 4

$$$$
=
 OpenBabel11072408483D

 26 29  0  0  0  0  0  0  0  0999 V2000
  188.5440  175.7980  143.4960 C   0  0  0  0  0  0  0  0  0  0  0  0
  189.5700  176.7470  146.6560 C   0  0  0  0  0  2  0  0  0  0  0  0
  190.6920  176.3330  147.5520 C   0  0  0  0  0  2  0  0  0  0  0  0
  190.4610  175.7490  144.6180 C   0  0  0  0  0  0  0  0  0  0  0  0
  191.7840  175.7180  144.8240 C   0  0  0  0  0  2  0  0  0  0  0  0
  192.0030  176.7300  147.0610 N   0  0  0  0  0  0  0  0  0  0  0  0
  192.5100  176.4040  145.9110 C   0  0  0  0  0  3  0  0  0  0  0  0
  189.4800  176.3910  145.3700 C   0  0  0  0  0  0  0  0  0  0  0  0
  189.8490  175.3380  143.4460 C   0  0  0  0  0  0  0  0  0  0  0  0
  188.3240  176.4620  144.6570 N   0  0  0  0  0  0  0  0  0  0  0  0
  185.0150  178.2260  147.0470 C   0  0  0  0  0  3  0  0  0  0  0  0
  186.3190  176.4250  145.9710 C   0  0  0  0  0  3  0  0  0  0  0  0
  184.9660  176.8810  146.4060 C   0  0  0  0  0  2  0  0  0  0  0  0
  185.4250  179.3170  146.4040 C   0  0  0  0  0  3  0  0  0  0  0  0
  185.9650  179.3290  145.0310 C   0  0  0  0  0  3  0  0  0  0  0  0
  187.0780  177.0630  145.0710 C   0  0  0  0  0  0  0  0  0  0  0  0
  186.6740  178.3510  144.4540 C   0  0  0  0  0  3  0  0  0  0  0  0
  187.5620  175.6950  142.3710 C   0  0  0  0  0  2  0  0  0  0  0  0
  187.8010  176.8060  141.3680 C   0  0  0  0  0  1  0  0  0  0  0  0
  190.5140  174.6880  142.2690 C   0  0  0  0  0  2  0  0  0  0  0  0
  190.2070  172.6240  140.8530 C   0  0  0  0  0  2  0  0  0  0  0  0
  191.4070  172.5000  143.0850 C   0  0  0  0  0  2  0  0  0  0  0  0
  190.3200  170.5500  142.1200 O   0  0  0  0  0  0  0  0  0  0  0  0
  190.2990  173.1820  142.2790 C   0  0  0  0  0  3  0  0  0  0  0  0
  191.4690  170.9920  142.8020 C   0  0  0  0  0  2  0  0  0  0  0  0
  190.4000  171.0990  140.8270 C   0  0  0  0  0  2  0  0  0  0  0  0
  1 10  1  0  0  0  0
  2  3  1  0  0  0  0
  4  5  1  0  0  0  0
  4  8  2  0  0  0  0
  5  7  1  0  0  0  0
  6  3  1  0  0  0  0
  7  6  2  0  0  0  0
  8  2  1  0  0  0  0
  9  1  2  0  0  0  0
  9  4  1  0  0  0  0
 10 16  1  0  0  0  0
 10  8  1  0  0  0  0
 12 13  1  0  0  0  0
 13 11  1  0  0  0  0
 14 11  2  0  0  0  0
 15 14  1  0  0  0  0
 16 12  2  0  0  0  0
 17 15  2  0  0  0  0
 17 16  1  0  0  0  0
 18  1  1  0  0  0  0
 19 18  1  0  0  0  0
 20 24  1  0  0  0  0
 20  9  1  0  0  0  0
 21 24  1  0  0  0  0
 23 25  1  0  0  0  0
 24 22  1  0  0  0  0
 25 22  1  0  0  0  0
 26 21  1  0  0  0  0
 26 23  1  0  0  0  0
M  END
>  <MODEL>
6

>  <REMARK>
 VINA RESULT:      -6.5      2.901      6.469
  Name = 
  4 active torsions:
  status: ('A' for Active; 'I' for Inactive)
    1  A    between atoms: C_4  and  C_7
    2  A    between atoms: C_11  and  C_18
    3  A    between atoms: C_15  and  N_26
    4  A    between atoms: C_18  and  C_25
                            x       y       z     vdW  Elec       q    Type
                         _______ _______ _______ _____ _____    ______ ____

>  <TORSDO>
F 4

$$$$
=
 OpenBabel11072408483D

 26 29  0  0  0  0  0  0  0  0999 V2000
  189.6540  175.8950  144.9390 C   0  0  0  0  0  0  0  0  0  0  0  0
  190.8440  174.3610  142.0820 C   0  0  0  0  0  2  0  0  0  0  0  0
  190.2270  173.4860  141.0390 C   0  0  0  0  0  2  0  0  0  0  0  0
  188.7510  175.1540  143.0500 C   0  0  0  0  0  0  0  0  0  0  0  0
  187.8700  175.0490  142.0470 C   0  0  0  0  0  2  0  0  0  0  0  0
  189.2550  174.1770  140.2040 N   0  0  0  0  0  0  0  0  0  0  0  0
  188.1930  174.7900  140.6300 C   0  0  0  0  0  3  0  0  0  0  0  0
  190.1370  175.0220  143.0050 C   0  0  0  0  0  0  0  0  0  0  0  0
  188.4470  175.6710  144.2980 C   0  0  0  0  0  0  0  0  0  0  0  0
  190.6860  175.5250  144.1430 N   0  0  0  0  0  0  0  0  0  0  0  0
  194.6510  176.7980  145.7030 C   0  0  0  0  0  3  0  0  0  0  0  0
  192.8030  176.6480  144.0700 C   0  0  0  0  0  3  0  0  0  0  0  0
  194.2770  176.7930  144.2590 C   0  0  0  0  0  2  0  0  0  0  0  0
  194.4190  175.7670  146.5130 C   0  0  0  0  0  3  0  0  0  0  0  0
  193.6920  174.5440  146.1260 C   0  0  0  0  0  3  0  0  0  0  0  0
  192.0880  175.5920  144.4810 C   0  0  0  0  0  0  0  0  0  0  0  0
  192.6880  174.4690  145.2420 C   0  0  0  0  0  3  0  0  0  0  0  0
  189.7980  176.5760  146.2640 C   0  0  0  0  0  2  0  0  0  0  0  0
  189.8330  175.5460  147.3770 C   0  0  0  0  0  1  0  0  0  0  0  0
  187.0920  176.0840  144.7900 C   0  0  0  0  0  2  0  0  0  0  0  0
  185.5550  177.3260  143.2240 C   0  0  0  0  0  2  0  0  0  0  0  0
  186.3410  178.3910  145.3890 C   0  0  0  0  0  2  0  0  0  0  0  0
  185.6410  179.7420  143.4910 O   0  0  0  0  0  0  0  0  0  0  0  0
  186.6980  177.4450  144.2390 C   0  0  0  0  0  3  0  0  0  0  0  0
  185.5690  179.6230  144.8910 C   0  0  0  0  0  2  0  0  0  0  0  0
  184.8780  178.6830  142.9700 C   0  0  0  0  0  2  0  0  0  0  0  0
  1 18  1  0  0  0  0
  2  8  1  0  0  0  0
  3  2  1  0  0  0  0
  4  9  1  0  0  0  0
  5  4  1  0  0  0  0
  6  7  2  0  0  0  0
  6  3  1  0  0  0  0
  7  5  1  0  0  0  0
  8  4  2  0  0  0  0
  8 10  1  0  0  0  0
  9 20  1  0  0  0  0
  9  1  2  0  0  0  0
 10 16  1  0  0  0  0
 10  1  1  0  0  0  0
 11 14  2  0  0  0  0
 12 13  1  0  0  0  0
 12 16  2  0  0  0  0
 13 11  1  0  0  0  0
 15 14  1  0  0  0  0
 16 17  1  0  0  0  0
 17 15  2  0  0  0  0
 18 19  1  0  0  0  0
 21 24  1  0  0  0  0
 23 25  1  0  0  0  0
 24 20  1  0  0  0  0
 24 22  1  0  0  0  0
 25 22  1  0  0  0  0
 26 21  1  0  0  0  0
 26 23  1  0  0  0  0
M  END
>  <MODEL>
7

>  <REMARK>
 VINA RESULT:      -6.5      1.775      2.771
  Name = 
  4 active torsions:
  status: ('A' for Active; 'I' for Inactive)
    1  A    between atoms: C_4  and  C_7
    2  A    between atoms: C_11  and  C_18
    3  A    between atoms: C_15  and  N_26
    4  A    between atoms: C_18  and  C_25
                            x       y       z     vdW  Elec       q    Type
                         _______ _______ _______ _____ _____    ______ ____

>  <TORSDO>
F 4

$$$$
=
 OpenBabel11072408483D

 26 29  0  0  0  0  0  0  0  0999 V2000
  188.3350  176.1860  143.1580 C   0  0  0  0  0  0  0  0  0  0  0  0
  191.2520  174.9530  144.5380 C   0  0  0  0  0  2  0  0  0  0  0  0
  192.3460  175.5520  145.3620 C   0  0  0  0  0  2  0  0  0  0  0  0
  189.6450  176.7570  144.8580 C   0  0  0  0  0  0  0  0  0  0  0  0
  190.0020  177.3050  146.0270 C   0  0  0  0  0  2  0  0  0  0  0  0
  191.9240  175.9200  146.7060 N   0  0  0  0  0  0  0  0  0  0  0  0
  190.9580  176.7370  146.9970 C   0  0  0  0  0  3  0  0  0  0  0  0
  190.0950  175.5720  144.2820 C   0  0  0  0  0  0  0  0  0  0  0  0
  188.5510  177.1640  144.1130 C   0  0  0  0  0  0  0  0  0  0  0  0
  189.2600  175.2020  143.2750 N   0  0  0  0  0  0  0  0  0  0  0  0
  190.7640  171.9550  140.6340 C   0  0  0  0  0  3  0  0  0  0  0  0
  189.8090  174.1670  141.1830 C   0  0  0  0  0  3  0  0  0  0  0  0
  189.8670  173.0590  140.1840 C   0  0  0  0  0  2  0  0  0  0  0  0
  190.5410  171.2500  141.7420 C   0  0  0  0  0  3  0  0  0  0  0  0
  189.4560  171.5190  142.7030 C   0  0  0  0  0  3  0  0  0  0  0  0
  189.3650  174.0290  142.4400 C   0  0  0  0  0  0  0  0  0  0  0  0
  188.9440  172.7210  142.9990 C   0  0  0  0  0  3  0  0  0  0  0  0
  187.1680  176.1540  142.2220 C   0  0  0  0  0  2  0  0  0  0  0  0
  187.4360  177.0470  141.0250 C   0  0  0  0  0  1  0  0  0  0  0  0
  187.6590  178.3360  144.3990 C   0  0  0  0  0  2  0  0  0  0  0  0
  186.6500  177.9300  146.6750 C   0  0  0  0  0  2  0  0  0  0  0  0
  185.2260  178.7820  144.7560 C   0  0  0  0  0  2  0  0  0  0  0  0
  184.2460  177.5680  146.6220 O   0  0  0  0  0  0  0  0  0  0  0  0
  186.4140  177.9060  145.1600 C   0  0  0  0  0  3  0  0  0  0  0  0
  184.0670  178.6640  145.7580 C   0  0  0  0  0  2  0  0  0  0  0  0
  185.3270  177.9020  147.4570 C   0  0  0  0  0  2  0  0  0  0  0  0
  1 10  1  0  0  0  0
  1  9  2  0  0  0  0
  2  3  1  0  0  0  0
  3  6  1  0  0  0  0
  4  5  1  0  0  0  0
  5  7  1  0  0  0  0
  6  7  2  0  0  0  0
  8  2  1  0  0  0  0
  8  4  2  0  0  0  0
  9 20  1  0  0  0  0
  9  4  1  0  0  0  0
 10  8  1  0  0  0  0
 11 14  2  0  0  0  0
 12 16  2  0  0  0  0
 13 11  1  0  0  0  0
 13 12  1  0  0  0  0
 14 15  1  0  0  0  0
 15 17  2  0  0  0  0
 16 17  1  0  0  0  0
 16 10  1  0  0  0  0
 18  1  1  0  0  0  0
 19 18  1  0  0  0  0
 20 24  1  0  0  0  0
 21 26  1  0  0  0  0
 22 24  1  0  0  0  0
 22 25  1  0  0  0  0
 23 26  1  0  0  0  0
 24 21  1  0  0  0  0
 25 23  1  0  0  0  0
M  END
>  <MODEL>
8

>  <REMARK>
 VINA RESULT:      -6.5      2.007      4.907
  Name = 
  4 active torsions:
  status: ('A' for Active; 'I' for Inactive)
    1  A    between atoms: C_4  and  C_7
    2  A    between atoms: C_11  and  C_18
    3  A    between atoms: C_15  and  N_26
    4  A    between atoms: C_18  and  C_25
                            x       y       z     vdW  Elec       q    Type
                         _______ _______ _______ _____ _____    ______ ____

>  <TORSDO>
F 4

$$$$
=
 OpenBabel11072408483D

 26 29  0  0  0  0  0  0  0  0999 V2000
  190.7050  176.0690  144.7410 C   0  0  0  0  0  0  0  0  0  0  0  0
  190.4460  173.7250  142.2160 C   0  0  0  0  0  2  0  0  0  0  0  0
  189.3060  173.1780  141.4200 C   0  0  0  0  0  2  0  0  0  0  0  0
  189.2590  175.6600  143.1060 C   0  0  0  0  0  0  0  0  0  0  0  0
  188.3030  175.8990  142.1980 C   0  0  0  0  0  2  0  0  0  0  0  0
  188.7150  174.1500  140.5110 N   0  0  0  0  0  0  0  0  0  0  0  0
  188.2120  175.2960  140.8540 C   0  0  0  0  0  3  0  0  0  0  0  0
  190.3450  174.7940  143.0150 C   0  0  0  0  0  0  0  0  0  0  0  0
  189.4730  176.4400  144.2290 C   0  0  0  0  0  0  0  0  0  0  0  0
  191.2500  175.0840  143.9870 N   0  0  0  0  0  0  0  0  0  0  0  0
  194.5160  172.0850  144.3270 C   0  0  0  0  0  3  0  0  0  0  0  0
  192.5610  173.3960  145.0750 C   0  0  0  0  0  3  0  0  0  0  0  0
  193.8160  172.7010  145.4900 C   0  0  0  0  0  2  0  0  0  0  0  0
  194.9810  172.7980  143.3040 C   0  0  0  0  0  3  0  0  0  0  0  0
  194.7870  174.2500  143.1370 C   0  0  0  0  0  3  0  0  0  0  0  0
  192.5160  174.4310  144.2250 C   0  0  0  0  0  0  0  0  0  0  0  0
  193.7240  174.9560  143.5420 C   0  0  0  0  0  3  0  0  0  0  0  0
  191.3940  176.7540  145.8800 C   0  0  0  0  0  2  0  0  0  0  0  0
  191.0180  176.0890  147.1900 C   0  0  0  0  0  1  0  0  0  0  0  0
  188.6300  177.5900  144.6950 C   0  0  0  0  0  2  0  0  0  0  0  0
  187.4190  177.1170  146.8560 C   0  0  0  0  0  2  0  0  0  0  0  0
  186.1580  177.9350  144.8120 C   0  0  0  0  0  2  0  0  0  0  0  0
  185.0480  176.6610  146.5610 O   0  0  0  0  0  0  0  0  0  0  0  0
  187.3350  177.1020  145.3240 C   0  0  0  0  0  3  0  0  0  0  0  0
  184.9110  177.7590  145.6930 C   0  0  0  0  0  2  0  0  0  0  0  0
  186.0270  177.0280  147.5020 C   0  0  0  0  0  2  0  0  0  0  0  0
  1 18  1  0  0  0  0
  2  8  1  0  0  0  0
  3  2  1  0  0  0  0
  4  9  1  0  0  0  0
  5  4  1  0  0  0  0
  6  7  2  0  0  0  0
  6  3  1  0  0  0  0
  7  5  1  0  0  0  0
  8  4  2  0  0  0  0
  8 10  1  0  0  0  0
  9 20  1  0  0  0  0
  9  1  2  0  0  0  0
 10 16  1  0  0  0  0
 10  1  1  0  0  0  0
 11 13  1  0  0  0  0
 12 13  1  0  0  0  0
 14 11  2  0  0  0  0
 15 14  1  0  0  0  0
 15 17  2  0  0  0  0
 16 12  2  0  0  0  0
 17 16  1  0  0  0  0
 18 19  1  0  0  0  0
 20 24  1  0  0  0  0
 21 26  1  0  0  0  0
 22 24  1  0  0  0  0
 22 25  1  0  0  0  0
 23 26  1  0  0  0  0
 24 21  1  0  0  0  0
 25 23  1  0  0  0  0
M  END
>  <MODEL>
9

>  <REMARK>
 VINA RESULT:      -6.4      2.251      3.724
  Name = 
  4 active torsions:
  status: ('A' for Active; 'I' for Inactive)
    1  A    between atoms: C_4  and  C_7
    2  A    between atoms: C_11  and  C_18
    3  A    between atoms: C_15  and  N_26
    4  A    between atoms: C_18  and  C_25
                            x       y       z     vdW  Elec       q    Type
                         _______ _______ _______ _____ _____    ______ ____

>  <TORSDO>
F 4

$$$$
