=
 OpenBabel11062418573D

 33 35  0  0  1  0  0  0  0  0999 V2000
  187.3470  177.4120  146.5320 C   0  0  0  0  0  0  0  0  0  0  0  0
  187.8680  176.3710  145.7000 N   0  0  0  0  0  2  0  0  0  0  0  0
  188.0560  177.8860  147.4620 O   0  0  0  0  0  0  0  0  0  0  0  0
  185.9650  177.9670  146.2810 C   0  0  2  0  0  0  0  0  0  0  0  0
  185.6650  178.9290  147.2490 O   0  0  0  0  0  1  0  0  0  0  0  0
  184.9340  176.8540  146.4140 C   0  0  0  0  0  1  0  0  0  0  0  0
  185.5300  180.0960  144.8890 C   0  0  0  0  0  1  0  0  0  0  0  0
  185.8400  178.6000  144.8780 C   0  0  2  0  0  3  0  0  0  0  0  0
  184.9880  177.7950  143.8710 C   0  0  2  0  0  3  0  0  0  0  0  0
  186.4380  175.8810  143.0810 C   0  0  0  0  0  2  0  0  0  0  0  0
  186.9940  177.6100  139.9920 O   0  0  0  0  0  1  0  0  0  0  0  0
  187.2060  175.3120  141.8940 C   0  0  0  0  0  2  0  0  0  0  0  0
  188.3230  176.2710  141.4820 C   0  0  0  0  0  2  0  0  0  0  0  0
  185.8230  177.2320  142.7110 C   0  0  2  0  0  3  0  0  0  0  0  0
  186.9440  178.2040  142.3200 C   0  0  0  0  0  2  0  0  0  0  0  0
  187.7680  177.6580  141.1530 C   0  0  2  0  0  3  0  0  0  0  0  0
  183.7420  178.5480  143.3900 C   0  0  0  0  0  2  0  0  0  0  0  0
  183.3720  178.1470  142.1040 O   0  0  0  0  0  1  0  0  0  0  0  0
  189.2300  175.8820  145.8400 C   0  0  0  0  0  2  0  0  0  0  0  0
  191.6010  176.3680  142.8110 C   0  0  0  0  0  2  0  0  0  0  0  0
  190.0950  176.4740  144.7740 C   0  0  0  0  0  0  0  0  0  0  0  0
  190.8680  175.7140  143.9600 C   0  0  0  0  0  0  0  0  0  0  0  0
  191.9710  177.7450  143.1260 N   0  0  0  0  0  2  0  0  0  0  0  0
  190.7400  178.4770  143.3920 C   0  0  0  0  0  2  0  0  0  0  0  0
  190.1270  177.9800  144.6970 C   0  0  0  0  0  2  0  0  0  0  0  0
  192.0990  173.5830  144.4690 C   0  0  0  0  0  3  0  0  0  0  0  0
  189.8290  173.4670  143.6390 C   0  0  0  0  0  3  0  0  0  0  0  0
  189.8880  172.0730  143.6700 C   0  0  0  0  0  3  0  0  0  0  0  0
  192.1670  172.1860  144.4970 C   0  0  0  0  0  0  0  0  0  0  0  0
  191.0530  171.4330  144.0990 C   0  0  0  0  0  3  0  0  0  0  0  0
  190.9290  174.2360  144.0510 C   0  0  0  0  0  0  0  0  0  0  0  0
  194.6080  172.2420  144.8970 C   0  0  0  0  0  1  0  0  0  0  0  0
  193.3530  171.5750  144.9140 O   0  0  0  0  0  0  0  0  0  0  0  0
  1  3  2  0  0  0  0
  2 19  1  0  0  0  0
  2  1  1  0  0  0  0
  4  6  1  1  0  0  0
  4  1  1  0  0  0  0
  4  5  1  0  0  0  0
  8  7  1  1  0  0  0
  8  4  1  0  0  0  0
  9 17  1  6  0  0  0
  9  8  1  0  0  0  0
 12 10  1  0  0  0  0
 13 12  1  0  0  0  0
 14 10  1  0  0  0  0
 14  9  1  1  0  0  0
 15 14  1  0  0  0  0
 16 11  1  6  0  0  0
 16 13  1  0  0  0  0
 16 15  1  0  0  0  0
 18 17  1  0  0  0  0
 20 23  1  0  0  0  0
 20 22  1  0  0  0  0
 21 19  1  0  0  0  0
 22 31  1  0  0  0  0
 22 21  2  0  0  0  0
 23 24  1  0  0  0  0
 24 25  1  0  0  0  0
 25 21  1  0  0  0  0
 26 29  1  0  0  0  0
 27 28  2  0  0  0  0
 27 31  1  0  0  0  0
 28 30  1  0  0  0  0
 29 33  1  0  0  0  0
 30 29  2  0  0  0  0
 31 26  2  0  0  0  0
 32 33  1  0  0  0  0
M  END
>  <MODEL>
1

>  <REMARK>
 VINA RESULT:      -6.8      0.000      0.000
  Name = 
  9 active torsions:
  status: ('A' for Active; 'I' for Inactive)
    1  A    between atoms: C_1  and  C_21
    2  A    between atoms: C_5  and  N_7
    3  A    between atoms: C_5  and  C_14
    4  A    between atoms: C_15  and  C_27
    5  A    between atoms: C_16  and  C_33
    6  A    between atoms: C_20  and  C_27
    7  A    between atoms: C_21  and  C_25
    8  A    between atoms: C_23  and  O_24
    9  A    between atoms: C_25  and  C_27
                            x       y       z     vdW  Elec       q    Type
                         _______ _______ _______ _____ _____    ______ ____

>  <TORSDO>
F 9

$$$$
=
 OpenBabel11062418573D

 33 35  0  0  1  0  0  0  0  0999 V2000
  186.7500  177.9830  143.3590 C   0  0  0  0  0  0  0  0  0  0  0  0
  187.5580  176.8020  143.3870 N   0  0  0  0  0  2  0  0  0  0  0  0
  186.8970  178.8220  142.4270 O   0  0  0  0  0  0  0  0  0  0  0  0
  185.7010  178.2130  144.4210 C   0  0  2  0  0  0  0  0  0  0  0  0
  184.4420  177.8850  143.9120 O   0  0  0  0  0  1  0  0  0  0  0  0
  185.6670  179.6880  144.7970 C   0  0  0  0  0  1  0  0  0  0  0  0
  184.7130  176.7980  146.3400 C   0  0  0  0  0  1  0  0  0  0  0  0
  185.9690  177.3790  145.6920 C   0  0  2  0  0  3  0  0  0  0  0  0
  186.9500  178.0190  146.7000 C   0  0  2  0  0  3  0  0  0  0  0  0
  189.4530  177.7220  146.8930 C   0  0  0  0  0  2  0  0  0  0  0  0
  188.9410  174.3560  148.0120 O   0  0  0  0  0  1  0  0  0  0  0  0
  190.5600  176.7840  147.3600 C   0  0  0  0  0  2  0  0  0  0  0  0
  190.5080  175.4750  146.5730 C   0  0  0  0  0  2  0  0  0  0  0  0
  188.0860  177.0670  147.1030 C   0  0  2  0  0  3  0  0  0  0  0  0
  188.0230  175.7650  146.2950 C   0  0  0  0  0  2  0  0  0  0  0  0
  189.1400  174.8040  146.7040 C   0  0  2  0  0  3  0  0  0  0  0  0
  186.2510  178.6500  147.9100 C   0  0  0  0  0  2  0  0  0  0  0  0
  187.0660  179.6040  148.5250 O   0  0  0  0  0  1  0  0  0  0  0  0
  188.5040  176.4910  142.3290 C   0  0  0  0  0  2  0  0  0  0  0  0
  192.2230  175.9390  143.2790 C   0  0  0  0  0  2  0  0  0  0  0  0
  189.9020  176.6760  142.8250 C   0  0  0  0  0  0  0  0  0  0  0  0
  190.7860  175.6510  142.9090 C   0  0  0  0  0  0  0  0  0  0  0  0
  192.3260  177.0930  144.1680 N   0  0  0  0  0  2  0  0  0  0  0  0
  191.7710  178.2390  143.4610 C   0  0  0  0  0  2  0  0  0  0  0  0
  190.2640  178.0580  143.3080 C   0  0  0  0  0  2  0  0  0  0  0  0
  190.6480  173.8080  141.2060 C   0  0  0  0  0  3  0  0  0  0  0  0
  189.8520  173.4010  143.4540 C   0  0  0  0  0  3  0  0  0  0  0  0
  189.4830  172.1050  143.0890 C   0  0  0  0  0  3  0  0  0  0  0  0
  190.2760  172.5120  140.8320 C   0  0  0  0  0  0  0  0  0  0  0  0
  189.6950  171.6600  141.7830 C   0  0  0  0  0  3  0  0  0  0  0  0
  190.4500  174.2610  142.5200 C   0  0  0  0  0  0  0  0  0  0  0  0
  189.4200  171.7630  138.6350 C   0  0  0  0  0  1  0  0  0  0  0  0
  190.4850  172.1030  139.5120 O   0  0  0  0  0  0  0  0  0  0  0  0
  1  2  1  0  0  0  0
  1  4  1  0  0  0  0
  3  1  2  0  0  0  0
  4  6  1  1  0  0  0
  4  8  1  0  0  0  0
  5  4  1  0  0  0  0
  8  7  1  1  0  0  0
  8  9  1  0  0  0  0
  9 17  1  1  0  0  0
 10 14  1  0  0  0  0
 10 12  1  0  0  0  0
 13 16  1  0  0  0  0
 13 12  1  0  0  0  0
 14  9  1  6  0  0  0
 15 16  1  0  0  0  0
 15 14  1  0  0  0  0
 16 11  1  1  0  0  0
 17 18  1  0  0  0  0
 19 21  1  0  0  0  0
 19  2  1  0  0  0  0
 20 23  1  0  0  0  0
 21 22  2  0  0  0  0
 21 25  1  0  0  0  0
 22 20  1  0  0  0  0
 24 23  1  0  0  0  0
 25 24  1  0  0  0  0
 26 31  1  0  0  0  0
 28 27  1  0  0  0  0
 29 26  2  0  0  0  0
 29 30  1  0  0  0  0
 30 28  2  0  0  0  0
 31 22  1  0  0  0  0
 31 27  2  0  0  0  0
 32 33  1  0  0  0  0
 33 29  1  0  0  0  0
M  END
>  <MODEL>
2

>  <REMARK>
 VINA RESULT:      -6.8      2.143      4.336
  Name = 
  9 active torsions:
  status: ('A' for Active; 'I' for Inactive)
    1  A    between atoms: C_1  and  C_21
    2  A    between atoms: C_5  and  N_7
    3  A    between atoms: C_5  and  C_14
    4  A    between atoms: C_15  and  C_27
    5  A    between atoms: C_16  and  C_33
    6  A    between atoms: C_20  and  C_27
    7  A    between atoms: C_21  and  C_25
    8  A    between atoms: C_23  and  O_24
    9  A    between atoms: C_25  and  C_27
                            x       y       z     vdW  Elec       q    Type
                         _______ _______ _______ _____ _____    ______ ____

>  <TORSDO>
F 9

$$$$
=
 OpenBabel11062418573D

 33 35  0  0  1  0  0  0  0  0999 V2000
  189.5310  174.5310  142.6130 C   0  0  0  0  0  0  0  0  0  0  0  0
  189.5800  173.7820  143.8320 N   0  0  0  0  0  2  0  0  0  0  0  0
  190.5870  175.0390  142.1470 O   0  0  0  0  0  0  0  0  0  0  0  0
  188.2260  174.6850  141.8670 C   0  0  2  0  0  0  0  0  0  0  0  0
  187.3690  173.6340  142.2030 O   0  0  0  0  0  1  0  0  0  0  0  0
  188.4800  174.6030  140.3690 C   0  0  0  0  0  1  0  0  0  0  0  0
  187.4660  176.9950  141.0020 C   0  0  0  0  0  1  0  0  0  0  0  0
  187.5320  176.0280  142.1840 C   0  0  2  0  0  3  0  0  0  0  0  0
  187.9690  176.6930  143.5090 C   0  0  2  0  0  3  0  0  0  0  0  0
  186.4410  178.6330  144.0500 C   0  0  0  0  0  2  0  0  0  0  0  0
  184.7870  176.6120  146.5040 O   0  0  0  0  0  1  0  0  0  0  0  0
  185.2140  179.0640  144.8450 C   0  0  0  0  0  2  0  0  0  0  0  0
  185.4770  178.9090  146.3420 C   0  0  0  0  0  2  0  0  0  0  0  0
  186.7750  177.1700  144.3490 C   0  0  2  0  0  3  0  0  0  0  0  0
  187.0630  177.0170  145.8480 C   0  0  0  0  0  2  0  0  0  0  0  0
  185.8710  177.4720  146.6910 C   0  0  2  0  0  3  0  0  0  0  0  0
  189.0310  177.7830  143.3200 C   0  0  0  0  0  2  0  0  0  0  0  0
  190.0680  177.6450  144.2450 O   0  0  0  0  0  1  0  0  0  0  0  0
  190.8310  173.5200  144.5250 C   0  0  0  0  0  2  0  0  0  0  0  0
  192.2070  176.1870  146.9800 C   0  0  0  0  0  2  0  0  0  0  0  0
  190.9930  174.4780  145.6610 C   0  0  0  0  0  0  0  0  0  0  0  0
  192.1600  175.1240  145.9060 C   0  0  0  0  0  0  0  0  0  0  0  0
  191.2680  175.9000  148.0600 N   0  0  0  0  0  2  0  0  0  0  0  0
  189.9330  175.8610  147.4770 C   0  0  0  0  0  2  0  0  0  0  0  0
  189.8080  174.6350  146.5790 C   0  0  0  0  0  2  0  0  0  0  0  0
  193.5910  175.7180  143.9280 C   0  0  0  0  0  3  0  0  0  0  0  0
  194.2890  173.9250  145.3950 C   0  0  0  0  0  3  0  0  0  0  0  0
  195.4120  173.7060  144.5950 C   0  0  0  0  0  3  0  0  0  0  0  0
  194.7120  175.5000  143.1190 C   0  0  0  0  0  0  0  0  0  0  0  0
  195.6250  174.4920  143.4610 C   0  0  0  0  0  3  0  0  0  0  0  0
  193.3750  174.9410  145.0770 C   0  0  0  0  0  0  0  0  0  0  0  0
  196.1670  176.7000  141.5170 C   0  0  0  0  0  1  0  0  0  0  0  0
  194.8870  176.2920  141.9790 O   0  0  0  0  0  0  0  0  0  0  0  0
  1  2  1  0  0  0  0
  2 19  1  0  0  0  0
  3  1  2  0  0  0  0
  4  6  1  6  0  0  0
  4  8  1  0  0  0  0
  4  5  1  0  0  0  0
  4  1  1  0  0  0  0
  8  7  1  6  0  0  0
  8  9  1  0  0  0  0
  9 17  1  6  0  0  0
 10 14  1  0  0  0  0
 10 12  1  0  0  0  0
 12 13  1  0  0  0  0
 13 16  1  0  0  0  0
 14  9  1  6  0  0  0
 14 15  1  0  0  0  0
 15 16  1  0  0  0  0
 16 11  1  6  0  0  0
 17 18  1  0  0  0  0
 19 21  1  0  0  0  0
 20 23  1  0  0  0  0
 21 22  2  0  0  0  0
 21 25  1  0  0  0  0
 22 20  1  0  0  0  0
 24 23  1  0  0  0  0
 25 24  1  0  0  0  0
 26 31  1  0  0  0  0
 28 27  1  0  0  0  0
 29 30  1  0  0  0  0
 29 26  2  0  0  0  0
 30 28  2  0  0  0  0
 31 27  2  0  0  0  0
 31 22  1  0  0  0  0
 32 33  1  0  0  0  0
 33 29  1  0  0  0  0
M  END
>  <MODEL>
3

>  <REMARK>
 VINA RESULT:      -6.7      2.651      5.024
  Name = 
  9 active torsions:
  status: ('A' for Active; 'I' for Inactive)
    1  A    between atoms: C_1  and  C_21
    2  A    between atoms: C_5  and  N_7
    3  A    between atoms: C_5  and  C_14
    4  A    between atoms: C_15  and  C_27
    5  A    between atoms: C_16  and  C_33
    6  A    between atoms: C_20  and  C_27
    7  A    between atoms: C_21  and  C_25
    8  A    between atoms: C_23  and  O_24
    9  A    between atoms: C_25  and  C_27
                            x       y       z     vdW  Elec       q    Type
                         _______ _______ _______ _____ _____    ______ ____

>  <TORSDO>
F 9

$$$$
=
 OpenBabel11062418573D

 33 35  0  0  1  0  0  0  0  0999 V2000
  190.0590  175.8210  144.2740 C   0  0  0  0  0  0  0  0  0  0  0  0
  189.0150  176.6640  144.7720 N   0  0  0  0  0  2  0  0  0  0  0  0
  189.7690  174.7330  143.7050 O   0  0  0  0  0  0  0  0  0  0  0  0
  191.5040  176.2440  144.3980 C   0  0  2  0  0  0  0  0  0  0  0  0
  191.5670  177.6150  144.6600 O   0  0  0  0  0  1  0  0  0  0  0  0
  192.2240  176.0010  143.0790 C   0  0  0  0  0  1  0  0  0  0  0  0
  191.6140  175.6350  146.9040 C   0  0  0  0  0  1  0  0  0  0  0  0
  192.2390  175.4770  145.5180 C   0  0  2  0  0  3  0  0  0  0  0  0
  193.7770  175.6230  145.5100 C   0  0  2  0  0  3  0  0  0  0  0  0
  196.0130  174.4770  145.7920 C   0  0  0  0  0  2  0  0  0  0  0  0
  194.3470  171.3050  145.8780 O   0  0  0  0  0  1  0  0  0  0  0  0
  196.7000  173.1420  146.0560 C   0  0  0  0  0  2  0  0  0  0  0  0
  196.3860  172.1580  144.9310 C   0  0  0  0  0  2  0  0  0  0  0  0
  194.4970  174.2810  145.7090 C   0  0  2  0  0  3  0  0  0  0  0  0
  194.1780  173.3110  144.5650 C   0  0  0  0  0  2  0  0  0  0  0  0
  194.8770  171.9660  144.7670 C   0  0  2  0  0  3  0  0  0  0  0  0
  194.2900  176.7150  146.4570 C   0  0  0  0  0  2  0  0  0  0  0  0
  194.8150  177.7960  145.7470 O   0  0  0  0  0  1  0  0  0  0  0  0
  187.6100  176.3450  144.5790 C   0  0  0  0  0  2  0  0  0  0  0  0
  184.9240  178.8820  145.7540 C   0  0  0  0  0  2  0  0  0  0  0  0
  186.7630  177.2610  145.4020 C   0  0  0  0  0  0  0  0  0  0  0  0
  185.8450  178.0940  144.8520 C   0  0  0  0  0  0  0  0  0  0  0  0
  185.5670  179.2090  147.0240 N   0  0  0  0  0  2  0  0  0  0  0  0
  185.9180  177.9520  147.6710 C   0  0  0  0  0  2  0  0  0  0  0  0
  187.0340  177.2720  146.8860 C   0  0  0  0  0  2  0  0  0  0  0  0
  184.3000  178.0660  142.8700 C   0  0  0  0  0  3  0  0  0  0  0  0
  186.6830  178.2800  142.5080 C   0  0  0  0  0  3  0  0  0  0  0  0
  186.4710  178.3050  141.1280 C   0  0  0  0  0  3  0  0  0  0  0  0
  184.0810  178.0860  141.4890 C   0  0  0  0  0  0  0  0  0  0  0  0
  185.1750  178.2100  140.6180 C   0  0  0  0  0  3  0  0  0  0  0  0
  185.5990  178.1740  143.3930 C   0  0  0  0  0  0  0  0  0  0  0  0
  181.6580  178.5500  141.6720 C   0  0  0  0  0  1  0  0  0  0  0  0
  182.7730  177.9700  141.0090 O   0  0  0  0  0  0  0  0  0  0  0  0
  1  4  1  0  0  0  0
  1  2  1  0  0  0  0
  3  1  2  0  0  0  0
  4  6  1  6  0  0  0
  4  5  1  0  0  0  0
  4  8  1  0  0  0  0
  8  7  1  1  0  0  0
  9  8  1  0  0  0  0
  9 17  1  1  0  0  0
 10 12  1  0  0  0  0
 13 12  1  0  0  0  0
 14  9  1  6  0  0  0
 14 10  1  0  0  0  0
 15 16  1  0  0  0  0
 15 14  1  0  0  0  0
 16 13  1  0  0  0  0
 16 11  1  1  0  0  0
 18 17  1  0  0  0  0
 19  2  1  0  0  0  0
 19 21  1  0  0  0  0
 20 23  1  0  0  0  0
 21 25  1  0  0  0  0
 22 21  2  0  0  0  0
 22 20  1  0  0  0  0
 23 24  1  0  0  0  0
 25 24  1  0  0  0  0
 26 31  1  0  0  0  0
 27 31  2  0  0  0  0
 28 27  1  0  0  0  0
 29 26  2  0  0  0  0
 30 28  2  0  0  0  0
 30 29  1  0  0  0  0
 31 22  1  0  0  0  0
 33 29  1  0  0  0  0
 33 32  1  0  0  0  0
M  END
>  <MODEL>
4

>  <REMARK>
 VINA RESULT:      -6.7      2.467      8.511
  Name = 
  9 active torsions:
  status: ('A' for Active; 'I' for Inactive)
    1  A    between atoms: C_1  and  C_21
    2  A    between atoms: C_5  and  N_7
    3  A    between atoms: C_5  and  C_14
    4  A    between atoms: C_15  and  C_27
    5  A    between atoms: C_16  and  C_33
    6  A    between atoms: C_20  and  C_27
    7  A    between atoms: C_21  and  C_25
    8  A    between atoms: C_23  and  O_24
    9  A    between atoms: C_25  and  C_27
                            x       y       z     vdW  Elec       q    Type
                         _______ _______ _______ _____ _____    ______ ____

>  <TORSDO>
F 9

$$$$
=
 OpenBabel11062418573D

 33 35  0  0  1  0  0  0  0  0999 V2000
  189.8180  176.2400  142.6010 C   0  0  0  0  0  0  0  0  0  0  0  0
  188.4500  176.6200  142.4190 N   0  0  0  0  0  2  0  0  0  0  0  0
  190.6750  177.1130  142.9090 O   0  0  0  0  0  0  0  0  0  0  0  0
  190.2320  174.7950  142.4600 C   0  0  2  0  0  0  0  0  0  0  0  0
  189.8620  174.3240  141.1970 O   0  0  0  0  0  1  0  0  0  0  0  0
  189.4980  173.9480  143.4910 C   0  0  0  0  0  1  0  0  0  0  0  0
  192.5180  174.3330  141.3530 C   0  0  0  0  0  1  0  0  0  0  0  0
  191.7530  174.6060  142.6480 C   0  0  2  0  0  3  0  0  0  0  0  0
  192.1570  173.6790  143.8160 C   0  0  2  0  0  3  0  0  0  0  0  0
  192.1490  175.4320  145.6370 C   0  0  0  0  0  2  0  0  0  0  0  0
  195.6550  174.8880  146.1420 O   0  0  0  0  0  1  0  0  0  0  0  0
  192.9810  176.0920  146.7310 C   0  0  0  0  0  2  0  0  0  0  0  0
  194.1910  176.7950  146.1180 C   0  0  0  0  0  2  0  0  0  0  0  0
  192.9940  174.4040  144.8810 C   0  0  2  0  0  3  0  0  0  0  0  0
  194.1960  175.1130  144.2450 C   0  0  0  0  0  2  0  0  0  0  0  0
  195.0440  175.8220  145.3030 C   0  0  2  0  0  3  0  0  0  0  0  0
  192.8000  172.3650  143.3550 C   0  0  0  0  0  2  0  0  0  0  0  0
  192.1970  171.2640  143.9690 O   0  0  0  0  0  1  0  0  0  0  0  0
  187.9910  177.9800  142.6480 C   0  0  0  0  0  2  0  0  0  0  0  0
  184.1480  178.4040  142.9430 C   0  0  0  0  0  2  0  0  0  0  0  0
  186.5300  178.0810  142.3470 C   0  0  0  0  0  0  0  0  0  0  0  0
  185.5900  178.1550  143.3220 C   0  0  0  0  0  0  0  0  0  0  0  0
  183.8300  177.8350  141.6370 N   0  0  0  0  0  2  0  0  0  0  0  0
  184.7030  178.4740  140.6600 C   0  0  0  0  0  2  0  0  0  0  0  0
  186.1400  178.0190  140.8920 C   0  0  0  0  0  2  0  0  0  0  0  0
  186.5420  177.0280  145.3560 C   0  0  0  0  0  3  0  0  0  0  0  0
  185.5380  179.2180  145.5790 C   0  0  0  0  0  3  0  0  0  0  0  0
  185.7960  179.1970  146.9510 C   0  0  0  0  0  3  0  0  0  0  0  0
  186.7990  176.9980  146.7310 C   0  0  0  0  0  0  0  0  0  0  0  0
  186.4260  178.0920  147.5270 C   0  0  0  0  0  3  0  0  0  0  0  0
  185.9200  178.1400  144.7660 C   0  0  0  0  0  0  0  0  0  0  0  0
  188.7040  175.4270  146.8800 C   0  0  0  0  0  1  0  0  0  0  0  0
  187.4150  175.8690  147.2790 O   0  0  0  0  0  0  0  0  0  0  0  0
  1  3  2  0  0  0  0
  2  1  1  0  0  0  0
  2 19  1  0  0  0  0
  4  1  1  0  0  0  0
  4  8  1  0  0  0  0
  4  6  1  1  0  0  0
  5  4  1  0  0  0  0
  8  7  1  6  0  0  0
  8  9  1  0  0  0  0
  9 17  1  6  0  0  0
 10 12  1  0  0  0  0
 13 12  1  0  0  0  0
 14  9  1  6  0  0  0
 14 10  1  0  0  0  0
 15 14  1  0  0  0  0
 15 16  1  0  0  0  0
 16 13  1  0  0  0  0
 16 11  1  1  0  0  0
 17 18  1  0  0  0  0
 20 22  1  0  0  0  0
 21 19  1  0  0  0  0
 21 22  2  0  0  0  0
 22 31  1  0  0  0  0
 23 20  1  0  0  0  0
 24 25  1  0  0  0  0
 24 23  1  0  0  0  0
 25 21  1  0  0  0  0
 26 29  1  0  0  0  0
 27 28  2  0  0  0  0
 28 30  1  0  0  0  0
 29 33  1  0  0  0  0
 29 30  2  0  0  0  0
 31 26  2  0  0  0  0
 31 27  1  0  0  0  0
 32 33  1  0  0  0  0
M  END
>  <MODEL>
5

>  <REMARK>
 VINA RESULT:      -6.7      2.517      7.583
  Name = 
  9 active torsions:
  status: ('A' for Active; 'I' for Inactive)
    1  A    between atoms: C_1  and  C_21
    2  A    between atoms: C_5  and  N_7
    3  A    between atoms: C_5  and  C_14
    4  A    between atoms: C_15  and  C_27
    5  A    between atoms: C_16  and  C_33
    6  A    between atoms: C_20  and  C_27
    7  A    between atoms: C_21  and  C_25
    8  A    between atoms: C_23  and  O_24
    9  A    between atoms: C_25  and  C_27
                            x       y       z     vdW  Elec       q    Type
                         _______ _______ _______ _____ _____    ______ ____

>  <TORSDO>
F 9

$$$$
=
 OpenBabel11062418573D

 33 35  0  0  1  0  0  0  0  0999 V2000
  189.8470  176.4350  142.5360 C   0  0  0  0  0  0  0  0  0  0  0  0
  190.4120  175.2520  141.9610 N   0  0  0  0  0  2  0  0  0  0  0  0
  190.5160  177.1110  143.3650 O   0  0  0  0  0  0  0  0  0  0  0  0
  188.4670  176.8950  142.1280 C   0  0  2  0  0  0  0  0  0  0  0  0
  188.1530  176.3700  140.8710 O   0  0  0  0  0  1  0  0  0  0  0  0
  188.4490  178.4120  142.0030 C   0  0  0  0  0  1  0  0  0  0  0  0
  186.8310  175.0590  142.9120 C   0  0  0  0  0  1  0  0  0  0  0  0
  187.3870  176.4630  143.1440 C   0  0  2  0  0  3  0  0  0  0  0  0
  186.3010  177.5230  143.4340 C   0  0  2  0  0  3  0  0  0  0  0  0
  184.8310  178.6320  145.1660 C   0  0  0  0  0  2  0  0  0  0  0  0
  186.3670  176.6330  147.7120 O   0  0  0  0  0  1  0  0  0  0  0  0
  184.4090  178.6170  146.6300 C   0  0  0  0  0  2  0  0  0  0  0  0
  185.6110  178.9070  147.5270 C   0  0  0  0  0  2  0  0  0  0  0  0
  185.9070  177.5720  144.9170 C   0  0  2  0  0  3  0  0  0  0  0  0
  187.1240  177.8750  145.8000 C   0  0  0  0  0  2  0  0  0  0  0  0
  186.7420  177.9060  147.2800 C   0  0  2  0  0  3  0  0  0  0  0  0
  185.0870  177.4190  142.5030 C   0  0  0  0  0  2  0  0  0  0  0  0
  185.1130  178.4140  141.5230 O   0  0  0  0  0  1  0  0  0  0  0  0
  191.7750  174.8330  142.2460 C   0  0  0  0  0  2  0  0  0  0  0  0
  191.3500  171.5540  144.2710 C   0  0  0  0  0  2  0  0  0  0  0  0
  191.7870  173.4040  142.6840 C   0  0  0  0  0  0  0  0  0  0  0  0
  191.4580  173.0260  143.9430 C   0  0  0  0  0  0  0  0  0  0  0  0
  192.2680  170.7560  143.4650 N   0  0  0  0  0  2  0  0  0  0  0  0
  191.9150  170.9660  142.0670 C   0  0  0  0  0  2  0  0  0  0  0  0
  192.2620  172.3960  141.6670 C   0  0  0  0  0  2  0  0  0  0  0  0
  192.0120  174.8030  145.6310 C   0  0  0  0  0  3  0  0  0  0  0  0
  189.7260  174.0350  145.4310 C   0  0  0  0  0  3  0  0  0  0  0  0
  189.3450  174.8990  146.4590 C   0  0  0  0  0  3  0  0  0  0  0  0
  191.6380  175.6680  146.6660 C   0  0  0  0  0  0  0  0  0  0  0  0
  190.2970  175.7150  147.0740 C   0  0  0  0  0  3  0  0  0  0  0  0
  191.0600  173.9880  144.9980 C   0  0  0  0  0  0  0  0  0  0  0  0
  193.8870  176.6980  146.6830 C   0  0  0  0  0  1  0  0  0  0  0  0
  192.6180  176.4580  147.2740 O   0  0  0  0  0  0  0  0  0  0  0  0
  1  3  2  0  0  0  0
  2 19  1  0  0  0  0
  2  1  1  0  0  0  0
  4  6  1  6  0  0  0
  4  1  1  0  0  0  0
  4  8  1  0  0  0  0
  5  4  1  0  0  0  0
  8  7  1  6  0  0  0
  8  9  1  0  0  0  0
  9 17  1  6  0  0  0
 10 12  1  0  0  0  0
 12 13  1  0  0  0  0
 14  9  1  6  0  0  0
 14 10  1  0  0  0  0
 14 15  1  0  0  0  0
 15 16  1  0  0  0  0
 16 13  1  0  0  0  0
 16 11  1  6  0  0  0
 18 17  1  0  0  0  0
 19 21  1  0  0  0  0
 21 22  2  0  0  0  0
 22 20  1  0  0  0  0
 22 31  1  0  0  0  0
 23 20  1  0  0  0  0
 24 23  1  0  0  0  0
 25 24  1  0  0  0  0
 25 21  1  0  0  0  0
 26 29  1  0  0  0  0
 27 28  2  0  0  0  0
 28 30  1  0  0  0  0
 29 30  2  0  0  0  0
 29 33  1  0  0  0  0
 31 27  1  0  0  0  0
 31 26  2  0  0  0  0
 32 33  1  0  0  0  0
M  END
>  <MODEL>
6

>  <REMARK>
 VINA RESULT:      -6.7      2.409      4.923
  Name = 
  9 active torsions:
  status: ('A' for Active; 'I' for Inactive)
    1  A    between atoms: C_1  and  C_21
    2  A    between atoms: C_5  and  N_7
    3  A    between atoms: C_5  and  C_14
    4  A    between atoms: C_15  and  C_27
    5  A    between atoms: C_16  and  C_33
    6  A    between atoms: C_20  and  C_27
    7  A    between atoms: C_21  and  C_25
    8  A    between atoms: C_23  and  O_24
    9  A    between atoms: C_25  and  C_27
                            x       y       z     vdW  Elec       q    Type
                         _______ _______ _______ _____ _____    ______ ____

>  <TORSDO>
F 9

$$$$
=
 OpenBabel11062418573D

 33 35  0  0  1  0  0  0  0  0999 V2000
  190.3890  177.3110  143.9490 C   0  0  0  0  0  0  0  0  0  0  0  0
  191.7830  177.0380  143.7700 N   0  0  0  0  0  2  0  0  0  0  0  0
  189.9880  177.8500  145.0170 O   0  0  0  0  0  0  0  0  0  0  0  0
  189.4030  176.9860  142.8520 C   0  0  2  0  0  0  0  0  0  0  0  0
  189.9760  176.0700  141.9650 O   0  0  0  0  0  1  0  0  0  0  0  0
  189.0870  178.2460  142.0580 C   0  0  0  0  0  1  0  0  0  0  0  0
  187.6380  175.1070  142.7310 C   0  0  0  0  0  1  0  0  0  0  0  0
  188.0870  176.4010  143.4090 C   0  0  2  0  0  3  0  0  0  0  0  0
  186.9490  177.4270  143.6080 C   0  0  2  0  0  3  0  0  0  0  0  0
  185.2040  176.7660  145.3140 C   0  0  0  0  0  2  0  0  0  0  0  0
  186.9190  178.7140  147.7860 O   0  0  0  0  0  1  0  0  0  0  0  0
  184.8190  176.8340  146.7880 C   0  0  0  0  0  2  0  0  0  0  0  0
  184.6240  178.2880  147.2140 C   0  0  0  0  0  2  0  0  0  0  0  0
  186.5050  177.5360  145.0750 C   0  0  2  0  0  3  0  0  0  0  0  0
  186.3040  179.0020  145.4810 C   0  0  0  0  0  2  0  0  0  0  0  0
  185.8800  179.1180  146.9450 C   0  0  2  0  0  3  0  0  0  0  0  0
  185.7700  177.2220  142.6490 C   0  0  0  0  0  2  0  0  0  0  0  0
  185.5940  178.3310  141.8190 O   0  0  0  0  0  1  0  0  0  0  0  0
  192.7770  177.4300  144.7550 C   0  0  0  0  0  2  0  0  0  0  0  0
  194.4860  174.0130  145.4170 C   0  0  0  0  0  2  0  0  0  0  0  0
  193.7820  176.3360  144.9280 C   0  0  0  0  0  0  0  0  0  0  0  0
  193.4490  175.1130  145.4080 C   0  0  0  0  0  0  0  0  0  0  0  0
  195.8330  174.5470  145.5940 N   0  0  0  0  0  2  0  0  0  0  0  0
  196.0940  175.4480  144.4800 C   0  0  0  0  0  2  0  0  0  0  0  0
  195.2140  176.6870  144.6130 C   0  0  0  0  0  2  0  0  0  0  0  0
  191.3050  173.8570  145.0350 C   0  0  0  0  0  3  0  0  0  0  0  0
  191.4800  175.3600  146.9230 C   0  0  0  0  0  3  0  0  0  0  0  0
  190.1630  175.0660  147.2810 C   0  0  0  0  0  3  0  0  0  0  0  0
  189.9820  173.5610  145.3840 C   0  0  0  0  0  0  0  0  0  0  0  0
  189.4160  174.1680  146.5150 C   0  0  0  0  0  3  0  0  0  0  0  0
  192.0680  174.7480  145.8050 C   0  0  0  0  0  0  0  0  0  0  0  0
  189.7940  172.0720  143.4190 C   0  0  0  0  0  1  0  0  0  0  0  0
  189.2550  172.6730  144.5870 O   0  0  0  0  0  0  0  0  0  0  0  0
  1  3  2  0  0  0  0
  2  1  1  0  0  0  0
  2 19  1  0  0  0  0
  4  6  1  6  0  0  0
  4  8  1  0  0  0  0
  4  1  1  0  0  0  0
  5  4  1  0  0  0  0
  8  7  1  6  0  0  0
  8  9  1  0  0  0  0
  9 17  1  6  0  0  0
 10 12  1  0  0  0  0
 12 13  1  0  0  0  0
 14  9  1  6  0  0  0
 14 10  1  0  0  0  0
 14 15  1  0  0  0  0
 15 16  1  0  0  0  0
 16 13  1  0  0  0  0
 16 11  1  1  0  0  0
 18 17  1  0  0  0  0
 19 21  1  0  0  0  0
 20 23  1  0  0  0  0
 21 22  2  0  0  0  0
 22 20  1  0  0  0  0
 22 31  1  0  0  0  0
 24 25  1  0  0  0  0
 24 23  1  0  0  0  0
 25 21  1  0  0  0  0
 26 29  2  0  0  0  0
 26 31  1  0  0  0  0
 27 28  1  0  0  0  0
 29 30  1  0  0  0  0
 30 28  2  0  0  0  0
 31 27  2  0  0  0  0
 32 33  1  0  0  0  0
 33 29  1  0  0  0  0
M  END
>  <MODEL>
7

>  <REMARK>
 VINA RESULT:      -6.6      2.323      4.611
  Name = 
  9 active torsions:
  status: ('A' for Active; 'I' for Inactive)
    1  A    between atoms: C_1  and  C_21
    2  A    between atoms: C_5  and  N_7
    3  A    between atoms: C_5  and  C_14
    4  A    between atoms: C_15  and  C_27
    5  A    between atoms: C_16  and  C_33
    6  A    between atoms: C_20  and  C_27
    7  A    between atoms: C_21  and  C_25
    8  A    between atoms: C_23  and  O_24
    9  A    between atoms: C_25  and  C_27
                            x       y       z     vdW  Elec       q    Type
                         _______ _______ _______ _____ _____    ______ ____

>  <TORSDO>
F 9

$$$$
=
 OpenBabel11062418573D

 33 35  0  0  1  0  0  0  0  0999 V2000
  190.8790  175.0700  144.3320 C   0  0  0  0  0  0  0  0  0  0  0  0
  191.1030  173.6590  144.2500 N   0  0  0  0  0  2  0  0  0  0  0  0
  191.5670  175.8560  143.6230 O   0  0  0  0  0  0  0  0  0  0  0  0
  189.8010  175.6200  145.2360 C   0  0  2  0  0  0  0  0  0  0  0  0
  190.2700  176.7700  145.8750 O   0  0  0  0  0  1  0  0  0  0  0  0
  189.4730  174.6010  146.3190 C   0  0  0  0  0  1  0  0  0  0  0  0
  188.2410  175.0520  143.2590 C   0  0  0  0  0  1  0  0  0  0  0  0
  188.5100  175.9590  144.4600 C   0  0  2  0  0  3  0  0  0  0  0  0
  188.3000  177.4610  144.1640 C   0  0  2  0  0  3  0  0  0  0  0  0
  186.9490  177.5250  146.3000 C   0  0  0  0  0  2  0  0  0  0  0  0
  184.5310  179.6140  144.6790 O   0  0  0  0  0  1  0  0  0  0  0  0
  185.7430  178.1520  146.9890 C   0  0  0  0  0  2  0  0  0  0  0  0
  184.4620  177.7880  146.2400 C   0  0  0  0  0  2  0  0  0  0  0  0
  187.0530  178.0290  144.8590 C   0  0  2  0  0  3  0  0  0  0  0  0
  185.7780  177.6430  144.0990 C   0  0  0  0  0  2  0  0  0  0  0  0
  184.5340  178.2210  144.7750 C   0  0  2  0  0  3  0  0  0  0  0  0
  188.3480  177.7980  142.6690 C   0  0  0  0  0  2  0  0  0  0  0  0
  189.6400  178.1480  142.2710 O   0  0  0  0  0  1  0  0  0  0  0  0
  192.0560  173.0830  143.3160 C   0  0  0  0  0  2  0  0  0  0  0  0
  194.7870  171.6040  145.6380 C   0  0  0  0  0  2  0  0  0  0  0  0
  192.9770  172.1530  144.0390 C   0  0  0  0  0  0  0  0  0  0  0  0
  193.9900  172.5970  144.8230 C   0  0  0  0  0  0  0  0  0  0  0  0
  194.8670  170.3070  144.9720 N   0  0  0  0  0  2  0  0  0  0  0  0
  193.5050  169.8150  144.8100 C   0  0  0  0  0  2  0  0  0  0  0  0
  192.7740  170.6800  143.7890 C   0  0  0  0  0  2  0  0  0  0  0  0
  195.0790  174.7550  144.1350 C   0  0  0  0  0  3  0  0  0  0  0  0
  193.8090  174.6750  146.1930 C   0  0  0  0  0  3  0  0  0  0  0  0
  194.1140  176.0170  146.4340 C   0  0  0  0  0  3  0  0  0  0  0  0
  195.3930  176.0980  144.3730 C   0  0  0  0  0  0  0  0  0  0  0  0
  194.9020  176.7270  145.5260 C   0  0  0  0  0  3  0  0  0  0  0  0
  194.2770  174.0350  145.0360 C   0  0  0  0  0  0  0  0  0  0  0  0
  197.3860  176.2140  142.9120 C   0  0  0  0  0  1  0  0  0  0  0  0
  196.1990  176.7760  143.4540 O   0  0  0  0  0  0  0  0  0  0  0  0
  1  4  1  0  0  0  0
  2  1  1  0  0  0  0
  3  1  2  0  0  0  0
  4  5  1  0  0  0  0
  4  6  1  1  0  0  0
  8  7  1  6  0  0  0
  8  4  1  0  0  0  0
  9 17  1  6  0  0  0
  9  8  1  0  0  0  0
 10 12  1  0  0  0  0
 13 12  1  0  0  0  0
 14  9  1  6  0  0  0
 14 10  1  0  0  0  0
 15 16  1  0  0  0  0
 15 14  1  0  0  0  0
 16 11  1  1  0  0  0
 16 13  1  0  0  0  0
 18 17  1  0  0  0  0
 19 21  1  0  0  0  0
 19  2  1  0  0  0  0
 21 22  2  0  0  0  0
 22 31  1  0  0  0  0
 22 20  1  0  0  0  0
 23 20  1  0  0  0  0
 24 23  1  0  0  0  0
 25 21  1  0  0  0  0
 25 24  1  0  0  0  0
 26 29  2  0  0  0  0
 26 31  1  0  0  0  0
 27 28  1  0  0  0  0
 29 30  1  0  0  0  0
 30 28  2  0  0  0  0
 31 27  2  0  0  0  0
 32 33  1  0  0  0  0
 33 29  1  0  0  0  0
M  END
>  <MODEL>
8

>  <REMARK>
 VINA RESULT:      -6.6      3.032      5.434
  Name = 
  9 active torsions:
  status: ('A' for Active; 'I' for Inactive)
    1  A    between atoms: C_1  and  C_21
    2  A    between atoms: C_5  and  N_7
    3  A    between atoms: C_5  and  C_14
    4  A    between atoms: C_15  and  C_27
    5  A    between atoms: C_16  and  C_33
    6  A    between atoms: C_20  and  C_27
    7  A    between atoms: C_21  and  C_25
    8  A    between atoms: C_23  and  O_24
    9  A    between atoms: C_25  and  C_27
                            x       y       z     vdW  Elec       q    Type
                         _______ _______ _______ _____ _____    ______ ____

>  <TORSDO>
F 9

$$$$
=
 OpenBabel11062418573D

 33 35  0  0  1  0  0  0  0  0999 V2000
  189.1570  177.0280  142.6390 C   0  0  0  0  0  0  0  0  0  0  0  0
  189.7510  175.7490  142.8840 N   0  0  0  0  0  2  0  0  0  0  0  0
  189.8910  178.0230  142.3870 O   0  0  0  0  0  0  0  0  0  0  0  0
  187.6540  177.1840  142.6470 C   0  0  2  0  0  0  0  0  0  0  0  0
  187.0950  176.3640  141.6630 O   0  0  0  0  0  1  0  0  0  0  0  0
  187.2860  178.6200  142.3030 C   0  0  0  0  0  1  0  0  0  0  0  0
  185.5300  176.5980  143.9900 C   0  0  0  0  0  1  0  0  0  0  0  0
  187.0410  176.8240  144.0180 C   0  0  2  0  0  3  0  0  0  0  0  0
  187.5180  177.7000  145.1980 C   0  0  2  0  0  3  0  0  0  0  0  0
  189.7430  177.5280  146.3850 C   0  0  0  0  0  2  0  0  0  0  0  0
  188.6140  174.5410  148.0120 O   0  0  0  0  0  1  0  0  0  0  0  0
  190.5280  176.7680  147.4480 C   0  0  0  0  0  2  0  0  0  0  0  0
  190.6790  175.3020  147.0440 C   0  0  0  0  0  2  0  0  0  0  0  0
  188.3520  176.9110  146.2170 C   0  0  2  0  0  3  0  0  0  0  0  0
  188.5010  175.4460  145.7890 C   0  0  0  0  0  2  0  0  0  0  0  0
  189.3150  174.6500  146.8090 C   0  0  2  0  0  3  0  0  0  0  0  0
  186.3880  178.5030  145.8540 C   0  0  0  0  0  2  0  0  0  0  0  0
  186.1760  178.0930  147.1720 O   0  0  0  0  0  1  0  0  0  0  0  0
  191.1850  175.5340  142.7820 C   0  0  0  0  0  2  0  0  0  0  0  0
  192.9330  172.8190  144.9280 C   0  0  0  0  0  2  0  0  0  0  0  0
  191.5550  174.2470  143.4470 C   0  0  0  0  0  0  0  0  0  0  0  0
  192.6970  174.1010  144.1620 C   0  0  0  0  0  0  0  0  0  0  0  0
  192.3120  171.6760  144.2650 N   0  0  0  0  0  2  0  0  0  0  0  0
  190.8810  171.9400  144.1930 C   0  0  0  0  0  2  0  0  0  0  0  0
  190.6240  173.0830  143.2180 C   0  0  0  0  0  2  0  0  0  0  0  0
  194.7090  175.4110  143.4180 C   0  0  0  0  0  3  0  0  0  0  0  0
  193.6360  175.9800  145.5110 C   0  0  0  0  0  3  0  0  0  0  0  0
  194.5850  176.9800  145.7270 C   0  0  0  0  0  3  0  0  0  0  0  0
  195.6670  176.4080  143.6300 C   0  0  0  0  0  0  0  0  0  0  0  0
  195.5970  177.1960  144.7890 C   0  0  0  0  0  3  0  0  0  0  0  0
  193.6800  175.1940  144.3490 C   0  0  0  0  0  0  0  0  0  0  0  0
  196.4380  176.5250  141.2830 C   0  0  0  0  0  1  0  0  0  0  0  0
  196.6780  176.5870  142.6820 O   0  0  0  0  0  0  0  0  0  0  0  0
  1  4  1  0  0  0  0
  1  2  1  0  0  0  0
  3  1  2  0  0  0  0
  4  6  1  6  0  0  0
  4  8  1  0  0  0  0
  5  4  1  0  0  0  0
  8  7  1  6  0  0  0
  8  9  1  0  0  0  0
  9 17  1  1  0  0  0
 10 12  1  0  0  0  0
 13 12  1  0  0  0  0
 14  9  1  6  0  0  0
 14 10  1  0  0  0  0
 15 14  1  0  0  0  0
 15 16  1  0  0  0  0
 16 13  1  0  0  0  0
 16 11  1  1  0  0  0
 17 18  1  0  0  0  0
 19  2  1  0  0  0  0
 19 21  1  0  0  0  0
 21 22  2  0  0  0  0
 22 31  1  0  0  0  0
 22 20  1  0  0  0  0
 23 20  1  0  0  0  0
 24 23  1  0  0  0  0
 25 21  1  0  0  0  0
 25 24  1  0  0  0  0
 26 29  2  0  0  0  0
 26 31  1  0  0  0  0
 27 28  1  0  0  0  0
 29 30  1  0  0  0  0
 30 28  2  0  0  0  0
 31 27  2  0  0  0  0
 32 33  1  0  0  0  0
 33 29  1  0  0  0  0
M  END
>  <MODEL>
9

>  <REMARK>
 VINA RESULT:      -6.6      2.800      5.199
  Name = 
  9 active torsions:
  status: ('A' for Active; 'I' for Inactive)
    1  A    between atoms: C_1  and  C_21
    2  A    between atoms: C_5  and  N_7
    3  A    between atoms: C_5  and  C_14
    4  A    between atoms: C_15  and  C_27
    5  A    between atoms: C_16  and  C_33
    6  A    between atoms: C_20  and  C_27
    7  A    between atoms: C_21  and  C_25
    8  A    between atoms: C_23  and  O_24
    9  A    between atoms: C_25  and  C_27
                            x       y       z     vdW  Elec       q    Type
                         _______ _______ _______ _____ _____    ______ ____

>  <TORSDO>
F 9

$$$$
