=
 OpenBabel11062419493D

 46 50  0  0  1  0  0  0  0  0999 V2000
  189.8520  174.5350  141.4650 C   0  0  0  0  0  0  0  0  0  0  0  0
  187.6210  177.0850  145.5170 C   0  0  2  0  0  3  0  0  0  0  0  0
  191.5790  174.9750  147.0790 O   0  0  0  0  0  0  0  0  0  0  0  0
  190.8780  174.6200  145.7960 S   0  0  0  0  0  0  0  0  0  0  0  0
  189.9350  175.9650  145.1830 N   0  0  2  0  0  0  0  0  0  0  0  0
  189.9690  173.4460  146.0330 O   0  0  0  0  0  0  0  0  0  0  0  0
  189.8460  173.3740  140.5320 C   0  0  0  0  0  3  0  0  0  0  0  0
  185.6060  177.3810  142.8790 N   0  0  0  0  0  0  0  0  0  0  0  0
  188.2000  174.9140  139.9660 N   0  0  0  0  0  0  0  0  0  0  0  0
  186.2090  179.4250  143.8680 O   0  0  0  0  0  0  0  0  0  0  0  0
  192.1040  174.1580  144.5650 C   0  0  2  0  0  3  0  0  0  0  0  0
  188.9050  175.3800  141.1040 C   0  0  1  0  0  3  0  0  0  0  0  0
  191.4480  173.8380  143.2750 C   0  0  0  0  0  0  0  0  0  0  0  0
  194.0640  173.0860  145.7160 C   0  0  0  0  0  1  0  0  0  0  0  0
  192.8620  171.9690  143.6870 C   0  0  1  0  0  3  0  0  0  0  0  0
  190.6600  174.7240  142.6720 C   0  0  0  0  0  3  0  0  0  0  0  0
  186.2530  176.0990  142.6660 C   0  0  0  0  0  2  0  0  0  0  0  0
  187.7130  176.3050  143.1010 C   0  0  1  0  0  3  0  0  0  0  0  0
  192.7670  172.8480  144.9570 C   0  0  2  0  0  3  0  0  0  0  0  0
  188.7030  175.6260  147.2700 O   0  0  0  0  0  1  0  0  0  0  0  0
  186.4710  178.2180  143.6180 C   0  0  0  0  0  0  0  0  0  0  0  0
  190.1290  177.1320  146.0720 C   0  0  0  0  0  2  0  0  0  0  0  0
  188.7240  173.7790  139.6250 C   0  0  0  0  0  3  0  0  0  0  0  0
  191.7200  172.4600  142.7990 C   0  0  0  0  0  2  0  0  0  0  0  0
  188.8690  176.4010  146.1160 C   0  0  2  0  0  0  0  0  0  0  0  0
  188.5420  176.6250  141.8570 C   0  0  0  0  0  2  0  0  0  0  0  0
  187.7230  177.5320  144.0370 C   0  0  1  0  0  3  0  0  0  0  0  0
  183.6080  178.5170  143.3830 O   0  0  0  0  0  1  0  0  0  0  0  0
  184.2670  177.7440  142.4220 C   0  0  1  0  0  3  0  0  0  0  0  0
  184.3410  178.4870  141.0890 C   0  0  1  0  0  3  0  0  0  0  0  0
  185.3720  177.8450  140.1780 C   0  0  0  0  0  1  0  0  0  0  0  0
  183.0930  178.4980  140.4580 O   0  0  0  0  0  1  0  0  0  0  0  0
  187.1940  178.2330  146.4350 C   0  0  0  0  0  2  0  0  0  0  0  0
  185.9530  177.8640  147.2300 C   0  0  0  0  0  3  0  0  0  0  0  0
  185.0270  179.0590  147.2960 C   0  0  0  0  0  1  0  0  0  0  0  0
  185.2320  176.7120  146.5610 C   0  0  0  0  0  1  0  0  0  0  0  0
  194.2090  172.0830  142.9360 C   0  0  1  0  0  3  0  0  0  0  0  0
  196.5250  171.2980  143.6070 C   0  0  0  0  0  0  0  0  0  0  0  0
  195.1340  171.0480  143.3820 N   0  0  0  0  0  2  0  0  0  0  0  0
  197.0020  172.4500  143.4330 O   0  0  0  0  0  0  0  0  0  0  0  0
  197.4220  170.1970  144.0560 C   0  0  2  0  0  3  0  0  0  0  0  0
  197.0880  169.0160  143.3940 O   0  0  0  0  0  1  0  0  0  0  0  0
  197.3080  170.0030  145.5580 C   0  0  0  0  0  2  0  0  0  0  0  0
  196.9340  171.1900  146.1580 F   0  0  0  0  0  0  0  0  0  0  0  0
  194.0490  172.0130  141.4100 C   0  0  0  0  0  2  0  0  0  0  0  0
  194.5640  173.2670  140.7200 C   0  0  0  0  0  1  0  0  0  0  0  0
  1 16  1  0  0  0  0
  2 25  1  0  0  0  0
  2 33  1  1  0  0  0
  4  6  2  0  0  0  0
  4  3  2  0  0  0  0
  5  4  1  0  0  0  0
  5 22  1  1  0  0  0
  5 25  1  0  0  0  0
  7  1  2  0  0  0  0
  8 21  1  0  0  0  0
  9 12  1  0  0  0  0
 11 13  1  6  0  0  0
 11 19  1  0  0  0  0
 11  4  1  0  0  0  0
 12  1  1  0  0  0  0
 12 26  1  1  0  0  0
 15 37  1  6  0  0  0
 15 19  1  0  0  0  0
 16 13  2  0  0  0  0
 17  8  1  0  0  0  0
 17 18  1  0  0  0  0
 18 26  1  6  0  0  0
 18 27  1  0  0  0  0
 19 14  1  6  0  0  0
 21 10  2  0  0  0  0
 22 25  1  0  0  0  0
 23  9  2  0  0  0  0
 23  7  1  0  0  0  0
 24 13  1  0  0  0  0
 24 15  1  0  0  0  0
 25 20  1  1  0  0  0
 27 21  1  6  0  0  0
 27  2  1  0  0  0  0
 29  8  1  0  0  0  0
 29 28  1  1  0  0  0
 30 31  1  6  0  0  0
 30 29  1  0  0  0  0
 32 30  1  0  0  0  0
 33 34  1  0  0  0  0
 34 35  1  0  0  0  0
 36 34  1  0  0  0  0
 37 45  1  6  0  0  0
 37 39  1  0  0  0  0
 38 41  1  0  0  0  0
 39 38  1  0  0  0  0
 40 38  2  0  0  0  0
 41 42  1  6  0  0  0
 41 43  1  0  0  0  0
 43 44  1  0  0  0  0
 46 45  1  0  0  0  0
M  END
>  <MODEL>
1

>  <REMARK>
 VINA RESULT:      -7.7      0.000      0.000
  Name = 
  9 active torsions:
  status: ('A' for Active; 'I' for Inactive)
    1  A    between atoms: C_1  and  C_2
    2  A    between atoms: C_2  and  C_5
    3  A    between atoms: C_3  and  C_12
    4  A    between atoms: C_3  and  C_29
    5  A    between atoms: C_3  and  N_31
    6  A    between atoms: C_6  and  C_34
    7  A    between atoms: C_10  and  C_18
    8  A    between atoms: N_16  and  C_34
    9  A    between atoms: C_17  and  C_18
                            x       y       z     vdW  Elec       q    Type
                         _______ _______ _______ _____ _____    ______ ____

>  <TORSDO>
F 9

$$$$
=
 OpenBabel11062419493D

 46 50  0  0  1  0  0  0  0  0999 V2000
  189.7090  174.7910  141.4610 C   0  0  0  0  0  0  0  0  0  0  0  0
  187.4260  177.1420  145.6030 C   0  0  2  0  0  3  0  0  0  0  0  0
  191.4140  175.0370  147.0940 O   0  0  0  0  0  0  0  0  0  0  0  0
  190.7220  174.7210  145.7960 S   0  0  0  0  0  0  0  0  0  0  0  0
  189.7580  176.0740  145.2340 N   0  0  2  0  0  0  0  0  0  0  0  0
  189.8320  173.5240  145.9830 O   0  0  0  0  0  0  0  0  0  0  0  0
  189.7250  173.6670  140.4830 C   0  0  0  0  0  3  0  0  0  0  0  0
  185.4130  177.5090  142.9720 N   0  0  0  0  0  0  0  0  0  0  0  0
  188.0550  175.2010  139.9730 N   0  0  0  0  0  0  0  0  0  0  0  0
  185.9810  179.5220  144.0430 O   0  0  0  0  0  0  0  0  0  0  0  0
  191.9590  174.3280  144.5520 C   0  0  2  0  0  3  0  0  0  0  0  0
  188.7490  175.6330  141.1310 C   0  0  1  0  0  3  0  0  0  0  0  0
  191.3120  174.0490  143.2480 C   0  0  0  0  0  0  0  0  0  0  0  0
  193.9330  173.2430  145.6660 C   0  0  0  0  0  1  0  0  0  0  0  0
  192.7550  172.1880  143.5910 C   0  0  1  0  0  3  0  0  0  0  0  0
  190.5110  174.9450  142.6770 C   0  0  0  0  0  3  0  0  0  0  0  0
  186.0810  176.2480  142.7110 C   0  0  0  0  0  2  0  0  0  0  0  0
  187.5370  176.4590  143.1590 C   0  0  1  0  0  3  0  0  0  0  0  0
  192.6420  173.0140  144.8940 C   0  0  2  0  0  3  0  0  0  0  0  0
  188.5260  175.6330  147.3010 O   0  0  0  0  0  1  0  0  0  0  0  0
  186.2620  178.3310  143.7470 C   0  0  0  0  0  0  0  0  0  0  0  0
  189.9310  177.2080  146.1690 C   0  0  0  0  0  2  0  0  0  0  0  0
  188.5980  174.0900  139.5890 C   0  0  0  0  0  3  0  0  0  0  0  0
  191.6070  172.6950  142.7190 C   0  0  0  0  0  2  0  0  0  0  0  0
  188.6840  176.4550  146.1790 C   0  0  2  0  0  0  0  0  0  0  0  0
  188.3640  176.8420  141.9310 C   0  0  0  0  0  2  0  0  0  0  0  0
  187.5250  177.6490  144.1420 C   0  0  1  0  0  3  0  0  0  0  0  0
  183.4440  178.7020  143.4570 O   0  0  0  0  0  1  0  0  0  0  0  0
  184.0700  177.8680  142.5250 C   0  0  1  0  0  3  0  0  0  0  0  0
  184.1240  178.5380  141.1530 C   0  0  1  0  0  3  0  0  0  0  0  0
  185.2790  177.9860  140.3370 C   0  0  0  0  0  1  0  0  0  0  0  0
  182.9230  178.3490  140.4620 O   0  0  0  0  0  1  0  0  0  0  0  0
  186.9780  178.2460  146.5640 C   0  0  0  0  0  2  0  0  0  0  0  0
  185.7160  177.8430  147.3080 C   0  0  0  0  0  3  0  0  0  0  0  0
  184.7180  178.9810  147.2550 C   0  0  0  0  0  1  0  0  0  0  0  0
  185.1040  176.6150  146.6670 C   0  0  0  0  0  1  0  0  0  0  0  0
  194.1020  172.3540  142.8490 C   0  0  1  0  0  3  0  0  0  0  0  0
  194.7950  174.6690  142.0830 C   0  0  0  0  0  0  0  0  0  0  0  0
  194.6670  173.6740  143.1030 N   0  0  0  0  0  2  0  0  0  0  0  0
  194.4050  174.4340  140.9090 O   0  0  0  0  0  0  0  0  0  0  0  0
  195.3890  175.9980  142.4020 C   0  0  2  0  0  3  0  0  0  0  0  0
  196.6220  176.1310  141.7670 O   0  0  0  0  0  1  0  0  0  0  0  0
  195.5570  176.1520  143.9040 C   0  0  0  0  0  2  0  0  0  0  0  0
  194.3850  176.6270  144.4620 F   0  0  0  0  0  0  0  0  0  0  0  0
  195.1260  171.2710  143.2210 C   0  0  0  0  0  2  0  0  0  0  0  0
  194.4640  170.0260  143.7930 C   0  0  0  0  0  1  0  0  0  0  0  0
  1 16  1  0  0  0  0
  2 25  1  0  0  0  0
  2 33  1  1  0  0  0
  4  6  2  0  0  0  0
  4  3  2  0  0  0  0
  5  4  1  0  0  0  0
  5 22  1  1  0  0  0
  5 25  1  0  0  0  0
  7  1  2  0  0  0  0
  8 21  1  0  0  0  0
  9 12  1  0  0  0  0
 11 13  1  6  0  0  0
 11 19  1  0  0  0  0
 11  4  1  0  0  0  0
 12  1  1  0  0  0  0
 12 26  1  1  0  0  0
 15 37  1  6  0  0  0
 15 19  1  0  0  0  0
 16 13  2  0  0  0  0
 17  8  1  0  0  0  0
 17 18  1  0  0  0  0
 18 26  1  6  0  0  0
 18 27  1  0  0  0  0
 19 14  1  6  0  0  0
 21 10  2  0  0  0  0
 22 25  1  0  0  0  0
 23  9  2  0  0  0  0
 23  7  1  0  0  0  0
 24 13  1  0  0  0  0
 24 15  1  0  0  0  0
 25 20  1  1  0  0  0
 27 21  1  6  0  0  0
 27  2  1  0  0  0  0
 29  8  1  0  0  0  0
 29 28  1  1  0  0  0
 30 31  1  6  0  0  0
 30 29  1  0  0  0  0
 32 30  1  0  0  0  0
 33 34  1  0  0  0  0
 35 34  1  0  0  0  0
 36 34  1  0  0  0  0
 37 39  1  0  0  0  0
 37 45  1  1  0  0  0
 38 41  1  0  0  0  0
 38 39  1  0  0  0  0
 40 38  2  0  0  0  0
 41 42  1  6  0  0  0
 41 43  1  0  0  0  0
 43 44  1  0  0  0  0
 45 46  1  0  0  0  0
M  END
>  <MODEL>
2

>  <REMARK>
 VINA RESULT:      -7.4      1.708      2.307
  Name = 
  9 active torsions:
  status: ('A' for Active; 'I' for Inactive)
    1  A    between atoms: C_1  and  C_2
    2  A    between atoms: C_2  and  C_5
    3  A    between atoms: C_3  and  C_12
    4  A    between atoms: C_3  and  C_29
    5  A    between atoms: C_3  and  N_31
    6  A    between atoms: C_6  and  C_34
    7  A    between atoms: C_10  and  C_18
    8  A    between atoms: N_16  and  C_34
    9  A    between atoms: C_17  and  C_18
                            x       y       z     vdW  Elec       q    Type
                         _______ _______ _______ _____ _____    ______ ____

>  <TORSDO>
F 9

$$$$
=
 OpenBabel11062419493D

 46 50  0  0  1  0  0  0  0  0999 V2000
  189.7070  174.7750  141.4850 C   0  0  0  0  0  0  0  0  0  0  0  0
  187.4690  177.0770  145.6790 C   0  0  2  0  0  3  0  0  0  0  0  0
  191.4910  174.9850  147.0950 O   0  0  0  0  0  0  0  0  0  0  0  0
  190.7830  174.6760  145.8040 S   0  0  0  0  0  0  0  0  0  0  0  0
  189.8030  176.0280  145.2670 N   0  0  2  0  0  0  0  0  0  0  0  0
  189.9020  173.4720  145.9950 O   0  0  0  0  0  0  0  0  0  0  0  0
  189.7160  173.6600  140.4980 C   0  0  0  0  0  3  0  0  0  0  0  0
  185.4170  177.4540  143.0800 N   0  0  0  0  0  0  0  0  0  0  0  0
  188.0300  175.1870  140.0240 N   0  0  0  0  0  0  0  0  0  0  0  0
  185.9870  179.4620  144.1600 O   0  0  0  0  0  0  0  0  0  0  0  0
  192.0040  174.3010  144.5400 C   0  0  2  0  0  3  0  0  0  0  0  0
  188.7380  175.6140  141.1760 C   0  0  1  0  0  3  0  0  0  0  0  0
  191.3400  174.0280  143.2420 C   0  0  0  0  0  0  0  0  0  0  0  0
  194.0000  173.2190  145.6160 C   0  0  0  0  0  1  0  0  0  0  0  0
  192.7990  172.1730  143.5500 C   0  0  1  0  0  3  0  0  0  0  0  0
  190.5250  174.9240  142.6910 C   0  0  0  0  0  3  0  0  0  0  0  0
  186.0890  176.1990  142.7990 C   0  0  0  0  0  2  0  0  0  0  0  0
  187.5500  176.4160  143.2270 C   0  0  1  0  0  3  0  0  0  0  0  0
  192.7000  172.9890  144.8610 C   0  0  2  0  0  3  0  0  0  0  0  0
  188.6030  175.5620  147.3490 O   0  0  0  0  0  1  0  0  0  0  0  0
  186.2720  178.2740  143.8490 C   0  0  0  0  0  0  0  0  0  0  0  0
  189.9820  177.1550  146.2090 C   0  0  0  0  0  2  0  0  0  0  0  0
  188.5740  174.0820  139.6240 C   0  0  0  0  0  3  0  0  0  0  0  0
  191.6360  172.6810  142.6980 C   0  0  0  0  0  2  0  0  0  0  0  0
  188.7390  176.3940  146.2310 C   0  0  2  0  0  0  0  0  0  0  0  0
  188.3570  176.8140  141.9910 C   0  0  0  0  0  2  0  0  0  0  0  0
  187.5440  177.5970  144.2210 C   0  0  1  0  0  3  0  0  0  0  0  0
  183.6500  178.9970  143.2640 O   0  0  0  0  0  1  0  0  0  0  0  0
  184.0650  177.8080  142.6550 C   0  0  1  0  0  3  0  0  0  0  0  0
  183.9970  177.9290  141.1330 C   0  0  1  0  0  3  0  0  0  0  0  0
  182.6030  178.3400  140.6940 C   0  0  0  0  0  1  0  0  0  0  0  0
  184.9340  178.8550  140.6670 O   0  0  0  0  0  1  0  0  0  0  0  0
  187.0280  178.1710  146.6550 C   0  0  0  0  0  2  0  0  0  0  0  0
  185.7540  177.7730  147.3810 C   0  0  0  0  0  3  0  0  0  0  0  0
  184.7980  178.9460  147.3950 C   0  0  0  0  0  1  0  0  0  0  0  0
  185.0980  176.6040  146.6760 C   0  0  0  0  0  1  0  0  0  0  0  0
  194.1340  172.3540  142.7900 C   0  0  1  0  0  3  0  0  0  0  0  0
  195.2870  170.1020  142.6120 C   0  0  0  0  0  0  0  0  0  0  0  0
  194.4730  171.1400  142.0560 N   0  0  0  0  0  2  0  0  0  0  0  0
  195.7350  170.2020  143.7840 O   0  0  0  0  0  0  0  0  0  0  0  0
  195.6050  168.8890  141.8090 C   0  0  2  0  0  3  0  0  0  0  0  0
  196.3220  169.2500  140.6690 O   0  0  0  0  0  1  0  0  0  0  0  0
  194.3280  168.1670  141.4140 C   0  0  0  0  0  2  0  0  0  0  0  0
  193.4360  168.1810  142.4690 F   0  0  0  0  0  0  0  0  0  0  0  0
  194.1180  173.5530  141.8300 C   0  0  0  0  0  2  0  0  0  0  0  0
  195.0010  174.6910  142.3170 C   0  0  0  0  0  1  0  0  0  0  0  0
  1 16  1  0  0  0  0
  2 25  1  0  0  0  0
  2 33  1  1  0  0  0
  4  6  2  0  0  0  0
  4  3  2  0  0  0  0
  5  4  1  0  0  0  0
  5 22  1  1  0  0  0
  5 25  1  0  0  0  0
  7  1  2  0  0  0  0
  8 21  1  0  0  0  0
  9 12  1  0  0  0  0
 11 13  1  6  0  0  0
 11 19  1  0  0  0  0
 11  4  1  0  0  0  0
 12  1  1  0  0  0  0
 12 26  1  1  0  0  0
 15 37  1  6  0  0  0
 15 19  1  0  0  0  0
 16 13  2  0  0  0  0
 17  8  1  0  0  0  0
 17 18  1  0  0  0  0
 18 26  1  6  0  0  0
 18 27  1  0  0  0  0
 19 14  1  6  0  0  0
 21 10  2  0  0  0  0
 22 25  1  0  0  0  0
 23  9  2  0  0  0  0
 23  7  1  0  0  0  0
 24 13  1  0  0  0  0
 24 15  1  0  0  0  0
 25 20  1  1  0  0  0
 27 21  1  6  0  0  0
 27  2  1  0  0  0  0
 29  8  1  0  0  0  0
 29 28  1  1  0  0  0
 30 31  1  1  0  0  0
 30 29  1  0  0  0  0
 32 30  1  0  0  0  0
 33 34  1  0  0  0  0
 34 35  1  0  0  0  0
 36 34  1  0  0  0  0
 37 45  1  6  0  0  0
 38 40  2  0  0  0  0
 39 38  1  0  0  0  0
 39 37  1  0  0  0  0
 41 42  1  6  0  0  0
 41 38  1  0  0  0  0
 43 41  1  0  0  0  0
 43 44  1  0  0  0  0
 45 46  1  0  0  0  0
M  END
>  <MODEL>
3

>  <REMARK>
 VINA RESULT:      -7.1      1.422      1.596
  Name = 
  9 active torsions:
  status: ('A' for Active; 'I' for Inactive)
    1  A    between atoms: C_1  and  C_2
    2  A    between atoms: C_2  and  C_5
    3  A    between atoms: C_3  and  C_12
    4  A    between atoms: C_3  and  C_29
    5  A    between atoms: C_3  and  N_31
    6  A    between atoms: C_6  and  C_34
    7  A    between atoms: C_10  and  C_18
    8  A    between atoms: N_16  and  C_34
    9  A    between atoms: C_17  and  C_18
                            x       y       z     vdW  Elec       q    Type
                         _______ _______ _______ _____ _____    ______ ____

>  <TORSDO>
F 9

$$$$
=
 OpenBabel11062419493D

 46 50  0  0  1  0  0  0  0  0999 V2000
  192.1470  173.8150  143.4160 C   0  0  0  0  0  0  0  0  0  0  0  0
  191.3070  171.4420  138.7720 C   0  0  2  0  0  3  0  0  0  0  0  0
  187.8250  174.5920  139.4900 O   0  0  0  0  0  0  0  0  0  0  0  0
  188.7330  174.0700  140.5710 S   0  0  0  0  0  0  0  0  0  0  0  0
  190.2650  173.5220  139.9160 N   0  0  2  0  0  0  0  0  0  0  0  0
  188.0600  172.9260  141.2770 O   0  0  0  0  0  0  0  0  0  0  0  0
  192.1160  173.7490  144.9040 C   0  0  0  0  0  2  0  0  0  0  0  0
  193.9580  170.0100  140.1950 N   0  0  0  0  0  0  0  0  0  0  0  0
  193.9140  172.5520  144.0480 N   0  0  0  0  0  0  0  0  0  0  0  0
  194.3440  170.8120  138.0200 O   0  0  0  0  0  0  0  0  0  0  0  0
  189.0420  175.3800  141.7620 C   0  0  2  0  0  3  0  0  0  0  0  0
  193.1820  173.1240  142.9780 C   0  0  0  0  0  0  0  0  0  0  0  0
  189.9660  174.9100  142.8220 C   0  0  0  0  0  0  0  0  0  0  0  0
  187.0220  176.8690  141.8930 C   0  0  0  0  0  1  0  0  0  0  0  0
  188.1350  175.8470  144.0200 C   0  0  1  0  0  3  0  0  0  0  0  0
  191.1650  174.4220  142.5150 C   0  0  0  0  0  3  0  0  0  0  0  0
  193.1530  170.4270  141.3280 C   0  0  0  0  0  2  0  0  0  0  0  0
  192.5850  171.8020  140.9380 C   0  0  1  0  0  3  0  0  0  0  0  0
  187.7680  175.7020  142.5240 C   0  0  2  0  0  3  0  0  0  0  0  0
  188.8250  171.9040  138.7760 O   0  0  0  0  0  1  0  0  0  0  0  0
  193.7110  170.8770  139.1080 C   0  0  0  0  0  0  0  0  0  0  0  0
  190.2840  173.7780  138.4580 C   0  0  0  0  0  2  0  0  0  0  0  0
  193.3270  172.9000  145.1480 C   0  0  0  0  0  3  0  0  0  0  0  0
  189.3910  174.9920  144.1860 C   0  0  0  0  0  2  0  0  0  0  0  0
  190.1190  172.4140  138.9440 C   0  0  2  0  0  0  0  0  0  0  0  0
  193.4930  172.8800  141.5310 C   0  0  0  0  0  2  0  0  0  0  0  0
  192.6540  171.8840  139.3980 C   0  0  1  0  0  3  0  0  0  0  0  0
  194.7550  168.1700  138.9640 O   0  0  0  0  0  1  0  0  0  0  0  0
  194.8650  168.8650  140.1720 C   0  0  1  0  0  3  0  0  0  0  0  0
  196.3060  169.3200  140.4040 C   0  0  1  0  0  3  0  0  0  0  0  0
  196.9610  168.4800  141.4860 C   0  0  0  0  0  1  0  0  0  0  0  0
  197.0480  169.2340  139.2230 O   0  0  0  0  0  1  0  0  0  0  0  0
  191.4510  171.0900  137.2900 C   0  0  0  0  0  2  0  0  0  0  0  0
  190.7880  169.7590  136.9780 C   0  0  0  0  0  3  0  0  0  0  0  0
  191.5860  169.0380  135.9130 C   0  0  0  0  0  1  0  0  0  0  0  0
  190.7320  168.9010  138.2250 C   0  0  0  0  0  1  0  0  0  0  0  0
  188.4180  177.3010  144.4660 C   0  0  1  0  0  3  0  0  0  0  0  0
  186.4120  178.5610  145.3700 C   0  0  0  0  0  0  0  0  0  0  0  0
  187.5280  177.6840  145.5560 N   0  0  0  0  0  2  0  0  0  0  0  0
  186.1510  179.0300  144.2320 O   0  0  0  0  0  0  0  0  0  0  0  0
  185.5430  178.9210  146.5250 C   0  0  2  0  0  3  0  0  0  0  0  0
  186.2840  178.8840  147.7060 O   0  0  0  0  0  1  0  0  0  0  0  0
  184.3660  177.9650  146.6190 C   0  0  0  0  0  2  0  0  0  0  0  0
  184.7250  176.7280  146.1190 F   0  0  0  0  0  0  0  0  0  0  0  0
  189.8780  177.5230  144.8870 C   0  0  0  0  0  2  0  0  0  0  0  0
  190.6610  178.3150  143.8510 C   0  0  0  0  0  1  0  0  0  0  0  0
  1  7  1  0  0  0  0
  2 33  1  6  0  0  0
  2 25  1  0  0  0  0
  2 27  1  0  0  0  0
  3  4  2  0  0  0  0
  4  6  2  0  0  0  0
  4 11  1  0  0  0  0
  5 22  1  6  0  0  0
  5  4  1  0  0  0  0
  7 23  1  0  0  0  0
  8 17  1  0  0  0  0
  9 23  2  0  0  0  0
 10 21  2  0  0  0  0
 11 19  1  0  0  0  0
 11 13  1  1  0  0  0
 12  1  2  0  0  0  0
 12  9  1  0  0  0  0
 13 24  1  0  0  0  0
 15 24  1  0  0  0  0
 15 37  1  6  0  0  0
 16 13  2  0  0  0  0
 16  1  1  0  0  0  0
 18 17  1  6  0  0  0
 18 26  1  0  0  0  0
 19 14  1  6  0  0  0
 19 15  1  0  0  0  0
 21  8  1  0  0  0  0
 22 25  1  0  0  0  0
 25 20  1  6  0  0  0
 25  5  1  0  0  0  0
 26 12  1  0  0  0  0
 27 21  1  6  0  0  0
 27 18  1  0  0  0  0
 29 28  1  6  0  0  0
 29  8  1  0  0  0  0
 29 30  1  0  0  0  0
 30 31  1  1  0  0  0
 32 30  1  0  0  0  0
 34 33  1  0  0  0  0
 34 36  1  0  0  0  0
 35 34  1  0  0  0  0
 37 45  1  1  0  0  0
 37 39  1  0  0  0  0
 38 39  1  0  0  0  0
 38 41  1  0  0  0  0
 40 38  2  0  0  0  0
 41 43  1  0  0  0  0
 41 42  1  1  0  0  0
 44 43  1  0  0  0  0
 46 45  1  0  0  0  0
M  END
>  <MODEL>
4

>  <REMARK>
 VINA RESULT:      -6.8      3.828     10.371
  Name = 
  9 active torsions:
  status: ('A' for Active; 'I' for Inactive)
    1  A    between atoms: C_1  and  C_2
    2  A    between atoms: C_2  and  C_5
    3  A    between atoms: C_3  and  C_12
    4  A    between atoms: C_3  and  C_29
    5  A    between atoms: C_3  and  N_31
    6  A    between atoms: C_6  and  C_34
    7  A    between atoms: C_10  and  C_18
    8  A    between atoms: N_16  and  C_34
    9  A    between atoms: C_17  and  C_18
                            x       y       z     vdW  Elec       q    Type
                         _______ _______ _______ _____ _____    ______ ____

>  <TORSDO>
F 9

$$$$
=
 OpenBabel11062419493D

 46 50  0  0  1  0  0  0  0  0999 V2000
  189.8090  174.1030  140.8850 C   0  0  0  0  0  0  0  0  0  0  0  0
  194.9190  174.2550  142.2140 C   0  0  2  0  0  3  0  0  0  0  0  0
  192.4610  176.7120  145.4510 O   0  0  0  0  0  0  0  0  0  0  0  0
  191.9370  176.3420  144.0900 S   0  0  0  0  0  0  0  0  0  0  0  0
  192.7430  174.9190  143.4560 N   0  0  2  0  0  0  0  0  0  0  0  0
  192.1490  177.4920  143.1450 O   0  0  0  0  0  0  0  0  0  0  0  0
  188.7100  174.5710  139.9950 C   0  0  0  0  0  3  0  0  0  0  0  0
  194.6600  172.6570  139.3010 N   0  0  0  0  0  0  0  0  0  0  0  0
  190.0770  173.0390  138.9060 N   0  0  0  0  0  0  0  0  0  0  0  0
  195.8040  171.4540  140.9650 O   0  0  0  0  0  0  0  0  0  0  0  0
  190.1750  176.0110  144.2090 C   0  0  2  0  0  3  0  0  0  0  0  0
  190.5550  173.2370  140.2260 C   0  0  1  0  0  3  0  0  0  0  0  0
  189.6330  175.6060  142.8900 C   0  0  0  0  0  0  0  0  0  0  0  0
  189.1850  177.4560  146.0120 C   0  0  0  0  0  1  0  0  0  0  0  0
  188.1710  177.3400  143.6100 C   0  0  1  0  0  3  0  0  0  0  0  0
  190.1430  174.5680  142.2330 C   0  0  0  0  0  3  0  0  0  0  0  0
  193.5480  173.5900  139.2730 C   0  0  0  0  0  2  0  0  0  0  0  0
  192.9860  173.5940  140.7040 C   0  0  1  0  0  3  0  0  0  0  0  0
  189.4240  177.2960  144.5170 C   0  0  2  0  0  3  0  0  0  0  0  0
  194.6990  176.3870  143.5480 O   0  0  0  0  0  1  0  0  0  0  0  0
  194.9470  172.3200  140.6430 C   0  0  0  0  0  0  0  0  0  0  0  0
  193.6970  174.4150  144.4680 C   0  0  0  0  0  2  0  0  0  0  0  0
  189.0280  173.7840  138.7590 C   0  0  0  0  0  3  0  0  0  0  0  0
  188.5520  176.4920  142.3970 C   0  0  0  0  0  2  0  0  0  0  0  0
  194.2030  175.1030  143.2880 C   0  0  2  0  0  0  0  0  0  0  0  0
  191.8120  172.6160  140.7590 C   0  0  0  0  0  2  0  0  0  0  0  0
  194.1130  173.0720  141.6200 C   0  0  1  0  0  3  0  0  0  0  0  0
  194.5430  172.1130  137.0140 O   0  0  0  0  0  1  0  0  0  0  0  0
  195.3820  172.1580  138.1330 C   0  0  1  0  0  3  0  0  0  0  0  0
  196.6090  173.0240  137.8540 C   0  0  1  0  0  3  0  0  0  0  0  0
  197.4050  172.4590  136.6910 C   0  0  0  0  0  1  0  0  0  0  0  0
  196.2330  174.3410  137.5760 O   0  0  0  0  0  1  0  0  0  0  0  0
  196.2780  173.8080  142.7580 C   0  0  0  0  0  2  0  0  0  0  0  0
  197.4070  174.6030  142.1260 C   0  0  0  0  0  3  0  0  0  0  0  0
  196.8880  175.3230  140.9000 C   0  0  0  0  0  1  0  0  0  0  0  0
  197.9410  175.6210  143.1120 C   0  0  0  0  0  1  0  0  0  0  0  0
  186.8890  176.7820  144.2700 C   0  0  1  0  0  3  0  0  0  0  0  0
  185.4640  177.4090  146.2710 C   0  0  0  0  0  0  0  0  0  0  0  0
  186.3060  177.7690  145.1720 N   0  0  0  0  0  2  0  0  0  0  0  0
  185.2040  176.2000  146.5070 O   0  0  0  0  0  0  0  0  0  0  0  0
  184.8910  178.4640  147.1530 C   0  0  2  0  0  3  0  0  0  0  0  0
  183.8380  179.1060  146.5020 O   0  0  0  0  0  1  0  0  0  0  0  0
  185.9620  179.4740  147.5310 C   0  0  0  0  0  2  0  0  0  0  0  0
  186.9900  178.8380  148.2010 F   0  0  0  0  0  0  0  0  0  0  0  0
  185.8380  176.3300  143.2450 C   0  0  0  0  0  2  0  0  0  0  0  0
  185.2190  177.5040  142.5010 C   0  0  0  0  0  1  0  0  0  0  0  0
  1 16  1  0  0  0  0
  2 33  1  1  0  0  0
  2 25  1  0  0  0  0
  4 11  1  0  0  0  0
  4  3  2  0  0  0  0
  5  4  1  0  0  0  0
  5 22  1  1  0  0  0
  6  4  2  0  0  0  0
  7  1  2  0  0  0  0
  8 21  1  0  0  0  0
  9 12  1  0  0  0  0
 11 13  1  6  0  0  0
 11 19  1  0  0  0  0
 12 26  1  6  0  0  0
 12  1  1  0  0  0  0
 15 37  1  1  0  0  0
 15 19  1  0  0  0  0
 16 13  2  0  0  0  0
 17  8  1  0  0  0  0
 18 17  1  6  0  0  0
 18 26  1  0  0  0  0
 18 27  1  0  0  0  0
 19 14  1  1  0  0  0
 21 10  2  0  0  0  0
 23  9  2  0  0  0  0
 23  7  1  0  0  0  0
 24 13  1  0  0  0  0
 24 15  1  0  0  0  0
 25  5  1  0  0  0  0
 25 20  1  1  0  0  0
 25 22  1  0  0  0  0
 27 21  1  6  0  0  0
 27  2  1  0  0  0  0
 29 28  1  6  0  0  0
 29  8  1  0  0  0  0
 30 31  1  6  0  0  0
 30 29  1  0  0  0  0
 32 30  1  0  0  0  0
 34 33  1  0  0  0  0
 34 36  1  0  0  0  0
 35 34  1  0  0  0  0
 37 45  1  6  0  0  0
 37 39  1  0  0  0  0
 38 40  2  0  0  0  0
 38 41  1  0  0  0  0
 39 38  1  0  0  0  0
 41 42  1  6  0  0  0
 41 43  1  0  0  0  0
 43 44  1  0  0  0  0
 46 45  1  0  0  0  0
M  END
>  <MODEL>
5

>  <REMARK>
 VINA RESULT:      -6.7      3.364      9.632
  Name = 
  9 active torsions:
  status: ('A' for Active; 'I' for Inactive)
    1  A    between atoms: C_1  and  C_2
    2  A    between atoms: C_2  and  C_5
    3  A    between atoms: C_3  and  C_12
    4  A    between atoms: C_3  and  C_29
    5  A    between atoms: C_3  and  N_31
    6  A    between atoms: C_6  and  C_34
    7  A    between atoms: C_10  and  C_18
    8  A    between atoms: N_16  and  C_34
    9  A    between atoms: C_17  and  C_18
                            x       y       z     vdW  Elec       q    Type
                         _______ _______ _______ _____ _____    ______ ____

>  <TORSDO>
F 9

$$$$
=
 OpenBabel11062419493D

 46 50  0  0  1  0  0  0  0  0999 V2000
  189.7040  174.6490  142.4860 C   0  0  0  0  0  0  0  0  0  0  0  0
  194.8510  173.6120  141.9090 C   0  0  2  0  0  3  0  0  0  0  0  0
  194.2140  175.7060  146.1240 O   0  0  0  0  0  0  0  0  0  0  0  0
  193.2120  175.7360  145.0020 S   0  0  0  0  0  0  0  0  0  0  0  0
  193.4090  174.3640  143.9270 N   0  0  2  0  0  0  0  0  0  0  0  0
  193.3800  177.0070  144.2170 O   0  0  0  0  0  0  0  0  0  0  0  0
  188.5240  175.4830  142.1240 C   0  0  0  0  0  2  0  0  0  0  0  0
  193.3040  172.7490  139.0860 N   0  0  0  0  0  0  0  0  0  0  0  0
  189.0660  174.0060  140.4130 N   0  0  0  0  0  0  0  0  0  0  0  0
  194.5960  171.0350  140.0430 O   0  0  0  0  0  0  0  0  0  0  0  0
  191.5540  175.7020  145.6950 C   0  0  2  0  0  3  0  0  0  0  0  0
  189.9720  173.8280  141.4890 C   0  0  0  0  0  0  0  0  0  0  0  0
  190.5400  175.6910  144.6130 C   0  0  0  0  0  0  0  0  0  0  0  0
  191.5650  176.8750  147.9170 C   0  0  0  0  0  1  0  0  0  0  0  0
  189.8430  177.4590  146.0460 C   0  0  1  0  0  3  0  0  0  0  0  0
  190.5500  174.7460  143.6770 C   0  0  0  0  0  3  0  0  0  0  0  0
  192.4980  173.8460  139.5890 C   0  0  0  0  0  2  0  0  0  0  0  0
  192.4390  173.6410  141.1120 C   0  0  1  0  0  3  0  0  0  0  0  0
  191.2700  177.0010  146.4300 C   0  0  2  0  0  3  0  0  0  0  0  0
  195.5830  175.4110  143.5210 O   0  0  0  0  0  1  0  0  0  0  0  0
  193.9140  172.0870  140.1740 C   0  0  0  0  0  0  0  0  0  0  0  0
  194.4860  173.4940  144.4490 C   0  0  0  0  0  2  0  0  0  0  0  0
  188.2350  174.9370  140.7580 C   0  0  0  0  0  3  0  0  0  0  0  0
  189.6030  176.8390  144.6700 C   0  0  0  0  0  2  0  0  0  0  0  0
  194.7380  174.3210  143.2760 C   0  0  2  0  0  0  0  0  0  0  0  0
  191.1460  172.8960  141.4440 C   0  0  0  0  0  2  0  0  0  0  0  0
  193.6400  172.7450  141.4810 C   0  0  1  0  0  3  0  0  0  0  0  0
  192.2620  171.9800  137.1210 O   0  0  0  0  0  1  0  0  0  0  0  0
  193.4750  172.3950  137.6790 C   0  0  1  0  0  3  0  0  0  0  0  0
  194.0530  173.5740  136.8970 C   0  0  1  0  0  3  0  0  0  0  0  0
  195.5710  173.5220  136.9020 C   0  0  0  0  0  1  0  0  0  0  0  0
  193.5820  173.5740  135.5810 O   0  0  0  0  0  1  0  0  0  0  0  0
  196.1640  172.8270  141.8620 C   0  0  0  0  0  2  0  0  0  0  0  0
  197.2190  173.5750  141.0650 C   0  0  0  0  0  3  0  0  0  0  0  0
  197.9390  172.6040  140.1520 C   0  0  0  0  0  1  0  0  0  0  0  0
  196.5680  174.6560  140.2270 C   0  0  0  0  0  1  0  0  0  0  0  0
  188.7440  177.0050  147.0340 C   0  0  1  0  0  3  0  0  0  0  0  0
  186.5110  177.8740  146.2050 C   0  0  0  0  0  0  0  0  0  0  0  0
  187.6510  177.9710  147.0640 N   0  0  0  0  0  2  0  0  0  0  0  0
  186.4070  176.9250  145.3860 O   0  0  0  0  0  0  0  0  0  0  0  0
  185.4300  178.8970  146.2770 C   0  0  2  0  0  3  0  0  0  0  0  0
  184.4400  178.4790  147.1650 O   0  0  0  0  0  1  0  0  0  0  0  0
  184.8300  179.1290  144.9010 C   0  0  0  0  0  2  0  0  0  0  0  0
  185.6350  179.9890  144.1760 F   0  0  0  0  0  0  0  0  0  0  0  0
  188.1920  175.6080  146.7130 C   0  0  0  0  0  2  0  0  0  0  0  0
  188.7580  174.5400  147.6370 C   0  0  0  0  0  1  0  0  0  0  0  0
  1 16  1  0  0  0  0
  2 33  1  1  0  0  0
  2 25  1  0  0  0  0
  4 11  1  0  0  0  0
  4  3  2  0  0  0  0
  5 22  1  1  0  0  0
  5  4  1  0  0  0  0
  6  4  2  0  0  0  0
  7  1  1  0  0  0  0
  8 17  1  0  0  0  0
  8 21  1  0  0  0  0
  9 23  2  0  0  0  0
  9 12  1  0  0  0  0
 10 21  2  0  0  0  0
 11 13  1  6  0  0  0
 11 19  1  0  0  0  0
 12  1  2  0  0  0  0
 13 24  1  0  0  0  0
 15 19  1  0  0  0  0
 15 37  1  1  0  0  0
 16 13  2  0  0  0  0
 18 17  1  6  0  0  0
 18 26  1  0  0  0  0
 18 27  1  0  0  0  0
 19 14  1  1  0  0  0
 23  7  1  0  0  0  0
 24 15  1  0  0  0  0
 25 20  1  1  0  0  0
 25  5  1  0  0  0  0
 25 22  1  0  0  0  0
 26 12  1  0  0  0  0
 27 21  1  6  0  0  0
 27  2  1  0  0  0  0
 29 28  1  6  0  0  0
 29  8  1  0  0  0  0
 30 31  1  6  0  0  0
 30 29  1  0  0  0  0
 32 30  1  0  0  0  0
 34 33  1  0  0  0  0
 35 34  1  0  0  0  0
 36 34  1  0  0  0  0
 37 45  1  6  0  0  0
 37 39  1  0  0  0  0
 38 41  1  0  0  0  0
 38 39  1  0  0  0  0
 40 38  2  0  0  0  0
 41 42  1  1  0  0  0
 43 41  1  0  0  0  0
 44 43  1  0  0  0  0
 45 46  1  0  0  0  0
M  END
>  <MODEL>
6

>  <REMARK>
 VINA RESULT:      -6.6      3.665      9.316
  Name = 
  9 active torsions:
  status: ('A' for Active; 'I' for Inactive)
    1  A    between atoms: C_1  and  C_2
    2  A    between atoms: C_2  and  C_5
    3  A    between atoms: C_3  and  C_12
    4  A    between atoms: C_3  and  C_29
    5  A    between atoms: C_3  and  N_31
    6  A    between atoms: C_6  and  C_34
    7  A    between atoms: C_10  and  C_18
    8  A    between atoms: N_16  and  C_34
    9  A    between atoms: C_17  and  C_18
                            x       y       z     vdW  Elec       q    Type
                         _______ _______ _______ _____ _____    ______ ____

>  <TORSDO>
F 9

$$$$
=
 OpenBabel11062419493D

 46 50  0  0  1  0  0  0  0  0999 V2000
  193.4210  174.7090  142.3870 C   0  0  0  0  0  0  0  0  0  0  0  0
  192.4550  172.0450  137.9300 C   0  0  2  0  0  3  0  0  0  0  0  0
  188.3100  173.5360  139.7050 O   0  0  0  0  0  0  0  0  0  0  0  0
  189.5920  173.4630  140.4900 S   0  0  0  0  0  0  0  0  0  0  0  0
  190.9950  173.5610  139.4420 N   0  0  2  0  0  0  0  0  0  0  0  0
  189.6350  172.1690  141.2540 O   0  0  0  0  0  0  0  0  0  0  0  0
  193.7970  174.6860  143.8280 C   0  0  0  0  0  2  0  0  0  0  0  0
  195.7240  171.8580  138.5530 N   0  0  0  0  0  0  0  0  0  0  0  0
  195.6430  174.2920  142.4740 N   0  0  0  0  0  0  0  0  0  0  0  0
  195.1930  172.6740  136.4140 O   0  0  0  0  0  0  0  0  0  0  0  0
  189.6420  174.8250  141.6610 C   0  0  2  0  0  3  0  0  0  0  0  0
  194.4990  174.4820  141.6600 C   0  0  0  0  0  0  0  0  0  0  0  0
  190.9110  174.8050  142.4260 C   0  0  0  0  0  0  0  0  0  0  0  0
  187.2990  175.3720  142.3900 C   0  0  0  0  0  1  0  0  0  0  0  0
  189.2270  174.9600  144.1000 C   0  0  1  0  0  3  0  0  0  0  0  0
  192.0850  174.8350  141.8010 C   0  0  0  0  0  3  0  0  0  0  0  0
  195.1340  171.9510  139.8760 C   0  0  0  0  0  2  0  0  0  0  0  0
  193.9850  172.9640  139.7370 C   0  0  1  0  0  3  0  0  0  0  0  0
  188.5830  174.6290  142.7330 C   0  0  2  0  0  3  0  0  0  0  0  0
  190.0850  171.4620  138.5740 O   0  0  0  0  0  1  0  0  0  0  0  0
  194.8840  172.5140  137.6250 C   0  0  0  0  0  0  0  0  0  0  0  0
  190.5410  173.7530  138.0470 C   0  0  0  0  0  2  0  0  0  0  0  0
  195.2650  174.4090  143.7070 C   0  0  0  0  0  3  0  0  0  0  0  0
  190.7170  174.6930  143.8910 C   0  0  0  0  0  2  0  0  0  0  0  0
  191.0640  172.4570  138.4570 C   0  0  2  0  0  0  0  0  0  0  0  0
  194.5040  174.3370  140.1670 C   0  0  0  0  0  2  0  0  0  0  0  0
  193.6240  173.0150  138.2380 C   0  0  1  0  0  3  0  0  0  0  0  0
  197.9360  171.4050  139.2160 O   0  0  0  0  0  1  0  0  0  0  0  0
  196.9750  171.1790  138.2250 C   0  0  1  0  0  3  0  0  0  0  0  0
  196.7370  169.6820  138.0360 C   0  0  1  0  0  3  0  0  0  0  0  0
  196.5410  169.3560  136.5660 C   0  0  0  0  0  1  0  0  0  0  0  0
  197.8070  168.9410  138.5470 O   0  0  0  0  0  1  0  0  0  0  0  0
  192.3480  171.7310  136.4350 C   0  0  0  0  0  2  0  0  0  0  0  0
  192.4890  170.2400  136.1790 C   0  0  0  0  0  3  0  0  0  0  0  0
  192.8380  169.5400  137.4750 C   0  0  0  0  0  1  0  0  0  0  0  0
  191.1870  169.6800  135.6450 C   0  0  0  0  0  1  0  0  0  0  0  0
  189.0080  176.4180  144.5680 C   0  0  1  0  0  3  0  0  0  0  0  0
  186.9480  177.3270  145.7340 C   0  0  0  0  0  0  0  0  0  0  0  0
  188.0850  176.4590  145.6970 N   0  0  0  0  0  2  0  0  0  0  0  0
  186.6950  178.0900  144.7660 O   0  0  0  0  0  0  0  0  0  0  0  0
  186.0460  177.3290  146.9200 C   0  0  2  0  0  3  0  0  0  0  0  0
  184.7180  177.4200  146.5050 O   0  0  0  0  0  1  0  0  0  0  0  0
  186.3850  178.4900  147.8390 C   0  0  0  0  0  2  0  0  0  0  0  0
  185.8520  179.6610  147.3330 F   0  0  0  0  0  0  0  0  0  0  0  0
  190.3170  177.1290  144.9420 C   0  0  0  0  0  2  0  0  0  0  0  0
  190.6350  178.2790  144.0000 C   0  0  0  0  0  1  0  0  0  0  0  0
  1  7  1  0  0  0  0
  2 33  1  6  0  0  0
  2 27  1  0  0  0  0
  2 25  1  0  0  0  0
  3  4  2  0  0  0  0
  4  6  2  0  0  0  0
  4 11  1  0  0  0  0
  5 22  1  6  0  0  0
  5  4  1  0  0  0  0
  8 17  1  0  0  0  0
  9 23  2  0  0  0  0
 10 21  2  0  0  0  0
 11 13  1  1  0  0  0
 11 19  1  0  0  0  0
 12  1  2  0  0  0  0
 12  9  1  0  0  0  0
 13 24  1  0  0  0  0
 15 37  1  6  0  0  0
 16  1  1  0  0  0  0
 16 13  2  0  0  0  0
 18 17  1  6  0  0  0
 18 26  1  0  0  0  0
 19 14  1  6  0  0  0
 19 15  1  0  0  0  0
 21  8  1  0  0  0  0
 22 25  1  0  0  0  0
 23  7  1  0  0  0  0
 24 15  1  0  0  0  0
 25 20  1  1  0  0  0
 25  5  1  0  0  0  0
 26 12  1  0  0  0  0
 27 21  1  6  0  0  0
 27 18  1  0  0  0  0
 29  8  1  0  0  0  0
 29 28  1  1  0  0  0
 30 31  1  6  0  0  0
 30 29  1  0  0  0  0
 30 32  1  0  0  0  0
 34 33  1  0  0  0  0
 34 35  1  0  0  0  0
 36 34  1  0  0  0  0
 37 45  1  1  0  0  0
 37 39  1  0  0  0  0
 38 41  1  0  0  0  0
 39 38  1  0  0  0  0
 40 38  2  0  0  0  0
 41 42  1  6  0  0  0
 41 43  1  0  0  0  0
 44 43  1  0  0  0  0
 46 45  1  0  0  0  0
M  END
>  <MODEL>
7

>  <REMARK>
 VINA RESULT:      -6.6      4.184     10.475
  Name = 
  9 active torsions:
  status: ('A' for Active; 'I' for Inactive)
    1  A    between atoms: C_1  and  C_2
    2  A    between atoms: C_2  and  C_5
    3  A    between atoms: C_3  and  C_12
    4  A    between atoms: C_3  and  C_29
    5  A    between atoms: C_3  and  N_31
    6  A    between atoms: C_6  and  C_34
    7  A    between atoms: C_10  and  C_18
    8  A    between atoms: N_16  and  C_34
    9  A    between atoms: C_17  and  C_18
                            x       y       z     vdW  Elec       q    Type
                         _______ _______ _______ _____ _____    ______ ____

>  <TORSDO>
F 9

$$$$
=
 OpenBabel11062419493D

 46 50  0  0  1  0  0  0  0  0999 V2000
  189.5690  174.1540  142.1930 C   0  0  0  0  0  0  0  0  0  0  0  0
  194.3960  173.0640  144.0380 C   0  0  2  0  0  3  0  0  0  0  0  0
  192.4150  176.3190  146.8730 O   0  0  0  0  0  0  0  0  0  0  0  0
  191.9320  175.9960  145.4850 S   0  0  0  0  0  0  0  0  0  0  0  0
  192.3780  174.3670  145.0110 N   0  0  2  0  0  0  0  0  0  0  0  0
  192.5250  176.9750  144.5100 O   0  0  0  0  0  0  0  0  0  0  0  0
  188.7180  174.8230  141.1700 C   0  0  0  0  0  3  0  0  0  0  0  0
  193.9730  171.3700  141.1990 N   0  0  0  0  0  0  0  0  0  0  0  0
  189.7130  172.9080  140.3100 N   0  0  0  0  0  0  0  0  0  0  0  0
  194.6030  170.0420  143.0320 O   0  0  0  0  0  0  0  0  0  0  0  0
  190.1420  176.1480  145.4360 C   0  0  2  0  0  3  0  0  0  0  0  0
  190.1100  173.0750  141.6600 C   0  0  1  0  0  3  0  0  0  0  0  0
  189.6280  175.7990  144.0900 C   0  0  0  0  0  0  0  0  0  0  0  0
  189.4220  177.9360  147.0500 C   0  0  0  0  0  1  0  0  0  0  0  0
  188.6280  177.9060  144.5650 C   0  0  1  0  0  3  0  0  0  0  0  0
  189.8960  174.6160  143.5430 C   0  0  0  0  0  3  0  0  0  0  0  0
  193.1590  172.5570  141.0080 C   0  0  0  0  0  2  0  0  0  0  0  0
  192.4960  172.8180  142.3700 C   0  0  1  0  0  3  0  0  0  0  0  0
  189.7390  177.6050  145.5990 C   0  0  2  0  0  3  0  0  0  0  0  0
  194.6400  175.2740  145.2330 O   0  0  0  0  0  1  0  0  0  0  0  0
  194.0410  171.0740  142.5790 C   0  0  0  0  0  0  0  0  0  0  0  0
  193.0710  173.7100  146.1420 C   0  0  0  0  0  2  0  0  0  0  0  0
  188.9190  173.8890  140.0160 C   0  0  0  0  0  3  0  0  0  0  0  0
  188.8720  176.8970  143.4420 C   0  0  0  0  0  2  0  0  0  0  0  0
  193.8430  174.1490  144.9870 C   0  0  2  0  0  0  0  0  0  0  0  0
  191.1030  172.1890  142.3530 C   0  0  0  0  0  2  0  0  0  0  0  0
  193.3580  172.0910  143.4240 C   0  0  1  0  0  3  0  0  0  0  0  0
  193.6960  170.1010  139.2370 O   0  0  0  0  0  1  0  0  0  0  0  0
  194.6340  170.6120  140.1400 C   0  0  1  0  0  3  0  0  0  0  0  0
  195.6590  171.4850  139.4170 C   0  0  1  0  0  3  0  0  0  0  0  0
  196.8170  171.8190  140.3400 C   0  0  0  0  0  1  0  0  0  0  0  0
  196.1360  170.8430  138.2710 O   0  0  0  0  0  1  0  0  0  0  0  0
  195.5330  172.3190  144.7430 C   0  0  0  0  0  2  0  0  0  0  0  0
  196.8820  172.7010  144.1570 C   0  0  0  0  0  3  0  0  0  0  0  0
  197.5780  173.6680  145.0900 C   0  0  0  0  0  1  0  0  0  0  0  0
  197.7420  171.4660  143.9860 C   0  0  0  0  0  1  0  0  0  0  0  0
  187.1910  177.7540  145.1150 C   0  0  1  0  0  3  0  0  0  0  0  0
  185.6340  178.8360  143.4310 C   0  0  0  0  0  0  0  0  0  0  0  0
  186.2290  177.6760  144.0210 N   0  0  0  0  0  2  0  0  0  0  0  0
  185.9380  179.9870  143.8390 O   0  0  0  0  0  0  0  0  0  0  0  0
  184.6520  178.6910  142.3200 C   0  0  2  0  0  3  0  0  0  0  0  0
  183.4950  178.0690  142.7890 O   0  0  0  0  0  1  0  0  0  0  0  0
  185.2550  177.8810  141.1850 C   0  0  0  0  0  2  0  0  0  0  0  0
  186.5470  178.3050  140.9400 F   0  0  0  0  0  0  0  0  0  0  0  0
  187.0290  176.5360  146.0350 C   0  0  0  0  0  2  0  0  0  0  0  0
  185.9470  176.7460  147.0830 C   0  0  0  0  0  1  0  0  0  0  0  0
  1 16  1  0  0  0  0
  2 33  1  1  0  0  0
  2 25  1  0  0  0  0
  4  3  2  0  0  0  0
  5  4  1  0  0  0  0
  5 22  1  1  0  0  0
  6  4  2  0  0  0  0
  7  1  2  0  0  0  0
  8 21  1  0  0  0  0
  9 12  1  0  0  0  0
 11 13  1  6  0  0  0
 11  4  1  0  0  0  0
 11 19  1  0  0  0  0
 12  1  1  0  0  0  0
 12 26  1  6  0  0  0
 15 37  1  1  0  0  0
 15 19  1  0  0  0  0
 16 13  2  0  0  0  0
 17  8  1  0  0  0  0
 18 17  1  6  0  0  0
 18 27  1  0  0  0  0
 19 14  1  1  0  0  0
 21 10  2  0  0  0  0
 23  9  2  0  0  0  0
 23  7  1  0  0  0  0
 24 13  1  0  0  0  0
 24 15  1  0  0  0  0
 25  5  1  0  0  0  0
 25 20  1  1  0  0  0
 25 22  1  0  0  0  0
 26 18  1  0  0  0  0
 27 21  1  6  0  0  0
 27  2  1  0  0  0  0
 29 28  1  6  0  0  0
 29  8  1  0  0  0  0
 30 29  1  0  0  0  0
 30 31  1  1  0  0  0
 32 30  1  0  0  0  0
 34 33  1  0  0  0  0
 34 35  1  0  0  0  0
 36 34  1  0  0  0  0
 37 45  1  6  0  0  0
 38 40  2  0  0  0  0
 38 39  1  0  0  0  0
 39 37  1  0  0  0  0
 41 42  1  1  0  0  0
 41 38  1  0  0  0  0
 43 41  1  0  0  0  0
 44 43  1  0  0  0  0
 45 46  1  0  0  0  0
M  END
>  <MODEL>
8

>  <REMARK>
 VINA RESULT:      -6.6      2.842      9.591
  Name = 
  9 active torsions:
  status: ('A' for Active; 'I' for Inactive)
    1  A    between atoms: C_1  and  C_2
    2  A    between atoms: C_2  and  C_5
    3  A    between atoms: C_3  and  C_12
    4  A    between atoms: C_3  and  C_29
    5  A    between atoms: C_3  and  N_31
    6  A    between atoms: C_6  and  C_34
    7  A    between atoms: C_10  and  C_18
    8  A    between atoms: N_16  and  C_34
    9  A    between atoms: C_17  and  C_18
                            x       y       z     vdW  Elec       q    Type
                         _______ _______ _______ _____ _____    ______ ____

>  <TORSDO>
F 9

$$$$
=
 OpenBabel11062419493D

 46 50  0  0  1  0  0  0  0  0999 V2000
  190.4510  173.7490  141.4030 C   0  0  0  0  0  0  0  0  0  0  0  0
  195.3430  173.8240  143.3940 C   0  0  2  0  0  3  0  0  0  0  0  0
  192.5570  176.4740  146.1820 O   0  0  0  0  0  0  0  0  0  0  0  0
  192.2060  176.0620  144.7780 S   0  0  0  0  0  0  0  0  0  0  0  0
  193.0440  174.5940  144.3090 N   0  0  2  0  0  0  0  0  0  0  0  0
  192.5760  177.1670  143.8270 O   0  0  0  0  0  0  0  0  0  0  0  0
  189.4940  174.2080  140.3580 C   0  0  0  0  0  3  0  0  0  0  0  0
  195.4210  172.1140  140.5340 N   0  0  0  0  0  0  0  0  0  0  0  0
  190.9440  172.5980  139.5190 N   0  0  0  0  0  0  0  0  0  0  0  0
  196.2980  170.9520  142.3790 O   0  0  0  0  0  0  0  0  0  0  0  0
  190.4340  175.7820  144.6730 C   0  0  2  0  0  3  0  0  0  0  0  0
  191.2510  172.8380  140.8820 C   0  0  1  0  0  3  0  0  0  0  0  0
  190.0590  175.3370  143.3100 C   0  0  0  0  0  0  0  0  0  0  0  0
  189.2600  177.3250  146.2730 C   0  0  0  0  0  1  0  0  0  0  0  0
  188.5690  177.1360  143.7640 C   0  0  1  0  0  3  0  0  0  0  0  0
  190.6180  174.2590  142.7660 C   0  0  0  0  0  3  0  0  0  0  0  0
  194.3530  173.0740  140.3230 C   0  0  0  0  0  2  0  0  0  0  0  0
  193.6070  173.1510  141.6660 C   0  0  1  0  0  3  0  0  0  0  0  0
  189.6890  177.0970  144.8310 C   0  0  2  0  0  3  0  0  0  0  0  0
  195.0150  176.0130  144.6060 O   0  0  0  0  0  1  0  0  0  0  0  0
  195.5180  171.8260  141.9130 C   0  0  0  0  0  0  0  0  0  0  0  0
  193.8400  174.1080  145.4580 C   0  0  0  0  0  2  0  0  0  0  0  0
  189.9480  173.3630  139.2060 C   0  0  0  0  0  3  0  0  0  0  0  0
  189.0800  176.2300  142.6450 C   0  0  0  0  0  2  0  0  0  0  0  0
  194.5180  174.7330  144.3300 C   0  0  2  0  0  0  0  0  0  0  0  0
  192.4060  172.2070  141.6010 C   0  0  0  0  0  2  0  0  0  0  0  0
  194.5870  172.6390  142.7420 C   0  0  1  0  0  3  0  0  0  0  0  0
  195.5320  171.2690  138.3400 O   0  0  0  0  0  1  0  0  0  0  0  0
  196.2750  171.5500  139.4920 C   0  0  1  0  0  3  0  0  0  0  0  0
  197.4280  172.5000  139.1720 C   0  0  1  0  0  3  0  0  0  0  0  0
  197.0090  173.5100  138.1190 C   0  0  0  0  0  1  0  0  0  0  0  0
  197.8550  173.1660  140.3250 O   0  0  0  0  0  1  0  0  0  0  0  0
  196.6040  173.3650  144.1300 C   0  0  0  0  0  2  0  0  0  0  0  0
  196.2900  172.9920  145.5690 C   0  0  0  0  0  3  0  0  0  0  0  0
  196.5170  171.5070  145.7620 C   0  0  0  0  0  1  0  0  0  0  0  0
  197.1910  173.7600  146.5130 C   0  0  0  0  0  1  0  0  0  0  0  0
  187.1950  176.6390  144.2680 C   0  0  1  0  0  3  0  0  0  0  0  0
  185.6130  177.4680  146.0670 C   0  0  0  0  0  0  0  0  0  0  0  0
  186.4840  177.7090  144.9580 N   0  0  0  0  0  2  0  0  0  0  0  0
  185.4370  176.2990  146.4990 O   0  0  0  0  0  0  0  0  0  0  0  0
  184.9080  178.6030  146.7270 C   0  0  2  0  0  3  0  0  0  0  0  0
  184.3130  179.4160  145.7620 O   0  0  0  0  0  1  0  0  0  0  0  0
  185.8830  179.4160  147.5620 C   0  0  0  0  0  2  0  0  0  0  0  0
  186.7280  178.5680  148.2540 F   0  0  0  0  0  0  0  0  0  0  0  0
  186.3150  176.0730  143.1430 C   0  0  0  0  0  2  0  0  0  0  0  0
  185.5660  177.1660  142.3950 C   0  0  0  0  0  1  0  0  0  0  0  0
  1 16  1  0  0  0  0
  2 33  1  1  0  0  0
  2 25  1  0  0  0  0
  4  3  2  0  0  0  0
  5 25  1  0  0  0  0
  5  4  1  0  0  0  0
  5 22  1  1  0  0  0
  6  4  2  0  0  0  0
  7  1  2  0  0  0  0
  8 21  1  0  0  0  0
  9 12  1  0  0  0  0
 11 13  1  6  0  0  0
 11  4  1  0  0  0  0
 11 19  1  0  0  0  0
 12  1  1  0  0  0  0
 12 26  1  6  0  0  0
 15 37  1  1  0  0  0
 15 19  1  0  0  0  0
 16 13  2  0  0  0  0
 17  8  1  0  0  0  0
 18 17  1  6  0  0  0
 18 27  1  0  0  0  0
 19 14  1  1  0  0  0
 21 10  2  0  0  0  0
 23  9  2  0  0  0  0
 23  7  1  0  0  0  0
 24 13  1  0  0  0  0
 24 15  1  0  0  0  0
 25 20  1  1  0  0  0
 25 22  1  0  0  0  0
 26 18  1  0  0  0  0
 27 21  1  6  0  0  0
 27  2  1  0  0  0  0
 29 28  1  6  0  0  0
 29  8  1  0  0  0  0
 30 31  1  6  0  0  0
 30 29  1  0  0  0  0
 30 32  1  0  0  0  0
 33 34  1  0  0  0  0
 34 35  1  0  0  0  0
 34 36  1  0  0  0  0
 37 45  1  6  0  0  0
 37 39  1  0  0  0  0
 38 40  2  0  0  0  0
 38 41  1  0  0  0  0
 39 38  1  0  0  0  0
 41 42  1  6  0  0  0
 41 43  1  0  0  0  0
 43 44  1  0  0  0  0
 46 45  1  0  0  0  0
M  END
>  <MODEL>
9

>  <REMARK>
 VINA RESULT:      -6.4      2.958      9.646
  Name = 
  9 active torsions:
  status: ('A' for Active; 'I' for Inactive)
    1  A    between atoms: C_1  and  C_2
    2  A    between atoms: C_2  and  C_5
    3  A    between atoms: C_3  and  C_12
    4  A    between atoms: C_3  and  C_29
    5  A    between atoms: C_3  and  N_31
    6  A    between atoms: C_6  and  C_34
    7  A    between atoms: C_10  and  C_18
    8  A    between atoms: N_16  and  C_34
    9  A    between atoms: C_17  and  C_18
                            x       y       z     vdW  Elec       q    Type
                         _______ _______ _______ _____ _____    ______ ____

>  <TORSDO>
F 9

$$$$
