=
 OpenBabel11062422453D

 29 30  0  0  1  0  0  0  0  0999 V2000
  189.4370  175.8810  143.4770 C   0  0  2  0  0  3  0  0  0  0  0  0
  191.3450  175.3020  148.5620 O   0  0  0  0  0  0  0  0  0  0  0  0
  188.9030  175.8080  145.9700 C   0  0  1  0  0  3  0  0  0  0  0  0
  190.8330  175.2150  147.4560 C   0  0  0  0  0  0  0  0  0  0  0  0
  189.3360  175.2240  147.3200 C   0  0  2  0  0  3  0  0  0  0  0  0
  191.1710  175.8420  145.1730 O   0  0  0  0  0  0  0  0  0  0  0  0
  188.8540  177.2010  146.0590 O   0  0  0  0  0  1  0  0  0  0  0  0
  189.8790  175.3760  144.8590 C   0  0  2  0  0  3  0  0  0  0  0  0
  188.8550  173.9340  147.4460 F   0  0  0  0  0  0  0  0  0  0  0  0
  191.6650  175.0150  146.2010 C   0  0  1  0  0  3  0  0  0  0  0  0
  193.4030  176.6600  146.3950 O   0  0  0  0  0  1  0  0  0  0  0  0
  193.1560  175.2830  146.4230 C   0  0  2  0  0  3  0  0  0  0  0  0
  193.9760  174.6000  145.3350 C   0  0  0  0  0  2  0  0  0  0  0  0
  196.3400  174.0660  145.9400 C   0  0  0  0  0  1  0  0  0  0  0  0
  195.4110  175.1000  145.3340 C   0  0  0  0  0  2  0  0  0  0  0  0
  189.0190  174.7120  142.5790 C   0  0  2  0  0  3  0  0  0  0  0  0
  190.0130  174.4230  141.6370 O   0  0  0  0  0  1  0  0  0  0  0  0
  187.6950  175.0120  141.8840 C   0  0  0  0  0  2  0  0  0  0  0  0
  186.7450  175.7480  142.8150 C   0  0  0  0  0  2  0  0  0  0  0  0
  186.1280  176.8020  142.1360 O   0  0  0  0  0  0  0  0  0  0  0  0
  185.7360  176.8920  144.4930 C   0  0  0  0  0  2  0  0  0  0  0  0
  185.5910  179.1390  145.5920 C   0  0  0  0  0  2  0  0  0  0  0  0
  185.3490  179.7900  144.2320 C   0  0  0  0  0  2  0  0  0  0  0  0
  185.0610  177.7060  145.5950 C   0  0  0  0  0  2  0  0  0  0  0  0
  185.4890  177.5430  143.1320 C   0  0  0  0  0  3  0  0  0  0  0  0
  186.0250  178.9740  143.1310 C   0  0  0  0  0  2  0  0  0  0  0  0
  190.5380  176.7100  142.8130 C   0  0  0  0  0  2  0  0  0  0  0  0
  190.1220  178.1650  142.7240 C   0  0  0  0  0  2  0  0  0  0  0  0
  189.0990  178.2990  141.7870 O   0  0  0  0  0  1  0  0  0  0  0  0
  1 27  1  6  0  0  0
  3  7  1  1  0  0  0
  3  5  1  0  0  0  0
  4  2  2  0  0  0  0
  5  9  1  6  0  0  0
  5  4  1  0  0  0  0
  6 10  1  0  0  0  0
  8  1  1  6  0  0  0
  8  6  1  0  0  0  0
  8  3  1  0  0  0  0
 10 12  1  1  0  0  0
 10  4  1  0  0  0  0
 12 11  1  6  0  0  0
 13 12  1  0  0  0  0
 15 13  1  0  0  0  0
 15 14  1  0  0  0  0
 16 17  1  6  0  0  0
 16  1  1  0  0  0  0
 18 16  1  0  0  0  0
 18 19  1  0  0  0  0
 20 19  1  0  0  0  0
 20 25  1  0  0  0  0
 21 24  1  0  0  0  0
 22 24  1  0  0  0  0
 23 22  1  0  0  0  0
 25 21  1  0  0  0  0
 26 25  1  0  0  0  0
 26 23  1  0  0  0  0
 28 27  1  0  0  0  0
 29 28  1  0  0  0  0
M  END
>  <MODEL>
1

>  <REMARK>
 VINA RESULT:      -6.4      0.000      0.000
  Name = 
  11 active torsions:
  status: ('A' for Active; 'I' for Inactive)
    1  A    between atoms: C_3  and  C_7
    2  A    between atoms: C_3  and  C_12
    3  A    between atoms: C_7  and  O_22
    4  A    between atoms: C_9  and  C_26
    5  A    between atoms: C_10  and  C_23
    6  A    between atoms: C_12  and  C_29
    7  A    between atoms: C_20  and  C_29
    8  A    between atoms: C_21  and  O_22
    9  A    between atoms: C_23  and  C_27
   10  A    between atoms: C_25  and  C_27
   11  A    between atoms: C_26  and  C_29
                            x       y       z     vdW  Elec       q    Type
                         _______ _______ _______ _____ _____    ______ ____

>  <TORSDO>
F 11

$$$$
=
 OpenBabel11062422453D

 29 30  0  0  1  0  0  0  0  0999 V2000
  191.0090  175.4800  144.8850 C   0  0  2  0  0  3  0  0  0  0  0  0
  188.4100  174.4040  140.2020 O   0  0  0  0  0  0  0  0  0  0  0  0
  190.6540  173.8450  142.9580 C   0  0  1  0  0  3  0  0  0  0  0  0
  188.8480  174.4830  141.3410 C   0  0  0  0  0  0  0  0  0  0  0  0
  189.6430  173.3460  141.9190 C   0  0  2  0  0  3  0  0  0  0  0  0
  189.7160  176.0590  142.9160 O   0  0  0  0  0  0  0  0  0  0  0  0
  191.8180  174.2660  142.3110 O   0  0  0  0  0  1  0  0  0  0  0  0
  190.0520  175.0000  143.7820 C   0  0  2  0  0  3  0  0  0  0  0  0
  188.7830  172.4350  142.5060 F   0  0  0  0  0  0  0  0  0  0  0  0
  188.5440  175.6730  142.2350 C   0  0  1  0  0  3  0  0  0  0  0  0
  188.5870  178.0470  141.8800 O   0  0  0  0  0  1  0  0  0  0  0  0
  187.9640  176.8640  141.4680 C   0  0  2  0  0  3  0  0  0  0  0  0
  186.4640  176.9670  141.7230 C   0  0  0  0  0  2  0  0  0  0  0  0
  184.6150  178.2300  140.6160 C   0  0  0  0  0  1  0  0  0  0  0  0
  185.9380  178.3430  141.3490 C   0  0  0  0  0  2  0  0  0  0  0  0
  190.2970  175.5250  146.2410 C   0  0  2  0  0  3  0  0  0  0  0  0
  189.1150  174.7770  146.2110 O   0  0  0  0  0  1  0  0  0  0  0  0
  190.0080  176.9650  146.6510 C   0  0  0  0  0  2  0  0  0  0  0  0
  188.5200  177.2670  146.5710 C   0  0  0  0  0  2  0  0  0  0  0  0
  188.1850  177.6890  145.2820 O   0  0  0  0  0  0  0  0  0  0  0  0
  186.2560  177.1450  146.5860 C   0  0  0  0  0  2  0  0  0  0  0  0
  184.1550  178.4570  146.2120 C   0  0  0  0  0  2  0  0  0  0  0  0
  184.6920  178.9330  144.8640 C   0  0  0  0  0  2  0  0  0  0  0  0
  184.7300  177.0840  146.5550 C   0  0  0  0  0  2  0  0  0  0  0  0
  186.7900  177.6180  145.2350 C   0  0  0  0  0  3  0  0  0  0  0  0
  186.2180  178.9940  144.8970 C   0  0  0  0  0  2  0  0  0  0  0  0
  191.6110  176.8420  144.5400 C   0  0  0  0  0  2  0  0  0  0  0  0
  193.1240  176.7910  144.6360 C   0  0  0  0  0  2  0  0  0  0  0  0
  193.5300  175.4740  144.8490 O   0  0  0  0  0  1  0  0  0  0  0  0
  1 27  1  6  0  0  0
  1 16  1  0  0  0  0
  2  4  2  0  0  0  0
  3  7  1  6  0  0  0
  3  8  1  0  0  0  0
  4  5  1  0  0  0  0
  4 10  1  0  0  0  0
  5  9  1  1  0  0  0
  5  3  1  0  0  0  0
  6  8  1  0  0  0  0
  8  1  1  1  0  0  0
 10 12  1  6  0  0  0
 10  6  1  0  0  0  0
 12 13  1  0  0  0  0
 12 11  1  1  0  0  0
 14 15  1  0  0  0  0
 15 13  1  0  0  0  0
 16 17  1  6  0  0  0
 16 18  1  0  0  0  0
 19 18  1  0  0  0  0
 20 19  1  0  0  0  0
 22 24  1  0  0  0  0
 23 26  1  0  0  0  0
 23 22  1  0  0  0  0
 24 21  1  0  0  0  0
 25 20  1  0  0  0  0
 25 21  1  0  0  0  0
 26 25  1  0  0  0  0
 27 28  1  0  0  0  0
 28 29  1  0  0  0  0
M  END
>  <MODEL>
2

>  <REMARK>
 VINA RESULT:      -6.4      2.194      5.634
  Name = 
  11 active torsions:
  status: ('A' for Active; 'I' for Inactive)
    1  A    between atoms: C_3  and  C_7
    2  A    between atoms: C_3  and  C_12
    3  A    between atoms: C_7  and  O_22
    4  A    between atoms: C_9  and  C_26
    5  A    between atoms: C_10  and  C_23
    6  A    between atoms: C_12  and  C_29
    7  A    between atoms: C_20  and  C_29
    8  A    between atoms: C_21  and  O_22
    9  A    between atoms: C_23  and  C_27
   10  A    between atoms: C_25  and  C_27
   11  A    between atoms: C_26  and  C_29
                            x       y       z     vdW  Elec       q    Type
                         _______ _______ _______ _____ _____    ______ ____

>  <TORSDO>
F 11

$$$$
=
 OpenBabel11062422453D

 29 30  0  0  1  0  0  0  0  0999 V2000
  191.1980  175.1780  145.8790 C   0  0  2  0  0  3  0  0  0  0  0  0
  188.9720  173.3810  141.2260 O   0  0  0  0  0  0  0  0  0  0  0  0
  190.8720  173.2200  144.2760 C   0  0  1  0  0  3  0  0  0  0  0  0
  189.3030  173.6550  142.3700 C   0  0  0  0  0  0  0  0  0  0  0  0
  189.9230  172.6010  143.2440 C   0  0  2  0  0  3  0  0  0  0  0  0
  190.1660  175.4450  143.7000 O   0  0  0  0  0  0  0  0  0  0  0  0
  192.1290  173.4100  143.6970 O   0  0  0  0  0  1  0  0  0  0  0  0
  190.3110  174.5610  144.7870 C   0  0  2  0  0  3  0  0  0  0  0  0
  188.9240  171.8970  143.8930 F   0  0  0  0  0  0  0  0  0  0  0  0
  189.0330  175.0210  142.9760 C   0  0  1  0  0  3  0  0  0  0  0  0
  189.2500  177.2980  142.2470 O   0  0  0  0  0  1  0  0  0  0  0  0
  188.6500  176.0740  141.9330 C   0  0  2  0  0  3  0  0  0  0  0  0
  187.1360  176.2470  141.8980 C   0  0  0  0  0  2  0  0  0  0  0  0
  185.5840  178.0820  141.2160 C   0  0  0  0  0  1  0  0  0  0  0  0
  186.7150  177.1740  140.7700 C   0  0  0  0  0  2  0  0  0  0  0  0
  190.3630  175.5700  147.1030 C   0  0  2  0  0  3  0  0  0  0  0  0
  191.0140  175.2110  148.2880 O   0  0  0  0  0  1  0  0  0  0  0  0
  188.9790  174.9350  147.0380 C   0  0  0  0  0  2  0  0  0  0  0  0
  187.8900  175.9940  147.0720 C   0  0  0  0  0  2  0  0  0  0  0  0
  187.9190  176.7520  145.8980 O   0  0  0  0  0  0  0  0  0  0  0  0
  186.6850  178.4340  144.7300 C   0  0  0  0  0  2  0  0  0  0  0  0
  184.2470  178.6980  145.2450 C   0  0  0  0  0  2  0  0  0  0  0  0
  184.4410  177.9330  146.5530 C   0  0  0  0  0  2  0  0  0  0  0  0
  185.5340  179.4280  144.8650 C   0  0  0  0  0  2  0  0  0  0  0  0
  186.8790  177.6730  146.0410 C   0  0  0  0  0  3  0  0  0  0  0  0
  185.5920  176.9380  146.4160 C   0  0  0  0  0  2  0  0  0  0  0  0
  191.9770  176.3800  145.3440 C   0  0  0  0  0  2  0  0  0  0  0  0
  193.3630  176.4270  145.9580 C   0  0  0  0  0  2  0  0  0  0  0  0
  193.8200  175.1280  146.1720 O   0  0  0  0  0  1  0  0  0  0  0  0
  1 27  1  6  0  0  0
  1 16  1  0  0  0  0
  2  4  2  0  0  0  0
  3  7  1  6  0  0  0
  3  8  1  0  0  0  0
  4 10  1  0  0  0  0
  4  5  1  0  0  0  0
  5  9  1  1  0  0  0
  5  3  1  0  0  0  0
  6  8  1  0  0  0  0
  8  1  1  1  0  0  0
 10 12  1  6  0  0  0
 10  6  1  0  0  0  0
 12 11  1  1  0  0  0
 13 12  1  0  0  0  0
 15 14  1  0  0  0  0
 15 13  1  0  0  0  0
 16 17  1  1  0  0  0
 18 19  1  0  0  0  0
 18 16  1  0  0  0  0
 20 25  1  0  0  0  0
 20 19  1  0  0  0  0
 21 24  1  0  0  0  0
 21 25  1  0  0  0  0
 22 23  1  0  0  0  0
 24 22  1  0  0  0  0
 25 26  1  0  0  0  0
 26 23  1  0  0  0  0
 27 28  1  0  0  0  0
 28 29  1  0  0  0  0
M  END
>  <MODEL>
3

>  <REMARK>
 VINA RESULT:      -6.4      1.833      5.458
  Name = 
  11 active torsions:
  status: ('A' for Active; 'I' for Inactive)
    1  A    between atoms: C_3  and  C_7
    2  A    between atoms: C_3  and  C_12
    3  A    between atoms: C_7  and  O_22
    4  A    between atoms: C_9  and  C_26
    5  A    between atoms: C_10  and  C_23
    6  A    between atoms: C_12  and  C_29
    7  A    between atoms: C_20  and  C_29
    8  A    between atoms: C_21  and  O_22
    9  A    between atoms: C_23  and  C_27
   10  A    between atoms: C_25  and  C_27
   11  A    between atoms: C_26  and  C_29
                            x       y       z     vdW  Elec       q    Type
                         _______ _______ _______ _____ _____    ______ ____

>  <TORSDO>
F 11

$$$$
=
 OpenBabel11062422453D

 29 30  0  0  1  0  0  0  0  0999 V2000
  188.4560  176.8990  146.3530 C   0  0  2  0  0  3  0  0  0  0  0  0
  187.9520  178.1600  141.0620 O   0  0  0  0  0  0  0  0  0  0  0  0
  189.5700  177.0070  144.0600 C   0  0  1  0  0  3  0  0  0  0  0  0
  188.0570  177.6560  142.1700 C   0  0  0  0  0  0  0  0  0  0  0  0
  189.3200  176.9350  142.5500 C   0  0  2  0  0  3  0  0  0  0  0  0
  187.4030  177.9720  144.4490 O   0  0  0  0  0  0  0  0  0  0  0  0
  190.2200  178.2050  144.3680 O   0  0  0  0  0  1  0  0  0  0  0  0
  188.2400  176.9060  144.8320 C   0  0  2  0  0  3  0  0  0  0  0  0
  189.2300  175.6120  142.1540 F   0  0  0  0  0  0  0  0  0  0  0  0
  186.9090  177.6630  143.1650 C   0  0  1  0  0  3  0  0  0  0  0  0
  185.8020  179.7390  143.6430 O   0  0  0  0  0  1  0  0  0  0  0  0
  185.7910  178.6360  142.7820 C   0  0  2  0  0  3  0  0  0  0  0  0
  184.4390  177.9380  142.8730 C   0  0  0  0  0  2  0  0  0  0  0  0
  184.3900  178.2150  140.3910 C   0  0  0  0  0  1  0  0  0  0  0  0
  183.5720  178.2630  141.6680 C   0  0  0  0  0  2  0  0  0  0  0  0
  189.4310  175.7900  146.7600 C   0  0  2  0  0  3  0  0  0  0  0  0
  188.7630  174.7560  147.4260 O   0  0  0  0  0  1  0  0  0  0  0  0
  190.5520  176.3480  147.6300 C   0  0  0  0  0  2  0  0  0  0  0  0
  191.8960  175.7610  147.2310 C   0  0  0  0  0  2  0  0  0  0  0  0
  192.4620  176.5120  146.1980 O   0  0  0  0  0  0  0  0  0  0  0  0
  194.7070  175.6890  146.2210 C   0  0  0  0  0  2  0  0  0  0  0  0
  195.1040  173.2930  145.6050 C   0  0  0  0  0  2  0  0  0  0  0  0
  193.7300  173.2350  144.9410 C   0  0  0  0  0  2  0  0  0  0  0  0
  195.6640  174.7130  145.5390 C   0  0  0  0  0  2  0  0  0  0  0  0
  193.3340  175.6320  145.5530 C   0  0  0  0  0  3  0  0  0  0  0  0
  192.7740  174.2110  145.6250 C   0  0  0  0  0  2  0  0  0  0  0  0
  187.1290  176.7590  147.0990 C   0  0  0  0  0  2  0  0  0  0  0  0
  186.7110  178.0910  147.6910 C   0  0  0  0  0  2  0  0  0  0  0  0
  185.4970  178.4860  147.1320 O   0  0  0  0  0  1  0  0  0  0  0  0
  1 16  1  0  0  0  0
  1 27  1  1  0  0  0
  2  4  2  0  0  0  0
  3  7  1  6  0  0  0
  3  8  1  0  0  0  0
  4  5  1  0  0  0  0
  4 10  1  0  0  0  0
  5  9  1  1  0  0  0
  5  3  1  0  0  0  0
  6  8  1  0  0  0  0
  8  1  1  1  0  0  0
 10 12  1  6  0  0  0
 10  6  1  0  0  0  0
 12 13  1  0  0  0  0
 12 11  1  1  0  0  0
 14 15  1  0  0  0  0
 15 13  1  0  0  0  0
 16 17  1  1  0  0  0
 16 18  1  0  0  0  0
 19 18  1  0  0  0  0
 20 19  1  0  0  0  0
 23 22  1  0  0  0  0
 23 26  1  0  0  0  0
 24 22  1  0  0  0  0
 24 21  1  0  0  0  0
 25 26  1  0  0  0  0
 25 20  1  0  0  0  0
 25 21  1  0  0  0  0
 27 28  1  0  0  0  0
 29 28  1  0  0  0  0
M  END
>  <MODEL>
4

>  <REMARK>
 VINA RESULT:      -6.2      2.148      7.819
  Name = 
  11 active torsions:
  status: ('A' for Active; 'I' for Inactive)
    1  A    between atoms: C_3  and  C_7
    2  A    between atoms: C_3  and  C_12
    3  A    between atoms: C_7  and  O_22
    4  A    between atoms: C_9  and  C_26
    5  A    between atoms: C_10  and  C_23
    6  A    between atoms: C_12  and  C_29
    7  A    between atoms: C_20  and  C_29
    8  A    between atoms: C_21  and  O_22
    9  A    between atoms: C_23  and  C_27
   10  A    between atoms: C_25  and  C_27
   11  A    between atoms: C_26  and  C_29
                            x       y       z     vdW  Elec       q    Type
                         _______ _______ _______ _____ _____    ______ ____

>  <TORSDO>
F 11

$$$$
=
 OpenBabel11062422453D

 29 30  0  0  1  0  0  0  0  0999 V2000
  190.7370  175.1220  145.5990 C   0  0  2  0  0  3  0  0  0  0  0  0
  196.0930  175.6730  144.6780 O   0  0  0  0  0  0  0  0  0  0  0  0
  192.7070  176.7160  145.2970 C   0  0  1  0  0  3  0  0  0  0  0  0
  194.9490  175.6120  145.1040 C   0  0  0  0  0  0  0  0  0  0  0  0
  194.2210  176.8720  145.4790 C   0  0  2  0  0  3  0  0  0  0  0  0
  192.9250  174.3570  144.8830 O   0  0  0  0  0  0  0  0  0  0  0  0
  192.3680  176.9740  143.9670 O   0  0  0  0  0  1  0  0  0  0  0  0
  192.2610  175.2960  145.6970 C   0  0  2  0  0  3  0  0  0  0  0  0
  194.5020  177.1910  146.7950 F   0  0  0  0  0  0  0  0  0  0  0  0
  194.2540  174.2840  145.3470 C   0  0  1  0  0  3  0  0  0  0  0  0
  194.0420  172.2230  144.1330 O   0  0  0  0  0  1  0  0  0  0  0  0
  194.9750  173.1020  144.6920 C   0  0  2  0  0  3  0  0  0  0  0  0
  195.8100  172.3610  145.7300 C   0  0  0  0  0  2  0  0  0  0  0  0
  197.2350  170.3100  145.6960 C   0  0  0  0  0  1  0  0  0  0  0  0
  197.0070  171.6800  145.0860 C   0  0  0  0  0  2  0  0  0  0  0  0
  190.0620  175.4720  146.9290 C   0  0  2  0  0  3  0  0  0  0  0  0
  189.1640  174.4700  147.3140 O   0  0  0  0  0  1  0  0  0  0  0  0
  189.3540  176.8190  146.8380 C   0  0  0  0  0  2  0  0  0  0  0  0
  188.9380  177.1210  145.4070 C   0  0  0  0  0  2  0  0  0  0  0  0
  187.6820  176.5670  145.1450 O   0  0  0  0  0  0  0  0  0  0  0  0
  186.4460  178.4940  144.4540 C   0  0  0  0  0  2  0  0  0  0  0  0
  184.1560  178.8460  145.4070 C   0  0  0  0  0  2  0  0  0  0  0  0
  184.4780  177.8750  146.5410 C   0  0  0  0  0  2  0  0  0  0  0  0
  185.4310  179.5340  144.9220 C   0  0  0  0  0  2  0  0  0  0  0  0
  186.7690  177.5260  145.5910 C   0  0  0  0  0  3  0  0  0  0  0  0
  185.4940  176.8350  146.0700 C   0  0  0  0  0  2  0  0  0  0  0  0
  190.3700  173.7050  145.1590 C   0  0  0  0  0  2  0  0  0  0  0  0
  189.5830  173.7410  143.8630 C   0  0  0  0  0  2  0  0  0  0  0  0
  190.0510  174.7850  143.0650 O   0  0  0  0  0  1  0  0  0  0  0  0
  1 27  1  1  0  0  0
  1 16  1  0  0  0  0
  2  4  2  0  0  0  0
  3  7  1  6  0  0  0
  3  5  1  0  0  0  0
  3  8  1  0  0  0  0
  4 10  1  0  0  0  0
  4  5  1  0  0  0  0
  5  9  1  1  0  0  0
  6 10  1  0  0  0  0
  6  8  1  0  0  0  0
  8  1  1  6  0  0  0
 10 12  1  6  0  0  0
 12 11  1  1  0  0  0
 12 13  1  0  0  0  0
 15 14  1  0  0  0  0
 15 13  1  0  0  0  0
 16 17  1  6  0  0  0
 18 16  1  0  0  0  0
 19 18  1  0  0  0  0
 20 19  1  0  0  0  0
 20 25  1  0  0  0  0
 21 24  1  0  0  0  0
 21 25  1  0  0  0  0
 22 23  1  0  0  0  0
 24 22  1  0  0  0  0
 25 26  1  0  0  0  0
 26 23  1  0  0  0  0
 28 27  1  0  0  0  0
 29 28  1  0  0  0  0
M  END
>  <MODEL>
5

>  <REMARK>
 VINA RESULT:      -6.1      2.350      4.009
  Name = 
  11 active torsions:
  status: ('A' for Active; 'I' for Inactive)
    1  A    between atoms: C_3  and  C_7
    2  A    between atoms: C_3  and  C_12
    3  A    between atoms: C_7  and  O_22
    4  A    between atoms: C_9  and  C_26
    5  A    between atoms: C_10  and  C_23
    6  A    between atoms: C_12  and  C_29
    7  A    between atoms: C_20  and  C_29
    8  A    between atoms: C_21  and  O_22
    9  A    between atoms: C_23  and  C_27
   10  A    between atoms: C_25  and  C_27
   11  A    between atoms: C_26  and  C_29
                            x       y       z     vdW  Elec       q    Type
                         _______ _______ _______ _____ _____    ______ ____

>  <TORSDO>
F 11

$$$$
=
 OpenBabel11062422453D

 29 30  0  0  1  0  0  0  0  0999 V2000
  189.6480  176.2520  145.0440 C   0  0  2  0  0  3  0  0  0  0  0  0
  186.0440  178.6330  141.7010 O   0  0  0  0  0  0  0  0  0  0  0  0
  189.1340  177.0780  142.6860 C   0  0  1  0  0  3  0  0  0  0  0  0
  186.7940  177.9050  142.3330 C   0  0  0  0  0  0  0  0  0  0  0  0
  188.0130  177.3270  141.6700 C   0  0  2  0  0  3  0  0  0  0  0  0
  187.6710  177.5600  144.5310 O   0  0  0  0  0  0  0  0  0  0  0  0
  189.8580  178.2580  142.8800 O   0  0  0  0  0  1  0  0  0  0  0  0
  188.5490  176.5840  144.0230 C   0  0  2  0  0  3  0  0  0  0  0  0
  187.6780  176.1400  141.0450 F   0  0  0  0  0  0  0  0  0  0  0  0
  186.4920  177.4890  143.7630 C   0  0  1  0  0  3  0  0  0  0  0  0
  185.8920  179.5900  144.7590 O   0  0  0  0  0  1  0  0  0  0  0  0
  185.3890  178.3320  144.4100 C   0  0  2  0  0  3  0  0  0  0  0  0
  184.8640  177.6330  145.6580 C   0  0  0  0  0  2  0  0  0  0  0  0
  186.0250  177.9640  147.8450 C   0  0  0  0  0  1  0  0  0  0  0  0
  184.9960  178.5240  146.8830 C   0  0  0  0  0  2  0  0  0  0  0  0
  190.2020  174.8420  144.8100 C   0  0  2  0  0  3  0  0  0  0  0  0
  189.6860  173.9400  145.7470 O   0  0  0  0  0  1  0  0  0  0  0  0
  191.7260  174.8470  144.8550 C   0  0  0  0  0  2  0  0  0  0  0  0
  192.2810  176.1890  144.4050 C   0  0  0  0  0  2  0  0  0  0  0  0
  193.4170  176.5130  145.1510 O   0  0  0  0  0  0  0  0  0  0  0  0
  195.2260  175.9280  143.7000 C   0  0  0  0  0  2  0  0  0  0  0  0
  197.0980  174.5440  144.6270 C   0  0  0  0  0  2  0  0  0  0  0  0
  196.2070  174.1190  145.7930 C   0  0  0  0  0  2  0  0  0  0  0  0
  196.2480  174.8360  143.3910 C   0  0  0  0  0  2  0  0  0  0  0  0
  194.3340  175.4980  144.8640 C   0  0  0  0  0  3  0  0  0  0  0  0
  195.1860  175.2120  146.1000 C   0  0  0  0  0  2  0  0  0  0  0  0
  189.1350  176.4040  146.4770 C   0  0  0  0  0  2  0  0  0  0  0  0
  190.0400  177.3290  147.2670 C   0  0  0  0  0  2  0  0  0  0  0  0
  191.0500  176.5830  147.8720 O   0  0  0  0  0  1  0  0  0  0  0  0
  1 27  1  1  0  0  0
  2  4  2  0  0  0  0
  3  7  1  1  0  0  0
  3  8  1  0  0  0  0
  4 10  1  0  0  0  0
  5  9  1  1  0  0  0
  5  4  1  0  0  0  0
  5  3  1  0  0  0  0
  8  6  1  0  0  0  0
  8  1  1  1  0  0  0
 10 12  1  1  0  0  0
 10  6  1  0  0  0  0
 12 11  1  1  0  0  0
 12 13  1  0  0  0  0
 13 15  1  0  0  0  0
 15 14  1  0  0  0  0
 16 18  1  0  0  0  0
 16  1  1  0  0  0  0
 16 17  1  1  0  0  0
 19 18  1  0  0  0  0
 19 20  1  0  0  0  0
 21 25  1  0  0  0  0
 22 23  1  0  0  0  0
 23 26  1  0  0  0  0
 24 21  1  0  0  0  0
 24 22  1  0  0  0  0
 25 20  1  0  0  0  0
 25 26  1  0  0  0  0
 27 28  1  0  0  0  0
 28 29  1  0  0  0  0
M  END
>  <MODEL>
6

>  <REMARK>
 VINA RESULT:      -6.0      2.119      7.752
  Name = 
  11 active torsions:
  status: ('A' for Active; 'I' for Inactive)
    1  A    between atoms: C_3  and  C_7
    2  A    between atoms: C_3  and  C_12
    3  A    between atoms: C_7  and  O_22
    4  A    between atoms: C_9  and  C_26
    5  A    between atoms: C_10  and  C_23
    6  A    between atoms: C_12  and  C_29
    7  A    between atoms: C_20  and  C_29
    8  A    between atoms: C_21  and  O_22
    9  A    between atoms: C_23  and  C_27
   10  A    between atoms: C_25  and  C_27
   11  A    between atoms: C_26  and  C_29
                            x       y       z     vdW  Elec       q    Type
                         _______ _______ _______ _____ _____    ______ ____

>  <TORSDO>
F 11

$$$$
=
 OpenBabel11062422453D

 29 30  0  0  1  0  0  0  0  0999 V2000
  189.9420  174.5650  142.5360 C   0  0  2  0  0  3  0  0  0  0  0  0
  194.8560  176.0000  144.4420 O   0  0  0  0  0  0  0  0  0  0  0  0
  192.4160  174.9250  142.0270 C   0  0  1  0  0  3  0  0  0  0  0  0
  193.7610  175.8890  143.9100 C   0  0  0  0  0  0  0  0  0  0  0  0
  193.6640  175.7240  142.4190 C   0  0  2  0  0  3  0  0  0  0  0  0
  191.5750  174.9920  144.2780 O   0  0  0  0  0  0  0  0  0  0  0  0
  192.6910  173.5580  142.1110 O   0  0  0  0  0  1  0  0  0  0  0  0
  191.2330  175.2900  142.9450 C   0  0  2  0  0  3  0  0  0  0  0  0
  193.6280  176.9700  141.8200 F   0  0  0  0  0  0  0  0  0  0  0  0
  192.4700  175.9930  144.7040 C   0  0  1  0  0  3  0  0  0  0  0  0
  192.9160  174.5640  146.5820 O   0  0  0  0  0  1  0  0  0  0  0  0
  192.6890  175.8950  146.2170 C   0  0  2  0  0  3  0  0  0  0  0  0
  191.4640  176.4200  146.9550 C   0  0  0  0  0  2  0  0  0  0  0  0
  189.3630  175.0700  147.0070 C   0  0  0  0  0  1  0  0  0  0  0  0
  190.7180  175.2930  147.6510 C   0  0  0  0  0  2  0  0  0  0  0  0
  188.7640  175.5430  142.4730 C   0  0  2  0  0  3  0  0  0  0  0  0
  188.2060  175.5720  141.1900 O   0  0  0  0  0  1  0  0  0  0  0  0
  189.2000  176.9410  142.8980 C   0  0  0  0  0  2  0  0  0  0  0  0
  188.2500  177.5170  143.9360 C   0  0  0  0  0  2  0  0  0  0  0  0
  187.1450  178.0960  143.3080 O   0  0  0  0  0  0  0  0  0  0  0  0
  186.5660  177.0770  145.3920 C   0  0  0  0  0  2  0  0  0  0  0  0
  184.8760  178.2190  146.8480 C   0  0  0  0  0  2  0  0  0  0  0  0
  184.3980  179.0390  145.6510 C   0  0  0  0  0  2  0  0  0  0  0  0
  185.4200  176.8700  146.3810 C   0  0  0  0  0  2  0  0  0  0  0  0
  186.0840  177.8950  144.1940 C   0  0  0  0  0  3  0  0  0  0  0  0
  185.5450  179.2460  144.6640 C   0  0  0  0  0  2  0  0  0  0  0  0
  189.6360  173.4050  143.4840 C   0  0  0  0  0  2  0  0  0  0  0  0
  188.8950  172.3040  142.7510 C   0  0  0  0  0  2  0  0  0  0  0  0
  189.7430  171.7210  141.8110 O   0  0  0  0  0  1  0  0  0  0  0  0
  1 27  1  1  0  0  0
  3  7  1  1  0  0  0
  3  5  1  0  0  0  0
  3  8  1  0  0  0  0
  4  2  2  0  0  0  0
  4 10  1  0  0  0  0
  5  9  1  6  0  0  0
  5  4  1  0  0  0  0
  6 10  1  0  0  0  0
  8  1  1  6  0  0  0
  8  6  1  0  0  0  0
 10 12  1  1  0  0  0
 12 11  1  6  0  0  0
 12 13  1  0  0  0  0
 13 15  1  0  0  0  0
 14 15  1  0  0  0  0
 16 17  1  6  0  0  0
 16  1  1  0  0  0  0
 16 18  1  0  0  0  0
 18 19  1  0  0  0  0
 20 19  1  0  0  0  0
 20 25  1  0  0  0  0
 21 24  1  0  0  0  0
 23 22  1  0  0  0  0
 24 22  1  0  0  0  0
 25 26  1  0  0  0  0
 25 21  1  0  0  0  0
 26 23  1  0  0  0  0
 28 27  1  0  0  0  0
 29 28  1  0  0  0  0
M  END
>  <MODEL>
7

>  <REMARK>
 VINA RESULT:      -5.9      2.322      4.020
  Name = 
  11 active torsions:
  status: ('A' for Active; 'I' for Inactive)
    1  A    between atoms: C_3  and  C_7
    2  A    between atoms: C_3  and  C_12
    3  A    between atoms: C_7  and  O_22
    4  A    between atoms: C_9  and  C_26
    5  A    between atoms: C_10  and  C_23
    6  A    between atoms: C_12  and  C_29
    7  A    between atoms: C_20  and  C_29
    8  A    between atoms: C_21  and  O_22
    9  A    between atoms: C_23  and  C_27
   10  A    between atoms: C_25  and  C_27
   11  A    between atoms: C_26  and  C_29
                            x       y       z     vdW  Elec       q    Type
                         _______ _______ _______ _____ _____    ______ ____

>  <TORSDO>
F 11

$$$$
=
 OpenBabel11062422453D

 29 30  0  0  1  0  0  0  0  0999 V2000
  185.7170  177.4470  142.9700 C   0  0  2  0  0  3  0  0  0  0  0  0
  186.8490  178.6810  148.1690 O   0  0  0  0  0  0  0  0  0  0  0  0
  185.0820  178.7990  145.0390 C   0  0  1  0  0  3  0  0  0  0  0  0
  186.4160  178.2850  147.0970 C   0  0  0  0  0  0  0  0  0  0  0  0
  185.1140  178.8190  146.5710 C   0  0  2  0  0  3  0  0  0  0  0  0
  187.1310  177.5460  144.9380 O   0  0  0  0  0  0  0  0  0  0  0  0
  185.6980  179.9520  144.5450 O   0  0  0  0  0  1  0  0  0  0  0  0
  185.7920  177.5410  144.5020 C   0  0  2  0  0  3  0  0  0  0  0  0
  184.0700  178.0590  147.0680 F   0  0  0  0  0  0  0  0  0  0  0  0
  187.1170  177.1960  146.3030 C   0  0  1  0  0  3  0  0  0  0  0  0
  189.4670  177.3830  145.8490 O   0  0  0  0  0  1  0  0  0  0  0  0
  188.5420  176.9230  146.7920 C   0  0  2  0  0  3  0  0  0  0  0  0
  188.7410  175.4270  147.0070 C   0  0  0  0  0  2  0  0  0  0  0  0
  191.0620  175.3100  147.9260 C   0  0  0  0  0  1  0  0  0  0  0  0
  190.1780  175.0190  146.7280 C   0  0  0  0  0  2  0  0  0  0  0  0
  187.1210  177.4110  142.3570 C   0  0  2  0  0  3  0  0  0  0  0  0
  187.4640  178.6560  141.8180 O   0  0  0  0  0  1  0  0  0  0  0  0
  187.2170  176.3230  141.2930 C   0  0  0  0  0  2  0  0  0  0  0  0
  188.2010  175.2400  141.7080 C   0  0  0  0  0  2  0  0  0  0  0  0
  188.3500  175.2320  143.0970 O   0  0  0  0  0  0  0  0  0  0  0  0
  188.8160  172.9620  142.5110 C   0  0  0  0  0  2  0  0  0  0  0  0
  191.2060  172.2130  142.4470 C   0  0  0  0  0  2  0  0  0  0  0  0
  191.6080  173.4230  143.2890 C   0  0  0  0  0  2  0  0  0  0  0  0
  189.7720  171.7980  142.7680 C   0  0  0  0  0  2  0  0  0  0  0  0
  189.2180  174.1690  143.3570 C   0  0  0  0  0  3  0  0  0  0  0  0
  190.6510  174.5850  143.0300 C   0  0  0  0  0  2  0  0  0  0  0  0
  184.8970  178.5980  142.3850 C   0  0  0  0  0  2  0  0  0  0  0  0
  183.7490  178.0590  141.5540 C   0  0  0  0  0  2  0  0  0  0  0  0
  184.1040  178.0780  140.2060 O   0  0  0  0  0  1  0  0  0  0  0  0
  1 27  1  6  0  0  0
  3  7  1  6  0  0  0
  3  5  1  0  0  0  0
  4  2  2  0  0  0  0
  5  9  1  1  0  0  0
  5  4  1  0  0  0  0
  6 10  1  0  0  0  0
  8  1  1  6  0  0  0
  8  6  1  0  0  0  0
  8  3  1  0  0  0  0
 10 12  1  1  0  0  0
 10  4  1  0  0  0  0
 12 11  1  6  0  0  0
 12 13  1  0  0  0  0
 15 13  1  0  0  0  0
 15 14  1  0  0  0  0
 16 17  1  6  0  0  0
 16  1  1  0  0  0  0
 18 19  1  0  0  0  0
 18 16  1  0  0  0  0
 19 20  1  0  0  0  0
 20 25  1  0  0  0  0
 21 24  1  0  0  0  0
 21 25  1  0  0  0  0
 22 24  1  0  0  0  0
 22 23  1  0  0  0  0
 26 23  1  0  0  0  0
 26 25  1  0  0  0  0
 28 27  1  0  0  0  0
 29 28  1  0  0  0  0
M  END
>  <MODEL>
8

>  <REMARK>
 VINA RESULT:      -5.8      2.603      5.502
  Name = 
  11 active torsions:
  status: ('A' for Active; 'I' for Inactive)
    1  A    between atoms: C_3  and  C_7
    2  A    between atoms: C_3  and  C_12
    3  A    between atoms: C_7  and  O_22
    4  A    between atoms: C_9  and  C_26
    5  A    between atoms: C_10  and  C_23
    6  A    between atoms: C_12  and  C_29
    7  A    between atoms: C_20  and  C_29
    8  A    between atoms: C_21  and  O_22
    9  A    between atoms: C_23  and  C_27
   10  A    between atoms: C_25  and  C_27
   11  A    between atoms: C_26  and  C_29
                            x       y       z     vdW  Elec       q    Type
                         _______ _______ _______ _____ _____    ______ ____

>  <TORSDO>
F 11

$$$$
=
 OpenBabel11062422453D

 29 30  0  0  1  0  0  0  0  0999 V2000
  189.5820  176.0870  143.9190 C   0  0  2  0  0  3  0  0  0  0  0  0
  193.4940  172.5330  145.2970 O   0  0  0  0  0  0  0  0  0  0  0  0
  190.1940  173.6600  144.4140 C   0  0  1  0  0  3  0  0  0  0  0  0
  192.6380  173.2310  144.7760 C   0  0  0  0  0  0  0  0  0  0  0  0
  191.3250  172.6260  144.3630 C   0  0  2  0  0  3  0  0  0  0  0  0
  191.7500  175.4520  144.8030 O   0  0  0  0  0  0  0  0  0  0  0  0
  189.6930  173.7390  145.7160 O   0  0  0  0  0  1  0  0  0  0  0  0
  190.7050  175.0390  143.9530 C   0  0  2  0  0  3  0  0  0  0  0  0
  191.4350  172.1190  143.0810 F   0  0  0  0  0  0  0  0  0  0  0  0
  192.8850  174.6940  144.4520 C   0  0  1  0  0  3  0  0  0  0  0  0
  193.8130  175.6520  146.4490 O   0  0  0  0  0  1  0  0  0  0  0  0
  194.1290  175.2580  145.1440 C   0  0  2  0  0  3  0  0  0  0  0  0
  194.6590  176.4590  144.3680 C   0  0  0  0  0  2  0  0  0  0  0  0
  196.8200  176.7790  143.1570 C   0  0  0  0  0  1  0  0  0  0  0  0
  195.5090  176.0170  143.1880 C   0  0  0  0  0  2  0  0  0  0  0  0
  189.2890  176.5250  142.4800 C   0  0  2  0  0  3  0  0  0  0  0  0
  189.0970  177.9090  142.4080 O   0  0  0  0  0  1  0  0  0  0  0  0
  188.0730  175.7870  141.9290 C   0  0  0  0  0  2  0  0  0  0  0  0
  186.8000  176.5850  142.1590 C   0  0  0  0  0  2  0  0  0  0  0  0
  186.1340  176.1100  143.2920 O   0  0  0  0  0  0  0  0  0  0  0  0
  184.8920  178.1430  143.5000 C   0  0  0  0  0  2  0  0  0  0  0  0
  184.2700  178.9300  145.7960 C   0  0  0  0  0  2  0  0  0  0  0  0
  185.3380  178.0190  146.3980 C   0  0  0  0  0  2  0  0  0  0  0  0
  184.6790  179.3660  144.3900 C   0  0  0  0  0  2  0  0  0  0  0  0
  185.9630  177.2350  144.1030 C   0  0  0  0  0  3  0  0  0  0  0  0
  185.5490  176.7960  145.5070 C   0  0  0  0  0  2  0  0  0  0  0  0
  189.9240  177.2920  144.7960 C   0  0  0  0  0  2  0  0  0  0  0  0
  189.1410  177.2410  146.0930 C   0  0  0  0  0  2  0  0  0  0  0  0
  189.9910  177.5310  147.1600 O   0  0  0  0  0  1  0  0  0  0  0  0
  1 27  1  1  0  0  0
  3  7  1  1  0  0  0
  4  2  2  0  0  0  0
  5  9  1  6  0  0  0
  5  3  1  0  0  0  0
  5  4  1  0  0  0  0
  8  1  1  1  0  0  0
  8  3  1  0  0  0  0
  8  6  1  0  0  0  0
 10  4  1  0  0  0  0
 10  6  1  0  0  0  0
 10 12  1  1  0  0  0
 12 11  1  1  0  0  0
 13 12  1  0  0  0  0
 14 15  1  0  0  0  0
 15 13  1  0  0  0  0
 16 17  1  1  0  0  0
 16  1  1  0  0  0  0
 18 19  1  0  0  0  0
 18 16  1  0  0  0  0
 19 20  1  0  0  0  0
 20 25  1  0  0  0  0
 21 25  1  0  0  0  0
 21 24  1  0  0  0  0
 22 23  1  0  0  0  0
 24 22  1  0  0  0  0
 25 26  1  0  0  0  0
 26 23  1  0  0  0  0
 27 28  1  0  0  0  0
 28 29  1  0  0  0  0
M  END
>  <MODEL>
9

>  <REMARK>
 VINA RESULT:      -5.8      1.972      2.887
  Name = 
  11 active torsions:
  status: ('A' for Active; 'I' for Inactive)
    1  A    between atoms: C_3  and  C_7
    2  A    between atoms: C_3  and  C_12
    3  A    between atoms: C_7  and  O_22
    4  A    between atoms: C_9  and  C_26
    5  A    between atoms: C_10  and  C_23
    6  A    between atoms: C_12  and  C_29
    7  A    between atoms: C_20  and  C_29
    8  A    between atoms: C_21  and  O_22
    9  A    between atoms: C_23  and  C_27
   10  A    between atoms: C_25  and  C_27
   11  A    between atoms: C_26  and  C_29
                            x       y       z     vdW  Elec       q    Type
                         _______ _______ _______ _____ _____    ______ ____

>  <TORSDO>
F 11

$$$$
