=
 OpenBabel11072408443D

 36 39  0  0  1  0  0  0  0  0999 V2000
  191.5360  174.6280  145.5470 C   0  0  0  0  0  2  0  0  0  0  0  0
  192.9670  173.6750  143.8970 O   0  0  0  0  0  1  0  0  0  0  0  0
  191.5350  176.4980  144.1780 C   0  0  2  0  0  3  0  0  0  0  0  0
  192.8200  175.9510  144.0320 O   0  0  0  0  0  0  0  0  0  0  0  0
  191.5930  177.8910  144.1010 O   0  0  0  0  0  1  0  0  0  0  0  0
  190.9250  175.9980  145.4910 C   0  0  2  0  0  0  0  0  0  0  0  0
  192.8390  174.7550  144.7750 C   0  0  1  0  0  0  0  0  0  0  0  0
  191.2180  175.9760  147.8000 C   0  0  0  0  0  1  0  0  0  0  0  0
  191.3930  176.7240  146.6210 O   0  0  0  0  0  0  0  0  0  0  0  0
  188.9090  174.7920  145.1020 O   0  0  0  0  0  0  0  0  0  0  0  0
  189.4040  175.8600  145.4300 C   0  0  0  0  0  0  0  0  0  0  0  0
  184.5240  179.3320  144.5970 C   0  0  0  0  0  3  0  0  0  0  0  0
  185.8290  179.1090  144.1330 C   0  0  0  0  0  3  0  0  0  0  0  0
  188.0300  177.8250  144.4830 C   0  0  2  0  0  3  0  0  0  0  0  0
  187.1980  176.6530  146.5220 C   0  0  0  0  0  2  0  0  0  0  0  0
  186.1820  177.5540  145.9440 C   0  0  0  0  0  0  0  0  0  0  0  0
  188.4630  177.0110  145.7250 C   0  0  1  0  0  3  0  0  0  0  0  0
  186.6410  178.2110  144.8280 C   0  0  0  0  0  0  0  0  0  0  0  0
  184.8860  177.7580  146.4220 C   0  0  0  0  0  3  0  0  0  0  0  0
  184.0540  178.6570  145.7380 C   0  0  0  0  0  3  0  0  0  0  0  0
  188.0080  177.0250  143.3350 O   0  0  0  0  0  0  0  0  0  0  0  0
  188.5890  177.8100  142.3380 C   0  0  0  0  0  2  0  0  0  0  0  0
  187.6940  177.9500  141.2790 O   0  0  0  0  0  1  0  0  0  0  0  0
  194.0300  174.8040  145.7380 C   0  0  0  0  0  2  0  0  0  0  0  0
  194.8490  176.0530  145.6190 C   0  0  0  0  0  0  0  0  0  0  0  0
  194.5890  177.0110  146.3300 O   0  0  0  0  0  0  0  0  0  0  0  0
  195.9910  176.1210  144.6530 C   0  0  0  0  0  2  0  0  0  0  0  0
  196.2850  174.7450  144.0660 C   0  0  1  0  0  3  0  0  0  0  0  0
  196.1040  175.8520  141.9410 C   0  0  0  0  0  0  0  0  0  0  0  0
  195.9260  176.8950  141.2990 O   0  0  0  0  0  0  0  0  0  0  0  0
  196.2870  174.7790  142.6030 N   0  0  0  0  0  0  0  0  0  0  0  0
  197.6050  174.2120  144.6130 C   0  0  0  0  0  2  0  0  0  0  0  0
  197.5740  172.6980  144.7540 C   0  0  0  0  0  2  0  0  0  0  0  0
  196.7660  172.2960  145.9730 C   0  0  0  0  0  3  0  0  0  0  0  0
  195.5780  171.4670  145.5310 C   0  0  0  0  0  2  0  0  0  0  0  0
  196.7980  170.7870  146.1120 C   0  0  0  0  0  2  0  0  0  0  0  0
  3  5  1  1  0  0  0
  3  6  1  0  0  0  0
  4  3  1  0  0  0  0
  4  7  1  0  0  0  0
  6 11  1  6  0  0  0
  6  1  1  0  0  0  0
  6  9  1  0  0  0  0
  7  2  1  6  0  0  0
  7  1  1  0  0  0  0
  7 24  1  0  0  0  0
  9  8  1  0  0  0  0
 10 11  2  0  0  0  0
 12 20  1  0  0  0  0
 13 12  2  0  0  0  0
 13 18  1  0  0  0  0
 14 21  1  6  0  0  0
 14 18  1  0  0  0  0
 14 17  1  0  0  0  0
 16 19  1  0  0  0  0
 16 15  1  0  0  0  0
 17 11  1  6  0  0  0
 17 15  1  0  0  0  0
 18 16  2  0  0  0  0
 20 19  2  0  0  0  0
 22 21  1  0  0  0  0
 23 22  1  0  0  0  0
 25 24  1  0  0  0  0
 25 26  2  0  0  0  0
 27 25  1  0  0  0  0
 28 32  1  1  0  0  0
 28 27  1  0  0  0  0
 29 31  2  0  0  0  0
 30 29  2  0  0  0  0
 31 28  1  0  0  0  0
 32 33  1  0  0  0  0
 33 34  1  0  0  0  0
 34 36  1  0  0  0  0
 35 34  1  0  0  0  0
 35 36  1  0  0  0  0
M  END
>  <MODEL>
1

>  <REMARK>
 VINA RESULT:      -7.1      0.000      0.000
  Name = 
  13 active torsions:
  status: ('A' for Active; 'I' for Inactive)
    1  A    between atoms: C_4  and  C_7
    2  A    between atoms: C_4  and  C_18
    3  A    between atoms: C_7  and  C_24
    4  A    between atoms: O_9  and  C_11
    5  A    between atoms: O_9  and  C_21
    6  A    between atoms: C_14  and  C_16
    7  A    between atoms: C_14  and  C_27
    8  A    between atoms: C_16  and  C_35
    9  A    between atoms: C_17  and  C_32
   10  A    between atoms: O_23  and  C_33
   11  A    between atoms: C_24  and  C_27
   12  A    between atoms: C_24  and  N_36
   13  A    between atoms: C_32  and  C_33
                            x       y       z     vdW  Elec       q    Type
                         _______ _______ _______ _____ _____    ______ ____

>  <TORSDO>
F 13

$$$$
=
 OpenBabel11072408443D

 36 39  0  0  1  0  0  0  0  0999 V2000
  189.6350  175.5600  142.3610 C   0  0  0  0  0  2  0  0  0  0  0  0
  188.4260  174.5780  140.5580 O   0  0  0  0  0  1  0  0  0  0  0  0
  189.6770  173.4150  143.2380 C   0  0  2  0  0  3  0  0  0  0  0  0
  188.4420  173.5060  142.5750 O   0  0  0  0  0  0  0  0  0  0  0  0
  189.5550  172.6150  144.3750 O   0  0  0  0  0  1  0  0  0  0  0  0
  190.1780  174.8270  143.5530 C   0  0  2  0  0  0  0  0  0  0  0  0
  188.4110  174.7630  141.9430 C   0  0  1  0  0  0  0  0  0  0  0  0
  189.9020  176.7370  144.8550 C   0  0  0  0  0  1  0  0  0  0  0  0
  189.5650  175.3790  144.7120 O   0  0  0  0  0  0  0  0  0  0  0  0
  192.2660  175.4820  142.6120 O   0  0  0  0  0  0  0  0  0  0  0  0
  191.7040  174.9350  143.5500 C   0  0  0  0  0  0  0  0  0  0  0  0
  196.5260  172.0970  145.8400 C   0  0  0  0  0  3  0  0  0  0  0  0
  195.2850  171.8720  145.2250 C   0  0  0  0  0  3  0  0  0  0  0  0
  193.1030  172.9310  144.3690 C   0  0  2  0  0  3  0  0  0  0  0  0
  193.7550  175.2270  145.0960 C   0  0  0  0  0  2  0  0  0  0  0  0
  194.7960  174.2290  145.4070 C   0  0  0  0  0  0  0  0  0  0  0  0
  192.5690  174.3560  144.6500 C   0  0  1  0  0  3  0  0  0  0  0  0
  194.4350  172.9610  145.0200 C   0  0  0  0  0  0  0  0  0  0  0  0
  196.0270  174.4760  146.0180 C   0  0  0  0  0  3  0  0  0  0  0  0
  196.8960  173.3960  146.2340 C   0  0  0  0  0  3  0  0  0  0  0  0
  193.2720  172.7150  142.9970 O   0  0  0  0  0  0  0  0  0  0  0  0
  192.6820  171.4750  142.7530 C   0  0  0  0  0  2  0  0  0  0  0  0
  192.2240  170.9350  143.9530 O   0  0  0  0  0  1  0  0  0  0  0  0
  187.1300  175.4870  142.3710 C   0  0  0  0  0  2  0  0  0  0  0  0
  187.1120  176.9420  142.0120 C   0  0  0  0  0  0  0  0  0  0  0  0
  187.2480  177.2740  140.8450 O   0  0  0  0  0  0  0  0  0  0  0  0
  186.9080  177.9800  143.0700 C   0  0  0  0  0  2  0  0  0  0  0  0
  185.6710  178.8210  142.7720 C   0  0  1  0  0  3  0  0  0  0  0  0
  183.7680  178.1480  141.4680 C   0  0  0  0  0  0  0  0  0  0  0  0
  183.0480  178.3150  140.4760 O   0  0  0  0  0  0  0  0  0  0  0  0
  184.5090  177.9770  142.4900 N   0  0  0  0  0  0  0  0  0  0  0  0
  185.3970  179.7790  143.9270 C   0  0  0  0  0  2  0  0  0  0  0  0
  185.8030  179.1670  145.2590 C   0  0  0  0  0  2  0  0  0  0  0  0
  184.5840  178.6450  145.9960 C   0  0  0  0  0  3  0  0  0  0  0  0
  184.8620  177.2360  146.4780 C   0  0  0  0  0  2  0  0  0  0  0  0
  184.9520  178.3960  147.4450 C   0  0  0  0  0  2  0  0  0  0  0  0
  1  6  1  0  0  0  0
  3  6  1  0  0  0  0
  3  5  1  1  0  0  0
  4  3  1  0  0  0  0
  6 11  1  1  0  0  0
  6  9  1  0  0  0  0
  7  2  1  6  0  0  0
  7  1  1  0  0  0  0
  7 24  1  0  0  0  0
  7  4  1  0  0  0  0
  9  8  1  0  0  0  0
 10 11  2  0  0  0  0
 12 20  1  0  0  0  0
 13 12  2  0  0  0  0
 14 21  1  6  0  0  0
 14 17  1  0  0  0  0
 14 18  1  0  0  0  0
 15 16  1  0  0  0  0
 16 19  1  0  0  0  0
 17 11  1  6  0  0  0
 17 15  1  0  0  0  0
 18 13  1  0  0  0  0
 18 16  2  0  0  0  0
 19 20  2  0  0  0  0
 22 21  1  0  0  0  0
 22 23  1  0  0  0  0
 25 24  1  0  0  0  0
 25 27  1  0  0  0  0
 26 25  2  0  0  0  0
 28 27  1  1  0  0  0
 28 32  1  0  0  0  0
 29 31  2  0  0  0  0
 30 29  2  0  0  0  0
 31 28  1  0  0  0  0
 32 33  1  0  0  0  0
 33 34  1  0  0  0  0
 34 35  1  0  0  0  0
 34 36  1  0  0  0  0
 35 36  1  0  0  0  0
M  END
>  <MODEL>
2

>  <REMARK>
 VINA RESULT:      -6.6      2.927      9.364
  Name = 
  13 active torsions:
  status: ('A' for Active; 'I' for Inactive)
    1  A    between atoms: C_4  and  C_7
    2  A    between atoms: C_4  and  C_18
    3  A    between atoms: C_7  and  C_24
    4  A    between atoms: O_9  and  C_11
    5  A    between atoms: O_9  and  C_21
    6  A    between atoms: C_14  and  C_16
    7  A    between atoms: C_14  and  C_27
    8  A    between atoms: C_16  and  C_35
    9  A    between atoms: C_17  and  C_32
   10  A    between atoms: O_23  and  C_33
   11  A    between atoms: C_24  and  C_27
   12  A    between atoms: C_24  and  N_36
   13  A    between atoms: C_32  and  C_33
                            x       y       z     vdW  Elec       q    Type
                         _______ _______ _______ _____ _____    ______ ____

>  <TORSDO>
F 13

$$$$
=
 OpenBabel11072408443D

 36 39  0  0  1  0  0  0  0  0999 V2000
  191.8820  174.8600  144.4580 C   0  0  0  0  0  2  0  0  0  0  0  0
  193.0370  174.3280  142.4430 O   0  0  0  0  0  1  0  0  0  0  0  0
  191.5360  176.9310  143.4780 C   0  0  2  0  0  3  0  0  0  0  0  0
  192.8010  176.5260  143.0190 O   0  0  0  0  0  0  0  0  0  0  0  0
  191.5090  178.3170  143.6510 O   0  0  0  0  0  1  0  0  0  0  0  0
  191.2010  176.1640  144.7590 C   0  0  2  0  0  0  0  0  0  0  0  0
  193.0150  175.2260  143.5130 C   0  0  1  0  0  0  0  0  0  0  0  0
  191.8540  175.7860  146.9620 C   0  0  0  0  0  1  0  0  0  0  0  0
  191.8270  176.7190  145.9090 O   0  0  0  0  0  0  0  0  0  0  0  0
  189.2330  174.8310  144.6080 O   0  0  0  0  0  0  0  0  0  0  0  0
  189.7030  175.9130  144.9310 C   0  0  0  0  0  0  0  0  0  0  0  0
  184.5360  179.0460  145.1420 C   0  0  0  0  0  3  0  0  0  0  0  0
  185.7600  178.9540  144.4630 C   0  0  0  0  0  3  0  0  0  0  0  0
  188.0680  177.8230  144.3640 C   0  0  2  0  0  3  0  0  0  0  0  0
  187.6560  176.4620  146.4130 C   0  0  0  0  0  2  0  0  0  0  0  0
  186.5030  177.3170  146.0720 C   0  0  0  0  0  0  0  0  0  0  0  0
  188.7490  176.9660  145.4570 C   0  0  1  0  0  3  0  0  0  0  0  0
  186.7320  178.0780  144.9520 C   0  0  0  0  0  0  0  0  0  0  0  0
  185.2920  177.3900  146.7620 C   0  0  0  0  0  3  0  0  0  0  0  0
  184.3020  178.2640  146.2880 C   0  0  0  0  0  3  0  0  0  0  0  0
  187.9130  177.0990  143.1770 O   0  0  0  0  0  0  0  0  0  0  0  0
  188.2810  177.9850  142.1640 C   0  0  0  0  0  2  0  0  0  0  0  0
  187.3290  177.9510  141.1480 O   0  0  0  0  0  1  0  0  0  0  0  0
  194.3560  175.2070  144.2540 C   0  0  0  0  0  2  0  0  0  0  0  0
  195.4130  174.3980  143.5640 C   0  0  0  0  0  0  0  0  0  0  0  0
  196.1200  174.9290  142.7210 O   0  0  0  0  0  0  0  0  0  0  0  0
  195.6180  172.9590  143.9180 C   0  0  0  0  0  2  0  0  0  0  0  0
  195.4900  172.7490  145.4230 C   0  0  1  0  0  3  0  0  0  0  0  0
  193.4690  171.5720  144.8690 C   0  0  0  0  0  0  0  0  0  0  0  0
  192.6940  171.1420  144.0060 O   0  0  0  0  0  0  0  0  0  0  0  0
  194.2690  172.0150  145.7560 N   0  0  0  0  0  0  0  0  0  0  0  0
  196.7290  172.0420  145.9620 C   0  0  0  0  0  2  0  0  0  0  0  0
  197.0400  170.7870  145.1610 C   0  0  0  0  0  2  0  0  0  0  0  0
  197.3940  169.6400  146.0870 C   0  0  0  0  0  3  0  0  0  0  0  0
  196.1880  169.2970  146.9360 C   0  0  0  0  0  2  0  0  0  0  0  0
  196.5380  168.4400  145.7390 C   0  0  0  0  0  2  0  0  0  0  0  0
  1  6  1  0  0  0  0
  3  5  1  1  0  0  0
  3  6  1  0  0  0  0
  4  3  1  0  0  0  0
  4  7  1  0  0  0  0
  6 11  1  1  0  0  0
  6  9  1  0  0  0  0
  7  2  1  6  0  0  0
  7 24  1  0  0  0  0
  7  1  1  0  0  0  0
  9  8  1  0  0  0  0
 10 11  2  0  0  0  0
 12 20  1  0  0  0  0
 13 18  1  0  0  0  0
 13 12  2  0  0  0  0
 14 21  1  6  0  0  0
 14 18  1  0  0  0  0
 14 17  1  0  0  0  0
 16 15  1  0  0  0  0
 16 19  1  0  0  0  0
 17 11  1  6  0  0  0
 17 15  1  0  0  0  0
 18 16  2  0  0  0  0
 20 19  2  0  0  0  0
 22 21  1  0  0  0  0
 23 22  1  0  0  0  0
 25 27  1  0  0  0  0
 25 24  1  0  0  0  0
 26 25  2  0  0  0  0
 28 27  1  6  0  0  0
 28 31  1  0  0  0  0
 28 32  1  0  0  0  0
 29 31  2  0  0  0  0
 30 29  2  0  0  0  0
 33 32  1  0  0  0  0
 33 34  1  0  0  0  0
 34 35  1  0  0  0  0
 36 34  1  0  0  0  0
 36 35  1  0  0  0  0
M  END
>  <MODEL>
3

>  <REMARK>
 VINA RESULT:      -6.5      1.442      2.347
  Name = 
  13 active torsions:
  status: ('A' for Active; 'I' for Inactive)
    1  A    between atoms: C_4  and  C_7
    2  A    between atoms: C_4  and  C_18
    3  A    between atoms: C_7  and  C_24
    4  A    between atoms: O_9  and  C_11
    5  A    between atoms: O_9  and  C_21
    6  A    between atoms: C_14  and  C_16
    7  A    between atoms: C_14  and  C_27
    8  A    between atoms: C_16  and  C_35
    9  A    between atoms: C_17  and  C_32
   10  A    between atoms: O_23  and  C_33
   11  A    between atoms: C_24  and  C_27
   12  A    between atoms: C_24  and  N_36
   13  A    between atoms: C_32  and  C_33
                            x       y       z     vdW  Elec       q    Type
                         _______ _______ _______ _____ _____    ______ ____

>  <TORSDO>
F 13

$$$$
=
 OpenBabel11072408443D

 36 39  0  0  1  0  0  0  0  0999 V2000
  191.3470  176.8500  145.5290 C   0  0  0  0  0  2  0  0  0  0  0  0
  192.4520  176.5960  147.6250 O   0  0  0  0  0  1  0  0  0  0  0  0
  191.4440  174.5370  145.4240 C   0  0  2  0  0  3  0  0  0  0  0  0
  192.6220  174.9130  146.0890 O   0  0  0  0  0  0  0  0  0  0  0  0
  191.6770  173.4110  144.6310 O   0  0  0  0  0  1  0  0  0  0  0  0
  190.9200  175.7320  144.6230 C   0  0  2  0  0  0  0  0  0  0  0  0
  192.5630  176.3090  146.2620 C   0  0  1  0  0  0  0  0  0  0  0  0
  191.5090  177.2330  142.9440 C   0  0  0  0  0  1  0  0  0  0  0  0
  191.5980  175.9000  143.3850 O   0  0  0  0  0  0  0  0  0  0  0  0
  188.8350  174.8760  143.8530 O   0  0  0  0  0  0  0  0  0  0  0  0
  189.3950  175.7480  144.5010 C   0  0  0  0  0  0  0  0  0  0  0  0
  184.4610  179.1920  145.0890 C   0  0  0  0  0  3  0  0  0  0  0  0
  185.6520  179.0620  144.3600 C   0  0  0  0  0  3  0  0  0  0  0  0
  187.8750  177.7910  144.1070 C   0  0  2  0  0  3  0  0  0  0  0  0
  187.4430  176.3390  146.0890 C   0  0  0  0  0  2  0  0  0  0  0  0
  186.3380  177.2860  145.8420 C   0  0  0  0  0  0  0  0  0  0  0  0
  188.5330  176.8280  145.1220 C   0  0  1  0  0  3  0  0  0  0  0  0
  186.5790  178.0960  144.7600 C   0  0  0  0  0  0  0  0  0  0  0  0
  185.1590  177.3960  146.5810 C   0  0  0  0  0  3  0  0  0  0  0  0
  184.2150  178.3600  146.1960 C   0  0  0  0  0  3  0  0  0  0  0  0
  187.6300  177.1510  142.8870 O   0  0  0  0  0  0  0  0  0  0  0  0
  188.0980  178.0380  141.9170 C   0  0  0  0  0  2  0  0  0  0  0  0
  187.3900  177.8440  140.7320 O   0  0  0  0  0  1  0  0  0  0  0  0
  193.8470  176.9200  145.6910 C   0  0  0  0  0  2  0  0  0  0  0  0
  194.8730  175.9020  145.2920 C   0  0  0  0  0  0  0  0  0  0  0  0
  195.4440  175.2550  146.1560 O   0  0  0  0  0  0  0  0  0  0  0  0
  195.1810  175.6640  143.8470 C   0  0  0  0  0  2  0  0  0  0  0  0
  194.9250  174.2070  143.4720 C   0  0  1  0  0  3  0  0  0  0  0  0
  194.2980  174.9010  141.2580 C   0  0  0  0  0  0  0  0  0  0  0  0
  194.4490  175.6750  140.3060 O   0  0  0  0  0  0  0  0  0  0  0  0
  194.1420  174.1040  142.2400 N   0  0  0  0  0  0  0  0  0  0  0  0
  196.2470  173.4560  143.3570 C   0  0  0  0  0  2  0  0  0  0  0  0
  196.1030  172.0120  143.8110 C   0  0  0  0  0  2  0  0  0  0  0  0
  197.2040  171.6510  144.7900 C   0  0  0  0  0  3  0  0  0  0  0  0
  196.8890  172.2630  146.1400 C   0  0  0  0  0  2  0  0  0  0  0  0
  196.6210  170.7940  145.8960 C   0  0  0  0  0  2  0  0  0  0  0  0
  1  7  1  0  0  0  0
  3  5  1  6  0  0  0
  3  4  1  0  0  0  0
  4  7  1  0  0  0  0
  6  9  1  6  0  0  0
  6  3  1  0  0  0  0
  6  1  1  0  0  0  0
  7  2  1  1  0  0  0
  8  9  1  0  0  0  0
 10 11  2  0  0  0  0
 11  6  1  0  0  0  0
 12 20  1  0  0  0  0
 13 18  1  0  0  0  0
 13 12  2  0  0  0  0
 14 21  1  6  0  0  0
 14 18  1  0  0  0  0
 14 17  1  0  0  0  0
 16 15  1  0  0  0  0
 16 19  1  0  0  0  0
 17 11  1  6  0  0  0
 17 15  1  0  0  0  0
 18 16  2  0  0  0  0
 20 19  2  0  0  0  0
 22 21  1  0  0  0  0
 23 22  1  0  0  0  0
 24  7  1  0  0  0  0
 25 24  1  0  0  0  0
 25 26  2  0  0  0  0
 27 25  1  0  0  0  0
 28 32  1  6  0  0  0
 28 27  1  0  0  0  0
 29 31  2  0  0  0  0
 30 29  2  0  0  0  0
 31 28  1  0  0  0  0
 32 33  1  0  0  0  0
 33 34  1  0  0  0  0
 34 36  1  0  0  0  0
 34 35  1  0  0  0  0
 36 35  1  0  0  0  0
M  END
>  <MODEL>
4

>  <REMARK>
 VINA RESULT:      -6.5      1.250      2.012
  Name = 
  13 active torsions:
  status: ('A' for Active; 'I' for Inactive)
    1  A    between atoms: C_4  and  C_7
    2  A    between atoms: C_4  and  C_18
    3  A    between atoms: C_7  and  C_24
    4  A    between atoms: O_9  and  C_11
    5  A    between atoms: O_9  and  C_21
    6  A    between atoms: C_14  and  C_16
    7  A    between atoms: C_14  and  C_27
    8  A    between atoms: C_16  and  C_35
    9  A    between atoms: C_17  and  C_32
   10  A    between atoms: O_23  and  C_33
   11  A    between atoms: C_24  and  C_27
   12  A    between atoms: C_24  and  N_36
   13  A    between atoms: C_32  and  C_33
                            x       y       z     vdW  Elec       q    Type
                         _______ _______ _______ _____ _____    ______ ____

>  <TORSDO>
F 13

$$$$
=
 OpenBabel11072408443D

 36 39  0  0  1  0  0  0  0  0999 V2000
  191.3930  176.1050  144.7210 C   0  0  0  0  0  2  0  0  0  0  0  0
  192.6470  176.7750  146.6340 O   0  0  0  0  0  1  0  0  0  0  0  0
  189.5860  176.0530  146.1720 C   0  0  2  0  0  3  0  0  0  0  0  0
  190.6820  175.6530  146.9530 O   0  0  0  0  0  0  0  0  0  0  0  0
  188.4330  175.3800  146.5800 O   0  0  0  0  0  1  0  0  0  0  0  0
  189.9180  175.8280  144.6940 C   0  0  2  0  0  0  0  0  0  0  0  0
  191.8240  175.7600  146.1370 C   0  0  1  0  0  0  0  0  0  0  0  0
  190.4190  174.2200  143.0880 C   0  0  0  0  0  1  0  0  0  0  0  0
  189.7430  174.4750  144.2950 O   0  0  0  0  0  0  0  0  0  0  0  0
  189.7800  177.9150  143.5540 O   0  0  0  0  0  0  0  0  0  0  0  0
  189.2400  176.8390  143.7690 C   0  0  0  0  0  0  0  0  0  0  0  0
  183.7060  178.3040  141.8240 C   0  0  0  0  0  3  0  0  0  0  0  0
  184.4270  177.9410  142.9710 C   0  0  0  0  0  3  0  0  0  0  0  0
  186.6840  177.1430  143.9110 C   0  0  2  0  0  3  0  0  0  0  0  0
  187.7560  177.0410  141.6610 C   0  0  0  0  0  2  0  0  0  0  0  0
  186.3530  177.4930  141.5880 C   0  0  0  0  0  0  0  0  0  0  0  0
  187.8930  176.5850  143.1230 C   0  0  1  0  0  3  0  0  0  0  0  0
  185.7560  177.5370  142.8240 C   0  0  0  0  0  0  0  0  0  0  0  0
  185.6560  177.8510  140.4340 C   0  0  0  0  0  3  0  0  0  0  0  0
  184.3190  178.2600  140.5580 C   0  0  0  0  0  3  0  0  0  0  0  0
  187.0380  178.2810  144.6430 O   0  0  0  0  0  0  0  0  0  0  0  0
  186.4240  178.1160  145.8850 C   0  0  0  0  0  2  0  0  0  0  0  0
  185.6460  179.2360  146.1700 O   0  0  0  0  0  1  0  0  0  0  0  0
  192.5610  174.4170  146.1590 C   0  0  0  0  0  2  0  0  0  0  0  0
  193.7580  174.3720  145.2570 C   0  0  0  0  0  0  0  0  0  0  0  0
  193.6530  173.8770  144.1460 O   0  0  0  0  0  0  0  0  0  0  0  0
  195.0650  174.9490  145.7030 C   0  0  0  0  0  2  0  0  0  0  0  0
  196.0940  174.8900  144.5800 C   0  0  1  0  0  3  0  0  0  0  0  0
  196.3050  176.5340  142.8390 C   0  0  0  0  0  0  0  0  0  0  0  0
  196.2080  176.8310  141.6420 O   0  0  0  0  0  0  0  0  0  0  0  0
  196.4040  176.2270  144.0720 N   0  0  0  0  0  0  0  0  0  0  0  0
  197.3510  174.1700  145.0570 C   0  0  0  0  0  2  0  0  0  0  0  0
  197.0090  173.0480  146.0250 C   0  0  0  0  0  2  0  0  0  0  0  0
  196.9270  171.7220  145.2940 C   0  0  0  0  0  3  0  0  0  0  0  0
  196.7230  170.6100  146.3030 C   0  0  0  0  0  2  0  0  0  0  0  0
  195.5490  171.1270  145.5010 C   0  0  0  0  0  2  0  0  0  0  0  0
  1  7  1  0  0  0  0
  3  5  1  1  0  0  0
  3  4  1  0  0  0  0
  6 11  1  6  0  0  0
  6  1  1  0  0  0  0
  6  3  1  0  0  0  0
  7 24  1  0  0  0  0
  7  2  1  1  0  0  0
  7  4  1  0  0  0  0
  8  9  1  0  0  0  0
  9  6  1  0  0  0  0
 10 11  2  0  0  0  0
 12 13  1  0  0  0  0
 14 21  1  6  0  0  0
 15 17  1  0  0  0  0
 16 15  1  0  0  0  0
 16 18  1  0  0  0  0
 17 11  1  1  0  0  0
 17 14  1  0  0  0  0
 18 13  2  0  0  0  0
 18 14  1  0  0  0  0
 19 20  1  0  0  0  0
 19 16  2  0  0  0  0
 20 12  2  0  0  0  0
 21 22  1  0  0  0  0
 22 23  1  0  0  0  0
 25 27  1  0  0  0  0
 25 24  1  0  0  0  0
 26 25  2  0  0  0  0
 28 32  1  1  0  0  0
 28 27  1  0  0  0  0
 29 31  2  0  0  0  0
 30 29  2  0  0  0  0
 31 28  1  0  0  0  0
 32 33  1  0  0  0  0
 34 36  1  0  0  0  0
 34 33  1  0  0  0  0
 34 35  1  0  0  0  0
 36 35  1  0  0  0  0
M  END
>  <MODEL>
5

>  <REMARK>
 VINA RESULT:      -6.4      1.808      3.125
  Name = 
  13 active torsions:
  status: ('A' for Active; 'I' for Inactive)
    1  A    between atoms: C_4  and  C_7
    2  A    between atoms: C_4  and  C_18
    3  A    between atoms: C_7  and  C_24
    4  A    between atoms: O_9  and  C_11
    5  A    between atoms: O_9  and  C_21
    6  A    between atoms: C_14  and  C_16
    7  A    between atoms: C_14  and  C_27
    8  A    between atoms: C_16  and  C_35
    9  A    between atoms: C_17  and  C_32
   10  A    between atoms: O_23  and  C_33
   11  A    between atoms: C_24  and  C_27
   12  A    between atoms: C_24  and  N_36
   13  A    between atoms: C_32  and  C_33
                            x       y       z     vdW  Elec       q    Type
                         _______ _______ _______ _____ _____    ______ ____

>  <TORSDO>
F 13

$$$$
=
 OpenBabel11072408443D

 36 39  0  0  1  0  0  0  0  0999 V2000
  191.2750  176.8500  145.5720 C   0  0  0  0  0  2  0  0  0  0  0  0
  192.3070  176.5480  147.6990 O   0  0  0  0  0  1  0  0  0  0  0  0
  191.3100  174.5360  145.4500 C   0  0  2  0  0  3  0  0  0  0  0  0
  192.4780  174.8740  146.1540 O   0  0  0  0  0  0  0  0  0  0  0  0
  191.5360  173.4110  144.6550 O   0  0  0  0  0  1  0  0  0  0  0  0
  190.8450  175.7520  144.6440 C   0  0  2  0  0  0  0  0  0  0  0  0
  192.4520  176.2690  146.3370 C   0  0  1  0  0  0  0  0  0  0  0  0
  191.4090  177.2150  142.9230 C   0  0  0  0  0  1  0  0  0  0  0  0
  191.5650  175.9110  143.4280 O   0  0  0  0  0  0  0  0  0  0  0  0
  188.7640  174.9770  143.7810 O   0  0  0  0  0  0  0  0  0  0  0  0
  189.3260  175.8120  144.4750 C   0  0  0  0  0  0  0  0  0  0  0  0
  184.2990  179.0640  145.3170 C   0  0  0  0  0  3  0  0  0  0  0  0
  185.4210  178.9370  144.4850 C   0  0  0  0  0  3  0  0  0  0  0  0
  187.6720  177.7520  144.1000 C   0  0  2  0  0  3  0  0  0  0  0  0
  187.5040  176.4230  146.2050 C   0  0  0  0  0  2  0  0  0  0  0  0
  186.3340  177.3010  146.0060 C   0  0  0  0  0  0  0  0  0  0  0  0
  188.4720  176.8930  145.1060 C   0  0  1  0  0  3  0  0  0  0  0  0
  186.4290  178.0440  144.8540 C   0  0  0  0  0  0  0  0  0  0  0  0
  185.2250  177.4090  146.8470 C   0  0  0  0  0  3  0  0  0  0  0  0
  184.2010  178.3000  146.4940 C   0  0  0  0  0  3  0  0  0  0  0  0
  187.3470  177.0190  142.9540 O   0  0  0  0  0  0  0  0  0  0  0  0
  187.7650  177.8160  141.8870 C   0  0  0  0  0  2  0  0  0  0  0  0
  186.6500  178.2910  141.1990 O   0  0  0  0  0  1  0  0  0  0  0  0
  193.7700  176.8480  145.8120 C   0  0  0  0  0  2  0  0  0  0  0  0
  194.7510  175.8060  145.3650 C   0  0  0  0  0  0  0  0  0  0  0  0
  195.3450  175.1440  146.2010 O   0  0  0  0  0  0  0  0  0  0  0  0
  194.9840  175.5620  143.9070 C   0  0  0  0  0  2  0  0  0  0  0  0
  196.3010  176.1860  143.4580 C   0  0  1  0  0  3  0  0  0  0  0  0
  197.2440  173.9850  143.2620 C   0  0  0  0  0  0  0  0  0  0  0  0
  197.0930  172.7840  143.0040 O   0  0  0  0  0  0  0  0  0  0  0  0
  197.3990  175.2210  143.5270 N   0  0  0  0  0  0  0  0  0  0  0  0
  196.1550  176.7650  142.0550 C   0  0  0  0  0  2  0  0  0  0  0  0
  194.9610  176.1630  141.3310 C   0  0  0  0  0  2  0  0  0  0  0  0
  195.4230  175.2150  140.2410 C   0  0  0  0  0  3  0  0  0  0  0  0
  194.5390  173.9850  140.2440 C   0  0  0  0  0  2  0  0  0  0  0  0
  194.3210  175.0690  139.2120 C   0  0  0  0  0  2  0  0  0  0  0  0
  1  7  1  0  0  0  0
  3  5  1  6  0  0  0
  3  4  1  0  0  0  0
  4  7  1  0  0  0  0
  6  9  1  6  0  0  0
  6  3  1  0  0  0  0
  6  1  1  0  0  0  0
  7  2  1  1  0  0  0
  8  9  1  0  0  0  0
 10 11  2  0  0  0  0
 11  6  1  0  0  0  0
 12 20  1  0  0  0  0
 13 18  1  0  0  0  0
 13 12  2  0  0  0  0
 14 21  1  6  0  0  0
 14 18  1  0  0  0  0
 14 17  1  0  0  0  0
 16 15  1  0  0  0  0
 16 19  1  0  0  0  0
 17 11  1  6  0  0  0
 17 15  1  0  0  0  0
 18 16  2  0  0  0  0
 20 19  2  0  0  0  0
 22 21  1  0  0  0  0
 23 22  1  0  0  0  0
 24  7  1  0  0  0  0
 25 24  1  0  0  0  0
 25 26  2  0  0  0  0
 27 25  1  0  0  0  0
 28 32  1  6  0  0  0
 28 31  1  0  0  0  0
 28 27  1  0  0  0  0
 29 31  2  0  0  0  0
 30 29  2  0  0  0  0
 33 32  1  0  0  0  0
 34 35  1  0  0  0  0
 34 33  1  0  0  0  0
 36 34  1  0  0  0  0
 36 35  1  0  0  0  0
M  END
>  <MODEL>
6

>  <REMARK>
 VINA RESULT:      -6.3      1.757      3.116
  Name = 
  13 active torsions:
  status: ('A' for Active; 'I' for Inactive)
    1  A    between atoms: C_4  and  C_7
    2  A    between atoms: C_4  and  C_18
    3  A    between atoms: C_7  and  C_24
    4  A    between atoms: O_9  and  C_11
    5  A    between atoms: O_9  and  C_21
    6  A    between atoms: C_14  and  C_16
    7  A    between atoms: C_14  and  C_27
    8  A    between atoms: C_16  and  C_35
    9  A    between atoms: C_17  and  C_32
   10  A    between atoms: O_23  and  C_33
   11  A    between atoms: C_24  and  C_27
   12  A    between atoms: C_24  and  N_36
   13  A    between atoms: C_32  and  C_33
                            x       y       z     vdW  Elec       q    Type
                         _______ _______ _______ _____ _____    ______ ____

>  <TORSDO>
F 13

$$$$
=
 OpenBabel11072408443D

 36 39  0  0  1  0  0  0  0  0999 V2000
  191.8390  174.8690  145.3230 C   0  0  0  0  0  2  0  0  0  0  0  0
  193.2900  174.2180  143.5480 O   0  0  0  0  0  1  0  0  0  0  0  0
  191.6650  176.8760  144.1770 C   0  0  2  0  0  3  0  0  0  0  0  0
  192.9820  176.4470  143.9460 O   0  0  0  0  0  0  0  0  0  0  0  0
  191.6210  178.2690  144.2590 O   0  0  0  0  0  1  0  0  0  0  0  0
  191.1300  176.1870  145.4350 C   0  0  2  0  0  0  0  0  0  0  0  0
  193.1080  175.1790  144.5460 C   0  0  1  0  0  0  0  0  0  0  0  0
  191.3100  175.9980  147.7480 C   0  0  0  0  0  1  0  0  0  0  0  0
  191.5730  176.8130  146.6320 O   0  0  0  0  0  0  0  0  0  0  0  0
  189.1980  174.8610  145.0090 O   0  0  0  0  0  0  0  0  0  0  0  0
  189.6200  175.9440  145.3870 C   0  0  0  0  0  0  0  0  0  0  0  0
  184.4560  179.0420  144.8530 C   0  0  0  0  0  3  0  0  0  0  0  0
  185.7550  178.9370  144.3340 C   0  0  0  0  0  3  0  0  0  0  0  0
  188.0620  177.8210  144.5580 C   0  0  2  0  0  3  0  0  0  0  0  0
  187.4050  176.5260  146.5860 C   0  0  0  0  0  2  0  0  0  0  0  0
  186.2990  177.3600  146.0770 C   0  0  0  0  0  0  0  0  0  0  0  0
  188.6060  177.0070  145.7550 C   0  0  1  0  0  3  0  0  0  0  0  0
  186.6620  178.0850  144.9680 C   0  0  0  0  0  0  0  0  0  0  0  0
  185.0120  177.4460  146.6090 C   0  0  0  0  0  3  0  0  0  0  0  0
  184.0850  178.2970  145.9870 C   0  0  0  0  0  3  0  0  0  0  0  0
  188.0570  177.0580  143.3860 O   0  0  0  0  0  0  0  0  0  0  0  0
  188.5380  177.9150  142.3960 C   0  0  0  0  0  2  0  0  0  0  0  0
  187.8470  177.6850  141.2070 O   0  0  0  0  0  1  0  0  0  0  0  0
  194.3170  175.2080  145.4860 C   0  0  0  0  0  2  0  0  0  0  0  0
  195.6350  175.2110  144.7710 C   0  0  0  0  0  0  0  0  0  0  0  0
  195.7740  175.8960  143.7700 O   0  0  0  0  0  0  0  0  0  0  0  0
  196.7800  174.3990  145.2910 C   0  0  0  0  0  2  0  0  0  0  0  0
  196.7880  173.0100  144.6620 C   0  0  1  0  0  3  0  0  0  0  0  0
  197.9280  173.1780  142.5530 C   0  0  0  0  0  0  0  0  0  0  0  0
  197.9130  173.5130  141.3620 O   0  0  0  0  0  0  0  0  0  0  0  0
  197.9410  172.8320  143.7790 N   0  0  0  0  0  0  0  0  0  0  0  0
  196.7490  171.9410  145.7490 C   0  0  0  0  0  2  0  0  0  0  0  0
  195.4210  171.2000  145.7460 C   0  0  0  0  0  2  0  0  0  0  0  0
  194.7020  171.4040  144.4260 C   0  0  0  0  0  3  0  0  0  0  0  0
  194.4400  170.0550  143.7890 C   0  0  0  0  0  2  0  0  0  0  0  0
  193.3250  170.7780  144.5100 C   0  0  0  0  0  2  0  0  0  0  0  0
  1  6  1  0  0  0  0
  3  5  1  1  0  0  0
  3  6  1  0  0  0  0
  4  3  1  0  0  0  0
  4  7  1  0  0  0  0
  6 11  1  6  0  0  0
  6  9  1  0  0  0  0
  7  2  1  6  0  0  0
  7  1  1  0  0  0  0
  7 24  1  0  0  0  0
  9  8  1  0  0  0  0
 10 11  2  0  0  0  0
 12 20  1  0  0  0  0
 13 12  2  0  0  0  0
 13 18  1  0  0  0  0
 14 21  1  6  0  0  0
 14 18  1  0  0  0  0
 14 17  1  0  0  0  0
 16 15  1  0  0  0  0
 16 19  1  0  0  0  0
 17 11  1  6  0  0  0
 17 15  1  0  0  0  0
 18 16  2  0  0  0  0
 20 19  2  0  0  0  0
 22 21  1  0  0  0  0
 23 22  1  0  0  0  0
 25 27  1  0  0  0  0
 25 24  1  0  0  0  0
 26 25  2  0  0  0  0
 28 27  1  1  0  0  0
 28 32  1  0  0  0  0
 29 31  2  0  0  0  0
 30 29  2  0  0  0  0
 31 28  1  0  0  0  0
 33 32  1  0  0  0  0
 34 36  1  0  0  0  0
 34 33  1  0  0  0  0
 35 34  1  0  0  0  0
 35 36  1  0  0  0  0
M  END
>  <MODEL>
7

>  <REMARK>
 VINA RESULT:      -6.2      1.257      1.663
  Name = 
  13 active torsions:
  status: ('A' for Active; 'I' for Inactive)
    1  A    between atoms: C_4  and  C_7
    2  A    between atoms: C_4  and  C_18
    3  A    between atoms: C_7  and  C_24
    4  A    between atoms: O_9  and  C_11
    5  A    between atoms: O_9  and  C_21
    6  A    between atoms: C_14  and  C_16
    7  A    between atoms: C_14  and  C_27
    8  A    between atoms: C_16  and  C_35
    9  A    between atoms: C_17  and  C_32
   10  A    between atoms: O_23  and  C_33
   11  A    between atoms: C_24  and  C_27
   12  A    between atoms: C_24  and  N_36
   13  A    between atoms: C_32  and  C_33
                            x       y       z     vdW  Elec       q    Type
                         _______ _______ _______ _____ _____    ______ ____

>  <TORSDO>
F 13

$$$$
=
 OpenBabel11072408443D

 36 39  0  0  1  0  0  0  0  0999 V2000
  189.1920  175.1620  144.1620 C   0  0  0  0  0  2  0  0  0  0  0  0
  188.4480  177.4090  144.4460 O   0  0  0  0  0  1  0  0  0  0  0  0
  191.0510  176.1150  143.1590 C   0  0  2  0  0  3  0  0  0  0  0  0
  189.9860  176.9640  142.8150 O   0  0  0  0  0  0  0  0  0  0  0  0
  191.9760  176.0560  142.1150 O   0  0  0  0  0  1  0  0  0  0  0  0
  190.4910  174.7420  143.5390 C   0  0  2  0  0  0  0  0  0  0  0  0
  188.8470  176.4770  143.4830 C   0  0  1  0  0  0  0  0  0  0  0  0
  189.4210  172.8210  142.7740 C   0  0  0  0  0  1  0  0  0  0  0  0
  190.1850  173.9430  142.4030 O   0  0  0  0  0  0  0  0  0  0  0  0
  190.9000  173.8920  145.7270 O   0  0  0  0  0  0  0  0  0  0  0  0
  191.3360  174.0230  144.5920 C   0  0  0  0  0  0  0  0  0  0  0  0
  197.0790  172.6420  145.8830 C   0  0  0  0  0  3  0  0  0  0  0  0
  196.2430  173.7030  145.5050 C   0  0  0  0  0  3  0  0  0  0  0  0
  193.8790  174.4030  144.7720 C   0  0  2  0  0  3  0  0  0  0  0  0
  193.0100  172.0650  144.8140 C   0  0  0  0  0  2  0  0  0  0  0  0
  194.4310  172.1370  145.2040 C   0  0  0  0  0  0  0  0  0  0  0  0
  192.7230  173.4870  144.3040 C   0  0  1  0  0  3  0  0  0  0  0  0
  194.9170  173.4220  145.1690 C   0  0  0  0  0  0  0  0  0  0  0  0
  195.2440  171.0660  145.5790 C   0  0  0  0  0  3  0  0  0  0  0  0
  196.5800  171.3270  145.9210 C   0  0  0  0  0  3  0  0  0  0  0  0
  193.5080  175.1530  145.8930 O   0  0  0  0  0  0  0  0  0  0  0  0
  193.9530  176.4470  145.6230 C   0  0  0  0  0  2  0  0  0  0  0  0
  193.9660  177.1890  146.8030 O   0  0  0  0  0  1  0  0  0  0  0  0
  187.7350  176.2700  142.4490 C   0  0  0  0  0  2  0  0  0  0  0  0
  186.7420  177.3920  142.4000 C   0  0  0  0  0  0  0  0  0  0  0  0
  186.9810  178.3760  141.7180 O   0  0  0  0  0  0  0  0  0  0  0  0
  185.4560  177.3000  143.1610 C   0  0  0  0  0  2  0  0  0  0  0  0
  184.6660  178.5990  143.0480 C   0  0  1  0  0  3  0  0  0  0  0  0
  183.0940  178.1910  141.2760 C   0  0  0  0  0  0  0  0  0  0  0  0
  182.8740  178.0260  140.0700 O   0  0  0  0  0  0  0  0  0  0  0  0
  183.3230  178.3610  142.5180 N   0  0  0  0  0  0  0  0  0  0  0  0
  184.6140  179.3010  144.4010 C   0  0  0  0  0  2  0  0  0  0  0  0
  185.9400  179.1800  145.1360 C   0  0  0  0  0  2  0  0  0  0  0  0
  185.7070  178.8790  146.6050 C   0  0  0  0  0  3  0  0  0  0  0  0
  184.3540  178.2190  146.7680 C   0  0  0  0  0  2  0  0  0  0  0  0
  185.6120  177.3790  146.7930 C   0  0  0  0  0  2  0  0  0  0  0  0
  3  5  1  6  0  0  0
  3  6  1  0  0  0  0
  4  3  1  0  0  0  0
  4  7  1  0  0  0  0
  6  9  1  6  0  0  0
  6  1  1  0  0  0  0
  6 11  1  0  0  0  0
  7  1  1  0  0  0  0
  7  2  1  1  0  0  0
  9  8  1  0  0  0  0
 11 10  2  0  0  0  0
 12 20  1  0  0  0  0
 13 12  2  0  0  0  0
 14 18  1  0  0  0  0
 14 21  1  1  0  0  0
 15 16  1  0  0  0  0
 16 19  1  0  0  0  0
 17 11  1  1  0  0  0
 17 14  1  0  0  0  0
 17 15  1  0  0  0  0
 18 16  2  0  0  0  0
 18 13  1  0  0  0  0
 19 20  2  0  0  0  0
 22 21  1  0  0  0  0
 22 23  1  0  0  0  0
 24  7  1  0  0  0  0
 25 24  1  0  0  0  0
 25 27  1  0  0  0  0
 26 25  2  0  0  0  0
 28 27  1  1  0  0  0
 28 32  1  0  0  0  0
 29 31  2  0  0  0  0
 30 29  2  0  0  0  0
 31 28  1  0  0  0  0
 32 33  1  0  0  0  0
 33 34  1  0  0  0  0
 34 35  1  0  0  0  0
 34 36  1  0  0  0  0
 35 36  1  0  0  0  0
M  END
>  <MODEL>
8

>  <REMARK>
 VINA RESULT:      -6.2      2.966      9.484
  Name = 
  13 active torsions:
  status: ('A' for Active; 'I' for Inactive)
    1  A    between atoms: C_4  and  C_7
    2  A    between atoms: C_4  and  C_18
    3  A    between atoms: C_7  and  C_24
    4  A    between atoms: O_9  and  C_11
    5  A    between atoms: O_9  and  C_21
    6  A    between atoms: C_14  and  C_16
    7  A    between atoms: C_14  and  C_27
    8  A    between atoms: C_16  and  C_35
    9  A    between atoms: C_17  and  C_32
   10  A    between atoms: O_23  and  C_33
   11  A    between atoms: C_24  and  C_27
   12  A    between atoms: C_24  and  N_36
   13  A    between atoms: C_32  and  C_33
                            x       y       z     vdW  Elec       q    Type
                         _______ _______ _______ _____ _____    ______ ____

>  <TORSDO>
F 13

$$$$
=
 OpenBabel11072408443D

 36 39  0  0  1  0  0  0  0  0999 V2000
  192.0380  175.0390  145.8960 C   0  0  0  0  0  2  0  0  0  0  0  0
  191.3680  175.2490  148.1740 O   0  0  0  0  0  1  0  0  0  0  0  0
  193.7830  176.4450  146.4870 C   0  0  2  0  0  3  0  0  0  0  0  0
  192.6980  176.8730  147.2710 O   0  0  0  0  0  0  0  0  0  0  0  0
  194.5780  177.5350  146.1300 O   0  0  0  0  0  1  0  0  0  0  0  0
  193.2500  175.6730  145.2770 C   0  0  2  0  0  0  0  0  0  0  0  0
  191.6370  175.9850  147.0160 C   0  0  1  0  0  0  0  0  0  0  0  0
  191.9920  175.8270  143.3250 C   0  0  0  0  0  1  0  0  0  0  0  0
  192.8000  176.5310  144.2360 O   0  0  0  0  0  0  0  0  0  0  0  0
  194.8330  174.7260  143.7710 O   0  0  0  0  0  0  0  0  0  0  0  0
  194.2000  174.5720  144.8050 C   0  0  0  0  0  0  0  0  0  0  0  0
  195.1780  168.6280  145.3280 C   0  0  0  0  0  3  0  0  0  0  0  0
  194.1830  169.5760  145.0490 C   0  0  0  0  0  3  0  0  0  0  0  0
  193.5790  172.0750  144.9550 C   0  0  2  0  0  3  0  0  0  0  0  0
  195.8230  172.8030  145.7640 C   0  0  0  0  0  2  0  0  0  0  0  0
  195.7210  171.3340  145.6530 C   0  0  0  0  0  0  0  0  0  0  0  0
  194.3720  173.2630  145.5480 C   0  0  1  0  0  3  0  0  0  0  0  0
  194.4820  170.9300  145.2210 C   0  0  0  0  0  0  0  0  0  0  0  0
  196.7270  170.4090  145.9350 C   0  0  0  0  0  3  0  0  0  0  0  0
  196.4480  169.0440  145.7690 C   0  0  0  0  0  3  0  0  0  0  0  0
  193.4150  172.2150  143.5730 O   0  0  0  0  0  0  0  0  0  0  0  0
  192.0520  172.0150  143.3500 C   0  0  0  0  0  2  0  0  0  0  0  0
  191.3830  171.9740  144.5720 O   0  0  0  0  0  1  0  0  0  0  0  0
  190.4090  176.8050  146.6080 C   0  0  0  0  0  2  0  0  0  0  0  0
  189.2410  175.9680  146.1800 C   0  0  0  0  0  0  0  0  0  0  0  0
  188.6510  175.2920  147.0080 O   0  0  0  0  0  0  0  0  0  0  0  0
  188.7860  175.9760  144.7540 C   0  0  0  0  0  2  0  0  0  0  0  0
  188.2740  177.3570  144.3570 C   0  0  1  0  0  3  0  0  0  0  0  0
  188.3760  177.8840  142.0150 C   0  0  0  0  0  0  0  0  0  0  0  0
  187.8220  177.9180  140.9090 O   0  0  0  0  0  0  0  0  0  0  0  0
  188.9460  177.8480  143.1540 N   0  0  0  0  0  0  0  0  0  0  0  0
  186.7600  177.3220  144.1760 C   0  0  0  0  0  2  0  0  0  0  0  0
  186.0640  178.2320  145.1770 C   0  0  0  0  0  2  0  0  0  0  0  0
  185.4050  177.4120  146.2700 C   0  0  0  0  0  3  0  0  0  0  0  0
  186.1200  177.6650  147.5800 C   0  0  0  0  0  2  0  0  0  0  0  0
  184.8010  178.3500  147.2960 C   0  0  0  0  0  2  0  0  0  0  0  0
  1  7  1  0  0  0  0
  3  5  1  6  0  0  0
  3  4  1  0  0  0  0
  6  9  1  6  0  0  0
  6  1  1  0  0  0  0
  6  3  1  0  0  0  0
  7  4  1  0  0  0  0
  7  2  1  1  0  0  0
  8  9  1  0  0  0  0
 10 11  2  0  0  0  0
 11  6  1  0  0  0  0
 12 20  1  0  0  0  0
 13 18  1  0  0  0  0
 13 12  2  0  0  0  0
 14 21  1  6  0  0  0
 14 18  1  0  0  0  0
 14 17  1  0  0  0  0
 16 15  1  0  0  0  0
 16 19  1  0  0  0  0
 17 11  1  6  0  0  0
 17 15  1  0  0  0  0
 18 16  2  0  0  0  0
 20 19  2  0  0  0  0
 22 21  1  0  0  0  0
 22 23  1  0  0  0  0
 24  7  1  0  0  0  0
 25 24  1  0  0  0  0
 25 26  2  0  0  0  0
 27 25  1  0  0  0  0
 28 32  1  6  0  0  0
 28 27  1  0  0  0  0
 29 31  2  0  0  0  0
 30 29  2  0  0  0  0
 31 28  1  0  0  0  0
 32 33  1  0  0  0  0
 33 34  1  0  0  0  0
 34 36  1  0  0  0  0
 34 35  1  0  0  0  0
 36 35  1  0  0  0  0
M  END
>  <MODEL>
9

>  <REMARK>
 VINA RESULT:      -6.2      2.088      8.797
  Name = 
  13 active torsions:
  status: ('A' for Active; 'I' for Inactive)
    1  A    between atoms: C_4  and  C_7
    2  A    between atoms: C_4  and  C_18
    3  A    between atoms: C_7  and  C_24
    4  A    between atoms: O_9  and  C_11
    5  A    between atoms: O_9  and  C_21
    6  A    between atoms: C_14  and  C_16
    7  A    between atoms: C_14  and  C_27
    8  A    between atoms: C_16  and  C_35
    9  A    between atoms: C_17  and  C_32
   10  A    between atoms: O_23  and  C_33
   11  A    between atoms: C_24  and  C_27
   12  A    between atoms: C_24  and  N_36
   13  A    between atoms: C_32  and  C_33
                            x       y       z     vdW  Elec       q    Type
                         _______ _______ _______ _____ _____    ______ ____

>  <TORSDO>
F 13

$$$$
