=
 OpenBabel11062421083D

 27 31  0  0  1  0  0  0  0  0999 V2000
  186.4410  178.0930  144.3700 C   0  0  0  0  0  0  0  0  0  0  0  0
  188.3970  177.5540  142.9900 C   0  0  0  0  0  0  0  0  0  0  0  0
  190.9600  177.6280  143.4340 C   0  0  0  0  0  2  0  0  0  0  0  0
  185.7300  178.4400  143.2180 C   0  0  0  0  0  3  0  0  0  0  0  0
  187.7830  177.6580  144.2850 C   0  0  0  0  0  0  0  0  0  0  0  0
  185.6220  178.0680  147.8220 O   0  0  0  0  0  0  0  0  0  0  0  0
  188.5290  177.3870  145.5650 C   0  0  0  0  0  0  0  0  0  0  0  0
  187.8880  177.4070  146.9340 C   0  0  0  0  0  2  0  0  0  0  0  0
  186.4710  177.8760  146.8460 C   0  0  0  0  0  0  0  0  0  0  0  0
  184.4870  178.4810  147.3230 N   0  0  0  0  0  0  0  0  0  0  0  0
  186.3300  178.3550  141.9630 C   0  0  0  0  0  0  0  0  0  0  0  0
  184.5680  178.5670  145.9990 N   0  0  0  0  0  0  0  0  0  0  0  0
  189.7690  176.9460  142.7200 C   0  0  0  0  0  2  0  0  0  0  0  0
  189.8110  177.3250  145.4520 C   0  0  0  0  0  0  0  0  0  0  0  0
  190.9820  177.3160  144.9040 C   0  0  0  0  0  0  0  0  0  0  0  0
  187.6520  177.8990  141.8580 C   0  0  0  0  0  3  0  0  0  0  0  0
  185.8200  178.1860  145.6920 C   0  0  0  0  0  0  0  0  0  0  0  0
  192.1390  176.6290  145.5510 C   0  0  1  0  0  3  0  0  0  0  0  0
  191.7660  176.1570  146.9450 C   0  0  0  0  0  2  0  0  0  0  0  0
  191.7910  175.1710  145.7990 C   0  0  2  0  0  3  0  0  0  0  0  0
  193.0740  174.3630  145.8460 C   0  0  0  0  0  2  0  0  0  0  0  0
  192.9480  173.1190  144.9820 C   0  0  0  0  0  2  0  0  0  0  0  0
  191.6510  173.1470  144.1950 C   0  0  0  0  0  2  0  0  0  0  0  0
  190.9620  171.8790  144.3540 N   0  0  0  0  0  1  0  0  0  0  0  0
  185.5870  178.7130  140.8340 O   0  0  0  0  0  0  0  0  0  0  0  0
  184.6230  177.8570  140.2280 C   0  0  0  0  0  2  0  0  0  0  0  0
  183.2220  178.2980  140.6050 C   0  0  0  0  0  1  0  0  0  0  0  0
  1 17  1  0  0  0  0
  2  5  2  0  0  0  0
  3 15  1  0  0  0  0
  4  1  2  0  0  0  0
  5  1  1  0  0  0  0
  5  7  1  0  0  0  0
  7  8  1  0  0  0  0
  9  8  1  0  0  0  0
  9  6  1  0  0  0  0
 10  6  1  0  0  0  0
 11  4  1  0  0  0  0
 12 10  2  0  0  0  0
 13  2  1  0  0  0  0
 13  3  1  0  0  0  0
 14  7  2  0  0  0  0
 15 14  2  0  0  0  0
 16 11  2  0  0  0  0
 16  2  1  0  0  0  0
 17 12  1  0  0  0  0
 17  9  2  0  0  0  0
 18 15  1  6  0  0  0
 18 20  1  0  0  0  0
 18 19  1  0  0  0  0
 20 21  1  1  0  0  0
 20 19  1  0  0  0  0
 22 21  1  0  0  0  0
 23 24  1  0  0  0  0
 23 22  1  0  0  0  0
 25 11  1  0  0  0  0
 26 27  1  0  0  0  0
 26 25  1  0  0  0  0
M  END
>  <MODEL>
1

>  <REMARK>
 VINA RESULT:      -7.5      0.000      0.000
  Name = 
  6 active torsions:
  status: ('A' for Active; 'I' for Inactive)
    1  A    between atoms: C_6  and  C_25
    2  A    between atoms: O_9  and  C_12
    3  A    between atoms: O_9  and  C_16
    4  A    between atoms: C_11  and  C_24
    5  A    between atoms: C_20  and  C_22
    6  A    between atoms: C_20  and  C_24
                            x       y       z     vdW  Elec       q    Type
                         _______ _______ _______ _____ _____    ______ ____

>  <TORSDO>
F 6

$$$$
=
 OpenBabel11062421083D

 27 31  0  0  1  0  0  0  0  0999 V2000
  186.4480  178.1360  144.3710 C   0  0  0  0  0  0  0  0  0  0  0  0
  188.3510  177.6670  142.8960 C   0  0  0  0  0  0  0  0  0  0  0  0
  190.9300  177.7890  143.2280 C   0  0  0  0  0  2  0  0  0  0  0  0
  185.6790  178.4890  143.2590 C   0  0  0  0  0  3  0  0  0  0  0  0
  187.7940  177.7320  144.2190 C   0  0  0  0  0  0  0  0  0  0  0  0
  185.7840  178.0270  147.8550 O   0  0  0  0  0  0  0  0  0  0  0  0
  188.6020  177.4530  145.4590 C   0  0  0  0  0  0  0  0  0  0  0  0
  188.0210  177.4330  146.8550 C   0  0  0  0  0  2  0  0  0  0  0  0
  186.5920  177.8720  146.8390 C   0  0  0  0  0  0  0  0  0  0  0  0
  184.6190  178.4240  147.4150 N   0  0  0  0  0  0  0  0  0  0  0  0
  186.2240  178.4410  141.9770 C   0  0  0  0  0  0  0  0  0  0  0  0
  184.6390  178.5370  146.0910 N   0  0  0  0  0  0  0  0  0  0  0  0
  189.7230  177.0940  142.5540 C   0  0  0  0  0  2  0  0  0  0  0  0
  189.8780  177.4220  145.2880 C   0  0  0  0  0  0  0  0  0  0  0  0
  191.0230  177.4500  144.6900 C   0  0  0  0  0  0  0  0  0  0  0  0
  187.5500  178.0170  141.8050 C   0  0  0  0  0  3  0  0  0  0  0  0
  185.8840  178.1890  145.7210 C   0  0  0  0  0  0  0  0  0  0  0  0
  192.2230  176.7770  145.2710 C   0  0  1  0  0  3  0  0  0  0  0  0
  191.8040  175.6170  146.1560 C   0  0  0  0  0  2  0  0  0  0  0  0
  192.3050  175.3500  144.7540 C   0  0  2  0  0  3  0  0  0  0  0  0
  193.7510  174.8940  144.8050 C   0  0  0  0  0  2  0  0  0  0  0  0
  194.2530  174.5730  143.4070 C   0  0  0  0  0  2  0  0  0  0  0  0
  195.0510  175.7360  142.8480 C   0  0  0  0  0  2  0  0  0  0  0  0
  195.6450  176.4840  143.9410 N   0  0  0  0  0  1  0  0  0  0  0  0
  185.4240  178.8040  140.8890 O   0  0  0  0  0  0  0  0  0  0  0  0
  184.5320  177.9050  140.2400 C   0  0  0  0  0  2  0  0  0  0  0  0
  183.0990  178.2190  140.6270 C   0  0  0  0  0  1  0  0  0  0  0  0
  1 17  1  0  0  0  0
  2  5  2  0  0  0  0
  3 15  1  0  0  0  0
  4  1  2  0  0  0  0
  5  1  1  0  0  0  0
  5  7  1  0  0  0  0
  7  8  1  0  0  0  0
  9  8  1  0  0  0  0
  9  6  1  0  0  0  0
 10  6  1  0  0  0  0
 11  4  1  0  0  0  0
 12 10  2  0  0  0  0
 13  2  1  0  0  0  0
 13  3  1  0  0  0  0
 14  7  2  0  0  0  0
 15 14  2  0  0  0  0
 16 11  2  0  0  0  0
 16  2  1  0  0  0  0
 17 12  1  0  0  0  0
 17  9  2  0  0  0  0
 18 15  1  6  0  0  0
 18 19  1  0  0  0  0
 20 21  1  1  0  0  0
 20 18  1  0  0  0  0
 20 19  1  0  0  0  0
 22 21  1  0  0  0  0
 23 22  1  0  0  0  0
 23 24  1  0  0  0  0
 25 11  1  0  0  0  0
 26 27  1  0  0  0  0
 26 25  1  0  0  0  0
M  END
>  <MODEL>
2

>  <REMARK>
 VINA RESULT:      -7.4      1.594      1.661
  Name = 
  6 active torsions:
  status: ('A' for Active; 'I' for Inactive)
    1  A    between atoms: C_6  and  C_25
    2  A    between atoms: O_9  and  C_12
    3  A    between atoms: O_9  and  C_16
    4  A    between atoms: C_11  and  C_24
    5  A    between atoms: C_20  and  C_22
    6  A    between atoms: C_20  and  C_24
                            x       y       z     vdW  Elec       q    Type
                         _______ _______ _______ _____ _____    ______ ____

>  <TORSDO>
F 6

$$$$
=
 OpenBabel11062421083D

 27 31  0  0  1  0  0  0  0  0999 V2000
  185.6570  177.6920  144.2520 C   0  0  0  0  0  0  0  0  0  0  0  0
  187.0700  176.6440  142.5420 C   0  0  0  0  0  0  0  0  0  0  0  0
  189.5890  175.9910  142.4730 C   0  0  0  0  0  2  0  0  0  0  0  0
  184.8550  178.2390  143.2480 C   0  0  0  0  0  3  0  0  0  0  0  0
  186.7810  176.8990  143.9270 C   0  0  0  0  0  0  0  0  0  0  0  0
  185.5700  177.8530  147.7960 O   0  0  0  0  0  0  0  0  0  0  0  0
  187.6630  176.4140  145.0460 C   0  0  0  0  0  0  0  0  0  0  0  0
  187.3390  176.5950  146.5120 C   0  0  0  0  0  2  0  0  0  0  0  0
  186.1200  177.4430  146.6820 C   0  0  0  0  0  0  0  0  0  0  0  0
  184.5180  178.5740  147.5110 N   0  0  0  0  0  0  0  0  0  0  0  0
  185.1450  178.0050  141.9050 C   0  0  0  0  0  0  0  0  0  0  0  0
  184.3530  178.6510  146.1940 N   0  0  0  0  0  0  0  0  0  0  0  0
  188.1380  175.6790  142.0360 C   0  0  0  0  0  2  0  0  0  0  0  0
  188.8280  175.9970  144.6880 C   0  0  0  0  0  0  0  0  0  0  0  0
  189.8160  175.6670  143.9230 C   0  0  0  0  0  0  0  0  0  0  0  0
  186.2400  177.1990  141.5640 C   0  0  0  0  0  3  0  0  0  0  0  0
  185.3630  177.9380  145.6650 C   0  0  0  0  0  0  0  0  0  0  0  0
  190.8430  174.6750  144.3610 C   0  0  1  0  0  3  0  0  0  0  0  0
  192.0300  174.6880  143.4150 C   0  0  0  0  0  2  0  0  0  0  0  0
  192.1210  175.4030  144.7450 C   0  0  2  0  0  3  0  0  0  0  0  0
  192.8910  174.5490  145.7340 C   0  0  0  0  0  2  0  0  0  0  0  0
  194.1690  175.2550  146.1600 C   0  0  0  0  0  2  0  0  0  0  0  0
  193.8760  176.6890  146.5610 C   0  0  0  0  0  2  0  0  0  0  0  0
  194.7340  177.5860  145.8080 N   0  0  0  0  0  1  0  0  0  0  0  0
  184.3190  178.5720  140.9280 O   0  0  0  0  0  0  0  0  0  0  0  0
  183.2320  177.8790  140.3240 C   0  0  0  0  0  2  0  0  0  0  0  0
  181.9300  178.2520  141.0070 C   0  0  0  0  0  1  0  0  0  0  0  0
  1 17  1  0  0  0  0
  2  5  2  0  0  0  0
  3 15  1  0  0  0  0
  4  1  2  0  0  0  0
  5  1  1  0  0  0  0
  5  7  1  0  0  0  0
  7  8  1  0  0  0  0
  8  9  1  0  0  0  0
  9  6  1  0  0  0  0
 10  6  1  0  0  0  0
 11  4  1  0  0  0  0
 12 10  2  0  0  0  0
 13  3  1  0  0  0  0
 13  2  1  0  0  0  0
 14  7  2  0  0  0  0
 15 14  2  0  0  0  0
 16 11  2  0  0  0  0
 16  2  1  0  0  0  0
 17 12  1  0  0  0  0
 17  9  2  0  0  0  0
 18 15  1  6  0  0  0
 18 20  1  0  0  0  0
 19 18  1  0  0  0  0
 19 20  1  0  0  0  0
 20 21  1  1  0  0  0
 21 22  1  0  0  0  0
 22 23  1  0  0  0  0
 24 23  1  0  0  0  0
 25 11  1  0  0  0  0
 26 25  1  0  0  0  0
 26 27  1  0  0  0  0
M  END
>  <MODEL>
3

>  <REMARK>
 VINA RESULT:      -7.4      1.879      2.281
  Name = 
  6 active torsions:
  status: ('A' for Active; 'I' for Inactive)
    1  A    between atoms: C_6  and  C_25
    2  A    between atoms: O_9  and  C_12
    3  A    between atoms: O_9  and  C_16
    4  A    between atoms: C_11  and  C_24
    5  A    between atoms: C_20  and  C_22
    6  A    between atoms: C_20  and  C_24
                            x       y       z     vdW  Elec       q    Type
                         _______ _______ _______ _____ _____    ______ ____

>  <TORSDO>
F 6

$$$$
=
 OpenBabel11062421083D

 27 31  0  0  1  0  0  0  0  0999 V2000
  192.0670  174.9020  144.0840 C   0  0  0  0  0  0  0  0  0  0  0  0
  191.5830  175.7950  146.3170 C   0  0  0  0  0  0  0  0  0  0  0  0
  189.6500  177.2560  147.2660 C   0  0  0  0  0  2  0  0  0  0  0  0
  193.4340  174.9470  144.3670 C   0  0  0  0  0  3  0  0  0  0  0  0
  191.1180  175.3330  145.0380 C   0  0  0  0  0  0  0  0  0  0  0  0
  190.2030  173.8940  141.2380 O   0  0  0  0  0  0  0  0  0  0  0  0
  189.6640  175.3500  144.6450 C   0  0  0  0  0  0  0  0  0  0  0  0
  189.1390  174.7920  143.3410 C   0  0  0  0  0  2  0  0  0  0  0  0
  190.2660  174.3720  142.4540 C   0  0  0  0  0  0  0  0  0  0  0  0
  191.4130  173.6520  140.8120 N   0  0  0  0  0  0  0  0  0  0  0  0
  193.8870  175.4110  145.6010 C   0  0  0  0  0  0  0  0  0  0  0  0
  192.3040  173.9660  141.7470 N   0  0  0  0  0  0  0  0  0  0  0  0
  190.6860  176.1310  147.5030 C   0  0  0  0  0  2  0  0  0  0  0  0
  188.8970  176.0510  145.4050 C   0  0  0  0  0  0  0  0  0  0  0  0
  188.5180  176.7960  146.3900 C   0  0  0  0  0  0  0  0  0  0  0  0
  192.9580  175.8160  146.5700 C   0  0  0  0  0  3  0  0  0  0  0  0
  191.5850  174.4220  142.7880 C   0  0  0  0  0  0  0  0  0  0  0  0
  187.1000  176.8090  146.8580 C   0  0  1  0  0  3  0  0  0  0  0  0
  186.7880  178.1120  147.5710 C   0  0  0  0  0  2  0  0  0  0  0  0
  186.3380  177.9120  146.1410 C   0  0  2  0  0  3  0  0  0  0  0  0
  184.8650  177.5490  146.1130 C   0  0  0  0  0  2  0  0  0  0  0  0
  184.0330  178.7520  145.6960 C   0  0  0  0  0  2  0  0  0  0  0  0
  184.5260  179.3080  144.3730 C   0  0  0  0  0  2  0  0  0  0  0  0
  184.0650  178.4580  143.2900 N   0  0  0  0  0  1  0  0  0  0  0  0
  195.2630  175.4430  145.8470 O   0  0  0  0  0  0  0  0  0  0  0  0
  196.1980  174.6080  145.1710 C   0  0  0  0  0  2  0  0  0  0  0  0
  196.8680  173.6690  146.1560 C   0  0  0  0  0  1  0  0  0  0  0  0
  1  4  2  0  0  0  0
  1  5  1  0  0  0  0
  2 16  1  0  0  0  0
  2 13  1  0  0  0  0
  3 13  1  0  0  0  0
  4 11  1  0  0  0  0
  5  2  2  0  0  0  0
  6  9  1  0  0  0  0
  7  5  1  0  0  0  0
  7 14  2  0  0  0  0
  8  7  1  0  0  0  0
  9 17  2  0  0  0  0
  9  8  1  0  0  0  0
 10  6  1  0  0  0  0
 10 12  2  0  0  0  0
 11 25  1  0  0  0  0
 11 16  2  0  0  0  0
 12 17  1  0  0  0  0
 14 15  2  0  0  0  0
 15  3  1  0  0  0  0
 17  1  1  0  0  0  0
 18 15  1  6  0  0  0
 18 19  1  0  0  0  0
 20 21  1  1  0  0  0
 20 18  1  0  0  0  0
 20 19  1  0  0  0  0
 22 21  1  0  0  0  0
 23 22  1  0  0  0  0
 24 23  1  0  0  0  0
 26 25  1  0  0  0  0
 26 27  1  0  0  0  0
M  END
>  <MODEL>
4

>  <REMARK>
 VINA RESULT:      -7.2      3.211      8.088
  Name = 
  6 active torsions:
  status: ('A' for Active; 'I' for Inactive)
    1  A    between atoms: C_6  and  C_25
    2  A    between atoms: O_9  and  C_12
    3  A    between atoms: O_9  and  C_16
    4  A    between atoms: C_11  and  C_24
    5  A    between atoms: C_20  and  C_22
    6  A    between atoms: C_20  and  C_24
                            x       y       z     vdW  Elec       q    Type
                         _______ _______ _______ _____ _____    ______ ____

>  <TORSDO>
F 6

$$$$
=
 OpenBabel11062421083D

 27 31  0  0  1  0  0  0  0  0999 V2000
  186.7420  176.8410  143.8500 C   0  0  0  0  0  0  0  0  0  0  0  0
  187.9460  176.0410  145.8320 C   0  0  0  0  0  0  0  0  0  0  0  0
  189.6780  174.1340  146.2100 C   0  0  0  0  0  2  0  0  0  0  0  0
  185.6840  177.2530  144.6640 C   0  0  0  0  0  3  0  0  0  0  0  0
  187.8820  176.2190  144.4070 C   0  0  0  0  0  0  0  0  0  0  0  0
  187.3070  176.9570  140.3490 O   0  0  0  0  0  0  0  0  0  0  0  0
  188.9490  175.7110  143.4740 C   0  0  0  0  0  0  0  0  0  0  0  0
  188.9490  175.9580  141.9820 C   0  0  0  0  0  2  0  0  0  0  0  0
  187.6830  176.6320  141.5580 C   0  0  0  0  0  0  0  0  0  0  0  0
  186.1350  177.5300  140.4080 N   0  0  0  0  0  0  0  0  0  0  0  0
  185.7390  177.0650  146.0440 C   0  0  0  0  0  0  0  0  0  0  0  0
  185.7140  177.5950  141.6670 N   0  0  0  0  0  0  0  0  0  0  0  0
  189.1690  175.5440  146.5960 C   0  0  0  0  0  2  0  0  0  0  0  0
  189.7800  174.8730  143.9910 C   0  0  0  0  0  0  0  0  0  0  0  0
  190.3670  174.1360  144.8750 C   0  0  0  0  0  0  0  0  0  0  0  0
  186.8740  176.4750  146.6170 C   0  0  0  0  0  3  0  0  0  0  0  0
  186.6900  177.0280  142.3990 C   0  0  0  0  0  0  0  0  0  0  0  0
  191.7920  173.7190  144.7190 C   0  0  1  0  0  3  0  0  0  0  0  0
  192.5090  174.6330  143.7420 C   0  0  0  0  0  2  0  0  0  0  0  0
  192.7030  174.8240  145.2290 C   0  0  2  0  0  3  0  0  0  0  0  0
  194.0240  174.2100  145.6560 C   0  0  0  0  0  2  0  0  0  0  0  0
  194.9780  175.2910  146.1380 C   0  0  0  0  0  2  0  0  0  0  0  0
  194.2190  176.5660  146.4600 C   0  0  0  0  0  2  0  0  0  0  0  0
  194.8330  177.6820  145.7640 N   0  0  0  0  0  1  0  0  0  0  0  0
  184.6600  177.4890  146.8260 O   0  0  0  0  0  0  0  0  0  0  0  0
  184.5100  178.8260  147.2930 C   0  0  0  0  0  2  0  0  0  0  0  0
  185.8640  179.4160  147.6360 C   0  0  0  0  0  1  0  0  0  0  0  0
  1  5  2  0  0  0  0
  1  4  1  0  0  0  0
  2 13  1  0  0  0  0
  2 16  2  0  0  0  0
  3 13  1  0  0  0  0
  4 11  2  0  0  0  0
  5  2  1  0  0  0  0
  6 10  1  0  0  0  0
  6  9  1  0  0  0  0
  7 14  2  0  0  0  0
  7  5  1  0  0  0  0
  8  7  1  0  0  0  0
  9  8  1  0  0  0  0
  9 17  2  0  0  0  0
 10 12  2  0  0  0  0
 11 16  1  0  0  0  0
 11 25  1  0  0  0  0
 12 17  1  0  0  0  0
 14 15  2  0  0  0  0
 15  3  1  0  0  0  0
 17  1  1  0  0  0  0
 18 15  1  1  0  0  0
 18 20  1  0  0  0  0
 19 18  1  0  0  0  0
 19 20  1  0  0  0  0
 20 21  1  6  0  0  0
 21 22  1  0  0  0  0
 22 23  1  0  0  0  0
 24 23  1  0  0  0  0
 25 26  1  0  0  0  0
 26 27  1  0  0  0  0
M  END
>  <MODEL>
5

>  <REMARK>
 VINA RESULT:      -7.1      2.716      4.661
  Name = 
  6 active torsions:
  status: ('A' for Active; 'I' for Inactive)
    1  A    between atoms: C_6  and  C_25
    2  A    between atoms: O_9  and  C_12
    3  A    between atoms: O_9  and  C_16
    4  A    between atoms: C_11  and  C_24
    5  A    between atoms: C_20  and  C_22
    6  A    between atoms: C_20  and  C_24
                            x       y       z     vdW  Elec       q    Type
                         _______ _______ _______ _____ _____    ______ ____

>  <TORSDO>
F 6

$$$$
=
 OpenBabel11062421083D

 27 31  0  0  1  0  0  0  0  0999 V2000
  187.7980  177.5630  144.5040 C   0  0  0  0  0  0  0  0  0  0  0  0
  189.2600  177.2110  146.4420 C   0  0  0  0  0  0  0  0  0  0  0  0
  191.5590  176.0270  146.7430 C   0  0  0  0  0  2  0  0  0  0  0  0
  186.6860  177.5680  145.3490 C   0  0  0  0  0  3  0  0  0  0  0  0
  189.0990  177.3730  145.0230 C   0  0  0  0  0  0  0  0  0  0  0  0
  188.1910  177.9150  140.9950 O   0  0  0  0  0  0  0  0  0  0  0  0
  190.2500  177.2840  144.0560 C   0  0  0  0  0  0  0  0  0  0  0  0
  190.1220  177.5340  142.5710 C   0  0  0  0  0  2  0  0  0  0  0  0
  188.6900  177.7270  142.1890 C   0  0  0  0  0  0  0  0  0  0  0  0
  186.8940  178.0400  141.0910 N   0  0  0  0  0  0  0  0  0  0  0  0
  186.8410  177.3940  146.7230 C   0  0  0  0  0  0  0  0  0  0  0  0
  186.5120  177.9370  142.3600 N   0  0  0  0  0  0  0  0  0  0  0  0
  190.6000  177.1640  147.1690 C   0  0  0  0  0  2  0  0  0  0  0  0
  191.3350  176.7830  144.5380 C   0  0  0  0  0  0  0  0  0  0  0  0
  192.1670  176.2880  145.3930 C   0  0  0  0  0  0  0  0  0  0  0  0
  188.1260  177.2310  147.2590 C   0  0  0  0  0  3  0  0  0  0  0  0
  187.6440  177.7390  143.0590 C   0  0  0  0  0  0  0  0  0  0  0  0
  193.6440  176.3990  145.1980 C   0  0  1  0  0  3  0  0  0  0  0  0
  194.3320  176.7020  146.5170 C   0  0  0  0  0  2  0  0  0  0  0  0
  194.3420  175.2920  145.9700 C   0  0  2  0  0  3  0  0  0  0  0  0
  195.6800  175.0070  145.3130 C   0  0  0  0  0  2  0  0  0  0  0  0
  196.4570  173.9800  146.1210 C   0  0  0  0  0  2  0  0  0  0  0  0
  196.7250  172.7400  145.2880 C   0  0  0  0  0  2  0  0  0  0  0  0
  196.6550  171.5640  146.1360 N   0  0  0  0  0  1  0  0  0  0  0  0
  185.7030  177.4030  147.5370 O   0  0  0  0  0  0  0  0  0  0  0  0
  184.8220  178.5170  147.6370 C   0  0  0  0  0  2  0  0  0  0  0  0
  183.9400  178.5990  146.4060 C   0  0  0  0  0  1  0  0  0  0  0  0
  1  5  2  0  0  0  0
  1  4  1  0  0  0  0
  2 13  1  0  0  0  0
  2 16  2  0  0  0  0
  3 13  1  0  0  0  0
  4 11  2  0  0  0  0
  5  2  1  0  0  0  0
  6 10  1  0  0  0  0
  6  9  1  0  0  0  0
  7 14  2  0  0  0  0
  7  5  1  0  0  0  0
  8  7  1  0  0  0  0
  9  8  1  0  0  0  0
  9 17  2  0  0  0  0
 10 12  2  0  0  0  0
 11 16  1  0  0  0  0
 11 25  1  0  0  0  0
 12 17  1  0  0  0  0
 14 15  2  0  0  0  0
 15  3  1  0  0  0  0
 17  1  1  0  0  0  0
 18 15  1  1  0  0  0
 18 20  1  0  0  0  0
 18 19  1  0  0  0  0
 20 21  1  6  0  0  0
 20 19  1  0  0  0  0
 21 22  1  0  0  0  0
 23 22  1  0  0  0  0
 23 24  1  0  0  0  0
 25 26  1  0  0  0  0
 27 26  1  0  0  0  0
M  END
>  <MODEL>
6

>  <REMARK>
 VINA RESULT:      -6.9      2.527      4.458
  Name = 
  6 active torsions:
  status: ('A' for Active; 'I' for Inactive)
    1  A    between atoms: C_6  and  C_25
    2  A    between atoms: O_9  and  C_12
    3  A    between atoms: O_9  and  C_16
    4  A    between atoms: C_11  and  C_24
    5  A    between atoms: C_20  and  C_22
    6  A    between atoms: C_20  and  C_24
                            x       y       z     vdW  Elec       q    Type
                         _______ _______ _______ _____ _____    ______ ____

>  <TORSDO>
F 6

$$$$
=
 OpenBabel11062421083D

 27 31  0  0  1  0  0  0  0  0999 V2000
  187.6690  177.3550  144.2860 C   0  0  0  0  0  0  0  0  0  0  0  0
  189.0350  177.0960  146.3070 C   0  0  0  0  0  0  0  0  0  0  0  0
  191.4610  176.2470  146.7170 C   0  0  0  0  0  2  0  0  0  0  0  0
  186.5150  177.1420  145.0430 C   0  0  0  0  0  3  0  0  0  0  0  0
  188.9460  177.3250  144.8910 C   0  0  0  0  0  0  0  0  0  0  0  0
  188.2370  177.9860  140.8410 O   0  0  0  0  0  0  0  0  0  0  0  0
  190.1590  177.4680  144.0110 C   0  0  0  0  0  0  0  0  0  0  0  0
  190.0950  177.7920  142.5350 C   0  0  0  0  0  2  0  0  0  0  0  0
  188.6780  177.7970  142.0570 C   0  0  0  0  0  0  0  0  0  0  0  0
  186.9330  177.9130  140.8450 N   0  0  0  0  0  0  0  0  0  0  0  0
  186.6020  176.9040  146.4140 C   0  0  0  0  0  0  0  0  0  0  0  0
  186.4870  177.6730  142.0740 N   0  0  0  0  0  0  0  0  0  0  0  0
  190.3150  177.2000  147.1300 C   0  0  0  0  0  2  0  0  0  0  0  0
  191.2730  177.1020  144.5450 C   0  0  0  0  0  0  0  0  0  0  0  0
  192.1110  176.6800  145.4330 C   0  0  0  0  0  0  0  0  0  0  0  0
  187.8590  176.8970  147.0360 C   0  0  0  0  0  3  0  0  0  0  0  0
  187.5860  177.5990  142.8450 C   0  0  0  0  0  0  0  0  0  0  0  0
  193.5640  177.0190  145.3570 C   0  0  1  0  0  3  0  0  0  0  0  0
  194.3510  176.2140  146.3740 C   0  0  0  0  0  2  0  0  0  0  0  0
  194.3500  175.7930  144.9220 C   0  0  2  0  0  3  0  0  0  0  0  0
  195.6350  176.2470  144.2560 C   0  0  0  0  0  2  0  0  0  0  0  0
  195.8630  175.4750  142.9660 C   0  0  0  0  0  2  0  0  0  0  0  0
  195.5600  176.3480  141.7620 C   0  0  0  0  0  2  0  0  0  0  0  0
  194.2330  176.0380  141.2620 N   0  0  0  0  0  1  0  0  0  0  0  0
  185.4250  176.6930  147.1390 O   0  0  0  0  0  0  0  0  0  0  0  0
  184.3070  177.5730  147.0880 C   0  0  0  0  0  2  0  0  0  0  0  0
  184.7640  179.0090  147.2630 C   0  0  0  0  0  1  0  0  0  0  0  0
  1  5  2  0  0  0  0
  1  4  1  0  0  0  0
  2 16  2  0  0  0  0
  2 13  1  0  0  0  0
  3 13  1  0  0  0  0
  4 11  2  0  0  0  0
  5  2  1  0  0  0  0
  6 10  1  0  0  0  0
  6  9  1  0  0  0  0
  7 14  2  0  0  0  0
  7  5  1  0  0  0  0
  8  7  1  0  0  0  0
  9  8  1  0  0  0  0
  9 17  2  0  0  0  0
 10 12  2  0  0  0  0
 11 16  1  0  0  0  0
 11 25  1  0  0  0  0
 12 17  1  0  0  0  0
 14 15  2  0  0  0  0
 15  3  1  0  0  0  0
 17  1  1  0  0  0  0
 18 15  1  1  0  0  0
 18 19  1  0  0  0  0
 20 21  1  6  0  0  0
 20 18  1  0  0  0  0
 20 19  1  0  0  0  0
 22 21  1  0  0  0  0
 23 22  1  0  0  0  0
 24 23  1  0  0  0  0
 26 25  1  0  0  0  0
 26 27  1  0  0  0  0
M  END
>  <MODEL>
7

>  <REMARK>
 VINA RESULT:      -6.8      2.638      4.539
  Name = 
  6 active torsions:
  status: ('A' for Active; 'I' for Inactive)
    1  A    between atoms: C_6  and  C_25
    2  A    between atoms: O_9  and  C_12
    3  A    between atoms: O_9  and  C_16
    4  A    between atoms: C_11  and  C_24
    5  A    between atoms: C_20  and  C_22
    6  A    between atoms: C_20  and  C_24
                            x       y       z     vdW  Elec       q    Type
                         _______ _______ _______ _____ _____    ______ ____

>  <TORSDO>
F 6

$$$$
=
 OpenBabel11062421083D

 27 31  0  0  1  0  0  0  0  0999 V2000
  191.2190  175.3140  142.6800 C   0  0  0  0  0  0  0  0  0  0  0  0
  188.9230  175.3170  141.8160 C   0  0  0  0  0  0  0  0  0  0  0  0
  186.6350  176.0050  142.8500 C   0  0  0  0  0  2  0  0  0  0  0  0
  191.5270  174.2370  141.8460 C   0  0  0  0  0  3  0  0  0  0  0  0
  189.9180  175.8670  142.6950 C   0  0  0  0  0  0  0  0  0  0  0  0
  193.0970  177.1750  145.0460 O   0  0  0  0  0  0  0  0  0  0  0  0
  189.6180  176.9650  143.6810 C   0  0  0  0  0  0  0  0  0  0  0  0
  190.6630  177.6180  144.5560 C   0  0  0  0  0  2  0  0  0  0  0  0
  191.9800  176.9250  144.4140 C   0  0  0  0  0  0  0  0  0  0  0  0
  194.0150  176.3420  144.6330 N   0  0  0  0  0  0  0  0  0  0  0  0
  190.5570  173.6930  141.0050 C   0  0  0  0  0  0  0  0  0  0  0  0
  193.5170  175.5230  143.7130 N   0  0  0  0  0  0  0  0  0  0  0  0
  187.5330  175.9050  141.5940 C   0  0  0  0  0  2  0  0  0  0  0  0
  188.3670  177.1930  143.8870 C   0  0  0  0  0  0  0  0  0  0  0  0
  187.0830  177.1070  143.7690 C   0  0  0  0  0  0  0  0  0  0  0  0
  189.2690  174.2460  140.9870 C   0  0  0  0  0  3  0  0  0  0  0  0
  192.2300  175.8870  143.5700 C   0  0  0  0  0  0  0  0  0  0  0  0
  186.1890  178.2470  144.1330 C   0  0  1  0  0  3  0  0  0  0  0  0
  184.8130  178.0590  143.5200 C   0  0  0  0  0  2  0  0  0  0  0  0
  185.0360  177.7380  144.9810 C   0  0  2  0  0  3  0  0  0  0  0  0
  184.5210  178.8780  145.8400 C   0  0  0  0  0  2  0  0  0  0  0  0
  184.5740  178.4960  147.3110 C   0  0  0  0  0  2  0  0  0  0  0  0
  185.8490  177.7340  147.6180 C   0  0  0  0  0  2  0  0  0  0  0  0
  186.8750  178.6640  148.0560 N   0  0  0  0  0  1  0  0  0  0  0  0
  190.9030  172.6130  140.1850 O   0  0  0  0  0  0  0  0  0  0  0  0
  191.5700  171.4510  140.6640 C   0  0  0  0  0  2  0  0  0  0  0  0
  190.6510  170.6560  141.5710 C   0  0  0  0  0  1  0  0  0  0  0  0
  1  5  1  0  0  0  0
  1 17  1  0  0  0  0
  2  5  2  0  0  0  0
  3 15  1  0  0  0  0
  4  1  2  0  0  0  0
  5  7  1  0  0  0  0
  7 14  2  0  0  0  0
  7  8  1  0  0  0  0
  9  8  1  0  0  0  0
  9  6  1  0  0  0  0
 10  6  1  0  0  0  0
 11  4  1  0  0  0  0
 12 10  2  0  0  0  0
 13  2  1  0  0  0  0
 13  3  1  0  0  0  0
 15 14  2  0  0  0  0
 16 11  2  0  0  0  0
 16  2  1  0  0  0  0
 17 12  1  0  0  0  0
 17  9  2  0  0  0  0
 18 15  1  6  0  0  0
 18 20  1  0  0  0  0
 19 18  1  0  0  0  0
 19 20  1  0  0  0  0
 20 21  1  1  0  0  0
 21 22  1  0  0  0  0
 22 23  1  0  0  0  0
 23 24  1  0  0  0  0
 25 26  1  0  0  0  0
 25 11  1  0  0  0  0
 26 27  1  0  0  0  0
M  END
>  <MODEL>
8

>  <REMARK>
 VINA RESULT:      -6.7      3.237      7.061
  Name = 
  6 active torsions:
  status: ('A' for Active; 'I' for Inactive)
    1  A    between atoms: C_6  and  C_25
    2  A    between atoms: O_9  and  C_12
    3  A    between atoms: O_9  and  C_16
    4  A    between atoms: C_11  and  C_24
    5  A    between atoms: C_20  and  C_22
    6  A    between atoms: C_20  and  C_24
                            x       y       z     vdW  Elec       q    Type
                         _______ _______ _______ _____ _____    ______ ____

>  <TORSDO>
F 6

$$$$
=
 OpenBabel11062421083D

 27 31  0  0  1  0  0  0  0  0999 V2000
  190.6030  174.2810  143.3080 C   0  0  0  0  0  0  0  0  0  0  0  0
  189.9410  175.2400  145.4670 C   0  0  0  0  0  0  0  0  0  0  0  0
  188.3640  177.2020  146.1310 C   0  0  0  0  0  2  0  0  0  0  0  0
  191.8310  173.9060  143.8560 C   0  0  0  0  0  3  0  0  0  0  0  0
  189.6410  174.9630  144.0880 C   0  0  0  0  0  0  0  0  0  0  0  0
  189.1700  173.9340  140.0800 O   0  0  0  0  0  0  0  0  0  0  0  0
  188.3740  175.4250  143.4200 C   0  0  0  0  0  0  0  0  0  0  0  0
  187.9970  175.0750  141.9980 C   0  0  0  0  0  2  0  0  0  0  0  0
  189.1130  174.3490  141.3190 C   0  0  0  0  0  0  0  0  0  0  0  0
  190.3190  173.3430  139.8830 N   0  0  0  0  0  0  0  0  0  0  0  0
  192.1280  174.1900  145.1890 C   0  0  0  0  0  0  0  0  0  0  0  0
  191.0440  173.3580  140.9960 N   0  0  0  0  0  0  0  0  0  0  0  0
  188.9510  175.8120  146.4760 C   0  0  0  0  0  2  0  0  0  0  0  0
  187.7020  176.3130  144.0680 C   0  0  0  0  0  0  0  0  0  0  0  0
  187.3590  177.1210  145.0160 C   0  0  0  0  0  0  0  0  0  0  0  0
  191.1760  174.8410  145.9850 C   0  0  0  0  0  3  0  0  0  0  0  0
  190.2860  173.9920  141.9080 C   0  0  0  0  0  0  0  0  0  0  0  0
  185.9410  177.5540  145.1960 C   0  0  1  0  0  3  0  0  0  0  0  0
  185.8810  179.0020  145.6460 C   0  0  0  0  0  2  0  0  0  0  0  0
  185.6160  178.6540  144.1980 C   0  0  2  0  0  3  0  0  0  0  0  0
  184.1210  178.6510  143.9380 C   0  0  0  0  0  2  0  0  0  0  0  0
  183.8380  178.2970  142.4870 C   0  0  0  0  0  2  0  0  0  0  0  0
  185.1000  177.8040  141.8030 C   0  0  0  0  0  2  0  0  0  0  0  0
  185.1250  178.2820  140.4330 N   0  0  0  0  0  1  0  0  0  0  0  0
  193.3700  173.8000  145.7020 O   0  0  0  0  0  0  0  0  0  0  0  0
  194.5060  174.6570  145.7360 C   0  0  0  0  0  2  0  0  0  0  0  0
  195.7550  173.8850  145.3580 C   0  0  0  0  0  1  0  0  0  0  0  0
  1  4  2  0  0  0  0
  1  5  1  0  0  0  0
  2 16  1  0  0  0  0
  2 13  1  0  0  0  0
  3 13  1  0  0  0  0
  4 11  1  0  0  0  0
  5  2  2  0  0  0  0
  6  9  1  0  0  0  0
  7 14  2  0  0  0  0
  7  5  1  0  0  0  0
  8  7  1  0  0  0  0
  9 17  2  0  0  0  0
  9  8  1  0  0  0  0
 10  6  1  0  0  0  0
 10 12  2  0  0  0  0
 11 25  1  0  0  0  0
 11 16  2  0  0  0  0
 12 17  1  0  0  0  0
 14 15  2  0  0  0  0
 15  3  1  0  0  0  0
 17  1  1  0  0  0  0
 18 15  1  6  0  0  0
 18 19  1  0  0  0  0
 20 21  1  1  0  0  0
 20 18  1  0  0  0  0
 20 19  1  0  0  0  0
 22 21  1  0  0  0  0
 23 22  1  0  0  0  0
 24 23  1  0  0  0  0
 25 26  1  0  0  0  0
 27 26  1  0  0  0  0
M  END
>  <MODEL>
9

>  <REMARK>
 VINA RESULT:      -6.7      3.174      7.859
  Name = 
  6 active torsions:
  status: ('A' for Active; 'I' for Inactive)
    1  A    between atoms: C_6  and  C_25
    2  A    between atoms: O_9  and  C_12
    3  A    between atoms: O_9  and  C_16
    4  A    between atoms: C_11  and  C_24
    5  A    between atoms: C_20  and  C_22
    6  A    between atoms: C_20  and  C_24
                            x       y       z     vdW  Elec       q    Type
                         _______ _______ _______ _____ _____    ______ ____

>  <TORSDO>
F 6

$$$$
