=
 OpenBabel11062420363D

 32 37  0  0  1  0  0  0  0  0999 V2000
  189.4930  174.0010  142.6740 C   0  0  1  0  0  3  0  0  0  0  0  0
  187.9340  175.6010  141.6570 C   0  0  0  0  0  0  0  0  0  0  0  0
  188.2580  175.0880  140.3690 C   0  0  0  0  0  0  0  0  0  0  0  0
  187.6380  175.7020  139.4170 N   0  0  0  0  0  0  0  0  0  0  0  0
  189.2320  174.0620  140.1970 N   0  0  0  0  0  0  0  0  0  0  0  0
  186.8180  176.6950  140.0570 C   0  0  0  0  0  3  0  0  0  0  0  0
  188.5020  175.1480  142.7670 C   0  0  0  0  0  3  0  0  0  0  0  0
  186.9770  176.6580  141.3850 C   0  0  0  0  0  0  0  0  0  0  0  0
  189.8200  173.5560  141.2480 C   0  0  0  0  0  3  0  0  0  0  0  0
  186.3650  178.1360  146.1130 C   0  0  0  0  0  2  0  0  0  0  0  0
  185.0660  178.5990  146.6790 C   0  0  0  0  0  0  0  0  0  0  0  0
  184.0210  178.8800  145.6460 C   0  0  0  0  0  2  0  0  0  0  0  0
  185.0940  178.2310  141.9560 C   0  0  0  0  0  2  0  0  0  0  0  0
  184.8740  178.7400  147.8760 O   0  0  0  0  0  0  0  0  0  0  0  0
  185.9480  177.8610  144.6870 C   0  0  2  0  0  3  0  0  0  0  0  0
  184.1040  178.3230  143.1340 C   0  0  0  0  0  2  0  0  0  0  0  0
  185.3470  180.1210  144.1170 O   0  0  0  0  0  1  0  0  0  0  0  0
  186.3290  177.5210  142.3320 N   0  0  0  0  0  0  0  0  0  0  0  0
  187.0010  177.8510  143.5960 C   0  0  0  0  0  2  0  0  0  0  0  0
  184.8350  178.8400  144.3670 C   0  0  1  0  0  0  0  0  0  0  0  0
  190.6720  174.3410  143.3430 O   0  0  0  0  0  0  0  0  0  0  0  0
  190.1540  173.8590  145.6540 C   0  0  0  0  0  2  0  0  0  0  0  0
  192.2890  173.0310  144.5530 C   0  0  0  0  0  2  0  0  0  0  0  0
  192.7870  173.5310  145.7650 O   0  0  0  0  0  0  0  0  0  0  0  0
  191.2440  175.2920  147.3370 C   0  0  0  0  0  2  0  0  0  0  0  0
  190.8110  173.3840  144.3550 C   0  0  2  0  0  3  0  0  0  0  0  0
  193.0250  174.8920  145.5330 C   0  0  1  0  0  3  0  0  0  0  0  0
  191.9190  175.8140  146.0860 C   0  0  1  0  0  3  0  0  0  0  0  0
  190.4610  175.3170  146.0320 C   0  0  1  0  0  3  0  0  0  0  0  0
  194.3660  175.2970  146.1220 C   0  0  0  0  0  2  0  0  0  0  0  0
  194.6070  176.7270  145.9110 C   0  0  0  0  0  0  0  0  0  0  0  0
  194.7970  177.8560  145.7440 N   0  0  0  0  0  0  0  0  0  0  0  0
  1  7  1  0  0  0  0
  1 21  1  6  0  0  0
  2  7  2  0  0  0  0
  3  2  1  0  0  0  0
  4  6  1  0  0  0  0
  4  3  2  0  0  0  0
  5  3  1  0  0  0  0
  5  9  2  0  0  0  0
  6  8  2  0  0  0  0
  8  2  1  0  0  0  0
  8 18  1  0  0  0  0
  9  1  1  0  0  0  0
 10 11  1  0  0  0  0
 11 14  2  0  0  0  0
 12 11  1  0  0  0  0
 13 18  1  0  0  0  0
 13 16  1  0  0  0  0
 15 19  1  6  0  0  0
 15 10  1  0  0  0  0
 16 20  1  0  0  0  0
 18 19  1  0  0  0  0
 20 17  1  6  0  0  0
 20 15  1  0  0  0  0
 20 12  1  0  0  0  0
 23 24  1  0  0  0  0
 26 21  1  6  0  0  0
 26 23  1  0  0  0  0
 26 22  1  0  0  0  0
 27 24  1  0  0  0  0
 27 28  1  0  0  0  0
 27 30  1  1  0  0  0
 28 25  1  1  0  0  0
 29 22  1  6  0  0  0
 29 28  1  0  0  0  0
 29 25  1  0  0  0  0
 31 30  1  0  0  0  0
 32 31  3  0  0  0  0
M  END
>  <MODEL>
1

>  <REMARK>
 VINA RESULT:      -8.0      0.000      0.000
  Name = 
  5 active torsions:
  status: ('A' for Active; 'I' for Inactive)
    1  A    between atoms: C_3  and  O_26
    2  A    between atoms: C_11  and  C_14
    3  A    between atoms: C_14  and  C_19
    4  A    between atoms: C_17  and  O_26
    5  A    between atoms: N_27  and  C_28
                            x       y       z     vdW  Elec       q    Type
                         _______ _______ _______ _____ _____    ______ ____

>  <TORSDO>
F 5

$$$$
=
 OpenBabel11062420363D

 32 37  0  0  1  0  0  0  0  0999 V2000
  190.5020  174.1750  143.3200 C   0  0  1  0  0  3  0  0  0  0  0  0
  188.6790  175.2790  142.1030 C   0  0  0  0  0  0  0  0  0  0  0  0
  189.0280  174.5490  140.9310 C   0  0  0  0  0  0  0  0  0  0  0  0
  188.2840  174.8470  139.9180 N   0  0  0  0  0  0  0  0  0  0  0  0
  190.1390  173.6580  140.9100 N   0  0  0  0  0  0  0  0  0  0  0  0
  187.3480  175.8310  140.3920 C   0  0  0  0  0  3  0  0  0  0  0  0
  189.3520  175.1630  143.2410 C   0  0  0  0  0  3  0  0  0  0  0  0
  187.5620  176.1070  141.6840 C   0  0  0  0  0  0  0  0  0  0  0  0
  190.8370  173.4810  141.9990 C   0  0  0  0  0  3  0  0  0  0  0  0
  186.4800  178.0290  146.1600 C   0  0  0  0  0  2  0  0  0  0  0  0
  185.1330  178.5420  146.5430 C   0  0  0  0  0  0  0  0  0  0  0  0
  184.2020  178.7220  145.3860 C   0  0  0  0  0  2  0  0  0  0  0  0
  185.6440  177.7240  141.9040 C   0  0  0  0  0  2  0  0  0  0  0  0
  184.8200  178.7970  147.6940 O   0  0  0  0  0  0  0  0  0  0  0  0
  186.2090  177.6190  144.7320 C   0  0  2  0  0  3  0  0  0  0  0  0
  184.5380  177.9270  142.9600 C   0  0  0  0  0  2  0  0  0  0  0  0
  185.6890  179.8120  143.8900 O   0  0  0  0  0  1  0  0  0  0  0  0
  186.8280  177.0550  142.4720 N   0  0  0  0  0  0  0  0  0  0  0  0
  187.3690  177.5060  143.7620 C   0  0  0  0  0  2  0  0  0  0  0  0
  185.1430  178.5600  144.2070 C   0  0  1  0  0  0  0  0  0  0  0  0
  191.6400  174.8140  143.8180 O   0  0  0  0  0  0  0  0  0  0  0  0
  191.9940  175.3160  146.1560 C   0  0  0  0  0  2  0  0  0  0  0  0
  193.0950  173.3250  145.0250 C   0  0  0  0  0  2  0  0  0  0  0  0
  194.1790  173.8680  145.7290 O   0  0  0  0  0  0  0  0  0  0  0  0
  194.0770  176.5090  146.7110 C   0  0  0  0  0  2  0  0  0  0  0  0
  191.8680  174.2390  145.0730 C   0  0  2  0  0  3  0  0  0  0  0  0
  194.7250  174.8370  144.8760 C   0  0  1  0  0  3  0  0  0  0  0  0
  194.3050  176.2780  145.2330 C   0  0  1  0  0  3  0  0  0  0  0  0
  192.8800  176.5100  145.7710 C   0  0  1  0  0  3  0  0  0  0  0  0
  196.2410  174.7350  144.8700 C   0  0  0  0  0  2  0  0  0  0  0  0
  196.8080  175.5980  143.8300 C   0  0  0  0  0  0  0  0  0  0  0  0
  197.2560  176.2790  143.0090 N   0  0  0  0  0  0  0  0  0  0  0  0
  1 21  1  6  0  0  0
  2  7  2  0  0  0  0
  3  2  1  0  0  0  0
  4  6  1  0  0  0  0
  4  3  2  0  0  0  0
  5  3  1  0  0  0  0
  5  9  2  0  0  0  0
  6  8  2  0  0  0  0
  7  1  1  0  0  0  0
  8  2  1  0  0  0  0
  8 18  1  0  0  0  0
  9  1  1  0  0  0  0
 10 11  1  0  0  0  0
 11 14  2  0  0  0  0
 12 11  1  0  0  0  0
 13 18  1  0  0  0  0
 13 16  1  0  0  0  0
 15 19  1  6  0  0  0
 15 10  1  0  0  0  0
 16 20  1  0  0  0  0
 18 19  1  0  0  0  0
 20 17  1  6  0  0  0
 20 15  1  0  0  0  0
 20 12  1  0  0  0  0
 23 26  1  0  0  0  0
 23 24  1  0  0  0  0
 26 21  1  6  0  0  0
 26 22  1  0  0  0  0
 27 30  1  1  0  0  0
 27 28  1  0  0  0  0
 27 24  1  0  0  0  0
 28 29  1  0  0  0  0
 28 25  1  1  0  0  0
 29 22  1  1  0  0  0
 29 25  1  0  0  0  0
 31 30  1  0  0  0  0
 32 31  3  0  0  0  0
M  END
>  <MODEL>
2

>  <REMARK>
 VINA RESULT:      -7.7      1.325      1.629
  Name = 
  5 active torsions:
  status: ('A' for Active; 'I' for Inactive)
    1  A    between atoms: C_3  and  O_26
    2  A    between atoms: C_11  and  C_14
    3  A    between atoms: C_14  and  C_19
    4  A    between atoms: C_17  and  O_26
    5  A    between atoms: N_27  and  C_28
                            x       y       z     vdW  Elec       q    Type
                         _______ _______ _______ _____ _____    ______ ____

>  <TORSDO>
F 5

$$$$
=
 OpenBabel11062420363D

 32 37  0  0  1  0  0  0  0  0999 V2000
  187.6960  178.2000  141.7400 C   0  0  1  0  0  3  0  0  0  0  0  0
  189.2370  176.3070  142.0040 C   0  0  0  0  0  0  0  0  0  0  0  0
  188.4520  175.5490  141.0890 C   0  0  0  0  0  0  0  0  0  0  0  0
  188.9060  174.3530  140.9140 N   0  0  0  0  0  0  0  0  0  0  0  0
  187.2560  176.0730  140.5180 N   0  0  0  0  0  0  0  0  0  0  0  0
  190.0820  174.2540  141.7360 C   0  0  0  0  0  3  0  0  0  0  0  0
  188.9140  177.5430  142.3650 C   0  0  0  0  0  3  0  0  0  0  0  0
  190.2990  175.3980  142.3940 C   0  0  0  0  0  0  0  0  0  0  0  0
  186.8870  177.2900  140.8150 C   0  0  0  0  0  3  0  0  0  0  0  0
  195.1860  175.3030  143.4040 C   0  0  0  0  0  2  0  0  0  0  0  0
  195.7520  175.0100  144.7520 C   0  0  0  0  0  0  0  0  0  0  0  0
  194.7420  175.0470  145.8550 C   0  0  0  0  0  2  0  0  0  0  0  0
  191.0840  175.8180  144.7510 C   0  0  0  0  0  2  0  0  0  0  0  0
  196.9330  174.7670  144.9390 O   0  0  0  0  0  0  0  0  0  0  0  0
  193.7100  175.2200  143.7160 C   0  0  2  0  0  3  0  0  0  0  0  0
  192.1810  175.1910  145.6350 C   0  0  0  0  0  2  0  0  0  0  0  0
  193.6330  177.0610  145.2640 O   0  0  0  0  0  1  0  0  0  0  0  0
  191.3710  175.6450  143.3160 N   0  0  0  0  0  0  0  0  0  0  0  0
  192.7210  175.9250  142.8070 C   0  0  0  0  0  2  0  0  0  0  0  0
  193.5460  175.6660  145.1550 C   0  0  1  0  0  0  0  0  0  0  0  0
  186.8680  178.7090  142.7430 O   0  0  0  0  0  0  0  0  0  0  0  0
  184.5450  178.4640  143.3670 C   0  0  0  0  0  2  0  0  0  0  0  0
  186.2450  176.6160  143.7580 C   0  0  0  0  0  2  0  0  0  0  0  0
  185.5840  176.6400  144.9940 O   0  0  0  0  0  0  0  0  0  0  0  0
  184.0070  178.8550  145.7390 C   0  0  0  0  0  2  0  0  0  0  0  0
  185.8230  177.7860  142.8630 C   0  0  2  0  0  3  0  0  0  0  0  0
  186.2510  177.6110  145.7520 C   0  0  1  0  0  3  0  0  0  0  0  0
  185.5150  178.9660  145.8010 C   0  0  1  0  0  3  0  0  0  0  0  0
  184.7550  179.4290  144.5440 C   0  0  1  0  0  3  0  0  0  0  0  0
  186.4810  177.1050  147.1660 C   0  0  0  0  0  2  0  0  0  0  0  0
  187.5860  176.1430  147.1920 C   0  0  0  0  0  0  0  0  0  0  0  0
  188.4590  175.3840  147.2120 N   0  0  0  0  0  0  0  0  0  0  0  0
  1  7  1  0  0  0  0
  1 21  1  1  0  0  0
  2  7  2  0  0  0  0
  2  8  1  0  0  0  0
  3  2  1  0  0  0  0
  4  3  2  0  0  0  0
  4  6  1  0  0  0  0
  5  9  2  0  0  0  0
  5  3  1  0  0  0  0
  6  8  2  0  0  0  0
  8 18  1  0  0  0  0
  9  1  1  0  0  0  0
 10 15  1  0  0  0  0
 10 11  1  0  0  0  0
 11 14  2  0  0  0  0
 11 12  1  0  0  0  0
 13 16  1  0  0  0  0
 15 19  1  6  0  0  0
 15 20  1  0  0  0  0
 18 13  1  0  0  0  0
 19 18  1  0  0  0  0
 20 17  1  1  0  0  0
 20 16  1  0  0  0  0
 20 12  1  0  0  0  0
 23 24  1  0  0  0  0
 24 27  1  0  0  0  0
 26 21  1  1  0  0  0
 26 22  1  0  0  0  0
 26 23  1  0  0  0  0
 27 28  1  0  0  0  0
 27 30  1  1  0  0  0
 28 25  1  1  0  0  0
 29 22  1  6  0  0  0
 29 25  1  0  0  0  0
 29 28  1  0  0  0  0
 30 31  1  0  0  0  0
 31 32  3  0  0  0  0
M  END
>  <MODEL>
3

>  <REMARK>
 VINA RESULT:      -7.6      2.254      7.280
  Name = 
  5 active torsions:
  status: ('A' for Active; 'I' for Inactive)
    1  A    between atoms: C_3  and  O_26
    2  A    between atoms: C_11  and  C_14
    3  A    between atoms: C_14  and  C_19
    4  A    between atoms: C_17  and  O_26
    5  A    between atoms: N_27  and  C_28
                            x       y       z     vdW  Elec       q    Type
                         _______ _______ _______ _____ _____    ______ ____

>  <TORSDO>
F 5

$$$$
=
 OpenBabel11062420363D

 32 37  0  0  1  0  0  0  0  0999 V2000
  187.9530  177.9580  141.6420 C   0  0  1  0  0  3  0  0  0  0  0  0
  189.0920  175.7840  141.7210 C   0  0  0  0  0  0  0  0  0  0  0  0
  188.1920  175.2850  140.7360 C   0  0  0  0  0  0  0  0  0  0  0  0
  188.4080  174.0450  140.4460 N   0  0  0  0  0  0  0  0  0  0  0  0
  187.1330  176.0850  140.2180 N   0  0  0  0  0  0  0  0  0  0  0  0
  189.5260  173.6400  141.2550 C   0  0  0  0  0  3  0  0  0  0  0  0
  189.0080  177.0190  142.2010 C   0  0  0  0  0  3  0  0  0  0  0  0
  189.9490  174.6530  142.0220 C   0  0  0  0  0  0  0  0  0  0  0  0
  187.0010  177.3160  140.6320 C   0  0  0  0  0  3  0  0  0  0  0  0
  192.1680  176.4670  146.1070 C   0  0  0  0  0  2  0  0  0  0  0  0
  193.6460  176.5140  146.3000 C   0  0  0  0  0  0  0  0  0  0  0  0
  194.4130  175.6970  145.3100 C   0  0  0  0  0  2  0  0  0  0  0  0
  192.2610  173.8600  142.6280 C   0  0  0  0  0  2  0  0  0  0  0  0
  194.1810  177.1580  147.1890 O   0  0  0  0  0  0  0  0  0  0  0  0
  192.1020  175.8120  144.7470 C   0  0  2  0  0  3  0  0  0  0  0  0
  193.5180  174.5650  143.1780 C   0  0  0  0  0  2  0  0  0  0  0  0
  193.1030  173.7180  145.3810 O   0  0  0  0  0  1  0  0  0  0  0  0
  191.0300  174.5960  142.9640 N   0  0  0  0  0  0  0  0  0  0  0  0
  190.8320  175.0950  144.3320 C   0  0  0  0  0  2  0  0  0  0  0  0
  193.3060  174.8970  144.6490 C   0  0  1  0  0  0  0  0  0  0  0  0
  187.2200  178.5210  142.6890 O   0  0  0  0  0  0  0  0  0  0  0  0
  184.8740  178.5940  143.2670 C   0  0  0  0  0  2  0  0  0  0  0  0
  186.2960  176.5280  143.6730 C   0  0  0  0  0  2  0  0  0  0  0  0
  185.6200  176.6340  144.8970 O   0  0  0  0  0  0  0  0  0  0  0  0
  184.3480  179.0410  145.6330 C   0  0  0  0  0  2  0  0  0  0  0  0
  186.0560  177.7490  142.7810 C   0  0  2  0  0  3  0  0  0  0  0  0
  186.3990  177.5000  145.6760 C   0  0  1  0  0  3  0  0  0  0  0  0
  185.8560  178.9420  145.7240 C   0  0  1  0  0  3  0  0  0  0  0  0
  185.1910  179.5130  144.4570 C   0  0  1  0  0  3  0  0  0  0  0  0
  186.5300  176.9580  147.0900 C   0  0  0  0  0  2  0  0  0  0  0  0
  187.6690  176.0410  147.1840 C   0  0  0  0  0  0  0  0  0  0  0  0
  188.5680  175.3160  147.2580 N   0  0  0  0  0  0  0  0  0  0  0  0
  1  7  1  0  0  0  0
  1 21  1  1  0  0  0
  2  8  1  0  0  0  0
  2  7  2  0  0  0  0
  3  2  1  0  0  0  0
  4  3  2  0  0  0  0
  4  6  1  0  0  0  0
  5  9  2  0  0  0  0
  5  3  1  0  0  0  0
  6  8  2  0  0  0  0
  8 18  1  0  0  0  0
  9  1  1  0  0  0  0
 10 11  1  0  0  0  0
 11 14  2  0  0  0  0
 12 11  1  0  0  0  0
 13 18  1  0  0  0  0
 13 16  1  0  0  0  0
 15 19  1  1  0  0  0
 15 10  1  0  0  0  0
 16 20  1  0  0  0  0
 18 19  1  0  0  0  0
 20 15  1  0  0  0  0
 20 12  1  0  0  0  0
 20 17  1  1  0  0  0
 23 24  1  0  0  0  0
 24 27  1  0  0  0  0
 26 21  1  1  0  0  0
 26 22  1  0  0  0  0
 26 23  1  0  0  0  0
 27 28  1  0  0  0  0
 27 30  1  1  0  0  0
 28 25  1  1  0  0  0
 29 22  1  6  0  0  0
 29 25  1  0  0  0  0
 29 28  1  0  0  0  0
 30 31  1  0  0  0  0
 31 32  3  0  0  0  0
M  END
>  <MODEL>
4

>  <REMARK>
 VINA RESULT:      -7.5      2.014      6.816
  Name = 
  5 active torsions:
  status: ('A' for Active; 'I' for Inactive)
    1  A    between atoms: C_3  and  O_26
    2  A    between atoms: C_11  and  C_14
    3  A    between atoms: C_14  and  C_19
    4  A    between atoms: C_17  and  O_26
    5  A    between atoms: N_27  and  C_28
                            x       y       z     vdW  Elec       q    Type
                         _______ _______ _______ _____ _____    ______ ____

>  <TORSDO>
F 5

$$$$
=
 OpenBabel11062420363D

 32 37  0  0  1  0  0  0  0  0999 V2000
  188.7090  175.7520  143.2090 C   0  0  1  0  0  3  0  0  0  0  0  0
  190.4670  174.3340  142.2470 C   0  0  0  0  0  0  0  0  0  0  0  0
  189.4830  173.6440  141.4820 C   0  0  0  0  0  0  0  0  0  0  0  0
  189.9840  172.6930  140.7660 N   0  0  0  0  0  0  0  0  0  0  0  0
  188.0970  173.9550  141.5950 N   0  0  0  0  0  0  0  0  0  0  0  0
  191.3990  172.7110  141.0210 C   0  0  0  0  0  3  0  0  0  0  0  0
  190.1580  175.3090  143.0910 C   0  0  0  0  0  3  0  0  0  0  0  0
  191.7120  173.6730  141.8970 C   0  0  0  0  0  0  0  0  0  0  0  0
  187.7210  174.9160  142.3940 C   0  0  0  0  0  3  0  0  0  0  0  0
  195.4120  172.6310  145.0790 C   0  0  0  0  0  2  0  0  0  0  0  0
  196.3140  173.6600  145.6730 C   0  0  0  0  0  0  0  0  0  0  0  0
  196.2280  174.9970  145.0090 C   0  0  0  0  0  2  0  0  0  0  0  0
  193.6640  175.2540  142.0840 C   0  0  0  0  0  2  0  0  0  0  0  0
  197.0590  173.4300  146.6120 O   0  0  0  0  0  0  0  0  0  0  0  0
  194.5480  173.5120  144.2080 C   0  0  2  0  0  3  0  0  0  0  0  0
  194.4980  175.7800  143.2700 C   0  0  0  0  0  2  0  0  0  0  0  0
  196.2960  174.2840  142.7460 O   0  0  0  0  0  1  0  0  0  0  0  0
  193.0280  173.9610  142.3920 N   0  0  0  0  0  0  0  0  0  0  0  0
  193.8150  172.8970  143.0300 C   0  0  0  0  0  2  0  0  0  0  0  0
  195.4180  174.6720  143.7680 C   0  0  1  0  0  0  0  0  0  0  0  0
  188.3260  175.7570  144.5530 O   0  0  0  0  0  0  0  0  0  0  0  0
  188.1570  177.2220  146.4680 C   0  0  0  0  0  2  0  0  0  0  0  0
  187.7970  178.0600  144.0960 C   0  0  0  0  0  2  0  0  0  0  0  0
  186.7050  178.6420  144.7560 O   0  0  0  0  0  0  0  0  0  0  0  0
  185.8790  177.6950  147.2800 C   0  0  0  0  0  2  0  0  0  0  0  0
  188.5430  177.0670  144.9930 C   0  0  2  0  0  3  0  0  0  0  0  0
  185.6930  177.6740  144.7210 C   0  0  1  0  0  3  0  0  0  0  0  0
  185.5440  176.8910  146.0420 C   0  0  1  0  0  3  0  0  0  0  0  0
  186.8170  176.5750  146.8500 C   0  0  1  0  0  3  0  0  0  0  0  0
  184.3650  178.3170  144.3580 C   0  0  0  0  0  2  0  0  0  0  0  0
  184.1530  178.2690  142.9090 C   0  0  0  0  0  0  0  0  0  0  0  0
  183.9850  178.2310  141.7640 N   0  0  0  0  0  0  0  0  0  0  0  0
  1 21  1  1  0  0  0
  2  7  2  0  0  0  0
  3  5  1  0  0  0  0
  3  2  1  0  0  0  0
  4  6  1  0  0  0  0
  4  3  2  0  0  0  0
  5  9  2  0  0  0  0
  6  8  2  0  0  0  0
  7  1  1  0  0  0  0
  8  2  1  0  0  0  0
  8 18  1  0  0  0  0
  9  1  1  0  0  0  0
 10 11  1  0  0  0  0
 11 14  2  0  0  0  0
 12 11  1  0  0  0  0
 13 18  1  0  0  0  0
 13 16  1  0  0  0  0
 15 19  1  6  0  0  0
 15 10  1  0  0  0  0
 16 20  1  0  0  0  0
 18 19  1  0  0  0  0
 20 17  1  6  0  0  0
 20 15  1  0  0  0  0
 20 12  1  0  0  0  0
 23 24  1  0  0  0  0
 23 26  1  0  0  0  0
 26 21  1  6  0  0  0
 26 22  1  0  0  0  0
 27 30  1  1  0  0  0
 27 24  1  0  0  0  0
 27 28  1  0  0  0  0
 28 29  1  0  0  0  0
 28 25  1  1  0  0  0
 29 22  1  6  0  0  0
 29 25  1  0  0  0  0
 31 30  1  0  0  0  0
 32 31  3  0  0  0  0
M  END
>  <MODEL>
5

>  <REMARK>
 VINA RESULT:      -7.4      2.455      8.106
  Name = 
  5 active torsions:
  status: ('A' for Active; 'I' for Inactive)
    1  A    between atoms: C_3  and  O_26
    2  A    between atoms: C_11  and  C_14
    3  A    between atoms: C_14  and  C_19
    4  A    between atoms: C_17  and  O_26
    5  A    between atoms: N_27  and  C_28
                            x       y       z     vdW  Elec       q    Type
                         _______ _______ _______ _____ _____    ______ ____

>  <TORSDO>
F 5

$$$$
=
 OpenBabel11062420363D

 32 37  0  0  1  0  0  0  0  0999 V2000
  189.4100  175.1880  146.8050 C   0  0  1  0  0  3  0  0  0  0  0  0
  191.2660  175.2360  145.1990 C   0  0  0  0  0  0  0  0  0  0  0  0
  191.9850  176.1080  146.0660 C   0  0  0  0  0  0  0  0  0  0  0  0
  193.1280  176.4630  145.5810 N   0  0  0  0  0  0  0  0  0  0  0  0
  191.4220  176.5750  147.2890 N   0  0  0  0  0  0  0  0  0  0  0  0
  193.2390  175.8020  144.3090 C   0  0  0  0  0  3  0  0  0  0  0  0
  190.0470  174.7970  145.4820 C   0  0  0  0  0  3  0  0  0  0  0  0
  192.1470  175.0700  144.0570 C   0  0  0  0  0  0  0  0  0  0  0  0
  190.2320  176.1700  147.6410 C   0  0  0  0  0  3  0  0  0  0  0  0
  189.2050  173.9630  140.1810 C   0  0  0  0  0  2  0  0  0  0  0  0
  189.0710  172.5960  139.6010 C   0  0  0  0  0  0  0  0  0  0  0  0
  190.1160  171.6340  140.0700 C   0  0  0  0  0  2  0  0  0  0  0  0
  192.6830  173.0640  142.6310 C   0  0  0  0  0  2  0  0  0  0  0  0
  188.1910  172.2910  138.8120 O   0  0  0  0  0  0  0  0  0  0  0  0
  190.2170  173.6890  141.2690 C   0  0  2  0  0  3  0  0  0  0  0  0
  191.8230  171.9690  141.9680 C   0  0  0  0  0  2  0  0  0  0  0  0
  192.0240  173.0240  139.8250 O   0  0  0  0  0  1  0  0  0  0  0  0
  191.9110  174.2960  142.8720 N   0  0  0  0  0  0  0  0  0  0  0  0
  191.0520  174.8340  141.8090 C   0  0  0  0  0  2  0  0  0  0  0  0
  191.0950  172.5600  140.7670 C   0  0  1  0  0  0  0  0  0  0  0  0
  188.1360  175.7140  146.5770 O   0  0  0  0  0  0  0  0  0  0  0  0
  187.3240  177.8680  147.3130 C   0  0  0  0  0  2  0  0  0  0  0  0
  188.2530  177.5080  144.9760 C   0  0  0  0  0  2  0  0  0  0  0  0
  187.0870  178.2330  144.6930 O   0  0  0  0  0  0  0  0  0  0  0  0
  185.0380  178.4670  146.6150 C   0  0  0  0  0  2  0  0  0  0  0  0
  188.3250  177.0950  146.4500 C   0  0  2  0  0  3  0  0  0  0  0  0
  186.0710  177.2740  144.5930 C   0  0  1  0  0  3  0  0  0  0  0  0
  185.1990  177.1660  145.8600 C   0  0  1  0  0  3  0  0  0  0  0  0
  185.8780  177.3570  147.2300 C   0  0  1  0  0  3  0  0  0  0  0  0
  185.1880  177.5700  143.3920 C   0  0  0  0  0  2  0  0  0  0  0  0
  185.9420  177.3960  142.1470 C   0  0  0  0  0  0  0  0  0  0  0  0
  186.5370  177.2590  141.1640 N   0  0  0  0  0  0  0  0  0  0  0  0
  1 21  1  6  0  0  0
  1  9  1  0  0  0  0
  2  7  2  0  0  0  0
  2  3  1  0  0  0  0
  3  5  1  0  0  0  0
  4  3  2  0  0  0  0
  5  9  2  0  0  0  0
  6  4  1  0  0  0  0
  7  1  1  0  0  0  0
  8  6  2  0  0  0  0
  8  2  1  0  0  0  0
 11 12  1  0  0  0  0
 11 10  1  0  0  0  0
 12 20  1  0  0  0  0
 13 18  1  0  0  0  0
 14 11  2  0  0  0  0
 15 10  1  6  0  0  0
 15 19  1  0  0  0  0
 16 13  1  0  0  0  0
 18  8  1  0  0  0  0
 19 18  1  0  0  0  0
 20 17  1  6  0  0  0
 20 15  1  0  0  0  0
 20 16  1  0  0  0  0
 23 26  1  0  0  0  0
 24 23  1  0  0  0  0
 26 21  1  6  0  0  0
 26 22  1  0  0  0  0
 27 30  1  6  0  0  0
 27 24  1  0  0  0  0
 27 28  1  0  0  0  0
 28 25  1  6  0  0  0
 28 29  1  0  0  0  0
 29 25  1  1  0  0  0
 29 22  1  0  0  0  0
 31 30  1  0  0  0  0
 32 31  3  0  0  0  0
M  END
>  <MODEL>
6

>  <REMARK>
 VINA RESULT:      -7.2      2.287      7.740
  Name = 
  5 active torsions:
  status: ('A' for Active; 'I' for Inactive)
    1  A    between atoms: C_3  and  O_26
    2  A    between atoms: C_11  and  C_14
    3  A    between atoms: C_14  and  C_19
    4  A    between atoms: C_17  and  O_26
    5  A    between atoms: N_27  and  C_28
                            x       y       z     vdW  Elec       q    Type
                         _______ _______ _______ _____ _____    ______ ____

>  <TORSDO>
F 5

$$$$
=
 OpenBabel11062420363D

 32 37  0  0  1  0  0  0  0  0999 V2000
  192.7970  176.0920  145.1200 C   0  0  1  0  0  3  0  0  0  0  0  0
  190.4190  175.9950  145.7200 C   0  0  0  0  0  0  0  0  0  0  0  0
  190.7550  175.2840  146.9080 C   0  0  0  0  0  0  0  0  0  0  0  0
  189.7170  174.9610  147.6060 N   0  0  0  0  0  0  0  0  0  0  0  0
  192.1000  174.9210  147.2060 N   0  0  0  0  0  0  0  0  0  0  0  0
  188.5830  175.4760  146.8880 C   0  0  0  0  0  3  0  0  0  0  0  0
  191.3320  176.3730  144.8350 C   0  0  0  0  0  3  0  0  0  0  0  0
  188.9720  176.0920  145.7650 C   0  0  0  0  0  0  0  0  0  0  0  0
  193.0540  175.2760  146.3880 C   0  0  0  0  0  3  0  0  0  0  0  0
  184.9580  178.8920  144.7860 C   0  0  0  0  0  2  0  0  0  0  0  0
  184.0570  178.6750  143.6170 C   0  0  0  0  0  0  0  0  0  0  0  0
  184.6140  177.7480  142.5850 C   0  0  0  0  0  2  0  0  0  0  0  0
  188.1190  176.2470  143.4000 C   0  0  0  0  0  2  0  0  0  0  0  0
  182.9650  179.2100  143.5110 O   0  0  0  0  0  0  0  0  0  0  0  0
  185.9700  177.7960  144.5430 C   0  0  2  0  0  3  0  0  0  0  0  0
  186.7090  176.2620  142.7760 C   0  0  0  0  0  2  0  0  0  0  0  0
  186.8120  178.6350  142.4500 O   0  0  0  0  0  1  0  0  0  0  0  0
  188.1030  176.7050  144.8000 N   0  0  0  0  0  0  0  0  0  0  0  0
  187.3490  177.9140  145.1610 C   0  0  0  0  0  2  0  0  0  0  0  0
  186.0550  177.6130  143.0410 C   0  0  1  0  0  0  0  0  0  0  0  0
  193.3770  175.4510  144.0220 O   0  0  0  0  0  0  0  0  0  0  0  0
  194.5890  176.0380  142.0150 C   0  0  0  0  0  2  0  0  0  0  0  0
  195.5150  176.5100  144.3340 C   0  0  0  0  0  2  0  0  0  0  0  0
  196.6380  175.9550  143.7040 O   0  0  0  0  0  0  0  0  0  0  0  0
  196.3640  174.4760  141.3190 C   0  0  0  0  0  2  0  0  0  0  0  0
  194.2570  176.3870  143.4690 C   0  0  2  0  0  3  0  0  0  0  0  0
  196.5140  174.5710  143.8790 C   0  0  1  0  0  3  0  0  0  0  0  0
  195.9700  173.8400  142.6340 C   0  0  1  0  0  3  0  0  0  0  0  0
  194.9130  174.5560  141.7720 C   0  0  1  0  0  3  0  0  0  0  0  0
  197.8520  173.9710  144.2770 C   0  0  0  0  0  2  0  0  0  0  0  0
  197.6920  172.5610  144.6420 C   0  0  0  0  0  0  0  0  0  0  0  0
  197.5650  171.4470  144.9310 N   0  0  0  0  0  0  0  0  0  0  0  0
  1 21  1  6  0  0  0
  1  9  1  0  0  0  0
  2  8  1  0  0  0  0
  2  3  1  0  0  0  0
  3  5  1  0  0  0  0
  3  4  2  0  0  0  0
  6  4  1  0  0  0  0
  7  1  1  0  0  0  0
  7  2  2  0  0  0  0
  8  6  2  0  0  0  0
  9  5  2  0  0  0  0
 11 10  1  0  0  0  0
 12 20  1  0  0  0  0
 12 11  1  0  0  0  0
 13 18  1  0  0  0  0
 14 11  2  0  0  0  0
 15 10  1  6  0  0  0
 15 19  1  0  0  0  0
 16 20  1  0  0  0  0
 16 13  1  0  0  0  0
 18 19  1  0  0  0  0
 18  8  1  0  0  0  0
 20 17  1  6  0  0  0
 20 15  1  0  0  0  0
 22 26  1  0  0  0  0
 24 27  1  0  0  0  0
 24 23  1  0  0  0  0
 26 21  1  1  0  0  0
 26 23  1  0  0  0  0
 27 30  1  6  0  0  0
 28 25  1  6  0  0  0
 28 27  1  0  0  0  0
 29 25  1  6  0  0  0
 29 22  1  0  0  0  0
 29 28  1  0  0  0  0
 30 31  1  0  0  0  0
 31 32  3  0  0  0  0
M  END
>  <MODEL>
7

>  <REMARK>
 VINA RESULT:      -7.2      3.150      5.034
  Name = 
  5 active torsions:
  status: ('A' for Active; 'I' for Inactive)
    1  A    between atoms: C_3  and  O_26
    2  A    between atoms: C_11  and  C_14
    3  A    between atoms: C_14  and  C_19
    4  A    between atoms: C_17  and  O_26
    5  A    between atoms: N_27  and  C_28
                            x       y       z     vdW  Elec       q    Type
                         _______ _______ _______ _____ _____    ______ ____

>  <TORSDO>
F 5

$$$$
=
 OpenBabel11062420363D

 32 37  0  0  1  0  0  0  0  0999 V2000
  188.2700  175.6800  140.8870 C   0  0  1  0  0  3  0  0  0  0  0  0
  189.8070  174.1000  141.9670 C   0  0  0  0  0  0  0  0  0  0  0  0
  189.3870  173.0830  141.0620 C   0  0  0  0  0  0  0  0  0  0  0  0
  189.9630  171.9490  141.2830 N   0  0  0  0  0  0  0  0  0  0  0  0
  188.3750  173.3220  140.0880 N   0  0  0  0  0  0  0  0  0  0  0  0
  190.8500  172.1680  142.3950 C   0  0  0  0  0  3  0  0  0  0  0  0
  189.2970  175.3250  141.9470 C   0  0  0  0  0  3  0  0  0  0  0  0
  190.7740  173.4350  142.8200 C   0  0  0  0  0  0  0  0  0  0  0  0
  187.8410  174.5100  139.9990 C   0  0  0  0  0  3  0  0  0  0  0  0
  190.7540  175.5610  147.3350 C   0  0  0  0  0  2  0  0  0  0  0  0
  191.7340  176.5970  147.7720 C   0  0  0  0  0  0  0  0  0  0  0  0
  192.9150  176.7340  146.8650 C   0  0  0  0  0  2  0  0  0  0  0  0
  192.9090  174.4040  143.7400 C   0  0  0  0  0  2  0  0  0  0  0  0
  191.5870  177.2680  148.7800 O   0  0  0  0  0  0  0  0  0  0  0  0
  191.2640  175.2900  145.9390 C   0  0  2  0  0  3  0  0  0  0  0  0
  193.2410  175.6810  144.5380 C   0  0  0  0  0  2  0  0  0  0  0  0
  193.4200  174.4330  146.5770 O   0  0  0  0  0  1  0  0  0  0  0  0
  191.5060  173.9940  143.9210 N   0  0  0  0  0  0  0  0  0  0  0  0
  190.9230  173.9720  145.2700 C   0  0  0  0  0  2  0  0  0  0  0  0
  192.7620  175.5150  145.9750 C   0  0  1  0  0  0  0  0  0  0  0  0
  187.1460  176.2490  141.4910 O   0  0  0  0  0  0  0  0  0  0  0  0
  187.4440  178.5460  142.1830 C   0  0  0  0  0  2  0  0  0  0  0  0
  185.7690  177.8870  140.3890 C   0  0  0  0  0  2  0  0  0  0  0  0
  184.9950  178.7520  141.1750 O   0  0  0  0  0  0  0  0  0  0  0  0
  185.7970  179.4210  143.7940 C   0  0  0  0  0  2  0  0  0  0  0  0
  187.1180  177.5750  141.0440 C   0  0  2  0  0  3  0  0  0  0  0  0
  184.4490  177.9470  142.1830 C   0  0  1  0  0  3  0  0  0  0  0  0
  185.1920  178.0580  143.5300 C   0  0  1  0  0  3  0  0  0  0  0  0
  186.7210  178.2460  143.5050 C   0  0  1  0  0  3  0  0  0  0  0  0
  182.9800  178.2820  142.3830 C   0  0  0  0  0  2  0  0  0  0  0  0
  182.2390  178.1000  141.1320 C   0  0  0  0  0  0  0  0  0  0  0  0
  181.6540  177.9570  140.1440 N   0  0  0  0  0  0  0  0  0  0  0  0
  1 21  1  1  0  0  0
  1  7  1  0  0  0  0
  2  8  1  0  0  0  0
  3  4  2  0  0  0  0
  3  2  1  0  0  0  0
  4  6  1  0  0  0  0
  5  3  1  0  0  0  0
  6  8  2  0  0  0  0
  7  2  2  0  0  0  0
  8 18  1  0  0  0  0
  9  5  2  0  0  0  0
  9  1  1  0  0  0  0
 10 11  1  0  0  0  0
 11 14  2  0  0  0  0
 12 11  1  0  0  0  0
 13 18  1  0  0  0  0
 13 16  1  0  0  0  0
 15 19  1  1  0  0  0
 15 20  1  0  0  0  0
 15 10  1  0  0  0  0
 16 20  1  0  0  0  0
 18 19  1  0  0  0  0
 20 17  1  1  0  0  0
 20 12  1  0  0  0  0
 23 26  1  0  0  0  0
 23 24  1  0  0  0  0
 24 27  1  0  0  0  0
 26 21  1  1  0  0  0
 26 22  1  0  0  0  0
 27 30  1  1  0  0  0
 27 28  1  0  0  0  0
 28 25  1  6  0  0  0
 29 22  1  6  0  0  0
 29 28  1  0  0  0  0
 29 25  1  0  0  0  0
 31 30  1  0  0  0  0
 32 31  3  0  0  0  0
M  END
>  <MODEL>
8

>  <REMARK>
 VINA RESULT:      -7.2      2.423      7.629
  Name = 
  5 active torsions:
  status: ('A' for Active; 'I' for Inactive)
    1  A    between atoms: C_3  and  O_26
    2  A    between atoms: C_11  and  C_14
    3  A    between atoms: C_14  and  C_19
    4  A    between atoms: C_17  and  O_26
    5  A    between atoms: N_27  and  C_28
                            x       y       z     vdW  Elec       q    Type
                         _______ _______ _______ _____ _____    ______ ____

>  <TORSDO>
F 5

$$$$
=
 OpenBabel11062420363D

 32 37  0  0  1  0  0  0  0  0999 V2000
  191.3470  176.4760  143.3130 C   0  0  1  0  0  3  0  0  0  0  0  0
  190.1580  176.8790  145.4230 C   0  0  0  0  0  0  0  0  0  0  0  0
  191.3760  176.6900  146.1370 C   0  0  0  0  0  0  0  0  0  0  0  0
  191.2250  176.7910  147.4160 N   0  0  0  0  0  0  0  0  0  0  0  0
  192.5870  176.3460  145.4700 N   0  0  0  0  0  0  0  0  0  0  0  0
  189.8310  177.0790  147.6260 C   0  0  0  0  0  3  0  0  0  0  0  0
  190.0820  176.7640  144.1030 C   0  0  0  0  0  3  0  0  0  0  0  0
  189.1760  177.1350  146.4610 C   0  0  0  0  0  0  0  0  0  0  0  0
  192.5910  176.2330  144.1700 C   0  0  0  0  0  3  0  0  0  0  0  0
  185.2060  177.4710  143.4560 C   0  0  0  0  0  2  0  0  0  0  0  0
  184.0860  178.4350  143.6600 C   0  0  0  0  0  0  0  0  0  0  0  0
  184.0870  179.0880  145.0060 C   0  0  0  0  0  2  0  0  0  0  0  0
  187.0170  178.0640  147.3640 C   0  0  0  0  0  2  0  0  0  0  0  0
  183.2430  178.6660  142.8090 O   0  0  0  0  0  0  0  0  0  0  0  0
  186.0640  177.8080  144.6530 C   0  0  2  0  0  3  0  0  0  0  0  0
  185.9420  179.0090  146.7900 C   0  0  0  0  0  2  0  0  0  0  0  0
  184.4760  177.1660  146.3430 O   0  0  0  0  0  1  0  0  0  0  0  0
  187.7720  177.3810  146.2990 N   0  0  0  0  0  0  0  0  0  0  0  0
  187.0510  176.7790  145.1690 C   0  0  0  0  0  2  0  0  0  0  0  0
  185.1190  178.2610  145.7480 C   0  0  1  0  0  0  0  0  0  0  0  0
  191.1370  175.3840  142.4670 O   0  0  0  0  0  0  0  0  0  0  0  0
  190.0350  173.4300  143.3670 C   0  0  0  0  0  2  0  0  0  0  0  0
  188.9060  174.9510  141.6740 C   0  0  0  0  0  2  0  0  0  0  0  0
  188.6170  173.6890  141.1360 O   0  0  0  0  0  0  0  0  0  0  0  0
  190.0670  171.4130  141.9530 C   0  0  0  0  0  2  0  0  0  0  0  0
  189.8940  174.8620  142.8410 C   0  0  2  0  0  3  0  0  0  0  0  0
  189.7180  173.3700  140.3310 C   0  0  1  0  0  3  0  0  0  0  0  0
  190.7110  172.3980  141.0010 C   0  0  1  0  0  3  0  0  0  0  0  0
  190.9400  172.5230  142.5200 C   0  0  1  0  0  3  0  0  0  0  0  0
  189.2480  172.7850  139.0090 C   0  0  0  0  0  2  0  0  0  0  0  0
  188.4480  173.7660  138.2710 C   0  0  0  0  0  0  0  0  0  0  0  0
  187.8160  174.5410  137.6880 N   0  0  0  0  0  0  0  0  0  0  0  0
  1 21  1  1  0  0  0
  1  7  1  0  0  0  0
  1  9  1  0  0  0  0
  2  3  1  0  0  0  0
  2  8  1  0  0  0  0
  3  4  2  0  0  0  0
  4  6  1  0  0  0  0
  5  3  1  0  0  0  0
  7  2  2  0  0  0  0
  8  6  2  0  0  0  0
  9  5  2  0  0  0  0
 10 11  1  0  0  0  0
 11 12  1  0  0  0  0
 12 20  1  0  0  0  0
 14 11  2  0  0  0  0
 15 10  1  6  0  0  0
 15 19  1  0  0  0  0
 15 20  1  0  0  0  0
 16 13  1  0  0  0  0
 18  8  1  0  0  0  0
 18 13  1  0  0  0  0
 19 18  1  0  0  0  0
 20 17  1  1  0  0  0
 20 16  1  0  0  0  0
 23 26  1  0  0  0  0
 24 23  1  0  0  0  0
 26 21  1  6  0  0  0
 26 22  1  0  0  0  0
 27 30  1  6  0  0  0
 27 28  1  0  0  0  0
 27 24  1  0  0  0  0
 28 25  1  1  0  0  0
 28 29  1  0  0  0  0
 29 25  1  1  0  0  0
 29 22  1  0  0  0  0
 31 30  1  0  0  0  0
 32 31  3  0  0  0  0
M  END
>  <MODEL>
9

>  <REMARK>
 VINA RESULT:      -7.1      2.108      5.577
  Name = 
  5 active torsions:
  status: ('A' for Active; 'I' for Inactive)
    1  A    between atoms: C_3  and  O_26
    2  A    between atoms: C_11  and  C_14
    3  A    between atoms: C_14  and  C_19
    4  A    between atoms: C_17  and  O_26
    5  A    between atoms: N_27  and  C_28
                            x       y       z     vdW  Elec       q    Type
                         _______ _______ _______ _____ _____    ______ ____

>  <TORSDO>
F 5

$$$$
