=
 OpenBabel11062420513D

 50 54  0  0  1  0  0  0  0  0999 V2000
  187.9450  175.6700  145.5730 C   0  0  1  0  0  3  0  0  0  0  0  0
  184.9140  178.5440  147.2450 C   0  0  0  0  0  2  0  0  0  0  0  0
  187.1280  177.7490  146.9270 C   0  0  1  0  0  0  0  0  0  0  0  0
  187.9390  178.8530  147.5850 C   0  0  0  0  0  2  0  0  0  0  0  0
  186.1230  176.6680  144.1090 C   0  0  0  0  0  2  0  0  0  0  0  0
  187.6290  176.5630  144.3650 C   0  0  2  0  0  3  0  0  0  0  0  0
  185.6690  178.9740  148.3440 O   0  0  0  0  0  0  0  0  0  0  0  0
  186.8220  178.1690  148.3500 C   0  0  1  0  0  3  0  0  0  0  0  0
  185.8790  178.1370  146.1610 C   0  0  1  0  0  3  0  0  0  0  0  0
  189.0830  176.2780  146.3680 C   0  0  1  0  0  3  0  0  0  0  0  0
  187.6750  176.3090  146.9430 C   0  0  2  0  0  3  0  0  0  0  0  0
  185.2940  176.9790  145.3580 C   0  0  0  0  0  2  0  0  0  0  0  0
  188.2810  175.9830  143.1210 C   0  0  0  0  0  2  0  0  0  0  0  0
  187.2560  175.2710  142.2500 C   0  0  0  0  0  2  0  0  0  0  0  0
  189.1020  174.2380  139.2640 O   0  0  0  0  0  0  0  0  0  0  0  0
  187.7070  175.2630  140.8640 N   0  0  0  0  0  0  0  0  0  0  0  0
  188.5180  174.1690  140.3800 C   0  0  0  0  0  0  0  0  0  0  0  0
  185.6070  178.2030  140.8350 C   0  0  0  0  0  3  0  0  0  0  0  0
  186.4890  177.3170  140.4660 C   0  0  0  0  0  0  0  0  0  0  0  0
  187.3750  176.4300  140.0930 C   0  0  0  0  0  3  0  0  0  0  0  0
  184.2160  178.1370  140.3110 C   0  0  0  0  0  2  0  0  0  0  0  0
  183.2530  178.1760  141.4450 C   0  0  0  0  0  0  0  0  0  0  0  0
  183.6620  178.4710  142.6010 O   0  0  0  0  0  0  0  0  0  0  0  0
  181.9130  177.8480  141.2200 O   0  0  0  0  0  0  0  0  0  0  0  0
  180.9980  178.7520  140.6150 C   0  0  0  0  0  2  0  0  0  0  0  0
  179.5700  178.2740  140.8070 C   0  0  0  0  0  2  0  0  0  0  0  0
  179.1180  178.5850  142.1510 N   0  0  0  0  0  1  0  0  0  0  0  0
  188.6810  172.9230  141.1870 C   0  0  0  0  0  2  0  0  0  0  0  0
  190.2480  172.1090  140.7560 S   0  0  0  0  0  0  0  0  0  0  0  0
  191.0450  172.7090  142.2720 C   0  0  0  0  0  2  0  0  0  0  0  0
  190.0250  172.7610  143.3920 C   0  0  0  0  0  1  0  0  0  0  0  0
  189.9180  175.1650  146.9980 C   0  0  0  0  0  2  0  0  0  0  0  0
  194.6000  175.2720  146.0250 N   0  0  0  0  0  0  0  0  0  0  0  0
  195.2900  174.5150  145.2380 C   0  0  0  0  0  0  0  0  0  0  0  0
  193.4150  174.5370  146.2750 C   0  0  0  0  0  0  0  0  0  0  0  0
  191.3000  175.6110  147.3600 C   0  0  0  0  0  3  0  0  0  0  0  0
  194.6060  173.2570  144.9170 C   0  0  0  0  0  3  0  0  0  0  0  0
  193.4360  173.2750  145.5490 C   0  0  0  0  0  3  0  0  0  0  0  0
  192.3580  175.0590  146.8300 C   0  0  0  0  0  0  0  0  0  0  0  0
  196.6460  174.8900  144.7510 C   0  0  0  0  0  2  0  0  0  0  0  0
  196.7480  174.6270  143.2590 C   0  0  0  0  0  2  0  0  0  0  0  0
  196.3710  175.8600  142.5040 C   0  0  0  0  0  0  0  0  0  0  0  0
  196.9830  176.9340  142.7430 O   0  0  0  0  0  0  0  0  0  0  0  0
  195.6120  175.7860  140.2680 O   0  0  0  0  0  0  0  0  0  0  0  0
  195.2950  175.7970  141.4860 C   0  0  0  0  0  0  0  0  0  0  0  0
  193.3880  176.2470  142.9020 C   0  0  0  0  0  3  0  0  0  0  0  0
  193.9000  175.7450  141.8210 N   0  0  0  0  0  0  0  0  0  0  0  0
  191.9230  176.1480  143.1580 C   0  0  0  0  0  2  0  0  0  0  0  0
  190.9800  178.4580  144.1090 C   0  0  0  0  0  3  0  0  0  0  0  0
  191.4070  177.4160  143.6770 C   0  0  0  0  0  0  0  0  0  0  0  0
  1 10  1  0  0  0  0
  1 11  1  0  0  0  0
  2  7  1  0  0  0  0
  3 11  1  0  0  0  0
  3  4  1  0  0  0  0
  3  8  1  0  0  0  0
  4  8  1  0  0  0  0
  5  6  1  0  0  0  0
  5 12  1  0  0  0  0
  6  1  1  0  0  0  0
  7  8  1  0  0  0  0
  9  3  1  0  0  0  0
  9  2  1  0  0  0  0
 10 11  1  0  0  0  0
 10 32  1  0  0  0  0
 12  9  1  0  0  0  0
 13  6  1  0  0  0  0
 14 13  1  0  0  0  0
 15 17  2  0  0  0  0
 16 14  1  0  0  0  0
 17 16  1  0  0  0  0
 17 28  1  0  0  0  0
 19 18  2  0  0  0  0
 20 19  2  0  0  0  0
 20 16  1  0  0  0  0
 21 18  1  0  0  0  0
 21 22  1  0  0  0  0
 22 23  2  0  0  0  0
 24 22  1  0  0  0  0
 25 26  1  0  0  0  0
 25 24  1  0  0  0  0
 26 27  1  0  0  0  0
 29 28  1  0  0  0  0
 29 30  1  0  0  0  0
 30 31  1  0  0  0  0
 32 36  1  0  0  0  0
 33 35  1  0  0  0  0
 34 33  2  0  0  0  0
 35 39  2  0  0  0  0
 37 34  1  0  0  0  0
 37 38  2  0  0  0  0
 38 35  1  0  0  0  0
 39 36  2  0  0  0  0
 40 34  1  0  0  0  0
 41 40  1  0  0  0  0
 42 43  2  0  0  0  0
 42 41  1  0  0  0  0
 44 45  2  0  0  0  0
 45 47  1  0  0  0  0
 45 42  1  0  0  0  0
 46 48  1  0  0  0  0
 47 46  2  0  0  0  0
 48 50  1  0  0  0  0
 50 49  3  0  0  0  0
M  END
>  <MODEL>
1

>  <REMARK>
 VINA RESULT:      -6.4      0.000      0.000
  Name = 
  21 active torsions:
  status: ('A' for Active; 'I' for Inactive)
    1  A    between atoms: C_2  and  C_22
    2  A    between atoms: C_2  and  C_40
    3  A    between atoms: C_5  and  C_9
    4  A    between atoms: C_5  and  C_19
    5  A    between atoms: N_7  and  C_14
    6  A    between atoms: N_7  and  C_35
    7  A    between atoms: C_9  and  C_26
    8  A    between atoms: C_10  and  C_44
    9  A    between atoms: O_11  and  C_33
   10  A    between atoms: O_11  and  C_38
   11  A    between atoms: C_12  and  S_29
   12  A    between atoms: C_13  and  C_26
   13  A    between atoms: C_14  and  C_42
   14  A    between atoms: C_18  and  C_27
   15  A    between atoms: C_19  and  N_39
   16  A    between atoms: C_24  and  C_42
   17  A    between atoms: C_25  and  C_33
   18  A    between atoms: C_27  and  S_29
   19  A    between atoms: C_31  and  C_36
   20  A    between atoms: C_36  and  C_43
   21  A    between atoms: C_38  and  C_44
                            x       y       z     vdW  Elec       q    Type
                         _______ _______ _______ _____ _____    ______ ____

>  <TORSDO>
F 21

$$$$
=
 OpenBabel11062420513D

 50 54  0  0  1  0  0  0  0  0999 V2000
  195.5450  175.3520  145.1670 C   0  0  1  0  0  3  0  0  0  0  0  0
  197.0350  171.1060  145.2020 C   0  0  0  0  0  2  0  0  0  0  0  0
  195.3400  172.7550  144.9820 C   0  0  1  0  0  0  0  0  0  0  0  0
  194.1530  171.9060  144.5540 C   0  0  0  0  0  2  0  0  0  0  0  0
  197.6240  174.6710  143.8750 C   0  0  0  0  0  2  0  0  0  0  0  0
  196.1960  175.2150  143.7840 C   0  0  2  0  0  3  0  0  0  0  0  0
  195.8200  170.4980  145.5450 O   0  0  0  0  0  0  0  0  0  0  0  0
  194.9290  171.5540  145.8100 C   0  0  1  0  0  3  0  0  0  0  0  0
  196.7130  172.3790  144.4610 C   0  0  1  0  0  3  0  0  0  0  0  0
  194.0920  174.9290  145.0860 C   0  0  1  0  0  3  0  0  0  0  0  0
  195.0880  174.0320  145.8050 C   0  0  2  0  0  3  0  0  0  0  0  0
  197.7700  173.4350  144.7670 C   0  0  0  0  0  2  0  0  0  0  0  0
  196.2500  176.5760  143.1110 C   0  0  0  0  0  2  0  0  0  0  0  0
  196.5260  176.4370  141.6210 C   0  0  0  0  0  2  0  0  0  0  0  0
  194.4010  175.1400  138.9390 O   0  0  0  0  0  0  0  0  0  0  0  0
  195.3190  175.9890  140.9370 N   0  0  0  0  0  0  0  0  0  0  0  0
  195.4230  175.3390  139.6500 C   0  0  0  0  0  0  0  0  0  0  0  0
  192.2030  174.5850  142.1080 C   0  0  0  0  0  3  0  0  0  0  0  0
  193.1380  175.4520  141.8420 C   0  0  0  0  0  0  0  0  0  0  0  0
  194.0770  176.3240  141.5780 C   0  0  0  0  0  3  0  0  0  0  0  0
  191.0470  174.4240  141.1830 C   0  0  0  0  0  2  0  0  0  0  0  0
  190.8280  172.9800  140.9030 C   0  0  0  0  0  0  0  0  0  0  0  0
  190.3920  172.6220  139.7760 O   0  0  0  0  0  0  0  0  0  0  0  0
  191.0720  172.0400  141.9090 O   0  0  0  0  0  0  0  0  0  0  0  0
  190.0440  171.2260  142.4570 C   0  0  0  0  0  2  0  0  0  0  0  0
  189.3260  171.9550  143.5780 C   0  0  0  0  0  2  0  0  0  0  0  0
  190.2920  172.5110  144.5090 N   0  0  0  0  0  1  0  0  0  0  0  0
  196.7460  174.8820  139.1290 C   0  0  0  0  0  2  0  0  0  0  0  0
  196.6060  174.4680  137.3660 S   0  0  0  0  0  0  0  0  0  0  0  0
  197.3510  172.8340  137.6290 C   0  0  0  0  0  2  0  0  0  0  0  0
  196.3460  171.9230  138.3040 C   0  0  0  0  0  1  0  0  0  0  0  0
  193.2650  175.7480  146.0750 C   0  0  0  0  0  2  0  0  0  0  0  0
  188.8020  177.4660  145.9740 N   0  0  0  0  0  0  0  0  0  0  0  0
  187.7520  177.0520  146.6020 C   0  0  0  0  0  0  0  0  0  0  0  0
  189.6930  176.3640  146.0100 C   0  0  0  0  0  0  0  0  0  0  0  0
  192.2210  176.5850  145.4050 C   0  0  0  0  0  3  0  0  0  0  0  0
  187.8880  175.6760  147.0920 C   0  0  0  0  0  3  0  0  0  0  0  0
  189.0980  175.2530  146.7380 C   0  0  0  0  0  3  0  0  0  0  0  0
  190.9540  176.4590  145.6960 C   0  0  0  0  0  0  0  0  0  0  0  0
  186.5340  177.8930  146.7660 C   0  0  0  0  0  2  0  0  0  0  0  0
  185.3350  177.1860  146.1580 C   0  0  0  0  0  2  0  0  0  0  0  0
  184.6790  178.0800  145.1570 C   0  0  0  0  0  0  0  0  0  0  0  0
  183.9390  179.0140  145.5640 O   0  0  0  0  0  0  0  0  0  0  0  0
  183.9770  178.0900  142.9010 O   0  0  0  0  0  0  0  0  0  0  0  0
  184.9140  177.8580  143.7100 C   0  0  0  0  0  0  0  0  0  0  0  0
  186.4910  176.1410  143.0720 C   0  0  0  0  0  3  0  0  0  0  0  0
  186.1640  177.3910  143.1800 N   0  0  0  0  0  0  0  0  0  0  0  0
  187.8130  175.7550  142.5020 C   0  0  0  0  0  2  0  0  0  0  0  0
  189.4530  177.8610  142.4370 C   0  0  0  0  0  3  0  0  0  0  0  0
  188.7130  176.9100  142.4680 C   0  0  0  0  0  0  0  0  0  0  0  0
  1 11  1  0  0  0  0
  2  7  1  0  0  0  0
  3 11  1  0  0  0  0
  3  8  1  0  0  0  0
  4  3  1  0  0  0  0
  4  8  1  0  0  0  0
  5 12  1  0  0  0  0
  6  5  1  0  0  0  0
  6  1  1  0  0  0  0
  7  8  1  0  0  0  0
  9 12  1  0  0  0  0
  9  3  1  0  0  0  0
  9  2  1  0  0  0  0
 10  1  1  0  0  0  0
 10 11  1  0  0  0  0
 10 32  1  0  0  0  0
 13  6  1  0  0  0  0
 14 13  1  0  0  0  0
 15 17  2  0  0  0  0
 16 20  1  0  0  0  0
 16 14  1  0  0  0  0
 17 16  1  0  0  0  0
 19 18  2  0  0  0  0
 20 19  2  0  0  0  0
 21 18  1  0  0  0  0
 22 21  1  0  0  0  0
 22 24  1  0  0  0  0
 23 22  2  0  0  0  0
 24 25  1  0  0  0  0
 25 26  1  0  0  0  0
 26 27  1  0  0  0  0
 28 17  1  0  0  0  0
 29 30  1  0  0  0  0
 29 28  1  0  0  0  0
 30 31  1  0  0  0  0
 33 35  1  0  0  0  0
 33 34  2  0  0  0  0
 34 40  1  0  0  0  0
 34 37  1  0  0  0  0
 35 38  1  0  0  0  0
 36 39  2  0  0  0  0
 36 32  1  0  0  0  0
 38 37  2  0  0  0  0
 39 35  2  0  0  0  0
 41 40  1  0  0  0  0
 42 43  2  0  0  0  0
 42 41  1  0  0  0  0
 44 45  2  0  0  0  0
 45 42  1  0  0  0  0
 46 47  2  0  0  0  0
 47 45  1  0  0  0  0
 48 46  1  0  0  0  0
 49 50  3  0  0  0  0
 50 48  1  0  0  0  0
M  END
>  <MODEL>
2

>  <REMARK>
 VINA RESULT:      -6.1      2.746      9.065
  Name = 
  21 active torsions:
  status: ('A' for Active; 'I' for Inactive)
    1  A    between atoms: C_2  and  C_22
    2  A    between atoms: C_2  and  C_40
    3  A    between atoms: C_5  and  C_9
    4  A    between atoms: C_5  and  C_19
    5  A    between atoms: N_7  and  C_14
    6  A    between atoms: N_7  and  C_35
    7  A    between atoms: C_9  and  C_26
    8  A    between atoms: C_10  and  C_44
    9  A    between atoms: O_11  and  C_33
   10  A    between atoms: O_11  and  C_38
   11  A    between atoms: C_12  and  S_29
   12  A    between atoms: C_13  and  C_26
   13  A    between atoms: C_14  and  C_42
   14  A    between atoms: C_18  and  C_27
   15  A    between atoms: C_19  and  N_39
   16  A    between atoms: C_24  and  C_42
   17  A    between atoms: C_25  and  C_33
   18  A    between atoms: C_27  and  S_29
   19  A    between atoms: C_31  and  C_36
   20  A    between atoms: C_36  and  C_43
   21  A    between atoms: C_38  and  C_44
                            x       y       z     vdW  Elec       q    Type
                         _______ _______ _______ _____ _____    ______ ____

>  <TORSDO>
F 21

$$$$
=
 OpenBabel11062420513D

 50 54  0  0  1  0  0  0  0  0999 V2000
  189.4130  172.3520  140.3040 C   0  0  1  0  0  3  0  0  0  0  0  0
  190.0370  170.6720  136.1770 C   0  0  0  0  0  2  0  0  0  0  0  0
  189.9860  172.4430  137.7570 C   0  0  1  0  0  0  0  0  0  0  0  0
  190.5250  173.5980  136.9280 C   0  0  0  0  0  2  0  0  0  0  0  0
  190.8150  170.2680  139.9250 C   0  0  0  0  0  2  0  0  0  0  0  0
  190.8070  171.7210  140.4080 C   0  0  2  0  0  3  0  0  0  0  0  0
  189.7770  171.8510  135.4670 O   0  0  0  0  0  0  0  0  0  0  0  0
  189.3460  172.7850  136.4270 C   0  0  1  0  0  3  0  0  0  0  0  0
  190.5730  171.0650  137.5300 C   0  0  1  0  0  3  0  0  0  0  0  0
  189.5400  173.7860  139.8300 C   0  0  1  0  0  3  0  0  0  0  0  0
  188.9760  172.7370  138.8830 C   0  0  2  0  0  3  0  0  0  0  0  0
  190.1230  170.0510  138.5770 C   0  0  0  0  0  2  0  0  0  0  0  0
  191.2660  171.7410  141.8560 C   0  0  0  0  0  2  0  0  0  0  0  0
  192.1530  172.9470  142.1300 C   0  0  0  0  0  2  0  0  0  0  0  0
  195.2590  171.7380  143.6420 O   0  0  0  0  0  0  0  0  0  0  0  0
  193.1250  172.6180  143.1660 N   0  0  0  0  0  0  0  0  0  0  0  0
  194.4680  172.2340  142.7950 C   0  0  0  0  0  0  0  0  0  0  0  0
  191.8420  174.7600  145.7780 C   0  0  0  0  0  3  0  0  0  0  0  0
  192.2330  173.6900  145.1460 C   0  0  0  0  0  0  0  0  0  0  0  0
  192.6230  172.6130  144.5130 C   0  0  0  0  0  3  0  0  0  0  0  0
  192.7680  175.4580  146.7110 C   0  0  0  0  0  2  0  0  0  0  0  0
  193.9410  175.9760  145.9560 C   0  0  0  0  0  0  0  0  0  0  0  0
  193.8380  177.0490  145.3020 O   0  0  0  0  0  0  0  0  0  0  0  0
  195.1330  175.2450  145.9510 O   0  0  0  0  0  0  0  0  0  0  0  0
  195.9460  175.1220  144.7920 C   0  0  0  0  0  2  0  0  0  0  0  0
  197.1360  174.2210  145.0670 C   0  0  0  0  0  2  0  0  0  0  0  0
  196.9670  173.5500  146.3440 N   0  0  0  0  0  1  0  0  0  0  0  0
  194.9580  172.4210  141.3960 C   0  0  0  0  0  2  0  0  0  0  0  0
  196.6950  172.9520  141.4160 S   0  0  0  0  0  0  0  0  0  0  0  0
  196.3230  174.4120  140.4060 C   0  0  0  0  0  2  0  0  0  0  0  0
  196.8490  175.6540  141.0990 C   0  0  0  0  0  1  0  0  0  0  0  0
  188.4290  174.6310  140.4500 C   0  0  0  0  0  2  0  0  0  0  0  0
  188.1530  176.0170  145.0210 N   0  0  0  0  0  0  0  0  0  0  0  0
  188.6200  177.0830  145.5820 C   0  0  0  0  0  0  0  0  0  0  0  0
  188.8900  175.9000  143.8160 C   0  0  0  0  0  0  0  0  0  0  0  0
  188.1790  174.2940  141.8870 C   0  0  0  0  0  3  0  0  0  0  0  0
  189.6700  177.7290  144.7880 C   0  0  0  0  0  3  0  0  0  0  0  0
  189.8290  177.0040  143.6840 C   0  0  0  0  0  3  0  0  0  0  0  0
  188.5530  175.0900  142.8520 C   0  0  0  0  0  0  0  0  0  0  0  0
  188.1470  177.5600  146.9100 C   0  0  0  0  0  2  0  0  0  0  0  0
  186.6840  177.1960  147.0970 C   0  0  0  0  0  2  0  0  0  0  0  0
  185.8310  178.3960  146.8440 C   0  0  0  0  0  0  0  0  0  0  0  0
  185.9060  179.3760  147.6310 O   0  0  0  0  0  0  0  0  0  0  0  0
  183.7400  178.8210  145.8300 O   0  0  0  0  0  0  0  0  0  0  0  0
  184.9210  178.4160  145.6730 C   0  0  0  0  0  0  0  0  0  0  0  0
  186.0360  178.7110  143.5490 C   0  0  0  0  0  3  0  0  0  0  0  0
  185.3220  177.9950  144.3600 N   0  0  0  0  0  0  0  0  0  0  0  0
  186.4070  178.1830  142.2050 C   0  0  0  0  0  2  0  0  0  0  0  0
  184.3260  178.3160  140.5380 C   0  0  0  0  0  3  0  0  0  0  0  0
  185.2640  178.2560  141.2920 C   0  0  0  0  0  0  0  0  0  0  0  0
  1  6  1  0  0  0  0
  2  9  1  0  0  0  0
  3 11  1  0  0  0  0
  4  3  1  0  0  0  0
  5  6  1  0  0  0  0
  6 13  1  0  0  0  0
  7  2  1  0  0  0  0
  7  8  1  0  0  0  0
  8  4  1  0  0  0  0
  8  3  1  0  0  0  0
  9  3  1  0  0  0  0
  9 12  1  0  0  0  0
 10  1  1  0  0  0  0
 10 32  1  0  0  0  0
 11 10  1  0  0  0  0
 11  1  1  0  0  0  0
 12  5  1  0  0  0  0
 13 14  1  0  0  0  0
 14 16  1  0  0  0  0
 16 20  1  0  0  0  0
 17 16  1  0  0  0  0
 17 15  2  0  0  0  0
 18 21  1  0  0  0  0
 19 18  2  0  0  0  0
 20 19  2  0  0  0  0
 22 21  1  0  0  0  0
 23 22  2  0  0  0  0
 24 22  1  0  0  0  0
 25 26  1  0  0  0  0
 25 24  1  0  0  0  0
 26 27  1  0  0  0  0
 28 29  1  0  0  0  0
 28 17  1  0  0  0  0
 30 31  1  0  0  0  0
 30 29  1  0  0  0  0
 32 36  1  0  0  0  0
 33 34  2  0  0  0  0
 34 40  1  0  0  0  0
 35 33  1  0  0  0  0
 36 39  2  0  0  0  0
 37 34  1  0  0  0  0
 38 35  1  0  0  0  0
 38 37  2  0  0  0  0
 39 35  2  0  0  0  0
 40 41  1  0  0  0  0
 42 41  1  0  0  0  0
 42 43  2  0  0  0  0
 45 44  2  0  0  0  0
 45 42  1  0  0  0  0
 46 47  2  0  0  0  0
 47 45  1  0  0  0  0
 48 46  1  0  0  0  0
 49 50  3  0  0  0  0
 50 48  1  0  0  0  0
M  END
>  <MODEL>
3

>  <REMARK>
 VINA RESULT:      -6.0      2.814      9.984
  Name = 
  21 active torsions:
  status: ('A' for Active; 'I' for Inactive)
    1  A    between atoms: C_2  and  C_22
    2  A    between atoms: C_2  and  C_40
    3  A    between atoms: C_5  and  C_9
    4  A    between atoms: C_5  and  C_19
    5  A    between atoms: N_7  and  C_14
    6  A    between atoms: N_7  and  C_35
    7  A    between atoms: C_9  and  C_26
    8  A    between atoms: C_10  and  C_44
    9  A    between atoms: O_11  and  C_33
   10  A    between atoms: O_11  and  C_38
   11  A    between atoms: C_12  and  S_29
   12  A    between atoms: C_13  and  C_26
   13  A    between atoms: C_14  and  C_42
   14  A    between atoms: C_18  and  C_27
   15  A    between atoms: C_19  and  N_39
   16  A    between atoms: C_24  and  C_42
   17  A    between atoms: C_25  and  C_33
   18  A    between atoms: C_27  and  S_29
   19  A    between atoms: C_31  and  C_36
   20  A    between atoms: C_36  and  C_43
   21  A    between atoms: C_38  and  C_44
                            x       y       z     vdW  Elec       q    Type
                         _______ _______ _______ _____ _____    ______ ____

>  <TORSDO>
F 21

$$$$
=
 OpenBabel11062420513D

 50 54  0  0  1  0  0  0  0  0999 V2000
  190.5560  172.9370  140.8480 C   0  0  1  0  0  3  0  0  0  0  0  0
  191.6130  168.9420  139.0670 C   0  0  0  0  0  2  0  0  0  0  0  0
  190.7630  171.1560  138.9490 C   0  0  1  0  0  0  0  0  0  0  0  0
  190.5230  171.3040  137.4550 C   0  0  0  0  0  2  0  0  0  0  0  0
  192.8160  171.8570  141.2750 C   0  0  0  0  0  2  0  0  0  0  0  0
  192.0750  173.0470  140.6590 C   0  0  2  0  0  3  0  0  0  0  0  0
  190.7000  168.9780  138.0050 O   0  0  0  0  0  0  0  0  0  0  0  0
  189.9230  170.1330  138.2100 C   0  0  1  0  0  3  0  0  0  0  0  0
  191.9730  170.3670  139.4040 C   0  0  1  0  0  3  0  0  0  0  0  0
  189.8540  173.4060  139.5900 C   0  0  1  0  0  3  0  0  0  0  0  0
  189.8570  171.9230  139.9310 C   0  0  2  0  0  3  0  0  0  0  0  0
  192.2310  170.4920  140.9030 C   0  0  0  0  0  2  0  0  0  0  0  0
  192.5790  174.3150  141.3270 C   0  0  0  0  0  2  0  0  0  0  0  0
  194.0680  174.2200  141.6230 C   0  0  0  0  0  2  0  0  0  0  0  0
  196.4200  177.0110  141.8930 O   0  0  0  0  0  0  0  0  0  0  0  0
  194.5840  175.5360  141.9820 N   0  0  0  0  0  0  0  0  0  0  0  0
  195.8460  175.9850  141.4380 C   0  0  0  0  0  0  0  0  0  0  0  0
  193.9560  175.8430  145.5260 C   0  0  0  0  0  3  0  0  0  0  0  0
  193.8860  176.0520  144.2420 C   0  0  0  0  0  0  0  0  0  0  0  0
  193.8140  176.2640  142.9530 C   0  0  0  0  0  3  0  0  0  0  0  0
  192.9550  174.9710  146.1990 C   0  0  0  0  0  2  0  0  0  0  0  0
  192.9040  173.6500  145.5150 C   0  0  0  0  0  0  0  0  0  0  0  0
  191.8970  173.3450  144.8200 O   0  0  0  0  0  0  0  0  0  0  0  0
  193.9580  172.7480  145.6850 O   0  0  0  0  0  0  0  0  0  0  0  0
  194.5920  172.1010  144.5900 C   0  0  0  0  0  2  0  0  0  0  0  0
  194.5270  170.5930  144.7500 C   0  0  0  0  0  2  0  0  0  0  0  0
  194.6380  170.2370  146.1540 N   0  0  0  0  0  1  0  0  0  0  0  0
  196.5010  175.2480  140.3160 C   0  0  0  0  0  2  0  0  0  0  0  0
  197.9400  174.3310  140.9380 S   0  0  0  0  0  0  0  0  0  0  0  0
  197.2610  172.7520  140.3550 C   0  0  0  0  0  2  0  0  0  0  0  0
  196.5220  172.9710  139.0500 C   0  0  0  0  0  1  0  0  0  0  0  0
  188.5230  174.0590  139.9600 C   0  0  0  0  0  2  0  0  0  0  0  0
  186.6250  177.4250  142.7790 N   0  0  0  0  0  0  0  0  0  0  0  0
  185.6640  178.2520  142.5320 C   0  0  0  0  0  0  0  0  0  0  0  0
  187.0610  176.9980  141.5000 C   0  0  0  0  0  0  0  0  0  0  0  0
  188.6250  174.9360  141.1680 C   0  0  0  0  0  3  0  0  0  0  0  0
  185.4060  178.4110  141.0970 C   0  0  0  0  0  3  0  0  0  0  0  0
  186.2620  177.6220  140.4550 C   0  0  0  0  0  3  0  0  0  0  0  0
  187.8540  175.9790  141.3230 C   0  0  0  0  0  0  0  0  0  0  0  0
  184.9370  178.9790  143.6090 C   0  0  0  0  0  2  0  0  0  0  0  0
  185.8910  179.3050  144.7450 C   0  0  0  0  0  2  0  0  0  0  0  0
  185.4260  178.6400  145.9990 C   0  0  0  0  0  0  0  0  0  0  0  0
  184.2270  178.7820  146.3580 O   0  0  0  0  0  0  0  0  0  0  0  0
  186.0490  177.4750  147.9570 O   0  0  0  0  0  0  0  0  0  0  0  0
  186.3750  177.8210  146.7910 C   0  0  0  0  0  0  0  0  0  0  0  0
  187.9640  176.1700  146.0230 C   0  0  0  0  0  3  0  0  0  0  0  0
  187.6530  177.3990  146.2930 N   0  0  0  0  0  0  0  0  0  0  0  0
  189.3200  175.8320  145.5030 C   0  0  0  0  0  2  0  0  0  0  0  0
  190.2280  177.7850  143.9240 C   0  0  0  0  0  3  0  0  0  0  0  0
  189.8180  176.9040  144.6390 C   0  0  0  0  0  0  0  0  0  0  0  0
  2  9  1  0  0  0  0
  3  9  1  0  0  0  0
  3 11  1  0  0  0  0
  4  8  1  0  0  0  0
  4  3  1  0  0  0  0
  6  1  1  0  0  0  0
  6  5  1  0  0  0  0
  6 13  1  0  0  0  0
  7  8  1  0  0  0  0
  7  2  1  0  0  0  0
  8  3  1  0  0  0  0
  9 12  1  0  0  0  0
 10 11  1  0  0  0  0
 10 32  1  0  0  0  0
 10  1  1  0  0  0  0
 11  1  1  0  0  0  0
 12  5  1  0  0  0  0
 13 14  1  0  0  0  0
 14 16  1  0  0  0  0
 16 20  1  0  0  0  0
 17 15  2  0  0  0  0
 17 16  1  0  0  0  0
 18 21  1  0  0  0  0
 19 18  2  0  0  0  0
 20 19  2  0  0  0  0
 22 24  1  0  0  0  0
 22 21  1  0  0  0  0
 23 22  2  0  0  0  0
 25 26  1  0  0  0  0
 25 24  1  0  0  0  0
 26 27  1  0  0  0  0
 28 29  1  0  0  0  0
 28 17  1  0  0  0  0
 30 29  1  0  0  0  0
 31 30  1  0  0  0  0
 32 36  1  0  0  0  0
 34 33  2  0  0  0  0
 34 40  1  0  0  0  0
 35 33  1  0  0  0  0
 36 39  2  0  0  0  0
 37 34  1  0  0  0  0
 38 37  2  0  0  0  0
 38 35  1  0  0  0  0
 39 35  2  0  0  0  0
 40 41  1  0  0  0  0
 41 42  1  0  0  0  0
 42 43  2  0  0  0  0
 42 45  1  0  0  0  0
 45 44  2  0  0  0  0
 46 47  2  0  0  0  0
 47 45  1  0  0  0  0
 48 46  1  0  0  0  0
 49 50  3  0  0  0  0
 50 48  1  0  0  0  0
M  END
>  <MODEL>
4

>  <REMARK>
 VINA RESULT:      -5.8      2.988     10.182
  Name = 
  21 active torsions:
  status: ('A' for Active; 'I' for Inactive)
    1  A    between atoms: C_2  and  C_22
    2  A    between atoms: C_2  and  C_40
    3  A    between atoms: C_5  and  C_9
    4  A    between atoms: C_5  and  C_19
    5  A    between atoms: N_7  and  C_14
    6  A    between atoms: N_7  and  C_35
    7  A    between atoms: C_9  and  C_26
    8  A    between atoms: C_10  and  C_44
    9  A    between atoms: O_11  and  C_33
   10  A    between atoms: O_11  and  C_38
   11  A    between atoms: C_12  and  S_29
   12  A    between atoms: C_13  and  C_26
   13  A    between atoms: C_14  and  C_42
   14  A    between atoms: C_18  and  C_27
   15  A    between atoms: C_19  and  N_39
   16  A    between atoms: C_24  and  C_42
   17  A    between atoms: C_25  and  C_33
   18  A    between atoms: C_27  and  S_29
   19  A    between atoms: C_31  and  C_36
   20  A    between atoms: C_36  and  C_43
   21  A    between atoms: C_38  and  C_44
                            x       y       z     vdW  Elec       q    Type
                         _______ _______ _______ _____ _____    ______ ____

>  <TORSDO>
F 21

$$$$
=
 OpenBabel11062420513D

 50 54  0  0  1  0  0  0  0  0999 V2000
  189.2060  177.9940  144.1380 C   0  0  1  0  0  3  0  0  0  0  0  0
  186.3570  176.9590  147.4630 C   0  0  0  0  0  2  0  0  0  0  0  0
  187.1420  176.8210  145.2270 C   0  0  1  0  0  0  0  0  0  0  0  0
  186.2210  175.7560  144.6530 C   0  0  0  0  0  2  0  0  0  0  0  0
  190.0500  177.2870  146.4280 C   0  0  0  0  0  2  0  0  0  0  0  0
  189.9920  176.9450  144.9370 C   0  0  2  0  0  3  0  0  0  0  0  0
  185.2540  176.6460  146.6570 O   0  0  0  0  0  0  0  0  0  0  0  0
  185.6390  176.9750  145.3440 C   0  0  1  0  0  3  0  0  0  0  0  0
  187.6020  176.6710  146.6630 C   0  0  1  0  0  3  0  0  0  0  0  0
  188.3620  177.3020  143.0870 C   0  0  1  0  0  3  0  0  0  0  0  0
  187.6800  177.9250  144.2960 C   0  0  2  0  0  3  0  0  0  0  0  0
  188.6970  177.6640  147.0390 C   0  0  0  0  0  2  0  0  0  0  0  0
  191.4160  176.8710  144.4130 C   0  0  0  0  0  2  0  0  0  0  0  0
  191.6630  175.5530  143.6930 C   0  0  0  0  0  2  0  0  0  0  0  0
  189.6880  172.8790  145.2210 O   0  0  0  0  0  0  0  0  0  0  0  0
  191.3300  174.4400  144.5740 N   0  0  0  0  0  0  0  0  0  0  0  0
  190.1110  173.6940  144.3580 C   0  0  0  0  0  0  0  0  0  0  0  0
  194.3810  175.6440  146.0880 C   0  0  0  0  0  3  0  0  0  0  0  0
  193.3060  174.9390  145.8820 C   0  0  0  0  0  0  0  0  0  0  0  0
  192.2250  174.2290  145.6790 C   0  0  0  0  0  3  0  0  0  0  0  0
  195.7050  175.1390  145.6330 C   0  0  0  0  0  2  0  0  0  0  0  0
  195.8300  175.3220  144.1610 C   0  0  0  0  0  0  0  0  0  0  0  0
  195.4810  176.4140  143.6360 O   0  0  0  0  0  0  0  0  0  0  0  0
  196.2980  174.2650  143.3750 O   0  0  0  0  0  0  0  0  0  0  0  0
  195.4270  173.2980  142.8030 C   0  0  0  0  0  2  0  0  0  0  0  0
  196.1970  172.3550  141.8960 C   0  0  0  0  0  2  0  0  0  0  0  0
  197.5710  172.8060  141.7630 N   0  0  0  0  0  1  0  0  0  0  0  0
  189.3220  173.8660  143.1010 C   0  0  0  0  0  2  0  0  0  0  0  0
  188.8550  172.2390  142.4390 S   0  0  0  0  0  0  0  0  0  0  0  0
  188.5500  172.9320  140.7900 C   0  0  0  0  0  2  0  0  0  0  0  0
  188.7060  174.4390  140.8380 C   0  0  0  0  0  1  0  0  0  0  0  0
  188.2410  178.1980  141.8560 C   0  0  0  0  0  2  0  0  0  0  0  0
  183.6370  178.2480  140.5580 N   0  0  0  0  0  0  0  0  0  0  0  0
  182.5980  178.5900  141.2440 C   0  0  0  0  0  0  0  0  0  0  0  0
  184.6360  177.9940  141.5310 C   0  0  0  0  0  0  0  0  0  0  0  0
  187.1610  177.7550  140.9200 C   0  0  0  0  0  3  0  0  0  0  0  0
  182.8460  178.5900  142.6900 C   0  0  0  0  0  3  0  0  0  0  0  0
  184.1150  178.2340  142.8690 C   0  0  0  0  0  3  0  0  0  0  0  0
  185.8980  177.8570  141.2360 C   0  0  0  0  0  0  0  0  0  0  0  0
  181.2890  178.9090  140.6090 C   0  0  0  0  0  2  0  0  0  0  0  0
  180.1940  178.0630  141.2340 C   0  0  0  0  0  2  0  0  0  0  0  0
  178.8640  178.4950  140.7080 C   0  0  0  0  0  0  0  0  0  0  0  0
  178.4180  177.9590  139.6600 O   0  0  0  0  0  0  0  0  0  0  0  0
  177.6920  179.2920  142.5980 O   0  0  0  0  0  0  0  0  0  0  0  0
  178.0920  179.5360  141.4300 C   0  0  0  0  0  0  0  0  0  0  0  0
  178.5220  181.4350  139.9980 C   0  0  0  0  0  3  0  0  0  0  0  0
  177.7780  180.8160  140.8600 N   0  0  0  0  0  0  0  0  0  0  0  0
  178.1050  182.7610  139.4600 C   0  0  0  0  0  2  0  0  0  0  0  0
  180.0510  183.8190  137.9680 C   0  0  0  0  0  3  0  0  0  0  0  0
  179.1720  183.3400  138.6400 C   0  0  0  0  0  0  0  0  0  0  0  0
  1 11  1  0  0  0  0
  1  6  1  0  0  0  0
  3  8  1  0  0  0  0
  3  9  1  0  0  0  0
  4  3  1  0  0  0  0
  4  8  1  0  0  0  0
  5 12  1  0  0  0  0
  6  5  1  0  0  0  0
  7  2  1  0  0  0  0
  8  7  1  0  0  0  0
  9 12  1  0  0  0  0
  9  2  1  0  0  0  0
 10  1  1  0  0  0  0
 10 11  1  0  0  0  0
 11  3  1  0  0  0  0
 13  6  1  0  0  0  0
 14 13  1  0  0  0  0
 14 16  1  0  0  0  0
 16 20  1  0  0  0  0
 17 16  1  0  0  0  0
 17 15  2  0  0  0  0
 19 18  2  0  0  0  0
 20 19  2  0  0  0  0
 21 18  1  0  0  0  0
 22 21  1  0  0  0  0
 23 22  2  0  0  0  0
 24 22  1  0  0  0  0
 25 24  1  0  0  0  0
 26 25  1  0  0  0  0
 27 26  1  0  0  0  0
 28 17  1  0  0  0  0
 29 28  1  0  0  0  0
 30 31  1  0  0  0  0
 30 29  1  0  0  0  0
 32 10  1  0  0  0  0
 33 34  2  0  0  0  0
 33 35  1  0  0  0  0
 34 37  1  0  0  0  0
 35 38  1  0  0  0  0
 36 39  2  0  0  0  0
 36 32  1  0  0  0  0
 37 38  2  0  0  0  0
 39 35  2  0  0  0  0
 40 41  1  0  0  0  0
 40 34  1  0  0  0  0
 42 41  1  0  0  0  0
 42 45  1  0  0  0  0
 43 42  2  0  0  0  0
 45 44  2  0  0  0  0
 46 47  2  0  0  0  0
 47 45  1  0  0  0  0
 48 46  1  0  0  0  0
 49 50  3  0  0  0  0
 50 48  1  0  0  0  0
M  END
>  <MODEL>
5

>  <REMARK>
 VINA RESULT:      -5.8      2.547     11.112
  Name = 
  21 active torsions:
  status: ('A' for Active; 'I' for Inactive)
    1  A    between atoms: C_2  and  C_22
    2  A    between atoms: C_2  and  C_40
    3  A    between atoms: C_5  and  C_9
    4  A    between atoms: C_5  and  C_19
    5  A    between atoms: N_7  and  C_14
    6  A    between atoms: N_7  and  C_35
    7  A    between atoms: C_9  and  C_26
    8  A    between atoms: C_10  and  C_44
    9  A    between atoms: O_11  and  C_33
   10  A    between atoms: O_11  and  C_38
   11  A    between atoms: C_12  and  S_29
   12  A    between atoms: C_13  and  C_26
   13  A    between atoms: C_14  and  C_42
   14  A    between atoms: C_18  and  C_27
   15  A    between atoms: C_19  and  N_39
   16  A    between atoms: C_24  and  C_42
   17  A    between atoms: C_25  and  C_33
   18  A    between atoms: C_27  and  S_29
   19  A    between atoms: C_31  and  C_36
   20  A    between atoms: C_36  and  C_43
   21  A    between atoms: C_38  and  C_44
                            x       y       z     vdW  Elec       q    Type
                         _______ _______ _______ _____ _____    ______ ____

>  <TORSDO>
F 21

$$$$
=
 OpenBabel11062420513D

 50 54  0  0  1  0  0  0  0  0999 V2000
  189.1420  177.6240  144.0720 C   0  0  1  0  0  3  0  0  0  0  0  0
  186.3960  177.9430  147.6220 C   0  0  0  0  0  2  0  0  0  0  0  0
  186.9320  177.2530  145.4140 C   0  0  1  0  0  0  0  0  0  0  0  0
  185.7160  176.4120  145.0610 C   0  0  0  0  0  2  0  0  0  0  0  0
  189.9450  177.0670  146.4170 C   0  0  0  0  0  2  0  0  0  0  0  0
  189.6770  176.5330  145.0080 C   0  0  2  0  0  3  0  0  0  0  0  0
  185.1890  177.8310  146.9190 O   0  0  0  0  0  0  0  0  0  0  0  0
  185.5410  177.8350  145.5570 C   0  0  1  0  0  3  0  0  0  0  0  0
  187.4480  177.2010  146.8380 C   0  0  1  0  0  3  0  0  0  0  0  0
  188.0610  177.0430  143.1820 C   0  0  1  0  0  3  0  0  0  0  0  0
  187.6710  178.0080  144.2930 C   0  0  2  0  0  3  0  0  0  0  0  0
  188.7970  177.8940  147.0030 C   0  0  0  0  0  2  0  0  0  0  0  0
  190.9820  175.9850  144.4540 C   0  0  0  0  0  2  0  0  0  0  0  0
  190.9210  174.4720  144.3090 C   0  0  0  0  0  2  0  0  0  0  0  0
  194.2750  173.5460  143.1740 O   0  0  0  0  0  0  0  0  0  0  0  0
  191.9780  174.0190  143.4130 N   0  0  0  0  0  0  0  0  0  0  0  0
  193.2910  173.7260  143.9420 C   0  0  0  0  0  0  0  0  0  0  0  0
  189.2010  174.1930  141.1080 C   0  0  0  0  0  3  0  0  0  0  0  0
  190.4180  174.0910  141.5630 C   0  0  0  0  0  0  0  0  0  0  0  0
  191.6410  173.9890  142.0160 C   0  0  0  0  0  3  0  0  0  0  0  0
  188.4290  172.9700  140.7550 C   0  0  0  0  0  2  0  0  0  0  0  0
  188.8470  172.4860  139.4120 C   0  0  0  0  0  0  0  0  0  0  0  0
  189.6230  171.4970  139.3190 O   0  0  0  0  0  0  0  0  0  0  0  0
  188.4040  173.1600  138.2700 O   0  0  0  0  0  0  0  0  0  0  0  0
  189.2370  174.0490  137.5390 C   0  0  0  0  0  2  0  0  0  0  0  0
  189.3480  173.6080  136.0910 C   0  0  0  0  0  2  0  0  0  0  0  0
  189.2130  172.1650  135.9990 N   0  0  0  0  0  1  0  0  0  0  0  0
  193.5160  173.6220  145.4150 C   0  0  0  0  0  2  0  0  0  0  0  0
  194.9550  174.6230  145.8910 S   0  0  0  0  0  0  0  0  0  0  0  0
  193.9560  176.1360  145.9560 C   0  0  0  0  0  2  0  0  0  0  0  0
  194.7900  177.3130  145.4900 C   0  0  0  0  0  1  0  0  0  0  0  0
  188.0870  177.7400  141.8240 C   0  0  0  0  0  2  0  0  0  0  0  0
  183.5070  178.1660  140.5120 N   0  0  0  0  0  0  0  0  0  0  0  0
  182.5170  178.6930  141.1540 C   0  0  0  0  0  0  0  0  0  0  0  0
  184.4790  177.9060  141.5100 C   0  0  0  0  0  0  0  0  0  0  0  0
  186.9560  177.3230  140.9370 C   0  0  0  0  0  3  0  0  0  0  0  0
  182.7770  178.8190  142.5930 C   0  0  0  0  0  3  0  0  0  0  0  0
  184.0000  178.3440  142.8130 C   0  0  0  0  0  3  0  0  0  0  0  0
  185.7150  177.5990  141.2360 C   0  0  0  0  0  0  0  0  0  0  0  0
  181.2480  179.0870  140.4850 C   0  0  0  0  0  2  0  0  0  0  0  0
  180.1630  178.0720  140.7990 C   0  0  0  0  0  2  0  0  0  0  0  0
  178.8310  178.6230  140.4080 C   0  0  0  0  0  0  0  0  0  0  0  0
  178.2690  178.1850  139.3690 O   0  0  0  0  0  0  0  0  0  0  0  0
  178.0570  179.4500  142.4810 O   0  0  0  0  0  0  0  0  0  0  0  0
  178.1910  179.6640  141.2480 C   0  0  0  0  0  0  0  0  0  0  0  0
  178.4740  181.8220  140.1960 C   0  0  0  0  0  3  0  0  0  0  0  0
  177.7140  180.9120  140.7230 N   0  0  0  0  0  0  0  0  0  0  0  0
  177.8830  183.0860  139.6720 C   0  0  0  0  0  2  0  0  0  0  0  0
  179.6970  184.4610  138.2760 C   0  0  0  0  0  3  0  0  0  0  0  0
  178.8780  183.8380  138.9060 C   0  0  0  0  0  0  0  0  0  0  0  0
  1 11  1  0  0  0  0
  1  6  1  0  0  0  0
  3  8  1  0  0  0  0
  3  9  1  0  0  0  0
  4  3  1  0  0  0  0
  4  8  1  0  0  0  0
  5 12  1  0  0  0  0
  6  5  1  0  0  0  0
  7  2  1  0  0  0  0
  8  7  1  0  0  0  0
  9 12  1  0  0  0  0
  9  2  1  0  0  0  0
 10  1  1  0  0  0  0
 10 11  1  0  0  0  0
 11  3  1  0  0  0  0
 13  6  1  0  0  0  0
 14 13  1  0  0  0  0
 15 17  2  0  0  0  0
 16 17  1  0  0  0  0
 16 14  1  0  0  0  0
 17 28  1  0  0  0  0
 18 19  2  0  0  0  0
 19 20  2  0  0  0  0
 20 16  1  0  0  0  0
 21 18  1  0  0  0  0
 22 21  1  0  0  0  0
 23 22  2  0  0  0  0
 24 22  1  0  0  0  0
 25 24  1  0  0  0  0
 26 25  1  0  0  0  0
 27 26  1  0  0  0  0
 28 29  1  0  0  0  0
 29 30  1  0  0  0  0
 31 30  1  0  0  0  0
 32 10  1  0  0  0  0
 33 34  2  0  0  0  0
 33 35  1  0  0  0  0
 34 37  1  0  0  0  0
 35 38  1  0  0  0  0
 36 39  2  0  0  0  0
 36 32  1  0  0  0  0
 37 38  2  0  0  0  0
 39 35  2  0  0  0  0
 40 41  1  0  0  0  0
 40 34  1  0  0  0  0
 42 41  1  0  0  0  0
 42 45  1  0  0  0  0
 43 42  2  0  0  0  0
 45 44  2  0  0  0  0
 46 47  2  0  0  0  0
 47 45  1  0  0  0  0
 48 46  1  0  0  0  0
 49 50  3  0  0  0  0
 50 48  1  0  0  0  0
M  END
>  <MODEL>
6

>  <REMARK>
 VINA RESULT:      -5.7      2.843     10.262
  Name = 
  21 active torsions:
  status: ('A' for Active; 'I' for Inactive)
    1  A    between atoms: C_2  and  C_22
    2  A    between atoms: C_2  and  C_40
    3  A    between atoms: C_5  and  C_9
    4  A    between atoms: C_5  and  C_19
    5  A    between atoms: N_7  and  C_14
    6  A    between atoms: N_7  and  C_35
    7  A    between atoms: C_9  and  C_26
    8  A    between atoms: C_10  and  C_44
    9  A    between atoms: O_11  and  C_33
   10  A    between atoms: O_11  and  C_38
   11  A    between atoms: C_12  and  S_29
   12  A    between atoms: C_13  and  C_26
   13  A    between atoms: C_14  and  C_42
   14  A    between atoms: C_18  and  C_27
   15  A    between atoms: C_19  and  N_39
   16  A    between atoms: C_24  and  C_42
   17  A    between atoms: C_25  and  C_33
   18  A    between atoms: C_27  and  S_29
   19  A    between atoms: C_31  and  C_36
   20  A    between atoms: C_36  and  C_43
   21  A    between atoms: C_38  and  C_44
                            x       y       z     vdW  Elec       q    Type
                         _______ _______ _______ _____ _____    ______ ____

>  <TORSDO>
F 21

$$$$
=
 OpenBabel11062420513D

 50 54  0  0  1  0  0  0  0  0999 V2000
  189.8190  176.7740  145.2480 C   0  0  1  0  0  3  0  0  0  0  0  0
  185.5730  177.4550  146.5710 C   0  0  0  0  0  2  0  0  0  0  0  0
  187.2660  177.2160  144.9230 C   0  0  1  0  0  0  0  0  0  0  0  0
  186.4420  177.2330  143.6460 C   0  0  0  0  0  2  0  0  0  0  0  0
  188.7210  175.2790  146.9840 C   0  0  0  0  0  2  0  0  0  0  0  0
  189.3430  175.3550  145.5870 C   0  0  2  0  0  3  0  0  0  0  0  0
  185.1480  178.1600  145.4370 O   0  0  0  0  0  0  0  0  0  0  0  0
  186.3020  178.3550  144.6570 C   0  0  1  0  0  3  0  0  0  0  0  0
  186.6820  176.5290  146.1410 C   0  0  1  0  0  3  0  0  0  0  0  0
  189.5040  177.0810  143.7970 C   0  0  1  0  0  3  0  0  0  0  0  0
  188.7030  177.7680  144.8940 C   0  0  2  0  0  3  0  0  0  0  0  0
  187.6930  176.3760  147.2740 C   0  0  0  0  0  2  0  0  0  0  0  0
  190.5240  174.4000  145.5420 C   0  0  0  0  0  2  0  0  0  0  0  0
  190.2020  173.1750  144.6980 C   0  0  0  0  0  2  0  0  0  0  0  0
  192.9150  172.9200  142.2550 O   0  0  0  0  0  0  0  0  0  0  0  0
  190.8940  173.2640  143.4180 N   0  0  0  0  0  0  0  0  0  0  0  0
  192.2050  172.6750  143.2680 C   0  0  0  0  0  0  0  0  0  0  0  0
  188.1390  173.2020  141.0810 C   0  0  0  0  0  3  0  0  0  0  0  0
  189.1830  173.6160  141.7410 C   0  0  0  0  0  0  0  0  0  0  0  0
  190.2300  174.0360  142.4030 C   0  0  0  0  0  3  0  0  0  0  0  0
  188.3000  172.5910  139.7330 C   0  0  0  0  0  2  0  0  0  0  0  0
  189.7090  172.7450  139.2800 C   0  0  0  0  0  0  0  0  0  0  0  0
  190.0050  173.6600  138.4630 O   0  0  0  0  0  0  0  0  0  0  0  0
  190.6800  171.8490  139.7360 O   0  0  0  0  0  0  0  0  0  0  0  0
  190.4980  170.4400  139.6900 C   0  0  0  0  0  2  0  0  0  0  0  0
  191.0990  169.8650  138.4190 C   0  0  0  0  0  2  0  0  0  0  0  0
  190.0600  169.6680  137.4240 N   0  0  0  0  0  1  0  0  0  0  0  0
  192.7530  171.7540  144.3080 C   0  0  0  0  0  2  0  0  0  0  0  0
  193.6860  170.4120  143.5140 S   0  0  0  0  0  0  0  0  0  0  0  0
  194.6130  170.0750  145.0380 C   0  0  0  0  0  2  0  0  0  0  0  0
  196.0200  169.6360  144.6860 C   0  0  0  0  0  1  0  0  0  0  0  0
  190.5760  178.0070  143.2260 C   0  0  0  0  0  2  0  0  0  0  0  0
  194.2900  175.2000  144.3250 N   0  0  0  0  0  0  0  0  0  0  0  0
  194.8010  174.9350  145.4810 C   0  0  0  0  0  0  0  0  0  0  0  0
  193.5470  176.3890  144.5310 C   0  0  0  0  0  0  0  0  0  0  0  0
  191.8080  177.2740  142.7980 C   0  0  0  0  0  3  0  0  0  0  0  0
  194.4230  175.9130  146.5070 C   0  0  0  0  0  3  0  0  0  0  0  0
  193.6330  176.8080  145.9220 C   0  0  0  0  0  3  0  0  0  0  0  0
  192.6870  176.8490  143.6660 C   0  0  0  0  0  0  0  0  0  0  0  0
  195.7020  173.7720  145.7100 C   0  0  0  0  0  2  0  0  0  0  0  0
  197.1260  174.1420  145.3340 C   0  0  0  0  0  2  0  0  0  0  0  0
  197.3310  173.9220  143.8700 C   0  0  0  0  0  0  0  0  0  0  0  0
  197.2900  172.7480  143.4170 O   0  0  0  0  0  0  0  0  0  0  0  0
  197.4480  176.2440  143.4510 O   0  0  0  0  0  0  0  0  0  0  0  0
  197.5720  175.0840  142.9800 C   0  0  0  0  0  0  0  0  0  0  0  0
  197.3070  175.5080  140.6150 C   0  0  0  0  0  3  0  0  0  0  0  0
  197.9410  174.9510  141.5990 N   0  0  0  0  0  0  0  0  0  0  0  0
  197.7730  175.3150  139.2130 C   0  0  0  0  0  2  0  0  0  0  0  0
  197.9410  172.7140  138.6320 C   0  0  0  0  0  3  0  0  0  0  0  0
  197.8630  173.8880  138.8950 C   0  0  0  0  0  0  0  0  0  0  0  0
  1  6  1  0  0  0  0
  3  9  1  0  0  0  0
  4  8  1  0  0  0  0
  4  3  1  0  0  0  0
  5 12  1  0  0  0  0
  6  5  1  0  0  0  0
  7  2  1  0  0  0  0
  8  3  1  0  0  0  0
  8  7  1  0  0  0  0
  9  2  1  0  0  0  0
  9 12  1  0  0  0  0
 10 11  1  0  0  0  0
 10  1  1  0  0  0  0
 11  3  1  0  0  0  0
 11  1  1  0  0  0  0
 13  6  1  0  0  0  0
 14 13  1  0  0  0  0
 15 17  2  0  0  0  0
 16 14  1  0  0  0  0
 17 16  1  0  0  0  0
 17 28  1  0  0  0  0
 18 19  2  0  0  0  0
 19 20  2  0  0  0  0
 20 16  1  0  0  0  0
 21 18  1  0  0  0  0
 22 21  1  0  0  0  0
 22 24  1  0  0  0  0
 23 22  2  0  0  0  0
 25 24  1  0  0  0  0
 26 25  1  0  0  0  0
 27 26  1  0  0  0  0
 29 28  1  0  0  0  0
 29 30  1  0  0  0  0
 31 30  1  0  0  0  0
 32 10  1  0  0  0  0
 33 35  1  0  0  0  0
 33 34  2  0  0  0  0
 34 40  1  0  0  0  0
 34 37  1  0  0  0  0
 35 38  1  0  0  0  0
 36 32  1  0  0  0  0
 36 39  2  0  0  0  0
 38 37  2  0  0  0  0
 39 35  2  0  0  0  0
 41 40  1  0  0  0  0
 42 41  1  0  0  0  0
 43 42  2  0  0  0  0
 45 44  2  0  0  0  0
 45 42  1  0  0  0  0
 46 47  2  0  0  0  0
 47 45  1  0  0  0  0
 48 46  1  0  0  0  0
 49 50  3  0  0  0  0
 50 48  1  0  0  0  0
M  END
>  <MODEL>
7

>  <REMARK>
 VINA RESULT:      -5.6      3.234      5.899
  Name = 
  21 active torsions:
  status: ('A' for Active; 'I' for Inactive)
    1  A    between atoms: C_2  and  C_22
    2  A    between atoms: C_2  and  C_40
    3  A    between atoms: C_5  and  C_9
    4  A    between atoms: C_5  and  C_19
    5  A    between atoms: N_7  and  C_14
    6  A    between atoms: N_7  and  C_35
    7  A    between atoms: C_9  and  C_26
    8  A    between atoms: C_10  and  C_44
    9  A    between atoms: O_11  and  C_33
   10  A    between atoms: O_11  and  C_38
   11  A    between atoms: C_12  and  S_29
   12  A    between atoms: C_13  and  C_26
   13  A    between atoms: C_14  and  C_42
   14  A    between atoms: C_18  and  C_27
   15  A    between atoms: C_19  and  N_39
   16  A    between atoms: C_24  and  C_42
   17  A    between atoms: C_25  and  C_33
   18  A    between atoms: C_27  and  S_29
   19  A    between atoms: C_31  and  C_36
   20  A    between atoms: C_36  and  C_43
   21  A    between atoms: C_38  and  C_44
                            x       y       z     vdW  Elec       q    Type
                         _______ _______ _______ _____ _____    ______ ____

>  <TORSDO>
F 21

$$$$
=
 OpenBabel11062420513D

 50 54  0  0  1  0  0  0  0  0999 V2000
  189.0830  177.6450  143.9260 C   0  0  1  0  0  3  0  0  0  0  0  0
  186.7760  178.0200  147.7710 C   0  0  0  0  0  2  0  0  0  0  0  0
  186.9990  177.4200  145.4840 C   0  0  1  0  0  0  0  0  0  0  0  0
  185.6680  176.7340  145.2250 C   0  0  0  0  0  2  0  0  0  0  0  0
  190.0620  176.8600  146.1360 C   0  0  0  0  0  2  0  0  0  0  0  0
  189.5910  176.4460  144.7390 C   0  0  2  0  0  3  0  0  0  0  0  0
  185.4970  178.0780  147.2020 O   0  0  0  0  0  0  0  0  0  0  0  0
  185.7020  178.1320  145.8110 C   0  0  1  0  0  3  0  0  0  0  0  0
  187.6530  177.2240  146.8380 C   0  0  1  0  0  3  0  0  0  0  0  0
  187.8580  177.2360  143.1340 C   0  0  1  0  0  3  0  0  0  0  0  0
  187.6950  178.1630  144.3290 C   0  0  2  0  0  3  0  0  0  0  0  0
  189.0790  177.7620  146.8880 C   0  0  0  0  0  2  0  0  0  0  0  0
  190.7630  175.8030  144.0160 C   0  0  0  0  0  2  0  0  0  0  0  0
  192.0820  176.1750  144.6780 C   0  0  0  0  0  2  0  0  0  0  0  0
  195.0670  174.0860  144.3420 O   0  0  0  0  0  0  0  0  0  0  0  0
  192.9360  174.9970  144.7700 N   0  0  0  0  0  0  0  0  0  0  0  0
  194.3490  175.1120  144.4850 C   0  0  0  0  0  0  0  0  0  0  0  0
  192.8080  171.5050  143.8550 C   0  0  0  0  0  3  0  0  0  0  0  0
  192.5370  172.6300  144.4520 C   0  0  0  0  0  0  0  0  0  0  0  0
  192.2640  173.7590  145.0540 C   0  0  0  0  0  3  0  0  0  0  0  0
  191.9820  171.0510  142.7020 C   0  0  0  0  0  2  0  0  0  0  0  0
  192.2690  171.9030  141.5160 C   0  0  0  0  0  0  0  0  0  0  0  0
  193.4630  172.1880  141.2270 O   0  0  0  0  0  0  0  0  0  0  0  0
  191.2080  172.4080  140.7600 O   0  0  0  0  0  0  0  0  0  0  0  0
  190.3090  173.3850  141.2670 C   0  0  0  0  0  2  0  0  0  0  0  0
  189.3080  173.7940  140.2010 C   0  0  0  0  0  2  0  0  0  0  0  0
  188.1920  172.8650  140.1840 N   0  0  0  0  0  1  0  0  0  0  0  0
  194.9970  176.4510  144.3590 C   0  0  0  0  0  2  0  0  0  0  0  0
  196.4370  176.3390  143.2570 S   0  0  0  0  0  0  0  0  0  0  0  0
  195.3900  176.4550  141.7800 C   0  0  0  0  0  2  0  0  0  0  0  0
  196.0450  175.7050  140.6360 C   0  0  0  0  0  1  0  0  0  0  0  0
  187.8180  178.0110  141.8180 C   0  0  0  0  0  2  0  0  0  0  0  0
  183.2350  178.1390  140.4530 N   0  0  0  0  0  0  0  0  0  0  0  0
  182.2010  178.5680  141.0980 C   0  0  0  0  0  0  0  0  0  0  0  0
  184.2120  177.9190  141.4570 C   0  0  0  0  0  0  0  0  0  0  0  0
  186.7330  177.5410  140.9010 C   0  0  0  0  0  3  0  0  0  0  0  0
  182.4330  178.6640  142.5440 C   0  0  0  0  0  3  0  0  0  0  0  0
  183.6850  178.2750  142.7660 C   0  0  0  0  0  3  0  0  0  0  0  0
  185.4710  177.7140  141.1910 C   0  0  0  0  0  0  0  0  0  0  0  0
  180.9140  178.8900  140.4230 C   0  0  0  0  0  2  0  0  0  0  0  0
  180.1260  179.8800  141.2630 C   0  0  0  0  0  2  0  0  0  0  0  0
  178.7160  179.9430  140.7740 C   0  0  0  0  0  0  0  0  0  0  0  0
  177.7770  179.7570  141.5920 O   0  0  0  0  0  0  0  0  0  0  0  0
  178.1030  179.2800  138.5910 O   0  0  0  0  0  0  0  0  0  0  0  0
  178.4460  180.2280  139.3440 C   0  0  0  0  0  0  0  0  0  0  0  0
  179.1240  182.5480  139.3570 C   0  0  0  0  0  3  0  0  0  0  0  0
  178.5560  181.5400  138.7720 N   0  0  0  0  0  0  0  0  0  0  0  0
  179.1940  183.8730  138.6760 C   0  0  0  0  0  2  0  0  0  0  0  0
  181.1790  183.9080  136.8910 C   0  0  0  0  0  3  0  0  0  0  0  0
  180.2820  183.8900  137.6970 C   0  0  0  0  0  0  0  0  0  0  0  0
  1 11  1  0  0  0  0
  1  6  1  0  0  0  0
  3  8  1  0  0  0  0
  3  9  1  0  0  0  0
  4  3  1  0  0  0  0
  4  8  1  0  0  0  0
  5 12  1  0  0  0  0
  6  5  1  0  0  0  0
  7  2  1  0  0  0  0
  8  7  1  0  0  0  0
  9 12  1  0  0  0  0
  9  2  1  0  0  0  0
 10  1  1  0  0  0  0
 10 11  1  0  0  0  0
 11  3  1  0  0  0  0
 13 14  1  0  0  0  0
 13  6  1  0  0  0  0
 14 16  1  0  0  0  0
 15 17  2  0  0  0  0
 16 20  1  0  0  0  0
 17 16  1  0  0  0  0
 18 19  2  0  0  0  0
 19 20  2  0  0  0  0
 21 18  1  0  0  0  0
 22 21  1  0  0  0  0
 23 22  2  0  0  0  0
 24 25  1  0  0  0  0
 24 22  1  0  0  0  0
 26 25  1  0  0  0  0
 27 26  1  0  0  0  0
 28 17  1  0  0  0  0
 29 28  1  0  0  0  0
 30 29  1  0  0  0  0
 31 30  1  0  0  0  0
 32 10  1  0  0  0  0
 33 34  2  0  0  0  0
 33 35  1  0  0  0  0
 34 37  1  0  0  0  0
 35 38  1  0  0  0  0
 36 39  2  0  0  0  0
 36 32  1  0  0  0  0
 37 38  2  0  0  0  0
 39 35  2  0  0  0  0
 40 34  1  0  0  0  0
 40 41  1  0  0  0  0
 42 41  1  0  0  0  0
 42 43  2  0  0  0  0
 44 45  2  0  0  0  0
 45 42  1  0  0  0  0
 47 45  1  0  0  0  0
 47 46  2  0  0  0  0
 48 46  1  0  0  0  0
 49 50  3  0  0  0  0
 50 48  1  0  0  0  0
M  END
>  <MODEL>
8

>  <REMARK>
 VINA RESULT:      -5.6      2.854     10.647
  Name = 
  21 active torsions:
  status: ('A' for Active; 'I' for Inactive)
    1  A    between atoms: C_2  and  C_22
    2  A    between atoms: C_2  and  C_40
    3  A    between atoms: C_5  and  C_9
    4  A    between atoms: C_5  and  C_19
    5  A    between atoms: N_7  and  C_14
    6  A    between atoms: N_7  and  C_35
    7  A    between atoms: C_9  and  C_26
    8  A    between atoms: C_10  and  C_44
    9  A    between atoms: O_11  and  C_33
   10  A    between atoms: O_11  and  C_38
   11  A    between atoms: C_12  and  S_29
   12  A    between atoms: C_13  and  C_26
   13  A    between atoms: C_14  and  C_42
   14  A    between atoms: C_18  and  C_27
   15  A    between atoms: C_19  and  N_39
   16  A    between atoms: C_24  and  C_42
   17  A    between atoms: C_25  and  C_33
   18  A    between atoms: C_27  and  S_29
   19  A    between atoms: C_31  and  C_36
   20  A    between atoms: C_36  and  C_43
   21  A    between atoms: C_38  and  C_44
                            x       y       z     vdW  Elec       q    Type
                         _______ _______ _______ _____ _____    ______ ____

>  <TORSDO>
F 21

$$$$
=
 OpenBabel11062420513D

 50 54  0  0  1  0  0  0  0  0999 V2000
  193.2100  175.7070  142.4180 C   0  0  1  0  0  3  0  0  0  0  0  0
  197.6400  174.9400  142.5900 C   0  0  0  0  0  2  0  0  0  0  0  0
  195.4280  174.7830  143.4400 C   0  0  1  0  0  0  0  0  0  0  0  0
  195.6350  173.8740  144.6410 C   0  0  0  0  0  2  0  0  0  0  0  0
  194.4730  174.8070  140.4060 C   0  0  0  0  0  2  0  0  0  0  0  0
  193.3840  174.5330  141.4460 C   0  0  2  0  0  3  0  0  0  0  0  0
  197.7410  174.8090  143.9820 O   0  0  0  0  0  0  0  0  0  0  0  0
  196.4670  175.1320  144.4860 C   0  0  1  0  0  3  0  0  0  0  0  0
  196.2480  174.5170  142.1940 C   0  0  1  0  0  3  0  0  0  0  0  0
  192.9790  175.1760  143.8190 C   0  0  1  0  0  3  0  0  0  0  0  0
  194.3070  175.8380  143.4840 C   0  0  2  0  0  3  0  0  0  0  0  0
  195.7830  175.3380  140.9950 C   0  0  0  0  0  2  0  0  0  0  0  0
  192.0770  174.2870  140.7090 C   0  0  0  0  0  2  0  0  0  0  0  0
  192.2580  173.2470  139.6130 C   0  0  0  0  0  2  0  0  0  0  0  0
  188.9410  171.8240  139.0110 O   0  0  0  0  0  0  0  0  0  0  0  0
  191.1590  172.2900  139.6560 N   0  0  0  0  0  0  0  0  0  0  0  0
  189.9880  172.5040  138.8370 C   0  0  0  0  0  0  0  0  0  0  0  0
  191.2370  171.5820  143.1980 C   0  0  0  0  0  3  0  0  0  0  0  0
  191.2680  171.4050  141.9070 C   0  0  0  0  0  0  0  0  0  0  0  0
  191.2970  171.2250  140.6120 C   0  0  0  0  0  3  0  0  0  0  0  0
  192.5070  171.6960  143.9670 C   0  0  0  0  0  2  0  0  0  0  0  0
  193.2320  170.3970  143.9300 C   0  0  0  0  0  0  0  0  0  0  0  0
  192.6840  169.3630  144.4000 O   0  0  0  0  0  0  0  0  0  0  0  0
  194.5280  170.3480  143.4090 O   0  0  0  0  0  0  0  0  0  0  0  0
  194.8980  171.0350  142.2210 C   0  0  0  0  0  2  0  0  0  0  0  0
  195.4280  170.0630  141.1840 C   0  0  0  0  0  2  0  0  0  0  0  0
  194.3360  169.2810  140.6310 N   0  0  0  0  0  1  0  0  0  0  0  0
  189.9890  173.5350  137.7560 C   0  0  0  0  0  2  0  0  0  0  0  0
  190.6520  172.8210  136.2230 S   0  0  0  0  0  0  0  0  0  0  0  0
  189.4890  173.7740  135.2060 C   0  0  0  0  0  2  0  0  0  0  0  0
  188.8630  174.8690  136.0470 C   0  0  0  0  0  1  0  0  0  0  0  0
  192.0590  176.1270  144.5810 C   0  0  0  0  0  2  0  0  0  0  0  0
  188.1270  178.0770  142.6780 N   0  0  0  0  0  0  0  0  0  0  0  0
  186.9360  177.5880  142.5830 C   0  0  0  0  0  0  0  0  0  0  0  0
  188.9570  176.9480  142.8930 C   0  0  0  0  0  0  0  0  0  0  0  0
  191.4300  177.1580  143.6980 C   0  0  0  0  0  3  0  0  0  0  0  0
  186.9060  176.1290  142.7380 C   0  0  0  0  0  3  0  0  0  0  0  0
  188.1580  175.7320  142.9450 C   0  0  0  0  0  3  0  0  0  0  0  0
  190.1980  177.0410  143.2810 C   0  0  0  0  0  0  0  0  0  0  0  0
  185.7420  178.4350  142.3100 C   0  0  0  0  0  2  0  0  0  0  0  0
  185.5550  179.4380  143.4360 C   0  0  0  0  0  2  0  0  0  0  0  0
  184.5850  178.8960  144.4350 C   0  0  0  0  0  0  0  0  0  0  0  0
  183.3570  178.8940  144.1550 O   0  0  0  0  0  0  0  0  0  0  0  0
  184.2450  178.0350  146.6080 O   0  0  0  0  0  0  0  0  0  0  0  0
  185.0810  178.3660  145.7280 C   0  0  0  0  0  0  0  0  0  0  0  0
  187.0290  177.0870  146.3690 C   0  0  0  0  0  3  0  0  0  0  0  0
  186.4760  178.2090  146.0280 N   0  0  0  0  0  0  0  0  0  0  0  0
  188.4910  177.0240  146.6560 C   0  0  0  0  0  2  0  0  0  0  0  0
  189.3470  174.4970  146.5790 C   0  0  0  0  0  3  0  0  0  0  0  0
  188.9620  175.6390  146.6130 C   0  0  0  0  0  0  0  0  0  0  0  0
  1 11  1  0  0  0  0
  1 10  1  0  0  0  0
  2  7  1  0  0  0  0
  3 11  1  0  0  0  0
  3  8  1  0  0  0  0
  3  4  1  0  0  0  0
  5 12  1  0  0  0  0
  5  6  1  0  0  0  0
  6  1  1  0  0  0  0
  7  8  1  0  0  0  0
  8  4  1  0  0  0  0
  9  2  1  0  0  0  0
  9  3  1  0  0  0  0
 10 32  1  0  0  0  0
 11 10  1  0  0  0  0
 12  9  1  0  0  0  0
 13  6  1  0  0  0  0
 14 16  1  0  0  0  0
 14 13  1  0  0  0  0
 16 20  1  0  0  0  0
 17 15  2  0  0  0  0
 17 16  1  0  0  0  0
 18 21  1  0  0  0  0
 19 18  2  0  0  0  0
 20 19  2  0  0  0  0
 22 21  1  0  0  0  0
 22 23  2  0  0  0  0
 24 22  1  0  0  0  0
 25 24  1  0  0  0  0
 26 25  1  0  0  0  0
 27 26  1  0  0  0  0
 28 17  1  0  0  0  0
 29 28  1  0  0  0  0
 30 31  1  0  0  0  0
 30 29  1  0  0  0  0
 33 35  1  0  0  0  0
 34 33  2  0  0  0  0
 34 37  1  0  0  0  0
 35 38  1  0  0  0  0
 35 39  2  0  0  0  0
 36 32  1  0  0  0  0
 37 38  2  0  0  0  0
 39 36  2  0  0  0  0
 40 34  1  0  0  0  0
 40 41  1  0  0  0  0
 41 42  1  0  0  0  0
 42 45  1  0  0  0  0
 43 42  2  0  0  0  0
 45 47  1  0  0  0  0
 45 44  2  0  0  0  0
 46 48  1  0  0  0  0
 47 46  2  0  0  0  0
 49 50  3  0  0  0  0
 50 48  1  0  0  0  0
M  END
>  <MODEL>
9

>  <REMARK>
 VINA RESULT:      -5.6      2.999      9.667
  Name = 
  21 active torsions:
  status: ('A' for Active; 'I' for Inactive)
    1  A    between atoms: C_2  and  C_22
    2  A    between atoms: C_2  and  C_40
    3  A    between atoms: C_5  and  C_9
    4  A    between atoms: C_5  and  C_19
    5  A    between atoms: N_7  and  C_14
    6  A    between atoms: N_7  and  C_35
    7  A    between atoms: C_9  and  C_26
    8  A    between atoms: C_10  and  C_44
    9  A    between atoms: O_11  and  C_33
   10  A    between atoms: O_11  and  C_38
   11  A    between atoms: C_12  and  S_29
   12  A    between atoms: C_13  and  C_26
   13  A    between atoms: C_14  and  C_42
   14  A    between atoms: C_18  and  C_27
   15  A    between atoms: C_19  and  N_39
   16  A    between atoms: C_24  and  C_42
   17  A    between atoms: C_25  and  C_33
   18  A    between atoms: C_27  and  S_29
   19  A    between atoms: C_31  and  C_36
   20  A    between atoms: C_36  and  C_43
   21  A    between atoms: C_38  and  C_44
                            x       y       z     vdW  Elec       q    Type
                         _______ _______ _______ _____ _____    ______ ____

>  <TORSDO>
F 21

$$$$
