=
 OpenBabel11072409173D

 39 43  0  0  1  0  0  0  0  0999 V2000
  194.3890  175.7360  146.2200 C   0  0  1  0  0  3  0  0  0  0  0  0
  194.3940  175.3960  144.7420 C   0  0  2  0  0  0  0  0  0  0  0  0
  193.1770  174.4570  144.4140 C   0  0  1  0  0  0  0  0  0  0  0  0
  194.6090  173.9660  144.3080 C   0  0  2  0  0  0  0  0  0  0  0  0
  194.2790  177.1200  146.4410 O   0  0  0  0  0  0  0  0  0  0  0  0
  193.1110  176.4710  146.0090 C   0  0  1  0  0  0  0  0  0  0  0  0
  195.0970  173.1440  145.3380 O   0  0  0  0  0  1  0  0  0  0  0  0
  192.5790  173.8140  145.5100 O   0  0  0  0  0  1  0  0  0  0  0  0
  193.0210  175.9710  144.5580 C   0  0  1  0  0  3  0  0  0  0  0  0
  196.9270  176.2250  140.6600 O   0  0  0  0  0  1  0  0  0  0  0  0
  194.3690  175.3890  139.4160 O   0  0  0  0  0  0  0  0  0  0  0  0
  195.6380  173.0710  139.4610 O   0  0  0  0  0  1  0  0  0  0  0  0
  194.2870  173.7410  141.7880 C   0  0  1  0  0  3  0  0  0  0  0  0
  196.6260  174.9680  141.1880 C   0  0  2  0  0  3  0  0  0  0  0  0
  195.2780  173.8850  142.9320 C   0  0  1  0  0  3  0  0  0  0  0  0
  195.2220  174.2460  140.3200 P   0  0  2  0  0  0  0  0  0  0  0  0
  196.1640  175.0970  142.6270 C   0  0  0  0  0  2  0  0  0  0  0  0
  193.7000  172.0180  141.6550 S   0  0  0  0  0  0  0  0  0  0  0  0
  191.9920  172.5090  141.2550 C   0  0  0  0  0  2  0  0  0  0  0  0
  190.2300  174.5770  141.9450 C   0  0  0  0  0  1  0  0  0  0  0  0
  190.2030  173.2380  142.6770 C   0  0  1  0  0  0  0  0  0  0  0  0
  191.1140  172.1770  142.3700 N   0  0  0  0  0  0  0  0  0  0  0  0
  189.6450  173.1670  143.9540 O   0  0  0  0  0  1  0  0  0  0  0  0
  189.7640  172.1650  141.8510 N   0  0  0  0  0  2  0  0  0  0  0  0
  192.1060  176.0910  147.0120 N   0  0  0  0  0  2  0  0  0  0  0  0
  189.9470  175.6970  147.7750 O   0  0  0  0  0  0  0  0  0  0  0  0
  190.6880  176.3330  146.9820 C   0  0  0  0  0  0  0  0  0  0  0  0
  190.0740  177.3580  146.0720 C   0  0  0  0  0  2  0  0  0  0  0  0
  189.3800  176.6950  144.8920 C   0  0  0  0  0  2  0  0  0  0  0  0
  187.8910  176.4980  145.1650 C   0  0  0  0  0  2  0  0  0  0  0  0
  185.8010  177.9760  146.2000 P   0  0  0  0  0  2  0  0  0  0  0  0
  184.5270  178.7540  145.1340 C   0  0  0  0  0  1  0  0  0  0  0  0
  186.8660  177.8680  147.5790 O   0  0  0  0  0  0  0  0  0  0  0  0
  184.9050  176.5620  146.4420 O   0  0  0  0  0  1  0  0  0  0  0  0
  186.1730  179.0250  147.6180 C   0  0  0  0  0  1  0  0  0  0  0  0
  187.1270  177.7950  144.9320 C   0  0  0  0  0  2  0  0  0  0  0  0
  185.1650  179.7990  144.2230 C   0  0  0  0  0  2  0  0  0  0  0  0
  185.9910  179.1480  143.1110 C   0  0  0  0  0  2  0  0  0  0  0  0
  186.5610  177.7870  143.5090 C   0  0  0  0  0  2  0  0  0  0  0  0
  1  5  1  6  0  0  0
  2  1  1  0  0  0  0
  3  9  1  0  0  0  0
  3  2  1  0  0  0  0
  3  8  1  0  0  0  0
  4  3  1  0  0  0  0
  4  2  1  0  0  0  0
  4  7  1  0  0  0  0
  6  1  1  0  0  0  0
  6  5  1  0  0  0  0
  6 25  1  0  0  0  0
  9  2  1  0  0  0  0
  9  6  1  0  0  0  0
 10 14  1  0  0  0  0
 11 16  2  0  0  0  0
 12 16  1  0  0  0  0
 13 15  1  0  0  0  0
 14 17  1  0  0  0  0
 15  4  1  0  0  0  0
 16 14  1  0  0  0  0
 16 13  1  0  0  0  0
 17 15  1  0  0  0  0
 18 13  1  0  0  0  0
 19 18  1  0  0  0  0
 19 22  1  0  0  0  0
 20 21  1  0  0  0  0
 21 23  1  0  0  0  0
 22 21  1  0  0  0  0
 24 22  1  0  0  0  0
 24 21  1  0  0  0  0
 27 25  1  0  0  0  0
 27 26  2  0  0  0  0
 28 27  1  0  0  0  0
 29 30  1  0  0  0  0
 29 28  1  0  0  0  0
 31 34  1  0  0  0  0
 31 33  1  0  0  0  0
 33 35  1  0  0  0  0
 36 30  1  0  0  0  0
 37 32  1  0  0  0  0
 38 39  1  0  0  0  0
 38 37  1  0  0  0  0
 39 36  1  0  0  0  0
M  END
>  <MODEL>
1

>  <REMARK>
 VINA RESULT:      -7.1      0.000      0.000
  Name = 
  9 active torsions:
  status: ('A' for Active; 'I' for Inactive)
    1  A    between atoms: C_3  and  C_22
    2  A    between atoms: C_3  and  C_34
    3  A    between atoms: N_4  and  C_28
    4  A    between atoms: C_15  and  C_25
    5  A    between atoms: C_17  and  C_32
    6  A    between atoms: C_21  and  S_27
    7  A    between atoms: C_23  and  S_27
    8  A    between atoms: C_23  and  N_31
    9  A    between atoms: C_25  and  C_34
                            x       y       z     vdW  Elec       q    Type
                         _______ _______ _______ _____ _____    ______ ____

>  <TORSDO>
F 9

$$$$
=
 OpenBabel11072409173D

 39 43  0  0  1  0  0  0  0  0999 V2000
  193.4620  175.2960  146.3630 C   0  0  1  0  0  3  0  0  0  0  0  0
  193.7810  175.1910  144.8840 C   0  0  2  0  0  0  0  0  0  0  0  0
  192.8590  174.1030  144.2230 C   0  0  1  0  0  0  0  0  0  0  0  0
  194.3600  173.9090  144.3370 C   0  0  2  0  0  0  0  0  0  0  0  0
  193.0280  176.5860  146.7170 O   0  0  0  0  0  0  0  0  0  0  0  0
  192.1100  175.8050  145.9970 C   0  0  1  0  0  0  0  0  0  0  0  0
  194.8340  173.0450  145.3400 O   0  0  0  0  0  1  0  0  0  0  0  0
  192.2380  173.2010  145.1020 O   0  0  0  0  0  1  0  0  0  0  0  0
  192.3670  175.5220  144.5090 C   0  0  1  0  0  3  0  0  0  0  0  0
  196.2650  177.0760  141.1550 O   0  0  0  0  0  1  0  0  0  0  0  0
  194.4910  175.4070  139.4640 O   0  0  0  0  0  0  0  0  0  0  0  0
  196.5170  173.7410  139.7900 O   0  0  0  0  0  1  0  0  0  0  0  0
  194.6130  173.7200  141.8060 C   0  0  1  0  0  3  0  0  0  0  0  0
  196.3750  175.7710  141.6380 C   0  0  2  0  0  3  0  0  0  0  0  0
  195.2470  174.1630  143.1140 C   0  0  1  0  0  3  0  0  0  0  0  0
  195.5350  174.6220  140.5330 P   0  0  2  0  0  0  0  0  0  0  0  0
  195.6440  175.6350  142.9620 C   0  0  0  0  0  2  0  0  0  0  0  0
  194.7620  171.9130  141.5960 S   0  0  0  0  0  0  0  0  0  0  0  0
  193.1950  171.7750  140.6750 C   0  0  0  0  0  2  0  0  0  0  0  0
  191.1060  173.6030  140.2840 C   0  0  0  0  0  1  0  0  0  0  0  0
  191.0250  172.5290  141.3660 C   0  0  1  0  0  0  0  0  0  0  0  0
  192.0920  171.6060  141.6110 N   0  0  0  0  0  0  0  0  0  0  0  0
  190.1580  172.7080  142.4440 O   0  0  0  0  0  1  0  0  0  0  0  0
  190.9380  171.2130  140.8330 N   0  0  0  0  0  2  0  0  0  0  0  0
  191.0560  175.0960  146.7390 N   0  0  0  0  0  2  0  0  0  0  0  0
  188.8800  174.7490  147.4750 O   0  0  0  0  0  0  0  0  0  0  0  0
  189.7480  175.5760  147.0950 C   0  0  0  0  0  0  0  0  0  0  0  0
  189.4030  177.0380  147.0780 C   0  0  0  0  0  2  0  0  0  0  0  0
  188.2440  177.3150  146.1330 C   0  0  0  0  0  2  0  0  0  0  0  0
  188.5970  176.9360  144.6970 C   0  0  0  0  0  2  0  0  0  0  0  0
  187.8250  177.1680  142.0560 P   0  0  0  0  0  2  0  0  0  0  0  0
  186.3950  178.1930  141.5400 C   0  0  0  0  0  1  0  0  0  0  0  0
  188.9050  175.7990  141.9830 O   0  0  0  0  0  0  0  0  0  0  0  0
  188.9510  178.4090  141.8250 O   0  0  0  0  0  1  0  0  0  0  0  0
  187.9450  175.6830  141.0420 C   0  0  0  0  0  1  0  0  0  0  0  0
  187.3510  176.9300  143.8220 C   0  0  0  0  0  2  0  0  0  0  0  0
  185.1050  177.6470  142.1450 C   0  0  0  0  0  2  0  0  0  0  0  0
  185.0250  177.9300  143.6470 C   0  0  0  0  0  2  0  0  0  0  0  0
  186.3980  178.0250  144.3110 C   0  0  0  0  0  2  0  0  0  0  0  0
  1  5  1  1  0  0  0
  2  1  1  0  0  0  0
  3  4  1  0  0  0  0
  3  9  1  0  0  0  0
  3  2  1  0  0  0  0
  3  8  1  0  0  0  0
  4  2  1  0  0  0  0
  4  7  1  0  0  0  0
  6  1  1  0  0  0  0
  6  5  1  0  0  0  0
  6 25  1  0  0  0  0
  9  2  1  0  0  0  0
  9  6  1  0  0  0  0
 10 14  1  0  0  0  0
 11 16  2  0  0  0  0
 12 16  1  0  0  0  0
 13 15  1  0  0  0  0
 14 17  1  0  0  0  0
 15  4  1  0  0  0  0
 16 14  1  0  0  0  0
 16 13  1  0  0  0  0
 17 15  1  0  0  0  0
 18 13  1  0  0  0  0
 19 18  1  0  0  0  0
 19 22  1  0  0  0  0
 20 21  1  0  0  0  0
 21 22  1  0  0  0  0
 21 23  1  0  0  0  0
 24 21  1  0  0  0  0
 24 22  1  0  0  0  0
 25 27  1  0  0  0  0
 27 26  2  0  0  0  0
 28 27  1  0  0  0  0
 29 28  1  0  0  0  0
 30 29  1  0  0  0  0
 32 37  1  0  0  0  0
 33 31  1  0  0  0  0
 34 31  1  0  0  0  0
 35 33  1  0  0  0  0
 36 39  1  0  0  0  0
 36 30  1  0  0  0  0
 37 38  1  0  0  0  0
 38 39  1  0  0  0  0
M  END
>  <MODEL>
2

>  <REMARK>
 VINA RESULT:      -6.8      1.766      2.445
  Name = 
  9 active torsions:
  status: ('A' for Active; 'I' for Inactive)
    1  A    between atoms: C_3  and  C_22
    2  A    between atoms: C_3  and  C_34
    3  A    between atoms: N_4  and  C_28
    4  A    between atoms: C_15  and  C_25
    5  A    between atoms: C_17  and  C_32
    6  A    between atoms: C_21  and  S_27
    7  A    between atoms: C_23  and  S_27
    8  A    between atoms: C_23  and  N_31
    9  A    between atoms: C_25  and  C_34
                            x       y       z     vdW  Elec       q    Type
                         _______ _______ _______ _____ _____    ______ ____

>  <TORSDO>
F 9

$$$$
=
 OpenBabel11072409173D

 39 43  0  0  1  0  0  0  0  0999 V2000
  192.8590  177.1650  144.6100 C   0  0  1  0  0  3  0  0  0  0  0  0
  193.6610  176.1960  143.7650 C   0  0  2  0  0  0  0  0  0  0  0  0
  194.3360  175.1210  144.6920 C   0  0  1  0  0  0  0  0  0  0  0  0
  195.1610  176.1350  143.9220 C   0  0  2  0  0  0  0  0  0  0  0  0
  191.4960  177.1630  144.2640 O   0  0  0  0  0  0  0  0  0  0  0  0
  191.9520  176.0400  144.9740 C   0  0  1  0  0  0  0  0  0  0  0  0
  195.6860  177.2280  144.6350 O   0  0  0  0  0  1  0  0  0  0  0  0
  194.4150  175.4440  146.0560 O   0  0  0  0  0  1  0  0  0  0  0  0
  192.8690  175.0270  144.2700 C   0  0  1  0  0  3  0  0  0  0  0  0
  194.8180  175.0590  139.1780 O   0  0  0  0  0  1  0  0  0  0  0  0
  195.6340  172.4820  140.3960 O   0  0  0  0  0  0  0  0  0  0  0  0
  197.9410  173.7690  140.4550 O   0  0  0  0  0  1  0  0  0  0  0  0
  196.2500  174.2460  142.5990 C   0  0  1  0  0  3  0  0  0  0  0  0
  195.7240  175.3730  140.1930 C   0  0  2  0  0  3  0  0  0  0  0  0
  195.8520  175.7130  142.6220 C   0  0  1  0  0  3  0  0  0  0  0  0
  196.4810  173.8720  140.8410 P   0  0  2  0  0  0  0  0  0  0  0  0
  194.9980  175.9810  141.3790 C   0  0  0  0  0  2  0  0  0  0  0  0
  197.7810  173.9760  143.5550 S   0  0  0  0  0  0  0  0  0  0  0  0
  197.3530  172.2560  143.9750 C   0  0  0  0  0  2  0  0  0  0  0  0
  194.9680  170.8460  143.5490 C   0  0  0  0  0  1  0  0  0  0  0  0
  195.2790  171.4850  144.9010 C   0  0  1  0  0  0  0  0  0  0  0  0
  196.4720  172.2400  145.1350 N   0  0  0  0  0  0  0  0  0  0  0  0
  194.2330  171.7710  145.7790 O   0  0  0  0  0  1  0  0  0  0  0  0
  196.3720  170.8640  145.5670 N   0  0  0  0  0  2  0  0  0  0  0  0
  191.7250  175.9860  146.4250 N   0  0  0  0  0  2  0  0  0  0  0  0
  190.7460  175.1670  148.3670 O   0  0  0  0  0  0  0  0  0  0  0  0
  190.6370  175.3620  147.1290 C   0  0  0  0  0  0  0  0  0  0  0  0
  189.3540  174.9870  146.4430 C   0  0  0  0  0  2  0  0  0  0  0  0
  188.2870  176.0470  146.6640 C   0  0  0  0  0  2  0  0  0  0  0  0
  188.3540  177.1320  145.5910 C   0  0  0  0  0  2  0  0  0  0  0  0
  187.5150  177.0360  142.9620 P   0  0  0  0  0  2  0  0  0  0  0  0
  186.1910  178.1270  142.3150 C   0  0  0  0  0  1  0  0  0  0  0  0
  188.4300  175.5550  143.0900 O   0  0  0  0  0  0  0  0  0  0  0  0
  188.7640  178.0840  142.5140 O   0  0  0  0  0  1  0  0  0  0  0  0
  187.4290  175.4060  142.1980 C   0  0  0  0  0  1  0  0  0  0  0  0
  187.0830  177.1350  144.7520 C   0  0  0  0  0  2  0  0  0  0  0  0
  184.8720  177.8380  143.0240 C   0  0  0  0  0  2  0  0  0  0  0  0
  184.8800  178.3600  144.4630 C   0  0  0  0  0  2  0  0  0  0  0  0
  186.2790  178.3980  145.0770 C   0  0  0  0  0  2  0  0  0  0  0  0
  1  5  1  6  0  0  0
  1  6  1  0  0  0  0
  2  4  1  0  0  0  0
  2  9  1  0  0  0  0
  2  1  1  0  0  0  0
  2  3  1  0  0  0  0
  3  8  1  0  0  0  0
  4  7  1  0  0  0  0
  4  3  1  0  0  0  0
  5  6  1  0  0  0  0
  6 25  1  0  0  0  0
  9  3  1  0  0  0  0
  9  6  1  0  0  0  0
 10 14  1  0  0  0  0
 11 16  2  0  0  0  0
 12 16  1  0  0  0  0
 13 15  1  0  0  0  0
 13 18  1  0  0  0  0
 14 16  1  0  0  0  0
 14 17  1  0  0  0  0
 15  4  1  0  0  0  0
 16 13  1  0  0  0  0
 17 15  1  0  0  0  0
 18 19  1  0  0  0  0
 19 22  1  0  0  0  0
 20 21  1  0  0  0  0
 21 22  1  0  0  0  0
 21 24  1  0  0  0  0
 21 23  1  0  0  0  0
 22 24  1  0  0  0  0
 25 27  1  0  0  0  0
 27 26  2  0  0  0  0
 28 29  1  0  0  0  0
 28 27  1  0  0  0  0
 30 29  1  0  0  0  0
 31 33  1  0  0  0  0
 32 37  1  0  0  0  0
 34 31  1  0  0  0  0
 35 33  1  0  0  0  0
 36 39  1  0  0  0  0
 36 30  1  0  0  0  0
 37 38  1  0  0  0  0
 38 39  1  0  0  0  0
M  END
>  <MODEL>
3

>  <REMARK>
 VINA RESULT:      -6.7      2.601      3.616
  Name = 
  9 active torsions:
  status: ('A' for Active; 'I' for Inactive)
    1  A    between atoms: C_3  and  C_22
    2  A    between atoms: C_3  and  C_34
    3  A    between atoms: N_4  and  C_28
    4  A    between atoms: C_15  and  C_25
    5  A    between atoms: C_17  and  C_32
    6  A    between atoms: C_21  and  S_27
    7  A    between atoms: C_23  and  S_27
    8  A    between atoms: C_23  and  N_31
    9  A    between atoms: C_25  and  C_34
                            x       y       z     vdW  Elec       q    Type
                         _______ _______ _______ _____ _____    ______ ____

>  <TORSDO>
F 9

$$$$
=
 OpenBabel11072409173D

 39 43  0  0  1  0  0  0  0  0999 V2000
  194.7210  176.2260  145.6780 C   0  0  1  0  0  3  0  0  0  0  0  0
  194.7270  175.6530  144.2740 C   0  0  2  0  0  0  0  0  0  0  0  0
  193.6060  174.5590  144.1480 C   0  0  1  0  0  0  0  0  0  0  0  0
  195.0790  174.2010  144.0640 C   0  0  2  0  0  0  0  0  0  0  0  0
  194.4730  177.6110  145.6800 O   0  0  0  0  0  0  0  0  0  0  0  0
  193.3690  176.7890  145.4030 C   0  0  1  0  0  0  0  0  0  0  0  0
  195.6720  173.6080  145.1930 O   0  0  0  0  0  1  0  0  0  0  0  0
  193.1030  174.0460  145.3540 O   0  0  0  0  0  1  0  0  0  0  0  0
  193.2980  176.0530  144.0550 C   0  0  1  0  0  3  0  0  0  0  0  0
  197.5390  175.9820  140.2490 O   0  0  0  0  0  1  0  0  0  0  0  0
  194.9020  175.2870  139.0850 O   0  0  0  0  0  0  0  0  0  0  0  0
  195.9650  172.8760  139.2880 O   0  0  0  0  0  1  0  0  0  0  0  0
  194.7070  173.8250  141.5690 C   0  0  1  0  0  3  0  0  0  0  0  0
  197.1360  174.7970  140.8680 C   0  0  2  0  0  3  0  0  0  0  0  0
  195.7200  173.9630  142.6940 C   0  0  1  0  0  3  0  0  0  0  0  0
  195.6630  174.1410  140.0630 P   0  0  2  0  0  0  0  0  0  0  0  0
  196.7040  175.0680  142.2970 C   0  0  0  0  0  2  0  0  0  0  0  0
  193.9700  172.1560  141.5650 S   0  0  0  0  0  0  0  0  0  0  0  0
  192.5300  172.6680  140.5730 C   0  0  0  0  0  2  0  0  0  0  0  0
  190.6310  174.2490  141.8970 C   0  0  0  0  0  1  0  0  0  0  0  0
  190.3850  172.7630  141.6430 C   0  0  1  0  0  0  0  0  0  0  0  0
  191.3520  171.9250  141.0010 N   0  0  0  0  0  0  0  0  0  0  0  0
  189.4610  172.0780  142.4320 O   0  0  0  0  0  1  0  0  0  0  0  0
  190.2280  172.4570  140.2630 N   0  0  0  0  0  2  0  0  0  0  0  0
  192.4310  176.4790  146.4930 N   0  0  0  0  0  2  0  0  0  0  0  0
  190.3330  176.0730  147.4040 O   0  0  0  0  0  0  0  0  0  0  0  0
  191.0030  176.6480  146.5070 C   0  0  0  0  0  0  0  0  0  0  0  0
  190.2950  177.5310  145.5200 C   0  0  0  0  0  2  0  0  0  0  0  0
  189.0660  176.8370  144.9520 C   0  0  0  0  0  2  0  0  0  0  0  0
  188.0540  177.8510  144.4220 C   0  0  0  0  0  2  0  0  0  0  0  0
  185.4280  178.6770  144.2030 P   0  0  0  0  0  2  0  0  0  0  0  0
  184.3890  179.0380  145.6700 C   0  0  0  0  0  1  0  0  0  0  0  0
  185.7460  178.0990  142.5870 O   0  0  0  0  0  0  0  0  0  0  0  0
  185.9360  180.2800  144.0190 O   0  0  0  0  0  1  0  0  0  0  0  0
  184.4460  177.9180  142.8960 C   0  0  0  0  0  1  0  0  0  0  0  0
  186.6790  177.6030  145.0280 C   0  0  0  0  0  2  0  0  0  0  0  0
  184.2000  177.7780  146.5090 C   0  0  0  0  0  2  0  0  0  0  0  0
  185.4830  177.4030  147.2560 C   0  0  0  0  0  2  0  0  0  0  0  0
  186.7500  177.8610  146.5360 C   0  0  0  0  0  2  0  0  0  0  0  0
  1  5  1  6  0  0  0
  2  1  1  0  0  0  0
  3  2  1  0  0  0  0
  3  8  1  0  0  0  0
  4  3  1  0  0  0  0
  4  2  1  0  0  0  0
  4  7  1  0  0  0  0
  6  1  1  0  0  0  0
  6  5  1  0  0  0  0
  6 25  1  0  0  0  0
  9  3  1  0  0  0  0
  9  2  1  0  0  0  0
  9  6  1  0  0  0  0
 10 14  1  0  0  0  0
 11 16  2  0  0  0  0
 12 16  1  0  0  0  0
 13 15  1  0  0  0  0
 14 17  1  0  0  0  0
 15  4  1  0  0  0  0
 16 14  1  0  0  0  0
 16 13  1  0  0  0  0
 17 15  1  0  0  0  0
 18 13  1  0  0  0  0
 19 22  1  0  0  0  0
 19 18  1  0  0  0  0
 21 20  1  0  0  0  0
 21 23  1  0  0  0  0
 22 21  1  0  0  0  0
 24 22  1  0  0  0  0
 24 21  1  0  0  0  0
 25 27  1  0  0  0  0
 27 26  2  0  0  0  0
 28 27  1  0  0  0  0
 29 28  1  0  0  0  0
 30 29  1  0  0  0  0
 30 36  1  0  0  0  0
 32 37  1  0  0  0  0
 33 35  1  0  0  0  0
 33 31  1  0  0  0  0
 34 31  1  0  0  0  0
 36 39  1  0  0  0  0
 37 38  1  0  0  0  0
 39 38  1  0  0  0  0
M  END
>  <MODEL>
4

>  <REMARK>
 VINA RESULT:      -6.7      1.398      1.900
  Name = 
  9 active torsions:
  status: ('A' for Active; 'I' for Inactive)
    1  A    between atoms: C_3  and  C_22
    2  A    between atoms: C_3  and  C_34
    3  A    between atoms: N_4  and  C_28
    4  A    between atoms: C_15  and  C_25
    5  A    between atoms: C_17  and  C_32
    6  A    between atoms: C_21  and  S_27
    7  A    between atoms: C_23  and  S_27
    8  A    between atoms: C_23  and  N_31
    9  A    between atoms: C_25  and  C_34
                            x       y       z     vdW  Elec       q    Type
                         _______ _______ _______ _____ _____    ______ ____

>  <TORSDO>
F 9

$$$$
=
 OpenBabel11072409173D

 39 43  0  0  1  0  0  0  0  0999 V2000
  189.1780  175.4850  142.3460 C   0  0  1  0  0  3  0  0  0  0  0  0
  187.8940  175.5890  143.1450 C   0  0  2  0  0  0  0  0  0  0  0  0
  186.7430  176.1340  142.2230 C   0  0  1  0  0  0  0  0  0  0  0  0
  187.2770  176.9440  143.3910 C   0  0  2  0  0  0  0  0  0  0  0  0
  189.6650  174.1670  142.3000 O   0  0  0  0  0  0  0  0  0  0  0  0
  188.5330  174.4310  141.5130 C   0  0  1  0  0  0  0  0  0  0  0  0
  188.1500  178.0080  143.1040 O   0  0  0  0  0  1  0  0  0  0  0  0
  187.1480  176.7660  141.0360 O   0  0  0  0  0  1  0  0  0  0  0  0
  187.1780  174.6680  142.2000 C   0  0  1  0  0  3  0  0  0  0  0  0
  183.8260  179.0390  146.1260 O   0  0  0  0  0  1  0  0  0  0  0  0
  186.3110  179.5710  147.6540 O   0  0  0  0  0  0  0  0  0  0  0  0
  185.9440  177.0210  148.2450 O   0  0  0  0  0  1  0  0  0  0  0  0
  187.2950  177.5170  145.8760 C   0  0  1  0  0  3  0  0  0  0  0  0
  184.6160  177.8950  146.0020 C   0  0  2  0  0  3  0  0  0  0  0  0
  186.4900  176.9800  144.7040 C   0  0  1  0  0  3  0  0  0  0  0  0
  186.0450  178.0000  147.0950 P   0  0  2  0  0  0  0  0  0  0  0  0
  185.2050  177.8080  144.6060 C   0  0  0  0  0  2  0  0  0  0  0  0
  188.4180  176.2360  146.5300 S   0  0  0  0  0  0  0  0  0  0  0  0
  189.9210  177.1140  145.9910 C   0  0  0  0  0  2  0  0  0  0  0  0
  191.5540  177.9670  143.8780 C   0  0  0  0  0  1  0  0  0  0  0  0
  191.7850  176.6230  144.5630 C   0  0  1  0  0  0  0  0  0  0  0  0
  190.9460  176.1460  145.6210 N   0  0  0  0  0  0  0  0  0  0  0  0
  192.4870  175.6230  143.8890 O   0  0  0  0  0  1  0  0  0  0  0  0
  192.2240  176.7570  145.9100 N   0  0  0  0  0  2  0  0  0  0  0  0
  188.7190  174.6960  140.0790 N   0  0  0  0  0  2  0  0  0  0  0  0
  188.4940  174.2350  137.8130 O   0  0  0  0  0  0  0  0  0  0  0  0
  188.5750  173.7770  138.9820 C   0  0  0  0  0  0  0  0  0  0  0  0
  188.5720  172.2890  139.1840 C   0  0  0  0  0  2  0  0  0  0  0  0
  189.3140  171.5850  138.0590 C   0  0  0  0  0  2  0  0  0  0  0  0
  190.5630  170.8760  138.5770 C   0  0  0  0  0  2  0  0  0  0  0  0
  192.4680  172.1490  140.1180 P   0  0  0  0  0  2  0  0  0  0  0  0
  193.0180  171.4900  141.7390 C   0  0  0  0  0  1  0  0  0  0  0  0
  192.0610  173.3970  138.9680 O   0  0  0  0  0  0  0  0  0  0  0  0
  193.7000  171.3780  139.2520 O   0  0  0  0  0  1  0  0  0  0  0  0
  192.4180  173.9500  140.1450 C   0  0  0  0  0  1  0  0  0  0  0  0
  190.8470  171.2760  140.0190 C   0  0  0  0  0  2  0  0  0  0  0  0
  191.8540  171.4670  142.7240 C   0  0  0  0  0  2  0  0  0  0  0  0
  190.8520  170.3610  142.3850 C   0  0  0  0  0  2  0  0  0  0  0  0
  190.8180  170.0210  140.8960 C   0  0  0  0  0  2  0  0  0  0  0  0
  1  5  1  1  0  0  0
  1  2  1  0  0  0  0
  2  4  1  0  0  0  0
  3  2  1  0  0  0  0
  3  4  1  0  0  0  0
  4 15  1  0  0  0  0
  6  9  1  0  0  0  0
  6  5  1  0  0  0  0
  6  1  1  0  0  0  0
  7  4  1  0  0  0  0
  8  3  1  0  0  0  0
  9  3  1  0  0  0  0
  9  2  1  0  0  0  0
 13 18  1  0  0  0  0
 13 16  1  0  0  0  0
 14 10  1  0  0  0  0
 14 16  1  0  0  0  0
 15 13  1  0  0  0  0
 16 11  2  0  0  0  0
 16 12  1  0  0  0  0
 17 15  1  0  0  0  0
 17 14  1  0  0  0  0
 19 18  1  0  0  0  0
 20 21  1  0  0  0  0
 21 22  1  0  0  0  0
 21 24  1  0  0  0  0
 22 24  1  0  0  0  0
 22 19  1  0  0  0  0
 23 21  1  0  0  0  0
 25  6  1  0  0  0  0
 26 27  2  0  0  0  0
 27 28  1  0  0  0  0
 27 25  1  0  0  0  0
 29 30  1  0  0  0  0
 29 28  1  0  0  0  0
 30 36  1  0  0  0  0
 32 37  1  0  0  0  0
 33 31  1  0  0  0  0
 33 35  1  0  0  0  0
 34 31  1  0  0  0  0
 36 39  1  0  0  0  0
 38 37  1  0  0  0  0
 39 38  1  0  0  0  0
M  END
>  <MODEL>
5

>  <REMARK>
 VINA RESULT:      -6.6      3.041      9.304
  Name = 
  9 active torsions:
  status: ('A' for Active; 'I' for Inactive)
    1  A    between atoms: C_3  and  C_22
    2  A    between atoms: C_3  and  C_34
    3  A    between atoms: N_4  and  C_28
    4  A    between atoms: C_15  and  C_25
    5  A    between atoms: C_17  and  C_32
    6  A    between atoms: C_21  and  S_27
    7  A    between atoms: C_23  and  S_27
    8  A    between atoms: C_23  and  N_31
    9  A    between atoms: C_25  and  C_34
                            x       y       z     vdW  Elec       q    Type
                         _______ _______ _______ _____ _____    ______ ____

>  <TORSDO>
F 9

$$$$
=
 OpenBabel11072409173D

 39 43  0  0  1  0  0  0  0  0999 V2000
  192.8840  176.5510  144.6040 C   0  0  1  0  0  3  0  0  0  0  0  0
  193.1390  175.0600  144.7050 C   0  0  2  0  0  0  0  0  0  0  0  0
  192.8020  174.5660  146.1590 C   0  0  1  0  0  0  0  0  0  0  0  0
  194.2220  174.5500  145.6240 C   0  0  2  0  0  0  0  0  0  0  0  0
  191.9150  176.8550  143.6310 O   0  0  0  0  0  0  0  0  0  0  0  0
  191.4340  176.2810  144.8200 C   0  0  1  0  0  0  0  0  0  0  0  0
  195.0970  175.5610  146.0590 O   0  0  0  0  0  1  0  0  0  0  0  0
  192.7230  175.5610  147.1470 O   0  0  0  0  0  1  0  0  0  0  0  0
  191.7170  174.7980  145.1070 C   0  0  1  0  0  3  0  0  0  0  0  0
  194.1910  169.6740  145.6490 O   0  0  0  0  0  1  0  0  0  0  0  0
  196.8020  170.3370  146.8880 O   0  0  0  0  0  1  0  0  0  0  0  0
  197.3590  170.8230  144.3500 O   0  0  0  0  0  0  0  0  0  0  0  0
  196.1730  172.9110  145.7370 C   0  0  1  0  0  3  0  0  0  0  0  0
  194.6800  170.7870  144.9630 C   0  0  2  0  0  3  0  0  0  0  0  0
  194.8220  173.2350  145.1190 C   0  0  1  0  0  3  0  0  0  0  0  0
  196.3770  171.1320  145.4600 P   0  0  2  0  0  0  0  0  0  0  0  0
  193.9040  172.0320  145.3560 C   0  0  0  0  0  2  0  0  0  0  0  0
  197.4980  173.8760  144.9360 S   0  0  0  0  0  0  0  0  0  0  0  0
  196.6190  173.9800  143.3430 C   0  0  0  0  0  2  0  0  0  0  0  0
  194.8230  174.8130  141.3580 C   0  0  0  0  0  1  0  0  0  0  0  0
  196.1130  175.5830  141.6320 C   0  0  1  0  0  0  0  0  0  0  0  0
  197.0640  175.1610  142.6150 N   0  0  0  0  0  0  0  0  0  0  0  0
  196.6370  176.4150  140.6420 O   0  0  0  0  0  1  0  0  0  0  0  0
  196.1190  176.2150  142.9070 N   0  0  0  0  0  2  0  0  0  0  0  0
  190.8760  177.1670  145.8520 N   0  0  0  0  0  2  0  0  0  0  0  0
  189.4870  177.6910  147.6390 O   0  0  0  0  0  0  0  0  0  0  0  0
  189.6650  176.9920  146.6090 C   0  0  0  0  0  0  0  0  0  0  0  0
  188.5860  176.0410  146.1770 C   0  0  0  0  0  2  0  0  0  0  0  0
  187.3040  176.7870  145.8380 C   0  0  0  0  0  2  0  0  0  0  0  0
  187.5450  177.8380  144.7570 C   0  0  0  0  0  2  0  0  0  0  0  0
  187.6210  177.2410  142.0620 P   0  0  0  0  0  2  0  0  0  0  0  0
  186.5670  178.1070  140.8360 C   0  0  0  0  0  1  0  0  0  0  0  0
  188.4660  175.8740  142.7450 O   0  0  0  0  0  0  0  0  0  0  0  0
  188.9310  178.2900  141.8550 O   0  0  0  0  0  1  0  0  0  0  0  0
  187.8160  175.5040  141.6220 C   0  0  0  0  0  1  0  0  0  0  0  0
  186.6220  177.6060  143.5690 C   0  0  0  0  0  2  0  0  0  0  0  0
  185.0920  177.8430  141.1240 C   0  0  0  0  0  2  0  0  0  0  0  0
  184.6180  178.5970  142.3690 C   0  0  0  0  0  2  0  0  0  0  0  0
  185.7360  178.8410  143.3820 C   0  0  0  0  0  2  0  0  0  0  0  0
  1  5  1  6  0  0  0
  1  2  1  0  0  0  0
  1  6  1  0  0  0  0
  2  9  1  0  0  0  0
  2  4  1  0  0  0  0
  2  3  1  0  0  0  0
  3  8  1  0  0  0  0
  4  7  1  0  0  0  0
  4  3  1  0  0  0  0
  5  6  1  0  0  0  0
  6  9  1  0  0  0  0
  6 25  1  0  0  0  0
  9  3  1  0  0  0  0
 12 16  2  0  0  0  0
 14 17  1  0  0  0  0
 14 16  1  0  0  0  0
 14 10  1  0  0  0  0
 15 17  1  0  0  0  0
 15  4  1  0  0  0  0
 15 13  1  0  0  0  0
 16 13  1  0  0  0  0
 16 11  1  0  0  0  0
 18 13  1  0  0  0  0
 19 18  1  0  0  0  0
 20 21  1  0  0  0  0
 21 22  1  0  0  0  0
 21 24  1  0  0  0  0
 22 24  1  0  0  0  0
 22 19  1  0  0  0  0
 23 21  1  0  0  0  0
 25 27  1  0  0  0  0
 27 26  2  0  0  0  0
 28 27  1  0  0  0  0
 29 28  1  0  0  0  0
 30 29  1  0  0  0  0
 31 33  1  0  0  0  0
 32 37  1  0  0  0  0
 34 31  1  0  0  0  0
 35 33  1  0  0  0  0
 36 30  1  0  0  0  0
 37 38  1  0  0  0  0
 38 39  1  0  0  0  0
 39 36  1  0  0  0  0
M  END
>  <MODEL>
6

>  <REMARK>
 VINA RESULT:      -6.5      2.943      4.694
  Name = 
  9 active torsions:
  status: ('A' for Active; 'I' for Inactive)
    1  A    between atoms: C_3  and  C_22
    2  A    between atoms: C_3  and  C_34
    3  A    between atoms: N_4  and  C_28
    4  A    between atoms: C_15  and  C_25
    5  A    between atoms: C_17  and  C_32
    6  A    between atoms: C_21  and  S_27
    7  A    between atoms: C_23  and  S_27
    8  A    between atoms: C_23  and  N_31
    9  A    between atoms: C_25  and  C_34
                            x       y       z     vdW  Elec       q    Type
                         _______ _______ _______ _____ _____    ______ ____

>  <TORSDO>
F 9

$$$$
=
 OpenBabel11072409173D

 39 43  0  0  1  0  0  0  0  0999 V2000
  193.1850  177.1650  144.6330 C   0  0  1  0  0  3  0  0  0  0  0  0
  193.9120  176.1760  143.7430 C   0  0  2  0  0  0  0  0  0  0  0  0
  194.6160  175.0870  144.6320 C   0  0  1  0  0  0  0  0  0  0  0  0
  195.4170  176.0800  143.8100 C   0  0  2  0  0  0  0  0  0  0  0  0
  191.8040  177.1940  144.3700 O   0  0  0  0  0  0  0  0  0  0  0  0
  192.2750  176.0620  145.0540 C   0  0  1  0  0  0  0  0  0  0  0  0
  196.0090  177.1610  144.4860 O   0  0  0  0  0  1  0  0  0  0  0  0
  194.7850  175.4100  145.9880 O   0  0  0  0  0  1  0  0  0  0  0  0
  193.1240  175.0270  144.3000 C   0  0  1  0  0  3  0  0  0  0  0  0
  194.7810  175.1050  139.0750 O   0  0  0  0  0  1  0  0  0  0  0  0
  195.4990  172.4640  140.2150 O   0  0  0  0  0  1  0  0  0  0  0  0
  197.8800  173.6120  140.1780 O   0  0  0  0  0  0  0  0  0  0  0  0
  196.3250  174.1520  142.4090 C   0  0  1  0  0  3  0  0  0  0  0  0
  195.7530  175.3480  140.0470 C   0  0  2  0  0  3  0  0  0  0  0  0
  196.0180  175.6390  142.4720 C   0  0  1  0  0  3  0  0  0  0  0  0
  196.4490  173.7950  140.6370 P   0  0  2  0  0  0  0  0  0  0  0  0
  195.1230  175.9780  141.2760 C   0  0  0  0  0  2  0  0  0  0  0  0
  197.8820  173.7770  143.2850 S   0  0  0  0  0  0  0  0  0  0  0  0
  197.4010  172.0560  143.6420 C   0  0  0  0  0  2  0  0  0  0  0  0
  196.2430  169.5440  144.1010 C   0  0  0  0  0  1  0  0  0  0  0  0
  195.9690  170.7230  145.0310 C   0  0  1  0  0  0  0  0  0  0  0  0
  196.5190  172.0250  144.8020 N   0  0  0  0  0  0  0  0  0  0  0  0
  194.8260  170.7130  145.8320 O   0  0  0  0  0  1  0  0  0  0  0  0
  197.1210  171.1280  145.7630 N   0  0  0  0  0  2  0  0  0  0  0  0
  192.1350  176.0160  146.5170 N   0  0  0  0  0  2  0  0  0  0  0  0
  191.1930  175.2910  148.5130 O   0  0  0  0  0  0  0  0  0  0  0  0
  191.0290  175.5140  147.2860 C   0  0  0  0  0  0  0  0  0  0  0  0
  189.6710  175.2990  146.6810 C   0  0  0  0  0  2  0  0  0  0  0  0
  188.9750  176.6250  146.4160 C   0  0  0  0  0  2  0  0  0  0  0  0
  187.6250  176.4160  145.7340 C   0  0  0  0  0  2  0  0  0  0  0  0
  185.6170  178.2230  146.3060 P   0  0  0  0  0  2  0  0  0  0  0  0
  184.5820  178.9850  144.9980 C   0  0  0  0  0  1  0  0  0  0  0  0
  186.4900  178.1830  147.8170 O   0  0  0  0  0  0  0  0  0  0  0  0
  184.5380  176.9510  146.5870 O   0  0  0  0  0  1  0  0  0  0  0  0
  185.9400  179.4010  147.6320 C   0  0  0  0  0  1  0  0  0  0  0  0
  187.0550  177.7440  145.2550 C   0  0  0  0  0  2  0  0  0  0  0  0
  185.4430  179.8330  144.0670 C   0  0  0  0  0  2  0  0  0  0  0  0
  186.3130  178.9620  143.1570 C   0  0  0  0  0  2  0  0  0  0  0  0
  186.6660  177.6120  143.7790 C   0  0  0  0  0  2  0  0  0  0  0  0
  1  5  1  6  0  0  0
  1  6  1  0  0  0  0
  2  4  1  0  0  0  0
  2  9  1  0  0  0  0
  2  3  1  0  0  0  0
  2  1  1  0  0  0  0
  3  8  1  0  0  0  0
  4  7  1  0  0  0  0
  4  3  1  0  0  0  0
  5  6  1  0  0  0  0
  6 25  1  0  0  0  0
  9  3  1  0  0  0  0
  9  6  1  0  0  0  0
 10 14  1  0  0  0  0
 11 16  1  0  0  0  0
 12 16  2  0  0  0  0
 13 15  1  0  0  0  0
 13 18  1  0  0  0  0
 14 16  1  0  0  0  0
 14 17  1  0  0  0  0
 15  4  1  0  0  0  0
 16 13  1  0  0  0  0
 17 15  1  0  0  0  0
 18 19  1  0  0  0  0
 19 22  1  0  0  0  0
 20 21  1  0  0  0  0
 21 24  1  0  0  0  0
 21 23  1  0  0  0  0
 22 21  1  0  0  0  0
 22 24  1  0  0  0  0
 25 27  1  0  0  0  0
 27 26  2  0  0  0  0
 28 27  1  0  0  0  0
 29 28  1  0  0  0  0
 30 29  1  0  0  0  0
 31 34  1  0  0  0  0
 31 33  1  0  0  0  0
 35 33  1  0  0  0  0
 36 30  1  0  0  0  0
 37 32  1  0  0  0  0
 38 39  1  0  0  0  0
 38 37  1  0  0  0  0
 39 36  1  0  0  0  0
M  END
>  <MODEL>
7

>  <REMARK>
 VINA RESULT:      -6.5      2.366      3.279
  Name = 
  9 active torsions:
  status: ('A' for Active; 'I' for Inactive)
    1  A    between atoms: C_3  and  C_22
    2  A    between atoms: C_3  and  C_34
    3  A    between atoms: N_4  and  C_28
    4  A    between atoms: C_15  and  C_25
    5  A    between atoms: C_17  and  C_32
    6  A    between atoms: C_21  and  S_27
    7  A    between atoms: C_23  and  S_27
    8  A    between atoms: C_23  and  N_31
    9  A    between atoms: C_25  and  C_34
                            x       y       z     vdW  Elec       q    Type
                         _______ _______ _______ _____ _____    ______ ____

>  <TORSDO>
F 9

$$$$
=
 OpenBabel11072409173D

 39 43  0  0  1  0  0  0  0  0999 V2000
  189.1990  175.4740  142.3000 C   0  0  1  0  0  3  0  0  0  0  0  0
  187.9240  175.5480  143.1160 C   0  0  2  0  0  0  0  0  0  0  0  0
  186.7550  176.0920  142.2160 C   0  0  1  0  0  0  0  0  0  0  0  0
  187.2920  176.8910  143.3890 C   0  0  2  0  0  0  0  0  0  0  0  0
  189.7040  174.1630  142.2300 O   0  0  0  0  0  0  0  0  0  0  0  0
  188.5590  174.4230  141.4600 C   0  0  1  0  0  0  0  0  0  0  0  0
  188.1470  177.9710  143.1080 O   0  0  0  0  0  1  0  0  0  0  0  0
  187.1370  176.7460  141.0340 O   0  0  0  0  0  1  0  0  0  0  0  0
  187.2090  174.6320  142.1660 C   0  0  1  0  0  3  0  0  0  0  0  0
  183.8310  178.8850  146.1870 O   0  0  0  0  0  1  0  0  0  0  0  0
  186.3220  179.4540  147.6900 O   0  0  0  0  0  0  0  0  0  0  0  0
  186.0160  176.8920  148.2600 O   0  0  0  0  0  1  0  0  0  0  0  0
  187.3280  177.4400  145.8800 C   0  0  1  0  0  3  0  0  0  0  0  0
  184.6430  177.7590  146.0420 C   0  0  2  0  0  3  0  0  0  0  0  0
  186.5200  176.8970  144.7120 C   0  0  1  0  0  3  0  0  0  0  0  0
  186.0830  177.8840  147.1180 P   0  0  2  0  0  0  0  0  0  0  0  0
  185.2170  177.6990  144.6380 C   0  0  0  0  0  2  0  0  0  0  0  0
  188.4860  176.1770  146.5070 S   0  0  0  0  0  0  0  0  0  0  0  0
  189.9610  177.0660  145.9120 C   0  0  0  0  0  2  0  0  0  0  0  0
  191.5620  178.0090  143.8130 C   0  0  0  0  0  1  0  0  0  0  0  0
  191.7890  176.6280  144.4220 C   0  0  1  0  0  0  0  0  0  0  0  0
  190.9650  176.1060  145.4700 N   0  0  0  0  0  0  0  0  0  0  0  0
  192.4640  175.6560  143.6830 O   0  0  0  0  0  1  0  0  0  0  0  0
  192.2560  176.6860  145.7650 N   0  0  0  0  0  2  0  0  0  0  0  0
  188.7240  174.7120  140.0280 N   0  0  0  0  0  2  0  0  0  0  0  0
  188.4430  174.3020  137.7580 O   0  0  0  0  0  0  0  0  0  0  0  0
  188.5340  173.8190  138.9160 C   0  0  0  0  0  0  0  0  0  0  0  0
  188.4960  172.3280  139.0890 C   0  0  0  0  0  2  0  0  0  0  0  0
  189.8630  171.7140  138.8330 C   0  0  0  0  0  2  0  0  0  0  0  0
  190.6830  171.6310  140.1180 C   0  0  0  0  0  2  0  0  0  0  0  0
  193.1790  171.6240  141.2990 P   0  0  0  0  0  2  0  0  0  0  0  0
  194.2550  173.1080  141.3260 C   0  0  0  0  0  1  0  0  0  0  0  0
  192.8340  169.9150  141.2050 O   0  0  0  0  0  0  0  0  0  0  0  0
  192.4810  171.9560  142.8040 O   0  0  0  0  0  1  0  0  0  0  0  0
  194.1630  170.1260  141.1060 C   0  0  0  0  0  1  0  0  0  0  0  0
  192.1110  172.1020  139.8750 C   0  0  0  0  0  2  0  0  0  0  0  0
  194.6370  173.5130  139.9050 C   0  0  0  0  0  2  0  0  0  0  0  0
  193.4520  174.1340  139.1600 C   0  0  0  0  0  2  0  0  0  0  0  0
  192.1010  173.6170  139.6510 C   0  0  0  0  0  2  0  0  0  0  0  0
  1  5  1  1  0  0  0
  1  2  1  0  0  0  0
  2  4  1  0  0  0  0
  3  2  1  0  0  0  0
  3  4  1  0  0  0  0
  4 15  1  0  0  0  0
  6  9  1  0  0  0  0
  6  5  1  0  0  0  0
  6  1  1  0  0  0  0
  7  4  1  0  0  0  0
  8  3  1  0  0  0  0
  9  3  1  0  0  0  0
  9  2  1  0  0  0  0
 13 18  1  0  0  0  0
 13 16  1  0  0  0  0
 14 10  1  0  0  0  0
 14 16  1  0  0  0  0
 15 13  1  0  0  0  0
 16 11  2  0  0  0  0
 16 12  1  0  0  0  0
 17 15  1  0  0  0  0
 17 14  1  0  0  0  0
 19 18  1  0  0  0  0
 20 21  1  0  0  0  0
 21 22  1  0  0  0  0
 21 24  1  0  0  0  0
 22 24  1  0  0  0  0
 22 19  1  0  0  0  0
 23 21  1  0  0  0  0
 25  6  1  0  0  0  0
 26 27  2  0  0  0  0
 27 28  1  0  0  0  0
 27 25  1  0  0  0  0
 29 28  1  0  0  0  0
 29 30  1  0  0  0  0
 31 34  1  0  0  0  0
 33 31  1  0  0  0  0
 35 33  1  0  0  0  0
 36 30  1  0  0  0  0
 37 32  1  0  0  0  0
 38 39  1  0  0  0  0
 38 37  1  0  0  0  0
 39 36  1  0  0  0  0
M  END
>  <MODEL>
8

>  <REMARK>
 VINA RESULT:      -6.5      3.004      9.285
  Name = 
  9 active torsions:
  status: ('A' for Active; 'I' for Inactive)
    1  A    between atoms: C_3  and  C_22
    2  A    between atoms: C_3  and  C_34
    3  A    between atoms: N_4  and  C_28
    4  A    between atoms: C_15  and  C_25
    5  A    between atoms: C_17  and  C_32
    6  A    between atoms: C_21  and  S_27
    7  A    between atoms: C_23  and  S_27
    8  A    between atoms: C_23  and  N_31
    9  A    between atoms: C_25  and  C_34
                            x       y       z     vdW  Elec       q    Type
                         _______ _______ _______ _____ _____    ______ ____

>  <TORSDO>
F 9

$$$$
=
 OpenBabel11072409173D

 39 43  0  0  1  0  0  0  0  0999 V2000
  190.6140  175.7020  143.9520 C   0  0  1  0  0  3  0  0  0  0  0  0
  189.8190  176.9730  143.7300 C   0  0  2  0  0  0  0  0  0  0  0  0
  189.8240  177.8330  145.0460 C   0  0  1  0  0  0  0  0  0  0  0  0
  188.5500  177.2040  144.5120 C   0  0  2  0  0  0  0  0  0  0  0  0
  191.7070  175.6020  143.0730 O   0  0  0  0  0  0  0  0  0  0  0  0
  191.8370  176.5370  144.1130 C   0  0  1  0  0  0  0  0  0  0  0  0
  188.0760  176.0450  145.1510 O   0  0  0  0  0  1  0  0  0  0  0  0
  190.1790  177.1590  146.2250 O   0  0  0  0  0  1  0  0  0  0  0  0
  191.0040  177.8280  144.0740 C   0  0  1  0  0  3  0  0  0  0  0  0
  184.4140  179.7890  144.4760 O   0  0  0  0  0  1  0  0  0  0  0  0
  183.8120  177.5300  142.6530 O   0  0  0  0  0  1  0  0  0  0  0  0
  185.3390  179.0010  141.0750 O   0  0  0  0  0  0  0  0  0  0  0  0
  186.6870  177.2710  142.7710 C   0  0  1  0  0  3  0  0  0  0  0  0
  185.5860  179.5400  143.7590 C   0  0  2  0  0  3  0  0  0  0  0  0
  187.5520  178.0680  143.7340 C   0  0  1  0  0  3  0  0  0  0  0  0
  185.2710  178.3520  142.4410 P   0  0  2  0  0  0  0  0  0  0  0  0
  186.6150  178.8650  144.6470 C   0  0  0  0  0  2  0  0  0  0  0  0
  187.6090  176.8800  141.2460 S   0  0  0  0  0  0  0  0  0  0  0  0
  187.7280  175.1040  141.6340 C   0  0  0  0  0  2  0  0  0  0  0  0
  188.7070  172.7230  142.7450 C   0  0  0  0  0  1  0  0  0  0  0  0
  189.2690  173.2750  141.4370 C   0  0  1  0  0  0  0  0  0  0  0  0
  188.8120  174.5070  140.8660 N   0  0  0  0  0  0  0  0  0  0  0  0
  190.5390  172.8810  141.0170 O   0  0  0  0  0  1  0  0  0  0  0  0
  188.3260  173.2370  140.3710 N   0  0  0  0  0  2  0  0  0  0  0  0
  192.5930  176.1510  145.3140 N   0  0  0  0  0  2  0  0  0  0  0  0
  194.4940  176.0120  146.6430 O   0  0  0  0  0  0  0  0  0  0  0  0
  194.0200  176.0840  145.4790 C   0  0  0  0  0  0  0  0  0  0  0  0
  194.9570  176.0420  144.3070 C   0  0  0  0  0  2  0  0  0  0  0  0
  196.0990  175.0680  144.5550 C   0  0  0  0  0  2  0  0  0  0  0  0
  196.1700  174.0070  143.4600 C   0  0  0  0  0  2  0  0  0  0  0  0
  194.4600  171.8760  143.8570 P   0  0  0  0  0  2  0  0  0  0  0  0
  194.3750  170.9710  145.4510 C   0  0  0  0  0  1  0  0  0  0  0  0
  194.4150  172.0370  142.1200 O   0  0  0  0  0  0  0  0  0  0  0  0
  193.2080  172.9400  144.2580 O   0  0  0  0  0  1  0  0  0  0  0  0
  194.2350  170.7470  142.4700 C   0  0  0  0  0  1  0  0  0  0  0  0
  196.1390  172.6090  144.0640 C   0  0  0  0  0  2  0  0  0  0  0  0
  195.7110  170.2980  145.7500 C   0  0  0  0  0  2  0  0  0  0  0  0
  196.7780  171.3190  146.1530 C   0  0  0  0  0  2  0  0  0  0  0  0
  196.5480  172.6980  145.5370 C   0  0  0  0  0  2  0  0  0  0  0  0
  1  5  1  6  0  0  0
  1  6  1  0  0  0  0
  2  1  1  0  0  0  0
  2  9  1  0  0  0  0
  2  4  1  0  0  0  0
  2  3  1  0  0  0  0
  3  8  1  0  0  0  0
  4  3  1  0  0  0  0
  4  7  1  0  0  0  0
  5  6  1  0  0  0  0
  6 25  1  0  0  0  0
  9  6  1  0  0  0  0
  9  3  1  0  0  0  0
 12 16  2  0  0  0  0
 13 15  1  0  0  0  0
 14 10  1  0  0  0  0
 14 17  1  0  0  0  0
 15  4  1  0  0  0  0
 15 17  1  0  0  0  0
 16 11  1  0  0  0  0
 16 13  1  0  0  0  0
 16 14  1  0  0  0  0
 18 19  1  0  0  0  0
 18 13  1  0  0  0  0
 21 20  1  0  0  0  0
 22 21  1  0  0  0  0
 22 19  1  0  0  0  0
 23 21  1  0  0  0  0
 24 22  1  0  0  0  0
 24 21  1  0  0  0  0
 25 27  1  0  0  0  0
 27 26  2  0  0  0  0
 28 29  1  0  0  0  0
 28 27  1  0  0  0  0
 30 36  1  0  0  0  0
 30 29  1  0  0  0  0
 31 34  1  0  0  0  0
 32 37  1  0  0  0  0
 33 35  1  0  0  0  0
 33 31  1  0  0  0  0
 36 39  1  0  0  0  0
 37 38  1  0  0  0  0
 39 38  1  0  0  0  0
M  END
>  <MODEL>
9

>  <REMARK>
 VINA RESULT:      -6.4      2.872      8.462
  Name = 
  9 active torsions:
  status: ('A' for Active; 'I' for Inactive)
    1  A    between atoms: C_3  and  C_22
    2  A    between atoms: C_3  and  C_34
    3  A    between atoms: N_4  and  C_28
    4  A    between atoms: C_15  and  C_25
    5  A    between atoms: C_17  and  C_32
    6  A    between atoms: C_21  and  S_27
    7  A    between atoms: C_23  and  S_27
    8  A    between atoms: C_23  and  N_31
    9  A    between atoms: C_25  and  C_34
                            x       y       z     vdW  Elec       q    Type
                         _______ _______ _______ _____ _____    ______ ____

>  <TORSDO>
F 9

$$$$
