=
 OpenBabel11062423063D

 57 62  0  0  1  0  0  0  0  0999 V2000
  194.9830  176.7800  144.5260 C   0  0  0  0  0  2  0  0  0  0  0  0
  188.2300  177.7960  143.7310 C   0  0  2  0  0  3  0  0  0  0  0  0
  188.5420  176.7200  145.9030 N   0  0  0  0  0  2  0  0  0  0  0  0
  189.7670  176.1220  145.5290 N   0  0  1  0  0  0  0  0  0  0  0  0
  190.5230  177.0160  144.6290 C   0  0  1  0  0  3  0  0  0  0  0  0
  191.3040  176.1620  143.6300 C   0  0  2  0  0  3  0  0  0  0  0  0
  190.5470  175.8160  146.7540 C   0  0  0  0  0  0  0  0  0  0  0  0
  189.7770  174.7990  147.5850 C   0  0  0  0  0  1  0  0  0  0  0  0
  189.6960  178.1630  144.0010 C   0  0  0  0  0  2  0  0  0  0  0  0
  192.7610  176.4660  143.6740 C   0  0  0  0  0  3  0  0  0  0  0  0
  193.5480  176.4180  144.7560 C   0  0  0  0  0  0  0  0  0  0  0  0
  191.9140  175.1550  146.4320 C   0  0  2  0  0  3  0  0  0  0  0  0
  193.0800  176.0710  146.1340 C   0  0  0  0  0  0  0  0  0  0  0  0
  193.7970  176.4720  147.1800 C   0  0  0  0  0  2  0  0  0  0  0  0
  187.6860  176.7540  144.7200 C   0  0  1  0  0  3  0  0  0  0  0  0
  191.8130  174.1070  145.5300 F   0  0  0  0  0  0  0  0  0  0  0  0
  190.8280  176.2800  142.3240 O   0  0  0  0  0  1  0  0  0  0  0  0
  190.7330  177.0590  147.6300 C   0  0  0  0  0  1  0  0  0  0  0  0
  185.0060  178.8570  147.2440 C   0  0  0  0  0  2  0  0  0  0  0  0
  184.7300  179.0050  145.7430 C   0  0  0  0  0  2  0  0  0  0  0  0
  185.9300  178.5600  144.9100 C   0  0  0  0  0  2  0  0  0  0  0  0
  185.9390  176.6050  146.5700 C   0  0  0  0  0  2  0  0  0  0  0  0
  186.0240  177.7560  147.5730 C   0  0  0  0  0  2  0  0  0  0  0  0
  186.2420  177.0690  145.1320 C   0  0  0  0  0  3  0  0  0  0  0  0
  188.0330  177.3330  142.2930 C   0  0  0  0  0  2  0  0  0  0  0  0
  187.1560  178.2580  141.5890 N   0  0  0  0  0  2  0  0  0  0  0  0
  185.9620  177.5190  141.2060 C   0  0  0  0  0  2  0  0  0  0  0  0
  184.7480  178.4240  141.2920 C   0  0  0  0  0  2  0  0  0  0  0  0
  183.8050  177.8690  142.1600 O   0  0  0  0  0  1  0  0  0  0  0  0
  195.8190  175.5340  144.2730 C   0  0  0  0  0  2  0  0  0  0  0  0
  196.0550  175.3770  142.8460 N   0  0  0  0  0  2  0  0  0  0  0  0
  195.8250  174.1380  142.1730 C   0  0  0  0  0  0  0  0  0  0  0  0
  195.5860  173.0900  142.8330 O   0  0  0  0  0  0  0  0  0  0  0  0
  195.6010  172.7550  140.1590 N   0  0  0  0  0  2  0  0  0  0  0  0
  193.4690  175.0050  140.7330 C   0  0  0  0  0  1  0  0  0  0  0  0
  195.8230  174.1050  140.6740 C   0  0  1  0  0  3  0  0  0  0  0  0
  194.7400  174.3980  138.6270 C   0  0  2  0  0  3  0  0  0  0  0  0
  194.8620  172.9090  138.9060 C   0  0  0  0  0  2  0  0  0  0  0  0
  194.8180  175.0400  140.0040 C   0  0  1  0  0  3  0  0  0  0  0  0
  192.6720  176.1860  135.9590 C   0  0  0  0  0  0  0  0  0  0  0  0
  193.6050  174.7760  137.6870 C   0  0  0  0  0  0  0  0  0  0  0  0
  191.4670  174.3230  136.7090 N   0  0  0  0  0  0  0  0  0  0  0  0
  192.7720  177.3670  135.0610 C   0  0  0  0  0  1  0  0  0  0  0  0
  192.4550  173.9700  137.5800 C   0  0  0  0  0  0  0  0  0  0  0  0
  193.7090  175.8810  136.8340 C   0  0  0  0  0  3  0  0  0  0  0  0
  191.5690  175.3970  135.9260 N   0  0  0  0  0  0  0  0  0  0  0  0
  192.3250  172.7760  138.3600 N   0  0  0  0  0  2  0  0  0  0  0  0
  189.9650  172.8820  142.0330 C   0  0  0  0  0  2  0  0  0  0  0  0
  191.6550  171.7300  140.4960 C   0  0  1  0  0  3  0  0  0  0  0  0
  192.1950  170.3650  140.1010 C   0  0  0  0  0  1  0  0  0  0  0  0
  190.0070  171.9660  138.5570 C   0  0  0  0  0  0  0  0  0  0  0  0
  190.1750  171.1540  137.6080 O   0  0  0  0  0  0  0  0  0  0  0  0
  188.6730  172.3670  138.9050 N   0  0  0  0  0  2  0  0  0  0  0  0
  191.2090  172.5390  139.2700 C   0  0  2  0  0  3  0  0  0  0  0  0
  188.1940  172.7490  140.2360 C   0  0  0  0  0  2  0  0  0  0  0  0
  189.1730  173.6560  140.9730 C   0  0  0  0  0  2  0  0  0  0  0  0
  190.5330  171.5550  141.5190 C   0  0  0  0  0  2  0  0  0  0  0  0
  1 11  1  0  0  0  0
  2 25  1  6  0  0  0
  2  9  1  0  0  0  0
  2 15  1  0  0  0  0
  4  3  1  1  0  0  0
  4  7  1  0  0  0  0
  5  9  1  6  0  0  0
  5  4  1  0  0  0  0
  6 17  1  6  0  0  0
  6 10  1  0  0  0  0
  6  5  1  0  0  0  0
  7  8  1  0  0  0  0
  7 18  1  0  0  0  0
 10 11  2  0  0  0  0
 11 13  1  0  0  0  0
 12 16  1  6  0  0  0
 12  7  1  0  0  0  0
 13 12  1  0  0  0  0
 13 14  2  0  0  0  0
 15 24  1  1  0  0  0
 15  3  1  0  0  0  0
 19 23  1  0  0  0  0
 20 19  1  0  0  0  0
 21 24  1  0  0  0  0
 21 20  1  0  0  0  0
 22 23  1  0  0  0  0
 24 22  1  0  0  0  0
 26 25  1  0  0  0  0
 27 28  1  0  0  0  0
 27 26  1  0  0  0  0
 28 29  1  0  0  0  0
 30  1  1  0  0  0  0
 31 30  1  0  0  0  0
 32 33  2  0  0  0  0
 32 31  1  0  0  0  0
 34 36  1  0  0  0  0
 36 32  1  1  0  0  0
 37 41  1  1  0  0  0
 37 38  1  0  0  0  0
 37 39  1  0  0  0  0
 38 34  1  0  0  0  0
 39 36  1  0  0  0  0
 39 35  1  1  0  0  0
 40 45  1  0  0  0  0
 42 44  2  0  0  0  0
 43 40  1  0  0  0  0
 44 41  1  0  0  0  0
 44 47  1  0  0  0  0
 45 41  2  0  0  0  0
 46 40  2  0  0  0  0
 46 42  1  0  0  0  0
 49 50  1  6  0  0  0
 49 57  1  0  0  0  0
 51 53  1  0  0  0  0
 51 54  1  0  0  0  0
 52 51  2  0  0  0  0
 53 55  1  0  0  0  0
 54 47  1  6  0  0  0
 54 49  1  0  0  0  0
 55 56  1  0  0  0  0
 56 48  1  0  0  0  0
 57 48  1  0  0  0  0
M  END
>  <MODEL>
1

>  <REMARK>
 VINA RESULT:      -8.8      0.000      0.000
  Name = 
  12 active torsions:
  status: ('A' for Active; 'I' for Inactive)
    1  A    between atoms: C_1  and  C_46
    2  A    between atoms: N_3  and  C_27
    3  A    between atoms: N_3  and  C_53
    4  A    between atoms: N_6  and  C_35
    5  A    between atoms: C_16  and  C_23
    6  A    between atoms: C_17  and  C_33
    7  A    between atoms: C_17  and  C_35
    8  A    between atoms: C_19  and  C_26
    9  A    between atoms: N_22  and  C_26
   10  A    between atoms: N_22  and  C_46
   11  A    between atoms: C_29  and  C_31
   12  A    between atoms: C_44  and  C_50
                            x       y       z     vdW  Elec       q    Type
                         _______ _______ _______ _____ _____    ______ ____

>  <TORSDO>
F 12

$$$$
=
 OpenBabel11062423063D

 57 62  0  0  1  0  0  0  0  0999 V2000
  194.7850  176.2300  144.3430 C   0  0  0  0  0  2  0  0  0  0  0  0
  188.1240  177.5150  143.2280 C   0  0  2  0  0  3  0  0  0  0  0  0
  188.3180  176.6740  145.5140 N   0  0  0  0  0  2  0  0  0  0  0  0
  189.5160  175.9720  145.2470 N   0  0  1  0  0  0  0  0  0  0  0  0
  190.3450  176.7170  144.2780 C   0  0  1  0  0  3  0  0  0  0  0  0
  191.1000  175.7150  143.4050 C   0  0  2  0  0  3  0  0  0  0  0  0
  190.2460  175.7630  146.5220 C   0  0  0  0  0  0  0  0  0  0  0  0
  189.3980  174.8900  147.4360 C   0  0  0  0  0  1  0  0  0  0  0  0
  189.6020  177.8290  143.5010 C   0  0  0  0  0  2  0  0  0  0  0  0
  192.5710  175.9430  143.4610 C   0  0  0  0  0  3  0  0  0  0  0  0
  193.3270  175.9740  144.5660 C   0  0  0  0  0  0  0  0  0  0  0  0
  191.5810  174.9980  146.3190 C   0  0  2  0  0  3  0  0  0  0  0  0
  192.8050  175.8090  145.9590 C   0  0  0  0  0  0  0  0  0  0  0  0
  193.5170  176.2860  146.9760 C   0  0  0  0  0  2  0  0  0  0  0  0
  187.4960  176.6210  144.3080 C   0  0  1  0  0  3  0  0  0  0  0  0
  191.4420  173.8610  145.5360 F   0  0  0  0  0  0  0  0  0  0  0  0
  190.6660  175.7120  142.0790 O   0  0  0  0  0  1  0  0  0  0  0  0
  190.4800  177.0860  147.2610 C   0  0  0  0  0  1  0  0  0  0  0  0
  184.8490  178.8370  146.7700 C   0  0  0  0  0  2  0  0  0  0  0  0
  184.7050  179.1000  145.2650 C   0  0  0  0  0  2  0  0  0  0  0  0
  185.9170  178.5840  144.4920 C   0  0  0  0  0  2  0  0  0  0  0  0
  185.6060  176.5450  146.0160 C   0  0  0  0  0  2  0  0  0  0  0  0
  185.7260  177.6200  147.0960 C   0  0  0  0  0  2  0  0  0  0  0  0
  186.0630  177.0580  144.6360 C   0  0  0  0  0  3  0  0  0  0  0  0
  187.9370  176.9050  141.8440 C   0  0  0  0  0  2  0  0  0  0  0  0
  187.5890  177.9450  140.8860 N   0  0  0  0  0  2  0  0  0  0  0  0
  186.3480  177.5450  140.2420 C   0  0  0  0  0  2  0  0  0  0  0  0
  185.1690  178.1630  140.9710 C   0  0  0  0  0  2  0  0  0  0  0  0
  184.0260  178.0860  140.1720 O   0  0  0  0  0  1  0  0  0  0  0  0
  195.5910  174.9540  144.5370 C   0  0  0  0  0  2  0  0  0  0  0  0
  196.1570  174.5270  143.2660 N   0  0  0  0  0  2  0  0  0  0  0  0
  195.5200  173.5460  142.4460 C   0  0  0  0  0  0  0  0  0  0  0  0
  194.5400  172.8850  142.8890 O   0  0  0  0  0  0  0  0  0  0  0  0
  195.4300  172.1350  140.4410 N   0  0  0  0  0  2  0  0  0  0  0  0
  194.3260  175.0850  140.3050 C   0  0  0  0  0  1  0  0  0  0  0  0
  195.9950  173.3440  141.0380 C   0  0  1  0  0  3  0  0  0  0  0  0
  195.8570  173.7940  138.7520 C   0  0  2  0  0  3  0  0  0  0  0  0
  195.2700  172.4180  139.0140 C   0  0  0  0  0  2  0  0  0  0  0  0
  195.7320  174.5110  140.0890 C   0  0  1  0  0  3  0  0  0  0  0  0
  195.6250  176.0400  135.6690 C   0  0  0  0  0  0  0  0  0  0  0  0
  195.3470  174.4710  137.4890 C   0  0  0  0  0  0  0  0  0  0  0  0
  193.7300  174.6650  135.7330 N   0  0  0  0  0  0  0  0  0  0  0  0
  196.4130  177.1000  134.9880 C   0  0  0  0  0  1  0  0  0  0  0  0
  194.1460  174.0550  136.8800 C   0  0  0  0  0  0  0  0  0  0  0  0
  196.0970  175.4600  136.8420 C   0  0  0  0  0  3  0  0  0  0  0  0
  194.4430  175.6280  135.1490 N   0  0  0  0  0  0  0  0  0  0  0  0
  193.3740  172.9880  137.4410 N   0  0  0  0  0  2  0  0  0  0  0  0
  189.2370  174.0570  136.5440 C   0  0  0  0  0  2  0  0  0  0  0  0
  191.1020  173.5650  138.2230 C   0  0  1  0  0  3  0  0  0  0  0  0
  191.3580  173.0470  139.6300 C   0  0  0  0  0  1  0  0  0  0  0  0
  191.5720  171.3650  137.0110 C   0  0  0  0  0  0  0  0  0  0  0  0
  192.1550  170.4850  137.7000 O   0  0  0  0  0  0  0  0  0  0  0  0
  190.5980  170.9580  136.0380 N   0  0  0  0  0  2  0  0  0  0  0  0
  191.9480  172.8180  137.1820 C   0  0  2  0  0  3  0  0  0  0  0  0
  189.4250  171.7200  135.6030 C   0  0  0  0  0  2  0  0  0  0  0  0
  189.7360  173.1950  135.3780 C   0  0  0  0  0  2  0  0  0  0  0  0
  189.6060  173.4930  137.9200 C   0  0  0  0  0  2  0  0  0  0  0  0
  1 30  1  0  0  0  0
  1 11  1  0  0  0  0
  2 25  1  6  0  0  0
  2  9  1  0  0  0  0
  2 15  1  0  0  0  0
  4  3  1  1  0  0  0
  4  7  1  0  0  0  0
  5  9  1  6  0  0  0
  5  4  1  0  0  0  0
  6 17  1  6  0  0  0
  6 10  1  0  0  0  0
  6  5  1  0  0  0  0
  7 18  1  0  0  0  0
  7  8  1  0  0  0  0
 10 11  2  0  0  0  0
 11 13  1  0  0  0  0
 12 16  1  6  0  0  0
 12  7  1  0  0  0  0
 13 12  1  0  0  0  0
 13 14  2  0  0  0  0
 15 24  1  1  0  0  0
 15  3  1  0  0  0  0
 19 23  1  0  0  0  0
 20 19  1  0  0  0  0
 21 24  1  0  0  0  0
 21 20  1  0  0  0  0
 22 23  1  0  0  0  0
 24 22  1  0  0  0  0
 26 25  1  0  0  0  0
 27 26  1  0  0  0  0
 27 28  1  0  0  0  0
 29 28  1  0  0  0  0
 31 30  1  0  0  0  0
 32 33  2  0  0  0  0
 32 31  1  0  0  0  0
 34 36  1  0  0  0  0
 36 32  1  1  0  0  0
 37 41  1  6  0  0  0
 37 38  1  0  0  0  0
 37 39  1  0  0  0  0
 38 34  1  0  0  0  0
 39 35  1  1  0  0  0
 39 36  1  0  0  0  0
 40 45  1  0  0  0  0
 42 44  2  0  0  0  0
 43 40  1  0  0  0  0
 44 47  1  0  0  0  0
 44 41  1  0  0  0  0
 45 41  2  0  0  0  0
 46 40  2  0  0  0  0
 46 42  1  0  0  0  0
 48 57  1  0  0  0  0
 49 50  1  1  0  0  0
 51 54  1  0  0  0  0
 51 52  2  0  0  0  0
 53 51  1  0  0  0  0
 54 47  1  1  0  0  0
 54 49  1  0  0  0  0
 55 53  1  0  0  0  0
 56 55  1  0  0  0  0
 56 48  1  0  0  0  0
 57 49  1  0  0  0  0
M  END
>  <MODEL>
2

>  <REMARK>
 VINA RESULT:      -8.4      1.455      1.981
  Name = 
  12 active torsions:
  status: ('A' for Active; 'I' for Inactive)
    1  A    between atoms: C_1  and  C_46
    2  A    between atoms: N_3  and  C_27
    3  A    between atoms: N_3  and  C_53
    4  A    between atoms: N_6  and  C_35
    5  A    between atoms: C_16  and  C_23
    6  A    between atoms: C_17  and  C_33
    7  A    between atoms: C_17  and  C_35
    8  A    between atoms: C_19  and  C_26
    9  A    between atoms: N_22  and  C_26
   10  A    between atoms: N_22  and  C_46
   11  A    between atoms: C_29  and  C_31
   12  A    between atoms: C_44  and  C_50
                            x       y       z     vdW  Elec       q    Type
                         _______ _______ _______ _____ _____    ______ ____

>  <TORSDO>
F 12

$$$$
=
 OpenBabel11062423063D

 57 62  0  0  1  0  0  0  0  0999 V2000
  189.7070  173.2010  136.7740 C   0  0  0  0  0  2  0  0  0  0  0  0
  192.9410  171.9230  142.7050 C   0  0  2  0  0  3  0  0  0  0  0  0
  194.5410  173.0540  141.2450 N   0  0  0  0  0  2  0  0  0  0  0  0
  193.8920  172.6350  140.0620 N   0  0  1  0  0  0  0  0  0  0  0  0
  192.4290  172.5940  140.2630 C   0  0  1  0  0  3  0  0  0  0  0  0
  191.8500  171.4500  139.4310 C   0  0  2  0  0  3  0  0  0  0  0  0
  194.2520  173.5620  138.9610 C   0  0  0  0  0  0  0  0  0  0  0  0
  195.7520  173.4740  138.7150 C   0  0  0  0  0  1  0  0  0  0  0  0
  191.9720  172.6230  141.7410 C   0  0  0  0  0  2  0  0  0  0  0  0
  190.7960  171.9340  138.4970 C   0  0  0  0  0  3  0  0  0  0  0  0
  190.9310  172.9020  137.5820 C   0  0  0  0  0  0  0  0  0  0  0  0
  193.5770  173.1730  137.6180 C   0  0  2  0  0  3  0  0  0  0  0  0
  192.1810  173.6950  137.3600 C   0  0  0  0  0  0  0  0  0  0  0  0
  192.0950  174.8870  136.7770 C   0  0  0  0  0  2  0  0  0  0  0  0
  194.4010  171.9850  142.2310 C   0  0  1  0  0  3  0  0  0  0  0  0
  193.7100  171.8270  137.3120 F   0  0  0  0  0  0  0  0  0  0  0  0
  191.3560  170.4050  140.2120 O   0  0  0  0  0  1  0  0  0  0  0  0
  193.9450  175.0190  139.3260 C   0  0  0  0  0  1  0  0  0  0  0  0
  196.4110  174.7170  144.7750 C   0  0  0  0  0  2  0  0  0  0  0  0
  195.6240  173.6180  145.4990 C   0  0  0  0  0  2  0  0  0  0  0  0
  194.6350  172.9310  144.5610 C   0  0  0  0  0  2  0  0  0  0  0  0
  196.6350  172.9740  142.9560 C   0  0  0  0  0  2  0  0  0  0  0  0
  196.5590  174.4690  143.2670 C   0  0  0  0  0  2  0  0  0  0  0  0
  195.3620  172.2270  143.4010 C   0  0  0  0  0  3  0  0  0  0  0  0
  192.5160  170.4830  142.9640 C   0  0  0  0  0  2  0  0  0  0  0  0
  192.5770  170.1960  144.3900 N   0  0  0  0  0  2  0  0  0  0  0  0
  193.0250  168.8200  144.5380 C   0  0  0  0  0  2  0  0  0  0  0  0
  194.5010  168.7950  144.8850 C   0  0  0  0  0  2  0  0  0  0  0  0
  194.6660  168.4300  146.2230 O   0  0  0  0  0  1  0  0  0  0  0  0
  188.4540  173.0810  137.6290 C   0  0  0  0  0  2  0  0  0  0  0  0
  188.1950  174.3420  138.3080 N   0  0  0  0  0  2  0  0  0  0  0  0
  188.1990  174.4480  139.7330 C   0  0  0  0  0  0  0  0  0  0  0  0
  188.2430  173.4090  140.4490 O   0  0  0  0  0  0  0  0  0  0  0  0
  187.0140  176.5800  139.9950 N   0  0  0  0  0  2  0  0  0  0  0  0
  187.4190  174.7180  142.5070 C   0  0  0  0  0  1  0  0  0  0  0  0
  188.1960  175.8060  140.3690 C   0  0  1  0  0  3  0  0  0  0  0  0
  187.7770  177.2070  142.1890 C   0  0  2  0  0  3  0  0  0  0  0  0
  186.6900  177.4200  141.1490 C   0  0  0  0  0  2  0  0  0  0  0  0
  188.3040  175.8100  141.8930 C   0  0  1  0  0  3  0  0  0  0  0  0
  185.6910  178.1280  145.2540 C   0  0  0  0  0  0  0  0  0  0  0  0
  187.3750  177.5700  143.6100 C   0  0  0  0  0  0  0  0  0  0  0  0
  187.9210  177.8670  145.9230 N   0  0  0  0  0  0  0  0  0  0  0  0
  184.2770  178.4200  145.6060 C   0  0  0  0  0  1  0  0  0  0  0  0
  188.3200  177.5620  144.6550 C   0  0  0  0  0  0  0  0  0  0  0  0
  186.0400  177.8310  143.9410 C   0  0  0  0  0  3  0  0  0  0  0  0
  186.6500  178.1440  146.2130 N   0  0  0  0  0  0  0  0  0  0  0  0
  189.6860  177.2160  144.4010 N   0  0  0  0  0  2  0  0  0  0  0  0
  192.9190  176.9100  147.3200 C   0  0  0  0  0  2  0  0  0  0  0  0
  192.0200  176.6140  144.9440 C   0  0  1  0  0  3  0  0  0  0  0  0
  192.1960  175.7890  143.6780 C   0  0  0  0  0  1  0  0  0  0  0  0
  190.0510  175.2850  145.8860 C   0  0  0  0  0  0  0  0  0  0  0  0
  189.4860  174.5080  145.0700 O   0  0  0  0  0  0  0  0  0  0  0  0
  190.1510  174.8970  147.2650 N   0  0  0  0  0  2  0  0  0  0  0  0
  190.5580  176.6270  145.4120 C   0  0  2  0  0  3  0  0  0  0  0  0
  191.2130  175.2680  148.2030 C   0  0  0  0  0  2  0  0  0  0  0  0
  191.6050  176.7370  148.0920 C   0  0  0  0  0  2  0  0  0  0  0  0
  192.9730  176.0980  146.0210 C   0  0  0  0  0  2  0  0  0  0  0  0
  1 11  1  0  0  0  0
  1 30  1  0  0  0  0
  2 25  1  6  0  0  0
  3 15  1  0  0  0  0
  4  5  1  0  0  0  0
  4  3  1  1  0  0  0
  5  9  1  1  0  0  0
  6 17  1  1  0  0  0
  6  5  1  0  0  0  0
  7 18  1  0  0  0  0
  7  4  1  0  0  0  0
  8  7  1  0  0  0  0
  9  2  1  0  0  0  0
 10  6  1  0  0  0  0
 11 10  2  0  0  0  0
 12 16  1  1  0  0  0
 12  7  1  0  0  0  0
 13 11  1  0  0  0  0
 13 12  1  0  0  0  0
 14 13  2  0  0  0  0
 15  2  1  0  0  0  0
 15 24  1  1  0  0  0
 19 20  1  0  0  0  0
 21 20  1  0  0  0  0
 22 23  1  0  0  0  0
 22 24  1  0  0  0  0
 23 19  1  0  0  0  0
 24 21  1  0  0  0  0
 25 26  1  0  0  0  0
 26 27  1  0  0  0  0
 27 28  1  0  0  0  0
 28 29  1  0  0  0  0
 30 31  1  0  0  0  0
 31 32  1  0  0  0  0
 32 33  2  0  0  0  0
 34 36  1  0  0  0  0
 34 38  1  0  0  0  0
 36 32  1  1  0  0  0
 36 39  1  0  0  0  0
 37 41  1  1  0  0  0
 38 37  1  0  0  0  0
 39 37  1  0  0  0  0
 39 35  1  1  0  0  0
 40 43  1  0  0  0  0
 40 46  2  0  0  0  0
 41 45  2  0  0  0  0
 41 44  1  0  0  0  0
 42 46  1  0  0  0  0
 44 42  2  0  0  0  0
 45 40  1  0  0  0  0
 47 44  1  0  0  0  0
 48 56  1  0  0  0  0
 49 50  1  6  0  0  0
 49 54  1  0  0  0  0
 49 57  1  0  0  0  0
 51 53  1  0  0  0  0
 52 51  2  0  0  0  0
 53 55  1  0  0  0  0
 54 47  1  6  0  0  0
 54 51  1  0  0  0  0
 56 55  1  0  0  0  0
 57 48  1  0  0  0  0
M  END
>  <MODEL>
3

>  <REMARK>
 VINA RESULT:      -7.2      2.539      9.392
  Name = 
  12 active torsions:
  status: ('A' for Active; 'I' for Inactive)
    1  A    between atoms: C_1  and  C_46
    2  A    between atoms: N_3  and  C_27
    3  A    between atoms: N_3  and  C_53
    4  A    between atoms: N_6  and  C_35
    5  A    between atoms: C_16  and  C_23
    6  A    between atoms: C_17  and  C_33
    7  A    between atoms: C_17  and  C_35
    8  A    between atoms: C_19  and  C_26
    9  A    between atoms: N_22  and  C_26
   10  A    between atoms: N_22  and  C_46
   11  A    between atoms: C_29  and  C_31
   12  A    between atoms: C_44  and  C_50
                            x       y       z     vdW  Elec       q    Type
                         _______ _______ _______ _____ _____    ______ ____

>  <TORSDO>
F 12

$$$$
=
 OpenBabel11062423063D

 57 62  0  0  1  0  0  0  0  0999 V2000
  190.1370  176.9440  146.7150 C   0  0  0  0  0  2  0  0  0  0  0  0
  185.6260  178.3890  141.7320 C   0  0  2  0  0  3  0  0  0  0  0  0
  184.5120  178.8410  143.8600 N   0  0  0  0  0  2  0  0  0  0  0  0
  185.3320  177.9420  144.5790 N   0  0  1  0  0  0  0  0  0  0  0  0
  186.7050  177.9490  144.0370 C   0  0  1  0  0  3  0  0  0  0  0  0
  187.2930  176.5440  144.1700 C   0  0  2  0  0  3  0  0  0  0  0  0
  185.3230  178.3250  146.0130 C   0  0  0  0  0  0  0  0  0  0  0  0
  183.9060  178.1840  146.5510 C   0  0  0  0  0  1  0  0  0  0  0  0
  186.8510  178.5880  142.6360 C   0  0  0  0  0  2  0  0  0  0  0  0
  188.5680  176.5570  144.9390 C   0  0  0  0  0  3  0  0  0  0  0  0
  188.7460  177.0510  146.1710 C   0  0  0  0  0  0  0  0  0  0  0  0
  186.2040  177.3860  146.8790 C   0  0  2  0  0  3  0  0  0  0  0  0
  187.6770  177.7100  146.9870 C   0  0  0  0  0  0  0  0  0  0  0  0
  188.0300  178.5390  147.9640 C   0  0  0  0  0  2  0  0  0  0  0  0
  184.3130  178.2860  142.5230 C   0  0  1  0  0  3  0  0  0  0  0  0
  185.9670  176.0410  146.6360 F   0  0  0  0  0  0  0  0  0  0  0  0
  187.4820  175.9140  142.9400 O   0  0  0  0  0  1  0  0  0  0  0  0
  185.7300  179.7900  146.2080 C   0  0  0  0  0  1  0  0  0  0  0  0
  180.4980  178.1650  140.6760 C   0  0  0  0  0  2  0  0  0  0  0  0
  180.6470  179.2150  141.7850 C   0  0  0  0  0  2  0  0  0  0  0  0
  181.8770  178.9430  142.6470 C   0  0  0  0  0  2  0  0  0  0  0  0
  182.9800  178.5430  140.3660 C   0  0  0  0  0  2  0  0  0  0  0  0
  181.8320  177.5400  140.2440 C   0  0  0  0  0  2  0  0  0  0  0  0
  183.1710  179.0280  141.8170 C   0  0  0  0  0  3  0  0  0  0  0  0
  185.8050  177.1830  140.8180 C   0  0  0  0  0  2  0  0  0  0  0  0
  186.5720  177.5610  139.6400 N   0  0  0  0  0  2  0  0  0  0  0  0
  186.8710  176.3420  138.9060 C   0  0  0  0  0  2  0  0  0  0  0  0
  186.1800  176.3720  137.5560 C   0  0  0  0  0  2  0  0  0  0  0  0
  187.0820  176.0040  136.5540 O   0  0  0  0  0  1  0  0  0  0  0  0
  190.4130  175.5340  147.2160 C   0  0  0  0  0  2  0  0  0  0  0  0
  191.4440  174.9110  146.3990 N   0  0  0  0  0  2  0  0  0  0  0  0
  191.1340  173.9240  145.4140 C   0  0  0  0  0  0  0  0  0  0  0  0
  189.9750  173.4280  145.3510 O   0  0  0  0  0  0  0  0  0  0  0  0
  191.9280  172.1900  143.8700 N   0  0  0  0  0  2  0  0  0  0  0  0
  191.0480  174.9930  142.7260 C   0  0  0  0  0  1  0  0  0  0  0  0
  192.1850  173.5180  144.4250 C   0  0  1  0  0  3  0  0  0  0  0  0
  193.0910  173.5630  142.2740 C   0  0  2  0  0  3  0  0  0  0  0  0
  192.4270  172.2140  142.4950 C   0  0  0  0  0  2  0  0  0  0  0  0
  192.3920  174.4860  143.2620 C   0  0  1  0  0  3  0  0  0  0  0  0
  192.4220  173.9250  138.5290 C   0  0  0  0  0  0  0  0  0  0  0  0
  193.2100  173.9790  140.8150 C   0  0  0  0  0  0  0  0  0  0  0  0
  194.2300  175.3000  139.0980 N   0  0  0  0  0  0  0  0  0  0  0  0
  191.4820  173.4100  137.4990 C   0  0  0  0  0  1  0  0  0  0  0  0
  194.1670  174.9300  140.4090 C   0  0  0  0  0  0  0  0  0  0  0  0
  192.3140  173.5030  139.8500 C   0  0  0  0  0  3  0  0  0  0  0  0
  193.3890  174.8120  138.1870 N   0  0  0  0  0  0  0  0  0  0  0  0
  195.0560  175.5230  141.3620 N   0  0  0  0  0  2  0  0  0  0  0  0
  196.2310  173.2390  144.8940 C   0  0  0  0  0  2  0  0  0  0  0  0
  196.0800  175.4460  143.6100 C   0  0  1  0  0  3  0  0  0  0  0  0
  196.7560  176.7980  143.4460 C   0  0  0  0  0  1  0  0  0  0  0  0
  197.1920  174.3200  141.6030 C   0  0  0  0  0  0  0  0  0  0  0  0
  197.7620  175.1010  140.7950 O   0  0  0  0  0  0  0  0  0  0  0  0
  197.7630  173.0230  141.8400 N   0  0  0  0  0  2  0  0  0  0  0  0
  195.8980  174.7380  142.2590 C   0  0  2  0  0  3  0  0  0  0  0  0
  197.6830  172.2470  143.0800 C   0  0  0  0  0  2  0  0  0  0  0  0
  196.2920  172.2770  143.7020 C   0  0  0  0  0  2  0  0  0  0  0  0
  196.8700  174.6020  144.6090 C   0  0  0  0  0  2  0  0  0  0  0  0
  1 30  1  0  0  0  0
  2 25  1  1  0  0  0
  2 15  1  0  0  0  0
  2  9  1  0  0  0  0
  4  3  1  6  0  0  0
  4  7  1  0  0  0  0
  5  9  1  6  0  0  0
  5  6  1  0  0  0  0
  5  4  1  0  0  0  0
  6 17  1  6  0  0  0
  6 10  1  0  0  0  0
  7 18  1  0  0  0  0
  7  8  1  0  0  0  0
  7 12  1  0  0  0  0
 10 11  2  0  0  0  0
 11  1  1  0  0  0  0
 11 13  1  0  0  0  0
 12 16  1  6  0  0  0
 12 13  1  0  0  0  0
 13 14  2  0  0  0  0
 15 24  1  6  0  0  0
 15  3  1  0  0  0  0
 19 20  1  0  0  0  0
 20 21  1  0  0  0  0
 22 24  1  0  0  0  0
 23 22  1  0  0  0  0
 23 19  1  0  0  0  0
 24 21  1  0  0  0  0
 26 25  1  0  0  0  0
 27 26  1  0  0  0  0
 28 27  1  0  0  0  0
 29 28  1  0  0  0  0
 31 30  1  0  0  0  0
 32 31  1  0  0  0  0
 33 32  2  0  0  0  0
 34 36  1  0  0  0  0
 36 32  1  6  0  0  0
 37 41  1  6  0  0  0
 37 38  1  0  0  0  0
 37 39  1  0  0  0  0
 38 34  1  0  0  0  0
 39 35  1  6  0  0  0
 39 36  1  0  0  0  0
 40 45  1  0  0  0  0
 42 44  2  0  0  0  0
 43 40  1  0  0  0  0
 44 41  1  0  0  0  0
 44 47  1  0  0  0  0
 45 41  2  0  0  0  0
 46 40  2  0  0  0  0
 46 42  1  0  0  0  0
 49 50  1  6  0  0  0
 49 57  1  0  0  0  0
 51 53  1  0  0  0  0
 51 54  1  0  0  0  0
 52 51  2  0  0  0  0
 53 55  1  0  0  0  0
 54 47  1  6  0  0  0
 54 49  1  0  0  0  0
 55 56  1  0  0  0  0
 56 48  1  0  0  0  0
 57 48  1  0  0  0  0
M  END
>  <MODEL>
4

>  <REMARK>
 VINA RESULT:      -7.1      2.598      5.711
  Name = 
  12 active torsions:
  status: ('A' for Active; 'I' for Inactive)
    1  A    between atoms: C_1  and  C_46
    2  A    between atoms: N_3  and  C_27
    3  A    between atoms: N_3  and  C_53
    4  A    between atoms: N_6  and  C_35
    5  A    between atoms: C_16  and  C_23
    6  A    between atoms: C_17  and  C_33
    7  A    between atoms: C_17  and  C_35
    8  A    between atoms: C_19  and  C_26
    9  A    between atoms: N_22  and  C_26
   10  A    between atoms: N_22  and  C_46
   11  A    between atoms: C_29  and  C_31
   12  A    between atoms: C_44  and  C_50
                            x       y       z     vdW  Elec       q    Type
                         _______ _______ _______ _____ _____    ______ ____

>  <TORSDO>
F 12

$$$$
=
 OpenBabel11062423063D

 57 62  0  0  1  0  0  0  0  0999 V2000
  188.3400  173.0320  139.2060 C   0  0  0  0  0  2  0  0  0  0  0  0
  195.0110  174.6180  138.7000 C   0  0  2  0  0  3  0  0  0  0  0  0
  194.5570  172.8860  137.0360 N   0  0  0  0  0  2  0  0  0  0  0  0
  193.4470  172.3740  137.7440 N   0  0  1  0  0  0  0  0  0  0  0  0
  192.7160  173.4670  138.4160 C   0  0  1  0  0  3  0  0  0  0  0  0
  192.1400  172.9360  139.7300 C   0  0  2  0  0  3  0  0  0  0  0  0
  192.5650  171.6490  136.7950 C   0  0  0  0  0  0  0  0  0  0  0  0
  193.3290  170.4630  136.2230 C   0  0  0  0  0  1  0  0  0  0  0  0
  193.4950  174.7980  138.5360 C   0  0  0  0  0  2  0  0  0  0  0  0
  190.6650  173.1300  139.7960 C   0  0  0  0  0  3  0  0  0  0  0  0
  189.7670  172.6940  138.9030 C   0  0  0  0  0  0  0  0  0  0  0  0
  191.3130  171.0520  137.4930 C   0  0  2  0  0  3  0  0  0  0  0  0
  190.1060  171.9490  137.6500 C   0  0  0  0  0  0  0  0  0  0  0  0
  189.2390  171.9550  136.6420 C   0  0  0  0  0  2  0  0  0  0  0  0
  195.5360  173.3450  138.0190 C   0  0  1  0  0  3  0  0  0  0  0  0
  191.6170  170.3560  138.6530 F   0  0  0  0  0  0  0  0  0  0  0  0
  192.7470  173.4940  140.8550 O   0  0  0  0  0  1  0  0  0  0  0  0
  192.1620  172.5330  135.6100 C   0  0  0  0  0  1  0  0  0  0  0  0
  197.9400  173.0910  134.5350 C   0  0  0  0  0  2  0  0  0  0  0  0
  197.8900  174.4790  135.1860 C   0  0  0  0  0  2  0  0  0  0  0  0
  196.7300  174.5890  136.1730 C   0  0  0  0  0  2  0  0  0  0  0  0
  197.5580  172.2720  136.8970 C   0  0  0  0  0  2  0  0  0  0  0  0
  197.3400  171.9830  135.4120 C   0  0  0  0  0  2  0  0  0  0  0  0
  196.8860  173.5900  137.3330 C   0  0  0  0  0  3  0  0  0  0  0  0
  195.4140  174.6520  140.1690 C   0  0  0  0  0  2  0  0  0  0  0  0
  196.2340  175.8270  140.4310 N   0  0  0  0  0  2  0  0  0  0  0  0
  195.6140  176.5540  141.5280 C   0  0  0  0  0  2  0  0  0  0  0  0
  196.5660  176.6150  142.7070 C   0  0  0  0  0  2  0  0  0  0  0  0
  196.4050  175.4790  143.5050 O   0  0  0  0  0  1  0  0  0  0  0  0
  187.9060  174.2720  138.4390 C   0  0  0  0  0  2  0  0  0  0  0  0
  188.0620  175.4520  139.2760 N   0  0  0  0  0  2  0  0  0  0  0  0
  187.0520  176.4610  139.3560 C   0  0  0  0  0  0  0  0  0  0  0  0
  186.0750  176.4490  138.5580 O   0  0  0  0  0  0  0  0  0  0  0  0
  185.8620  178.1810  140.6380 N   0  0  0  0  0  2  0  0  0  0  0  0
  187.0120  175.6570  142.1360 C   0  0  0  0  0  1  0  0  0  0  0  0
  187.1410  177.5070  140.4270 C   0  0  1  0  0  3  0  0  0  0  0  0
  187.1370  178.1290  142.6770 C   0  0  2  0  0  3  0  0  0  0  0  0
  185.8060  178.5220  142.0600 C   0  0  0  0  0  2  0  0  0  0  0  0
  187.6440  177.0080  141.7810 C   0  0  1  0  0  3  0  0  0  0  0  0
  185.8800  177.6890  146.2580 C   0  0  0  0  0  0  0  0  0  0  0  0
  187.1010  177.9250  144.1840 C   0  0  0  0  0  0  0  0  0  0  0  0
  188.2100  177.4470  146.2520 N   0  0  0  0  0  0  0  0  0  0  0  0
  184.5970  177.6890  147.0080 C   0  0  0  0  0  1  0  0  0  0  0  0
  188.2800  177.6500  144.9060 C   0  0  0  0  0  0  0  0  0  0  0  0
  185.8900  177.9120  144.8850 C   0  0  0  0  0  3  0  0  0  0  0  0
  187.0500  177.4690  146.9080 N   0  0  0  0  0  0  0  0  0  0  0  0
  189.5420  177.5610  144.2360 N   0  0  0  0  0  2  0  0  0  0  0  0
  193.2410  176.7650  146.4150 C   0  0  0  0  0  2  0  0  0  0  0  0
  192.0060  177.3820  144.2610 C   0  0  1  0  0  3  0  0  0  0  0  0
  192.1070  177.3060  142.7460 C   0  0  0  0  0  1  0  0  0  0  0  0
  190.5210  175.3240  144.5590 C   0  0  0  0  0  0  0  0  0  0  0  0
  189.9760  174.8970  143.5060 O   0  0  0  0  0  0  0  0  0  0  0  0
  190.9350  174.3830  145.5620 N   0  0  0  0  0  2  0  0  0  0  0  0
  190.6740  176.8120  144.7700 C   0  0  2  0  0  3  0  0  0  0  0  0
  192.0580  174.5340  146.4910 C   0  0  0  0  0  2  0  0  0  0  0  0
  192.1420  175.9340  147.0870 C   0  0  0  0  0  2  0  0  0  0  0  0
  193.2150  176.6850  144.8850 C   0  0  0  0  0  2  0  0  0  0  0  0
  2 25  1  1  0  0  0
  3 15  1  0  0  0  0
  4  3  1  6  0  0  0
  4  5  1  0  0  0  0
  5  9  1  1  0  0  0
  5  6  1  0  0  0  0
  6 10  1  0  0  0  0
  6 17  1  1  0  0  0
  7 12  1  0  0  0  0
  7  4  1  0  0  0  0
  8  7  1  0  0  0  0
  9  2  1  0  0  0  0
 11  1  1  0  0  0  0
 11 10  2  0  0  0  0
 12 13  1  0  0  0  0
 12 16  1  1  0  0  0
 13 11  1  0  0  0  0
 14 13  2  0  0  0  0
 15 24  1  6  0  0  0
 15  2  1  0  0  0  0
 18  7  1  0  0  0  0
 19 20  1  0  0  0  0
 19 23  1  0  0  0  0
 20 21  1  0  0  0  0
 21 24  1  0  0  0  0
 22 24  1  0  0  0  0
 23 22  1  0  0  0  0
 25 26  1  0  0  0  0
 26 27  1  0  0  0  0
 27 28  1  0  0  0  0
 28 29  1  0  0  0  0
 30  1  1  0  0  0  0
 30 31  1  0  0  0  0
 31 32  1  0  0  0  0
 33 32  2  0  0  0  0
 34 38  1  0  0  0  0
 36 32  1  6  0  0  0
 36 34  1  0  0  0  0
 36 39  1  0  0  0  0
 37 41  1  1  0  0  0
 38 37  1  0  0  0  0
 39 35  1  1  0  0  0
 39 37  1  0  0  0  0
 40 46  2  0  0  0  0
 40 43  1  0  0  0  0
 41 45  2  0  0  0  0
 41 44  1  0  0  0  0
 42 46  1  0  0  0  0
 44 42  2  0  0  0  0
 45 40  1  0  0  0  0
 47 44  1  0  0  0  0
 48 56  1  0  0  0  0
 49 50  1  6  0  0  0
 49 54  1  0  0  0  0
 49 57  1  0  0  0  0
 51 54  1  0  0  0  0
 51 53  1  0  0  0  0
 52 51  2  0  0  0  0
 53 55  1  0  0  0  0
 54 47  1  6  0  0  0
 55 56  1  0  0  0  0
 57 48  1  0  0  0  0
M  END
>  <MODEL>
5

>  <REMARK>
 VINA RESULT:      -7.1      2.410     10.421
  Name = 
  12 active torsions:
  status: ('A' for Active; 'I' for Inactive)
    1  A    between atoms: C_1  and  C_46
    2  A    between atoms: N_3  and  C_27
    3  A    between atoms: N_3  and  C_53
    4  A    between atoms: N_6  and  C_35
    5  A    between atoms: C_16  and  C_23
    6  A    between atoms: C_17  and  C_33
    7  A    between atoms: C_17  and  C_35
    8  A    between atoms: C_19  and  C_26
    9  A    between atoms: N_22  and  C_26
   10  A    between atoms: N_22  and  C_46
   11  A    between atoms: C_29  and  C_31
   12  A    between atoms: C_44  and  C_50
                            x       y       z     vdW  Elec       q    Type
                         _______ _______ _______ _____ _____    ______ ____

>  <TORSDO>
F 12

$$$$
=
 OpenBabel11062423063D

 57 62  0  0  1  0  0  0  0  0999 V2000
  189.6900  171.7820  137.2030 C   0  0  0  0  0  2  0  0  0  0  0  0
  194.8370  172.7730  141.6520 C   0  0  2  0  0  3  0  0  0  0  0  0
  195.4460  173.9230  139.5830 N   0  0  0  0  0  2  0  0  0  0  0  0
  194.6340  173.0920  138.7790 N   0  0  1  0  0  0  0  0  0  0  0  0
  193.4030  172.7160  139.5040 C   0  0  1  0  0  3  0  0  0  0  0  0
  192.9990  171.3020  139.0850 C   0  0  2  0  0  3  0  0  0  0  0  0
  194.3130  173.8060  137.5180 C   0  0  0  0  0  0  0  0  0  0  0  0
  195.6060  174.0610  136.7550 C   0  0  0  0  0  1  0  0  0  0  0  0
  193.4440  172.9580  141.0310 C   0  0  0  0  0  2  0  0  0  0  0  0
  191.6100  171.2690  138.5500 C   0  0  0  0  0  3  0  0  0  0  0  0
  191.1320  172.0060  137.5380 C   0  0  0  0  0  0  0  0  0  0  0  0
  193.4190  172.9600  136.5730 C   0  0  2  0  0  3  0  0  0  0  0  0
  191.9220  173.0260  136.7810 C   0  0  0  0  0  0  0  0  0  0  0  0
  191.2770  173.9890  136.1300 C   0  0  0  0  0  2  0  0  0  0  0  0
  195.9740  173.1070  140.6730 C   0  0  1  0  0  3  0  0  0  0  0  0
  193.8790  171.6630  136.4040 F   0  0  0  0  0  0  0  0  0  0  0  0
  193.1390  170.3700  140.1120 O   0  0  0  0  0  1  0  0  0  0  0  0
  193.6800  175.1750  137.7910 C   0  0  0  0  0  1  0  0  0  0  0  0
  197.2360  176.2230  143.2570 C   0  0  0  0  0  2  0  0  0  0  0  0
  197.7710  174.8300  143.6140 C   0  0  0  0  0  2  0  0  0  0  0  0
  196.9840  173.7330  142.9030 C   0  0  0  0  0  2  0  0  0  0  0  0
  197.2310  175.3130  140.8970 C   0  0  0  0  0  2  0  0  0  0  0  0
  196.5710  176.2860  141.8750 C   0  0  0  0  0  2  0  0  0  0  0  0
  197.1180  173.8510  141.3730 C   0  0  0  0  0  3  0  0  0  0  0  0
  195.0050  171.3700  142.2200 C   0  0  0  0  0  2  0  0  0  0  0  0
  194.3360  171.2730  143.5100 N   0  0  0  0  0  2  0  0  0  0  0  0
  194.6090  169.9470  144.0430 C   0  0  0  0  0  2  0  0  0  0  0  0
  193.3040  169.2520  144.3840 C   0  0  0  0  0  2  0  0  0  0  0  0
  192.6520  168.8680  143.2100 O   0  0  0  0  0  1  0  0  0  0  0  0
  188.7950  172.6710  138.0540 C   0  0  0  0  0  2  0  0  0  0  0  0
  189.1200  172.4970  139.4620 N   0  0  0  0  0  2  0  0  0  0  0  0
  188.7160  173.4440  140.4540 C   0  0  0  0  0  0  0  0  0  0  0  0
  188.2250  174.5550  140.1110 O   0  0  0  0  0  0  0  0  0  0  0  0
  189.6120  171.8610  142.1000 N   0  0  0  0  0  2  0  0  0  0  0  0
  190.6330  174.8440  142.1090 C   0  0  0  0  0  1  0  0  0  0  0  0
  188.8370  173.0850  141.9050 C   0  0  1  0  0  3  0  0  0  0  0  0
  189.8590  173.3310  143.9890 C   0  0  2  0  0  3  0  0  0  0  0  0
  190.3170  172.0200  143.3720 C   0  0  0  0  0  2  0  0  0  0  0  0
  189.4360  174.1730  142.7940 C   0  0  1  0  0  3  0  0  0  0  0  0
  193.0580  174.3510  145.8130 C   0  0  0  0  0  0  0  0  0  0  0  0
  190.8160  173.9160  145.0170 C   0  0  0  0  0  0  0  0  0  0  0  0
  191.2250  175.2260  146.9790 N   0  0  0  0  0  0  0  0  0  0  0  0
  194.5300  174.1950  145.6760 C   0  0  0  0  0  1  0  0  0  0  0  0
  190.3390  174.6950  146.0890 C   0  0  0  0  0  0  0  0  0  0  0  0
  192.2020  173.7780  144.8780 C   0  0  0  0  0  3  0  0  0  0  0  0
  192.5410  175.0580  146.8480 N   0  0  0  0  0  0  0  0  0  0  0  0
  188.9380  174.9490  146.2390 N   0  0  0  0  0  2  0  0  0  0  0  0
  187.8460  177.3870  142.7850 C   0  0  0  0  0  2  0  0  0  0  0  0
  189.1610  177.0470  144.9520 C   0  0  1  0  0  3  0  0  0  0  0  0
  189.7930  177.7980  146.1140 C   0  0  0  0  0  1  0  0  0  0  0  0
  186.9830  176.4450  146.1450 C   0  0  0  0  0  0  0  0  0  0  0  0
  186.9950  176.5950  147.3960 O   0  0  0  0  0  0  0  0  0  0  0  0
  185.7710  176.7100  145.4220 N   0  0  0  0  0  2  0  0  0  0  0  0
  188.2190  175.9370  145.4410 C   0  0  2  0  0  3  0  0  0  0  0  0
  185.6630  177.1930  144.0430 C   0  0  0  0  0  2  0  0  0  0  0  0
  186.6380  176.4970  143.1000 C   0  0  0  0  0  2  0  0  0  0  0  0
  188.4610  178.0410  144.0270 C   0  0  0  0  0  2  0  0  0  0  0  0
  1 11  1  0  0  0  0
  1 30  1  0  0  0  0
  2 25  1  6  0  0  0
  3 15  1  0  0  0  0
  4  5  1  0  0  0  0
  4  3  1  1  0  0  0
  5  9  1  1  0  0  0
  6  5  1  0  0  0  0
  6 17  1  1  0  0  0
  7 18  1  0  0  0  0
  7  4  1  0  0  0  0
  8  7  1  0  0  0  0
  9  2  1  0  0  0  0
 10  6  1  0  0  0  0
 11 10  2  0  0  0  0
 12 16  1  1  0  0  0
 12 13  1  0  0  0  0
 12  7  1  0  0  0  0
 13 11  1  0  0  0  0
 14 13  2  0  0  0  0
 15 24  1  1  0  0  0
 15  2  1  0  0  0  0
 19 20  1  0  0  0  0
 21 20  1  0  0  0  0
 22 24  1  0  0  0  0
 22 23  1  0  0  0  0
 23 19  1  0  0  0  0
 24 21  1  0  0  0  0
 25 26  1  0  0  0  0
 26 27  1  0  0  0  0
 27 28  1  0  0  0  0
 29 28  1  0  0  0  0
 30 31  1  0  0  0  0
 31 32  1  0  0  0  0
 33 32  2  0  0  0  0
 34 38  1  0  0  0  0
 36 32  1  6  0  0  0
 36 34  1  0  0  0  0
 36 39  1  0  0  0  0
 37 41  1  6  0  0  0
 38 37  1  0  0  0  0
 39 35  1  6  0  0  0
 39 37  1  0  0  0  0
 40 46  2  0  0  0  0
 41 44  1  0  0  0  0
 43 40  1  0  0  0  0
 44 47  1  0  0  0  0
 44 42  2  0  0  0  0
 45 41  2  0  0  0  0
 45 40  1  0  0  0  0
 46 42  1  0  0  0  0
 48 56  1  0  0  0  0
 48 57  1  0  0  0  0
 49 54  1  0  0  0  0
 49 50  1  1  0  0  0
 51 52  2  0  0  0  0
 53 51  1  0  0  0  0
 54 51  1  0  0  0  0
 54 47  1  1  0  0  0
 55 53  1  0  0  0  0
 56 55  1  0  0  0  0
 57 49  1  0  0  0  0
M  END
>  <MODEL>
6

>  <REMARK>
 VINA RESULT:      -7.0      2.711      9.452
  Name = 
  12 active torsions:
  status: ('A' for Active; 'I' for Inactive)
    1  A    between atoms: C_1  and  C_46
    2  A    between atoms: N_3  and  C_27
    3  A    between atoms: N_3  and  C_53
    4  A    between atoms: N_6  and  C_35
    5  A    between atoms: C_16  and  C_23
    6  A    between atoms: C_17  and  C_33
    7  A    between atoms: C_17  and  C_35
    8  A    between atoms: C_19  and  C_26
    9  A    between atoms: N_22  and  C_26
   10  A    between atoms: N_22  and  C_46
   11  A    between atoms: C_29  and  C_31
   12  A    between atoms: C_44  and  C_50
                            x       y       z     vdW  Elec       q    Type
                         _______ _______ _______ _____ _____    ______ ____

>  <TORSDO>
F 12

$$$$
=
 OpenBabel11062423063D

 57 62  0  0  1  0  0  0  0  0999 V2000
  190.5670  170.3630  137.2220 C   0  0  0  0  0  2  0  0  0  0  0  0
  195.3290  172.3980  141.7440 C   0  0  2  0  0  3  0  0  0  0  0  0
  195.4540  173.9220  139.8380 N   0  0  0  0  0  2  0  0  0  0  0  0
  194.9110  172.9780  138.9370 N   0  0  1  0  0  0  0  0  0  0  0  0
  193.8940  172.1460  139.6110 C   0  0  1  0  0  3  0  0  0  0  0  0
  193.9380  170.7380  139.0160 C   0  0  2  0  0  3  0  0  0  0  0  0
  194.3260  173.6990  137.7790 C   0  0  0  0  0  0  0  0  0  0  0  0
  195.4380  174.4410  137.0500 C   0  0  0  0  0  1  0  0  0  0  0  0
  193.9240  172.2030  141.1570 C   0  0  0  0  0  2  0  0  0  0  0  0
  192.6080  170.3290  138.4860 C   0  0  0  0  0  3  0  0  0  0  0  0
  191.8780  170.9910  137.5790 C   0  0  0  0  0  0  0  0  0  0  0  0
  193.7030  172.7330  136.7360 C   0  0  2  0  0  3  0  0  0  0  0  0
  192.2730  172.2940  136.9550 C   0  0  0  0  0  0  0  0  0  0  0  0
  191.3290  173.0720  136.4350 C   0  0  0  0  0  2  0  0  0  0  0  0
  196.2590  173.1900  140.8130 C   0  0  1  0  0  3  0  0  0  0  0  0
  194.5410  171.6800  136.4010 F   0  0  0  0  0  0  0  0  0  0  0  0
  194.4100  169.7820  139.9160 O   0  0  0  0  0  1  0  0  0  0  0  0
  193.3060  174.7520  138.2270 C   0  0  0  0  0  1  0  0  0  0  0  0
  196.5920  176.7490  143.0950 C   0  0  0  0  0  2  0  0  0  0  0  0
  197.1970  175.5010  143.7510 C   0  0  0  0  0  2  0  0  0  0  0  0
  196.7050  174.2230  143.0750 C   0  0  0  0  0  2  0  0  0  0  0  0
  197.1820  175.5630  140.9400 C   0  0  0  0  0  2  0  0  0  0  0  0
  196.2260  176.5460  141.6170 C   0  0  0  0  0  2  0  0  0  0  0  0
  197.1400  174.1700  141.5980 C   0  0  0  0  0  3  0  0  0  0  0  0
  195.9560  171.0630  142.1280 C   0  0  0  0  0  2  0  0  0  0  0  0
  195.1660  170.4250  143.1720 N   0  0  0  0  0  2  0  0  0  0  0  0
  195.6640  170.9080  144.4500 C   0  0  0  0  0  2  0  0  0  0  0  0
  194.5050  171.3710  145.3120 C   0  0  0  0  0  2  0  0  0  0  0  0
  194.7190  172.6890  145.7240 O   0  0  0  0  0  1  0  0  0  0  0  0
  189.6570  170.2890  138.4390 C   0  0  0  0  0  2  0  0  0  0  0  0
  189.3570  171.6310  138.9160 N   0  0  0  0  0  2  0  0  0  0  0  0
  189.7630  172.0810  140.2100 C   0  0  0  0  0  0  0  0  0  0  0  0
  190.2320  171.2650  141.0510 O   0  0  0  0  0  0  0  0  0  0  0  0
  188.9740  174.2940  139.5010 N   0  0  0  0  0  2  0  0  0  0  0  0
  187.7700  172.9840  142.1040 C   0  0  0  0  0  1  0  0  0  0  0  0
  189.6700  173.5410  140.5430 C   0  0  1  0  0  3  0  0  0  0  0  0
  188.6430  175.3200  141.6520 C   0  0  2  0  0  3  0  0  0  0  0  0
  188.2650  175.3780  140.1810 C   0  0  0  0  0  2  0  0  0  0  0  0
  189.0090  173.8600  141.8820 C   0  0  1  0  0  3  0  0  0  0  0  0
  185.5810  177.1800  142.9780 C   0  0  0  0  0  0  0  0  0  0  0  0
  187.6560  176.0020  142.5870 C   0  0  0  0  0  0  0  0  0  0  0  0
  186.9290  176.5750  144.7950 N   0  0  0  0  0  0  0  0  0  0  0  0
  184.3440  177.8220  142.4620 C   0  0  0  0  0  1  0  0  0  0  0  0
  187.8460  175.9760  143.9830 C   0  0  0  0  0  0  0  0  0  0  0  0
  186.4850  176.5930  142.0990 C   0  0  0  0  0  3  0  0  0  0  0  0
  185.8340  177.1610  144.3100 N   0  0  0  0  0  0  0  0  0  0  0  0
  188.9780  175.3110  144.5540 N   0  0  0  0  0  2  0  0  0  0  0  0
  193.1460  175.0470  143.2790 C   0  0  0  0  0  2  0  0  0  0  0  0
  191.3470  174.8590  145.0880 C   0  0  1  0  0  3  0  0  0  0  0  0
  191.1250  174.9740  146.5890 C   0  0  0  0  0  1  0  0  0  0  0  0
  190.5440  177.2100  144.4930 C   0  0  0  0  0  0  0  0  0  0  0  0
  189.9080  177.8080  145.4020 O   0  0  0  0  0  0  0  0  0  0  0  0
  191.3990  177.9700  143.6240 N   0  0  0  0  0  2  0  0  0  0  0  0
  190.3540  175.7240  144.3010 C   0  0  2  0  0  3  0  0  0  0  0  0
  192.6220  177.4990  142.9700 C   0  0  0  0  0  2  0  0  0  0  0  0
  192.4740  176.0980  142.3880 C   0  0  0  0  0  2  0  0  0  0  0  0
  192.8020  175.1980  144.7650 C   0  0  0  0  0  2  0  0  0  0  0  0
  1 11  1  0  0  0  0
  1 30  1  0  0  0  0
  2 25  1  6  0  0  0
  3 15  1  0  0  0  0
  4  5  1  0  0  0  0
  4  3  1  1  0  0  0
  5  9  1  1  0  0  0
  6  5  1  0  0  0  0
  6 17  1  1  0  0  0
  7 18  1  0  0  0  0
  7  4  1  0  0  0  0
  8  7  1  0  0  0  0
  9  2  1  0  0  0  0
 10  6  1  0  0  0  0
 11 10  2  0  0  0  0
 12 16  1  1  0  0  0
 12 13  1  0  0  0  0
 12  7  1  0  0  0  0
 13 11  1  0  0  0  0
 14 13  2  0  0  0  0
 15 24  1  1  0  0  0
 15  2  1  0  0  0  0
 19 20  1  0  0  0  0
 21 20  1  0  0  0  0
 22 24  1  0  0  0  0
 22 23  1  0  0  0  0
 23 19  1  0  0  0  0
 24 21  1  0  0  0  0
 25 26  1  0  0  0  0
 26 27  1  0  0  0  0
 27 28  1  0  0  0  0
 28 29  1  0  0  0  0
 30 31  1  0  0  0  0
 31 32  1  0  0  0  0
 32 33  2  0  0  0  0
 34 38  1  0  0  0  0
 34 36  1  0  0  0  0
 36 32  1  6  0  0  0
 36 39  1  0  0  0  0
 37 39  1  0  0  0  0
 37 41  1  1  0  0  0
 38 37  1  0  0  0  0
 39 35  1  6  0  0  0
 40 46  2  0  0  0  0
 41 44  1  0  0  0  0
 43 40  1  0  0  0  0
 44 47  1  0  0  0  0
 44 42  2  0  0  0  0
 45 41  2  0  0  0  0
 45 40  1  0  0  0  0
 46 42  1  0  0  0  0
 48 57  1  0  0  0  0
 49 50  1  1  0  0  0
 51 52  2  0  0  0  0
 53 51  1  0  0  0  0
 54 51  1  0  0  0  0
 54 47  1  1  0  0  0
 54 49  1  0  0  0  0
 55 53  1  0  0  0  0
 56 55  1  0  0  0  0
 56 48  1  0  0  0  0
 57 49  1  0  0  0  0
M  END
>  <MODEL>
7

>  <REMARK>
 VINA RESULT:      -6.9      2.770      9.286
  Name = 
  12 active torsions:
  status: ('A' for Active; 'I' for Inactive)
    1  A    between atoms: C_1  and  C_46
    2  A    between atoms: N_3  and  C_27
    3  A    between atoms: N_3  and  C_53
    4  A    between atoms: N_6  and  C_35
    5  A    between atoms: C_16  and  C_23
    6  A    between atoms: C_17  and  C_33
    7  A    between atoms: C_17  and  C_35
    8  A    between atoms: C_19  and  C_26
    9  A    between atoms: N_22  and  C_26
   10  A    between atoms: N_22  and  C_46
   11  A    between atoms: C_29  and  C_31
   12  A    between atoms: C_44  and  C_50
                            x       y       z     vdW  Elec       q    Type
                         _______ _______ _______ _____ _____    ______ ____

>  <TORSDO>
F 12

$$$$
=
 OpenBabel11062423063D

 57 62  0  0  1  0  0  0  0  0999 V2000
  190.3540  177.0900  147.2150 C   0  0  0  0  0  2  0  0  0  0  0  0
  186.0210  178.3680  142.0320 C   0  0  2  0  0  3  0  0  0  0  0  0
  184.8140  178.8330  144.1050 N   0  0  0  0  0  2  0  0  0  0  0  0
  185.6210  177.9610  144.8720 N   0  0  1  0  0  0  0  0  0  0  0  0
  187.0150  177.9860  144.3850 C   0  0  1  0  0  3  0  0  0  0  0  0
  187.6230  176.5940  144.5650 C   0  0  2  0  0  3  0  0  0  0  0  0
  185.5470  178.3670  146.2980 C   0  0  0  0  0  0  0  0  0  0  0  0
  184.1120  178.2070  146.7810 C   0  0  0  0  0  1  0  0  0  0  0  0
  187.2050  178.6050  142.9800 C   0  0  0  0  0  2  0  0  0  0  0  0
  188.8650  176.6450  145.3840 C   0  0  0  0  0  3  0  0  0  0  0  0
  188.9840  177.1610  146.6140 C   0  0  0  0  0  0  0  0  0  0  0  0
  186.4100  177.4590  147.2140 C   0  0  2  0  0  3  0  0  0  0  0  0
  187.8710  177.8120  147.3750 C   0  0  0  0  0  0  0  0  0  0  0  0
  188.1690  178.6640  148.3520 C   0  0  0  0  0  2  0  0  0  0  0  0
  184.6800  178.2530  142.7710 C   0  0  1  0  0  3  0  0  0  0  0  0
  186.2080  176.1060  146.9850 F   0  0  0  0  0  0  0  0  0  0  0  0
  187.8730  175.9490  143.3540 O   0  0  0  0  0  1  0  0  0  0  0  0
  185.9180  179.8430  146.4840 C   0  0  0  0  0  1  0  0  0  0  0  0
  181.1290  177.9900  140.4680 C   0  0  0  0  0  2  0  0  0  0  0  0
  181.0430  178.9200  141.6850 C   0  0  0  0  0  2  0  0  0  0  0  0
  182.1900  178.6670  142.6610 C   0  0  0  0  0  2  0  0  0  0  0  0
  183.5770  178.6250  140.5040 C   0  0  0  0  0  2  0  0  0  0  0  0
  182.5610  177.5410  140.1430 C   0  0  0  0  0  2  0  0  0  0  0  0
  183.5530  178.9610  142.0080 C   0  0  0  0  0  3  0  0  0  0  0  0
  186.2590  177.1510  141.1460 C   0  0  0  0  0  2  0  0  0  0  0  0
  187.0290  177.5340  139.9720 N   0  0  0  0  0  2  0  0  0  0  0  0
  186.2370  177.1910  138.8010 C   0  0  0  0  0  2  0  0  0  0  0  0
  187.0350  176.2790  137.8890 C   0  0  0  0  0  2  0  0  0  0  0  0
  186.3130  176.0310  136.7190 O   0  0  0  0  0  1  0  0  0  0  0  0
  190.7310  175.6490  147.5260 C   0  0  0  0  0  2  0  0  0  0  0  0
  191.6200  175.1360  146.4950 N   0  0  0  0  0  2  0  0  0  0  0  0
  192.9530  175.6270  146.3330 C   0  0  0  0  0  0  0  0  0  0  0  0
  193.3350  176.6520  146.9620 O   0  0  0  0  0  0  0  0  0  0  0  0
  193.5400  173.4760  145.3090 N   0  0  0  0  0  2  0  0  0  0  0  0
  192.7260  175.8970  143.4610 C   0  0  0  0  0  1  0  0  0  0  0  0
  193.9070  174.8850  145.4450 C   0  0  1  0  0  3  0  0  0  0  0  0
  194.6540  174.2580  143.3250 C   0  0  2  0  0  3  0  0  0  0  0  0
  193.9380  173.0770  143.9590 C   0  0  0  0  0  2  0  0  0  0  0  0
  194.0780  175.4690  144.0450 C   0  0  1  0  0  3  0  0  0  0  0  0
  195.7580  174.7770  139.7040 C   0  0  0  0  0  0  0  0  0  0  0  0
  194.6870  174.2360  141.8040 C   0  0  0  0  0  0  0  0  0  0  0  0
  193.7910  173.5050  139.7070 N   0  0  0  0  0  0  0  0  0  0  0  0
  196.8570  175.4300  138.9450 C   0  0  0  0  0  1  0  0  0  0  0  0
  193.7180  173.5260  141.0690 C   0  0  0  0  0  0  0  0  0  0  0  0
  195.7310  174.8400  141.0930 C   0  0  0  0  0  3  0  0  0  0  0  0
  194.7760  174.1130  139.0450 N   0  0  0  0  0  0  0  0  0  0  0  0
  192.6730  172.8120  141.7370 N   0  0  0  0  0  2  0  0  0  0  0  0
  188.7330  174.1250  140.3870 C   0  0  0  0  0  2  0  0  0  0  0  0
  190.2970  173.2850  142.2280 C   0  0  1  0  0  3  0  0  0  0  0  0
  190.3190  172.5070  143.5350 C   0  0  0  0  0  1  0  0  0  0  0  0
  190.9810  171.3400  140.7180 C   0  0  0  0  0  0  0  0  0  0  0  0
  191.4480  170.3340  141.3160 O   0  0  0  0  0  0  0  0  0  0  0  0
  190.1860  171.1450  139.5380 N   0  0  0  0  0  2  0  0  0  0  0  0
  191.3110  172.7260  141.2200 C   0  0  2  0  0  3  0  0  0  0  0  0
  189.0960  172.0020  139.0670 C   0  0  0  0  0  2  0  0  0  0  0  0
  189.4270  173.4860  139.1790 C   0  0  0  0  0  2  0  0  0  0  0  0
  188.8730  173.3060  141.6740 C   0  0  0  0  0  2  0  0  0  0  0  0
  1 30  1  0  0  0  0
  2 25  1  1  0  0  0
  2 15  1  0  0  0  0
  2  9  1  0  0  0  0
  4  3  1  6  0  0  0
  4  7  1  0  0  0  0
  5  9  1  6  0  0  0
  5  6  1  0  0  0  0
  5  4  1  0  0  0  0
  6 17  1  6  0  0  0
  6 10  1  0  0  0  0
  7 18  1  0  0  0  0
  7  8  1  0  0  0  0
  7 12  1  0  0  0  0
 10 11  2  0  0  0  0
 11  1  1  0  0  0  0
 11 13  1  0  0  0  0
 12 16  1  6  0  0  0
 12 13  1  0  0  0  0
 13 14  2  0  0  0  0
 15 24  1  6  0  0  0
 15  3  1  0  0  0  0
 19 20  1  0  0  0  0
 20 21  1  0  0  0  0
 22 24  1  0  0  0  0
 23 19  1  0  0  0  0
 23 22  1  0  0  0  0
 24 21  1  0  0  0  0
 26 25  1  0  0  0  0
 27 26  1  0  0  0  0
 28 27  1  0  0  0  0
 29 28  1  0  0  0  0
 31 30  1  0  0  0  0
 32 31  1  0  0  0  0
 32 33  2  0  0  0  0
 34 36  1  0  0  0  0
 36 32  1  6  0  0  0
 37 41  1  6  0  0  0
 37 38  1  0  0  0  0
 37 39  1  0  0  0  0
 38 34  1  0  0  0  0
 39 35  1  6  0  0  0
 39 36  1  0  0  0  0
 40 45  1  0  0  0  0
 42 44  2  0  0  0  0
 43 40  1  0  0  0  0
 44 47  1  0  0  0  0
 44 41  1  0  0  0  0
 45 41  2  0  0  0  0
 46 40  2  0  0  0  0
 46 42  1  0  0  0  0
 48 57  1  0  0  0  0
 49 50  1  1  0  0  0
 51 54  1  0  0  0  0
 51 52  2  0  0  0  0
 53 51  1  0  0  0  0
 54 47  1  1  0  0  0
 54 49  1  0  0  0  0
 55 56  1  0  0  0  0
 55 53  1  0  0  0  0
 56 48  1  0  0  0  0
 57 49  1  0  0  0  0
M  END
>  <MODEL>
8

>  <REMARK>
 VINA RESULT:      -6.8      2.504      4.699
  Name = 
  12 active torsions:
  status: ('A' for Active; 'I' for Inactive)
    1  A    between atoms: C_1  and  C_46
    2  A    between atoms: N_3  and  C_27
    3  A    between atoms: N_3  and  C_53
    4  A    between atoms: N_6  and  C_35
    5  A    between atoms: C_16  and  C_23
    6  A    between atoms: C_17  and  C_33
    7  A    between atoms: C_17  and  C_35
    8  A    between atoms: C_19  and  C_26
    9  A    between atoms: N_22  and  C_26
   10  A    between atoms: N_22  and  C_46
   11  A    between atoms: C_29  and  C_31
   12  A    between atoms: C_44  and  C_50
                            x       y       z     vdW  Elec       q    Type
                         _______ _______ _______ _____ _____    ______ ____

>  <TORSDO>
F 12

$$$$
=
 OpenBabel11062423063D

 57 62  0  0  1  0  0  0  0  0999 V2000
  193.1970  171.1440  136.2870 C   0  0  0  0  0  2  0  0  0  0  0  0
  196.2080  171.1320  142.4680 C   0  0  2  0  0  3  0  0  0  0  0  0
  196.4900  173.3740  141.5370 N   0  0  0  0  0  2  0  0  0  0  0  0
  196.3820  172.9270  140.2010 N   0  0  1  0  0  0  0  0  0  0  0  0
  195.4170  171.8140  140.1050 C   0  0  1  0  0  3  0  0  0  0  0  0
  195.8830  170.8520  139.0120 C   0  0  2  0  0  3  0  0  0  0  0  0
  195.9680  174.0670  139.3450 C   0  0  0  0  0  0  0  0  0  0  0  0
  197.0540  175.1330  139.3850 C   0  0  0  0  0  1  0  0  0  0  0  0
  195.0560  171.1450  141.4520 C   0  0  0  0  0  2  0  0  0  0  0  0
  194.8310  170.6540  137.9760 C   0  0  0  0  0  3  0  0  0  0  0  0
  194.2300  171.6150  137.2630 C   0  0  0  0  0  0  0  0  0  0  0  0
  195.8230  173.6620  137.8540 C   0  0  2  0  0  3  0  0  0  0  0  0
  194.4990  173.0800  137.4120 C   0  0  0  0  0  0  0  0  0  0  0  0
  193.5760  173.9500  137.0110 C   0  0  0  0  0  2  0  0  0  0  0  0
  197.1610  172.3250  142.3020 C   0  0  1  0  0  3  0  0  0  0  0  0
  196.9090  172.9430  137.3770 F   0  0  0  0  0  0  0  0  0  0  0  0
  196.3000  169.6190  139.5130 O   0  0  0  0  0  1  0  0  0  0  0  0
  194.6820  174.7220  139.8610 C   0  0  0  0  0  1  0  0  0  0  0  0
  196.2050  174.3910  145.8800 C   0  0  0  0  0  2  0  0  0  0  0  0
  196.8860  173.0310  146.0800 C   0  0  0  0  0  2  0  0  0  0  0  0
  196.8420  172.1930  144.8050 C   0  0  0  0  0  2  0  0  0  0  0  0
  197.5150  174.4160  143.7160 C   0  0  0  0  0  2  0  0  0  0  0  0
  196.2450  174.8850  144.4260 C   0  0  0  0  0  2  0  0  0  0  0  0
  197.6110  172.8790  143.6600 C   0  0  0  0  0  3  0  0  0  0  0  0
  196.9730  169.8150  142.4170 C   0  0  0  0  0  2  0  0  0  0  0  0
  196.1500  168.7420  142.9560 N   0  0  0  0  0  2  0  0  0  0  0  0
  196.7300  168.3470  144.2300 C   0  0  0  0  0  2  0  0  0  0  0  0
  195.6870  168.4600  145.3260 C   0  0  0  0  0  2  0  0  0  0  0  0
  194.5400  169.0830  144.8260 O   0  0  0  0  0  1  0  0  0  0  0  0
  192.1180  170.3350  136.9930 C   0  0  0  0  0  2  0  0  0  0  0  0
  191.5910  171.0910  138.1200 N   0  0  0  0  0  2  0  0  0  0  0  0
  190.2360  170.9540  138.5540 C   0  0  0  0  0  0  0  0  0  0  0  0
  189.4060  170.3090  137.8560 O   0  0  0  0  0  0  0  0  0  0  0  0
  190.9600  171.7120  140.7720 N   0  0  0  0  0  2  0  0  0  0  0  0
  189.7420  173.7980  138.7480 C   0  0  0  0  0  1  0  0  0  0  0  0
  189.8230  171.5420  139.8700 C   0  0  1  0  0  3  0  0  0  0  0  0
  189.2820  173.3800  141.2040 C   0  0  2  0  0  3  0  0  0  0  0  0
  190.6750  172.9010  141.5750 C   0  0  0  0  0  2  0  0  0  0  0  0
  189.0840  172.8760  139.7810 C   0  0  1  0  0  3  0  0  0  0  0  0
  187.6710  176.8430  141.2930 C   0  0  0  0  0  0  0  0  0  0  0  0
  189.0070  174.8410  141.5270 C   0  0  0  0  0  0  0  0  0  0  0  0
  189.4910  176.8310  142.7670 N   0  0  0  0  0  0  0  0  0  0  0  0
  186.5300  177.5690  140.6770 C   0  0  0  0  0  1  0  0  0  0  0  0
  189.7800  175.5290  142.4820 C   0  0  0  0  0  0  0  0  0  0  0  0
  187.9220  175.5180  140.9560 C   0  0  0  0  0  3  0  0  0  0  0  0
  188.4730  177.4690  142.1900 N   0  0  0  0  0  0  0  0  0  0  0  0
  190.8490  174.8690  143.1690 N   0  0  0  0  0  2  0  0  0  0  0  0
  192.3010  176.1770  147.0740 C   0  0  0  0  0  2  0  0  0  0  0  0
  192.4680  174.6570  145.0240 C   0  0  1  0  0  3  0  0  0  0  0  0
  192.9430  173.2850  144.5710 C   0  0  0  0  0  1  0  0  0  0  0  0
  190.0090  174.0280  145.3270 C   0  0  0  0  0  0  0  0  0  0  0  0
  189.6660  172.9340  144.8050 O   0  0  0  0  0  0  0  0  0  0  0  0
  189.3990  174.4350  146.5610 N   0  0  0  0  0  2  0  0  0  0  0  0
  191.0090  174.9120  144.6190 C   0  0  2  0  0  3  0  0  0  0  0  0
  190.0110  175.2530  147.6110 C   0  0  0  0  0  2  0  0  0  0  0  0
  190.7900  176.4380  147.0510 C   0  0  0  0  0  2  0  0  0  0  0  0
  192.6890  174.7980  146.5290 C   0  0  0  0  0  2  0  0  0  0  0  0
  1 30  1  0  0  0  0
  1 11  1  0  0  0  0
  2 25  1  6  0  0  0
  3 15  1  0  0  0  0
  4  3  1  1  0  0  0
  5  4  1  0  0  0  0
  5  9  1  1  0  0  0
  6 17  1  1  0  0  0
  6  5  1  0  0  0  0
  7  8  1  0  0  0  0
  7 18  1  0  0  0  0
  7  4  1  0  0  0  0
  9  2  1  0  0  0  0
 10  6  1  0  0  0  0
 11 13  1  0  0  0  0
 11 10  2  0  0  0  0
 12 16  1  1  0  0  0
 12  7  1  0  0  0  0
 13 12  1  0  0  0  0
 14 13  2  0  0  0  0
 15  2  1  0  0  0  0
 15 24  1  1  0  0  0
 19 20  1  0  0  0  0
 21 20  1  0  0  0  0
 22 23  1  0  0  0  0
 23 19  1  0  0  0  0
 24 22  1  0  0  0  0
 24 21  1  0  0  0  0
 25 26  1  0  0  0  0
 26 27  1  0  0  0  0
 27 28  1  0  0  0  0
 29 28  1  0  0  0  0
 30 31  1  0  0  0  0
 31 32  1  0  0  0  0
 33 32  2  0  0  0  0
 34 38  1  0  0  0  0
 36 32  1  6  0  0  0
 36 34  1  0  0  0  0
 37 41  1  6  0  0  0
 37 38  1  0  0  0  0
 39 35  1  6  0  0  0
 39 36  1  0  0  0  0
 39 37  1  0  0  0  0
 40 46  2  0  0  0  0
 41 44  1  0  0  0  0
 43 40  1  0  0  0  0
 44 42  2  0  0  0  0
 44 47  1  0  0  0  0
 45 40  1  0  0  0  0
 45 41  2  0  0  0  0
 46 42  1  0  0  0  0
 49 50  1  1  0  0  0
 49 57  1  0  0  0  0
 51 53  1  0  0  0  0
 52 51  2  0  0  0  0
 53 55  1  0  0  0  0
 54 47  1  6  0  0  0
 54 49  1  0  0  0  0
 54 51  1  0  0  0  0
 56 48  1  0  0  0  0
 56 55  1  0  0  0  0
 57 48  1  0  0  0  0
M  END
>  <MODEL>
9

>  <REMARK>
 VINA RESULT:      -6.7      3.074      9.167
  Name = 
  12 active torsions:
  status: ('A' for Active; 'I' for Inactive)
    1  A    between atoms: C_1  and  C_46
    2  A    between atoms: N_3  and  C_27
    3  A    between atoms: N_3  and  C_53
    4  A    between atoms: N_6  and  C_35
    5  A    between atoms: C_16  and  C_23
    6  A    between atoms: C_17  and  C_33
    7  A    between atoms: C_17  and  C_35
    8  A    between atoms: C_19  and  C_26
    9  A    between atoms: N_22  and  C_26
   10  A    between atoms: N_22  and  C_46
   11  A    between atoms: C_29  and  C_31
   12  A    between atoms: C_44  and  C_50
                            x       y       z     vdW  Elec       q    Type
                         _______ _______ _______ _____ _____    ______ ____

>  <TORSDO>
F 12

$$$$
