=
 OpenBabel11062419413D

 42 46  0  0  1  0  0  0  0  0999 V2000
  184.6760  177.8560  144.7020 N   0  0  0  0  0  0  0  0  0  0  0  0
  186.2570  178.3720  146.8760 C   0  0  0  0  0  0  0  0  0  0  0  0
  184.2490  178.7010  145.6720 C   0  0  0  0  0  3  0  0  0  0  0  0
  185.0380  178.9560  146.7440 N   0  0  0  0  0  0  0  0  0  0  0  0
  187.0520  178.6900  148.0150 N   0  0  0  0  0  1  0  0  0  0  0  0
  186.7300  177.4930  145.8810 C   0  0  0  0  0  0  0  0  0  0  0  0
  185.8960  177.2570  144.7670 C   0  0  0  0  0  0  0  0  0  0  0  0
  190.4290  176.5590  145.5330 C   0  0  0  0  0  0  0  0  0  0  0  0
  189.5640  175.0190  147.0130 C   0  0  0  0  0  3  0  0  0  0  0  0
  190.8830  178.6210  143.7600 C   0  0  0  0  0  1  0  0  0  0  0  0
  190.7270  175.4790  146.3050 C   0  0  0  0  0  0  0  0  0  0  0  0
  188.2620  175.6690  146.8850 C   0  0  0  0  0  3  0  0  0  0  0  0
  188.0400  176.8130  146.0360 C   0  0  0  0  0  0  0  0  0  0  0  0
  190.2990  177.6700  144.6840 N   0  0  0  0  0  0  0  0  0  0  0  0
  189.2020  177.1710  145.4080 C   0  0  0  0  0  0  0  0  0  0  0  0
  192.0330  174.8920  146.3490 N   0  0  0  0  0  2  0  0  0  0  0  0
  194.1780  172.3680  144.7880 C   0  0  1  0  0  3  0  0  0  0  0  0
  192.6680  170.4700  144.1860 C   0  0  0  0  0  3  0  0  0  0  0  0
  191.5750  172.9830  144.2690 S   0  0  0  0  0  0  0  0  0  0  0  0
  192.8900  171.7870  144.3020 C   0  0  0  0  0  0  0  0  0  0  0  0
  193.7290  169.4470  144.5140 C   0  0  0  0  0  2  0  0  0  0  0  0
  192.5570  173.8670  145.4960 C   0  0  0  0  0  0  0  0  0  0  0  0
  195.1150  170.0670  144.7190 C   0  0  0  0  0  2  0  0  0  0  0  0
  193.7810  173.4700  145.6470 N   0  0  0  0  0  0  0  0  0  0  0  0
  196.4040  171.8870  145.8080 C   0  0  0  0  0  1  0  0  0  0  0  0
  195.0120  171.3400  145.5560 C   0  0  1  0  0  3  0  0  0  0  0  0
  186.2890  176.2990  143.6770 C   0  0  0  0  0  2  0  0  0  0  0  0
  187.0510  176.9470  142.5120 C   0  0  1  0  0  3  0  0  0  0  0  0
  187.4540  175.9790  141.4920 N   0  0  0  0  0  2  0  0  0  0  0  0
  188.3130  174.8720  141.7760 C   0  0  0  0  0  0  0  0  0  0  0  0
  188.7190  174.6650  142.9490 O   0  0  0  0  0  0  0  0  0  0  0  0
  188.7690  173.9710  140.6740 C   0  0  1  0  0  3  0  0  0  0  0  0
  188.2970  174.4460  139.3830 N   0  0  0  0  0  1  0  0  0  0  0  0
  190.2870  173.7860  140.6720 C   0  0  0  0  0  2  0  0  0  0  0  0
  190.7100  172.4390  140.1060 C   0  0  0  0  0  2  0  0  0  0  0  0
  190.4780  171.4450  141.0530 O   0  0  0  0  0  1  0  0  0  0  0  0
  186.4210  178.1000  141.9790 O   0  0  0  0  0  0  0  0  0  0  0  0
  186.1630  177.9100  140.6130 C   0  0  0  0  0  2  0  0  0  0  0  0
  184.8510  178.5710  140.2420 C   0  0  0  0  0  2  0  0  0  0  0  0
  183.7870  178.2680  141.2830 C   0  0  0  0  0  2  0  0  0  0  0  0
  182.4070  178.1880  140.6530 C   0  0  0  0  0  2  0  0  0  0  0  0
  181.4230  178.3040  141.6350 O   0  0  0  0  0  1  0  0  0  0  0  0
  1  7  2  0  0  0  0
  1  3  1  0  0  0  0
  2  5  1  0  0  0  0
  3  4  2  0  0  0  0
  4  2  1  0  0  0  0
  6 13  1  0  0  0  0
  6  2  2  0  0  0  0
  7  6  1  0  0  0  0
  8 11  1  0  0  0  0
 10 14  1  0  0  0  0
 11 16  1  0  0  0  0
 11  9  2  0  0  0  0
 12  9  1  0  0  0  0
 13 12  2  0  0  0  0
 14 15  1  0  0  0  0
 14  8  1  0  0  0  0
 15  8  2  0  0  0  0
 15 13  1  0  0  0  0
 17 20  1  1  0  0  0
 17 26  1  0  0  0  0
 17 24  1  0  0  0  0
 18 20  2  0  0  0  0
 18 21  1  0  0  0  0
 19 20  1  0  0  0  0
 19 22  1  0  0  0  0
 21 23  1  0  0  0  0
 22 24  2  0  0  0  0
 22 16  1  0  0  0  0
 23 26  1  0  0  0  0
 26 25  1  6  0  0  0
 27  7  1  0  0  0  0
 28 27  1  1  0  0  0
 29 30  1  0  0  0  0
 29 28  1  0  0  0  0
 30 31  2  0  0  0  0
 32 33  1  6  0  0  0
 32 30  1  0  0  0  0
 34 32  1  0  0  0  0
 35 34  1  0  0  0  0
 35 36  1  0  0  0  0
 37 28  1  0  0  0  0
 38 37  1  0  0  0  0
 39 38  1  0  0  0  0
 39 40  1  0  0  0  0
 41 40  1  0  0  0  0
 41 42  1  0  0  0  0
M  END
>  <MODEL>
1

>  <REMARK>
 VINA RESULT:      -7.6      0.000      0.000
  Name = 
  13 active torsions:
  status: ('A' for Active; 'I' for Inactive)
    1  A    between atoms: N_1  and  C_8
    2  A    between atoms: C_3  and  C_41
    3  A    between atoms: C_9  and  N_24
    4  A    between atoms: C_9  and  C_27
    5  A    between atoms: C_9  and  O_32
    6  A    between atoms: C_14  and  C_28
    7  A    between atoms: C_14  and  C_41
    8  A    between atoms: C_15  and  C_33
    9  A    between atoms: C_20  and  C_22
   10  A    between atoms: C_20  and  O_32
   11  A    between atoms: C_22  and  C_33
   12  A    between atoms: C_23  and  C_34
   13  A    between atoms: C_27  and  C_40
                            x       y       z     vdW  Elec       q    Type
                         _______ _______ _______ _____ _____    ______ ____

>  <TORSDO>
F 13

$$$$
=
 OpenBabel11062419413D

 42 46  0  0  1  0  0  0  0  0999 V2000
  186.9990  176.8690  140.5190 N   0  0  0  0  0  0  0  0  0  0  0  0
  188.0360  174.7550  139.1240 C   0  0  0  0  0  0  0  0  0  0  0  0
  186.7900  176.7620  139.1840 C   0  0  0  0  0  3  0  0  0  0  0  0
  187.3030  175.7120  138.4990 N   0  0  0  0  0  0  0  0  0  0  0  0
  188.5370  173.6630  138.3580 N   0  0  0  0  0  1  0  0  0  0  0  0
  188.2670  174.8350  140.5120 C   0  0  0  0  0  0  0  0  0  0  0  0
  187.7070  175.9310  141.2050 C   0  0  0  0  0  0  0  0  0  0  0  0
  191.2730  172.8360  141.7910 C   0  0  0  0  0  0  0  0  0  0  0  0
  189.4310  171.7610  142.6620 C   0  0  0  0  0  3  0  0  0  0  0  0
  193.0530  174.5000  140.5010 C   0  0  0  0  0  1  0  0  0  0  0  0
  190.8640  171.7930  142.5640 C   0  0  0  0  0  0  0  0  0  0  0  0
  188.5790  172.7470  142.0030 C   0  0  0  0  0  3  0  0  0  0  0  0
  189.1050  173.8220  141.1980 C   0  0  0  0  0  0  0  0  0  0  0  0
  191.8690  173.8520  141.0260 N   0  0  0  0  0  0  0  0  0  0  0  0
  190.4720  173.7650  141.1660 C   0  0  0  0  0  0  0  0  0  0  0  0
  191.7760  170.8590  143.1530 N   0  0  0  0  0  2  0  0  0  0  0  0
  194.4470  170.5200  145.6340 C   0  0  1  0  0  3  0  0  0  0  0  0
  195.7280  172.6640  145.5530 C   0  0  0  0  0  3  0  0  0  0  0  0
  193.0740  172.7450  144.8670 S   0  0  0  0  0  0  0  0  0  0  0  0
  194.5630  172.0030  145.4960 C   0  0  0  0  0  0  0  0  0  0  0  0
  197.0390  171.9560  145.7960 C   0  0  0  0  0  2  0  0  0  0  0  0
  192.7280  171.1070  144.1950 C   0  0  0  0  0  0  0  0  0  0  0  0
  196.8600  170.4970  146.2270 C   0  0  0  0  0  2  0  0  0  0  0  0
  193.4570  170.1360  144.6430 N   0  0  0  0  0  0  0  0  0  0  0  0
  195.6850  168.3580  145.7790 C   0  0  0  0  0  1  0  0  0  0  0  0
  195.7840  169.8180  145.3830 C   0  0  1  0  0  3  0  0  0  0  0  0
  187.9350  176.1330  142.6770 C   0  0  0  0  0  2  0  0  0  0  0  0
  188.1930  177.5910  143.0820 C   0  0  1  0  0  3  0  0  0  0  0  0
  187.2050  178.0970  144.0350 N   0  0  0  0  0  2  0  0  0  0  0  0
  186.0870  178.8930  143.6370 C   0  0  0  0  0  0  0  0  0  0  0  0
  185.8880  179.1520  142.4210 O   0  0  0  0  0  0  0  0  0  0  0  0
  185.1640  179.4620  144.6670 C   0  0  1  0  0  3  0  0  0  0  0  0
  183.7770  179.1710  144.3410 N   0  0  0  0  0  1  0  0  0  0  0  0
  185.5100  178.9850  146.0770 C   0  0  0  0  0  2  0  0  0  0  0  0
  184.5020  177.9820  146.6170 C   0  0  0  0  0  2  0  0  0  0  0  0
  184.9750  176.6890  146.4060 O   0  0  0  0  0  1  0  0  0  0  0  0
  189.5320  177.8580  143.4620 O   0  0  0  0  0  0  0  0  0  0  0  0
  189.6970  177.5980  144.8310 C   0  0  0  0  0  2  0  0  0  0  0  0
  190.7620  176.5380  145.0270 C   0  0  0  0  0  2  0  0  0  0  0  0
  190.1260  175.1880  145.3080 C   0  0  0  0  0  2  0  0  0  0  0  0
  189.9580  174.9580  146.8010 C   0  0  0  0  0  2  0  0  0  0  0  0
  188.6430  175.2250  147.1830 O   0  0  0  0  0  1  0  0  0  0  0  0
  1  7  1  0  0  0  0
  2  6  1  0  0  0  0
  3  1  2  0  0  0  0
  4  2  2  0  0  0  0
  4  3  1  0  0  0  0
  5  2  1  0  0  0  0
  6 13  1  0  0  0  0
  6  7  2  0  0  0  0
  7 27  1  0  0  0  0
  8 11  1  0  0  0  0
 10 14  1  0  0  0  0
 11  9  2  0  0  0  0
 11 16  1  0  0  0  0
 12  9  1  0  0  0  0
 13 12  2  0  0  0  0
 14 15  1  0  0  0  0
 14  8  1  0  0  0  0
 15 13  1  0  0  0  0
 15  8  2  0  0  0  0
 16 22  1  0  0  0  0
 17 24  1  6  0  0  0
 18 21  1  0  0  0  0
 19 20  1  0  0  0  0
 20 18  2  0  0  0  0
 20 17  1  0  0  0  0
 21 23  1  0  0  0  0
 22 24  2  0  0  0  0
 22 19  1  0  0  0  0
 26 17  1  0  0  0  0
 26 25  1  1  0  0  0
 26 23  1  0  0  0  0
 28 27  1  1  0  0  0
 28 37  1  0  0  0  0
 28 29  1  0  0  0  0
 30 29  1  0  0  0  0
 30 32  1  0  0  0  0
 31 30  2  0  0  0  0
 32 33  1  6  0  0  0
 32 34  1  0  0  0  0
 34 35  1  0  0  0  0
 36 35  1  0  0  0  0
 37 38  1  0  0  0  0
 38 39  1  0  0  0  0
 39 40  1  0  0  0  0
 40 41  1  0  0  0  0
 41 42  1  0  0  0  0
M  END
>  <MODEL>
2

>  <REMARK>
 VINA RESULT:      -7.0      2.483      6.202
  Name = 
  13 active torsions:
  status: ('A' for Active; 'I' for Inactive)
    1  A    between atoms: N_1  and  C_8
    2  A    between atoms: C_3  and  C_41
    3  A    between atoms: C_9  and  N_24
    4  A    between atoms: C_9  and  C_27
    5  A    between atoms: C_9  and  O_32
    6  A    between atoms: C_14  and  C_28
    7  A    between atoms: C_14  and  C_41
    8  A    between atoms: C_15  and  C_33
    9  A    between atoms: C_20  and  C_22
   10  A    between atoms: C_20  and  O_32
   11  A    between atoms: C_22  and  C_33
   12  A    between atoms: C_23  and  C_34
   13  A    between atoms: C_27  and  C_40
                            x       y       z     vdW  Elec       q    Type
                         _______ _______ _______ _____ _____    ______ ____

>  <TORSDO>
F 13

$$$$
=
 OpenBabel11062419413D

 42 46  0  0  1  0  0  0  0  0999 V2000
  187.1260  177.0290  140.1390 N   0  0  0  0  0  0  0  0  0  0  0  0
  187.8310  174.6710  138.9390 C   0  0  0  0  0  0  0  0  0  0  0  0
  186.7510  176.7730  138.8620 C   0  0  0  0  0  3  0  0  0  0  0  0
  187.0990  175.6030  138.2740 N   0  0  0  0  0  0  0  0  0  0  0  0
  188.1540  173.4510  138.2790 N   0  0  0  0  0  1  0  0  0  0  0  0
  188.2310  174.9060  140.2700 C   0  0  0  0  0  0  0  0  0  0  0  0
  187.8410  176.1260  140.8640 C   0  0  0  0  0  0  0  0  0  0  0  0
  191.2240  172.8630  141.5120 C   0  0  0  0  0  0  0  0  0  0  0  0
  189.4070  172.0010  142.6370 C   0  0  0  0  0  3  0  0  0  0  0  0
  192.9740  174.2710  139.9130 C   0  0  0  0  0  1  0  0  0  0  0  0
  190.8270  171.9320  142.4220 C   0  0  0  0  0  0  0  0  0  0  0  0
  188.5560  172.9660  141.9460 C   0  0  0  0  0  3  0  0  0  0  0  0
  189.0690  173.9170  140.9910 C   0  0  0  0  0  0  0  0  0  0  0  0
  191.8060  173.7560  140.5970 N   0  0  0  0  0  0  0  0  0  0  0  0
  190.4240  173.7720  140.8560 C   0  0  0  0  0  0  0  0  0  0  0  0
  191.7330  171.0070  143.0330 N   0  0  0  0  0  2  0  0  0  0  0  0
  194.3350  170.6920  145.5900 C   0  0  1  0  0  3  0  0  0  0  0  0
  195.5880  172.8540  145.5560 C   0  0  0  0  0  3  0  0  0  0  0  0
  192.9550  172.9020  144.7930 S   0  0  0  0  0  0  0  0  0  0  0  0
  194.4350  172.1780  145.4620 C   0  0  0  0  0  0  0  0  0  0  0  0
  196.9010  172.1620  145.8350 C   0  0  0  0  0  2  0  0  0  0  0  0
  192.6510  171.2640  144.1040 C   0  0  0  0  0  0  0  0  0  0  0  0
  196.7300  170.6990  146.2530 C   0  0  0  0  0  2  0  0  0  0  0  0
  193.3800  170.3000  144.5680 N   0  0  0  0  0  0  0  0  0  0  0  0
  195.5980  168.5460  145.7610 C   0  0  0  0  0  1  0  0  0  0  0  0
  195.6890  170.0100  145.3750 C   0  0  1  0  0  3  0  0  0  0  0  0
  188.2580  176.4910  142.2610 C   0  0  0  0  0  2  0  0  0  0  0  0
  187.1320  177.0780  143.1240 C   0  0  1  0  0  3  0  0  0  0  0  0
  187.1810  176.6140  144.5100 N   0  0  0  0  0  2  0  0  0  0  0  0
  188.2330  176.9760  145.4070 C   0  0  0  0  0  0  0  0  0  0  0  0
  189.1460  177.7600  145.0370 O   0  0  0  0  0  0  0  0  0  0  0  0
  188.2830  176.3940  146.7840 C   0  0  1  0  0  3  0  0  0  0  0  0
  186.9470  176.2640  147.3430 N   0  0  0  0  0  1  0  0  0  0  0  0
  189.0270  175.0580  146.8180 C   0  0  0  0  0  2  0  0  0  0  0  0
  190.5380  175.2320  146.7960 C   0  0  0  0  0  2  0  0  0  0  0  0
  191.0230  175.2310  148.1010 O   0  0  0  0  0  1  0  0  0  0  0  0
  186.9830  178.4830  143.0030 O   0  0  0  0  0  0  0  0  0  0  0  0
  185.6240  178.8060  142.8720 C   0  0  0  0  0  2  0  0  0  0  0  0
  185.1710  179.6110  144.0730 C   0  0  0  0  0  2  0  0  0  0  0  0
  184.1010  178.8600  144.8460 C   0  0  0  0  0  2  0  0  0  0  0  0
  184.4980  178.6750  146.3010 C   0  0  0  0  0  2  0  0  0  0  0  0
  185.7210  179.3000  146.5480 O   0  0  0  0  0  1  0  0  0  0  0  0
  1  7  1  0  0  0  0
  2  6  1  0  0  0  0
  3  1  2  0  0  0  0
  4  3  1  0  0  0  0
  4  2  2  0  0  0  0
  5  2  1  0  0  0  0
  6  7  2  0  0  0  0
  6 13  1  0  0  0  0
  7 27  1  0  0  0  0
  8 11  1  0  0  0  0
 10 14  1  0  0  0  0
 11  9  2  0  0  0  0
 11 16  1  0  0  0  0
 12  9  1  0  0  0  0
 13 12  2  0  0  0  0
 14 15  1  0  0  0  0
 14  8  1  0  0  0  0
 15 13  1  0  0  0  0
 15  8  2  0  0  0  0
 16 22  1  0  0  0  0
 17 24  1  6  0  0  0
 18 21  1  0  0  0  0
 19 20  1  0  0  0  0
 20 18  2  0  0  0  0
 20 17  1  0  0  0  0
 21 23  1  0  0  0  0
 22 24  2  0  0  0  0
 22 19  1  0  0  0  0
 26 17  1  0  0  0  0
 26 25  1  1  0  0  0
 26 23  1  0  0  0  0
 28 27  1  1  0  0  0
 28 29  1  0  0  0  0
 29 30  1  0  0  0  0
 30 32  1  0  0  0  0
 31 30  2  0  0  0  0
 32 34  1  0  0  0  0
 32 33  1  6  0  0  0
 35 34  1  0  0  0  0
 35 36  1  0  0  0  0
 37 28  1  0  0  0  0
 38 37  1  0  0  0  0
 38 39  1  0  0  0  0
 39 40  1  0  0  0  0
 40 41  1  0  0  0  0
 41 42  1  0  0  0  0
M  END
>  <MODEL>
3

>  <REMARK>
 VINA RESULT:      -6.9      2.538      5.430
  Name = 
  13 active torsions:
  status: ('A' for Active; 'I' for Inactive)
    1  A    between atoms: N_1  and  C_8
    2  A    between atoms: C_3  and  C_41
    3  A    between atoms: C_9  and  N_24
    4  A    between atoms: C_9  and  C_27
    5  A    between atoms: C_9  and  O_32
    6  A    between atoms: C_14  and  C_28
    7  A    between atoms: C_14  and  C_41
    8  A    between atoms: C_15  and  C_33
    9  A    between atoms: C_20  and  C_22
   10  A    between atoms: C_20  and  O_32
   11  A    between atoms: C_22  and  C_33
   12  A    between atoms: C_23  and  C_34
   13  A    between atoms: C_27  and  C_40
                            x       y       z     vdW  Elec       q    Type
                         _______ _______ _______ _____ _____    ______ ____

>  <TORSDO>
F 13

$$$$
=
 OpenBabel11062419413D

 42 46  0  0  1  0  0  0  0  0999 V2000
  196.1680  172.8950  144.5230 N   0  0  0  0  0  0  0  0  0  0  0  0
  195.6270  175.5760  144.6410 C   0  0  0  0  0  0  0  0  0  0  0  0
  197.0780  173.7960  144.0780 C   0  0  0  0  0  3  0  0  0  0  0  0
  196.8060  175.1220  144.1420 N   0  0  0  0  0  0  0  0  0  0  0  0
  195.4020  176.9820  144.7010 N   0  0  0  0  0  1  0  0  0  0  0  0
  194.6630  174.6640  145.1150 C   0  0  0  0  0  0  0  0  0  0  0  0
  194.9780  173.2890  145.0520 C   0  0  0  0  0  0  0  0  0  0  0  0
  191.2890  176.4540  145.4000 C   0  0  0  0  0  0  0  0  0  0  0  0
  191.5010  175.2690  147.3650 C   0  0  0  0  0  3  0  0  0  0  0  0
  191.5880  177.6220  142.9210 C   0  0  0  0  0  1  0  0  0  0  0  0
  190.6860  176.1590  146.5840 C   0  0  0  0  0  0  0  0  0  0  0  0
  192.7920  174.7740  146.8950 C   0  0  0  0  0  3  0  0  0  0  0  0
  193.3540  175.1450  145.6190 C   0  0  0  0  0  0  0  0  0  0  0  0
  191.7620  176.8640  144.1430 N   0  0  0  0  0  0  0  0  0  0  0  0
  192.5080  175.9920  144.9560 C   0  0  0  0  0  0  0  0  0  0  0  0
  189.4240  176.7130  146.9720 N   0  0  0  0  0  2  0  0  0  0  0  0
  186.0290  177.4100  145.7900 C   0  0  1  0  0  3  0  0  0  0  0  0
  186.2610  178.0300  143.3810 C   0  0  0  0  0  3  0  0  0  0  0  0
  188.1420  176.3410  144.4430 S   0  0  0  0  0  0  0  0  0  0  0  0
  186.6350  177.2850  144.4300 C   0  0  0  0  0  0  0  0  0  0  0  0
  185.1570  179.0550  143.4790 C   0  0  0  0  0  2  0  0  0  0  0  0
  188.2290  176.7940  146.1860 C   0  0  0  0  0  0  0  0  0  0  0  0
  184.3620  178.9540  144.7850 C   0  0  0  0  0  2  0  0  0  0  0  0
  187.1530  177.2970  146.7030 N   0  0  0  0  0  0  0  0  0  0  0  0
  184.4950  178.7280  147.2520 C   0  0  0  0  0  1  0  0  0  0  0  0
  185.3020  178.7460  145.9690 C   0  0  1  0  0  3  0  0  0  0  0  0
  193.9980  172.2360  145.4890 C   0  0  0  0  0  2  0  0  0  0  0  0
  193.2800  171.5250  144.3330 C   0  0  1  0  0  3  0  0  0  0  0  0
  192.6060  172.4560  143.4280 N   0  0  0  0  0  2  0  0  0  0  0  0
  191.2240  172.7950  143.5600 C   0  0  0  0  0  0  0  0  0  0  0  0
  190.5400  172.3300  144.5090 O   0  0  0  0  0  0  0  0  0  0  0  0
  190.5650  173.6770  142.5480 C   0  0  1  0  0  3  0  0  0  0  0  0
  191.5480  174.2730  141.6580 N   0  0  0  0  0  1  0  0  0  0  0  0
  189.4820  172.9400  141.7600 C   0  0  0  0  0  2  0  0  0  0  0  0
  188.1350  173.6420  141.8220 C   0  0  0  0  0  2  0  0  0  0  0  0
  188.1880  174.8130  141.0690 O   0  0  0  0  0  1  0  0  0  0  0  0
  194.0760  170.5620  143.6630 O   0  0  0  0  0  0  0  0  0  0  0  0
  194.0600  169.3540  144.3770 C   0  0  0  0  0  2  0  0  0  0  0  0
  195.4750  168.8350  144.5370 C   0  0  0  0  0  2  0  0  0  0  0  0
  195.6560  168.1900  145.9000 C   0  0  0  0  0  2  0  0  0  0  0  0
  194.3490  168.1660  146.6750 C   0  0  0  0  0  2  0  0  0  0  0  0
  194.5220  168.7570  147.9280 O   0  0  0  0  0  1  0  0  0  0  0  0
  1  7  1  0  0  0  0
  2  5  1  0  0  0  0
  2  6  1  0  0  0  0
  3  4  1  0  0  0  0
  3  1  2  0  0  0  0
  4  2  2  0  0  0  0
  6 13  1  0  0  0  0
  7  6  2  0  0  0  0
  7 27  1  0  0  0  0
  8 11  1  0  0  0  0
 10 14  1  0  0  0  0
 11 16  1  0  0  0  0
 11  9  2  0  0  0  0
 12  9  1  0  0  0  0
 13 12  2  0  0  0  0
 14 15  1  0  0  0  0
 14  8  1  0  0  0  0
 15  8  2  0  0  0  0
 15 13  1  0  0  0  0
 17 20  1  6  0  0  0
 17 26  1  0  0  0  0
 17 24  1  0  0  0  0
 18 21  1  0  0  0  0
 18 20  2  0  0  0  0
 19 22  1  0  0  0  0
 20 19  1  0  0  0  0
 21 23  1  0  0  0  0
 22 24  2  0  0  0  0
 22 16  1  0  0  0  0
 23 26  1  0  0  0  0
 26 25  1  1  0  0  0
 28 27  1  1  0  0  0
 29 30  1  0  0  0  0
 29 28  1  0  0  0  0
 30 31  2  0  0  0  0
 32 33  1  6  0  0  0
 32 30  1  0  0  0  0
 34 35  1  0  0  0  0
 34 32  1  0  0  0  0
 36 35  1  0  0  0  0
 37 28  1  0  0  0  0
 37 38  1  0  0  0  0
 38 39  1  0  0  0  0
 39 40  1  0  0  0  0
 40 41  1  0  0  0  0
 41 42  1  0  0  0  0
M  END
>  <MODEL>
4

>  <REMARK>
 VINA RESULT:      -6.7      2.607      9.302
  Name = 
  13 active torsions:
  status: ('A' for Active; 'I' for Inactive)
    1  A    between atoms: N_1  and  C_8
    2  A    between atoms: C_3  and  C_41
    3  A    between atoms: C_9  and  N_24
    4  A    between atoms: C_9  and  C_27
    5  A    between atoms: C_9  and  O_32
    6  A    between atoms: C_14  and  C_28
    7  A    between atoms: C_14  and  C_41
    8  A    between atoms: C_15  and  C_33
    9  A    between atoms: C_20  and  C_22
   10  A    between atoms: C_20  and  O_32
   11  A    between atoms: C_22  and  C_33
   12  A    between atoms: C_23  and  C_34
   13  A    between atoms: C_27  and  C_40
                            x       y       z     vdW  Elec       q    Type
                         _______ _______ _______ _____ _____    ______ ____

>  <TORSDO>
F 13

$$$$
=
 OpenBabel11062419413D

 42 46  0  0  1  0  0  0  0  0999 V2000
  193.9590  169.8940  142.3520 N   0  0  0  0  0  0  0  0  0  0  0  0
  192.7470  171.0250  140.1750 C   0  0  0  0  0  0  0  0  0  0  0  0
  194.2250  169.4330  141.1060 C   0  0  0  0  0  3  0  0  0  0  0  0
  193.6250  169.9990  140.0310 N   0  0  0  0  0  0  0  0  0  0  0  0
  192.1580  171.5950  139.0080 N   0  0  0  0  0  1  0  0  0  0  0  0
  192.4540  171.5300  141.4570 C   0  0  0  0  0  0  0  0  0  0  0  0
  193.1060  170.9330  142.5590 C   0  0  0  0  0  0  0  0  0  0  0  0
  190.8580  174.9630  142.0370 C   0  0  0  0  0  0  0  0  0  0  0  0
  189.0820  173.5240  141.7460 C   0  0  0  0  0  3  0  0  0  0  0  0
  193.3210  176.1730  142.2990 C   0  0  0  0  0  1  0  0  0  0  0  0
  189.5000  174.8770  141.9940 C   0  0  0  0  0  0  0  0  0  0  0  0
  190.0340  172.4310  141.5660 C   0  0  0  0  0  3  0  0  0  0  0  0
  191.4620  172.6190  141.6310 C   0  0  0  0  0  0  0  0  0  0  0  0
  192.2340  175.2350  142.1140 N   0  0  0  0  0  0  0  0  0  0  0  0
  191.7570  173.9340  141.8710 C   0  0  0  0  0  0  0  0  0  0  0  0
  188.6430  176.0040  142.2060 N   0  0  0  0  0  2  0  0  0  0  0  0
  187.2080  178.1620  144.7940 C   0  0  1  0  0  3  0  0  0  0  0  0
  186.7740  176.6760  146.7550 C   0  0  0  0  0  3  0  0  0  0  0  0
  188.8130  175.9760  145.0610 S   0  0  0  0  0  0  0  0  0  0  0  0
  187.5370  177.0300  145.7120 C   0  0  0  0  0  0  0  0  0  0  0  0
  185.5100  177.4220  147.1120 C   0  0  0  0  0  2  0  0  0  0  0  0
  188.3140  176.6260  143.4550 C   0  0  0  0  0  0  0  0  0  0  0  0
  185.3580  178.7400  146.3480 C   0  0  0  0  0  2  0  0  0  0  0  0
  187.5450  177.6680  143.4700 N   0  0  0  0  0  0  0  0  0  0  0  0
  185.4960  179.8530  144.1330 C   0  0  0  0  0  1  0  0  0  0  0  0
  185.7310  178.5530  144.8790 C   0  0  1  0  0  3  0  0  0  0  0  0
  192.8250  171.3680  143.9700 C   0  0  0  0  0  2  0  0  0  0  0  0
  194.0110  172.0480  144.6690 C   0  0  1  0  0  3  0  0  0  0  0  0
  194.8870  172.7570  143.7350 N   0  0  0  0  0  2  0  0  0  0  0  0
  196.3080  172.7890  143.8840 C   0  0  0  0  0  0  0  0  0  0  0  0
  196.8660  172.1560  144.8180 O   0  0  0  0  0  0  0  0  0  0  0  0
  197.1440  173.6090  142.9540 C   0  0  1  0  0  3  0  0  0  0  0  0
  196.4090  173.9340  141.7420 N   0  0  0  0  0  1  0  0  0  0  0  0
  197.6820  174.8720  143.6270 C   0  0  0  0  0  2  0  0  0  0  0  0
  197.6080  176.0920  142.7220 C   0  0  0  0  0  2  0  0  0  0  0  0
  196.9160  177.1110  143.3720 O   0  0  0  0  0  1  0  0  0  0  0  0
  193.6490  172.8200  145.8010 O   0  0  0  0  0  0  0  0  0  0  0  0
  192.8750  173.9180  145.3970 C   0  0  0  0  0  2  0  0  0  0  0  0
  192.6690  174.8590  146.5680 C   0  0  0  0  0  2  0  0  0  0  0  0
  192.9950  176.2870  146.1680 C   0  0  0  0  0  2  0  0  0  0  0  0
  194.4960  176.5250  146.1510 C   0  0  0  0  0  2  0  0  0  0  0  0
  194.7690  177.8460  145.7940 O   0  0  0  0  0  1  0  0  0  0  0  0
  1  7  1  0  0  0  0
  2  6  1  0  0  0  0
  3  1  2  0  0  0  0
  4  2  2  0  0  0  0
  4  3  1  0  0  0  0
  5  2  1  0  0  0  0
  6 13  1  0  0  0  0
  6  7  2  0  0  0  0
  7 27  1  0  0  0  0
  8 14  1  0  0  0  0
  9 11  2  0  0  0  0
 11  8  1  0  0  0  0
 11 16  1  0  0  0  0
 12 13  2  0  0  0  0
 12  9  1  0  0  0  0
 13 15  1  0  0  0  0
 14 10  1  0  0  0  0
 15  8  2  0  0  0  0
 15 14  1  0  0  0  0
 16 22  1  0  0  0  0
 17 24  1  6  0  0  0
 17 26  1  0  0  0  0
 17 20  1  0  0  0  0
 18 21  1  0  0  0  0
 19 20  1  0  0  0  0
 20 18  2  0  0  0  0
 22 24  2  0  0  0  0
 22 19  1  0  0  0  0
 23 21  1  0  0  0  0
 26 25  1  6  0  0  0
 26 23  1  0  0  0  0
 28 27  1  6  0  0  0
 28 37  1  0  0  0  0
 29 30  1  0  0  0  0
 29 28  1  0  0  0  0
 30 31  2  0  0  0  0
 32 33  1  6  0  0  0
 32 34  1  0  0  0  0
 32 30  1  0  0  0  0
 35 36  1  0  0  0  0
 35 34  1  0  0  0  0
 38 37  1  0  0  0  0
 38 39  1  0  0  0  0
 40 39  1  0  0  0  0
 41 40  1  0  0  0  0
 42 41  1  0  0  0  0
M  END
>  <MODEL>
5

>  <REMARK>
 VINA RESULT:      -6.6      3.809      9.457
  Name = 
  13 active torsions:
  status: ('A' for Active; 'I' for Inactive)
    1  A    between atoms: N_1  and  C_8
    2  A    between atoms: C_3  and  C_41
    3  A    between atoms: C_9  and  N_24
    4  A    between atoms: C_9  and  C_27
    5  A    between atoms: C_9  and  O_32
    6  A    between atoms: C_14  and  C_28
    7  A    between atoms: C_14  and  C_41
    8  A    between atoms: C_15  and  C_33
    9  A    between atoms: C_20  and  C_22
   10  A    between atoms: C_20  and  O_32
   11  A    between atoms: C_22  and  C_33
   12  A    between atoms: C_23  and  C_34
   13  A    between atoms: C_27  and  C_40
                            x       y       z     vdW  Elec       q    Type
                         _______ _______ _______ _____ _____    ______ ____

>  <TORSDO>
F 13

$$$$
=
 OpenBabel11062419413D

 42 46  0  0  1  0  0  0  0  0999 V2000
  190.2020  176.9440  147.8910 N   0  0  0  0  0  0  0  0  0  0  0  0
  192.4230  175.8100  146.7620 C   0  0  0  0  0  0  0  0  0  0  0  0
  191.4410  177.3240  148.2890 C   0  0  0  0  0  3  0  0  0  0  0  0
  192.5370  176.7620  147.7240 N   0  0  0  0  0  0  0  0  0  0  0  0
  193.6090  175.2650  146.1900 N   0  0  0  0  0  1  0  0  0  0  0  0
  191.1490  175.3970  146.3240 C   0  0  0  0  0  0  0  0  0  0  0  0
  190.0230  176.0110  146.9170 C   0  0  0  0  0  0  0  0  0  0  0  0
  191.6440  173.2320  143.2030 C   0  0  0  0  0  0  0  0  0  0  0  0
  189.9480  172.2050  144.3760 C   0  0  0  0  0  3  0  0  0  0  0  0
  193.6630  174.8630  142.2720 C   0  0  0  0  0  1  0  0  0  0  0  0
  190.7810  172.1800  143.2050 C   0  0  0  0  0  0  0  0  0  0  0  0
  190.0620  173.2430  145.3970 C   0  0  0  0  0  3  0  0  0  0  0  0
  191.0110  174.3260  145.3070 C   0  0  0  0  0  0  0  0  0  0  0  0
  192.5970  174.2510  143.0390 N   0  0  0  0  0  0  0  0  0  0  0  0
  191.7520  174.2140  144.1620 C   0  0  0  0  0  0  0  0  0  0  0  0
  190.7240  171.2200  142.1440 N   0  0  0  0  0  2  0  0  0  0  0  0
  190.9520  170.8360  138.5100 C   0  0  1  0  0  3  0  0  0  0  0  0
  189.9110  172.8900  137.5410 C   0  0  0  0  0  3  0  0  0  0  0  0
  191.0680  173.1020  140.0180 S   0  0  0  0  0  0  0  0  0  0  0  0
  190.6590  172.3010  138.4840 C   0  0  0  0  0  0  0  0  0  0  0  0
  189.3170  172.1150  136.3900 C   0  0  0  0  0  2  0  0  0  0  0  0
  190.8980  171.4590  140.7420 C   0  0  0  0  0  0  0  0  0  0  0  0
  189.8720  170.6920  136.2770 C   0  0  0  0  0  2  0  0  0  0  0  0
  190.8510  170.4670  139.9110 N   0  0  0  0  0  0  0  0  0  0  0  0
  190.4400  168.6110  137.5030 C   0  0  0  0  0  1  0  0  0  0  0  0
  189.9620  170.0420  137.6550 C   0  0  1  0  0  3  0  0  0  0  0  0
  188.6220  175.6070  146.5520 C   0  0  0  0  0  2  0  0  0  0  0  0
  187.6680  176.7860  146.3110 C   0  0  1  0  0  3  0  0  0  0  0  0
  187.2560  176.9020  144.9120 N   0  0  0  0  0  2  0  0  0  0  0  0
  188.0830  177.5030  143.9120 C   0  0  0  0  0  0  0  0  0  0  0  0
  189.2360  177.9170  144.2020 O   0  0  0  0  0  0  0  0  0  0  0  0
  187.5710  177.6810  142.5190 C   0  0  1  0  0  3  0  0  0  0  0  0
  188.5790  178.2920  141.6670 N   0  0  0  0  0  1  0  0  0  0  0  0
  187.0640  176.3690  141.9190 C   0  0  0  0  0  2  0  0  0  0  0  0
  188.1960  175.4270  141.5370 C   0  0  0  0  0  2  0  0  0  0  0  0
  188.1110  174.2670  142.3020 O   0  0  0  0  0  1  0  0  0  0  0  0
  186.5870  176.8510  147.2250 O   0  0  0  0  0  0  0  0  0  0  0  0
  185.3780  176.9600  146.5220 C   0  0  0  0  0  2  0  0  0  0  0  0
  184.7040  178.2750  146.8600 C   0  0  0  0  0  2  0  0  0  0  0  0
  183.7350  178.6750  145.7610 C   0  0  0  0  0  2  0  0  0  0  0  0
  184.4740  179.1410  144.5180 C   0  0  0  0  0  2  0  0  0  0  0  0
  184.1960  178.2900  143.4470 O   0  0  0  0  0  1  0  0  0  0  0  0
  1  3  1  0  0  0  0
  2  4  1  0  0  0  0
  4  3  2  0  0  0  0
  5  2  1  0  0  0  0
  6  2  2  0  0  0  0
  6  7  1  0  0  0  0
  7  1  2  0  0  0  0
  8 11  2  0  0  0  0
  8 15  1  0  0  0  0
  9 12  2  0  0  0  0
 10 14  1  0  0  0  0
 11  9  1  0  0  0  0
 13 12  1  0  0  0  0
 13  6  1  0  0  0  0
 14  8  1  0  0  0  0
 14 15  1  0  0  0  0
 15 13  2  0  0  0  0
 16 11  1  0  0  0  0
 17 20  1  1  0  0  0
 17 24  1  0  0  0  0
 18 20  2  0  0  0  0
 19 22  1  0  0  0  0
 20 19  1  0  0  0  0
 21 18  1  0  0  0  0
 22 16  1  0  0  0  0
 23 21  1  0  0  0  0
 23 26  1  0  0  0  0
 24 22  2  0  0  0  0
 26 25  1  6  0  0  0
 26 17  1  0  0  0  0
 27  7  1  0  0  0  0
 28 27  1  6  0  0  0
 28 37  1  0  0  0  0
 29 28  1  0  0  0  0
 30 31  2  0  0  0  0
 30 29  1  0  0  0  0
 32 33  1  6  0  0  0
 32 30  1  0  0  0  0
 34 32  1  0  0  0  0
 35 34  1  0  0  0  0
 35 36  1  0  0  0  0
 38 39  1  0  0  0  0
 38 37  1  0  0  0  0
 40 39  1  0  0  0  0
 41 40  1  0  0  0  0
 42 41  1  0  0  0  0
M  END
>  <MODEL>
6

>  <REMARK>
 VINA RESULT:      -6.5      2.817      5.874
  Name = 
  13 active torsions:
  status: ('A' for Active; 'I' for Inactive)
    1  A    between atoms: N_1  and  C_8
    2  A    between atoms: C_3  and  C_41
    3  A    between atoms: C_9  and  N_24
    4  A    between atoms: C_9  and  C_27
    5  A    between atoms: C_9  and  O_32
    6  A    between atoms: C_14  and  C_28
    7  A    between atoms: C_14  and  C_41
    8  A    between atoms: C_15  and  C_33
    9  A    between atoms: C_20  and  C_22
   10  A    between atoms: C_20  and  O_32
   11  A    between atoms: C_22  and  C_33
   12  A    between atoms: C_23  and  C_34
   13  A    between atoms: C_27  and  C_40
                            x       y       z     vdW  Elec       q    Type
                         _______ _______ _______ _____ _____    ______ ____

>  <TORSDO>
F 13

$$$$
=
 OpenBabel11062419413D

 42 46  0  0  1  0  0  0  0  0999 V2000
  188.2860  178.0360  143.1340 N   0  0  0  0  0  0  0  0  0  0  0  0
  188.6500  175.7030  141.7500 C   0  0  0  0  0  0  0  0  0  0  0  0
  187.6180  177.8170  141.9760 C   0  0  0  0  0  3  0  0  0  0  0  0
  187.7990  176.6590  141.2970 N   0  0  0  0  0  0  0  0  0  0  0  0
  188.7890  174.4960  141.0050 N   0  0  0  0  0  1  0  0  0  0  0  0
  189.3560  175.8990  142.9540 C   0  0  0  0  0  0  0  0  0  0  0  0
  189.1360  177.1080  143.6510 C   0  0  0  0  0  0  0  0  0  0  0  0
  192.5980  173.9980  143.6940 C   0  0  0  0  0  0  0  0  0  0  0  0
  190.9290  172.7120  144.6270 C   0  0  0  0  0  3  0  0  0  0  0  0
  194.1240  175.9070  142.4180 C   0  0  0  0  0  1  0  0  0  0  0  0
  192.3380  172.8550  144.3870 C   0  0  0  0  0  0  0  0  0  0  0  0
  189.9520  173.6970  144.1690 C   0  0  0  0  0  3  0  0  0  0  0  0
  190.3230  174.8830  143.4360 C   0  0  0  0  0  0  0  0  0  0  0  0
  193.0440  175.1270  142.9880 N   0  0  0  0  0  0  0  0  0  0  0  0
  191.6790  174.9270  143.2590 C   0  0  0  0  0  0  0  0  0  0  0  0
  193.3630  171.9330  144.7740 N   0  0  0  0  0  2  0  0  0  0  0  0
  196.3470  170.1780  143.5800 C   0  0  1  0  0  3  0  0  0  0  0  0
  195.9040  169.6390  141.1800 C   0  0  0  0  0  3  0  0  0  0  0  0
  194.6700  171.8500  142.2320 S   0  0  0  0  0  0  0  0  0  0  0  0
  195.7980  170.4750  142.2220 C   0  0  0  0  0  0  0  0  0  0  0  0
  196.6260  168.3170  141.2860 C   0  0  0  0  0  2  0  0  0  0  0  0
  194.4620  171.4670  143.9820 C   0  0  0  0  0  0  0  0  0  0  0  0
  197.4250  168.1730  142.5850 C   0  0  0  0  0  2  0  0  0  0  0  0
  195.3270  170.6540  144.4990 N   0  0  0  0  0  0  0  0  0  0  0  0
  197.3960  168.4560  145.0500 C   0  0  0  0  0  1  0  0  0  0  0  0
  196.6120  168.6830  143.7720 C   0  0  1  0  0  3  0  0  0  0  0  0
  189.8760  177.4320  144.9190 C   0  0  0  0  0  2  0  0  0  0  0  0
  189.0350  177.2840  146.1950 C   0  0  1  0  0  3  0  0  0  0  0  0
  187.5980  177.2360  145.9240 N   0  0  0  0  0  2  0  0  0  0  0  0
  186.6310  177.8490  146.7790 C   0  0  0  0  0  0  0  0  0  0  0  0
  186.9970  178.5040  147.7900 O   0  0  0  0  0  0  0  0  0  0  0  0
  185.1710  177.6850  146.5030 C   0  0  1  0  0  3  0  0  0  0  0  0
  184.3830  178.6110  147.3020 N   0  0  0  0  0  1  0  0  0  0  0  0
  184.8460  177.8260  145.0160 C   0  0  0  0  0  2  0  0  0  0  0  0
  184.4550  179.2460  144.6360 C   0  0  0  0  0  2  0  0  0  0  0  0
  185.5340  179.8750  144.0200 O   0  0  0  0  0  1  0  0  0  0  0  0
  189.4800  176.2560  147.0640 O   0  0  0  0  0  0  0  0  0  0  0  0
  190.8010  176.5110  147.4610 C   0  0  0  0  0  2  0  0  0  0  0  0
  191.5770  175.2110  147.5260 C   0  0  0  0  0  2  0  0  0  0  0  0
  192.9230  175.3580  146.8380 C   0  0  0  0  0  2  0  0  0  0  0  0
  193.4190  176.7920  146.8990 C   0  0  0  0  0  2  0  0  0  0  0  0
  194.0000  177.1520  145.6820 O   0  0  0  0  0  1  0  0  0  0  0  0
  1  7  1  0  0  0  0
  2  6  1  0  0  0  0
  3  1  2  0  0  0  0
  4  2  2  0  0  0  0
  4  3  1  0  0  0  0
  5  2  1  0  0  0  0
  6 13  1  0  0  0  0
  6  7  2  0  0  0  0
  7 27  1  0  0  0  0
  8 11  1  0  0  0  0
 10 14  1  0  0  0  0
 11  9  2  0  0  0  0
 11 16  1  0  0  0  0
 12  9  1  0  0  0  0
 13 12  2  0  0  0  0
 14 15  1  0  0  0  0
 14  8  1  0  0  0  0
 15 13  1  0  0  0  0
 15  8  2  0  0  0  0
 17 20  1  6  0  0  0
 17 26  1  0  0  0  0
 17 24  1  0  0  0  0
 18 21  1  0  0  0  0
 18 20  2  0  0  0  0
 19 22  1  0  0  0  0
 20 19  1  0  0  0  0
 21 23  1  0  0  0  0
 22 24  2  0  0  0  0
 22 16  1  0  0  0  0
 23 26  1  0  0  0  0
 26 25  1  1  0  0  0
 28 27  1  6  0  0  0
 28 37  1  0  0  0  0
 29 28  1  0  0  0  0
 29 30  1  0  0  0  0
 30 31  2  0  0  0  0
 32 30  1  0  0  0  0
 32 33  1  1  0  0  0
 34 32  1  0  0  0  0
 35 34  1  0  0  0  0
 36 35  1  0  0  0  0
 37 38  1  0  0  0  0
 38 39  1  0  0  0  0
 40 41  1  0  0  0  0
 40 39  1  0  0  0  0
 42 41  1  0  0  0  0
M  END
>  <MODEL>
7

>  <REMARK>
 VINA RESULT:      -6.4      2.722      6.446
  Name = 
  13 active torsions:
  status: ('A' for Active; 'I' for Inactive)
    1  A    between atoms: N_1  and  C_8
    2  A    between atoms: C_3  and  C_41
    3  A    between atoms: C_9  and  N_24
    4  A    between atoms: C_9  and  C_27
    5  A    between atoms: C_9  and  O_32
    6  A    between atoms: C_14  and  C_28
    7  A    between atoms: C_14  and  C_41
    8  A    between atoms: C_15  and  C_33
    9  A    between atoms: C_20  and  C_22
   10  A    between atoms: C_20  and  O_32
   11  A    between atoms: C_22  and  C_33
   12  A    between atoms: C_23  and  C_34
   13  A    between atoms: C_27  and  C_40
                            x       y       z     vdW  Elec       q    Type
                         _______ _______ _______ _____ _____    ______ ____

>  <TORSDO>
F 13

$$$$
=
 OpenBabel11062419413D

 42 46  0  0  1  0  0  0  0  0999 V2000
  185.1140  178.9470  144.7160 N   0  0  0  0  0  0  0  0  0  0  0  0
  186.7100  177.2530  146.1550 C   0  0  0  0  0  0  0  0  0  0  0  0
  184.7060  178.4840  145.9220 C   0  0  0  0  0  3  0  0  0  0  0  0
  185.5020  177.6480  146.6330 N   0  0  0  0  0  0  0  0  0  0  0  0
  187.5140  176.3870  146.9520 N   0  0  0  0  0  1  0  0  0  0  0  0
  187.1640  177.7210  144.9060 C   0  0  0  0  0  0  0  0  0  0  0  0
  186.3220  178.6040  144.1940 C   0  0  0  0  0  0  0  0  0  0  0  0
  189.8320  175.7150  143.0270 C   0  0  0  0  0  0  0  0  0  0  0  0
  190.9840  177.4360  144.0360 C   0  0  0  0  0  3  0  0  0  0  0  0
  187.9610  173.9200  142.0890 C   0  0  0  0  0  1  0  0  0  0  0  0
  191.0620  176.2700  143.2000 C   0  0  0  0  0  0  0  0  0  0  0  0
  189.7220  177.9180  144.5920 C   0  0  0  0  0  3  0  0  0  0  0  0
  188.4610  177.2600  144.3530 C   0  0  0  0  0  0  0  0  0  0  0  0
  188.6480  175.0150  142.7430 N   0  0  0  0  0  0  0  0  0  0  0  0
  188.6410  176.1650  143.5510 C   0  0  0  0  0  0  0  0  0  0  0  0
  192.2530  175.7110  142.6340 N   0  0  0  0  0  2  0  0  0  0  0  0
  195.1230  173.5550  143.3560 C   0  0  1  0  0  3  0  0  0  0  0  0
  195.7210  173.9940  145.7420 C   0  0  0  0  0  3  0  0  0  0  0  0
  193.1050  174.3550  145.0030 S   0  0  0  0  0  0  0  0  0  0  0  0
  194.7950  173.8460  144.7840 C   0  0  0  0  0  0  0  0  0  0  0  0
  197.1970  173.8470  145.4580 C   0  0  0  0  0  2  0  0  0  0  0  0
  193.1840  174.8220  143.2630 C   0  0  0  0  0  0  0  0  0  0  0  0
  197.4840  173.2620  144.0720 C   0  0  0  0  0  2  0  0  0  0  0  0
  194.1990  174.3770  142.5940 N   0  0  0  0  0  0  0  0  0  0  0  0
  196.9370  173.3590  141.6530 C   0  0  0  0  0  1  0  0  0  0  0  0
  196.5770  173.9000  143.0240 C   0  0  1  0  0  3  0  0  0  0  0  0
  186.6950  179.1210  142.8330 C   0  0  0  0  0  2  0  0  0  0  0  0
  186.2980  178.1920  141.6750 C   0  0  1  0  0  3  0  0  0  0  0  0
  185.0560  178.6040  141.0210 N   0  0  0  0  0  2  0  0  0  0  0  0
  183.7660  178.2210  141.5050 C   0  0  0  0  0  0  0  0  0  0  0  0
  183.6560  177.5430  142.5600 O   0  0  0  0  0  0  0  0  0  0  0  0
  182.5350  178.5900  140.7410 C   0  0  1  0  0  3  0  0  0  0  0  0
  182.1560  177.5300  139.8200 N   0  0  0  0  0  1  0  0  0  0  0  0
  181.3740  178.9600  141.6640 C   0  0  0  0  0  2  0  0  0  0  0  0
  180.0600  178.3270  141.2310 C   0  0  0  0  0  2  0  0  0  0  0  0
  179.0020  179.1470  141.6130 O   0  0  0  0  0  1  0  0  0  0  0  0
  187.3510  177.9190  140.7670 O   0  0  0  0  0  0  0  0  0  0  0  0
  187.0640  176.7510  140.0450 C   0  0  0  0  0  2  0  0  0  0  0  0
  186.6310  177.1100  138.6380 C   0  0  0  0  0  2  0  0  0  0  0  0
  186.9810  175.9930  137.6710 C   0  0  0  0  0  2  0  0  0  0  0  0
  186.8520  176.4530  136.2280 C   0  0  0  0  0  2  0  0  0  0  0  0
  187.7560  177.4840  135.9700 O   0  0  0  0  0  1  0  0  0  0  0  0
  1  3  1  0  0  0  0
  2  4  1  0  0  0  0
  2  5  1  0  0  0  0
  3  4  2  0  0  0  0
  6  2  2  0  0  0  0
  7  1  2  0  0  0  0
  7  6  1  0  0  0  0
  8 11  2  0  0  0  0
  8 15  1  0  0  0  0
  9 12  2  0  0  0  0
 10 14  1  0  0  0  0
 11  9  1  0  0  0  0
 13 12  1  0  0  0  0
 13  6  1  0  0  0  0
 14  8  1  0  0  0  0
 14 15  1  0  0  0  0
 15 13  2  0  0  0  0
 16 11  1  0  0  0  0
 16 22  1  0  0  0  0
 17 24  1  6  0  0  0
 17 20  1  0  0  0  0
 20 19  1  0  0  0  0
 20 18  2  0  0  0  0
 21 18  1  0  0  0  0
 22 19  1  0  0  0  0
 23 21  1  0  0  0  0
 24 22  2  0  0  0  0
 26 25  1  6  0  0  0
 26 17  1  0  0  0  0
 26 23  1  0  0  0  0
 27  7  1  0  0  0  0
 28 27  1  1  0  0  0
 29 30  1  0  0  0  0
 29 28  1  0  0  0  0
 30 31  2  0  0  0  0
 32 33  1  1  0  0  0
 32 30  1  0  0  0  0
 32 34  1  0  0  0  0
 35 36  1  0  0  0  0
 35 34  1  0  0  0  0
 37 28  1  0  0  0  0
 38 37  1  0  0  0  0
 39 38  1  0  0  0  0
 40 39  1  0  0  0  0
 41 40  1  0  0  0  0
 42 41  1  0  0  0  0
M  END
>  <MODEL>
8

>  <REMARK>
 VINA RESULT:      -6.3      2.665      5.062
  Name = 
  13 active torsions:
  status: ('A' for Active; 'I' for Inactive)
    1  A    between atoms: N_1  and  C_8
    2  A    between atoms: C_3  and  C_41
    3  A    between atoms: C_9  and  N_24
    4  A    between atoms: C_9  and  C_27
    5  A    between atoms: C_9  and  O_32
    6  A    between atoms: C_14  and  C_28
    7  A    between atoms: C_14  and  C_41
    8  A    between atoms: C_15  and  C_33
    9  A    between atoms: C_20  and  C_22
   10  A    between atoms: C_20  and  O_32
   11  A    between atoms: C_22  and  C_33
   12  A    between atoms: C_23  and  C_34
   13  A    between atoms: C_27  and  C_40
                            x       y       z     vdW  Elec       q    Type
                         _______ _______ _______ _____ _____    ______ ____

>  <TORSDO>
F 13

$$$$
=
 OpenBabel11062419413D

 42 46  0  0  1  0  0  0  0  0999 V2000
  194.5440  171.1680  142.1200 N   0  0  0  0  0  0  0  0  0  0  0  0
  193.8140  172.9730  140.1970 C   0  0  0  0  0  0  0  0  0  0  0  0
  195.1170  171.1270  140.8930 C   0  0  0  0  0  3  0  0  0  0  0  0
  194.7540  172.0260  139.9450 N   0  0  0  0  0  0  0  0  0  0  0  0
  193.4840  173.9040  139.1700 N   0  0  0  0  0  1  0  0  0  0  0  0
  193.2040  173.0430  141.4660 C   0  0  0  0  0  0  0  0  0  0  0  0
  193.6130  172.1060  142.4400 C   0  0  0  0  0  0  0  0  0  0  0  0
  189.8260  174.8430  141.6130 C   0  0  0  0  0  0  0  0  0  0  0  0
  191.2980  176.2530  142.6880 C   0  0  0  0  0  3  0  0  0  0  0  0
  188.5670  172.7980  140.2590 C   0  0  0  0  0  1  0  0  0  0  0  0
  189.9430  176.0350  142.2600 C   0  0  0  0  0  0  0  0  0  0  0  0
  192.3630  175.2860  142.4380 C   0  0  0  0  0  3  0  0  0  0  0  0
  192.1440  174.0440  141.7390 C   0  0  0  0  0  0  0  0  0  0  0  0
  189.5250  173.6560  140.9240 N   0  0  0  0  0  0  0  0  0  0  0  0
  190.8290  173.9310  141.3730 C   0  0  0  0  0  0  0  0  0  0  0  0
  188.8430  176.9340  142.4370 N   0  0  0  0  0  2  0  0  0  0  0  0
  186.6040  178.3840  144.9450 C   0  0  1  0  0  3  0  0  0  0  0  0
  186.2040  176.5790  146.6260 C   0  0  0  0  0  3  0  0  0  0  0  0
  188.5780  176.5330  145.2560 S   0  0  0  0  0  0  0  0  0  0  0  0
  187.0230  177.2180  145.7800 C   0  0  0  0  0  0  0  0  0  0  0  0
  184.7710  177.0090  146.8310 C   0  0  0  0  0  2  0  0  0  0  0  0
  188.2030  177.2970  143.6670 C   0  0  0  0  0  0  0  0  0  0  0  0
  184.4580  178.3680  146.1980 C   0  0  0  0  0  2  0  0  0  0  0  0
  187.2360  178.1580  143.6570 N   0  0  0  0  0  0  0  0  0  0  0  0
  184.6900  179.7900  144.1770 C   0  0  0  0  0  1  0  0  0  0  0  0
  185.0810  178.4670  144.8080 C   0  0  1  0  0  3  0  0  0  0  0  0
  192.9890  172.0680  143.8070 C   0  0  0  0  0  2  0  0  0  0  0  0
  193.9530  172.4170  144.9500 C   0  0  1  0  0  3  0  0  0  0  0  0
  193.4950  173.5560  145.7470 N   0  0  0  0  0  2  0  0  0  0  0  0
  194.0830  174.8550  145.6430 C   0  0  0  0  0  0  0  0  0  0  0  0
  195.0010  175.0760  144.8100 O   0  0  0  0  0  0  0  0  0  0  0  0
  193.6390  175.9570  146.5520 C   0  0  1  0  0  3  0  0  0  0  0  0
  194.5210  177.1080  146.4440 N   0  0  0  0  0  1  0  0  0  0  0  0
  192.1830  176.3540  146.3060 C   0  0  0  0  0  2  0  0  0  0  0  0
  191.3810  176.4550  147.5950 C   0  0  0  0  0  2  0  0  0  0  0  0
  191.4420  175.2410  148.2750 O   0  0  0  0  0  1  0  0  0  0  0  0
  194.3490  171.3040  145.7320 O   0  0  0  0  0  0  0  0  0  0  0  0
  193.8590  170.1220  145.1570 C   0  0  0  0  0  2  0  0  0  0  0  0
  194.6530  168.9360  145.6660 C   0  0  0  0  0  2  0  0  0  0  0  0
  194.5820  168.8560  147.1810 C   0  0  0  0  0  2  0  0  0  0  0  0
  195.8070  168.1660  147.7550 C   0  0  0  0  0  2  0  0  0  0  0  0
  196.9300  168.9810  147.6090 O   0  0  0  0  0  1  0  0  0  0  0  0
  1  7  1  0  0  0  0
  2  6  1  0  0  0  0
  3  1  2  0  0  0  0
  4  2  2  0  0  0  0
  4  3  1  0  0  0  0
  5  2  1  0  0  0  0
  6 13  1  0  0  0  0
  6  7  2  0  0  0  0
  7 27  1  0  0  0  0
  8 11  1  0  0  0  0
 10 14  1  0  0  0  0
 11 16  1  0  0  0  0
 11  9  2  0  0  0  0
 12  9  1  0  0  0  0
 13 12  2  0  0  0  0
 14 15  1  0  0  0  0
 14  8  1  0  0  0  0
 15  8  2  0  0  0  0
 15 13  1  0  0  0  0
 16 22  1  0  0  0  0
 17 24  1  6  0  0  0
 17 20  1  0  0  0  0
 18 21  1  0  0  0  0
 19 20  1  0  0  0  0
 20 18  2  0  0  0  0
 22 19  1  0  0  0  0
 23 21  1  0  0  0  0
 24 22  2  0  0  0  0
 26 25  1  1  0  0  0
 26 17  1  0  0  0  0
 26 23  1  0  0  0  0
 28 27  1  6  0  0  0
 28 37  1  0  0  0  0
 28 29  1  0  0  0  0
 30 29  1  0  0  0  0
 30 32  1  0  0  0  0
 31 30  2  0  0  0  0
 32 33  1  6  0  0  0
 34 32  1  0  0  0  0
 34 35  1  0  0  0  0
 35 36  1  0  0  0  0
 38 39  1  0  0  0  0
 38 37  1  0  0  0  0
 39 40  1  0  0  0  0
 40 41  1  0  0  0  0
 42 41  1  0  0  0  0
M  END
>  <MODEL>
9

>  <REMARK>
 VINA RESULT:      -6.3      3.509     10.184
  Name = 
  13 active torsions:
  status: ('A' for Active; 'I' for Inactive)
    1  A    between atoms: N_1  and  C_8
    2  A    between atoms: C_3  and  C_41
    3  A    between atoms: C_9  and  N_24
    4  A    between atoms: C_9  and  C_27
    5  A    between atoms: C_9  and  O_32
    6  A    between atoms: C_14  and  C_28
    7  A    between atoms: C_14  and  C_41
    8  A    between atoms: C_15  and  C_33
    9  A    between atoms: C_20  and  C_22
   10  A    between atoms: C_20  and  O_32
   11  A    between atoms: C_22  and  C_33
   12  A    between atoms: C_23  and  C_34
   13  A    between atoms: C_27  and  C_40
                            x       y       z     vdW  Elec       q    Type
                         _______ _______ _______ _____ _____    ______ ____

>  <TORSDO>
F 13

$$$$
