=
 OpenBabel11062418303D

 48 52  0  0  1  0  0  0  0  0999 V2000
  187.7380  175.3310  141.5500 C   0  0  1  0  0  3  0  0  0  0  0  0
  189.1970  175.3090  141.9760 C   0  0  0  0  0  2  0  0  0  0  0  0
  187.8880  176.8060  143.5320 C   0  0  1  0  0  3  0  0  0  0  0  0
  190.3840  176.1650  144.2280 C   0  0  2  0  0  3  0  0  0  0  0  0
  189.2300  176.1540  143.2230 C   0  0  1  0  0  0  0  0  0  0  0  0
  187.0110  176.4110  142.3470 C   0  0  0  0  0  2  0  0  0  0  0  0
  190.3230  177.2000  143.1180 C   0  0  0  0  0  2  0  0  0  0  0  0
  186.5480  176.7690  138.2540 O   0  0  0  0  0  0  0  0  0  0  0  0
  187.0480  176.8340  139.5910 C   0  0  0  0  0  2  0  0  0  0  0  0
  188.5850  173.2830  139.5620 C   0  0  0  0  0  1  0  0  0  0  0  0
  187.0840  175.9020  137.2940 C   0  0  0  0  0  0  0  0  0  0  0  0
  187.8530  174.8670  137.7020 C   0  0  0  0  0  0  0  0  0  0  0  0
  187.5690  175.5040  140.0610 C   0  0  0  0  0  0  0  0  0  0  0  0
  187.9790  174.5900  139.1500 C   0  0  0  0  0  0  0  0  0  0  0  0
  187.4710  177.0590  135.1250 C   0  0  0  0  0  1  0  0  0  0  0  0
  186.7660  176.1360  135.9500 O   0  0  0  0  0  0  0  0  0  0  0  0
  188.5410  174.0410  136.7990 O   0  0  0  0  0  0  0  0  0  0  0  0
  189.8300  174.3740  136.3020 C   0  0  0  0  0  2  0  0  0  0  0  0
  190.0240  173.7530  134.6010 S   0  0  0  0  0  1  0  0  0  0  0  0
  187.2140  177.5820  147.0350 C   0  0  0  0  0  2  0  0  0  0  0  0
  187.2600  176.2950  144.8450 C   0  0  2  0  0  3  0  0  0  0  0  0
  185.8630  176.5590  144.9370 O   0  0  0  0  0  0  0  0  0  0  0  0
  188.0470  176.7230  146.0990 C   0  0  0  0  0  2  0  0  0  0  0  0
  186.4790  178.6200  146.2180 C   0  0  1  0  0  3  0  0  0  0  0  0
  185.5660  177.9350  145.1880 C   0  0  1  0  0  3  0  0  0  0  0  0
  185.7160  179.4250  147.0630 O   0  0  0  0  0  1  0  0  0  0  0  0
  185.4070  178.7610  143.9010 C   0  0  2  0  0  3  0  0  0  0  0  0
  185.6110  180.1250  144.1690 O   0  0  0  0  0  1  0  0  0  0  0  0
  183.0360  179.0180  143.8550 O   0  0  0  0  0  1  0  0  0  0  0  0
  183.9220  177.9270  142.0490 O   0  0  0  0  0  0  0  0  0  0  0  0
  184.0610  178.5860  143.2640 C   0  0  0  0  0  0  0  0  0  0  0  0
  191.4460  175.1100  143.9180 C   0  0  2  0  0  3  0  0  0  0  0  0
  191.4070  174.0670  144.9320 N   0  0  0  0  0  2  0  0  0  0  0  0
  190.0620  173.4990  144.9260 C   0  0  0  0  0  2  0  0  0  0  0  0
  191.5620  171.6280  144.3140 C   0  0  0  0  0  2  0  0  0  0  0  0
  189.5260  171.8470  143.1790 C   0  0  0  0  0  0  0  0  0  0  0  0
  190.1100  172.0420  144.5170 C   0  0  2  0  0  3  0  0  0  0  0  0
  188.3510  172.0640  142.9100 O   0  0  0  0  0  0  0  0  0  0  0  0
  192.7410  171.9880  142.3120 C   0  0  0  0  0  1  0  0  0  0  0  0
  190.4960  171.3130  142.2060 C   0  0  0  0  0  2  0  0  0  0  0  0
  191.7510  171.1320  142.9370 N   0  0  0  0  0  0  0  0  0  0  0  0
  192.8500  175.7200  143.8650 C   0  0  2  0  0  3  0  0  0  0  0  0
  193.5660  175.2730  142.7500 O   0  0  0  0  0  0  0  0  0  0  0  0
  194.4970  176.2810  142.4890 C   0  0  0  0  0  1  0  0  0  0  0  0
  194.2360  174.3750  145.2830 O   0  0  0  0  0  0  0  0  0  0  0  0
  193.6120  175.4610  145.1270 C   0  0  0  0  0  0  0  0  0  0  0  0
  193.6180  176.4860  146.1780 C   0  0  0  0  0  3  0  0  0  0  0  0
  192.7030  176.5170  147.1410 C   0  0  0  0  0  2  0  0  0  0  0  0
  1 13  1  6  0  0  0
  1  2  1  0  0  0  0
  1  6  1  0  0  0  0
  3  6  1  6  0  0  0
  3 21  1  0  0  0  0
  4 32  1  6  0  0  0
  5  2  1  6  0  0  0
  5  3  1  0  0  0  0
  5  4  1  0  0  0  0
  7  5  1  0  0  0  0
  7  4  1  0  0  0  0
  8  9  1  0  0  0  0
  9 13  1  0  0  0  0
 11 12  2  0  0  0  0
 11  8  1  0  0  0  0
 12 14  1  0  0  0  0
 14 10  1  0  0  0  0
 14 13  2  0  0  0  0
 15 16  1  0  0  0  0
 16 11  1  0  0  0  0
 17 12  1  0  0  0  0
 18 17  1  0  0  0  0
 19 18  1  0  0  0  0
 21 22  1  0  0  0  0
 21 23  1  1  0  0  0
 22 25  1  0  0  0  0
 23 20  1  0  0  0  0
 24 20  1  0  0  0  0
 24 26  1  1  0  0  0
 25 27  1  6  0  0  0
 25 24  1  0  0  0  0
 27 28  1  1  0  0  0
 30 31  2  0  0  0  0
 31 29  1  0  0  0  0
 31 27  1  0  0  0  0
 32 33  1  1  0  0  0
 34 33  1  0  0  0  0
 35 37  1  0  0  0  0
 36 37  1  0  0  0  0
 37 34  1  6  0  0  0
 38 36  2  0  0  0  0
 39 41  1  0  0  0  0
 40 41  1  0  0  0  0
 40 36  1  0  0  0  0
 41 35  1  0  0  0  0
 42 43  1  6  0  0  0
 42 32  1  0  0  0  0
 42 46  1  0  0  0  0
 44 43  1  0  0  0  0
 46 45  2  0  0  0  0
 46 47  1  0  0  0  0
 47 48  2  0  0  0  0
M  END
>  <MODEL>
1

>  <REMARK>
 VINA RESULT:      -6.7      0.000      0.000
  Name = 
  15 active torsions:
  status: ('A' for Active; 'I' for Inactive)
    1  A    between atoms: O_1  and  C_45
    2  A    between atoms: O_4  and  C_10
    3  A    between atoms: O_4  and  C_40
    4  A    between atoms: C_6  and  C_42
    5  A    between atoms: C_12  and  C_14
    6  A    between atoms: C_18  and  C_41
    7  A    between atoms: N_19  and  C_41
    8  A    between atoms: N_19  and  C_48
    9  A    between atoms: C_21  and  C_36
   10  A    between atoms: C_23  and  C_48
   11  A    between atoms: O_28  and  C_39
   12  A    between atoms: C_36  and  C_45
   13  A    between atoms: C_37  and  C_38
   14  A    between atoms: C_37  and  C_46
   15  A    between atoms: C_41  and  C_45
                            x       y       z     vdW  Elec       q    Type
                         _______ _______ _______ _____ _____    ______ ____

>  <TORSDO>
F 15

$$$$
=
 OpenBabel11062418303D

 48 52  0  0  1  0  0  0  0  0999 V2000
  188.6110  174.3120  142.3240 C   0  0  1  0  0  3  0  0  0  0  0  0
  189.8390  175.0560  142.8210 C   0  0  0  0  0  2  0  0  0  0  0  0
  187.8040  176.5310  143.0640 C   0  0  1  0  0  3  0  0  0  0  0  0
  190.0650  177.3240  144.2420 C   0  0  2  0  0  3  0  0  0  0  0  0
  189.2950  176.3670  143.3300 C   0  0  1  0  0  0  0  0  0  0  0  0
  187.4390  175.2870  142.2600 C   0  0  0  0  0  2  0  0  0  0  0  0
  190.0770  177.5230  142.7370 C   0  0  0  0  0  2  0  0  0  0  0  0
  188.3690  173.5160  138.6290 O   0  0  0  0  0  0  0  0  0  0  0  0
  188.4960  174.3750  139.7640 C   0  0  0  0  0  2  0  0  0  0  0  0
  189.9180  171.6440  142.1090 C   0  0  0  0  0  1  0  0  0  0  0  0
  189.1250  172.3460  138.4850 C   0  0  0  0  0  0  0  0  0  0  0  0
  189.7380  171.8230  139.5710 C   0  0  0  0  0  0  0  0  0  0  0  0
  188.8480  173.6100  141.0100 C   0  0  0  0  0  0  0  0  0  0  0  0
  189.4680  172.4110  140.9020 C   0  0  0  0  0  0  0  0  0  0  0  0
  189.6460  172.4320  136.0540 C   0  0  0  0  0  1  0  0  0  0  0  0
  189.1800  171.7540  137.2170 O   0  0  0  0  0  0  0  0  0  0  0  0
  190.6260  170.7400  139.4850 O   0  0  0  0  0  0  0  0  0  0  0  0
  192.0290  170.8980  139.6440 C   0  0  0  0  0  2  0  0  0  0  0  0
  192.7150  171.8420  138.2450 S   0  0  0  0  0  1  0  0  0  0  0  0
  186.2540  178.7170  145.5450 C   0  0  0  0  0  2  0  0  0  0  0  0
  186.9670  176.5850  144.3590 C   0  0  2  0  0  3  0  0  0  0  0  0
  185.5630  176.5340  144.1190 O   0  0  0  0  0  0  0  0  0  0  0  0
  187.3840  177.7300  145.3020 C   0  0  0  0  0  2  0  0  0  0  0  0
  185.5950  179.0350  144.2220 C   0  0  1  0  0  3  0  0  0  0  0  0
  185.0380  177.7520  143.5840 C   0  0  1  0  0  3  0  0  0  0  0  0
  184.5600  179.9480  144.4250 O   0  0  0  0  0  1  0  0  0  0  0  0
  185.0700  177.7980  142.0480 C   0  0  2  0  0  3  0  0  0  0  0  0
  185.9930  178.7600  141.6070 O   0  0  0  0  0  1  0  0  0  0  0  0
  182.7570  178.3600  142.2100 O   0  0  0  0  0  1  0  0  0  0  0  0
  183.5300  178.0720  140.0760 O   0  0  0  0  0  0  0  0  0  0  0  0
  183.7280  178.1020  141.4510 C   0  0  0  0  0  0  0  0  0  0  0  0
  191.3980  176.7440  144.7160 C   0  0  2  0  0  3  0  0  0  0  0  0
  191.9770  175.9280  143.6590 N   0  0  0  0  0  2  0  0  0  0  0  0
  193.3120  176.4500  143.3830 C   0  0  0  0  0  2  0  0  0  0  0  0
  193.5490  173.9930  143.1880 C   0  0  0  0  0  2  0  0  0  0  0  0
  195.4340  175.2580  143.7660 C   0  0  0  0  0  0  0  0  0  0  0  0
  194.2270  175.3330  142.9250 C   0  0  2  0  0  3  0  0  0  0  0  0
  196.2710  176.1490  143.8380 O   0  0  0  0  0  0  0  0  0  0  0  0
  193.6260  172.8920  145.2640 C   0  0  0  0  0  1  0  0  0  0  0  0
  195.5540  173.9720  144.4760 C   0  0  0  0  0  2  0  0  0  0  0  0
  194.3990  173.1700  144.0690 N   0  0  0  0  0  0  0  0  0  0  0  0
  191.2280  175.8990  145.9820 C   0  0  2  0  0  3  0  0  0  0  0  0
  189.8990  175.8830  146.4180 O   0  0  0  0  0  0  0  0  0  0  0  0
  189.5860  174.5300  146.5760 C   0  0  0  0  0  1  0  0  0  0  0  0
  191.6720  176.8750  148.1240 O   0  0  0  0  0  0  0  0  0  0  0  0
  192.1430  176.3540  147.0750 C   0  0  0  0  0  0  0  0  0  0  0  0
  193.5910  176.1860  146.9080 C   0  0  0  0  0  3  0  0  0  0  0  0
  194.4090  177.2210  146.7430 C   0  0  0  0  0  2  0  0  0  0  0  0
  1 13  1  6  0  0  0
  1  2  1  0  0  0  0
  2  5  1  0  0  0  0
  3  6  1  6  0  0  0
  3  5  1  0  0  0  0
  3 21  1  0  0  0  0
  4 32  1  6  0  0  0
  5  7  1  6  0  0  0
  5  4  1  0  0  0  0
  6  1  1  0  0  0  0
  7  4  1  0  0  0  0
  8  9  1  0  0  0  0
  9 13  1  0  0  0  0
 11  8  1  0  0  0  0
 11 12  2  0  0  0  0
 12 14  1  0  0  0  0
 14 13  2  0  0  0  0
 14 10  1  0  0  0  0
 15 16  1  0  0  0  0
 16 11  1  0  0  0  0
 17 12  1  0  0  0  0
 17 18  1  0  0  0  0
 19 18  1  0  0  0  0
 21 23  1  6  0  0  0
 22 21  1  0  0  0  0
 23 20  1  0  0  0  0
 24 26  1  1  0  0  0
 24 20  1  0  0  0  0
 25 27  1  6  0  0  0
 25 22  1  0  0  0  0
 25 24  1  0  0  0  0
 27 28  1  1  0  0  0
 30 31  2  0  0  0  0
 31 27  1  0  0  0  0
 31 29  1  0  0  0  0
 32 33  1  6  0  0  0
 32 42  1  0  0  0  0
 34 33  1  0  0  0  0
 35 41  1  0  0  0  0
 36 38  2  0  0  0  0
 36 40  1  0  0  0  0
 37 35  1  0  0  0  0
 37 34  1  1  0  0  0
 37 36  1  0  0  0  0
 41 40  1  0  0  0  0
 41 39  1  0  0  0  0
 42 43  1  1  0  0  0
 42 46  1  0  0  0  0
 43 44  1  0  0  0  0
 46 45  2  0  0  0  0
 47 46  1  0  0  0  0
 48 47  2  0  0  0  0
M  END
>  <MODEL>
2

>  <REMARK>
 VINA RESULT:      -6.3      2.217      3.642
  Name = 
  15 active torsions:
  status: ('A' for Active; 'I' for Inactive)
    1  A    between atoms: O_1  and  C_45
    2  A    between atoms: O_4  and  C_10
    3  A    between atoms: O_4  and  C_40
    4  A    between atoms: C_6  and  C_42
    5  A    between atoms: C_12  and  C_14
    6  A    between atoms: C_18  and  C_41
    7  A    between atoms: N_19  and  C_41
    8  A    between atoms: N_19  and  C_48
    9  A    between atoms: C_21  and  C_36
   10  A    between atoms: C_23  and  C_48
   11  A    between atoms: O_28  and  C_39
   12  A    between atoms: C_36  and  C_45
   13  A    between atoms: C_37  and  C_38
   14  A    between atoms: C_37  and  C_46
   15  A    between atoms: C_41  and  C_45
                            x       y       z     vdW  Elec       q    Type
                         _______ _______ _______ _____ _____    ______ ____

>  <TORSDO>
F 15

$$$$
=
 OpenBabel11062418303D

 48 52  0  0  1  0  0  0  0  0999 V2000
  190.6700  172.6690  142.9530 C   0  0  1  0  0  3  0  0  0  0  0  0
  191.9710  173.4400  143.1040 C   0  0  0  0  0  2  0  0  0  0  0  0
  190.1090  174.6950  144.2600 C   0  0  1  0  0  3  0  0  0  0  0  0
  192.6150  175.5080  144.6930 C   0  0  2  0  0  3  0  0  0  0  0  0
  191.6020  174.6210  143.9650 C   0  0  1  0  0  0  0  0  0  0  0  0
  189.5210  173.5440  143.4490 C   0  0  0  0  0  2  0  0  0  0  0  0
  192.0870  175.9060  143.3260 C   0  0  0  0  0  2  0  0  0  0  0  0
  189.4430  172.5780  139.3700 O   0  0  0  0  0  0  0  0  0  0  0  0
  190.0060  173.1910  140.5320 C   0  0  0  0  0  2  0  0  0  0  0  0
  191.2750  169.8840  142.0910 C   0  0  0  0  0  1  0  0  0  0  0  0
  189.8710  171.3310  138.8980 C   0  0  0  0  0  0  0  0  0  0  0  0
  190.5790  170.5250  139.7230 C   0  0  0  0  0  0  0  0  0  0  0  0
  190.4470  172.1720  141.5460 C   0  0  0  0  0  0  0  0  0  0  0  0
  190.7480  170.9160  141.1400 C   0  0  0  0  0  0  0  0  0  0  0  0
  189.9810  171.6410  136.4320 C   0  0  0  0  0  1  0  0  0  0  0  0
  189.5110  170.9650  137.5950 O   0  0  0  0  0  0  0  0  0  0  0  0
  191.1640  169.3280  139.2830 O   0  0  0  0  0  0  0  0  0  0  0  0
  192.2590  169.3100  138.3770 C   0  0  0  0  0  2  0  0  0  0  0  0
  193.8110  169.6570  139.2650 S   0  0  0  0  0  1  0  0  0  0  0  0
  190.6140  176.0070  147.6300 C   0  0  0  0  0  2  0  0  0  0  0  0
  189.7830  174.5050  145.7560 C   0  0  2  0  0  3  0  0  0  0  0  0
  188.5520  175.1110  146.1410 O   0  0  0  0  0  0  0  0  0  0  0  0
  190.9580  174.8690  146.6830 C   0  0  0  0  0  2  0  0  0  0  0  0
  189.9090  177.0920  146.8500 C   0  0  1  0  0  3  0  0  0  0  0  0
  188.6240  176.5370  146.2120 C   0  0  1  0  0  3  0  0  0  0  0  0
  189.5930  178.1500  147.7020 O   0  0  0  0  0  1  0  0  0  0  0  0
  188.2850  177.2250  144.8790 C   0  0  2  0  0  3  0  0  0  0  0  0
  189.3550  178.0310  144.4600 O   0  0  0  0  0  1  0  0  0  0  0  0
  186.5900  178.6010  143.9170 O   0  0  0  0  0  0  0  0  0  0  0  0
  186.4100  178.2900  146.1770 O   0  0  0  0  0  1  0  0  0  0  0  0
  187.0460  178.0660  144.9620 C   0  0  0  0  0  0  0  0  0  0  0  0
  194.0460  174.9830  144.5810 C   0  0  2  0  0  3  0  0  0  0  0  0
  194.2860  173.9960  145.6250 N   0  0  0  0  0  2  0  0  0  0  0  0
  195.5060  173.2750  145.2760 C   0  0  0  0  0  2  0  0  0  0  0  0
  194.2110  171.1790  145.0360 C   0  0  0  0  0  2  0  0  0  0  0  0
  196.3670  171.2730  144.1290 C   0  0  0  0  0  0  0  0  0  0  0  0
  195.1860  172.1240  144.3450 C   0  0  2  0  0  3  0  0  0  0  0  0
  197.3940  171.6560  143.5830 O   0  0  0  0  0  0  0  0  0  0  0  0
  194.8860  169.4860  146.5210 C   0  0  0  0  0  1  0  0  0  0  0  0
  196.1650  169.8890  144.5960 C   0  0  0  0  0  2  0  0  0  0  0  0
  194.7980  169.8280  145.1140 N   0  0  0  0  0  0  0  0  0  0  0  0
  195.0730  176.1130  144.6990 C   0  0  2  0  0  3  0  0  0  0  0  0
  194.4750  177.3160  145.0870 O   0  0  0  0  0  0  0  0  0  0  0  0
  194.6980  177.4040  146.4640 C   0  0  0  0  0  1  0  0  0  0  0  0
  196.8250  177.0870  143.3860 O   0  0  0  0  0  0  0  0  0  0  0  0
  195.8490  176.2870  143.4310 C   0  0  0  0  0  0  0  0  0  0  0  0
  195.4570  175.5170  142.2450 C   0  0  0  0  0  3  0  0  0  0  0  0
  195.0530  176.1040  141.1230 C   0  0  0  0  0  2  0  0  0  0  0  0
  1 13  1  6  0  0  0
  1  2  1  0  0  0  0
  1  6  1  0  0  0  0
  3  6  1  6  0  0  0
  3 21  1  0  0  0  0
  4 32  1  6  0  0  0
  5  2  1  6  0  0  0
  5  3  1  0  0  0  0
  5  4  1  0  0  0  0
  7  5  1  0  0  0  0
  7  4  1  0  0  0  0
  8  9  1  0  0  0  0
  9 13  1  0  0  0  0
 11  8  1  0  0  0  0
 11 12  2  0  0  0  0
 12 14  1  0  0  0  0
 14 13  2  0  0  0  0
 14 10  1  0  0  0  0
 15 16  1  0  0  0  0
 16 11  1  0  0  0  0
 17 12  1  0  0  0  0
 18 19  1  0  0  0  0
 18 17  1  0  0  0  0
 21 22  1  0  0  0  0
 21 23  1  1  0  0  0
 22 25  1  0  0  0  0
 23 20  1  0  0  0  0
 24 20  1  0  0  0  0
 24 26  1  1  0  0  0
 25 27  1  6  0  0  0
 25 24  1  0  0  0  0
 27 28  1  1  0  0  0
 27 31  1  0  0  0  0
 29 31  2  0  0  0  0
 31 30  1  0  0  0  0
 32 42  1  0  0  0  0
 32 33  1  1  0  0  0
 34 33  1  0  0  0  0
 35 41  1  0  0  0  0
 36 37  1  0  0  0  0
 36 40  1  0  0  0  0
 37 35  1  0  0  0  0
 37 34  1  1  0  0  0
 38 36  2  0  0  0  0
 40 41  1  0  0  0  0
 41 39  1  0  0  0  0
 42 46  1  6  0  0  0
 42 43  1  0  0  0  0
 43 44  1  0  0  0  0
 45 46  2  0  0  0  0
 47 46  1  0  0  0  0
 48 47  2  0  0  0  0
M  END
>  <MODEL>
3

>  <REMARK>
 VINA RESULT:      -6.3      3.011      4.659
  Name = 
  15 active torsions:
  status: ('A' for Active; 'I' for Inactive)
    1  A    between atoms: O_1  and  C_45
    2  A    between atoms: O_4  and  C_10
    3  A    between atoms: O_4  and  C_40
    4  A    between atoms: C_6  and  C_42
    5  A    between atoms: C_12  and  C_14
    6  A    between atoms: C_18  and  C_41
    7  A    between atoms: N_19  and  C_41
    8  A    between atoms: N_19  and  C_48
    9  A    between atoms: C_21  and  C_36
   10  A    between atoms: C_23  and  C_48
   11  A    between atoms: O_28  and  C_39
   12  A    between atoms: C_36  and  C_45
   13  A    between atoms: C_37  and  C_38
   14  A    between atoms: C_37  and  C_46
   15  A    between atoms: C_41  and  C_45
                            x       y       z     vdW  Elec       q    Type
                         _______ _______ _______ _____ _____    ______ ____

>  <TORSDO>
F 15

$$$$
=
 OpenBabel11062418303D

 48 52  0  0  1  0  0  0  0  0999 V2000
  191.1650  173.3800  140.9450 C   0  0  1  0  0  3  0  0  0  0  0  0
  192.3200  173.8880  141.7920 C   0  0  0  0  0  2  0  0  0  0  0  0
  190.2620  175.2740  142.2570 C   0  0  1  0  0  3  0  0  0  0  0  0
  192.3600  175.5770  143.8790 C   0  0  2  0  0  3  0  0  0  0  0  0
  191.7110  174.9850  142.6260 C   0  0  1  0  0  0  0  0  0  0  0  0
  190.0030  174.3630  141.0610 C   0  0  0  0  0  2  0  0  0  0  0  0
  192.5500  176.2440  142.5280 C   0  0  0  0  0  2  0  0  0  0  0  0
  192.6650  173.9670  137.5160 O   0  0  0  0  0  0  0  0  0  0  0  0
  192.6440  174.0030  138.9450 C   0  0  0  0  0  2  0  0  0  0  0  0
  190.0810  171.1280  139.3260 C   0  0  0  0  0  1  0  0  0  0  0  0
  192.3010  172.8280  136.7890 C   0  0  0  0  0  0  0  0  0  0  0  0
  191.5940  171.8540  137.4050 C   0  0  0  0  0  0  0  0  0  0  0  0
  191.5620  173.1250  139.5120 C   0  0  0  0  0  0  0  0  0  0  0  0
  191.0960  172.0860  138.7790 C   0  0  0  0  0  0  0  0  0  0  0  0
  193.9780  172.4580  134.9890 C   0  0  0  0  0  1  0  0  0  0  0  0
  192.6620  172.7710  135.4370 O   0  0  0  0  0  0  0  0  0  0  0  0
  191.3150  170.6230  136.7900 O   0  0  0  0  0  0  0  0  0  0  0  0
  192.3090  169.6230  136.6160 C   0  0  0  0  0  2  0  0  0  0  0  0
  192.2980  168.4760  138.0300 S   0  0  0  0  0  1  0  0  0  0  0  0
  188.6080  176.5350  145.2580 C   0  0  0  0  0  2  0  0  0  0  0  0
  189.2750  174.9400  143.3960 C   0  0  2  0  0  3  0  0  0  0  0  0
  187.9130  175.1670  143.0390 O   0  0  0  0  0  0  0  0  0  0  0  0
  189.6680  175.5760  144.7420 C   0  0  0  0  0  2  0  0  0  0  0  0
  188.1520  177.4140  144.1170 C   0  0  1  0  0  3  0  0  0  0  0  0
  187.5700  176.5540  142.9830 C   0  0  1  0  0  3  0  0  0  0  0  0
  187.1840  178.3080  144.5740 O   0  0  0  0  0  1  0  0  0  0  0  0
  187.8000  177.1750  141.5960 C   0  0  2  0  0  3  0  0  0  0  0  0
  188.6940  178.2540  141.6870 O   0  0  0  0  0  1  0  0  0  0  0  0
  185.7070  178.3210  141.6380 O   0  0  0  0  0  1  0  0  0  0  0  0
  186.2270  177.3360  139.6380 O   0  0  0  0  0  0  0  0  0  0  0  0
  186.5280  177.6500  140.9580 C   0  0  0  0  0  0  0  0  0  0  0  0
  193.6300  174.8350  144.2940 C   0  0  2  0  0  3  0  0  0  0  0  0
  193.3200  173.8990  145.3640 N   0  0  0  0  0  2  0  0  0  0  0  0
  194.5440  173.1710  145.6800 C   0  0  0  0  0  2  0  0  0  0  0  0
  194.0030  170.8530  144.9980 C   0  0  0  0  0  2  0  0  0  0  0  0
  196.1930  171.6240  144.7000 C   0  0  0  0  0  0  0  0  0  0  0  0
  194.8010  172.1010  144.6390 C   0  0  2  0  0  3  0  0  0  0  0  0
  197.1660  172.3300  144.4660 O   0  0  0  0  0  0  0  0  0  0  0  0
  194.7590  169.2280  146.5190 C   0  0  0  0  0  1  0  0  0  0  0  0
  196.2910  170.1900  145.0250 C   0  0  0  0  0  2  0  0  0  0  0  0
  194.9160  169.7060  145.1590 N   0  0  0  0  0  0  0  0  0  0  0  0
  194.7230  175.8010  144.7590 C   0  0  2  0  0  3  0  0  0  0  0  0
  194.1870  177.0230  145.1800 O   0  0  0  0  0  0  0  0  0  0  0  0
  194.3900  177.0500  146.5620 C   0  0  0  0  0  1  0  0  0  0  0  0
  196.4880  177.0420  143.7170 O   0  0  0  0  0  0  0  0  0  0  0  0
  195.7610  176.0100  143.7020 C   0  0  0  0  0  0  0  0  0  0  0  0
  195.9190  174.9990  142.6500 C   0  0  0  0  0  3  0  0  0  0  0  0
  195.9110  175.3150  141.3590 C   0  0  0  0  0  2  0  0  0  0  0  0
  1 13  1  6  0  0  0
  1  6  1  0  0  0  0
  1  2  1  0  0  0  0
  3  6  1  6  0  0  0
  3  5  1  0  0  0  0
  3 21  1  0  0  0  0
  4 32  1  6  0  0  0
  5  2  1  6  0  0  0
  5  4  1  0  0  0  0
  7  5  1  0  0  0  0
  7  4  1  0  0  0  0
  8  9  1  0  0  0  0
  9 13  1  0  0  0  0
 11 12  2  0  0  0  0
 11  8  1  0  0  0  0
 12 14  1  0  0  0  0
 14 10  1  0  0  0  0
 14 13  2  0  0  0  0
 15 16  1  0  0  0  0
 16 11  1  0  0  0  0
 17 12  1  0  0  0  0
 18 17  1  0  0  0  0
 18 19  1  0  0  0  0
 21 23  1  1  0  0  0
 22 21  1  0  0  0  0
 23 20  1  0  0  0  0
 24 26  1  1  0  0  0
 24 20  1  0  0  0  0
 25 27  1  6  0  0  0
 25 22  1  0  0  0  0
 25 24  1  0  0  0  0
 27 28  1  1  0  0  0
 30 31  2  0  0  0  0
 31 27  1  0  0  0  0
 31 29  1  0  0  0  0
 32 42  1  0  0  0  0
 32 33  1  1  0  0  0
 33 34  1  0  0  0  0
 35 41  1  0  0  0  0
 36 40  1  0  0  0  0
 37 36  1  0  0  0  0
 37 35  1  0  0  0  0
 37 34  1  1  0  0  0
 38 36  2  0  0  0  0
 40 41  1  0  0  0  0
 41 39  1  0  0  0  0
 42 46  1  6  0  0  0
 42 43  1  0  0  0  0
 43 44  1  0  0  0  0
 46 45  2  0  0  0  0
 47 46  1  0  0  0  0
 48 47  2  0  0  0  0
M  END
>  <MODEL>
4

>  <REMARK>
 VINA RESULT:      -6.1      3.001      4.528
  Name = 
  15 active torsions:
  status: ('A' for Active; 'I' for Inactive)
    1  A    between atoms: O_1  and  C_45
    2  A    between atoms: O_4  and  C_10
    3  A    between atoms: O_4  and  C_40
    4  A    between atoms: C_6  and  C_42
    5  A    between atoms: C_12  and  C_14
    6  A    between atoms: C_18  and  C_41
    7  A    between atoms: N_19  and  C_41
    8  A    between atoms: N_19  and  C_48
    9  A    between atoms: C_21  and  C_36
   10  A    between atoms: C_23  and  C_48
   11  A    between atoms: O_28  and  C_39
   12  A    between atoms: C_36  and  C_45
   13  A    between atoms: C_37  and  C_38
   14  A    between atoms: C_37  and  C_46
   15  A    between atoms: C_41  and  C_45
                            x       y       z     vdW  Elec       q    Type
                         _______ _______ _______ _____ _____    ______ ____

>  <TORSDO>
F 15

$$$$
=
 OpenBabel11062418303D

 48 52  0  0  1  0  0  0  0  0999 V2000
  190.8200  172.5600  143.4020 C   0  0  1  0  0  3  0  0  0  0  0  0
  192.0820  173.4060  143.4190 C   0  0  0  0  0  2  0  0  0  0  0  0
  190.2260  174.6390  144.6070 C   0  0  1  0  0  3  0  0  0  0  0  0
  192.7040  175.6070  144.8260 C   0  0  2  0  0  3  0  0  0  0  0  0
  191.7010  174.6220  144.2240 C   0  0  1  0  0  0  0  0  0  0  0  0
  189.6560  173.4070  143.9110 C   0  0  0  0  0  2  0  0  0  0  0  0
  192.0740  175.8840  143.4730 C   0  0  0  0  0  2  0  0  0  0  0  0
  190.8710  170.0800  140.5390 O   0  0  0  0  0  0  0  0  0  0  0  0
  190.7660  170.4770  141.9080 C   0  0  0  0  0  2  0  0  0  0  0  0
  189.6640  174.1050  141.1330 C   0  0  0  0  0  1  0  0  0  0  0  0
  190.1790  170.7330  139.5130 C   0  0  0  0  0  0  0  0  0  0  0  0
  189.6700  171.9650  139.7460 C   0  0  0  0  0  0  0  0  0  0  0  0
  190.5420  171.9570  142.0460 C   0  0  0  0  0  0  0  0  0  0  0  0
  189.9890  172.6460  141.0200 C   0  0  0  0  0  0  0  0  0  0  0  0
  190.4320  168.7210  138.0730 C   0  0  0  0  0  1  0  0  0  0  0  0
  190.0780  170.0860  138.2750 O   0  0  0  0  0  0  0  0  0  0  0  0
  188.8450  172.6240  138.8220 O   0  0  0  0  0  0  0  0  0  0  0  0
  189.3370  173.1110  137.5810 C   0  0  0  0  0  2  0  0  0  0  0  0
  191.0910  173.5760  137.7430 S   0  0  0  0  0  1  0  0  0  0  0  0
  190.8620  176.1990  147.8460 C   0  0  0  0  0  2  0  0  0  0  0  0
  190.0010  174.5350  146.1300 C   0  0  2  0  0  3  0  0  0  0  0  0
  188.7640  175.1040  146.5520 O   0  0  0  0  0  0  0  0  0  0  0  0
  191.2090  175.0190  146.9540 C   0  0  0  0  0  2  0  0  0  0  0  0
  190.0530  177.1930  147.0440 C   0  0  1  0  0  3  0  0  0  0  0  0
  188.7640  176.5340  146.5260 C   0  0  1  0  0  3  0  0  0  0  0  0
  189.7330  178.2890  147.8440 O   0  0  0  0  0  1  0  0  0  0  0  0
  188.3100  177.1120  145.1760 C   0  0  2  0  0  3  0  0  0  0  0  0
  189.3190  177.9160  144.6250 O   0  0  0  0  0  1  0  0  0  0  0  0
  186.5070  178.0660  146.4150 O   0  0  0  0  0  1  0  0  0  0  0  0
  186.4570  178.4840  144.1650 O   0  0  0  0  0  0  0  0  0  0  0  0
  187.0510  177.9200  145.2880 C   0  0  0  0  0  0  0  0  0  0  0  0
  194.1530  175.1510  144.6590 C   0  0  2  0  0  3  0  0  0  0  0  0
  194.5190  174.2750  145.7630 N   0  0  0  0  0  2  0  0  0  0  0  0
  195.8650  173.7760  145.5010 C   0  0  0  0  0  2  0  0  0  0  0  0
  195.2930  171.3810  145.2420 C   0  0  0  0  0  2  0  0  0  0  0  0
  197.1680  172.2130  144.1130 C   0  0  0  0  0  0  0  0  0  0  0  0
  195.8130  172.6200  144.5240 C   0  0  2  0  0  3  0  0  0  0  0  0
  197.9370  172.9330  143.4890 O   0  0  0  0  0  0  0  0  0  0  0  0
  196.6620  169.9490  146.5060 C   0  0  0  0  0  1  0  0  0  0  0  0
  197.4830  170.8230  144.4900 C   0  0  0  0  0  2  0  0  0  0  0  0
  196.2870  170.2960  145.1490 N   0  0  0  0  0  0  0  0  0  0  0  0
  195.1180  176.3390  144.6070 C   0  0  2  0  0  3  0  0  0  0  0  0
  194.4680  177.5450  144.8940 O   0  0  0  0  0  0  0  0  0  0  0  0
  194.9400  177.9190  146.1550 C   0  0  0  0  0  1  0  0  0  0  0  0
  196.9130  177.0530  143.1900 O   0  0  0  0  0  0  0  0  0  0  0  0
  195.8280  176.4160  143.2920 C   0  0  0  0  0  0  0  0  0  0  0  0
  195.2430  175.7420  142.1280 C   0  0  0  0  0  3  0  0  0  0  0  0
  195.9610  174.9550  141.3320 C   0  0  0  0  0  2  0  0  0  0  0  0
  1 13  1  6  0  0  0
  1  2  1  0  0  0  0
  1  6  1  0  0  0  0
  3  6  1  6  0  0  0
  3 21  1  0  0  0  0
  4 32  1  6  0  0  0
  5  2  1  6  0  0  0
  5  3  1  0  0  0  0
  5  4  1  0  0  0  0
  7  5  1  0  0  0  0
  7  4  1  0  0  0  0
  8  9  1  0  0  0  0
  9 13  1  0  0  0  0
 11 12  2  0  0  0  0
 11  8  1  0  0  0  0
 12 14  1  0  0  0  0
 14 10  1  0  0  0  0
 14 13  2  0  0  0  0
 15 16  1  0  0  0  0
 16 11  1  0  0  0  0
 17 12  1  0  0  0  0
 18 19  1  0  0  0  0
 18 17  1  0  0  0  0
 21 22  1  0  0  0  0
 21 23  1  1  0  0  0
 23 20  1  0  0  0  0
 24 26  1  1  0  0  0
 24 20  1  0  0  0  0
 25 27  1  6  0  0  0
 25 22  1  0  0  0  0
 25 24  1  0  0  0  0
 27 28  1  1  0  0  0
 27 31  1  0  0  0  0
 30 31  2  0  0  0  0
 31 29  1  0  0  0  0
 32 33  1  1  0  0  0
 34 33  1  0  0  0  0
 36 40  1  0  0  0  0
 36 37  1  0  0  0  0
 37 35  1  0  0  0  0
 37 34  1  1  0  0  0
 38 36  2  0  0  0  0
 40 41  1  0  0  0  0
 41 35  1  0  0  0  0
 41 39  1  0  0  0  0
 42 46  1  6  0  0  0
 42 32  1  0  0  0  0
 42 43  1  0  0  0  0
 43 44  1  0  0  0  0
 45 46  2  0  0  0  0
 47 46  1  0  0  0  0
 48 47  2  0  0  0  0
M  END
>  <MODEL>
5

>  <REMARK>
 VINA RESULT:      -5.8      2.879      4.889
  Name = 
  15 active torsions:
  status: ('A' for Active; 'I' for Inactive)
    1  A    between atoms: O_1  and  C_45
    2  A    between atoms: O_4  and  C_10
    3  A    between atoms: O_4  and  C_40
    4  A    between atoms: C_6  and  C_42
    5  A    between atoms: C_12  and  C_14
    6  A    between atoms: C_18  and  C_41
    7  A    between atoms: N_19  and  C_41
    8  A    between atoms: N_19  and  C_48
    9  A    between atoms: C_21  and  C_36
   10  A    between atoms: C_23  and  C_48
   11  A    between atoms: O_28  and  C_39
   12  A    between atoms: C_36  and  C_45
   13  A    between atoms: C_37  and  C_38
   14  A    between atoms: C_37  and  C_46
   15  A    between atoms: C_41  and  C_45
                            x       y       z     vdW  Elec       q    Type
                         _______ _______ _______ _____ _____    ______ ____

>  <TORSDO>
F 15

$$$$
=
 OpenBabel11062418303D

 48 52  0  0  1  0  0  0  0  0999 V2000
  191.3190  171.2680  143.4740 C   0  0  1  0  0  3  0  0  0  0  0  0
  190.9440  172.6270  144.0410 C   0  0  0  0  0  2  0  0  0  0  0  0
  190.8340  172.7080  141.5200 C   0  0  1  0  0  3  0  0  0  0  0  0
  189.8130  174.7670  142.8780 C   0  0  2  0  0  3  0  0  0  0  0  0
  190.5850  173.4470  142.8290 C   0  0  1  0  0  0  0  0  0  0  0  0
  191.4730  171.3940  141.9600 C   0  0  0  0  0  2  0  0  0  0  0  0
  191.3310  174.7660  142.8500 C   0  0  0  0  0  2  0  0  0  0  0  0
  193.7190  168.6740  144.8390 O   0  0  0  0  0  0  0  0  0  0  0  0
  192.8060  169.2200  143.8840 C   0  0  0  0  0  2  0  0  0  0  0  0
  193.2950  172.8940  144.9960 C   0  0  0  0  0  1  0  0  0  0  0  0
  194.7450  169.4330  145.4150 C   0  0  0  0  0  0  0  0  0  0  0  0
  194.6820  170.7820  145.3430 C   0  0  0  0  0  0  0  0  0  0  0  0
  192.5440  170.6800  144.1290 C   0  0  0  0  0  0  0  0  0  0  0  0
  193.4620  171.4180  144.7970 C   0  0  0  0  0  0  0  0  0  0  0  0
  195.7940  168.5210  147.4770 C   0  0  0  0  0  1  0  0  0  0  0  0
  195.7750  168.7490  146.0710 O   0  0  0  0  0  0  0  0  0  0  0  0
  195.7350  171.6070  145.7680 O   0  0  0  0  0  0  0  0  0  0  0  0
  196.8320  171.9270  144.9230 C   0  0  0  0  0  2  0  0  0  0  0  0
  197.2290  173.7000  145.0570 S   0  0  0  0  0  1  0  0  0  0  0  0
  188.5610  173.9320  138.9370 C   0  0  0  0  0  2  0  0  0  0  0  0
  189.5350  172.4240  140.7360 C   0  0  2  0  0  3  0  0  0  0  0  0
  189.7420  171.5980  139.5930 O   0  0  0  0  0  0  0  0  0  0  0  0
  188.7230  173.6970  140.4300 C   0  0  0  0  0  2  0  0  0  0  0  0
  189.8970  173.7140  138.2640 C   0  0  1  0  0  3  0  0  0  0  0  0
  190.3890  172.2790  138.5150 C   0  0  1  0  0  3  0  0  0  0  0  0
  189.7700  173.9350  136.8930 O   0  0  0  0  0  1  0  0  0  0  0  0
  191.9230  172.1860  138.5780 C   0  0  2  0  0  3  0  0  0  0  0  0
  192.4900  173.4700  138.5670 O   0  0  0  0  0  1  0  0  0  0  0  0
  192.2160  171.7030  136.2600 O   0  0  0  0  0  0  0  0  0  0  0  0
  193.3190  170.2930  137.6850 O   0  0  0  0  0  1  0  0  0  0  0  0
  192.5000  171.3900  137.4460 C   0  0  0  0  0  0  0  0  0  0  0  0
  189.3030  175.1010  144.2810 C   0  0  2  0  0  3  0  0  0  0  0  0
  188.0720  175.8700  144.1810 N   0  0  0  0  0  2  0  0  0  0  0  0
  187.7010  175.9260  142.7710 C   0  0  0  0  0  2  0  0  0  0  0  0
  186.7830  178.1510  143.3490 C   0  0  0  0  0  2  0  0  0  0  0  0
  186.7500  177.4750  141.1070 C   0  0  0  0  0  0  0  0  0  0  0  0
  187.5830  177.3660  142.3170 C   0  0  2  0  0  3  0  0  0  0  0  0
  187.0460  176.9770  140.0280 O   0  0  0  0  0  0  0  0  0  0  0  0
  184.4330  178.2140  143.3870 C   0  0  0  0  0  1  0  0  0  0  0  0
  185.5410  178.2910  141.3200 C   0  0  0  0  0  2  0  0  0  0  0  0
  185.5970  178.7510  142.7090 N   0  0  0  0  0  0  0  0  0  0  0  0
  190.3390  175.8940  145.0840 C   0  0  2  0  0  3  0  0  0  0  0  0
  190.5800  175.3110  146.3320 O   0  0  0  0  0  0  0  0  0  0  0  0
  191.8790  175.7000  146.6680 C   0  0  0  0  0  1  0  0  0  0  0  0
  189.1820  177.6850  146.1780 O   0  0  0  0  0  0  0  0  0  0  0  0
  189.9400  177.3280  145.2330 C   0  0  0  0  0  0  0  0  0  0  0  0
  190.4410  178.3100  144.2650 C   0  0  0  0  0  3  0  0  0  0  0  0
  191.5650  178.1200  143.5810 C   0  0  0  0  0  2  0  0  0  0  0  0
  1  2  1  0  0  0  0
  1 13  1  1  0  0  0
  3  6  1  1  0  0  0
  3  5  1  0  0  0  0
  4 32  1  1  0  0  0
  5  7  1  6  0  0  0
  5  4  1  0  0  0  0
  5  2  1  0  0  0  0
  6  1  1  0  0  0  0
  7  4  1  0  0  0  0
  8 11  1  0  0  0  0
  9 13  1  0  0  0  0
  9  8  1  0  0  0  0
 11 16  1  0  0  0  0
 12 11  2  0  0  0  0
 12 17  1  0  0  0  0
 13 14  2  0  0  0  0
 14 10  1  0  0  0  0
 14 12  1  0  0  0  0
 16 15  1  0  0  0  0
 18 19  1  0  0  0  0
 18 17  1  0  0  0  0
 20 23  1  0  0  0  0
 21 23  1  6  0  0  0
 21  3  1  0  0  0  0
 22 21  1  0  0  0  0
 24 26  1  6  0  0  0
 24 25  1  0  0  0  0
 24 20  1  0  0  0  0
 25 27  1  1  0  0  0
 25 22  1  0  0  0  0
 27 28  1  6  0  0  0
 29 31  2  0  0  0  0
 31 30  1  0  0  0  0
 31 27  1  0  0  0  0
 32 33  1  6  0  0  0
 32 42  1  0  0  0  0
 34 33  1  0  0  0  0
 36 40  1  0  0  0  0
 36 37  1  0  0  0  0
 37 34  1  1  0  0  0
 37 35  1  0  0  0  0
 38 36  2  0  0  0  0
 40 41  1  0  0  0  0
 41 35  1  0  0  0  0
 41 39  1  0  0  0  0
 42 46  1  1  0  0  0
 42 43  1  0  0  0  0
 43 44  1  0  0  0  0
 46 45  2  0  0  0  0
 47 46  1  0  0  0  0
 48 47  2  0  0  0  0
M  END
>  <MODEL>
6

>  <REMARK>
 VINA RESULT:      -5.7      3.614      8.924
  Name = 
  15 active torsions:
  status: ('A' for Active; 'I' for Inactive)
    1  A    between atoms: O_1  and  C_45
    2  A    between atoms: O_4  and  C_10
    3  A    between atoms: O_4  and  C_40
    4  A    between atoms: C_6  and  C_42
    5  A    between atoms: C_12  and  C_14
    6  A    between atoms: C_18  and  C_41
    7  A    between atoms: N_19  and  C_41
    8  A    between atoms: N_19  and  C_48
    9  A    between atoms: C_21  and  C_36
   10  A    between atoms: C_23  and  C_48
   11  A    between atoms: O_28  and  C_39
   12  A    between atoms: C_36  and  C_45
   13  A    between atoms: C_37  and  C_38
   14  A    between atoms: C_37  and  C_46
   15  A    between atoms: C_41  and  C_45
                            x       y       z     vdW  Elec       q    Type
                         _______ _______ _______ _____ _____    ______ ____

>  <TORSDO>
F 15

$$$$
=
 OpenBabel11062418303D

 48 52  0  0  1  0  0  0  0  0999 V2000
  190.4520  175.4980  145.8940 C   0  0  1  0  0  3  0  0  0  0  0  0
  190.3910  174.2940  144.9670 C   0  0  0  0  0  2  0  0  0  0  0  0
  192.7060  175.2980  144.8930 C   0  0  1  0  0  3  0  0  0  0  0  0
  192.3450  172.9140  143.7470 C   0  0  2  0  0  3  0  0  0  0  0  0
  191.7970  174.1640  144.4400 C   0  0  1  0  0  0  0  0  0  0  0  0
  191.7730  176.2270  145.6640 C   0  0  0  0  0  2  0  0  0  0  0  0
  191.7800  174.0610  142.9270 C   0  0  0  0  0  2  0  0  0  0  0  0
  187.5570  177.7460  146.8490 O   0  0  0  0  0  0  0  0  0  0  0  0
  188.8910  177.2420  146.9410 C   0  0  0  0  0  2  0  0  0  0  0  0
  188.9890  175.8640  143.3250 C   0  0  0  0  0  1  0  0  0  0  0  0
  186.9570  178.0640  145.6250 C   0  0  0  0  0  0  0  0  0  0  0  0
  187.4970  177.5770  144.4840 C   0  0  0  0  0  0  0  0  0  0  0  0
  189.2590  176.4100  145.7430 C   0  0  0  0  0  0  0  0  0  0  0  0
  188.6080  176.6040  144.5720 C   0  0  0  0  0  0  0  0  0  0  0  0
  184.4860  178.3070  145.7770 C   0  0  0  0  0  1  0  0  0  0  0  0
  185.7980  178.8490  145.6480 O   0  0  0  0  0  0  0  0  0  0  0  0
  187.0430  177.9630  143.2140 O   0  0  0  0  0  0  0  0  0  0  0  0
  185.9790  177.2900  142.5540 C   0  0  0  0  0  2  0  0  0  0  0  0
  185.7910  177.9270  140.8590 S   0  0  0  0  0  1  0  0  0  0  0  0
  195.4400  172.9080  145.2840 C   0  0  0  0  0  2  0  0  0  0  0  0
  193.8500  174.8190  145.8120 C   0  0  2  0  0  3  0  0  0  0  0  0
  195.0570  175.5560  145.6320 O   0  0  0  0  0  0  0  0  0  0  0  0
  194.0550  173.2930  145.7780 C   0  0  0  0  0  2  0  0  0  0  0  0
  195.7680  173.7380  144.0640 C   0  0  1  0  0  3  0  0  0  0  0  0
  195.7360  175.2350  144.4150 C   0  0  1  0  0  3  0  0  0  0  0  0
  197.0330  173.3920  143.5910 O   0  0  0  0  0  1  0  0  0  0  0  0
  195.2940  176.1080  143.2300 C   0  0  2  0  0  3  0  0  0  0  0  0
  194.5670  175.3420  142.3050 O   0  0  0  0  0  1  0  0  0  0  0  0
  196.4580  176.8020  141.2670 O   0  0  0  0  0  0  0  0  0  0  0  0
  197.5250  177.2720  143.2360 O   0  0  0  0  0  1  0  0  0  0  0  0
  196.4490  176.7540  142.5250 C   0  0  0  0  0  0  0  0  0  0  0  0
  191.3630  171.7430  143.7780 C   0  0  2  0  0  3  0  0  0  0  0  0
  192.1000  170.4930  143.8910 N   0  0  0  0  0  2  0  0  0  0  0  0
  193.5180  170.8020  143.7370 C   0  0  0  0  0  2  0  0  0  0  0  0
  194.3120  168.8190  144.9880 C   0  0  0  0  0  2  0  0  0  0  0  0
  195.7550  169.8150  143.4360 C   0  0  0  0  0  0  0  0  0  0  0  0
  194.3250  169.5250  143.6370 C   0  0  2  0  0  3  0  0  0  0  0  0
  196.2030  170.3810  142.4460 O   0  0  0  0  0  0  0  0  0  0  0  0
  195.7940  169.3450  146.7350 C   0  0  0  0  0  1  0  0  0  0  0  0
  196.6000  169.3070  144.5320 C   0  0  0  0  0  2  0  0  0  0  0  0
  195.6950  168.6420  145.4710 N   0  0  0  0  0  0  0  0  0  0  0  0
  190.4850  171.7090  142.5230 C   0  0  2  0  0  3  0  0  0  0  0  0
  189.1320  171.5570  142.8440 O   0  0  0  0  0  0  0  0  0  0  0  0
  188.4690  172.5190  142.0790 C   0  0  0  0  0  1  0  0  0  0  0  0
  190.5220  169.4580  141.7010 O   0  0  0  0  0  0  0  0  0  0  0  0
  190.9300  170.6460  141.5680 C   0  0  0  0  0  0  0  0  0  0  0  0
  191.8460  171.0050  140.4800 C   0  0  0  0  0  3  0  0  0  0  0  0
  192.9240  170.2810  140.1940 C   0  0  0  0  0  2  0  0  0  0  0  0
  1 13  1  6  0  0  0
  2  1  1  0  0  0  0
  3  6  1  1  0  0  0
  3 21  1  0  0  0  0
  4 32  1  1  0  0  0
  4  5  1  0  0  0  0
  5  7  1  6  0  0  0
  5  3  1  0  0  0  0
  5  2  1  0  0  0  0
  6  1  1  0  0  0  0
  7  4  1  0  0  0  0
  8  9  1  0  0  0  0
 10 14  1  0  0  0  0
 11 16  1  0  0  0  0
 11  8  1  0  0  0  0
 12 14  1  0  0  0  0
 12 11  2  0  0  0  0
 13  9  1  0  0  0  0
 14 13  2  0  0  0  0
 16 15  1  0  0  0  0
 17 12  1  0  0  0  0
 18 17  1  0  0  0  0
 19 18  1  0  0  0  0
 20 23  1  0  0  0  0
 21 23  1  6  0  0  0
 22 21  1  0  0  0  0
 24 26  1  1  0  0  0
 24 25  1  0  0  0  0
 24 20  1  0  0  0  0
 25 27  1  6  0  0  0
 25 22  1  0  0  0  0
 27 28  1  6  0  0  0
 29 31  2  0  0  0  0
 31 27  1  0  0  0  0
 31 30  1  0  0  0  0
 32 33  1  6  0  0  0
 34 33  1  0  0  0  0
 35 41  1  0  0  0  0
 36 37  1  0  0  0  0
 36 40  1  0  0  0  0
 37 34  1  1  0  0  0
 37 35  1  0  0  0  0
 38 36  2  0  0  0  0
 40 41  1  0  0  0  0
 41 39  1  0  0  0  0
 42 46  1  6  0  0  0
 42 43  1  0  0  0  0
 42 32  1  0  0  0  0
 44 43  1  0  0  0  0
 46 45  2  0  0  0  0
 47 46  1  0  0  0  0
 48 47  2  0  0  0  0
M  END
>  <MODEL>
7

>  <REMARK>
 VINA RESULT:      -5.7      3.217      7.899
  Name = 
  15 active torsions:
  status: ('A' for Active; 'I' for Inactive)
    1  A    between atoms: O_1  and  C_45
    2  A    between atoms: O_4  and  C_10
    3  A    between atoms: O_4  and  C_40
    4  A    between atoms: C_6  and  C_42
    5  A    between atoms: C_12  and  C_14
    6  A    between atoms: C_18  and  C_41
    7  A    between atoms: N_19  and  C_41
    8  A    between atoms: N_19  and  C_48
    9  A    between atoms: C_21  and  C_36
   10  A    between atoms: C_23  and  C_48
   11  A    between atoms: O_28  and  C_39
   12  A    between atoms: C_36  and  C_45
   13  A    between atoms: C_37  and  C_38
   14  A    between atoms: C_37  and  C_46
   15  A    between atoms: C_41  and  C_45
                            x       y       z     vdW  Elec       q    Type
                         _______ _______ _______ _____ _____    ______ ____

>  <TORSDO>
F 15

$$$$
=
 OpenBabel11062418303D

 48 52  0  0  1  0  0  0  0  0999 V2000
  191.6280  171.3820  143.8030 C   0  0  1  0  0  3  0  0  0  0  0  0
  191.4090  172.8090  144.2790 C   0  0  0  0  0  2  0  0  0  0  0  0
  191.0640  172.6930  141.7810 C   0  0  1  0  0  3  0  0  0  0  0  0
  190.3300  174.9310  143.0370 C   0  0  2  0  0  3  0  0  0  0  0  0
  190.9960  173.5540  143.0360 C   0  0  1  0  0  0  0  0  0  0  0  0
  191.6460  171.3720  142.2760 C   0  0  0  0  0  2  0  0  0  0  0  0
  191.8350  174.8060  142.8740 C   0  0  0  0  0  2  0  0  0  0  0  0
  193.9980  168.7100  145.0640 O   0  0  0  0  0  0  0  0  0  0  0  0
  193.0550  169.2810  144.1550 C   0  0  0  0  0  2  0  0  0  0  0  0
  193.7490  172.9440  145.1920 C   0  0  0  0  0  1  0  0  0  0  0  0
  195.0840  169.4330  145.5720 C   0  0  0  0  0  0  0  0  0  0  0  0
  195.0690  170.7830  145.4880 C   0  0  0  0  0  0  0  0  0  0  0  0
  192.8650  170.7530  144.3960 C   0  0  0  0  0  0  0  0  0  0  0  0
  193.8470  171.4610  145.0020 C   0  0  0  0  0  0  0  0  0  0  0  0
  196.2090  168.4970  147.5840 C   0  0  0  0  0  1  0  0  0  0  0  0
  196.1220  168.7160  146.1780 O   0  0  0  0  0  0  0  0  0  0  0  0
  196.1760  171.5690  145.8420 O   0  0  0  0  0  0  0  0  0  0  0  0
  197.1650  171.9530  144.8960 C   0  0  0  0  0  2  0  0  0  0  0  0
  197.5570  173.7220  145.0830 S   0  0  0  0  0  1  0  0  0  0  0  0
  188.5640  173.9920  139.4580 C   0  0  0  0  0  2  0  0  0  0  0  0
  189.6800  172.4520  141.1430 C   0  0  2  0  0  3  0  0  0  0  0  0
  189.7350  171.6200  139.9870 O   0  0  0  0  0  0  0  0  0  0  0  0
  188.8800  173.7500  140.9240 C   0  0  0  0  0  2  0  0  0  0  0  0
  189.8110  173.7310  138.6430 C   0  0  1  0  0  3  0  0  0  0  0  0
  190.2820  172.2810  138.8430 C   0  0  1  0  0  3  0  0  0  0  0  0
  189.5420  173.9580  137.2940 O   0  0  0  0  0  1  0  0  0  0  0  0
  191.8090  172.1400  138.7390 C   0  0  2  0  0  3  0  0  0  0  0  0
  192.4150  173.4050  138.7030 O   0  0  0  0  0  1  0  0  0  0  0  0
  192.4170  170.1180  137.6260 O   0  0  0  0  0  1  0  0  0  0  0  0
  192.4650  171.9930  136.3140 O   0  0  0  0  0  0  0  0  0  0  0  0
  192.2360  171.3610  137.5300 C   0  0  0  0  0  0  0  0  0  0  0  0
  189.9830  175.4180  144.4440 C   0  0  2  0  0  3  0  0  0  0  0  0
  188.5650  175.7420  144.5110 N   0  0  0  0  0  2  0  0  0  0  0  0
  188.3560  176.5530  145.7060 C   0  0  0  0  0  2  0  0  0  0  0  0
  186.1210  176.7970  144.6720 C   0  0  0  0  0  2  0  0  0  0  0  0
  186.5800  177.9840  146.6370 C   0  0  0  0  0  0  0  0  0  0  0  0
  186.8760  176.6940  145.9910 C   0  0  2  0  0  3  0  0  0  0  0  0
  187.0010  178.3060  147.7410 O   0  0  0  0  0  0  0  0  0  0  0  0
  185.8490  178.8130  143.4920 C   0  0  0  0  0  1  0  0  0  0  0  0
  185.6810  178.8310  145.8330 C   0  0  0  0  0  2  0  0  0  0  0  0
  185.3590  178.0600  144.6310 N   0  0  0  0  0  0  0  0  0  0  0  0
  190.8080  176.6470  144.8360 C   0  0  2  0  0  3  0  0  0  0  0  0
  191.2750  177.3360  143.7120 O   0  0  0  0  0  0  0  0  0  0  0  0
  190.7970  178.6400  143.8630 C   0  0  0  0  0  1  0  0  0  0  0  0
  193.0940  176.7530  145.5460 O   0  0  0  0  0  0  0  0  0  0  0  0
  191.9390  176.2840  145.7460 C   0  0  0  0  0  0  0  0  0  0  0  0
  191.6850  175.3750  146.8700 C   0  0  0  0  0  3  0  0  0  0  0  0
  191.1510  175.7940  148.0120 C   0  0  0  0  0  2  0  0  0  0  0  0
  1  2  1  0  0  0  0
  1 13  1  1  0  0  0
  3  6  1  1  0  0  0
  3  5  1  0  0  0  0
  4 32  1  1  0  0  0
  5  7  1  6  0  0  0
  5  4  1  0  0  0  0
  5  2  1  0  0  0  0
  6  1  1  0  0  0  0
  7  4  1  0  0  0  0
  8 11  1  0  0  0  0
  9 13  1  0  0  0  0
  9  8  1  0  0  0  0
 11 16  1  0  0  0  0
 12 11  2  0  0  0  0
 12 17  1  0  0  0  0
 13 14  2  0  0  0  0
 14 10  1  0  0  0  0
 14 12  1  0  0  0  0
 16 15  1  0  0  0  0
 18 19  1  0  0  0  0
 18 17  1  0  0  0  0
 20 23  1  0  0  0  0
 21 23  1  6  0  0  0
 21  3  1  0  0  0  0
 22 21  1  0  0  0  0
 24 26  1  6  0  0  0
 24 25  1  0  0  0  0
 24 20  1  0  0  0  0
 25 27  1  1  0  0  0
 25 22  1  0  0  0  0
 27 28  1  6  0  0  0
 30 31  2  0  0  0  0
 31 29  1  0  0  0  0
 31 27  1  0  0  0  0
 32 33  1  6  0  0  0
 32 42  1  0  0  0  0
 33 34  1  0  0  0  0
 35 37  1  0  0  0  0
 36 38  2  0  0  0  0
 37 34  1  6  0  0  0
 37 36  1  0  0  0  0
 39 41  1  0  0  0  0
 40 36  1  0  0  0  0
 41 35  1  0  0  0  0
 41 40  1  0  0  0  0
 42 43  1  6  0  0  0
 42 46  1  0  0  0  0
 43 44  1  0  0  0  0
 45 46  2  0  0  0  0
 46 47  1  0  0  0  0
 47 48  2  0  0  0  0
M  END
>  <MODEL>
8

>  <REMARK>
 VINA RESULT:      -5.6      3.559      8.876
  Name = 
  15 active torsions:
  status: ('A' for Active; 'I' for Inactive)
    1  A    between atoms: O_1  and  C_45
    2  A    between atoms: O_4  and  C_10
    3  A    between atoms: O_4  and  C_40
    4  A    between atoms: C_6  and  C_42
    5  A    between atoms: C_12  and  C_14
    6  A    between atoms: C_18  and  C_41
    7  A    between atoms: N_19  and  C_41
    8  A    between atoms: N_19  and  C_48
    9  A    between atoms: C_21  and  C_36
   10  A    between atoms: C_23  and  C_48
   11  A    between atoms: O_28  and  C_39
   12  A    between atoms: C_36  and  C_45
   13  A    between atoms: C_37  and  C_38
   14  A    between atoms: C_37  and  C_46
   15  A    between atoms: C_41  and  C_45
                            x       y       z     vdW  Elec       q    Type
                         _______ _______ _______ _____ _____    ______ ____

>  <TORSDO>
F 15

$$$$
=
 OpenBabel11062418303D

 48 52  0  0  1  0  0  0  0  0999 V2000
  190.4100  174.3570  143.7230 C   0  0  1  0  0  3  0  0  0  0  0  0
  190.4300  173.7240  142.3410 C   0  0  0  0  0  2  0  0  0  0  0  0
  192.7960  174.2050  143.0830 C   0  0  1  0  0  3  0  0  0  0  0  0
  192.4550  172.6900  140.9110 C   0  0  2  0  0  3  0  0  0  0  0  0
  191.8960  173.5810  142.0230 C   0  0  1  0  0  0  0  0  0  0  0  0
  191.8150  174.8510  144.0570 C   0  0  0  0  0  2  0  0  0  0  0  0
  192.1940  174.1640  140.6560 C   0  0  0  0  0  2  0  0  0  0  0  0
  188.1970  177.2820  142.7770 O   0  0  0  0  0  0  0  0  0  0  0  0
  188.8420  176.0240  142.5670 C   0  0  0  0  0  2  0  0  0  0  0  0
  189.2490  175.2110  146.3290 C   0  0  0  0  0  1  0  0  0  0  0  0
  187.5160  177.5880  143.9610 C   0  0  0  0  0  0  0  0  0  0  0  0
  187.7470  176.8380  145.0630 C   0  0  0  0  0  0  0  0  0  0  0  0
  189.3730  175.4460  143.8500 C   0  0  0  0  0  0  0  0  0  0  0  0
  188.8190  175.8180  145.0270 C   0  0  0  0  0  0  0  0  0  0  0  0
  185.6910  178.9240  142.9240 C   0  0  0  0  0  1  0  0  0  0  0  0
  186.6480  178.6870  143.9530 O   0  0  0  0  0  0  0  0  0  0  0  0
  187.0030  176.9880  146.2430 O   0  0  0  0  0  0  0  0  0  0  0  0
  185.5990  176.7720  146.2860 C   0  0  0  0  0  2  0  0  0  0  0  0
  184.7550  178.2620  146.9050 S   0  0  0  0  0  1  0  0  0  0  0  0
  196.0300  172.5120  143.1680 C   0  0  0  0  0  2  0  0  0  0  0  0
  193.6630  173.1640  143.8220 C   0  0  2  0  0  3  0  0  0  0  0  0
  194.3760  173.7150  144.9270 O   0  0  0  0  0  0  0  0  0  0  0  0
  194.5500  172.3330  142.8750 C   0  0  0  0  0  2  0  0  0  0  0  0
  196.3120  173.9840  143.3630 C   0  0  1  0  0  3  0  0  0  0  0  0
  195.4790  174.5340  144.5320 C   0  0  1  0  0  3  0  0  0  0  0  0
  197.6700  174.1690  143.6230 O   0  0  0  0  0  1  0  0  0  0  0  0
  195.0940  176.0090  144.3380 C   0  0  2  0  0  3  0  0  0  0  0  0
  196.1350  176.7060  143.7050 O   0  0  0  0  0  1  0  0  0  0  0  0
  194.9200  177.9420  145.7260 O   0  0  0  0  0  0  0  0  0  0  0  0
  194.3200  175.9760  146.7320 O   0  0  0  0  0  1  0  0  0  0  0  0
  194.7640  176.6960  145.6300 C   0  0  0  0  0  0  0  0  0  0  0  0
  191.3780  171.8330  140.2450 C   0  0  2  0  0  3  0  0  0  0  0  0
  191.5620  170.4390  140.6230 N   0  0  0  0  0  2  0  0  0  0  0  0
  192.9970  170.1740  140.6380 C   0  0  0  0  0  2  0  0  0  0  0  0
  192.4190  168.5850  142.4460 C   0  0  0  0  0  2  0  0  0  0  0  0
  194.6430  168.6940  141.7200 C   0  0  0  0  0  0  0  0  0  0  0  0
  193.2690  168.7930  141.1980 C   0  0  2  0  0  3  0  0  0  0  0  0
  195.6450  168.7980  141.0250 O   0  0  0  0  0  0  0  0  0  0  0  0
  193.0580  169.3250  144.5840 C   0  0  0  0  0  1  0  0  0  0  0  0
  194.6840  168.4030  143.1650 C   0  0  0  0  0  2  0  0  0  0  0  0
  193.2910  168.2870  143.5980 N   0  0  0  0  0  0  0  0  0  0  0  0
  191.4190  171.9600  138.7190 C   0  0  2  0  0  3  0  0  0  0  0  0
  192.7120  172.2320  138.2580 O   0  0  0  0  0  0  0  0  0  0  0  0
  192.9190  171.3320  137.2100 C   0  0  0  0  0  1  0  0  0  0  0  0
  190.8010  173.8280  137.3530 O   0  0  0  0  0  0  0  0  0  0  0  0
  190.4490  172.9860  138.2250 C   0  0  0  0  0  0  0  0  0  0  0  0
  189.0870  172.9990  138.7710 C   0  0  0  0  0  3  0  0  0  0  0  0
  188.1910  173.9140  138.4160 C   0  0  0  0  0  2  0  0  0  0  0  0
  1 13  1  6  0  0  0
  1  6  1  0  0  0  0
  2  1  1  0  0  0  0
  3 21  1  0  0  0  0
  3  6  1  1  0  0  0
  4 32  1  6  0  0  0
  4  5  1  0  0  0  0
  5  7  1  6  0  0  0
  5  2  1  0  0  0  0
  5  3  1  0  0  0  0
  7  4  1  0  0  0  0
  8 11  1  0  0  0  0
  9  8  1  0  0  0  0
  9 13  1  0  0  0  0
 11 12  2  0  0  0  0
 12 17  1  0  0  0  0
 13 14  2  0  0  0  0
 14 12  1  0  0  0  0
 14 10  1  0  0  0  0
 15 16  1  0  0  0  0
 16 11  1  0  0  0  0
 17 18  1  0  0  0  0
 18 19  1  0  0  0  0
 20 24  1  0  0  0  0
 21 23  1  6  0  0  0
 21 22  1  0  0  0  0
 23 20  1  0  0  0  0
 24 26  1  1  0  0  0
 24 25  1  0  0  0  0
 25 27  1  6  0  0  0
 25 22  1  0  0  0  0
 27 28  1  1  0  0  0
 27 31  1  0  0  0  0
 31 29  2  0  0  0  0
 31 30  1  0  0  0  0
 32 33  1  6  0  0  0
 33 34  1  0  0  0  0
 35 41  1  0  0  0  0
 36 40  1  0  0  0  0
 37 34  1  1  0  0  0
 37 36  1  0  0  0  0
 37 35  1  0  0  0  0
 38 36  2  0  0  0  0
 40 41  1  0  0  0  0
 41 39  1  0  0  0  0
 42 46  1  1  0  0  0
 42 32  1  0  0  0  0
 43 42  1  0  0  0  0
 44 43  1  0  0  0  0
 45 46  2  0  0  0  0
 46 47  1  0  0  0  0
 48 47  2  0  0  0  0
M  END
>  <MODEL>
9

>  <REMARK>
 VINA RESULT:      -5.5      3.352      7.993
  Name = 
  15 active torsions:
  status: ('A' for Active; 'I' for Inactive)
    1  A    between atoms: O_1  and  C_45
    2  A    between atoms: O_4  and  C_10
    3  A    between atoms: O_4  and  C_40
    4  A    between atoms: C_6  and  C_42
    5  A    between atoms: C_12  and  C_14
    6  A    between atoms: C_18  and  C_41
    7  A    between atoms: N_19  and  C_41
    8  A    between atoms: N_19  and  C_48
    9  A    between atoms: C_21  and  C_36
   10  A    between atoms: C_23  and  C_48
   11  A    between atoms: O_28  and  C_39
   12  A    between atoms: C_36  and  C_45
   13  A    between atoms: C_37  and  C_38
   14  A    between atoms: C_37  and  C_46
   15  A    between atoms: C_41  and  C_45
                            x       y       z     vdW  Elec       q    Type
                         _______ _______ _______ _____ _____    ______ ____

>  <TORSDO>
F 15

$$$$
