=
 OpenBabel11072409063D

 47 49  0  0  1  0  0  0  0  0999 V2000
  193.4350  176.2680  146.2950 O   0  0  0  0  0  0  0  0  0  0  0  0
  192.9260  175.1180  146.2060 C   0  0  0  0  0  0  0  0  0  0  0  0
  191.5660  174.8910  146.5840 N   0  0  0  0  0  2  0  0  0  0  0  0
  190.7120  175.9710  147.0450 C   0  0  0  0  0  2  0  0  0  0  0  0
  189.2610  175.5170  147.0650 C   0  0  2  0  0  3  0  0  0  0  0  0
  189.1860  174.1800  146.6710 O   0  0  0  0  0  1  0  0  0  0  0  0
  188.4440  176.3650  146.1090 C   0  0  0  0  0  2  0  0  0  0  0  0
  187.1750  176.8450  146.7900 C   0  0  0  0  0  2  0  0  0  0  0  0
  185.9920  176.7520  145.8400 C   0  0  1  0  0  3  0  0  0  0  0  0
  184.7650  177.4660  146.4330 C   0  0  0  0  0  2  0  0  0  0  0  0
  185.9230  178.6900  144.1730 C   0  0  0  0  0  2  0  0  0  0  0  0
  186.4200  177.2700  144.4580 C   0  0  2  0  0  3  0  0  0  0  0  0
  184.6130  178.9210  145.9570 C   0  0  0  0  0  2  0  0  0  0  0  0
  185.7930  179.4030  145.3720 O   0  0  0  0  0  0  0  0  0  0  0  0
  186.2880  176.8580  142.1040 O   0  0  0  0  0  0  0  0  0  0  0  0
  185.9550  176.3190  143.3610 C   0  0  1  0  0  3  0  0  0  0  0  0
  187.0530  175.7540  142.5210 C   0  0  2  0  0  3  0  0  0  0  0  0
  188.3240  176.1890  142.9190 O   0  0  0  0  0  0  0  0  0  0  0  0
  189.1540  175.0780  142.7660 C   0  0  1  0  0  3  0  0  0  0  0  0
  188.4440  174.0380  141.9090 C   0  0  0  0  0  2  0  0  0  0  0  0
  189.4720  172.0480  143.4920 S   0  0  0  0  0  1  0  0  0  0  0  0
  189.2450  172.7470  141.8340 C   0  0  0  0  0  2  0  0  0  0  0  0
  190.4540  175.4950  142.0960 C   0  0  0  0  0  2  0  0  0  0  0  0
  191.4680  175.9390  143.1330 C   0  0  0  0  0  2  0  0  0  0  0  0
  191.6480  177.4390  143.0480 C   0  0  0  0  0  1  0  0  0  0  0  0
  193.7450  173.9860  145.6960 C   0  0  0  0  0  2  0  0  0  0  0  0
  195.7700  172.9120  143.9900 O   0  0  0  0  0  0  0  0  0  0  0  0
  195.1500  174.3620  145.7150 N   0  0  0  0  0  2  0  0  0  0  0  0
  196.1070  173.8040  144.8140 C   0  0  0  0  0  0  0  0  0  0  0  0
  197.5020  174.3300  144.8130 C   0  0  0  0  0  2  0  0  0  0  0  0
  197.8280  174.8750  143.5040 N   0  0  0  0  0  2  0  0  0  0  0  0
  197.0890  176.1190  143.3470 C   0  0  0  0  0  2  0  0  0  0  0  0
  196.5530  176.2280  141.9330 C   0  0  2  0  0  3  0  0  0  0  0  0
  197.6120  174.4260  138.7260 C   0  0  0  0  0  1  0  0  0  0  0  0
  196.8320  175.3980  139.5850 C   0  0  1  0  0  3  0  0  0  0  0  0
  194.5490  175.9840  140.4730 C   0  0  0  0  0  2  0  0  0  0  0  0
  195.0760  175.8470  141.8960 C   0  0  0  0  0  2  0  0  0  0  0  0
  195.3330  175.0790  139.5200 C   0  0  1  0  0  3  0  0  0  0  0  0
  197.3440  175.3010  141.0200 C   0  0  0  0  0  2  0  0  0  0  0  0
  194.8580  175.2670  138.2150 O   0  0  0  0  0  0  0  0  0  0  0  0
  193.7220  174.4560  138.1150 C   0  0  1  0  0  3  0  0  0  0  0  0
  191.6990  174.4170  136.8250 O   0  0  0  0  0  0  0  0  0  0  0  0
  192.7770  175.0130  137.0950 C   0  0  0  0  0  0  0  0  0  0  0  0
  193.1170  176.2070  136.4010 N   0  0  0  0  0  1  0  0  0  0  0  0
  194.1170  173.0560  137.7720 C   0  0  0  0  0  0  0  0  0  0  0  0
  194.8460  172.7940  136.6200 O   0  0  0  0  0  0  0  0  0  0  0  0
  193.7560  172.1050  138.5140 O   0  0  0  0  0  1  0  0  0  0  0  0
  2  1  2  0  0  0  0
  2  3  1  0  0  0  0
  3  4  1  0  0  0  0
  4  5  1  0  0  0  0
  5  6  1  6  0  0  0
  7  8  1  0  0  0  0
  7  5  1  0  0  0  0
  9 10  1  0  0  0  0
  9  8  1  1  0  0  0
 11 14  1  0  0  0  0
 12 11  1  6  0  0  0
 12  9  1  0  0  0  0
 13 10  1  0  0  0  0
 14 13  1  0  0  0  0
 15 17  1  0  0  0  0
 16 15  1  6  0  0  0
 16 12  1  0  0  0  0
 17 18  1  1  0  0  0
 17 16  1  0  0  0  0
 19 20  1  6  0  0  0
 19 18  1  0  0  0  0
 22 20  1  0  0  0  0
 22 21  1  0  0  0  0
 23 19  1  0  0  0  0
 23 24  1  0  0  0  0
 25 24  1  0  0  0  0
 26 28  1  0  0  0  0
 26  2  1  0  0  0  0
 27 29  2  0  0  0  0
 29 28  1  0  0  0  0
 30 29  1  0  0  0  0
 31 30  1  0  0  0  0
 32 31  1  0  0  0  0
 33 32  1  1  0  0  0
 35 34  1  6  0  0  0
 35 39  1  0  0  0  0
 36 37  1  0  0  0  0
 37 33  1  0  0  0  0
 38 40  1  6  0  0  0
 38 35  1  0  0  0  0
 38 36  1  0  0  0  0
 39 33  1  0  0  0  0
 41 43  1  6  0  0  0
 41 40  1  0  0  0  0
 42 43  2  0  0  0  0
 44 43  1  0  0  0  0
 45 41  1  0  0  0  0
 45 47  1  0  0  0  0
 46 45  2  0  0  0  0
M  END
>  <MODEL>
1

>  <REMARK>
 VINA RESULT:      -5.7      0.000      0.000
  Name = 
  22 active torsions:
  status: ('A' for Active; 'I' for Inactive)
    1  A    between atoms: C_1  and  C_10
    2  A    between atoms: C_3  and  C_41
    3  A    between atoms: C_4  and  C_5
    4  A    between atoms: C_4  and  C_36
    5  A    between atoms: C_5  and  N_35
    6  A    between atoms: C_8  and  C_9
    7  A    between atoms: C_8  and  C_30
    8  A    between atoms: C_10  and  N_32
    9  A    between atoms: C_11  and  N_13
   10  A    between atoms: C_11  and  C_18
   11  A    between atoms: C_12  and  C_20
   12  A    between atoms: O_19  and  C_20
   13  A    between atoms: O_19  and  C_46
   14  A    between atoms: C_20  and  C_44
   15  A    between atoms: C_21  and  C_27
   16  A    between atoms: C_22  and  C_24
   17  A    between atoms: C_24  and  N_32
   18  A    between atoms: O_29  and  C_30
   19  A    between atoms: O_29  and  C_34
   20  A    between atoms: C_30  and  C_42
   21  A    between atoms: C_36  and  C_41
   22  A    between atoms: C_39  and  C_42
                            x       y       z     vdW  Elec       q    Type
                         _______ _______ _______ _____ _____    ______ ____

>  <TORSDO>
F 22

$$$$
=
 OpenBabel11072409063D

 47 49  0  0  1  0  0  0  0  0999 V2000
  187.9990  174.7040  142.6980 O   0  0  0  0  0  0  0  0  0  0  0  0
  188.6800  175.3360  141.8460 C   0  0  0  0  0  0  0  0  0  0  0  0
  190.1030  175.4100  141.9580 N   0  0  0  0  0  2  0  0  0  0  0  0
  190.8200  174.7370  143.0260 C   0  0  0  0  0  2  0  0  0  0  0  0
  191.7320  173.6660  142.4480 C   0  0  2  0  0  3  0  0  0  0  0  0
  190.9890  172.5140  142.1850 O   0  0  0  0  0  1  0  0  0  0  0  0
  192.8290  173.3350  143.4420 C   0  0  0  0  0  2  0  0  0  0  0  0
  192.3800  172.2140  144.3620 C   0  0  0  0  0  2  0  0  0  0  0  0
  193.4980  171.2030  144.5550 C   0  0  1  0  0  3  0  0  0  0  0  0
  192.9820  169.7740  144.3110 C   0  0  0  0  0  2  0  0  0  0  0  0
  194.8010  170.7640  142.3990 C   0  0  0  0  0  2  0  0  0  0  0  0
  194.6910  171.6050  143.6740 C   0  0  2  0  0  3  0  0  0  0  0  0
  193.2200  169.2730  142.8760 C   0  0  0  0  0  2  0  0  0  0  0  0
  193.5310  170.3250  142.0030 O   0  0  0  0  0  0  0  0  0  0  0  0
  197.0780  171.7790  143.6060 O   0  0  0  0  0  0  0  0  0  0  0  0
  195.9920  171.5310  144.4670 C   0  0  1  0  0  3  0  0  0  0  0  0
  196.7650  172.8080  144.5140 C   0  0  2  0  0  3  0  0  0  0  0  0
  196.1300  173.8550  143.8330 O   0  0  0  0  0  0  0  0  0  0  0  0
  196.2990  174.9750  144.6490 C   0  0  1  0  0  3  0  0  0  0  0  0
  195.9440  176.2270  143.8590 C   0  0  0  0  0  2  0  0  0  0  0  0
  194.3900  176.1890  141.5990 S   0  0  0  0  0  1  0  0  0  0  0  0
  196.0220  175.9730  142.3610 C   0  0  0  0  0  2  0  0  0  0  0  0
  195.3970  174.8640  145.8700 C   0  0  0  0  0  2  0  0  0  0  0  0
  194.2340  175.8310  145.7590 C   0  0  0  0  0  2  0  0  0  0  0  0
  193.0430  175.2710  146.5050 C   0  0  0  0  0  1  0  0  0  0  0  0
  187.9970  176.0050  140.7050 C   0  0  0  0  0  2  0  0  0  0  0  0
  185.7720  177.1490  139.3260 O   0  0  0  0  0  0  0  0  0  0  0  0
  187.1500  177.0730  141.2130 N   0  0  0  0  0  2  0  0  0  0  0  0
  186.0340  177.5810  140.4800 C   0  0  0  0  0  0  0  0  0  0  0  0
  185.1400  178.5890  141.1180 C   0  0  0  0  0  2  0  0  0  0  0  0
  184.1930  177.9280  142.0030 N   0  0  0  0  0  2  0  0  0  0  0  0
  184.1320  178.6970  143.2380 C   0  0  0  0  0  2  0  0  0  0  0  0
  185.3080  178.3410  144.1260 C   0  0  2  0  0  3  0  0  0  0  0  0
  185.9950  179.1740  147.7990 C   0  0  0  0  0  1  0  0  0  0  0  0
  186.2730  178.6040  146.4230 C   0  0  1  0  0  3  0  0  0  0  0  0
  186.6490  176.4860  145.1120 C   0  0  0  0  0  2  0  0  0  0  0  0
  185.4490  176.8260  144.2360 C   0  0  0  0  0  2  0  0  0  0  0  0
  186.4810  177.0870  146.5100 C   0  0  1  0  0  3  0  0  0  0  0  0
  185.0960  178.9380  145.5100 C   0  0  0  0  0  2  0  0  0  0  0  0
  187.6220  176.8000  147.2720 O   0  0  0  0  0  0  0  0  0  0  0  0
  188.5450  176.2630  146.3680 C   0  0  1  0  0  3  0  0  0  0  0  0
  190.4240  177.4810  147.2280 O   0  0  0  0  0  0  0  0  0  0  0  0
  189.7220  177.1780  146.2260 C   0  0  0  0  0  0  0  0  0  0  0  0
  190.0290  177.7350  144.9540 N   0  0  0  0  0  1  0  0  0  0  0  0
  188.9730  174.9030  146.8170 C   0  0  0  0  0  0  0  0  0  0  0  0
  189.7210  174.0890  145.9760 O   0  0  0  0  0  0  0  0  0  0  0  0
  188.6230  174.4790  147.9490 O   0  0  0  0  0  1  0  0  0  0  0  0
  2  3  1  0  0  0  0
  2  1  2  0  0  0  0
  3  4  1  0  0  0  0
  5  6  1  1  0  0  0
  5  4  1  0  0  0  0
  5  7  1  0  0  0  0
  7  8  1  0  0  0  0
  9  8  1  6  0  0  0
 10  9  1  0  0  0  0
 12 11  1  6  0  0  0
 12 16  1  0  0  0  0
 12  9  1  0  0  0  0
 13 10  1  0  0  0  0
 14 11  1  0  0  0  0
 14 13  1  0  0  0  0
 15 17  1  0  0  0  0
 16 15  1  6  0  0  0
 16 17  1  0  0  0  0
 17 18  1  6  0  0  0
 18 19  1  0  0  0  0
 19 20  1  6  0  0  0
 19 23  1  0  0  0  0
 21 22  1  0  0  0  0
 22 20  1  0  0  0  0
 24 23  1  0  0  0  0
 24 25  1  0  0  0  0
 26 28  1  0  0  0  0
 26  2  1  0  0  0  0
 27 29  2  0  0  0  0
 29 30  1  0  0  0  0
 29 28  1  0  0  0  0
 30 31  1  0  0  0  0
 31 32  1  0  0  0  0
 33 32  1  6  0  0  0
 33 37  1  0  0  0  0
 33 39  1  0  0  0  0
 35 38  1  0  0  0  0
 35 34  1  1  0  0  0
 36 38  1  0  0  0  0
 37 36  1  0  0  0  0
 38 40  1  1  0  0  0
 39 35  1  0  0  0  0
 41 43  1  1  0  0  0
 41 45  1  0  0  0  0
 41 40  1  0  0  0  0
 43 42  2  0  0  0  0
 44 43  1  0  0  0  0
 45 47  1  0  0  0  0
 46 45  2  0  0  0  0
M  END
>  <MODEL>
2

>  <REMARK>
 VINA RESULT:      -5.7      3.359     10.015
  Name = 
  22 active torsions:
  status: ('A' for Active; 'I' for Inactive)
    1  A    between atoms: C_1  and  C_10
    2  A    between atoms: C_3  and  C_41
    3  A    between atoms: C_4  and  C_5
    4  A    between atoms: C_4  and  C_36
    5  A    between atoms: C_5  and  N_35
    6  A    between atoms: C_8  and  C_9
    7  A    between atoms: C_8  and  C_30
    8  A    between atoms: C_10  and  N_32
    9  A    between atoms: C_11  and  N_13
   10  A    between atoms: C_11  and  C_18
   11  A    between atoms: C_12  and  C_20
   12  A    between atoms: O_19  and  C_20
   13  A    between atoms: O_19  and  C_46
   14  A    between atoms: C_20  and  C_44
   15  A    between atoms: C_21  and  C_27
   16  A    between atoms: C_22  and  C_24
   17  A    between atoms: C_24  and  N_32
   18  A    between atoms: O_29  and  C_30
   19  A    between atoms: O_29  and  C_34
   20  A    between atoms: C_30  and  C_42
   21  A    between atoms: C_36  and  C_41
   22  A    between atoms: C_39  and  C_42
                            x       y       z     vdW  Elec       q    Type
                         _______ _______ _______ _____ _____    ______ ____

>  <TORSDO>
F 22

$$$$
=
 OpenBabel11072409063D

 47 49  0  0  1  0  0  0  0  0999 V2000
  184.2750  178.7830  143.6200 O   0  0  0  0  0  0  0  0  0  0  0  0
  184.9610  177.8700  144.1530 C   0  0  0  0  0  0  0  0  0  0  0  0
  185.7750  177.0070  143.3540 N   0  0  0  0  0  2  0  0  0  0  0  0
  185.8750  177.1700  141.9150 C   0  0  0  0  0  2  0  0  0  0  0  0
  187.2880  176.8540  141.4510 C   0  0  2  0  0  3  0  0  0  0  0  0
  187.2690  176.5130  140.0980 O   0  0  0  0  0  1  0  0  0  0  0  0
  187.8430  175.6910  142.2510 C   0  0  0  0  0  2  0  0  0  0  0  0
  189.3230  175.5160  141.9600 C   0  0  0  0  0  2  0  0  0  0  0  0
  189.6750  174.0410  141.8610 C   0  0  1  0  0  3  0  0  0  0  0  0
  188.4150  173.2010  141.5880 C   0  0  0  0  0  2  0  0  0  0  0  0
  190.2760  173.3390  139.4750 C   0  0  0  0  0  2  0  0  0  0  0  0
  190.7910  173.8640  140.8180 C   0  0  2  0  0  3  0  0  0  0  0  0
  188.1820  172.9100  140.0960 C   0  0  0  0  0  2  0  0  0  0  0  0
  188.9510  173.7490  139.2760 O   0  0  0  0  0  0  0  0  0  0  0  0
  192.8300  172.7050  140.3400 O   0  0  0  0  0  0  0  0  0  0  0  0
  191.8870  172.9490  141.3560 C   0  0  1  0  0  3  0  0  0  0  0  0
  193.2500  173.5590  141.3770 C   0  0  2  0  0  3  0  0  0  0  0  0
  193.2630  174.8820  140.9180 O   0  0  0  0  0  0  0  0  0  0  0  0
  194.5880  175.1270  140.5530 C   0  0  1  0  0  3  0  0  0  0  0  0
  194.6800  175.2140  139.0350 C   0  0  0  0  0  2  0  0  0  0  0  0
  196.9650  173.7620  139.4800 S   0  0  0  0  0  1  0  0  0  0  0  0
  195.4900  174.0580  138.4660 C   0  0  0  0  0  2  0  0  0  0  0  0
  195.0590  176.4350  141.1720 C   0  0  0  0  0  2  0  0  0  0  0  0
  195.5390  176.2070  142.5920 C   0  0  0  0  0  2  0  0  0  0  0  0
  197.0460  176.3410  142.6400 C   0  0  0  0  0  1  0  0  0  0  0  0
  184.9300  177.6900  145.6300 C   0  0  0  0  0  2  0  0  0  0  0  0
  187.0540  178.1270  147.4910 O   0  0  0  0  0  0  0  0  0  0  0  0
  185.9290  176.7050  146.0150 N   0  0  0  0  0  2  0  0  0  0  0  0
  186.9500  176.9820  146.9740 C   0  0  0  0  0  0  0  0  0  0  0  0
  187.8610  175.8850  147.4090 C   0  0  0  0  0  2  0  0  0  0  0  0
  188.6830  175.4460  146.2910 N   0  0  0  0  0  2  0  0  0  0  0  0
  189.7140  176.4520  146.0800 C   0  0  0  0  0  2  0  0  0  0  0  0
  190.9230  175.8210  145.4190 C   0  0  2  0  0  3  0  0  0  0  0  0
  194.6500  176.1160  146.2450 C   0  0  0  0  0  1  0  0  0  0  0  0
  193.4240  175.6690  145.4770 C   0  0  1  0  0  3  0  0  0  0  0  0
  192.0370  173.6810  144.7920 C   0  0  0  0  0  2  0  0  0  0  0  0
  190.8260  174.2990  145.4820 C   0  0  0  0  0  2  0  0  0  0  0  0
  193.3320  174.1380  145.4690 C   0  0  1  0  0  3  0  0  0  0  0  0
  192.1880  176.2830  146.1300 C   0  0  0  0  0  2  0  0  0  0  0  0
  194.4250  173.5940  144.7810 O   0  0  0  0  0  0  0  0  0  0  0  0
  194.8850  172.5470  145.5870 C   0  0  1  0  0  3  0  0  0  0  0  0
  194.2380  171.1350  143.7570 O   0  0  0  0  0  0  0  0  0  0  0  0
  194.5080  171.2280  144.9860 C   0  0  0  0  0  0  0  0  0  0  0  0
  194.4220  170.0770  145.8160 N   0  0  0  0  0  1  0  0  0  0  0  0
  196.3650  172.6500  145.7700 C   0  0  0  0  0  0  0  0  0  0  0  0
  196.9050  173.6500  146.5680 O   0  0  0  0  0  1  0  0  0  0  0  0
  197.1270  171.8490  145.1680 O   0  0  0  0  0  0  0  0  0  0  0  0
  1  2  2  0  0  0  0
  2 26  1  0  0  0  0
  3  2  1  0  0  0  0
  4  3  1  0  0  0  0
  5  6  1  6  0  0  0
  5  4  1  0  0  0  0
  5  7  1  0  0  0  0
  8  7  1  0  0  0  0
  9  8  1  6  0  0  0
 10  9  1  0  0  0  0
 12 11  1  6  0  0  0
 12 16  1  0  0  0  0
 12  9  1  0  0  0  0
 13 10  1  0  0  0  0
 14 11  1  0  0  0  0
 14 13  1  0  0  0  0
 15 17  1  0  0  0  0
 16 15  1  6  0  0  0
 16 17  1  0  0  0  0
 17 18  1  6  0  0  0
 19 20  1  6  0  0  0
 19 18  1  0  0  0  0
 19 23  1  0  0  0  0
 22 20  1  0  0  0  0
 22 21  1  0  0  0  0
 23 24  1  0  0  0  0
 24 25  1  0  0  0  0
 26 28  1  0  0  0  0
 28 29  1  0  0  0  0
 29 30  1  0  0  0  0
 29 27  2  0  0  0  0
 31 30  1  0  0  0  0
 32 31  1  0  0  0  0
 33 37  1  0  0  0  0
 33 32  1  1  0  0  0
 33 39  1  0  0  0  0
 35 39  1  0  0  0  0
 35 34  1  1  0  0  0
 36 38  1  0  0  0  0
 36 37  1  0  0  0  0
 38 40  1  6  0  0  0
 38 35  1  0  0  0  0
 41 40  1  6  0  0  0
 41 45  1  0  0  0  0
 42 43  2  0  0  0  0
 43 41  1  0  0  0  0
 43 44  1  0  0  0  0
 45 46  1  0  0  0  0
 47 45  2  0  0  0  0
M  END
>  <MODEL>
3

>  <REMARK>
 VINA RESULT:      -5.6      2.994      7.746
  Name = 
  22 active torsions:
  status: ('A' for Active; 'I' for Inactive)
    1  A    between atoms: C_1  and  C_10
    2  A    between atoms: C_3  and  C_41
    3  A    between atoms: C_4  and  C_5
    4  A    between atoms: C_4  and  C_36
    5  A    between atoms: C_5  and  N_35
    6  A    between atoms: C_8  and  C_9
    7  A    between atoms: C_8  and  C_30
    8  A    between atoms: C_10  and  N_32
    9  A    between atoms: C_11  and  N_13
   10  A    between atoms: C_11  and  C_18
   11  A    between atoms: C_12  and  C_20
   12  A    between atoms: O_19  and  C_20
   13  A    between atoms: O_19  and  C_46
   14  A    between atoms: C_20  and  C_44
   15  A    between atoms: C_21  and  C_27
   16  A    between atoms: C_22  and  C_24
   17  A    between atoms: C_24  and  N_32
   18  A    between atoms: O_29  and  C_30
   19  A    between atoms: O_29  and  C_34
   20  A    between atoms: C_30  and  C_42
   21  A    between atoms: C_36  and  C_41
   22  A    between atoms: C_39  and  C_42
                            x       y       z     vdW  Elec       q    Type
                         _______ _______ _______ _____ _____    ______ ____

>  <TORSDO>
F 22

$$$$
=
 OpenBabel11072409063D

 47 49  0  0  1  0  0  0  0  0999 V2000
  192.2190  171.8210  139.6360 O   0  0  0  0  0  0  0  0  0  0  0  0
  191.2410  171.0640  139.3920 C   0  0  0  0  0  0  0  0  0  0  0  0
  189.9630  171.6100  139.0570 N   0  0  0  0  0  2  0  0  0  0  0  0
  189.7490  173.0420  138.9480 C   0  0  0  0  0  2  0  0  0  0  0  0
  188.3770  173.4070  139.4920 C   0  0  2  0  0  3  0  0  0  0  0  0
  188.2210  174.7940  139.4680 O   0  0  0  0  0  1  0  0  0  0  0  0
  188.2440  172.9160  140.9220 C   0  0  0  0  0  2  0  0  0  0  0  0
  187.9080  174.0750  141.8430 C   0  0  0  0  0  2  0  0  0  0  0  0
  188.7980  174.0520  143.0740 C   0  0  1  0  0  3  0  0  0  0  0  0
  190.0450  173.1850  142.8240 C   0  0  0  0  0  2  0  0  0  0  0  0
  190.5090  175.9540  143.0790 C   0  0  0  0  0  2  0  0  0  0  0  0
  189.1070  175.4980  143.4930 C   0  0  2  0  0  3  0  0  0  0  0  0
  191.2690  173.9910  142.3570 C   0  0  0  0  0  2  0  0  0  0  0  0
  190.9110  175.2750  141.9210 O   0  0  0  0  0  0  0  0  0  0  0  0
  189.0790  177.0300  145.3330 O   0  0  0  0  0  0  0  0  0  0  0  0
  188.9210  175.6720  144.9970 C   0  0  1  0  0  3  0  0  0  0  0  0
  187.7640  176.5330  145.3850 C   0  0  2  0  0  3  0  0  0  0  0  0
  187.0410  177.0050  144.2820 O   0  0  0  0  0  0  0  0  0  0  0  0
  186.1090  177.8980  144.8120 C   0  0  1  0  0  3  0  0  0  0  0  0
  185.2900  178.4980  143.6770 C   0  0  0  0  0  2  0  0  0  0  0  0
  184.2110  178.2600  141.1660 S   0  0  0  0  0  1  0  0  0  0  0  0
  185.3100  177.6000  142.4500 C   0  0  0  0  0  2  0  0  0  0  0  0
  185.1890  177.1680  145.7790 C   0  0  0  0  0  2  0  0  0  0  0  0
  184.7460  178.0960  146.8940 C   0  0  0  0  0  2  0  0  0  0  0  0
  185.7940  179.1680  147.1000 C   0  0  0  0  0  1  0  0  0  0  0  0
  191.4190  169.5880  139.4450 C   0  0  0  0  0  2  0  0  0  0  0  0
  190.8200  168.5690  142.0460 O   0  0  0  0  0  0  0  0  0  0  0  0
  192.4000  169.2590  140.4670 N   0  0  0  0  0  2  0  0  0  0  0  0
  192.0320  168.7270  141.7400 C   0  0  0  0  0  0  0  0  0  0  0  0
  193.0990  168.2990  142.6890 C   0  0  0  0  0  2  0  0  0  0  0  0
  192.8520  168.8640  144.0060 N   0  0  0  0  0  2  0  0  0  0  0  0
  194.1400  169.0240  144.6670 C   0  0  0  0  0  2  0  0  0  0  0  0
  194.2560  170.4210  145.2420 C   0  0  2  0  0  3  0  0  0  0  0  0
  197.2470  172.8050  145.4070 C   0  0  0  0  0  1  0  0  0  0  0  0
  195.8300  172.3280  145.6480 C   0  0  1  0  0  3  0  0  0  0  0  0
  193.4010  172.7600  145.1410 C   0  0  0  0  0  2  0  0  0  0  0  0
  193.2890  171.3660  144.5350 C   0  0  0  0  0  2  0  0  0  0  0  0
  194.8290  173.2930  145.0010 C   0  0  1  0  0  3  0  0  0  0  0  0
  195.6830  170.9240  145.0670 C   0  0  0  0  0  2  0  0  0  0  0  0
  194.9100  174.5520  145.6120 O   0  0  0  0  0  0  0  0  0  0  0  0
  194.0630  175.3800  144.8670 C   0  0  1  0  0  3  0  0  0  0  0  0
  192.3260  176.8820  145.5620 O   0  0  0  0  0  0  0  0  0  0  0  0
  193.5020  176.4620  145.7360 C   0  0  0  0  0  0  0  0  0  0  0  0
  194.3170  177.0460  146.7450 N   0  0  0  0  0  1  0  0  0  0  0  0
  194.8000  175.9560  143.7010 C   0  0  0  0  0  0  0  0  0  0  0  0
  196.0200  176.5930  143.8880 O   0  0  0  0  0  1  0  0  0  0  0  0
  194.2960  175.8940  142.5490 O   0  0  0  0  0  0  0  0  0  0  0  0
  2 26  1  0  0  0  0
  2  1  2  0  0  0  0
  3  2  1  0  0  0  0
  4  3  1  0  0  0  0
  4  5  1  0  0  0  0
  5  6  1  1  0  0  0
  5  7  1  0  0  0  0
  7  8  1  0  0  0  0
  9  8  1  6  0  0  0
  9 12  1  0  0  0  0
 10  9  1  0  0  0  0
 12 11  1  1  0  0  0
 12 16  1  0  0  0  0
 13 10  1  0  0  0  0
 14 13  1  0  0  0  0
 14 11  1  0  0  0  0
 15 17  1  0  0  0  0
 16 15  1  6  0  0  0
 16 17  1  0  0  0  0
 17 18  1  6  0  0  0
 18 19  1  0  0  0  0
 19 20  1  6  0  0  0
 19 23  1  0  0  0  0
 21 22  1  0  0  0  0
 22 20  1  0  0  0  0
 23 24  1  0  0  0  0
 24 25  1  0  0  0  0
 26 28  1  0  0  0  0
 28 29  1  0  0  0  0
 29 27  2  0  0  0  0
 29 30  1  0  0  0  0
 30 31  1  0  0  0  0
 31 32  1  0  0  0  0
 33 32  1  6  0  0  0
 35 34  1  6  0  0  0
 37 36  1  0  0  0  0
 37 33  1  0  0  0  0
 38 36  1  0  0  0  0
 38 40  1  1  0  0  0
 38 35  1  0  0  0  0
 39 33  1  0  0  0  0
 39 35  1  0  0  0  0
 41 45  1  6  0  0  0
 41 40  1  0  0  0  0
 41 43  1  0  0  0  0
 42 43  2  0  0  0  0
 43 44  1  0  0  0  0
 45 46  1  0  0  0  0
 47 45  2  0  0  0  0
M  END
>  <MODEL>
4

>  <REMARK>
 VINA RESULT:      -5.6      3.343      6.988
  Name = 
  22 active torsions:
  status: ('A' for Active; 'I' for Inactive)
    1  A    between atoms: C_1  and  C_10
    2  A    between atoms: C_3  and  C_41
    3  A    between atoms: C_4  and  C_5
    4  A    between atoms: C_4  and  C_36
    5  A    between atoms: C_5  and  N_35
    6  A    between atoms: C_8  and  C_9
    7  A    between atoms: C_8  and  C_30
    8  A    between atoms: C_10  and  N_32
    9  A    between atoms: C_11  and  N_13
   10  A    between atoms: C_11  and  C_18
   11  A    between atoms: C_12  and  C_20
   12  A    between atoms: O_19  and  C_20
   13  A    between atoms: O_19  and  C_46
   14  A    between atoms: C_20  and  C_44
   15  A    between atoms: C_21  and  C_27
   16  A    between atoms: C_22  and  C_24
   17  A    between atoms: C_24  and  N_32
   18  A    between atoms: O_29  and  C_30
   19  A    between atoms: O_29  and  C_34
   20  A    between atoms: C_30  and  C_42
   21  A    between atoms: C_36  and  C_41
   22  A    between atoms: C_39  and  C_42
                            x       y       z     vdW  Elec       q    Type
                         _______ _______ _______ _____ _____    ______ ____

>  <TORSDO>
F 22

$$$$
=
 OpenBabel11072409063D

 47 49  0  0  1  0  0  0  0  0999 V2000
  193.8110  175.2840  140.9740 O   0  0  0  0  0  0  0  0  0  0  0  0
  194.5320  174.6430  141.7870 C   0  0  0  0  0  0  0  0  0  0  0  0
  194.5560  173.2140  141.7710 N   0  0  0  0  0  2  0  0  0  0  0  0
  193.7890  172.4490  140.8040 C   0  0  0  0  0  2  0  0  0  0  0  0
  193.1000  171.2810  141.4910 C   0  0  2  0  0  3  0  0  0  0  0  0
  193.7900  170.1010  141.2080 O   0  0  0  0  0  1  0  0  0  0  0  0
  191.6740  171.1580  140.9880 C   0  0  0  0  0  2  0  0  0  0  0  0
  190.7570  170.7260  142.1190 C   0  0  0  0  0  2  0  0  0  0  0  0
  189.5810  171.6800  142.2450 C   0  0  1  0  0  3  0  0  0  0  0  0
  189.4050  172.1310  143.7060 C   0  0  0  0  0  2  0  0  0  0  0  0
  190.2630  174.1210  141.9030 C   0  0  0  0  0  2  0  0  0  0  0  0
  189.7650  172.8320  141.2450 C   0  0  2  0  0  3  0  0  0  0  0  0
  190.1010  173.4650  144.0240 C   0  0  0  0  0  2  0  0  0  0  0  0
  191.0310  173.8160  143.0350 O   0  0  0  0  0  0  0  0  0  0  0  0
  188.6440  174.1980  139.6290 O   0  0  0  0  0  0  0  0  0  0  0  0
  188.4670  173.0960  140.4870 C   0  0  1  0  0  3  0  0  0  0  0  0
  188.5690  172.9380  139.0060 C   0  0  2  0  0  3  0  0  0  0  0  0
  189.8470  172.5480  138.5860 O   0  0  0  0  0  0  0  0  0  0  0  0
  189.7170  172.2850  137.2210 C   0  0  1  0  0  3  0  0  0  0  0  0
  190.9460  172.8100  136.4910 C   0  0  0  0  0  2  0  0  0  0  0  0
  192.0510  175.0040  135.2700 S   0  0  0  0  0  1  0  0  0  0  0  0
  191.0650  174.3200  136.6300 C   0  0  0  0  0  2  0  0  0  0  0  0
  189.5880  170.7860  136.9960 C   0  0  0  0  0  2  0  0  0  0  0  0
  190.8330  170.0670  137.4800 C   0  0  0  0  0  2  0  0  0  0  0  0
  190.4320  168.7980  138.2000 C   0  0  0  0  0  1  0  0  0  0  0  0
  195.3720  175.3820  142.7680 C   0  0  0  0  0  2  0  0  0  0  0  0
  195.7360  175.0100  145.5770 O   0  0  0  0  0  0  0  0  0  0  0  0
  194.5200  175.9360  143.8090 N   0  0  0  0  0  2  0  0  0  0  0  0
  194.7760  175.7330  145.1990 C   0  0  0  0  0  0  0  0  0  0  0  0
  193.9310  176.4340  146.2070 C   0  0  0  0  0  2  0  0  0  0  0  0
  192.7640  175.6270  146.5290 N   0  0  0  0  0  2  0  0  0  0  0  0
  191.7000  176.5330  146.9380 C   0  0  0  0  0  2  0  0  0  0  0  0
  190.4930  176.3500  146.0390 C   0  0  2  0  0  3  0  0  0  0  0  0
  186.7530  176.6580  146.8000 C   0  0  0  0  0  1  0  0  0  0  0  0
  187.9880  176.3810  145.9680 C   0  0  1  0  0  3  0  0  0  0  0  0
  189.3340  177.1280  143.9740 C   0  0  0  0  0  2  0  0  0  0  0  0
  190.5410  177.3410  144.8800 C   0  0  0  0  0  2  0  0  0  0  0  0
  188.0340  177.3220  144.7580 C   0  0  1  0  0  3  0  0  0  0  0  0
  189.2220  176.5700  146.8480 C   0  0  0  0  0  2  0  0  0  0  0  0
  186.9470  177.0700  143.9100 O   0  0  0  0  0  0  0  0  0  0  0  0
  186.6710  178.2920  143.2880 C   0  0  1  0  0  3  0  0  0  0  0  0
  185.2140  178.1390  141.3880 O   0  0  0  0  0  0  0  0  0  0  0  0
  186.3930  178.0800  141.8320 C   0  0  0  0  0  0  0  0  0  0  0  0
  187.4650  177.7760  140.9490 N   0  0  0  0  0  1  0  0  0  0  0  0
  185.5180  178.9650  143.9620 C   0  0  0  0  0  0  0  0  0  0  0  0
  185.4770  180.3480  144.0680 O   0  0  0  0  0  0  0  0  0  0  0  0
  184.5980  178.2700  144.4690 O   0  0  0  0  0  1  0  0  0  0  0  0
  1  2  2  0  0  0  0
  2 26  1  0  0  0  0
  3  2  1  0  0  0  0
  4  5  1  0  0  0  0
  4  3  1  0  0  0  0
  5  6  1  6  0  0  0
  7  5  1  0  0  0  0
  7  8  1  0  0  0  0
  9  8  1  1  0  0  0
  9 10  1  0  0  0  0
 10 13  1  0  0  0  0
 11 14  1  0  0  0  0
 12 11  1  1  0  0  0
 12  9  1  0  0  0  0
 14 13  1  0  0  0  0
 16 15  1  6  0  0  0
 16 12  1  0  0  0  0
 17 18  1  1  0  0  0
 17 15  1  0  0  0  0
 17 16  1  0  0  0  0
 19 20  1  6  0  0  0
 19 18  1  0  0  0  0
 20 22  1  0  0  0  0
 21 22  1  0  0  0  0
 23 19  1  0  0  0  0
 23 24  1  0  0  0  0
 24 25  1  0  0  0  0
 26 28  1  0  0  0  0
 28 29  1  0  0  0  0
 29 27  2  0  0  0  0
 29 30  1  0  0  0  0
 30 31  1  0  0  0  0
 31 32  1  0  0  0  0
 33 39  1  0  0  0  0
 33 32  1  1  0  0  0
 35 34  1  1  0  0  0
 35 39  1  0  0  0  0
 36 38  1  0  0  0  0
 36 37  1  0  0  0  0
 37 33  1  0  0  0  0
 38 40  1  6  0  0  0
 38 35  1  0  0  0  0
 41 43  1  6  0  0  0
 41 40  1  0  0  0  0
 41 45  1  0  0  0  0
 42 43  2  0  0  0  0
 44 43  1  0  0  0  0
 45 46  2  0  0  0  0
 45 47  1  0  0  0  0
M  END
>  <MODEL>
5

>  <REMARK>
 VINA RESULT:      -5.6      3.085      7.847
  Name = 
  22 active torsions:
  status: ('A' for Active; 'I' for Inactive)
    1  A    between atoms: C_1  and  C_10
    2  A    between atoms: C_3  and  C_41
    3  A    between atoms: C_4  and  C_5
    4  A    between atoms: C_4  and  C_36
    5  A    between atoms: C_5  and  N_35
    6  A    between atoms: C_8  and  C_9
    7  A    between atoms: C_8  and  C_30
    8  A    between atoms: C_10  and  N_32
    9  A    between atoms: C_11  and  N_13
   10  A    between atoms: C_11  and  C_18
   11  A    between atoms: C_12  and  C_20
   12  A    between atoms: O_19  and  C_20
   13  A    between atoms: O_19  and  C_46
   14  A    between atoms: C_20  and  C_44
   15  A    between atoms: C_21  and  C_27
   16  A    between atoms: C_22  and  C_24
   17  A    between atoms: C_24  and  N_32
   18  A    between atoms: O_29  and  C_30
   19  A    between atoms: O_29  and  C_34
   20  A    between atoms: C_30  and  C_42
   21  A    between atoms: C_36  and  C_41
   22  A    between atoms: C_39  and  C_42
                            x       y       z     vdW  Elec       q    Type
                         _______ _______ _______ _____ _____    ______ ____

>  <TORSDO>
F 22

$$$$
=
 OpenBabel11072409063D

 47 49  0  0  1  0  0  0  0  0999 V2000
  187.7230  177.9090  141.2420 O   0  0  0  0  0  0  0  0  0  0  0  0
  187.0290  177.0140  141.7960 C   0  0  0  0  0  0  0  0  0  0  0  0
  187.5580  175.7020  141.9990 N   0  0  0  0  0  2  0  0  0  0  0  0
  188.9160  175.3590  141.6160 C   0  0  0  0  0  2  0  0  0  0  0  0
  189.1120  173.8530  141.6820 C   0  0  2  0  0  3  0  0  0  0  0  0
  188.9250  173.4140  142.9930 O   0  0  0  0  0  1  0  0  0  0  0  0
  190.5170  173.4980  141.2330 C   0  0  0  0  0  2  0  0  0  0  0  0
  191.5130  174.4980  141.7940 C   0  0  0  0  0  2  0  0  0  0  0  0
  192.7680  174.5360  140.9390 C   0  0  1  0  0  3  0  0  0  0  0  0
  194.0220  174.3490  141.8110 C   0  0  0  0  0  2  0  0  0  0  0  0
  193.4200  172.2260  140.0570 C   0  0  0  0  0  2  0  0  0  0  0  0
  192.6290  173.5110  139.8020 C   0  0  2  0  0  3  0  0  0  0  0  0
  194.5090  172.8910  141.8800 C   0  0  0  0  0  2  0  0  0  0  0  0
  193.5280  171.9940  141.4340 O   0  0  0  0  0  0  0  0  0  0  0  0
  193.0320  173.1360  137.4730 O   0  0  0  0  0  0  0  0  0  0  0  0
  193.0420  174.1290  138.4700 C   0  0  1  0  0  3  0  0  0  0  0  0
  191.9910  174.0810  137.4100 C   0  0  2  0  0  3  0  0  0  0  0  0
  190.7990  173.4930  137.8500 O   0  0  0  0  0  0  0  0  0  0  0  0
  189.9680  173.4710  136.7290 C   0  0  1  0  0  3  0  0  0  0  0  0
  189.9590  174.8510  136.0860 C   0  0  0  0  0  2  0  0  0  0  0  0
  188.5780  176.6250  134.5150 S   0  0  0  0  0  1  0  0  0  0  0  0
  188.5440  175.2870  135.7390 C   0  0  0  0  0  2  0  0  0  0  0  0
  190.4800  172.4430  135.7300 C   0  0  0  0  0  2  0  0  0  0  0  0
  189.5780  171.2230  135.7150 C   0  0  0  0  0  2  0  0  0  0  0  0
  190.0210  170.2590  136.7930 C   0  0  0  0  0  1  0  0  0  0  0  0
  185.6470  177.3280  142.2500 C   0  0  0  0  0  2  0  0  0  0  0  0
  184.6020  179.2750  144.0590 O   0  0  0  0  0  0  0  0  0  0  0  0
  185.5710  177.1800  143.6950 N   0  0  0  0  0  2  0  0  0  0  0  0
  185.0100  178.1850  144.5400 C   0  0  0  0  0  0  0  0  0  0  0  0
  184.8550  177.9100  145.9970 C   0  0  0  0  0  2  0  0  0  0  0  0
  186.1280  178.0900  146.6780 N   0  0  0  0  0  2  0  0  0  0  0  0
  186.5200  176.8010  147.2300 C   0  0  0  0  0  2  0  0  0  0  0  0
  187.6430  176.2050  146.4040 C   0  0  2  0  0  3  0  0  0  0  0  0
  190.4140  177.9010  144.3800 C   0  0  0  0  0  1  0  0  0  0  0  0
  189.5970  176.7530  144.9350 C   0  0  1  0  0  3  0  0  0  0  0  0
  189.6490  174.7280  146.4310 C   0  0  0  0  0  2  0  0  0  0  0  0
  188.5400  175.3380  147.2810 C   0  0  0  0  0  2  0  0  0  0  0  0
  190.4870  175.8260  145.7730 C   0  0  1  0  0  3  0  0  0  0  0  0
  188.4640  177.3270  145.7820 C   0  0  0  0  0  2  0  0  0  0  0  0
  191.4630  175.2330  144.9600 O   0  0  0  0  0  0  0  0  0  0  0  0
  192.5610  175.0150  145.8000 C   0  0  1  0  0  3  0  0  0  0  0  0
  192.6490  172.7750  144.9450 O   0  0  0  0  0  0  0  0  0  0  0  0
  193.2840  173.7690  145.3930 C   0  0  0  0  0  0  0  0  0  0  0  0
  194.6960  173.6940  145.5430 N   0  0  0  0  0  1  0  0  0  0  0  0
  193.4730  176.1990  145.7730 C   0  0  0  0  0  0  0  0  0  0  0  0
  193.9420  176.6950  144.5640 O   0  0  0  0  0  0  0  0  0  0  0  0
  193.8470  176.7260  146.8530 O   0  0  0  0  0  1  0  0  0  0  0  0
  1  2  2  0  0  0  0
  2  3  1  0  0  0  0
  2 26  1  0  0  0  0
  4  5  1  0  0  0  0
  4  3  1  0  0  0  0
  5  6  1  1  0  0  0
  7  5  1  0  0  0  0
  7  8  1  0  0  0  0
  9  8  1  1  0  0  0
  9 10  1  0  0  0  0
 10 13  1  0  0  0  0
 11 14  1  0  0  0  0
 12 11  1  1  0  0  0
 12  9  1  0  0  0  0
 14 13  1  0  0  0  0
 16 15  1  6  0  0  0
 16 12  1  0  0  0  0
 17 15  1  0  0  0  0
 17 18  1  1  0  0  0
 17 16  1  0  0  0  0
 19 23  1  6  0  0  0
 19 18  1  0  0  0  0
 20 19  1  0  0  0  0
 21 22  1  0  0  0  0
 22 20  1  0  0  0  0
 24 23  1  0  0  0  0
 24 25  1  0  0  0  0
 26 28  1  0  0  0  0
 27 29  2  0  0  0  0
 28 29  1  0  0  0  0
 29 30  1  0  0  0  0
 30 31  1  0  0  0  0
 31 32  1  0  0  0  0
 33 32  1  1  0  0  0
 33 37  1  0  0  0  0
 35 34  1  1  0  0  0
 35 38  1  0  0  0  0
 35 39  1  0  0  0  0
 36 37  1  0  0  0  0
 38 40  1  6  0  0  0
 38 36  1  0  0  0  0
 39 33  1  0  0  0  0
 41 40  1  6  0  0  0
 42 43  2  0  0  0  0
 43 44  1  0  0  0  0
 43 41  1  0  0  0  0
 45 41  1  0  0  0  0
 45 47  1  0  0  0  0
 46 45  2  0  0  0  0
M  END
>  <MODEL>
6

>  <REMARK>
 VINA RESULT:      -5.5      3.076      9.010
  Name = 
  22 active torsions:
  status: ('A' for Active; 'I' for Inactive)
    1  A    between atoms: C_1  and  C_10
    2  A    between atoms: C_3  and  C_41
    3  A    between atoms: C_4  and  C_5
    4  A    between atoms: C_4  and  C_36
    5  A    between atoms: C_5  and  N_35
    6  A    between atoms: C_8  and  C_9
    7  A    between atoms: C_8  and  C_30
    8  A    between atoms: C_10  and  N_32
    9  A    between atoms: C_11  and  N_13
   10  A    between atoms: C_11  and  C_18
   11  A    between atoms: C_12  and  C_20
   12  A    between atoms: O_19  and  C_20
   13  A    between atoms: O_19  and  C_46
   14  A    between atoms: C_20  and  C_44
   15  A    between atoms: C_21  and  C_27
   16  A    between atoms: C_22  and  C_24
   17  A    between atoms: C_24  and  N_32
   18  A    between atoms: O_29  and  C_30
   19  A    between atoms: O_29  and  C_34
   20  A    between atoms: C_30  and  C_42
   21  A    between atoms: C_36  and  C_41
   22  A    between atoms: C_39  and  C_42
                            x       y       z     vdW  Elec       q    Type
                         _______ _______ _______ _____ _____    ______ ____

>  <TORSDO>
F 22

$$$$
=
 OpenBabel11072409063D

 47 49  0  0  1  0  0  0  0  0999 V2000
  192.6810  177.1550  144.3000 O   0  0  0  0  0  0  0  0  0  0  0  0
  192.9630  176.8080  145.4790 C   0  0  0  0  0  0  0  0  0  0  0  0
  191.9400  176.6920  146.4700 N   0  0  0  0  0  2  0  0  0  0  0  0
  190.5420  176.9280  146.1550 C   0  0  0  0  0  2  0  0  0  0  0  0
  189.6610  175.9700  146.9400 C   0  0  2  0  0  3  0  0  0  0  0  0
  190.4520  175.2060  147.7990 O   0  0  0  0  0  1  0  0  0  0  0  0
  188.9290  175.0470  145.9840 C   0  0  0  0  0  2  0  0  0  0  0  0
  189.7550  173.7990  145.7260 C   0  0  0  0  0  2  0  0  0  0  0  0
  190.3760  173.8500  144.3400 C   0  0  1  0  0  3  0  0  0  0  0  0
  191.1920  172.5740  144.0650 C   0  0  0  0  0  2  0  0  0  0  0  0
  188.8380  172.8740  142.5440 C   0  0  0  0  0  2  0  0  0  0  0  0
  189.2720  174.1280  143.3080 C   0  0  2  0  0  3  0  0  0  0  0  0
  190.4010  171.4900  143.3140 C   0  0  0  0  0  2  0  0  0  0  0  0
  189.0210  171.7380  143.3430 O   0  0  0  0  0  0  0  0  0  0  0  0
  188.8140  175.2580  141.2480 O   0  0  0  0  0  0  0  0  0  0  0  0
  189.7110  175.2140  142.3310 C   0  0  1  0  0  3  0  0  0  0  0  0
  188.7320  176.3280  142.1580 C   0  0  2  0  0  3  0  0  0  0  0  0
  187.5890  176.1780  142.9540 O   0  0  0  0  0  0  0  0  0  0  0  0
  187.0800  177.4690  143.1060 C   0  0  1  0  0  3  0  0  0  0  0  0
  185.6580  177.5120  142.5610 C   0  0  0  0  0  2  0  0  0  0  0  0
  183.9580  178.2940  140.5540 S   0  0  0  0  0  1  0  0  0  0  0  0
  185.6450  177.8930  141.0880 C   0  0  0  0  0  2  0  0  0  0  0  0
  187.0770  177.8520  144.5780 C   0  0  0  0  0  2  0  0  0  0  0  0
  185.6550  178.0060  145.0840 C   0  0  0  0  0  2  0  0  0  0  0  0
  185.3790  176.9530  146.1350 C   0  0  0  0  0  1  0  0  0  0  0  0
  194.3750  176.5080  145.8420 C   0  0  0  0  0  2  0  0  0  0  0  0
  196.2470  176.6740  143.6900 O   0  0  0  0  0  0  0  0  0  0  0  0
  194.8470  175.3850  145.0470 N   0  0  0  0  0  2  0  0  0  0  0  0
  195.8070  175.5350  144.0000 C   0  0  0  0  0  0  0  0  0  0  0  0
  196.3340  174.3220  143.3130 C   0  0  0  0  0  2  0  0  0  0  0  0
  195.2960  173.3050  143.2300 N   0  0  0  0  0  2  0  0  0  0  0  0
  195.2940  172.7870  141.8690 C   0  0  0  0  0  2  0  0  0  0  0  0
  194.1290  173.3710  141.0950 C   0  0  2  0  0  3  0  0  0  0  0  0
  193.9990  174.9620  137.6160 C   0  0  0  0  0  1  0  0  0  0  0  0
  193.4710  174.5010  138.9580 C   0  0  1  0  0  3  0  0  0  0  0  0
  191.8860  172.9170  140.1090 C   0  0  0  0  0  2  0  0  0  0  0  0
  193.0600  172.3070  140.8670 C   0  0  0  0  0  2  0  0  0  0  0  0
  192.3480  173.4740  138.7600 C   0  0  1  0  0  3  0  0  0  0  0  0
  194.6240  173.8960  139.7540 C   0  0  0  0  0  2  0  0  0  0  0  0
  191.2580  174.0710  138.1130 O   0  0  0  0  0  0  0  0  0  0  0  0
  190.3670  173.0240  137.8470 C   0  0  1  0  0  3  0  0  0  0  0  0
  188.5090  174.5300  137.6620 O   0  0  0  0  0  0  0  0  0  0  0  0
  188.9630  173.4540  138.1390 C   0  0  0  0  0  0  0  0  0  0  0  0
  188.1460  172.6580  138.9880 N   0  0  0  0  0  1  0  0  0  0  0  0
  190.5080  172.5760  136.4280 C   0  0  0  0  0  0  0  0  0  0  0  0
  189.3840  172.3970  135.6340 O   0  0  0  0  0  0  0  0  0  0  0  0
  191.6510  172.3260  135.9620 O   0  0  0  0  0  1  0  0  0  0  0  0
  1  2  2  0  0  0  0
  2 26  1  0  0  0  0
  2  3  1  0  0  0  0
  4  3  1  0  0  0  0
  4  5  1  0  0  0  0
  5  6  1  1  0  0  0
  7  5  1  0  0  0  0
  8  7  1  0  0  0  0
  9  8  1  1  0  0  0
 10  9  1  0  0  0  0
 11 14  1  0  0  0  0
 12 11  1  6  0  0  0
 12  9  1  0  0  0  0
 13 14  1  0  0  0  0
 13 10  1  0  0  0  0
 15 17  1  0  0  0  0
 16 15  1  6  0  0  0
 16 12  1  0  0  0  0
 17 16  1  0  0  0  0
 17 18  1  1  0  0  0
 18 19  1  0  0  0  0
 19 20  1  1  0  0  0
 19 23  1  0  0  0  0
 21 22  1  0  0  0  0
 22 20  1  0  0  0  0
 23 24  1  0  0  0  0
 24 25  1  0  0  0  0
 27 29  2  0  0  0  0
 28 26  1  0  0  0  0
 29 28  1  0  0  0  0
 30 29  1  0  0  0  0
 31 30  1  0  0  0  0
 32 31  1  0  0  0  0
 33 32  1  6  0  0  0
 35 34  1  6  0  0  0
 35 39  1  0  0  0  0
 36 37  1  0  0  0  0
 37 33  1  0  0  0  0
 38 40  1  1  0  0  0
 38 35  1  0  0  0  0
 38 36  1  0  0  0  0
 39 33  1  0  0  0  0
 41 45  1  6  0  0  0
 41 40  1  0  0  0  0
 41 43  1  0  0  0  0
 42 43  2  0  0  0  0
 43 44  1  0  0  0  0
 46 45  2  0  0  0  0
 47 45  1  0  0  0  0
M  END
>  <MODEL>
7

>  <REMARK>
 VINA RESULT:      -5.4      2.722      4.557
  Name = 
  22 active torsions:
  status: ('A' for Active; 'I' for Inactive)
    1  A    between atoms: C_1  and  C_10
    2  A    between atoms: C_3  and  C_41
    3  A    between atoms: C_4  and  C_5
    4  A    between atoms: C_4  and  C_36
    5  A    between atoms: C_5  and  N_35
    6  A    between atoms: C_8  and  C_9
    7  A    between atoms: C_8  and  C_30
    8  A    between atoms: C_10  and  N_32
    9  A    between atoms: C_11  and  N_13
   10  A    between atoms: C_11  and  C_18
   11  A    between atoms: C_12  and  C_20
   12  A    between atoms: O_19  and  C_20
   13  A    between atoms: O_19  and  C_46
   14  A    between atoms: C_20  and  C_44
   15  A    between atoms: C_21  and  C_27
   16  A    between atoms: C_22  and  C_24
   17  A    between atoms: C_24  and  N_32
   18  A    between atoms: O_29  and  C_30
   19  A    between atoms: O_29  and  C_34
   20  A    between atoms: C_30  and  C_42
   21  A    between atoms: C_36  and  C_41
   22  A    between atoms: C_39  and  C_42
                            x       y       z     vdW  Elec       q    Type
                         _______ _______ _______ _____ _____    ______ ____

>  <TORSDO>
F 22

$$$$
=
 OpenBabel11072409063D

 47 49  0  0  1  0  0  0  0  0999 V2000
  185.5150  180.5070  143.8980 O   0  0  0  0  0  0  0  0  0  0  0  0
  185.2390  179.2820  144.0160 C   0  0  0  0  0  0  0  0  0  0  0  0
  185.9330  178.3000  143.2420 N   0  0  0  0  0  2  0  0  0  0  0  0
  187.0000  178.6640  142.3280 C   0  0  0  0  0  2  0  0  0  0  0  0
  187.1720  177.5860  141.2700 C   0  0  2  0  0  3  0  0  0  0  0  0
  185.9810  177.4380  140.5570 O   0  0  0  0  0  1  0  0  0  0  0  0
  187.5220  176.2670  141.9340 C   0  0  0  0  0  2  0  0  0  0  0  0
  188.8920  175.7990  141.4740 C   0  0  0  0  0  2  0  0  0  0  0  0
  189.3290  174.5760  142.2630 C   0  0  1  0  0  3  0  0  0  0  0  0
  188.1050  173.8160  142.8050 C   0  0  0  0  0  2  0  0  0  0  0  0
  189.5710  172.4990  140.7900 C   0  0  0  0  0  2  0  0  0  0  0  0
  190.2640  173.7260  141.3880 C   0  0  2  0  0  3  0  0  0  0  0  0
  187.6480  172.6620  141.8980 C   0  0  0  0  0  2  0  0  0  0  0  0
  188.2050  172.7570  140.6140 O   0  0  0  0  0  0  0  0  0  0  0  0
  192.1020  172.1990  141.5420 O   0  0  0  0  0  0  0  0  0  0  0  0
  191.4980  173.3010  142.1770 C   0  0  1  0  0  3  0  0  0  0  0  0
  192.7860  173.4240  141.4310 C   0  0  2  0  0  3  0  0  0  0  0  0
  192.6210  173.9370  140.1380 O   0  0  0  0  0  0  0  0  0  0  0  0
  193.9140  174.0660  139.6290 C   0  0  1  0  0  3  0  0  0  0  0  0
  193.8560  174.0590  138.1080 C   0  0  0  0  0  2  0  0  0  0  0  0
  194.5050  175.2280  135.7130 S   0  0  0  0  0  1  0  0  0  0  0  0
  194.5320  175.2900  137.5250 C   0  0  0  0  0  2  0  0  0  0  0  0
  194.5290  175.3710  140.1140 C   0  0  0  0  0  2  0  0  0  0  0  0
  195.8660  175.1120  140.7810 C   0  0  0  0  0  2  0  0  0  0  0  0
  196.4610  176.4260  141.2400 C   0  0  0  0  0  1  0  0  0  0  0  0
  184.1850  178.8510  144.9740 C   0  0  0  0  0  2  0  0  0  0  0  0
  185.6700  179.3950  147.3540 O   0  0  0  0  0  0  0  0  0  0  0  0
  184.7340  177.8480  145.8730 N   0  0  0  0  0  2  0  0  0  0  0  0
  185.4460  178.1900  147.0630 C   0  0  0  0  0  0  0  0  0  0  0  0
  185.8710  177.1080  147.9960 C   0  0  0  0  0  2  0  0  0  0  0  0
  187.0240  176.4060  147.4540 N   0  0  0  0  0  2  0  0  0  0  0  0
  187.5920  177.2360  146.4020 C   0  0  0  0  0  2  0  0  0  0  0  0
  188.7560  176.5180  145.7480 C   0  0  2  0  0  3  0  0  0  0  0  0
  191.7060  177.8830  143.7260 C   0  0  0  0  0  1  0  0  0  0  0  0
  190.8230  176.8330  144.3680 C   0  0  1  0  0  3  0  0  0  0  0  0
  190.7180  175.0270  146.1200 C   0  0  0  0  0  2  0  0  0  0  0  0
  189.5670  175.7620  146.7970 C   0  0  0  0  0  2  0  0  0  0  0  0
  191.6280  176.0140  145.3850 C   0  0  1  0  0  3  0  0  0  0  0  0
  189.6470  177.5320  145.0450 C   0  0  0  0  0  2  0  0  0  0  0  0
  192.6440  175.3020  144.7330 O   0  0  0  0  0  0  0  0  0  0  0  0
  193.7020  175.2480  145.6480 C   0  0  1  0  0  3  0  0  0  0  0  0
  194.0560  173.0210  144.8280 O   0  0  0  0  0  0  0  0  0  0  0  0
  194.5460  174.0380  145.3900 C   0  0  0  0  0  0  0  0  0  0  0  0
  195.9040  174.0250  145.8120 N   0  0  0  0  0  1  0  0  0  0  0  0
  194.5170  176.4980  145.5670 C   0  0  0  0  0  0  0  0  0  0  0  0
  195.2590  176.7800  144.4280 O   0  0  0  0  0  0  0  0  0  0  0  0
  194.5590  177.2820  146.5510 O   0  0  0  0  0  1  0  0  0  0  0  0
  1  2  2  0  0  0  0
  2 26  1  0  0  0  0
  3  2  1  0  0  0  0
  4  3  1  0  0  0  0
  5  6  1  1  0  0  0
  5  7  1  0  0  0  0
  5  4  1  0  0  0  0
  8  7  1  0  0  0  0
  9  8  1  6  0  0  0
  9 10  1  0  0  0  0
 12 11  1  1  0  0  0
 12 16  1  0  0  0  0
 12  9  1  0  0  0  0
 13 10  1  0  0  0  0
 14 11  1  0  0  0  0
 14 13  1  0  0  0  0
 16 15  1  6  0  0  0
 17 18  1  6  0  0  0
 17 15  1  0  0  0  0
 17 16  1  0  0  0  0
 19 20  1  6  0  0  0
 19 23  1  0  0  0  0
 19 18  1  0  0  0  0
 21 22  1  0  0  0  0
 22 20  1  0  0  0  0
 23 24  1  0  0  0  0
 24 25  1  0  0  0  0
 26 28  1  0  0  0  0
 28 29  1  0  0  0  0
 29 27  2  0  0  0  0
 29 30  1  0  0  0  0
 31 30  1  0  0  0  0
 32 31  1  0  0  0  0
 33 32  1  1  0  0  0
 33 37  1  0  0  0  0
 35 34  1  1  0  0  0
 35 39  1  0  0  0  0
 35 38  1  0  0  0  0
 36 37  1  0  0  0  0
 38 40  1  6  0  0  0
 38 36  1  0  0  0  0
 39 33  1  0  0  0  0
 41 40  1  6  0  0  0
 42 43  2  0  0  0  0
 43 41  1  0  0  0  0
 43 44  1  0  0  0  0
 45 41  1  0  0  0  0
 45 47  1  0  0  0  0
 46 45  2  0  0  0  0
M  END
>  <MODEL>
8

>  <REMARK>
 VINA RESULT:      -5.4      2.864      8.171
  Name = 
  22 active torsions:
  status: ('A' for Active; 'I' for Inactive)
    1  A    between atoms: C_1  and  C_10
    2  A    between atoms: C_3  and  C_41
    3  A    between atoms: C_4  and  C_5
    4  A    between atoms: C_4  and  C_36
    5  A    between atoms: C_5  and  N_35
    6  A    between atoms: C_8  and  C_9
    7  A    between atoms: C_8  and  C_30
    8  A    between atoms: C_10  and  N_32
    9  A    between atoms: C_11  and  N_13
   10  A    between atoms: C_11  and  C_18
   11  A    between atoms: C_12  and  C_20
   12  A    between atoms: O_19  and  C_20
   13  A    between atoms: O_19  and  C_46
   14  A    between atoms: C_20  and  C_44
   15  A    between atoms: C_21  and  C_27
   16  A    between atoms: C_22  and  C_24
   17  A    between atoms: C_24  and  N_32
   18  A    between atoms: O_29  and  C_30
   19  A    between atoms: O_29  and  C_34
   20  A    between atoms: C_30  and  C_42
   21  A    between atoms: C_36  and  C_41
   22  A    between atoms: C_39  and  C_42
                            x       y       z     vdW  Elec       q    Type
                         _______ _______ _______ _____ _____    ______ ____

>  <TORSDO>
F 22

$$$$
=
 OpenBabel11072409063D

 47 49  0  0  1  0  0  0  0  0999 V2000
  188.7040  173.9020  142.5100 O   0  0  0  0  0  0  0  0  0  0  0  0
  188.9730  174.9430  141.8520 C   0  0  0  0  0  0  0  0  0  0  0  0
  190.1270  175.7260  142.1650 N   0  0  0  0  0  2  0  0  0  0  0  0
  191.0480  175.3400  143.2190 C   0  0  0  0  0  2  0  0  0  0  0  0
  192.1490  176.3800  143.3570 C   0  0  2  0  0  3  0  0  0  0  0  0
  191.7090  177.5960  142.8330 O   0  0  0  0  0  1  0  0  0  0  0  0
  193.3820  175.9260  142.5980 C   0  0  0  0  0  2  0  0  0  0  0  0
  194.6160  176.0800  143.4690 C   0  0  0  0  0  2  0  0  0  0  0  0
  195.5080  174.8550  143.3500 C   0  0  1  0  0  3  0  0  0  0  0  0
  196.6210  174.8900  144.4120 C   0  0  0  0  0  2  0  0  0  0  0  0
  194.6630  172.8910  144.7550 C   0  0  0  0  0  2  0  0  0  0  0  0
  194.6310  173.5930  143.3950 C   0  0  2  0  0  3  0  0  0  0  0  0
  196.2740  174.1090  145.6900 C   0  0  0  0  0  2  0  0  0  0  0  0
  194.9030  173.8250  145.7710 O   0  0  0  0  0  0  0  0  0  0  0  0
  194.4300  171.3710  142.5270 O   0  0  0  0  0  0  0  0  0  0  0  0
  195.0330  172.6210  142.2910 C   0  0  1  0  0  3  0  0  0  0  0  0
  193.8980  172.1190  141.4600 C   0  0  2  0  0  3  0  0  0  0  0  0
  192.6630  172.6610  141.8390 O   0  0  0  0  0  0  0  0  0  0  0  0
  191.7780  172.2940  140.8240 C   0  0  1  0  0  3  0  0  0  0  0  0
  191.5010  173.5040  139.9410 C   0  0  0  0  0  2  0  0  0  0  0  0
  189.9890  173.1690  137.6770 S   0  0  0  0  0  1  0  0  0  0  0  0
  191.6210  173.1480  138.4670 C   0  0  0  0  0  2  0  0  0  0  0  0
  192.3860  171.1770  139.9890 C   0  0  0  0  0  2  0  0  0  0  0  0
  191.4060  170.0290  139.8440 C   0  0  0  0  0  2  0  0  0  0  0  0
  191.5540  169.0910  141.0220 C   0  0  0  0  0  1  0  0  0  0  0  0
  188.0860  175.3570  140.7310 C   0  0  0  0  0  2  0  0  0  0  0  0
  186.6610  177.2320  139.1140 O   0  0  0  0  0  0  0  0  0  0  0  0
  187.1150  176.3230  141.2190 N   0  0  0  0  0  2  0  0  0  0  0  0
  186.4160  177.2160  140.3510 C   0  0  0  0  0  0  0  0  0  0  0  0
  185.3470  178.0910  140.9090 C   0  0  0  0  0  2  0  0  0  0  0  0
  185.9140  179.0160  141.8780 N   0  0  0  0  0  2  0  0  0  0  0  0
  185.2430  178.7900  143.1500 C   0  0  0  0  0  2  0  0  0  0  0  0
  186.2680  178.6670  144.2600 C   0  0  2  0  0  3  0  0  0  0  0  0
  186.1170  176.7810  147.5890 C   0  0  0  0  0  1  0  0  0  0  0  0
  186.7070  177.6790  146.5210 C   0  0  1  0  0  3  0  0  0  0  0  0
  188.5760  177.9350  144.8510 C   0  0  0  0  0  2  0  0  0  0  0  0
  187.5480  178.0300  143.7290 C   0  0  0  0  0  2  0  0  0  0  0  0
  188.0300  177.0960  146.0090 C   0  0  1  0  0  3  0  0  0  0  0  0
  185.6970  177.8110  145.3830 C   0  0  0  0  0  2  0  0  0  0  0  0
  188.9760  177.0710  147.0430 O   0  0  0  0  0  0  0  0  0  0  0  0
  189.9450  176.1470  146.6360 C   0  0  1  0  0  3  0  0  0  0  0  0
  191.2550  177.1440  148.3800 O   0  0  0  0  0  0  0  0  0  0  0  0
  191.2230  176.3750  147.3820 C   0  0  0  0  0  0  0  0  0  0  0  0
  192.4180  175.7440  146.9380 N   0  0  0  0  0  1  0  0  0  0  0  0
  189.4440  174.7530  146.8420 C   0  0  0  0  0  0  0  0  0  0  0  0
  188.7600  174.4180  148.0020 O   0  0  0  0  0  1  0  0  0  0  0  0
  189.6770  173.8710  145.9740 O   0  0  0  0  0  0  0  0  0  0  0  0
  2  3  1  0  0  0  0
  2  1  2  0  0  0  0
  3  4  1  0  0  0  0
  4  5  1  0  0  0  0
  5  6  1  6  0  0  0
  7  5  1  0  0  0  0
  7  8  1  0  0  0  0
  9 12  1  0  0  0  0
  9  8  1  1  0  0  0
  9 10  1  0  0  0  0
 10 13  1  0  0  0  0
 11 14  1  0  0  0  0
 12 11  1  1  0  0  0
 13 14  1  0  0  0  0
 16 15  1  1  0  0  0
 16 12  1  0  0  0  0
 17 18  1  1  0  0  0
 17 16  1  0  0  0  0
 17 15  1  0  0  0  0
 19 20  1  6  0  0  0
 19 18  1  0  0  0  0
 21 22  1  0  0  0  0
 22 20  1  0  0  0  0
 23 19  1  0  0  0  0
 24 23  1  0  0  0  0
 24 25  1  0  0  0  0
 26 28  1  0  0  0  0
 26  2  1  0  0  0  0
 27 29  2  0  0  0  0
 29 30  1  0  0  0  0
 29 28  1  0  0  0  0
 30 31  1  0  0  0  0
 31 32  1  0  0  0  0
 33 32  1  6  0  0  0
 33 39  1  0  0  0  0
 35 34  1  1  0  0  0
 36 38  1  0  0  0  0
 37 33  1  0  0  0  0
 37 36  1  0  0  0  0
 38 35  1  0  0  0  0
 38 40  1  1  0  0  0
 39 35  1  0  0  0  0
 41 45  1  1  0  0  0
 41 40  1  0  0  0  0
 41 43  1  0  0  0  0
 43 42  2  0  0  0  0
 44 43  1  0  0  0  0
 45 46  1  0  0  0  0
 47 45  2  0  0  0  0
M  END
>  <MODEL>
9

>  <REMARK>
 VINA RESULT:      -5.4      2.981      9.439
  Name = 
  22 active torsions:
  status: ('A' for Active; 'I' for Inactive)
    1  A    between atoms: C_1  and  C_10
    2  A    between atoms: C_3  and  C_41
    3  A    between atoms: C_4  and  C_5
    4  A    between atoms: C_4  and  C_36
    5  A    between atoms: C_5  and  N_35
    6  A    between atoms: C_8  and  C_9
    7  A    between atoms: C_8  and  C_30
    8  A    between atoms: C_10  and  N_32
    9  A    between atoms: C_11  and  N_13
   10  A    between atoms: C_11  and  C_18
   11  A    between atoms: C_12  and  C_20
   12  A    between atoms: O_19  and  C_20
   13  A    between atoms: O_19  and  C_46
   14  A    between atoms: C_20  and  C_44
   15  A    between atoms: C_21  and  C_27
   16  A    between atoms: C_22  and  C_24
   17  A    between atoms: C_24  and  N_32
   18  A    between atoms: O_29  and  C_30
   19  A    between atoms: O_29  and  C_34
   20  A    between atoms: C_30  and  C_42
   21  A    between atoms: C_36  and  C_41
   22  A    between atoms: C_39  and  C_42
                            x       y       z     vdW  Elec       q    Type
                         _______ _______ _______ _____ _____    ______ ____

>  <TORSDO>
F 22

$$$$
