=
 OpenBabel11072409393D

 25 27  0  0  1  0  0  0  0  0999 V2000
  190.4510  175.4940  142.6380 C   0  0  0  0  0  0  0  0  0  0  0  0
  188.1250  175.2070  143.0740 O   0  0  0  0  0  1  0  0  0  0  0  0
  191.9530  177.2020  143.7880 C   0  0  0  0  0  2  0  0  0  0  0  0
  190.3270  174.6570  141.7030 O   0  0  0  0  0  0  0  0  0  0  0  0
  189.3200  175.6620  143.6440 C   0  0  2  0  0  0  0  0  0  0  0  0
  190.9940  178.4010  143.7120 C   0  0  0  0  0  2  0  0  0  0  0  0
  191.6750  176.2370  142.7320 N   0  0  0  0  0  2  0  0  0  0  0  0
  189.1620  177.1410  144.0910 C   0  0  1  0  0  3  0  0  0  0  0  0
  189.7300  178.0610  143.1970 O   0  0  0  0  0  0  0  0  0  0  0  0
  185.4150  178.3270  144.0190 C   0  0  0  0  0  0  0  0  0  0  0  0
  185.0670  178.3650  145.2990 C   0  0  0  0  0  0  0  0  0  0  0  0
  187.7260  177.7600  141.2590 C   0  0  0  0  0  1  0  0  0  0  0  0
  185.3380  178.4770  141.8580 N   0  0  0  0  0  0  0  0  0  0  0  0
  187.4600  177.5880  145.8500 C   0  0  0  0  0  0  0  0  0  0  0  0
  186.6480  178.0430  142.2450 C   0  0  0  0  0  0  0  0  0  0  0  0
  186.0780  177.9890  146.3610 C   0  0  0  0  0  2  0  0  0  0  0  0
  187.7770  177.5570  144.5320 C   0  0  0  0  0  0  0  0  0  0  0  0
  186.7180  177.9420  143.5720 C   0  0  0  0  0  0  0  0  0  0  0  0
  188.4690  177.2350  146.8920 C   0  0  0  0  0  1  0  0  0  0  0  0
  183.7850  178.7490  145.6690 O   0  0  0  0  0  1  0  0  0  0  0  0
  184.6140  178.6440  142.8920 N   0  0  0  0  0  0  0  0  0  0  0  0
  189.6170  174.8380  144.9030 C   0  0  0  0  0  2  0  0  0  0  0  0
  190.5000  173.6230  144.6420 C   0  0  0  0  0  2  0  0  0  0  0  0
  189.2730  171.8680  143.4050 C   0  0  0  0  0  1  0  0  0  0  0  0
  189.6900  172.3490  144.7780 C   0  0  0  0  0  2  0  0  0  0  0  0
  1  7  1  0  0  0  0
  1  5  1  0  0  0  0
  4  1  2  0  0  0  0
  5  2  1  6  0  0  0
  5  8  1  0  0  0  0
  5 22  1  0  0  0  0
  6  3  1  0  0  0  0
  7  3  1  0  0  0  0
  8 17  1  6  0  0  0
  9  6  1  0  0  0  0
  9  8  1  0  0  0  0
 10 11  2  0  0  0  0
 11 20  1  0  0  0  0
 11 16  1  0  0  0  0
 12 15  1  0  0  0  0
 13 15  1  0  0  0  0
 13 21  2  0  0  0  0
 14 16  1  0  0  0  0
 14 19  1  0  0  0  0
 15 18  2  0  0  0  0
 17 14  2  0  0  0  0
 18 10  1  0  0  0  0
 18 17  1  0  0  0  0
 21 10  1  0  0  0  0
 23 25  1  0  0  0  0
 23 22  1  0  0  0  0
 24 25  1  0  0  0  0
M  END
>  <MODEL>
1

>  <REMARK>
 VINA RESULT:      -7.2      0.000      0.000
  Name = 
  4 active torsions:
  status: ('A' for Active; 'I' for Inactive)
    1  A    between atoms: C_10  and  C_17
    2  A    between atoms: C_10  and  C_18
    3  A    between atoms: C_12  and  C_17
    4  A    between atoms: C_14  and  C_23
                            x       y       z     vdW  Elec       q    Type
                         _______ _______ _______ _____ _____    ______ ____

>  <TORSDO>
F 4

$$$$
=
 OpenBabel11072409393D

 25 27  0  0  1  0  0  0  0  0999 V2000
  190.6670  175.4060  142.5470 C   0  0  0  0  0  0  0  0  0  0  0  0
  188.2900  175.2400  142.6140 O   0  0  0  0  0  1  0  0  0  0  0  0
  192.0520  177.0820  143.8770 C   0  0  0  0  0  2  0  0  0  0  0  0
  190.6500  174.5440  141.6270 O   0  0  0  0  0  0  0  0  0  0  0  0
  189.4010  175.6600  143.3550 C   0  0  2  0  0  0  0  0  0  0  0  0
  191.1790  178.3200  143.6170 C   0  0  0  0  0  2  0  0  0  0  0  0
  191.8960  176.0950  142.8150 N   0  0  0  0  0  2  0  0  0  0  0  0
  189.2490  177.1590  143.7320 C   0  0  1  0  0  3  0  0  0  0  0  0
  189.9960  178.0210  142.9150 O   0  0  0  0  0  0  0  0  0  0  0  0
  185.8740  178.2370  145.4360 C   0  0  0  0  0  0  0  0  0  0  0  0
  185.1060  178.6050  144.4190 C   0  0  0  0  0  0  0  0  0  0  0  0
  188.9430  176.9810  146.9480 C   0  0  0  0  0  1  0  0  0  0  0  0
  186.5660  177.8050  147.4440 N   0  0  0  0  0  0  0  0  0  0  0  0
  187.0780  178.0150  142.8700 C   0  0  0  0  0  0  0  0  0  0  0  0
  187.6180  177.5030  146.5180 C   0  0  0  0  0  0  0  0  0  0  0  0
  185.6470  178.5300  143.0070 C   0  0  0  0  0  3  0  0  0  0  0  0
  187.8340  177.6520  143.9350 C   0  0  0  0  0  0  0  0  0  0  0  0
  187.2140  177.7630  145.2750 C   0  0  0  0  0  0  0  0  0  0  0  0
  187.6120  177.9190  141.4790 C   0  0  0  0  0  1  0  0  0  0  0  0
  183.8120  179.0570  144.6410 O   0  0  0  0  0  1  0  0  0  0  0  0
  185.5450  178.2350  146.8150 N   0  0  0  0  0  2  0  0  0  0  0  0
  189.4540  174.8670  144.6670 C   0  0  0  0  0  2  0  0  0  0  0  0
  190.4500  173.7140  144.6420 C   0  0  0  0  0  2  0  0  0  0  0  0
  189.2790  171.9050  143.4290 C   0  0  0  0  0  1  0  0  0  0  0  0
  189.7250  172.3910  144.7910 C   0  0  0  0  0  2  0  0  0  0  0  0
  1  7  1  0  0  0  0
  1  5  1  0  0  0  0
  4  1  2  0  0  0  0
  5  2  1  6  0  0  0
  5  8  1  0  0  0  0
  5 22  1  0  0  0  0
  6  3  1  0  0  0  0
  7  3  1  0  0  0  0
  8 17  1  6  0  0  0
  9  6  1  0  0  0  0
  9  8  1  0  0  0  0
 10 21  1  0  0  0  0
 11 20  1  0  0  0  0
 11 10  1  0  0  0  0
 14 16  1  0  0  0  0
 14 17  2  0  0  0  0
 15 12  1  0  0  0  0
 15 13  2  0  0  0  0
 16 11  2  0  0  0  0
 17 18  1  0  0  0  0
 18 10  2  0  0  0  0
 18 15  1  0  0  0  0
 19 14  1  0  0  0  0
 21 13  1  0  0  0  0
 23 22  1  0  0  0  0
 23 25  1  0  0  0  0
 24 25  1  0  0  0  0
M  END
>  <MODEL>
2

>  <REMARK>
 VINA RESULT:      -6.7      1.389      2.560
  Name = 
  4 active torsions:
  status: ('A' for Active; 'I' for Inactive)
    1  A    between atoms: C_10  and  C_17
    2  A    between atoms: C_10  and  C_18
    3  A    between atoms: C_12  and  C_17
    4  A    between atoms: C_14  and  C_23
                            x       y       z     vdW  Elec       q    Type
                         _______ _______ _______ _____ _____    ______ ____

>  <TORSDO>
F 4

$$$$
=
 OpenBabel11072409393D

 25 27  0  0  1  0  0  0  0  0999 V2000
  192.3850  173.3770  145.0150 C   0  0  0  0  0  0  0  0  0  0  0  0
  191.6880  175.5370  145.7410 O   0  0  0  0  0  1  0  0  0  0  0  0
  191.0040  171.8110  143.5530 C   0  0  0  0  0  2  0  0  0  0  0  0
  193.4010  173.5140  145.7490 O   0  0  0  0  0  0  0  0  0  0  0  0
  191.4980  174.5820  144.7350 C   0  0  2  0  0  0  0  0  0  0  0  0
  189.6580  171.9920  144.2730 C   0  0  0  0  0  2  0  0  0  0  0  0
  192.1220  172.0860  144.4470 N   0  0  0  0  0  2  0  0  0  0  0  0
  189.9970  174.1890  144.6560 C   0  0  1  0  0  3  0  0  0  0  0  0
  189.7040  172.9690  145.2850 O   0  0  0  0  0  0  0  0  0  0  0  0
  187.3270  177.0610  144.3850 C   0  0  0  0  0  0  0  0  0  0  0  0
  187.0660  177.3740  145.6470 C   0  0  0  0  0  0  0  0  0  0  0  0
  189.0080  175.1940  141.7450 C   0  0  0  0  0  1  0  0  0  0  0  0
  187.2980  177.0450  142.2180 N   0  0  0  0  0  0  0  0  0  0  0  0
  188.7700  175.5660  146.3250 C   0  0  0  0  0  0  0  0  0  0  0  0
  188.2280  176.0550  142.6740 C   0  0  0  0  0  0  0  0  0  0  0  0
  187.7760  176.6390  146.7640 C   0  0  0  0  0  2  0  0  0  0  0  0
  189.0070  175.2710  145.0240 C   0  0  0  0  0  0  0  0  0  0  0  0
  188.2620  176.0460  144.0060 C   0  0  0  0  0  0  0  0  0  0  0  0
  189.4890  174.8490  147.4200 C   0  0  0  0  0  1  0  0  0  0  0  0
  186.1480  178.3720  145.9500 O   0  0  0  0  0  1  0  0  0  0  0  0
  186.7690  177.6350  143.2150 N   0  0  0  0  0  0  0  0  0  0  0  0
  191.8740  175.2020  143.3830 C   0  0  0  0  0  2  0  0  0  0  0  0
  192.4800  176.5960  143.4990 C   0  0  0  0  0  2  0  0  0  0  0  0
  190.8810  178.4190  143.9820 C   0  0  0  0  0  1  0  0  0  0  0  0
  191.5510  177.6240  142.8830 C   0  0  0  0  0  2  0  0  0  0  0  0
  1  4  2  0  0  0  0
  3  6  1  0  0  0  0
  3  7  1  0  0  0  0
  5  1  1  0  0  0  0
  5  2  1  1  0  0  0
  6  9  1  0  0  0  0
  7  1  1  0  0  0  0
  8  5  1  0  0  0  0
  8 17  1  1  0  0  0
  8  9  1  0  0  0  0
 10 11  2  0  0  0  0
 11 20  1  0  0  0  0
 11 16  1  0  0  0  0
 12 15  1  0  0  0  0
 13 15  1  0  0  0  0
 13 21  2  0  0  0  0
 14 16  1  0  0  0  0
 14 19  1  0  0  0  0
 15 18  2  0  0  0  0
 17 14  2  0  0  0  0
 18 10  1  0  0  0  0
 18 17  1  0  0  0  0
 21 10  1  0  0  0  0
 22 23  1  0  0  0  0
 22  5  1  0  0  0  0
 25 23  1  0  0  0  0
 25 24  1  0  0  0  0
M  END
>  <MODEL>
3

>  <REMARK>
 VINA RESULT:      -6.6      2.242      3.889
  Name = 
  4 active torsions:
  status: ('A' for Active; 'I' for Inactive)
    1  A    between atoms: C_10  and  C_17
    2  A    between atoms: C_10  and  C_18
    3  A    between atoms: C_12  and  C_17
    4  A    between atoms: C_14  and  C_23
                            x       y       z     vdW  Elec       q    Type
                         _______ _______ _______ _____ _____    ______ ____

>  <TORSDO>
F 4

$$$$
=
 OpenBabel11072409393D

 25 27  0  0  1  0  0  0  0  0999 V2000
  191.5490  175.6190  147.1390 C   0  0  0  0  0  0  0  0  0  0  0  0
  189.5240  174.5830  146.4250 O   0  0  0  0  0  1  0  0  0  0  0  0
  193.2020  176.8060  145.6040 C   0  0  0  0  0  2  0  0  0  0  0  0
  191.3230  175.1520  148.2880 O   0  0  0  0  0  0  0  0  0  0  0  0
  190.4480  175.5800  146.0870 C   0  0  2  0  0  0  0  0  0  0  0  0
  193.2190  175.7630  144.4760 C   0  0  0  0  0  2  0  0  0  0  0  0
  192.8350  176.1990  146.8780 N   0  0  0  0  0  2  0  0  0  0  0  0
  191.0170  175.3130  144.6660 C   0  0  1  0  0  3  0  0  0  0  0  0
  192.2910  174.7240  144.6740 O   0  0  0  0  0  0  0  0  0  0  0  0
  188.3990  174.7110  141.7970 C   0  0  0  0  0  0  0  0  0  0  0  0
  188.2530  173.3930  141.7690 C   0  0  0  0  0  0  0  0  0  0  0  0
  189.7950  177.8350  143.0500 C   0  0  0  0  0  1  0  0  0  0  0  0
  188.1780  176.8190  141.3400 N   0  0  0  0  0  0  0  0  0  0  0  0
  189.9550  173.2820  143.6980 C   0  0  0  0  0  0  0  0  0  0  0  0
  189.1200  176.6740  142.4110 C   0  0  0  0  0  0  0  0  0  0  0  0
  189.0360  172.5330  142.7370 C   0  0  0  0  0  2  0  0  0  0  0  0
  190.0810  174.6320  143.6940 C   0  0  0  0  0  0  0  0  0  0  0  0
  189.2730  175.3840  142.7080 C   0  0  0  0  0  0  0  0  0  0  0  0
  190.7160  172.4420  144.6700 C   0  0  0  0  0  1  0  0  0  0  0  0
  187.3860  172.7990  140.8600 O   0  0  0  0  0  1  0  0  0  0  0  0
  187.7540  175.6730  140.9780 N   0  0  0  0  0  0  0  0  0  0  0  0
  189.7270  176.9320  146.0390 C   0  0  0  0  0  2  0  0  0  0  0  0
  188.3490  176.9120  146.6900 C   0  0  0  0  0  2  0  0  0  0  0  0
  186.5670  176.6710  144.9930 C   0  0  0  0  0  1  0  0  0  0  0  0
  187.3500  177.6590  145.8290 C   0  0  0  0  0  2  0  0  0  0  0  0
  1  4  2  0  0  0  0
  3  7  1  0  0  0  0
  5  2  1  1  0  0  0
  5  1  1  0  0  0  0
  6  9  1  0  0  0  0
  6  3  1  0  0  0  0
  7  1  1  0  0  0  0
  8 17  1  1  0  0  0
  8  9  1  0  0  0  0
  8  5  1  0  0  0  0
 10 18  1  0  0  0  0
 11 10  2  0  0  0  0
 11 16  1  0  0  0  0
 13 15  1  0  0  0  0
 14 19  1  0  0  0  0
 15 18  2  0  0  0  0
 15 12  1  0  0  0  0
 16 14  1  0  0  0  0
 17 14  2  0  0  0  0
 18 17  1  0  0  0  0
 20 11  1  0  0  0  0
 21 13  2  0  0  0  0
 21 10  1  0  0  0  0
 22  5  1  0  0  0  0
 22 23  1  0  0  0  0
 24 25  1  0  0  0  0
 25 23  1  0  0  0  0
M  END
>  <MODEL>
4

>  <REMARK>
 VINA RESULT:      -6.3      2.719      4.817
  Name = 
  4 active torsions:
  status: ('A' for Active; 'I' for Inactive)
    1  A    between atoms: C_10  and  C_17
    2  A    between atoms: C_10  and  C_18
    3  A    between atoms: C_12  and  C_17
    4  A    between atoms: C_14  and  C_23
                            x       y       z     vdW  Elec       q    Type
                         _______ _______ _______ _____ _____    ______ ____

>  <TORSDO>
F 4

$$$$
=
 OpenBabel11072409393D

 25 27  0  0  1  0  0  0  0  0999 V2000
  193.6640  174.2700  144.8340 C   0  0  0  0  0  0  0  0  0  0  0  0
  191.3190  174.1350  145.2410 O   0  0  0  0  0  1  0  0  0  0  0  0
  194.7940  176.0300  143.3780 C   0  0  0  0  0  2  0  0  0  0  0  0
  193.7840  173.1830  145.4610 O   0  0  0  0  0  0  0  0  0  0  0  0
  192.3430  175.0250  144.8950 C   0  0  2  0  0  0  0  0  0  0  0  0
  193.8030  175.9930  142.2050 C   0  0  0  0  0  2  0  0  0  0  0  0
  194.7960  174.7680  144.1080 N   0  0  0  0  0  2  0  0  0  0  0  0
  192.0090  175.7140  143.5440 C   0  0  1  0  0  3  0  0  0  0  0  0
  192.6930  175.1620  142.4500 O   0  0  0  0  0  0  0  0  0  0  0  0
  188.2800  175.0670  142.4830 C   0  0  0  0  0  0  0  0  0  0  0  0
  187.6880  176.2410  142.6640 C   0  0  0  0  0  0  0  0  0  0  0  0
  191.1160  172.7780  142.5180 C   0  0  0  0  0  1  0  0  0  0  0  0
  188.6160  172.9850  141.9850 N   0  0  0  0  0  0  0  0  0  0  0  0
  189.9720  177.1390  143.4440 C   0  0  0  0  0  0  0  0  0  0  0  0
  189.8510  173.5570  142.4340 C   0  0  0  0  0  0  0  0  0  0  0  0
  188.4950  177.4150  143.1770 C   0  0  0  0  0  2  0  0  0  0  0  0
  190.5410  175.9240  143.2500 C   0  0  0  0  0  0  0  0  0  0  0  0
  189.6670  174.8400  142.7470 C   0  0  0  0  0  0  0  0  0  0  0  0
  190.7800  178.2970  143.9300 C   0  0  0  0  0  1  0  0  0  0  0  0
  186.3360  176.3980  142.3870 O   0  0  0  0  0  1  0  0  0  0  0  0
  187.6950  173.8640  142.0120 N   0  0  0  0  0  0  0  0  0  0  0  0
  192.4240  176.1280  145.9580 C   0  0  0  0  0  2  0  0  0  0  0  0
  191.5680  175.8530  147.1890 C   0  0  0  0  0  2  0  0  0  0  0  0
  189.1370  176.1860  146.8870 C   0  0  0  0  0  1  0  0  0  0  0  0
  190.4360  176.8570  147.2760 C   0  0  0  0  0  2  0  0  0  0  0  0
  1  5  1  0  0  0  0
  1  4  2  0  0  0  0
  3  7  1  0  0  0  0
  5  2  1  1  0  0  0
  5 22  1  0  0  0  0
  6  9  1  0  0  0  0
  6  3  1  0  0  0  0
  7  1  1  0  0  0  0
  8 17  1  6  0  0  0
  8  5  1  0  0  0  0
  9  8  1  0  0  0  0
 10 11  2  0  0  0  0
 10 18  1  0  0  0  0
 11 16  1  0  0  0  0
 13 21  2  0  0  0  0
 13 15  1  0  0  0  0
 14 19  1  0  0  0  0
 15 12  1  0  0  0  0
 15 18  2  0  0  0  0
 16 14  1  0  0  0  0
 17 14  2  0  0  0  0
 18 17  1  0  0  0  0
 20 11  1  0  0  0  0
 21 10  1  0  0  0  0
 22 23  1  0  0  0  0
 23 25  1  0  0  0  0
 24 25  1  0  0  0  0
M  END
>  <MODEL>
5

>  <REMARK>
 VINA RESULT:      -6.2      2.918      4.473
  Name = 
  4 active torsions:
  status: ('A' for Active; 'I' for Inactive)
    1  A    between atoms: C_10  and  C_17
    2  A    between atoms: C_10  and  C_18
    3  A    between atoms: C_12  and  C_17
    4  A    between atoms: C_14  and  C_23
                            x       y       z     vdW  Elec       q    Type
                         _______ _______ _______ _____ _____    ______ ____

>  <TORSDO>
F 4

$$$$
=
 OpenBabel11072409393D

 25 27  0  0  1  0  0  0  0  0999 V2000
  188.6040  174.5960  141.6630 C   0  0  0  0  0  0  0  0  0  0  0  0
  189.8150  176.4280  142.5890 O   0  0  0  0  0  1  0  0  0  0  0  0
  188.3520  172.3080  142.7600 C   0  0  0  0  0  2  0  0  0  0  0  0
  188.4440  175.2920  140.6250 O   0  0  0  0  0  0  0  0  0  0  0  0
  189.1300  175.2560  142.9310 C   0  0  2  0  0  0  0  0  0  0  0  0
  189.8140  172.1310  143.2000 C   0  0  0  0  0  2  0  0  0  0  0  0
  188.2510  173.2060  141.6150 N   0  0  0  0  0  2  0  0  0  0  0  0
  190.0690  174.3090  143.7270 C   0  0  1  0  0  3  0  0  0  0  0  0
  190.6040  173.2690  142.9520 O   0  0  0  0  0  0  0  0  0  0  0  0
  193.3880  176.0820  144.8670 C   0  0  0  0  0  0  0  0  0  0  0  0
  193.2060  176.2970  146.1630 C   0  0  0  0  0  0  0  0  0  0  0  0
  192.4140  174.8710  141.5700 C   0  0  0  0  0  1  0  0  0  0  0  0
  194.2810  176.0280  142.8930 N   0  0  0  0  0  0  0  0  0  0  0  0
  190.9000  175.1800  145.9050 C   0  0  0  0  0  0  0  0  0  0  0  0
  192.9840  175.4220  142.8290 C   0  0  0  0  0  0  0  0  0  0  0  0
  191.9140  175.8600  146.8210 C   0  0  0  0  0  2  0  0  0  0  0  0
  191.1200  174.9810  144.5820 C   0  0  0  0  0  0  0  0  0  0  0  0
  192.4140  175.4450  144.0340 C   0  0  0  0  0  0  0  0  0  0  0  0
  189.6320  174.7260  146.5490 C   0  0  0  0  0  1  0  0  0  0  0  0
  194.1910  176.9200  146.9190 O   0  0  0  0  0  1  0  0  0  0  0  0
  194.5210  176.4150  144.0820 N   0  0  0  0  0  0  0  0  0  0  0  0
  187.9600  175.6150  143.8550 C   0  0  0  0  0  2  0  0  0  0  0  0
  187.6950  177.1130  143.9500 C   0  0  0  0  0  2  0  0  0  0  0  0
  186.3740  176.9050  146.0290 C   0  0  0  0  0  1  0  0  0  0  0  0
  187.5970  177.5370  145.4020 C   0  0  0  0  0  2  0  0  0  0  0  0
  1  5  1  0  0  0  0
  3  6  1  0  0  0  0
  4  1  2  0  0  0  0
  5  2  1  6  0  0  0
  5  8  1  0  0  0  0
  5 22  1  0  0  0  0
  7  1  1  0  0  0  0
  7  3  1  0  0  0  0
  8 17  1  6  0  0  0
  9  6  1  0  0  0  0
  9  8  1  0  0  0  0
 10 11  2  0  0  0  0
 11 16  1  0  0  0  0
 11 20  1  0  0  0  0
 12 15  1  0  0  0  0
 13 21  2  0  0  0  0
 14 19  1  0  0  0  0
 14 16  1  0  0  0  0
 15 13  1  0  0  0  0
 15 18  2  0  0  0  0
 17 14  2  0  0  0  0
 18 17  1  0  0  0  0
 18 10  1  0  0  0  0
 21 10  1  0  0  0  0
 22 23  1  0  0  0  0
 23 25  1  0  0  0  0
 25 24  1  0  0  0  0
M  END
>  <MODEL>
6

>  <REMARK>
 VINA RESULT:      -6.1      2.870      5.969
  Name = 
  4 active torsions:
  status: ('A' for Active; 'I' for Inactive)
    1  A    between atoms: C_10  and  C_17
    2  A    between atoms: C_10  and  C_18
    3  A    between atoms: C_12  and  C_17
    4  A    between atoms: C_14  and  C_23
                            x       y       z     vdW  Elec       q    Type
                         _______ _______ _______ _____ _____    ______ ____

>  <TORSDO>
F 4

$$$$
=
 OpenBabel11072409393D

 25 27  0  0  1  0  0  0  0  0999 V2000
  192.3730  173.5650  145.0130 C   0  0  0  0  0  0  0  0  0  0  0  0
  191.6110  175.7410  145.6160 O   0  0  0  0  0  1  0  0  0  0  0  0
  191.0420  171.8800  143.6390 C   0  0  0  0  0  2  0  0  0  0  0  0
  193.3830  173.7730  145.7380 O   0  0  0  0  0  0  0  0  0  0  0  0
  191.4520  174.7260  144.6640 C   0  0  2  0  0  0  0  0  0  0  0  0
  189.6900  172.0610  144.3480 C   0  0  0  0  0  2  0  0  0  0  0  0
  192.1500  172.2370  144.5170 N   0  0  0  0  0  2  0  0  0  0  0  0
  189.9630  174.2850  144.6070 C   0  0  1  0  0  3  0  0  0  0  0  0
  189.7050  173.0940  145.3030 O   0  0  0  0  0  0  0  0  0  0  0  0
  187.2640  177.1090  144.1710 C   0  0  0  0  0  0  0  0  0  0  0  0
  186.9420  177.4380  145.4150 C   0  0  0  0  0  0  0  0  0  0  0  0
  189.0910  175.2300  141.6380 C   0  0  0  0  0  1  0  0  0  0  0  0
  187.3340  177.0610  142.0050 N   0  0  0  0  0  0  0  0  0  0  0  0
  188.6400  175.6670  146.1970 C   0  0  0  0  0  0  0  0  0  0  0  0
  188.2570  176.0920  142.5180 C   0  0  0  0  0  0  0  0  0  0  0  0
  187.6110  176.7300  146.5740 C   0  0  0  0  0  2  0  0  0  0  0  0
  188.9410  175.3560  144.9120 C   0  0  0  0  0  0  0  0  0  0  0  0
  188.2310  176.1040  143.8510 C   0  0  0  0  0  0  0  0  0  0  0  0
  189.3210  174.9790  147.3340 C   0  0  0  0  0  1  0  0  0  0  0  0
  185.9950  178.4250  145.6600 O   0  0  0  0  0  1  0  0  0  0  0  0
  186.7510  177.6570  142.9680 N   0  0  0  0  0  0  0  0  0  0  0  0
  191.8130  175.2800  143.2810 C   0  0  0  0  0  2  0  0  0  0  0  0
  192.7710  176.4650  143.3290 C   0  0  0  0  0  2  0  0  0  0  0  0
  195.1380  176.2220  144.0020 C   0  0  0  0  0  1  0  0  0  0  0  0
  194.1520  176.0410  142.8690 C   0  0  0  0  0  2  0  0  0  0  0  0
  1  4  2  0  0  0  0
  3  6  1  0  0  0  0
  3  7  1  0  0  0  0
  5  1  1  0  0  0  0
  5  2  1  1  0  0  0
  6  9  1  0  0  0  0
  7  1  1  0  0  0  0
  8  5  1  0  0  0  0
  8 17  1  1  0  0  0
  8  9  1  0  0  0  0
 10 11  2  0  0  0  0
 11 20  1  0  0  0  0
 11 16  1  0  0  0  0
 12 15  1  0  0  0  0
 13 15  1  0  0  0  0
 13 21  2  0  0  0  0
 14 16  1  0  0  0  0
 14 19  1  0  0  0  0
 15 18  2  0  0  0  0
 17 14  2  0  0  0  0
 18 10  1  0  0  0  0
 18 17  1  0  0  0  0
 21 10  1  0  0  0  0
 22 23  1  0  0  0  0
 22  5  1  0  0  0  0
 25 23  1  0  0  0  0
 25 24  1  0  0  0  0
M  END
>  <MODEL>
7

>  <REMARK>
 VINA RESULT:      -6.1      2.348      3.875
  Name = 
  4 active torsions:
  status: ('A' for Active; 'I' for Inactive)
    1  A    between atoms: C_10  and  C_17
    2  A    between atoms: C_10  and  C_18
    3  A    between atoms: C_12  and  C_17
    4  A    between atoms: C_14  and  C_23
                            x       y       z     vdW  Elec       q    Type
                         _______ _______ _______ _____ _____    ______ ____

>  <TORSDO>
F 4

$$$$
=
 OpenBabel11072409393D

 25 27  0  0  1  0  0  0  0  0999 V2000
  192.3120  174.2640  145.0130 C   0  0  0  0  0  0  0  0  0  0  0  0
  191.1690  176.3490  144.8380 O   0  0  0  0  0  1  0  0  0  0  0  0
  191.4740  172.0550  144.0560 C   0  0  0  0  0  2  0  0  0  0  0  0
  193.1470  174.8420  145.7590 O   0  0  0  0  0  0  0  0  0  0  0  0
  191.3120  175.0990  144.2230 C   0  0  2  0  0  0  0  0  0  0  0  0
  190.0100  172.1780  144.5080 C   0  0  0  0  0  2  0  0  0  0  0  0
  192.3580  172.8330  144.9150 N   0  0  0  0  0  2  0  0  0  0  0  0
  189.9290  174.3990  144.1200 C   0  0  1  0  0  3  0  0  0  0  0  0
  189.7220  173.4200  145.1040 O   0  0  0  0  0  0  0  0  0  0  0  0
  186.9500  176.8300  144.9360 C   0  0  0  0  0  0  0  0  0  0  0  0
  186.4210  177.0970  143.7490 C   0  0  0  0  0  0  0  0  0  0  0  0
  189.3310  175.2350  147.1880 C   0  0  0  0  0  1  0  0  0  0  0  0
  187.3070  176.8060  147.0740 N   0  0  0  0  0  0  0  0  0  0  0  0
  188.2180  175.5570  142.7340 C   0  0  0  0  0  0  0  0  0  0  0  0
  188.2780  175.9670  146.4340 C   0  0  0  0  0  0  0  0  0  0  0  0
  187.0200  176.4740  142.5060 C   0  0  0  0  0  3  0  0  0  0  0  0
  188.7340  175.3110  143.9640 C   0  0  0  0  0  0  0  0  0  0  0  0
  188.0780  175.9680  145.1160 C   0  0  0  0  0  0  0  0  0  0  0  0
  188.8030  174.9220  141.5150 C   0  0  0  0  0  1  0  0  0  0  0  0
  185.3240  177.9420  143.6410 O   0  0  0  0  0  1  0  0  0  0  0  0
  186.5290  177.3120  146.2020 N   0  0  0  0  0  2  0  0  0  0  0  0
  191.8230  175.3040  142.7910 C   0  0  0  0  0  2  0  0  0  0  0  0
  192.7460  176.5080  142.6400 C   0  0  0  0  0  2  0  0  0  0  0  0
  195.1290  175.9970  143.0600 C   0  0  0  0  0  1  0  0  0  0  0  0
  194.0540  176.0880  141.9990 C   0  0  0  0  0  2  0  0  0  0  0  0
  1  4  2  0  0  0  0
  3  6  1  0  0  0  0
  3  7  1  0  0  0  0
  5  2  1  1  0  0  0
  5  1  1  0  0  0  0
  6  9  1  0  0  0  0
  7  1  1  0  0  0  0
  8 17  1  1  0  0  0
  8  5  1  0  0  0  0
  8  9  1  0  0  0  0
 10 18  2  0  0  0  0
 10 21  1  0  0  0  0
 11 10  1  0  0  0  0
 14 17  2  0  0  0  0
 15 13  2  0  0  0  0
 15 12  1  0  0  0  0
 16 14  1  0  0  0  0
 16 11  2  0  0  0  0
 17 18  1  0  0  0  0
 18 15  1  0  0  0  0
 19 14  1  0  0  0  0
 20 11  1  0  0  0  0
 21 13  1  0  0  0  0
 22  5  1  0  0  0  0
 23 22  1  0  0  0  0
 25 23  1  0  0  0  0
 25 24  1  0  0  0  0
M  END
>  <MODEL>
8

>  <REMARK>
 VINA RESULT:      -6.0      2.599      4.509
  Name = 
  4 active torsions:
  status: ('A' for Active; 'I' for Inactive)
    1  A    between atoms: C_10  and  C_17
    2  A    between atoms: C_10  and  C_18
    3  A    between atoms: C_12  and  C_17
    4  A    between atoms: C_14  and  C_23
                            x       y       z     vdW  Elec       q    Type
                         _______ _______ _______ _____ _____    ______ ____

>  <TORSDO>
F 4

$$$$
=
 OpenBabel11072409393D

 25 27  0  0  1  0  0  0  0  0999 V2000
  191.2540  176.3880  143.8940 C   0  0  0  0  0  0  0  0  0  0  0  0
  189.7540  178.1960  144.2970 O   0  0  0  0  0  1  0  0  0  0  0  0
  190.6000  173.9250  143.8710 C   0  0  0  0  0  2  0  0  0  0  0  0
  192.1910  177.2320  143.8970 O   0  0  0  0  0  0  0  0  0  0  0  0
  189.8120  176.8740  143.8380 C   0  0  2  0  0  0  0  0  0  0  0  0
  189.7160  173.9360  145.1290 C   0  0  0  0  0  2  0  0  0  0  0  0
  191.5900  174.9940  143.9130 N   0  0  0  0  0  2  0  0  0  0  0  0
  188.8680  175.9790  144.6870 C   0  0  1  0  0  3  0  0  0  0  0  0
  189.5380  175.2260  145.6630 O   0  0  0  0  0  0  0  0  0  0  0  0
  186.4720  178.1140  146.9570 C   0  0  0  0  0  0  0  0  0  0  0  0
  185.2880  178.0000  146.3680 C   0  0  0  0  0  0  0  0  0  0  0  0
  190.0420  177.4740  147.3060 C   0  0  0  0  0  1  0  0  0  0  0  0
  188.0340  178.6790  148.3490 N   0  0  0  0  0  0  0  0  0  0  0  0
  186.4390  176.5090  144.6110 C   0  0  0  0  0  0  0  0  0  0  0  0
  188.6020  177.8440  147.3320 C   0  0  0  0  0  0  0  0  0  0  0  0
  185.1560  177.1700  145.1090 C   0  0  0  0  0  3  0  0  0  0  0  0
  187.6320  176.6530  145.2380 C   0  0  0  0  0  0  0  0  0  0  0  0
  187.6580  177.4850  146.4620 C   0  0  0  0  0  0  0  0  0  0  0  0
  186.3130  175.6720  143.3810 C   0  0  0  0  0  1  0  0  0  0  0  0
  184.1730  178.6340  146.8990 O   0  0  0  0  0  1  0  0  0  0  0  0
  186.7890  178.8400  148.1330 N   0  0  0  0  0  2  0  0  0  0  0  0
  189.3020  176.8260  142.3930 C   0  0  0  0  0  2  0  0  0  0  0  0
  188.6100  178.1080  141.9470 C   0  0  0  0  0  2  0  0  0  0  0  0
  186.2220  178.2930  141.3330 C   0  0  0  0  0  1  0  0  0  0  0  0
  187.5790  177.8030  140.8780 C   0  0  0  0  0  2  0  0  0  0  0  0
  1  4  2  0  0  0  0
  1  7  1  0  0  0  0
  3  7  1  0  0  0  0
  3  6  1  0  0  0  0
  5  1  1  0  0  0  0
  5  2  1  1  0  0  0
  5  8  1  0  0  0  0
  6  9  1  0  0  0  0
  8 17  1  1  0  0  0
  8  9  1  0  0  0  0
 10 21  1  0  0  0  0
 11 20  1  0  0  0  0
 11 10  1  0  0  0  0
 12 15  1  0  0  0  0
 14 16  1  0  0  0  0
 14 17  2  0  0  0  0
 15 13  2  0  0  0  0
 16 11  2  0  0  0  0
 17 18  1  0  0  0  0
 18 10  2  0  0  0  0
 18 15  1  0  0  0  0
 19 14  1  0  0  0  0
 21 13  1  0  0  0  0
 22  5  1  0  0  0  0
 23 22  1  0  0  0  0
 25 24  1  0  0  0  0
 25 23  1  0  0  0  0
M  END
>  <MODEL>
9

>  <REMARK>
 VINA RESULT:      -6.0      2.323      4.179
  Name = 
  4 active torsions:
  status: ('A' for Active; 'I' for Inactive)
    1  A    between atoms: C_10  and  C_17
    2  A    between atoms: C_10  and  C_18
    3  A    between atoms: C_12  and  C_17
    4  A    between atoms: C_14  and  C_23
                            x       y       z     vdW  Elec       q    Type
                         _______ _______ _______ _____ _____    ______ ____

>  <TORSDO>
F 4

$$$$
