=
 OpenBabel11062419183D

 50 55  0  0  1  0  0  0  0  0999 V2000
  192.5140  174.3080  144.6240 N   0  0  0  0  0  0  0  0  0  0  0  0
  194.0350  174.5250  141.3460 C   0  0  1  0  0  3  0  0  0  0  0  0
  196.0770  176.3800  142.8200 C   0  0  0  0  0  3  0  0  0  0  0  0
  192.8440  173.6500  141.3070 C   0  0  0  0  0  0  0  0  0  0  0  0
  194.0650  174.8920  142.8030 C   0  0  1  0  0  3  0  0  0  0  0  0
  194.6640  176.1990  142.9860 N   0  0  0  0  0  2  0  0  0  0  0  0
  196.8230  175.7890  141.8710 C   0  0  0  0  0  3  0  0  0  0  0  0
  192.6030  174.7990  143.2410 C   0  0  1  0  0  3  0  0  0  0  0  0
  192.5490  172.7560  140.2340 N   0  0  0  0  0  2  0  0  0  0  0  0
  195.3500  173.8660  141.0080 C   0  0  0  0  0  2  0  0  0  0  0  0
  192.0490  173.8220  142.3090 N   0  0  0  0  0  0  0  0  0  0  0  0
  196.3490  174.9740  140.6920 C   0  0  0  0  0  2  0  0  0  0  0  0
  191.3640  171.9120  140.2550 C   0  0  0  0  0  2  0  0  0  0  0  0
  190.2500  172.5730  139.5250 C   0  0  0  0  0  0  0  0  0  0  0  0
  190.0350  172.2880  138.3150 O   0  0  0  0  0  0  0  0  0  0  0  0
  189.4250  173.4670  140.2060 O   0  0  0  0  0  0  0  0  0  0  0  0
  188.7440  173.0270  142.3710 O   0  0  0  0  0  0  0  0  0  0  0  0
  187.8710  174.0630  141.9830 C   0  0  2  0  0  3  0  0  0  0  0  0
  188.3420  173.0240  141.0210 C   0  0  1  0  0  3  0  0  0  0  0  0
  188.6370  175.3820  141.9020 C   0  0  0  0  0  2  0  0  0  0  0  0
  188.2280  178.2180  142.0550 O   0  0  0  0  0  1  0  0  0  0  0  0
  186.0950  176.5440  142.5640 O   0  0  0  0  0  1  0  0  0  0  0  0
  187.1010  176.8060  140.1650 O   0  0  0  0  0  0  0  0  0  0  0  0
  187.4850  176.7610  141.6260 P   0  0  0  0  0  0  0  0  0  0  0  0
  192.7800  172.8700  144.6790 C   0  0  0  0  0  2  0  0  0  0  0  0
  193.9280  172.5950  145.6330 C   0  0  0  0  0  2  0  0  0  0  0  0
  197.0330  170.4940  145.8420 C   0  0  0  0  0  2  0  0  0  0  0  0
  197.4040  170.4340  144.3560 C   0  0  0  0  0  2  0  0  0  0  0  0
  195.5310  170.7290  146.0660 C   0  0  1  0  0  3  0  0  0  0  0  0
  194.9190  171.6420  144.9910 C   0  0  2  0  0  3  0  0  0  0  0  0
  196.6030  171.4450  143.5180 C   0  0  0  0  0  2  0  0  0  0  0  0
  195.9260  172.3720  144.3310 O   0  0  0  0  0  0  0  0  0  0  0  0
  194.0000  168.8990  145.0100 C   0  0  0  0  0  1  0  0  0  0  0  0
  194.9010  168.6950  147.2630 C   0  0  0  0  0  2  0  0  0  0  0  0
  194.7830  169.4330  146.1650 C   0  0  0  0  0  0  0  0  0  0  0  0
  191.1770  174.5700  145.1790 C   0  0  0  0  0  2  0  0  0  0  0  0
  188.6500  177.7980  147.3900 F   0  0  0  0  0  0  0  0  0  0  0  0
  190.1270  175.2650  147.4000 C   0  0  0  0  0  2  0  0  0  0  0  0
  188.4920  176.8930  146.3520 C   0  0  2  0  0  0  0  0  0  0  0  0
  188.7000  175.4690  146.8900 C   0  0  0  0  0  2  0  0  0  0  0  0
  190.9490  177.0120  145.7830 C   0  0  0  0  0  2  0  0  0  0  0  0
  189.5240  177.2000  145.2630 C   0  0  0  0  0  2  0  0  0  0  0  0
  191.1650  175.5970  146.3250 C   0  0  2  0  0  3  0  0  0  0  0  0
  185.9850  176.7150  146.7700 C   0  0  0  0  0  2  0  0  0  0  0  0
  187.0780  177.0540  145.7780 C   0  0  1  0  0  3  0  0  0  0  0  0
  186.8790  178.3600  145.2900 O   0  0  0  0  0  0  0  0  0  0  0  0
  184.8700  177.6060  146.3470 C   0  0  0  0  0  2  0  0  0  0  0  0
  185.5900  178.7600  145.6880 C   0  0  2  0  0  3  0  0  0  0  0  0
  185.6580  179.7720  143.5100 O   0  0  0  0  0  1  0  0  0  0  0  0
  184.8010  179.2880  144.4990 C   0  0  0  0  0  2  0  0  0  0  0  0
  1 25  1  0  0  0  0
  1 36  1  0  0  0  0
  2 10  1  1  0  0  0
  2  5  1  0  0  0  0
  3  6  1  0  0  0  0
  4  2  1  0  0  0  0
  4 11  2  0  0  0  0
  5  6  1  6  0  0  0
  5  8  1  0  0  0  0
  7  3  2  0  0  0  0
  8  1  1  1  0  0  0
  9 13  1  0  0  0  0
  9  4  1  0  0  0  0
 11  8  1  0  0  0  0
 12 10  1  0  0  0  0
 12  7  1  0  0  0  0
 14 16  1  0  0  0  0
 14 13  1  0  0  0  0
 15 14  2  0  0  0  0
 18 20  1  6  0  0  0
 18 17  1  0  0  0  0
 19 16  1  6  0  0  0
 19 18  1  0  0  0  0
 19 17  1  0  0  0  0
 23 24  2  0  0  0  0
 24 20  1  0  0  0  0
 24 21  1  0  0  0  0
 24 22  1  0  0  0  0
 25 26  1  0  0  0  0
 27 29  1  0  0  0  0
 28 27  1  0  0  0  0
 29 35  1  6  0  0  0
 30 26  1  1  0  0  0
 30 29  1  0  0  0  0
 31 32  1  0  0  0  0
 31 28  1  0  0  0  0
 32 30  1  0  0  0  0
 33 35  1  0  0  0  0
 35 34  2  0  0  0  0
 39 40  1  0  0  0  0
 39 37  1  1  0  0  0
 40 38  1  0  0  0  0
 41 43  1  0  0  0  0
 42 41  1  0  0  0  0
 42 39  1  0  0  0  0
 43 36  1  6  0  0  0
 43 38  1  0  0  0  0
 45 39  1  0  0  0  0
 45 44  1  1  0  0  0
 46 48  1  0  0  0  0
 46 45  1  0  0  0  0
 47 44  1  0  0  0  0
 48 50  1  6  0  0  0
 48 47  1  0  0  0  0
 49 50  1  0  0  0  0
M  END
>  <MODEL>
1

>  <REMARK>
 VINA RESULT:      -7.6      0.000      0.000
  Name = 
  15 active torsions:
  status: ('A' for Active; 'I' for Inactive)
    1  A    between atoms: C_4  and  C_7
    2  A    between atoms: C_4  and  O_25
    3  A    between atoms: C_7  and  N_34
    4  A    between atoms: C_15  and  C_49
    5  A    between atoms: C_17  and  C_24
    6  A    between atoms: C_20  and  C_40
    7  A    between atoms: C_22  and  C_29
    8  A    between atoms: C_22  and  N_46
    9  A    between atoms: C_23  and  O_25
   10  A    between atoms: C_29  and  C_35
   11  A    between atoms: P_31  and  C_40
   12  A    between atoms: C_32  and  N_46
   13  A    between atoms: C_42  and  C_48
   14  A    between atoms: C_45  and  N_46
   15  A    between atoms: C_45  and  C_47
                            x       y       z     vdW  Elec       q    Type
                         _______ _______ _______ _____ _____    ______ ____

>  <TORSDO>
F 15

$$$$
=
 OpenBabel11062419183D

 50 55  0  0  1  0  0  0  0  0999 V2000
  189.0750  174.9420  141.1120 N   0  0  0  0  0  0  0  0  0  0  0  0
  189.7520  172.2410  138.7990 C   0  0  1  0  0  3  0  0  0  0  0  0
  188.8250  174.3280  136.6620 C   0  0  0  0  0  3  0  0  0  0  0  0
  190.0460  171.8210  140.1850 C   0  0  0  0  0  0  0  0  0  0  0  0
  189.3280  173.6650  139.0220 C   0  0  1  0  0  3  0  0  0  0  0  0
  188.3840  174.0800  138.0030 N   0  0  0  0  0  2  0  0  0  0  0  0
  189.7410  173.5960  136.0040 C   0  0  0  0  0  3  0  0  0  0  0  0
  188.7670  173.6690  140.4440 C   0  0  1  0  0  3  0  0  0  0  0  0
  190.8080  170.6610  140.5200 N   0  0  0  0  0  2  0  0  0  0  0  0
  190.9240  172.2510  137.8480 C   0  0  0  0  0  2  0  0  0  0  0  0
  189.4850  172.5670  141.0760 N   0  0  0  0  0  0  0  0  0  0  0  0
  190.3630  172.2890  136.4310 C   0  0  0  0  0  2  0  0  0  0  0  0
  191.0730  170.3020  141.9050 C   0  0  0  0  0  2  0  0  0  0  0  0
  192.5390  170.2480  142.1490 C   0  0  0  0  0  0  0  0  0  0  0  0
  193.0710  169.1740  142.5450 O   0  0  0  0  0  0  0  0  0  0  0  0
  193.3150  171.3770  141.8910 O   0  0  0  0  0  0  0  0  0  0  0  0
  195.4830  172.1580  141.7110 O   0  0  0  0  0  0  0  0  0  0  0  0
  194.9000  173.0830  142.5990 C   0  0  2  0  0  3  0  0  0  0  0  0
  194.5240  171.6400  142.6020 C   0  0  1  0  0  3  0  0  0  0  0  0
  193.9240  173.9820  141.8440 C   0  0  0  0  0  2  0  0  0  0  0  0
  195.1490  176.4280  140.9760 O   0  0  0  0  0  0  0  0  0  0  0  0
  195.1250  175.8440  143.6720 O   0  0  0  0  0  1  0  0  0  0  0  0
  192.9400  176.4630  142.3740 O   0  0  0  0  0  1  0  0  0  0  0  0
  194.2530  175.7290  142.2270 P   0  0  0  0  0  0  0  0  0  0  0  0
  190.0350  174.7350  142.1970 C   0  0  0  0  0  2  0  0  0  0  0  0
  189.3240  174.8160  143.5360 C   0  0  0  0  0  2  0  0  0  0  0  0
  192.1350  176.0310  145.7090 C   0  0  0  0  0  2  0  0  0  0  0  0
  192.7410  174.6850  146.1210 C   0  0  0  0  0  2  0  0  0  0  0  0
  190.6450  175.9200  145.3460 C   0  0  1  0  0  3  0  0  0  0  0  0
  190.3120  174.5830  144.6630 C   0  0  2  0  0  3  0  0  0  0  0  0
  192.1920  173.5200  145.2810 C   0  0  0  0  0  2  0  0  0  0  0  0
  191.4800  173.9810  144.1580 O   0  0  0  0  0  0  0  0  0  0  0  0
  189.5920  177.5140  147.1220 C   0  0  0  0  0  1  0  0  0  0  0  0
  189.0610  175.1400  147.0330 C   0  0  0  0  0  2  0  0  0  0  0  0
  189.7710  176.1500  146.5420 C   0  0  0  0  0  0  0  0  0  0  0  0
  187.8520  175.5470  141.6610 C   0  0  0  0  0  2  0  0  0  0  0  0
  186.1970  179.7630  142.7440 F   0  0  0  0  0  0  0  0  0  0  0  0
  188.3890  178.0360  141.8430 C   0  0  0  0  0  2  0  0  0  0  0  0
  186.4380  178.5530  143.3760 C   0  0  2  0  0  0  0  0  0  0  0  0
  187.9370  178.2310  143.2910 C   0  0  0  0  0  2  0  0  0  0  0  0
  186.0670  177.2790  141.2280 C   0  0  0  0  0  2  0  0  0  0  0  0
  185.6240  177.4580  142.6790 C   0  0  0  0  0  2  0  0  0  0  0  0
  187.5610  176.9620  141.1330 C   0  0  2  0  0  3  0  0  0  0  0  0
  184.4860  178.7510  145.0010 C   0  0  0  0  0  2  0  0  0  0  0  0
  185.9900  178.6720  144.8390 C   0  0  1  0  0  3  0  0  0  0  0  0
  186.4890  177.6010  145.6060 O   0  0  0  0  0  0  0  0  0  0  0  0
  184.2660  178.1110  146.3280 C   0  0  0  0  0  2  0  0  0  0  0  0
  185.4490  177.1800  146.4560 C   0  0  2  0  0  3  0  0  0  0  0  0
  186.4010  178.3450  148.3290 O   0  0  0  0  0  1  0  0  0  0  0  0
  185.9320  177.1040  147.8970 C   0  0  0  0  0  2  0  0  0  0  0  0
  1 36  1  0  0  0  0
  1 25  1  0  0  0  0
  2 10  1  6  0  0  0
  2  5  1  0  0  0  0
  2  4  1  0  0  0  0
  3  6  1  0  0  0  0
  4  9  1  0  0  0  0
  4 11  2  0  0  0  0
  5  6  1  6  0  0  0
  5  8  1  0  0  0  0
  7 12  1  0  0  0  0
  7  3  2  0  0  0  0
  8 11  1  0  0  0  0
  8  1  1  1  0  0  0
  9 13  1  0  0  0  0
 12 10  1  0  0  0  0
 13 14  1  0  0  0  0
 14 15  2  0  0  0  0
 16 14  1  0  0  0  0
 17 18  1  0  0  0  0
 17 19  1  0  0  0  0
 18 20  1  6  0  0  0
 18 19  1  0  0  0  0
 19 16  1  6  0  0  0
 20 24  1  0  0  0  0
 21 24  2  0  0  0  0
 24 23  1  0  0  0  0
 24 22  1  0  0  0  0
 25 26  1  0  0  0  0
 27 28  1  0  0  0  0
 29 27  1  0  0  0  0
 29 35  1  1  0  0  0
 30 26  1  6  0  0  0
 30 29  1  0  0  0  0
 31 28  1  0  0  0  0
 32 30  1  0  0  0  0
 32 31  1  0  0  0  0
 35 34  2  0  0  0  0
 35 33  1  0  0  0  0
 38 40  1  0  0  0  0
 39 37  1  6  0  0  0
 39 45  1  0  0  0  0
 40 39  1  0  0  0  0
 41 42  1  0  0  0  0
 42 39  1  0  0  0  0
 43 41  1  0  0  0  0
 43 36  1  1  0  0  0
 43 38  1  0  0  0  0
 44 47  1  0  0  0  0
 45 44  1  6  0  0  0
 45 46  1  0  0  0  0
 46 48  1  0  0  0  0
 47 48  1  0  0  0  0
 48 50  1  1  0  0  0
 50 49  1  0  0  0  0
M  END
>  <MODEL>
2

>  <REMARK>
 VINA RESULT:      -7.5      3.078      5.986
  Name = 
  15 active torsions:
  status: ('A' for Active; 'I' for Inactive)
    1  A    between atoms: C_4  and  C_7
    2  A    between atoms: C_4  and  O_25
    3  A    between atoms: C_7  and  N_34
    4  A    between atoms: C_15  and  C_49
    5  A    between atoms: C_17  and  C_24
    6  A    between atoms: C_20  and  C_40
    7  A    between atoms: C_22  and  C_29
    8  A    between atoms: C_22  and  N_46
    9  A    between atoms: C_23  and  O_25
   10  A    between atoms: C_29  and  C_35
   11  A    between atoms: P_31  and  C_40
   12  A    between atoms: C_32  and  N_46
   13  A    between atoms: C_42  and  C_48
   14  A    between atoms: C_45  and  N_46
   15  A    between atoms: C_45  and  C_47
                            x       y       z     vdW  Elec       q    Type
                         _______ _______ _______ _____ _____    ______ ____

>  <TORSDO>
F 15

$$$$
=
 OpenBabel11062419183D

 50 55  0  0  1  0  0  0  0  0999 V2000
  190.1580  175.1160  142.2270 N   0  0  0  0  0  0  0  0  0  0  0  0
  190.7050  171.6590  141.3020 C   0  0  1  0  0  3  0  0  0  0  0  0
  188.6910  172.3370  139.0070 C   0  0  0  0  0  3  0  0  0  0  0  0
  191.5060  172.0090  142.4930 C   0  0  0  0  0  0  0  0  0  0  0  0
  190.0450  172.9780  141.0120 C   0  0  1  0  0  3  0  0  0  0  0  0
  188.7610  172.7740  140.3710 N   0  0  0  0  0  2  0  0  0  0  0  0
  189.5030  171.4240  138.4470 C   0  0  0  0  0  3  0  0  0  0  0  0
  189.9700  173.6650  142.3740 C   0  0  1  0  0  3  0  0  0  0  0  0
  192.5870  171.2170  142.9850 N   0  0  0  0  0  2  0  0  0  0  0  0
  191.4860  171.2530  140.0760 C   0  0  0  0  0  2  0  0  0  0  0  0
  191.0900  173.0700  143.0970 N   0  0  0  0  0  0  0  0  0  0  0  0
  190.5200  170.5440  139.1330 C   0  0  0  0  0  2  0  0  0  0  0  0
  193.3470  171.6170  144.1600 C   0  0  0  0  0  2  0  0  0  0  0  0
  194.7850  171.2820  143.9800 C   0  0  0  0  0  0  0  0  0  0  0  0
  195.1130  170.1880  143.4410 O   0  0  0  0  0  0  0  0  0  0  0  0
  195.7540  172.2050  144.3680 O   0  0  0  0  0  0  0  0  0  0  0  0
  196.9600  172.9620  146.1900 O   0  0  0  0  0  0  0  0  0  0  0  0
  196.4780  174.1600  145.6260 C   0  0  2  0  0  3  0  0  0  0  0  0
  195.6770  172.9010  145.6110 C   0  0  1  0  0  3  0  0  0  0  0  0
  197.2130  174.4480  144.3180 C   0  0  0  0  0  2  0  0  0  0  0  0
  195.3600  176.6300  144.5130 O   0  0  0  0  0  1  0  0  0  0  0  0
  195.6680  175.3690  142.0790 O   0  0  0  0  0  0  0  0  0  0  0  0
  197.5530  176.8610  143.1080 O   0  0  0  0  0  1  0  0  0  0  0  0
  196.4670  175.8780  143.4800 P   0  0  0  0  0  0  0  0  0  0  0  0
  191.3570  175.5550  142.9420 C   0  0  0  0  0  2  0  0  0  0  0  0
  191.0120  176.7080  143.8670 C   0  0  0  0  0  2  0  0  0  0  0  0
  190.5110  177.2710  147.5460 C   0  0  0  0  0  2  0  0  0  0  0  0
  191.7790  176.5980  148.0840 C   0  0  0  0  0  2  0  0  0  0  0  0
  190.0770  176.7070  146.1830 C   0  0  1  0  0  3  0  0  0  0  0  0
  191.2780  176.3140  145.3080 C   0  0  2  0  0  3  0  0  0  0  0  0
  192.7920  176.2930  146.9670 C   0  0  0  0  0  2  0  0  0  0  0  0
  192.4510  176.9430  145.7660 O   0  0  0  0  0  0  0  0  0  0  0  0
  189.5690  174.1480  146.1360 C   0  0  0  0  0  1  0  0  0  0  0  0
  187.8920  175.7910  146.7800 C   0  0  0  0  0  2  0  0  0  0  0  0
  189.1250  175.5590  146.3440 C   0  0  0  0  0  0  0  0  0  0  0  0
  188.9920  175.8440  142.7510 C   0  0  0  0  0  2  0  0  0  0  0  0
  185.4450  178.7430  141.9100 F   0  0  0  0  0  0  0  0  0  0  0  0
  188.2540  177.9780  141.5600 C   0  0  0  0  0  2  0  0  0  0  0  0
  186.1920  178.3100  142.9940 C   0  0  2  0  0  0  0  0  0  0  0  0
  187.6640  178.6910  142.7770 C   0  0  0  0  0  2  0  0  0  0  0  0
  186.6300  176.0810  141.8900 C   0  0  0  0  0  2  0  0  0  0  0  0
  186.0540  176.7890  143.1170 C   0  0  0  0  0  2  0  0  0  0  0  0
  188.0960  176.4580  141.6630 C   0  0  2  0  0  3  0  0  0  0  0  0
  184.1300  178.9170  144.3620 C   0  0  0  0  0  2  0  0  0  0  0  0
  185.6400  178.9770  144.2620 C   0  0  1  0  0  3  0  0  0  0  0  0
  186.2100  178.4100  145.4180 O   0  0  0  0  0  0  0  0  0  0  0  0
  183.9010  178.8770  145.8330 C   0  0  0  0  0  2  0  0  0  0  0  0
  185.1740  178.2540  146.3580 C   0  0  2  0  0  3  0  0  0  0  0  0
  186.9400  178.7370  147.9130 O   0  0  0  0  0  1  0  0  0  0  0  0
  185.5690  178.8630  147.6960 C   0  0  0  0  0  2  0  0  0  0  0  0
  1 36  1  0  0  0  0
  1 25  1  0  0  0  0
  2 10  1  6  0  0  0
  2  4  1  0  0  0  0
  3  6  1  0  0  0  0
  4  9  1  0  0  0  0
  4 11  2  0  0  0  0
  5  6  1  1  0  0  0
  5  2  1  0  0  0  0
  5  8  1  0  0  0  0
  7  3  2  0  0  0  0
  7 12  1  0  0  0  0
  8  1  1  6  0  0  0
  8 11  1  0  0  0  0
  9 13  1  0  0  0  0
 12 10  1  0  0  0  0
 14 13  1  0  0  0  0
 14 16  1  0  0  0  0
 15 14  2  0  0  0  0
 18 20  1  6  0  0  0
 18 17  1  0  0  0  0
 19 16  1  6  0  0  0
 19 18  1  0  0  0  0
 19 17  1  0  0  0  0
 22 24  2  0  0  0  0
 23 24  1  0  0  0  0
 24 20  1  0  0  0  0
 24 21  1  0  0  0  0
 25 26  1  0  0  0  0
 27 28  1  0  0  0  0
 29 35  1  1  0  0  0
 29 27  1  0  0  0  0
 30 26  1  6  0  0  0
 30 32  1  0  0  0  0
 30 29  1  0  0  0  0
 31 28  1  0  0  0  0
 32 31  1  0  0  0  0
 33 35  1  0  0  0  0
 35 34  2  0  0  0  0
 38 43  1  0  0  0  0
 38 40  1  0  0  0  0
 39 37  1  6  0  0  0
 39 42  1  0  0  0  0
 39 45  1  0  0  0  0
 40 39  1  0  0  0  0
 41 42  1  0  0  0  0
 43 41  1  0  0  0  0
 43 36  1  1  0  0  0
 44 47  1  0  0  0  0
 45 44  1  1  0  0  0
 45 46  1  0  0  0  0
 46 48  1  0  0  0  0
 47 48  1  0  0  0  0
 48 50  1  1  0  0  0
 50 49  1  0  0  0  0
M  END
>  <MODEL>
3

>  <REMARK>
 VINA RESULT:      -7.5      3.281      6.553
  Name = 
  15 active torsions:
  status: ('A' for Active; 'I' for Inactive)
    1  A    between atoms: C_4  and  C_7
    2  A    between atoms: C_4  and  O_25
    3  A    between atoms: C_7  and  N_34
    4  A    between atoms: C_15  and  C_49
    5  A    between atoms: C_17  and  C_24
    6  A    between atoms: C_20  and  C_40
    7  A    between atoms: C_22  and  C_29
    8  A    between atoms: C_22  and  N_46
    9  A    between atoms: C_23  and  O_25
   10  A    between atoms: C_29  and  C_35
   11  A    between atoms: P_31  and  C_40
   12  A    between atoms: C_32  and  N_46
   13  A    between atoms: C_42  and  C_48
   14  A    between atoms: C_45  and  N_46
   15  A    between atoms: C_45  and  C_47
                            x       y       z     vdW  Elec       q    Type
                         _______ _______ _______ _____ _____    ______ ____

>  <TORSDO>
F 15

$$$$
=
 OpenBabel11062419183D

 50 55  0  0  1  0  0  0  0  0999 V2000
  189.4520  174.6950  142.2910 N   0  0  0  0  0  0  0  0  0  0  0  0
  190.4150  172.2050  139.8450 C   0  0  1  0  0  3  0  0  0  0  0  0
  188.4940  173.8230  137.9820 C   0  0  0  0  0  3  0  0  0  0  0  0
  191.0970  171.9570  141.1320 C   0  0  0  0  0  0  0  0  0  0  0  0
  189.6420  173.4510  140.1750 C   0  0  1  0  0  3  0  0  0  0  0  0
  188.4290  173.5210  139.3820 N   0  0  0  0  0  2  0  0  0  0  0  0
  189.4310  173.3630  137.1360 C   0  0  0  0  0  3  0  0  0  0  0  0
  189.4070  173.3570  141.6810 C   0  0  1  0  0  3  0  0  0  0  0  0
  192.2210  171.0890  141.2830 N   0  0  0  0  0  2  0  0  0  0  0  0
  191.3120  172.5140  138.6710 C   0  0  0  0  0  2  0  0  0  0  0  0
  190.5340  172.5460  142.1330 N   0  0  0  0  0  0  0  0  0  0  0  0
  190.4880  172.3180  137.4030 C   0  0  0  0  0  2  0  0  0  0  0  0
  192.8570  170.8900  142.5760 C   0  0  0  0  0  2  0  0  0  0  0  0
  194.3310  170.7710  142.4100 C   0  0  0  0  0  0  0  0  0  0  0  0
  194.8680  169.6300  142.3710 O   0  0  0  0  0  0  0  0  0  0  0  0
  195.0940  171.9260  142.2520 O   0  0  0  0  0  0  0  0  0  0  0  0
  195.0350  173.4880  140.5480 O   0  0  0  0  0  0  0  0  0  0  0  0
  196.3540  173.6120  141.0270 C   0  0  2  0  0  3  0  0  0  0  0  0
  195.6460  172.2990  140.9900 C   0  0  1  0  0  3  0  0  0  0  0  0
  196.3460  174.2870  142.3960 C   0  0  0  0  0  2  0  0  0  0  0  0
  196.7400  176.9230  143.4590 O   0  0  0  0  0  1  0  0  0  0  0  0
  194.3100  176.3110  142.3060 O   0  0  0  0  0  1  0  0  0  0  0  0
  196.4920  176.5440  140.8840 O   0  0  0  0  0  0  0  0  0  0  0  0
  195.9800  176.0590  142.2200 P   0  0  0  0  0  0  0  0  0  0  0  0
  190.1160  174.6460  143.5940 C   0  0  0  0  0  2  0  0  0  0  0  0
  191.2170  175.6890  143.6510 C   0  0  0  0  0  2  0  0  0  0  0  0
  191.8600  174.9520  147.2760 C   0  0  0  0  0  2  0  0  0  0  0  0
  191.2290  176.1980  147.9080 C   0  0  0  0  0  2  0  0  0  0  0  0
  192.3290  175.1960  145.8330 C   0  0  1  0  0  3  0  0  0  0  0  0
  191.4060  176.1660  145.0790 C   0  0  2  0  0  3  0  0  0  0  0  0
  190.3830  176.9940  146.9000 C   0  0  0  0  0  2  0  0  0  0  0  0
  190.1560  176.2600  145.7200 O   0  0  0  0  0  0  0  0  0  0  0  0
  194.0980  177.1130  145.8490 C   0  0  0  0  0  1  0  0  0  0  0  0
  194.7330  174.7630  145.8050 C   0  0  0  0  0  2  0  0  0  0  0  0
  193.7540  175.6610  145.7900 C   0  0  0  0  0  0  0  0  0  0  0  0
  188.0930  175.2300  142.4630 C   0  0  0  0  0  2  0  0  0  0  0  0
  186.3290  179.5330  142.7010 F   0  0  0  0  0  0  0  0  0  0  0  0
  188.5940  177.7240  142.2570 C   0  0  0  0  0  2  0  0  0  0  0  0
  186.5360  178.4530  143.5440 C   0  0  2  0  0  0  0  0  0  0  0  0
  188.0400  178.1510  143.6170 C   0  0  0  0  0  2  0  0  0  0  0  0
  186.3280  176.8270  141.6230 C   0  0  0  0  0  2  0  0  0  0  0  0
  185.7820  177.2400  142.9900 C   0  0  0  0  0  2  0  0  0  0  0  0
  187.8270  176.5290  141.6850 C   0  0  2  0  0  3  0  0  0  0  0  0
  184.4790  178.6760  145.0320 C   0  0  0  0  0  2  0  0  0  0  0  0
  185.9850  178.8070  144.9320 C   0  0  1  0  0  3  0  0  0  0  0  0
  186.5910  178.0180  145.9300 O   0  0  0  0  0  0  0  0  0  0  0  0
  184.2760  178.3070  146.4590 C   0  0  0  0  0  2  0  0  0  0  0  0
  185.5760  177.6260  146.8220 C   0  0  2  0  0  3  0  0  0  0  0  0
  186.8460  179.0250  148.3050 O   0  0  0  0  0  1  0  0  0  0  0  0
  185.9740  177.9380  148.2570 C   0  0  0  0  0  2  0  0  0  0  0  0
  1 36  1  0  0  0  0
  1 25  1  0  0  0  0
  2 10  1  6  0  0  0
  2  5  1  0  0  0  0
  2  4  1  0  0  0  0
  3  6  1  0  0  0  0
  4  9  1  0  0  0  0
  4 11  2  0  0  0  0
  5  6  1  6  0  0  0
  5  8  1  0  0  0  0
  7 12  1  0  0  0  0
  7  3  2  0  0  0  0
  8 11  1  0  0  0  0
  8  1  1  1  0  0  0
  9 13  1  0  0  0  0
 12 10  1  0  0  0  0
 14 13  1  0  0  0  0
 15 14  2  0  0  0  0
 16 14  1  0  0  0  0
 17 19  1  0  0  0  0
 17 18  1  0  0  0  0
 18 20  1  1  0  0  0
 19 18  1  0  0  0  0
 19 16  1  1  0  0  0
 23 24  2  0  0  0  0
 24 22  1  0  0  0  0
 24 20  1  0  0  0  0
 24 21  1  0  0  0  0
 25 26  1  0  0  0  0
 27 28  1  0  0  0  0
 29 35  1  1  0  0  0
 29 27  1  0  0  0  0
 30 26  1  6  0  0  0
 30 32  1  0  0  0  0
 30 29  1  0  0  0  0
 31 28  1  0  0  0  0
 32 31  1  0  0  0  0
 35 34  2  0  0  0  0
 35 33  1  0  0  0  0
 38 40  1  0  0  0  0
 39 37  1  6  0  0  0
 39 40  1  0  0  0  0
 39 45  1  0  0  0  0
 41 43  1  0  0  0  0
 41 42  1  0  0  0  0
 42 39  1  0  0  0  0
 43 38  1  0  0  0  0
 43 36  1  1  0  0  0
 44 47  1  0  0  0  0
 45 44  1  6  0  0  0
 45 46  1  0  0  0  0
 46 48  1  0  0  0  0
 47 48  1  0  0  0  0
 48 50  1  1  0  0  0
 50 49  1  0  0  0  0
M  END
>  <MODEL>
4

>  <REMARK>
 VINA RESULT:      -7.3      3.211      6.050
  Name = 
  15 active torsions:
  status: ('A' for Active; 'I' for Inactive)
    1  A    between atoms: C_4  and  C_7
    2  A    between atoms: C_4  and  O_25
    3  A    between atoms: C_7  and  N_34
    4  A    between atoms: C_15  and  C_49
    5  A    between atoms: C_17  and  C_24
    6  A    between atoms: C_20  and  C_40
    7  A    between atoms: C_22  and  C_29
    8  A    between atoms: C_22  and  N_46
    9  A    between atoms: C_23  and  O_25
   10  A    between atoms: C_29  and  C_35
   11  A    between atoms: P_31  and  C_40
   12  A    between atoms: C_32  and  N_46
   13  A    between atoms: C_42  and  C_48
   14  A    between atoms: C_45  and  N_46
   15  A    between atoms: C_45  and  C_47
                            x       y       z     vdW  Elec       q    Type
                         _______ _______ _______ _____ _____    ______ ____

>  <TORSDO>
F 15

$$$$
=
 OpenBabel11062419183D

 50 55  0  0  1  0  0  0  0  0999 V2000
  189.4460  174.1540  142.3030 N   0  0  0  0  0  0  0  0  0  0  0  0
  189.8560  171.7720  139.6080 C   0  0  1  0  0  3  0  0  0  0  0  0
  188.4020  173.9750  137.9300 C   0  0  0  0  0  3  0  0  0  0  0  0
  190.4340  171.2410  140.8600 C   0  0  0  0  0  0  0  0  0  0  0  0
  189.3860  173.1240  140.0680 C   0  0  1  0  0  3  0  0  0  0  0  0
  188.2400  173.5550  139.2910 N   0  0  0  0  0  2  0  0  0  0  0  0
  189.2250  173.3980  137.0380 C   0  0  0  0  0  3  0  0  0  0  0  0
  189.1040  172.9330  141.5580 C   0  0  1  0  0  3  0  0  0  0  0  0
  191.3220  170.1250  140.9150 N   0  0  0  0  0  2  0  0  0  0  0  0
  190.8240  171.9820  138.4690 C   0  0  0  0  0  2  0  0  0  0  0  0
  190.0020  171.8400  141.9180 N   0  0  0  0  0  0  0  0  0  0  0  0
  190.0040  172.1140  137.1910 C   0  0  0  0  0  2  0  0  0  0  0  0
  191.8680  169.6520  142.1790 C   0  0  0  0  0  2  0  0  0  0  0  0
  193.2480  170.1740  142.3690 C   0  0  0  0  0  0  0  0  0  0  0  0
  194.1960  169.7130  141.6750 O   0  0  0  0  0  0  0  0  0  0  0  0
  193.4660  171.2040  143.2820 O   0  0  0  0  0  0  0  0  0  0  0  0
  194.8410  170.3810  144.9490 O   0  0  0  0  0  0  0  0  0  0  0  0
  194.6890  171.7320  145.3210 C   0  0  2  0  0  3  0  0  0  0  0  0
  193.5840  170.9580  144.6830 C   0  0  1  0  0  3  0  0  0  0  0  0
  195.4650  172.6250  144.3550 C   0  0  0  0  0  2  0  0  0  0  0  0
  197.1160  173.4110  146.5660 O   0  0  0  0  0  1  0  0  0  0  0  0
  197.9390  174.0420  144.0100 O   0  0  0  0  0  0  0  0  0  0  0  0
  197.9200  171.5780  144.8830 O   0  0  0  0  0  1  0  0  0  0  0  0
  197.1590  172.8810  144.9610 P   0  0  0  0  0  0  0  0  0  0  0  0
  190.1260  173.8200  143.5550 C   0  0  0  0  0  2  0  0  0  0  0  0
  189.5280  174.6230  144.6960 C   0  0  0  0  0  2  0  0  0  0  0  0
  193.1430  175.1020  145.5930 C   0  0  0  0  0  2  0  0  0  0  0  0
  192.9820  175.9160  146.8820 C   0  0  0  0  0  2  0  0  0  0  0  0
  191.9430  175.2580  144.6440 C   0  0  1  0  0  3  0  0  0  0  0  0
  190.6160  175.4070  145.4050 C   0  0  2  0  0  3  0  0  0  0  0  0
  191.5310  175.9120  147.3940 C   0  0  0  0  0  2  0  0  0  0  0  0
  190.7500  174.9480  146.7300 O   0  0  0  0  0  0  0  0  0  0  0  0
  191.8210  177.7990  144.0640 C   0  0  0  0  0  1  0  0  0  0  0  0
  192.7240  176.1560  142.5110 C   0  0  0  0  0  2  0  0  0  0  0  0
  192.1470  176.3920  143.6840 C   0  0  0  0  0  0  0  0  0  0  0  0
  188.2340  174.9300  142.6070 C   0  0  0  0  0  2  0  0  0  0  0  0
  186.6060  179.2920  142.4900 F   0  0  0  0  0  0  0  0  0  0  0  0
  188.8310  177.3920  142.2970 C   0  0  0  0  0  2  0  0  0  0  0  0
  186.7210  178.2550  143.4030 C   0  0  2  0  0  0  0  0  0  0  0  0
  188.2060  177.9130  143.5910 C   0  0  0  0  0  2  0  0  0  0  0  0
  186.5820  176.5300  141.5650 C   0  0  0  0  0  2  0  0  0  0  0  0
  185.9640  177.0360  142.8680 C   0  0  0  0  0  2  0  0  0  0  0  0
  188.0630  176.1900  141.7420 C   0  0  2  0  0  3  0  0  0  0  0  0
  184.5800  178.6900  144.7140 C   0  0  0  0  0  2  0  0  0  0  0  0
  186.0950  178.7050  144.7300 C   0  0  1  0  0  3  0  0  0  0  0  0
  186.5600  177.9150  145.7990 O   0  0  0  0  0  0  0  0  0  0  0  0
  184.2400  178.3940  146.1330 C   0  0  0  0  0  2  0  0  0  0  0  0
  185.4530  177.6350  146.6210 C   0  0  2  0  0  3  0  0  0  0  0  0
  186.8400  178.8570  148.1560 O   0  0  0  0  0  1  0  0  0  0  0  0
  185.7630  177.9750  148.0720 C   0  0  0  0  0  2  0  0  0  0  0  0
  1 36  1  0  0  0  0
  1 25  1  0  0  0  0
  2 10  1  6  0  0  0
  2  5  1  0  0  0  0
  2  4  1  0  0  0  0
  3  6  1  0  0  0  0
  4  9  1  0  0  0  0
  4 11  2  0  0  0  0
  5  6  1  6  0  0  0
  5  8  1  0  0  0  0
  7 12  1  0  0  0  0
  7  3  2  0  0  0  0
  8 11  1  0  0  0  0
  8  1  1  1  0  0  0
  9 13  1  0  0  0  0
 12 10  1  0  0  0  0
 13 14  1  0  0  0  0
 14 16  1  0  0  0  0
 15 14  2  0  0  0  0
 17 18  1  0  0  0  0
 18 20  1  6  0  0  0
 19 16  1  6  0  0  0
 19 17  1  0  0  0  0
 19 18  1  0  0  0  0
 20 24  1  0  0  0  0
 22 24  2  0  0  0  0
 23 24  1  0  0  0  0
 24 21  1  0  0  0  0
 25 26  1  0  0  0  0
 27 28  1  0  0  0  0
 28 31  1  0  0  0  0
 29 35  1  1  0  0  0
 29 30  1  0  0  0  0
 29 27  1  0  0  0  0
 30 26  1  6  0  0  0
 30 32  1  0  0  0  0
 32 31  1  0  0  0  0
 34 35  2  0  0  0  0
 35 33  1  0  0  0  0
 38 40  1  0  0  0  0
 39 37  1  6  0  0  0
 39 40  1  0  0  0  0
 39 45  1  0  0  0  0
 41 43  1  0  0  0  0
 41 42  1  0  0  0  0
 42 39  1  0  0  0  0
 43 38  1  0  0  0  0
 43 36  1  1  0  0  0
 44 47  1  0  0  0  0
 45 44  1  6  0  0  0
 45 46  1  0  0  0  0
 46 48  1  0  0  0  0
 47 48  1  0  0  0  0
 48 50  1  1  0  0  0
 50 49  1  0  0  0  0
M  END
>  <MODEL>
5

>  <REMARK>
 VINA RESULT:      -7.3      3.318      6.485
  Name = 
  15 active torsions:
  status: ('A' for Active; 'I' for Inactive)
    1  A    between atoms: C_4  and  C_7
    2  A    between atoms: C_4  and  O_25
    3  A    between atoms: C_7  and  N_34
    4  A    between atoms: C_15  and  C_49
    5  A    between atoms: C_17  and  C_24
    6  A    between atoms: C_20  and  C_40
    7  A    between atoms: C_22  and  C_29
    8  A    between atoms: C_22  and  N_46
    9  A    between atoms: C_23  and  O_25
   10  A    between atoms: C_29  and  C_35
   11  A    between atoms: P_31  and  C_40
   12  A    between atoms: C_32  and  N_46
   13  A    between atoms: C_42  and  C_48
   14  A    between atoms: C_45  and  N_46
   15  A    between atoms: C_45  and  C_47
                            x       y       z     vdW  Elec       q    Type
                         _______ _______ _______ _____ _____    ______ ____

>  <TORSDO>
F 15

$$$$
=
 OpenBabel11062419183D

 50 55  0  0  1  0  0  0  0  0999 V2000
  193.1240  172.3950  142.4630 N   0  0  0  0  0  0  0  0  0  0  0  0
  194.7510  173.4020  145.5370 C   0  0  1  0  0  3  0  0  0  0  0  0
  196.5310  170.8890  144.9870 C   0  0  0  0  0  3  0  0  0  0  0  0
  193.6580  174.3370  145.2000 C   0  0  0  0  0  0  0  0  0  0  0  0
  194.6820  172.4590  144.3680 C   0  0  1  0  0  3  0  0  0  0  0  0
  195.1380  171.1370  144.7540 N   0  0  0  0  0  2  0  0  0  0  0  0
  197.3720  171.7360  145.6040 C   0  0  0  0  0  3  0  0  0  0  0  0
  193.2210  172.5200  143.9250 C   0  0  1  0  0  3  0  0  0  0  0  0
  193.5000  175.6240  145.7970 N   0  0  0  0  0  2  0  0  0  0  0  0
  196.1390  173.9930  145.5730 C   0  0  0  0  0  2  0  0  0  0  0  0
  192.8090  173.8510  144.3590 N   0  0  0  0  0  0  0  0  0  0  0  0
  197.0320  173.0150  146.3300 C   0  0  0  0  0  2  0  0  0  0  0  0
  192.4070  176.5070  145.4180 C   0  0  0  0  0  2  0  0  0  0  0  0
  191.2720  176.3560  146.3670 C   0  0  0  0  0  0  0  0  0  0  0  0
  191.4980  176.0620  147.5740 O   0  0  0  0  0  0  0  0  0  0  0  0
  189.9730  176.5890  145.9190 O   0  0  0  0  0  0  0  0  0  0  0  0
  188.3630  175.6860  147.3120 O   0  0  0  0  0  0  0  0  0  0  0  0
  187.5930  176.1910  146.2460 C   0  0  2  0  0  3  0  0  0  0  0  0
  188.9480  175.6030  146.0330 C   0  0  1  0  0  3  0  0  0  0  0  0
  187.5760  177.7170  146.2970 C   0  0  0  0  0  2  0  0  0  0  0  0
  185.6130  179.2700  144.8950 O   0  0  0  0  0  0  0  0  0  0  0  0
  185.5700  179.2630  147.6530 O   0  0  0  0  0  1  0  0  0  0  0  0
  184.9150  177.1510  146.2570 O   0  0  0  0  0  1  0  0  0  0  0  0
  185.8640  178.3270  146.2750 P   0  0  0  0  0  0  0  0  0  0  0  0
  194.3720  172.8160  141.8260 C   0  0  0  0  0  2  0  0  0  0  0  0
  194.1800  174.1660  141.1590 C   0  0  0  0  0  2  0  0  0  0  0  0
  197.6270  174.6620  142.5620 C   0  0  0  0  0  2  0  0  0  0  0  0
  197.5660  176.1620  142.8700 C   0  0  0  0  0  2  0  0  0  0  0  0
  196.6600  174.2510  141.4390 C   0  0  1  0  0  3  0  0  0  0  0  0
  195.3600  175.0700  141.4650 C   0  0  2  0  0  3  0  0  0  0  0  0
  196.1320  176.7130  142.7870 C   0  0  0  0  0  2  0  0  0  0  0  0
  195.1820  175.6770  142.7230 O   0  0  0  0  0  0  0  0  0  0  0  0
  197.3910  175.6070  139.3330 C   0  0  0  0  0  1  0  0  0  0  0  0
  197.9410  173.2520  139.6150 C   0  0  0  0  0  2  0  0  0  0  0  0
  197.3190  174.3240  140.0940 C   0  0  0  0  0  0  0  0  0  0  0  0
  192.0200  173.2170  141.9470 C   0  0  0  0  0  2  0  0  0  0  0  0
  187.3670  173.4120  141.8370 F   0  0  0  0  0  0  0  0  0  0  0  0
  189.9370  173.0010  140.4860 C   0  0  0  0  0  2  0  0  0  0  0  0
  188.4320  174.2630  142.0880 C   0  0  2  0  0  0  0  0  0  0  0  0
  189.3110  174.3530  140.8310 C   0  0  0  0  0  2  0  0  0  0  0  0
  189.8560  172.3490  142.9170 C   0  0  0  0  0  2  0  0  0  0  0  0
  189.2460  173.7080  143.2610 C   0  0  0  0  0  2  0  0  0  0  0  0
  190.7300  172.4280  141.6640 C   0  0  2  0  0  3  0  0  0  0  0  0
  188.9480  176.6970  142.6350 C   0  0  0  0  0  2  0  0  0  0  0  0
  187.8740  175.6440  142.4590 C   0  0  1  0  0  3  0  0  0  0  0  0
  186.9390  176.0820  141.5020 O   0  0  0  0  0  0  0  0  0  0  0  0
  188.2500  177.9470  142.2260 C   0  0  0  0  0  2  0  0  0  0  0  0
  187.1900  177.4480  141.2720 C   0  0  2  0  0  3  0  0  0  0  0  0
  185.2160  178.2930  140.1960 O   0  0  0  0  0  1  0  0  0  0  0  0
  185.9090  178.2590  141.4050 C   0  0  0  0  0  2  0  0  0  0  0  0
  2 10  1  6  0  0  0
  3  7  2  0  0  0  0
  4  2  1  0  0  0  0
  4  9  1  0  0  0  0
  5  6  1  1  0  0  0
  5  2  1  0  0  0  0
  6  3  1  0  0  0  0
  7 12  1  0  0  0  0
  8  1  1  6  0  0  0
  8 11  1  0  0  0  0
  8  5  1  0  0  0  0
 10 12  1  0  0  0  0
 11  4  2  0  0  0  0
 13  9  1  0  0  0  0
 13 14  1  0  0  0  0
 14 15  2  0  0  0  0
 16 14  1  0  0  0  0
 18 20  1  1  0  0  0
 18 17  1  0  0  0  0
 19 16  1  1  0  0  0
 19 18  1  0  0  0  0
 19 17  1  0  0  0  0
 21 24  2  0  0  0  0
 23 24  1  0  0  0  0
 24 20  1  0  0  0  0
 24 22  1  0  0  0  0
 25  1  1  0  0  0  0
 26 25  1  0  0  0  0
 27 28  1  0  0  0  0
 29 35  1  6  0  0  0
 29 30  1  0  0  0  0
 29 27  1  0  0  0  0
 30 26  1  1  0  0  0
 30 32  1  0  0  0  0
 31 28  1  0  0  0  0
 32 31  1  0  0  0  0
 33 35  1  0  0  0  0
 34 35  2  0  0  0  0
 36  1  1  0  0  0  0
 38 40  1  0  0  0  0
 38 43  1  0  0  0  0
 39 37  1  6  0  0  0
 39 45  1  0  0  0  0
 39 42  1  0  0  0  0
 40 39  1  0  0  0  0
 41 42  1  0  0  0  0
 43 36  1  1  0  0  0
 43 41  1  0  0  0  0
 45 44  1  6  0  0  0
 46 45  1  0  0  0  0
 47 44  1  0  0  0  0
 48 50  1  1  0  0  0
 48 46  1  0  0  0  0
 48 47  1  0  0  0  0
 49 50  1  0  0  0  0
M  END
>  <MODEL>
6

>  <REMARK>
 VINA RESULT:      -7.2      2.438      5.627
  Name = 
  15 active torsions:
  status: ('A' for Active; 'I' for Inactive)
    1  A    between atoms: C_4  and  C_7
    2  A    between atoms: C_4  and  O_25
    3  A    between atoms: C_7  and  N_34
    4  A    between atoms: C_15  and  C_49
    5  A    between atoms: C_17  and  C_24
    6  A    between atoms: C_20  and  C_40
    7  A    between atoms: C_22  and  C_29
    8  A    between atoms: C_22  and  N_46
    9  A    between atoms: C_23  and  O_25
   10  A    between atoms: C_29  and  C_35
   11  A    between atoms: P_31  and  C_40
   12  A    between atoms: C_32  and  N_46
   13  A    between atoms: C_42  and  C_48
   14  A    between atoms: C_45  and  N_46
   15  A    between atoms: C_45  and  C_47
                            x       y       z     vdW  Elec       q    Type
                         _______ _______ _______ _____ _____    ______ ____

>  <TORSDO>
F 15

$$$$
=
 OpenBabel11062419183D

 50 55  0  0  1  0  0  0  0  0999 V2000
  190.1270  176.1100  142.7440 N   0  0  0  0  0  0  0  0  0  0  0  0
  192.0800  176.2690  145.7880 C   0  0  1  0  0  3  0  0  0  0  0  0
  189.2990  175.8560  147.1590 C   0  0  0  0  0  3  0  0  0  0  0  0
  192.9530  176.4140  144.6050 C   0  0  0  0  0  0  0  0  0  0  0  0
  190.7430  176.0800  145.1270 C   0  0  1  0  0  3  0  0  0  0  0  0
  189.6800  176.5760  145.9790 N   0  0  0  0  0  2  0  0  0  0  0  0
  190.1520  175.2420  147.9970 C   0  0  0  0  0  3  0  0  0  0  0  0
  190.8800  176.8130  143.7940 C   0  0  1  0  0  3  0  0  0  0  0  0
  194.3740  176.2830  144.6440 N   0  0  0  0  0  2  0  0  0  0  0  0
  192.3400  175.0640  146.6580 C   0  0  0  0  0  2  0  0  0  0  0  0
  192.3140  176.7450  143.5340 N   0  0  0  0  0  0  0  0  0  0  0  0
  191.6600  175.3120  148.0000 C   0  0  0  0  0  2  0  0  0  0  0  0
  195.1830  176.4280  143.4430 C   0  0  0  0  0  2  0  0  0  0  0  0
  196.2080  175.3530  143.3820 C   0  0  0  0  0  0  0  0  0  0  0  0
  197.1520  175.4300  142.5470 O   0  0  0  0  0  0  0  0  0  0  0  0
  196.1390  174.2930  144.2840 O   0  0  0  0  0  0  0  0  0  0  0  0
  196.8280  173.1210  146.1550 O   0  0  0  0  0  0  0  0  0  0  0  0
  197.4290  172.3980  145.1050 C   0  0  2  0  0  3  0  0  0  0  0  0
  197.2680  173.8810  145.0530 C   0  0  1  0  0  3  0  0  0  0  0  0
  196.3630  171.6260  144.3310 C   0  0  0  0  0  2  0  0  0  0  0  0
  196.9680  169.7020  146.3720 O   0  0  0  0  0  1  0  0  0  0  0  0
  195.2920  168.9610  144.3100 O   0  0  0  0  0  0  0  0  0  0  0  0
  194.5570  170.6830  146.1350 O   0  0  0  0  0  1  0  0  0  0  0  0
  195.7510  170.2330  145.3260 P   0  0  0  0  0  0  0  0  0  0  0  0
  191.0360  175.3780  141.8610 C   0  0  0  0  0  2  0  0  0  0  0  0
  190.2980  174.2250  141.2030 C   0  0  0  0  0  2  0  0  0  0  0  0
  192.2180  172.3030  143.7960 C   0  0  0  0  0  2  0  0  0  0  0  0
  192.5190  171.0280  142.9990 C   0  0  0  0  0  2  0  0  0  0  0  0
  190.9590  173.0280  143.2930 C   0  0  1  0  0  3  0  0  0  0  0  0
  190.7860  172.9060  141.7710 C   0  0  2  0  0  3  0  0  0  0  0  0
  192.2180  171.1960  141.5000 C   0  0  0  0  0  2  0  0  0  0  0  0
  192.0040  172.5450  141.1620 O   0  0  0  0  0  0  0  0  0  0  0  0
  188.5990  171.9130  143.2860 C   0  0  0  0  0  1  0  0  0  0  0  0
  189.6920  172.6240  145.3420 C   0  0  0  0  0  2  0  0  0  0  0  0
  189.7310  172.5590  144.0170 C   0  0  0  0  0  0  0  0  0  0  0  0
  189.3430  177.0630  141.9440 C   0  0  0  0  0  2  0  0  0  0  0  0
  184.8850  177.1510  143.2880 F   0  0  0  0  0  0  0  0  0  0  0  0
  186.9660  177.7440  141.3090 C   0  0  0  0  0  2  0  0  0  0  0  0
  186.0960  177.6910  143.6890 C   0  0  2  0  0  0  0  0  0  0  0  0
  186.6550  178.5690  142.5590 C   0  0  0  0  0  2  0  0  0  0  0  0
  187.3640  175.7190  142.7520 C   0  0  0  0  0  2  0  0  0  0  0  0
  187.0700  176.5510  144.0000 C   0  0  0  0  0  2  0  0  0  0  0  0
  187.9170  176.5850  141.6190 C   0  0  2  0  0  3  0  0  0  0  0  0
  184.4330  178.4640  145.4580 C   0  0  0  0  0  2  0  0  0  0  0  0
  185.8620  178.5240  144.9570 C   0  0  1  0  0  3  0  0  0  0  0  0
  186.7370  178.1300  145.9870 O   0  0  0  0  0  0  0  0  0  0  0  0
  184.5950  178.6280  146.9290 C   0  0  0  0  0  2  0  0  0  0  0  0
  185.9880  178.0980  147.1780 C   0  0  2  0  0  3  0  0  0  0  0  0
  186.3150  180.2350  148.2260 O   0  0  0  0  0  1  0  0  0  0  0  0
  186.6870  178.8920  148.2730 C   0  0  0  0  0  2  0  0  0  0  0  0
  2 10  1  6  0  0  0
  3  7  2  0  0  0  0
  4  9  1  0  0  0  0
  4  2  1  0  0  0  0
  5  2  1  0  0  0  0
  5  6  1  1  0  0  0
  6  3  1  0  0  0  0
  7 12  1  0  0  0  0
  8  1  1  6  0  0  0
  8  5  1  0  0  0  0
 10 12  1  0  0  0  0
 11  8  1  0  0  0  0
 11  4  2  0  0  0  0
 13  9  1  0  0  0  0
 14 13  1  0  0  0  0
 14 16  1  0  0  0  0
 15 14  2  0  0  0  0
 18 20  1  6  0  0  0
 18 17  1  0  0  0  0
 19 16  1  6  0  0  0
 19 18  1  0  0  0  0
 19 17  1  0  0  0  0
 20 24  1  0  0  0  0
 22 24  2  0  0  0  0
 24 23  1  0  0  0  0
 24 21  1  0  0  0  0
 25  1  1  0  0  0  0
 26 25  1  0  0  0  0
 28 27  1  0  0  0  0
 29 27  1  0  0  0  0
 29 35  1  1  0  0  0
 30 26  1  6  0  0  0
 30 29  1  0  0  0  0
 31 28  1  0  0  0  0
 32 31  1  0  0  0  0
 32 30  1  0  0  0  0
 33 35  1  0  0  0  0
 35 34  2  0  0  0  0
 36  1  1  0  0  0  0
 38 43  1  0  0  0  0
 38 40  1  0  0  0  0
 39 37  1  6  0  0  0
 39 42  1  0  0  0  0
 39 45  1  0  0  0  0
 40 39  1  0  0  0  0
 41 42  1  0  0  0  0
 43 36  1  1  0  0  0
 43 41  1  0  0  0  0
 44 47  1  0  0  0  0
 45 44  1  1  0  0  0
 45 46  1  0  0  0  0
 46 48  1  0  0  0  0
 47 48  1  0  0  0  0
 48 50  1  1  0  0  0
 49 50  1  0  0  0  0
M  END
>  <MODEL>
7

>  <REMARK>
 VINA RESULT:      -7.1      3.032      6.662
  Name = 
  15 active torsions:
  status: ('A' for Active; 'I' for Inactive)
    1  A    between atoms: C_4  and  C_7
    2  A    between atoms: C_4  and  O_25
    3  A    between atoms: C_7  and  N_34
    4  A    between atoms: C_15  and  C_49
    5  A    between atoms: C_17  and  C_24
    6  A    between atoms: C_20  and  C_40
    7  A    between atoms: C_22  and  C_29
    8  A    between atoms: C_22  and  N_46
    9  A    between atoms: C_23  and  O_25
   10  A    between atoms: C_29  and  C_35
   11  A    between atoms: P_31  and  C_40
   12  A    between atoms: C_32  and  N_46
   13  A    between atoms: C_42  and  C_48
   14  A    between atoms: C_45  and  N_46
   15  A    between atoms: C_45  and  C_47
                            x       y       z     vdW  Elec       q    Type
                         _______ _______ _______ _____ _____    ______ ____

>  <TORSDO>
F 15

$$$$
=
 OpenBabel11062419183D

 50 55  0  0  1  0  0  0  0  0999 V2000
  191.9360  173.9170  143.8720 N   0  0  0  0  0  0  0  0  0  0  0  0
  189.3970  176.1160  145.2230 C   0  0  1  0  0  3  0  0  0  0  0  0
  191.0580  175.8160  147.8560 C   0  0  0  0  0  3  0  0  0  0  0  0
  189.1380  175.8430  143.7940 C   0  0  0  0  0  0  0  0  0  0  0  0
  190.6690  175.3420  145.4290 C   0  0  1  0  0  3  0  0  0  0  0  0
  190.7700  174.8870  146.8020 N   0  0  0  0  0  2  0  0  0  0  0  0
  190.5620  177.0610  147.9430 C   0  0  0  0  0  3  0  0  0  0  0  0
  190.5950  174.2210  144.3940 C   0  0  1  0  0  3  0  0  0  0  0  0
  188.2370  176.6050  142.9890 N   0  0  0  0  0  2  0  0  0  0  0  0
  189.6680  177.5560  145.5830 C   0  0  0  0  0  2  0  0  0  0  0  0
  189.7540  174.7990  143.3510 N   0  0  0  0  0  0  0  0  0  0  0  0
  189.4870  177.6920  147.0910 C   0  0  0  0  0  2  0  0  0  0  0  0
  188.0300  176.2950  141.5830 C   0  0  0  0  0  2  0  0  0  0  0  0
  187.1240  177.2990  140.9640 C   0  0  0  0  0  0  0  0  0  0  0  0
  186.8150  177.2000  139.7440 O   0  0  0  0  0  0  0  0  0  0  0  0
  186.5900  178.3140  141.7560 O   0  0  0  0  0  0  0  0  0  0  0  0
  184.7020  177.5090  142.8190 O   0  0  0  0  0  0  0  0  0  0  0  0
  184.7960  178.8220  143.3210 C   0  0  2  0  0  3  0  0  0  0  0  0
  185.1830  178.4810  141.9210 C   0  0  1  0  0  3  0  0  0  0  0  0
  185.9730  178.9230  144.2880 C   0  0  0  0  0  2  0  0  0  0  0  0
  185.9710  176.6140  145.9920 O   0  0  0  0  0  0  0  0  0  0  0  0
  183.8430  178.3630  146.1320 O   0  0  0  0  0  1  0  0  0  0  0  0
  186.2230  179.0150  146.9960 O   0  0  0  0  0  1  0  0  0  0  0  0
  185.5150  178.2400  145.9090 P   0  0  0  0  0  0  0  0  0  0  0  0
  192.8230  175.0710  144.0290 C   0  0  0  0  0  2  0  0  0  0  0  0
  193.7630  174.8430  145.1990 C   0  0  0  0  0  2  0  0  0  0  0  0
  197.0840  173.2150  145.8420 C   0  0  0  0  0  2  0  0  0  0  0  0
  197.8880  173.8010  144.6760 C   0  0  0  0  0  2  0  0  0  0  0  0
  195.5760  173.1620  145.5510 C   0  0  1  0  0  3  0  0  0  0  0  0
  195.1070  174.3510  144.6970 C   0  0  2  0  0  3  0  0  0  0  0  0
  197.1490  174.9610  143.9880 C   0  0  0  0  0  2  0  0  0  0  0  0
  196.0480  175.3980  144.7470 O   0  0  0  0  0  0  0  0  0  0  0  0
  194.6930  170.7140  145.7490 C   0  0  0  0  0  1  0  0  0  0  0  0
  195.1770  171.7480  143.5990 C   0  0  0  0  0  2  0  0  0  0  0  0
  195.1840  171.8570  144.9230 C   0  0  0  0  0  0  0  0  0  0  0  0
  191.8660  173.5550  142.4480 C   0  0  0  0  0  2  0  0  0  0  0  0
  190.3240  170.2080  139.6000 F   0  0  0  0  0  0  0  0  0  0  0  0
  192.5310  171.6460  140.8890 C   0  0  0  0  0  2  0  0  0  0  0  0
  190.3080  171.5920  139.6730 C   0  0  2  0  0  0  0  0  0  0  0  0
  191.7530  172.1130  139.6590 C   0  0  0  0  0  2  0  0  0  0  0  0
  190.3820  171.5280  142.1970 C   0  0  0  0  0  2  0  0  0  0  0  0
  189.6090  172.0130  140.9700 C   0  0  0  0  0  2  0  0  0  0  0  0
  191.8240  172.0390  142.1890 C   0  0  2  0  0  3  0  0  0  0  0  0
  188.3660  173.0280  138.8620 C   0  0  0  0  0  2  0  0  0  0  0  0
  189.5240  172.1330  138.4700 C   0  0  1  0  0  3  0  0  0  0  0  0
  190.3740  172.8260  137.5860 O   0  0  0  0  0  0  0  0  0  0  0  0
  188.2760  173.9700  137.7130 C   0  0  0  0  0  2  0  0  0  0  0  0
  189.6890  173.9850  137.1750 C   0  0  2  0  0  3  0  0  0  0  0  0
  188.6420  174.9020  135.2170 O   0  0  0  0  0  1  0  0  0  0  0  0
  189.6950  174.1010  135.6570 C   0  0  0  0  0  2  0  0  0  0  0  0
  1 25  1  0  0  0  0
  2  5  1  0  0  0  0
  2 10  1  6  0  0  0
  3  7  2  0  0  0  0
  4  2  1  0  0  0  0
  5  6  1  1  0  0  0
  6  3  1  0  0  0  0
  8  1  1  6  0  0  0
  8  5  1  0  0  0  0
  9  4  1  0  0  0  0
 10 12  1  0  0  0  0
 11  4  2  0  0  0  0
 11  8  1  0  0  0  0
 12  7  1  0  0  0  0
 13  9  1  0  0  0  0
 14 13  1  0  0  0  0
 14 16  1  0  0  0  0
 15 14  2  0  0  0  0
 17 18  1  0  0  0  0
 18 20  1  1  0  0  0
 19 16  1  1  0  0  0
 19 17  1  0  0  0  0
 19 18  1  0  0  0  0
 20 24  1  0  0  0  0
 24 21  2  0  0  0  0
 24 22  1  0  0  0  0
 24 23  1  0  0  0  0
 25 26  1  0  0  0  0
 28 27  1  0  0  0  0
 29 35  1  6  0  0  0
 29 27  1  0  0  0  0
 30 32  1  0  0  0  0
 30 26  1  1  0  0  0
 30 29  1  0  0  0  0
 31 28  1  0  0  0  0
 31 32  1  0  0  0  0
 34 35  2  0  0  0  0
 35 33  1  0  0  0  0
 36  1  1  0  0  0  0
 38 43  1  0  0  0  0
 39 37  1  6  0  0  0
 39 42  1  0  0  0  0
 40 39  1  0  0  0  0
 40 38  1  0  0  0  0
 42 41  1  0  0  0  0
 43 41  1  0  0  0  0
 43 36  1  6  0  0  0
 45 44  1  1  0  0  0
 45 39  1  0  0  0  0
 46 45  1  0  0  0  0
 47 44  1  0  0  0  0
 48 50  1  6  0  0  0
 48 46  1  0  0  0  0
 48 47  1  0  0  0  0
 49 50  1  0  0  0  0
M  END
>  <MODEL>
8

>  <REMARK>
 VINA RESULT:      -7.1      2.719      6.515
  Name = 
  15 active torsions:
  status: ('A' for Active; 'I' for Inactive)
    1  A    between atoms: C_4  and  C_7
    2  A    between atoms: C_4  and  O_25
    3  A    between atoms: C_7  and  N_34
    4  A    between atoms: C_15  and  C_49
    5  A    between atoms: C_17  and  C_24
    6  A    between atoms: C_20  and  C_40
    7  A    between atoms: C_22  and  C_29
    8  A    between atoms: C_22  and  N_46
    9  A    between atoms: C_23  and  O_25
   10  A    between atoms: C_29  and  C_35
   11  A    between atoms: P_31  and  C_40
   12  A    between atoms: C_32  and  N_46
   13  A    between atoms: C_42  and  C_48
   14  A    between atoms: C_45  and  N_46
   15  A    between atoms: C_45  and  C_47
                            x       y       z     vdW  Elec       q    Type
                         _______ _______ _______ _____ _____    ______ ____

>  <TORSDO>
F 15

$$$$
=
 OpenBabel11062419183D

 50 55  0  0  1  0  0  0  0  0999 V2000
  189.1690  173.6270  141.8620 N   0  0  0  0  0  0  0  0  0  0  0  0
  192.4540  172.1110  141.7390 C   0  0  1  0  0  3  0  0  0  0  0  0
  190.8180  169.4530  141.5480 C   0  0  0  0  0  3  0  0  0  0  0  0
  192.5660  173.5810  141.8390 C   0  0  0  0  0  0  0  0  0  0  0  0
  190.9600  171.9470  141.6980 C   0  0  1  0  0  3  0  0  0  0  0  0
  190.5740  170.6700  142.2660 N   0  0  0  0  0  2  0  0  0  0  0  0
  191.9230  169.1890  140.8300 C   0  0  0  0  0  3  0  0  0  0  0  0
  190.4310  173.1620  142.4570 C   0  0  1  0  0  3  0  0  0  0  0  0
  193.7660  174.3070  141.5730 N   0  0  0  0  0  2  0  0  0  0  0  0
  193.0220  171.4880  140.4880 C   0  0  0  0  0  2  0  0  0  0  0  0
  191.4880  174.1500  142.2620 N   0  0  0  0  0  0  0  0  0  0  0  0
  193.1950  169.9970  140.7570 C   0  0  0  0  0  2  0  0  0  0  0  0
  193.8140  175.7580  141.6790 C   0  0  0  0  0  2  0  0  0  0  0  0
  195.1120  176.1870  142.2640 C   0  0  0  0  0  0  0  0  0  0  0  0
  195.9650  176.7710  141.5410 O   0  0  0  0  0  0  0  0  0  0  0  0
  195.3490  175.9780  143.6220 O   0  0  0  0  0  0  0  0  0  0  0  0
  196.5910  174.9110  145.2540 O   0  0  0  0  0  0  0  0  0  0  0  0
  195.2850  174.4500  145.5160 C   0  0  2  0  0  3  0  0  0  0  0  0
  195.7670  174.7120  144.1290 C   0  0  1  0  0  3  0  0  0  0  0  0
  194.4480  175.5800  146.1100 C   0  0  0  0  0  2  0  0  0  0  0  0
  191.9300  176.2800  144.9250 O   0  0  0  0  0  0  0  0  0  0  0  0
  191.9510  175.2910  147.5000 O   0  0  0  0  0  1  0  0  0  0  0  0
  192.5170  173.7850  145.4390 O   0  0  0  0  0  1  0  0  0  0  0  0
  192.6780  175.1880  145.9770 P   0  0  0  0  0  0  0  0  0  0  0  0
  189.3650  173.9920  140.4580 C   0  0  0  0  0  2  0  0  0  0  0  0
  188.4960  173.1170  139.5730 C   0  0  0  0  0  2  0  0  0  0  0  0
  191.2410  173.6920  137.0770 C   0  0  0  0  0  2  0  0  0  0  0  0
  190.4030  174.1160  135.8650 C   0  0  0  0  0  2  0  0  0  0  0  0
  190.4560  172.8050  138.0560 C   0  0  1  0  0  3  0  0  0  0  0  0
  188.9720  173.2000  138.1340 C   0  0  2  0  0  3  0  0  0  0  0  0
  188.9440  174.4170  136.2470 C   0  0  0  0  0  2  0  0  0  0  0  0
  188.7800  174.5050  137.6420 O   0  0  0  0  0  0  0  0  0  0  0  0
  191.8400  170.8380  137.0450 C   0  0  0  0  0  1  0  0  0  0  0  0
  189.6910  170.4870  138.1340 C   0  0  0  0  0  2  0  0  0  0  0  0
  190.6130  171.3510  137.7250 C   0  0  0  0  0  0  0  0  0  0  0  0
  188.6510  174.7930  142.5940 C   0  0  0  0  0  2  0  0  0  0  0  0
  186.9570  179.1280  142.4210 F   0  0  0  0  0  0  0  0  0  0  0  0
  189.2250  177.2700  142.3650 C   0  0  0  0  0  2  0  0  0  0  0  0
  187.0230  178.0790  143.3250 C   0  0  2  0  0  0  0  0  0  0  0  0
  188.4970  177.7590  143.6170 C   0  0  0  0  0  2  0  0  0  0  0  0
  187.0510  176.3810  141.4560 C   0  0  0  0  0  2  0  0  0  0  0  0
  186.3300  176.8550  142.7170 C   0  0  0  0  0  2  0  0  0  0  0  0
  188.5210  176.0640  141.7370 C   0  0  2  0  0  3  0  0  0  0  0  0
  184.8160  178.1580  144.5950 C   0  0  0  0  0  2  0  0  0  0  0  0
  186.2930  178.4960  144.6080 C   0  0  1  0  0  3  0  0  0  0  0  0
  186.8970  177.9180  145.7410 O   0  0  0  0  0  0  0  0  0  0  0  0
  184.5220  177.9190  146.0350 C   0  0  0  0  0  2  0  0  0  0  0  0
  185.8590  177.4800  146.5860 C   0  0  2  0  0  3  0  0  0  0  0  0
  185.9960  179.3920  148.0330 O   0  0  0  0  0  1  0  0  0  0  0  0
  186.0650  178.0000  148.0010 C   0  0  0  0  0  2  0  0  0  0  0  0
  1 36  1  0  0  0  0
  2 10  1  6  0  0  0
  2  4  1  0  0  0  0
  3  6  1  0  0  0  0
  4 11  2  0  0  0  0
  5  2  1  0  0  0  0
  5  6  1  1  0  0  0
  5  8  1  0  0  0  0
  7  3  2  0  0  0  0
  8  1  1  6  0  0  0
  9 13  1  0  0  0  0
  9  4  1  0  0  0  0
 10 12  1  0  0  0  0
 11  8  1  0  0  0  0
 12  7  1  0  0  0  0
 13 14  1  0  0  0  0
 14 16  1  0  0  0  0
 15 14  2  0  0  0  0
 17 18  1  0  0  0  0
 18 20  1  1  0  0  0
 19 16  1  1  0  0  0
 19 17  1  0  0  0  0
 19 18  1  0  0  0  0
 21 24  2  0  0  0  0
 23 24  1  0  0  0  0
 24 20  1  0  0  0  0
 24 22  1  0  0  0  0
 25  1  1  0  0  0  0
 26 25  1  0  0  0  0
 27 29  1  0  0  0  0
 28 31  1  0  0  0  0
 28 27  1  0  0  0  0
 29 35  1  6  0  0  0
 29 30  1  0  0  0  0
 30 26  1  1  0  0  0
 31 32  1  0  0  0  0
 32 30  1  0  0  0  0
 33 35  1  0  0  0  0
 35 34  2  0  0  0  0
 38 40  1  0  0  0  0
 39 37  1  6  0  0  0
 39 40  1  0  0  0  0
 39 45  1  0  0  0  0
 41 43  1  0  0  0  0
 41 42  1  0  0  0  0
 42 39  1  0  0  0  0
 43 38  1  0  0  0  0
 43 36  1  1  0  0  0
 44 47  1  0  0  0  0
 45 44  1  6  0  0  0
 45 46  1  0  0  0  0
 46 48  1  0  0  0  0
 47 48  1  0  0  0  0
 48 50  1  1  0  0  0
 50 49  1  0  0  0  0
M  END
>  <MODEL>
9

>  <REMARK>
 VINA RESULT:      -6.8      3.104      6.649
  Name = 
  15 active torsions:
  status: ('A' for Active; 'I' for Inactive)
    1  A    between atoms: C_4  and  C_7
    2  A    between atoms: C_4  and  O_25
    3  A    between atoms: C_7  and  N_34
    4  A    between atoms: C_15  and  C_49
    5  A    between atoms: C_17  and  C_24
    6  A    between atoms: C_20  and  C_40
    7  A    between atoms: C_22  and  C_29
    8  A    between atoms: C_22  and  N_46
    9  A    between atoms: C_23  and  O_25
   10  A    between atoms: C_29  and  C_35
   11  A    between atoms: P_31  and  C_40
   12  A    between atoms: C_32  and  N_46
   13  A    between atoms: C_42  and  C_48
   14  A    between atoms: C_45  and  N_46
   15  A    between atoms: C_45  and  C_47
                            x       y       z     vdW  Elec       q    Type
                         _______ _______ _______ _____ _____    ______ ____

>  <TORSDO>
F 15

$$$$
