=
 OpenBabel11062421263D

 31 36  0  0  1  0  0  0  0  0999 V2000
  189.6360  177.1860  145.7340 C   0  0  1  0  0  3  0  0  0  0  0  0
  191.1900  175.7870  147.6240 N   0  0  0  0  0  2  0  0  0  0  0  0
  191.4110  175.6110  146.1870 C   0  0  1  0  0  0  0  0  0  0  0  0
  189.5950  177.4300  147.2540 C   0  0  0  0  0  2  0  0  0  0  0  0
  192.5780  174.7280  145.7650 C   0  0  1  0  0  3  0  0  0  0  0  0
  191.1320  174.2090  145.7040 C   0  0  0  0  0  2  0  0  0  0  0  0
  190.8920  177.1410  147.8650 N   0  0  0  0  0  2  0  0  0  0  0  0
  190.9400  176.6730  145.2880 N   0  0  0  0  0  2  0  0  0  0  0  0
  188.4310  176.9700  143.0880 C   0  0  0  0  0  2  0  0  0  0  0  0
  187.1210  176.8330  145.5360 C   0  0  0  0  0  0  0  0  0  0  0  0
  186.3980  177.4120  144.4740 C   0  0  0  0  0  0  0  0  0  0  0  0
  186.9590  177.3800  143.0750 C   0  0  1  0  0  3  0  0  0  0  0  0
  185.1050  177.9020  144.7080 C   0  0  0  0  0  3  0  0  0  0  0  0
  188.4910  176.2600  145.2770 C   0  0  1  0  0  3  0  0  0  0  0  0
  186.5650  176.7870  146.8190 C   0  0  0  0  0  3  0  0  0  0  0  0
  188.6300  175.8520  143.9250 O   0  0  0  0  0  0  0  0  0  0  0  0
  186.8350  178.7320  142.3970 C   0  0  0  0  0  1  0  0  0  0  0  0
  184.5550  177.8540  145.9910 C   0  0  0  0  0  3  0  0  0  0  0  0
  185.2860  177.3020  147.0460 C   0  0  0  0  0  3  0  0  0  0  0  0
  195.0420  176.1340  143.1070 C   0  0  0  0  0  2  0  0  0  0  0  0
  194.2070  176.1610  144.3850 C   0  0  0  0  0  2  0  0  0  0  0  0
  193.1450  175.0930  144.4100 C   0  0  0  0  0  0  0  0  0  0  0  0
  193.2930  174.7930  141.9110 C   0  0  0  0  0  2  0  0  0  0  0  0
  192.7050  174.5150  143.2690 C   0  0  0  0  0  3  0  0  0  0  0  0
  194.1140  176.0830  141.8850 C   0  0  2  0  0  3  0  0  0  0  0  0
  197.9400  175.2680  139.3430 N   0  0  0  0  0  1  0  0  0  0  0  0
  194.5250  175.0820  139.7170 C   0  0  0  0  0  2  0  0  0  0  0  0
  196.7170  174.9460  140.0560 C   0  0  2  0  0  3  0  0  0  0  0  0
  195.7150  174.6090  139.1440 O   0  0  0  0  0  0  0  0  0  0  0  0
  194.8170  176.2110  140.5990 N   0  0  2  0  0  0  0  0  0  0  0  0
  196.2430  176.1480  140.8210 C   0  0  0  0  0  2  0  0  0  0  0  0
  1  4  1  1  0  0  0
  2  7  1  0  0  0  0
  3  6  1  6  0  0  0
  3  2  1  0  0  0  0
  4  7  1  0  0  0  0
  5 22  1  6  0  0  0
  5  3  1  0  0  0  0
  6  5  1  0  0  0  0
  8  1  1  0  0  0  0
  8  3  1  0  0  0  0
  9 16  1  0  0  0  0
 10 15  1  0  0  0  0
 11 13  1  0  0  0  0
 11 10  2  0  0  0  0
 12 17  1  1  0  0  0
 12  9  1  0  0  0  0
 12 11  1  0  0  0  0
 13 18  2  0  0  0  0
 14 16  1  6  0  0  0
 14 10  1  0  0  0  0
 14  1  1  0  0  0  0
 15 19  2  0  0  0  0
 18 19  1  0  0  0  0
 20 21  1  0  0  0  0
 21 22  1  0  0  0  0
 23 24  1  0  0  0  0
 24 22  2  0  0  0  0
 25 23  1  6  0  0  0
 25 20  1  0  0  0  0
 28 26  1  6  0  0  0
 28 31  1  0  0  0  0
 29 27  1  0  0  0  0
 29 28  1  0  0  0  0
 30 27  1  6  0  0  0
 30 31  1  0  0  0  0
 30 25  1  0  0  0  0
M  END
>  <MODEL>
1

>  <REMARK>
 VINA RESULT:      -8.1      0.000      0.000
  Name = 
  3 active torsions:
  status: ('A' for Active; 'I' for Inactive)
    1  A    between atoms: C_5  and  C_15
    2  A    between atoms: C_7  and  C_25
    3  A    between atoms: N_26  and  C_31
                            x       y       z     vdW  Elec       q    Type
                         _______ _______ _______ _____ _____    ______ ____

>  <TORSDO>
F 3

$$$$
=
 OpenBabel11062421263D

 31 36  0  0  1  0  0  0  0  0999 V2000
  188.5570  176.6280  143.7560 C   0  0  1  0  0  3  0  0  0  0  0  0
  190.2920  176.6240  145.9780 N   0  0  0  0  0  2  0  0  0  0  0  0
  190.1420  175.4360  145.1370 C   0  0  1  0  0  0  0  0  0  0  0  0
  188.9100  177.8720  144.5940 C   0  0  0  0  0  2  0  0  0  0  0  0
  191.0360  174.2440  145.4500 C   0  0  1  0  0  3  0  0  0  0  0  0
  189.5580  174.2530  145.8680 C   0  0  0  0  0  2  0  0  0  0  0  0
  190.2580  177.7620  145.1500 N   0  0  0  0  0  2  0  0  0  0  0  0
  189.6320  175.6240  143.7720 N   0  0  0  0  0  2  0  0  0  0  0  0
  185.9280  176.9560  142.5390 C   0  0  0  0  0  2  0  0  0  0  0  0
  186.5060  176.8130  145.2550 C   0  0  0  0  0  0  0  0  0  0  0  0
  185.4260  177.6420  144.8910 C   0  0  0  0  0  0  0  0  0  0  0  0
  184.9320  177.6540  143.4670 C   0  0  1  0  0  3  0  0  0  0  0  0
  184.7380  178.3520  145.8850 C   0  0  0  0  0  3  0  0  0  0  0  0
  187.2150  176.0090  144.1960 C   0  0  1  0  0  3  0  0  0  0  0  0
  186.9110  176.7370  146.5920 C   0  0  0  0  0  3  0  0  0  0  0  0
  186.3580  175.7350  143.0990 O   0  0  0  0  0  0  0  0  0  0  0  0
  184.7120  179.0700  142.9690 C   0  0  0  0  0  1  0  0  0  0  0  0
  185.1480  178.2730  147.2190 C   0  0  0  0  0  3  0  0  0  0  0  0
  186.2350  177.4700  147.5710 C   0  0  0  0  0  3  0  0  0  0  0  0
  190.5560  171.4670  142.7720 C   0  0  0  0  0  2  0  0  0  0  0  0
  190.5990  172.0490  144.1830 C   0  0  0  0  0  2  0  0  0  0  0  0
  191.3170  173.3730  144.2440 C   0  0  0  0  0  0  0  0  0  0  0  0
  192.4430  172.9420  142.0310 C   0  0  0  0  0  2  0  0  0  0  0  0
  192.1910  173.7420  143.2800 C   0  0  0  0  0  3  0  0  0  0  0  0
  191.9630  171.4960  142.1580 C   0  0  2  0  0  3  0  0  0  0  0  0
  189.8320  169.9740  138.2960 N   0  0  0  0  0  1  0  0  0  0  0  0
  192.3740  171.7540  139.7830 C   0  0  0  0  0  2  0  0  0  0  0  0
  190.3790  170.9480  139.2240 C   0  0  2  0  0  3  0  0  0  0  0  0
  191.5360  171.5150  138.6840 O   0  0  0  0  0  0  0  0  0  0  0  0
  192.0590  170.8130  140.8580 N   0  0  2  0  0  0  0  0  0  0  0  0
  190.7680  170.2670  140.5050 C   0  0  0  0  0  2  0  0  0  0  0  0
  1  8  1  0  0  0  0
  1 14  1  0  0  0  0
  1  4  1  1  0  0  0
  3  5  1  0  0  0  0
  3  6  1  1  0  0  0
  3  2  1  0  0  0  0
  4  7  1  0  0  0  0
  5 22  1  6  0  0  0
  5  6  1  0  0  0  0
  7  2  1  0  0  0  0
  8  3  1  0  0  0  0
  9 16  1  0  0  0  0
  9 12  1  0  0  0  0
 10 15  1  0  0  0  0
 11 10  2  0  0  0  0
 11 13  1  0  0  0  0
 12 17  1  6  0  0  0
 12 11  1  0  0  0  0
 13 18  2  0  0  0  0
 14 16  1  6  0  0  0
 14 10  1  0  0  0  0
 15 19  2  0  0  0  0
 18 19  1  0  0  0  0
 20 21  1  0  0  0  0
 21 22  1  0  0  0  0
 23 24  1  0  0  0  0
 24 22  2  0  0  0  0
 25 23  1  6  0  0  0
 25 20  1  0  0  0  0
 28 26  1  6  0  0  0
 28 31  1  0  0  0  0
 29 28  1  0  0  0  0
 29 27  1  0  0  0  0
 30 27  1  6  0  0  0
 30 25  1  0  0  0  0
 31 30  1  0  0  0  0
M  END
>  <MODEL>
2

>  <REMARK>
 VINA RESULT:      -7.9      3.018      3.915
  Name = 
  3 active torsions:
  status: ('A' for Active; 'I' for Inactive)
    1  A    between atoms: C_5  and  C_15
    2  A    between atoms: C_7  and  C_25
    3  A    between atoms: N_26  and  C_31
                            x       y       z     vdW  Elec       q    Type
                         _______ _______ _______ _____ _____    ______ ____

>  <TORSDO>
F 3

$$$$
=
 OpenBabel11062421263D

 31 36  0  0  1  0  0  0  0  0999 V2000
  193.2740  174.2630  143.5990 C   0  0  1  0  0  3  0  0  0  0  0  0
  194.4640  174.6400  146.1260 N   0  0  0  0  0  2  0  0  0  0  0  0
  193.2020  175.2960  145.7820 C   0  0  1  0  0  0  0  0  0  0  0  0
  194.5020  173.4890  144.1120 C   0  0  0  0  0  2  0  0  0  0  0  0
  192.5120  176.0980  146.8780 C   0  0  1  0  0  3  0  0  0  0  0  0
  193.2940  176.8010  145.7580 C   0  0  0  0  0  2  0  0  0  0  0  0
  194.4610  173.3490  145.5670 N   0  0  0  0  0  2  0  0  0  0  0  0
  192.4030  174.7140  144.6950 N   0  0  0  0  0  2  0  0  0  0  0  0
  193.3160  174.3850  140.6860 C   0  0  0  0  0  2  0  0  0  0  0  0
  195.1660  175.5070  142.4320 C   0  0  0  0  0  0  0  0  0  0  0  0
  195.6720  175.0480  141.1990 C   0  0  0  0  0  0  0  0  0  0  0  0
  194.7250  174.5790  140.1240 C   0  0  1  0  0  3  0  0  0  0  0  0
  197.0460  175.1500  140.9380 C   0  0  0  0  0  3  0  0  0  0  0  0
  193.6830  175.4450  142.6960 C   0  0  1  0  0  3  0  0  0  0  0  0
  196.0370  176.0210  143.3980 C   0  0  0  0  0  3  0  0  0  0  0  0
  192.9440  175.4860  141.4860 O   0  0  0  0  0  0  0  0  0  0  0  0
  195.1890  173.2710  139.5100 C   0  0  0  0  0  1  0  0  0  0  0  0
  197.9110  175.6640  141.9070 C   0  0  0  0  0  3  0  0  0  0  0  0
  197.4080  176.0940  143.1380 C   0  0  0  0  0  3  0  0  0  0  0  0
  189.0630  177.1260  145.4080 C   0  0  0  0  0  2  0  0  0  0  0  0
  190.4770  177.3560  145.9350 C   0  0  0  0  0  2  0  0  0  0  0  0
  191.0100  176.1770  146.7080 C   0  0  0  0  0  0  0  0  0  0  0  0
  188.6870  175.2580  147.0380 C   0  0  0  0  0  2  0  0  0  0  0  0
  190.1770  175.2570  147.2460 C   0  0  0  0  0  3  0  0  0  0  0  0
  188.1680  176.6080  146.5430 C   0  0  2  0  0  3  0  0  0  0  0  0
  184.0000  178.6650  146.1380 N   0  0  0  0  0  1  0  0  0  0  0  0
  186.5360  176.7910  144.7610 C   0  0  0  0  0  2  0  0  0  0  0  0
  185.3840  178.3770  145.8090 C   0  0  2  0  0  3  0  0  0  0  0  0
  185.4450  177.6610  144.6120 O   0  0  0  0  0  0  0  0  0  0  0  0
  186.7460  176.5020  146.1780 N   0  0  2  0  0  0  0  0  0  0  0  0
  185.9930  177.5170  146.8790 C   0  0  0  0  0  2  0  0  0  0  0  0
  1  4  1  1  0  0  0
  1  8  1  0  0  0  0
  3  6  1  6  0  0  0
  3  2  1  0  0  0  0
  3  5  1  0  0  0  0
  4  7  1  0  0  0  0
  5 22  1  6  0  0  0
  6  5  1  0  0  0  0
  7  2  1  0  0  0  0
  8  3  1  0  0  0  0
  9 16  1  0  0  0  0
 10 14  1  0  0  0  0
 10 15  1  0  0  0  0
 11 10  2  0  0  0  0
 12 17  1  1  0  0  0
 12  9  1  0  0  0  0
 12 11  1  0  0  0  0
 13 11  1  0  0  0  0
 13 18  2  0  0  0  0
 14 16  1  6  0  0  0
 14  1  1  0  0  0  0
 18 19  1  0  0  0  0
 19 15  2  0  0  0  0
 20 21  1  0  0  0  0
 21 22  1  0  0  0  0
 22 24  2  0  0  0  0
 23 24  1  0  0  0  0
 25 20  1  6  0  0  0
 25 23  1  0  0  0  0
 28 26  1  1  0  0  0
 28 31  1  0  0  0  0
 29 27  1  0  0  0  0
 29 28  1  0  0  0  0
 30 27  1  6  0  0  0
 30 25  1  0  0  0  0
 30 31  1  0  0  0  0
M  END
>  <MODEL>
3

>  <REMARK>
 VINA RESULT:      -7.7      2.464      8.681
  Name = 
  3 active torsions:
  status: ('A' for Active; 'I' for Inactive)
    1  A    between atoms: C_5  and  C_15
    2  A    between atoms: C_7  and  C_25
    3  A    between atoms: N_26  and  C_31
                            x       y       z     vdW  Elec       q    Type
                         _______ _______ _______ _____ _____    ______ ____

>  <TORSDO>
F 3

$$$$
=
 OpenBabel11062421263D

 31 36  0  0  1  0  0  0  0  0999 V2000
  188.8380  176.9850  143.4450 C   0  0  1  0  0  3  0  0  0  0  0  0
  190.7390  175.9060  145.2240 N   0  0  0  0  0  2  0  0  0  0  0  0
  190.3100  175.1630  144.0380 C   0  0  1  0  0  0  0  0  0  0  0  0
  189.4740  177.7540  144.6170 C   0  0  0  0  0  2  0  0  0  0  0  0
  191.0090  173.8400  143.7540 C   0  0  1  0  0  3  0  0  0  0  0  0
  189.5980  173.8730  144.3620 C   0  0  0  0  0  2  0  0  0  0  0  0
  190.8280  177.2690  144.8870 N   0  0  0  0  0  2  0  0  0  0  0  0
  189.7200  175.9260  142.9300 N   0  0  0  0  0  2  0  0  0  0  0  0
  186.2050  178.0320  142.7570 C   0  0  0  0  0  2  0  0  0  0  0  0
  186.9670  176.8820  145.1710 C   0  0  0  0  0  0  0  0  0  0  0  0
  186.0050  177.9090  145.2470 C   0  0  0  0  0  0  0  0  0  0  0  0
  185.4080  178.4770  143.9840 C   0  0  1  0  0  3  0  0  0  0  0  0
  185.5200  178.3060  146.5010 C   0  0  0  0  0  3  0  0  0  0  0  0
  187.4540  176.4180  143.8220 C   0  0  1  0  0  3  0  0  0  0  0  0
  187.4600  176.2960  146.3410 C   0  0  0  0  0  3  0  0  0  0  0  0
  186.4800  176.6500  142.8160 O   0  0  0  0  0  0  0  0  0  0  0  0
  185.3750  179.9930  144.0210 C   0  0  0  0  0  1  0  0  0  0  0  0
  186.0170  177.7180  147.6670 C   0  0  0  0  0  3  0  0  0  0  0  0
  186.9890  176.7170  147.5880 C   0  0  0  0  0  3  0  0  0  0  0  0
  189.7530  172.5480  140.3090 C   0  0  0  0  0  2  0  0  0  0  0  0
  189.9740  172.4990  141.8190 C   0  0  0  0  0  2  0  0  0  0  0  0
  191.0250  173.4740  142.2850 C   0  0  0  0  0  0  0  0  0  0  0  0
  191.9570  173.6890  139.9530 C   0  0  0  0  0  2  0  0  0  0  0  0
  191.9510  173.9680  141.4320 C   0  0  0  0  0  3  0  0  0  0  0  0
  191.1050  172.4730  139.5860 C   0  0  2  0  0  3  0  0  0  0  0  0
  189.3190  174.0920  135.5920 N   0  0  0  0  0  1  0  0  0  0  0  0
  192.0460  173.1090  137.4450 C   0  0  0  0  0  2  0  0  0  0  0  0
  190.1680  174.0870  136.7690 C   0  0  2  0  0  3  0  0  0  0  0  0
  191.4930  173.8560  136.3940 O   0  0  0  0  0  0  0  0  0  0  0  0
  190.9920  172.3560  138.1240 N   0  0  2  0  0  0  0  0  0  0  0  0
  189.7590  172.9690  137.6860 C   0  0  0  0  0  2  0  0  0  0  0  0
  1 14  1  0  0  0  0
  1  4  1  1  0  0  0
  3  6  1  1  0  0  0
  3  2  1  0  0  0  0
  4  7  1  0  0  0  0
  5 22  1  6  0  0  0
  5  3  1  0  0  0  0
  5  6  1  0  0  0  0
  7  2  1  0  0  0  0
  8  1  1  0  0  0  0
  8  3  1  0  0  0  0
  9 16  1  0  0  0  0
  9 12  1  0  0  0  0
 10 11  2  0  0  0  0
 10 15  1  0  0  0  0
 11 13  1  0  0  0  0
 12 17  1  1  0  0  0
 12 11  1  0  0  0  0
 13 18  2  0  0  0  0
 14 16  1  6  0  0  0
 14 10  1  0  0  0  0
 15 19  2  0  0  0  0
 19 18  1  0  0  0  0
 20 21  1  0  0  0  0
 21 22  1  0  0  0  0
 23 24  1  0  0  0  0
 24 22  2  0  0  0  0
 25 23  1  6  0  0  0
 25 20  1  0  0  0  0
 28 26  1  6  0  0  0
 28 31  1  0  0  0  0
 29 28  1  0  0  0  0
 29 27  1  0  0  0  0
 30 27  1  6  0  0  0
 30 25  1  0  0  0  0
 31 30  1  0  0  0  0
M  END
>  <MODEL>
4

>  <REMARK>
 VINA RESULT:      -7.7      3.130      4.071
  Name = 
  3 active torsions:
  status: ('A' for Active; 'I' for Inactive)
    1  A    between atoms: C_5  and  C_15
    2  A    between atoms: C_7  and  C_25
    3  A    between atoms: N_26  and  C_31
                            x       y       z     vdW  Elec       q    Type
                         _______ _______ _______ _____ _____    ______ ____

>  <TORSDO>
F 3

$$$$
=
 OpenBabel11062421263D

 31 36  0  0  1  0  0  0  0  0999 V2000
  193.0360  174.6950  143.0530 C   0  0  1  0  0  3  0  0  0  0  0  0
  191.9350  172.9410  144.9660 N   0  0  0  0  0  2  0  0  0  0  0  0
  191.3560  174.2650  144.7360 C   0  0  1  0  0  0  0  0  0  0  0  0
  193.4650  173.2280  143.2450 C   0  0  0  0  0  2  0  0  0  0  0  0
  190.0800  174.6080  145.4940 C   0  0  1  0  0  3  0  0  0  0  0  0
  191.4380  175.1730  145.9380 C   0  0  0  0  0  2  0  0  0  0  0  0
  192.3490  172.4150  143.7270 N   0  0  0  0  0  2  0  0  0  0  0  0
  191.6380  174.9220  143.4530 N   0  0  0  0  0  2  0  0  0  0  0  0
  195.1370  176.3680  141.9190 C   0  0  0  0  0  2  0  0  0  0  0  0
  195.2170  174.9930  144.3340 C   0  0  0  0  0  0  0  0  0  0  0  0
  196.4410  175.1150  143.6460 C   0  0  0  0  0  0  0  0  0  0  0  0
  196.5300  175.9830  142.4170 C   0  0  1  0  0  3  0  0  0  0  0  0
  197.5940  174.5280  144.1850 C   0  0  0  0  0  3  0  0  0  0  0  0
  193.9850  175.6650  143.7840 C   0  0  1  0  0  3  0  0  0  0  0  0
  195.1520  174.2570  145.5220 C   0  0  0  0  0  3  0  0  0  0  0  0
  194.3250  176.7920  142.9920 O   0  0  0  0  0  0  0  0  0  0  0  0
  197.2710  175.2790  141.2950 C   0  0  0  0  0  1  0  0  0  0  0  0
  197.5230  173.7930  145.3710 C   0  0  0  0  0  3  0  0  0  0  0  0
  196.3020  173.6540  146.0360 C   0  0  0  0  0  3  0  0  0  0  0  0
  187.4070  176.0380  143.0600 C   0  0  0  0  0  2  0  0  0  0  0  0
  188.6070  175.1860  143.4670 C   0  0  0  0  0  2  0  0  0  0  0  0
  189.2110  175.6190  144.7770 C   0  0  0  0  0  0  0  0  0  0  0  0
  188.0910  177.8730  144.6260 C   0  0  0  0  0  2  0  0  0  0  0  0
  189.0060  176.8640  145.2660 C   0  0  0  0  0  3  0  0  0  0  0  0
  187.7680  177.5260  143.1720 C   0  0  2  0  0  3  0  0  0  0  0  0
  183.3540  178.1430  141.7930 N   0  0  0  0  0  1  0  0  0  0  0  0
  186.0230  179.1090  143.7380 C   0  0  0  0  0  2  0  0  0  0  0  0
  184.4420  177.9170  142.7280 C   0  0  2  0  0  3  0  0  0  0  0  0
  184.6400  179.0610  143.5050 O   0  0  0  0  0  0  0  0  0  0  0  0
  186.7310  178.4310  142.6530 N   0  0  2  0  0  0  0  0  0  0  0  0
  185.7150  177.6590  141.9740 C   0  0  0  0  0  2  0  0  0  0  0  0
  1  4  1  1  0  0  0
  1  8  1  0  0  0  0
  1 14  1  0  0  0  0
  3  2  1  0  0  0  0
  3  5  1  0  0  0  0
  3  6  1  1  0  0  0
  4  7  1  0  0  0  0
  5 22  1  6  0  0  0
  5  6  1  0  0  0  0
  7  2  1  0  0  0  0
  8  3  1  0  0  0  0
  9 12  1  0  0  0  0
  9 16  1  0  0  0  0
 10 15  1  0  0  0  0
 11 13  1  0  0  0  0
 11 10  2  0  0  0  0
 12 17  1  6  0  0  0
 12 11  1  0  0  0  0
 13 18  2  0  0  0  0
 14 16  1  6  0  0  0
 14 10  1  0  0  0  0
 15 19  2  0  0  0  0
 18 19  1  0  0  0  0
 20 21  1  0  0  0  0
 21 22  1  0  0  0  0
 22 24  2  0  0  0  0
 23 24  1  0  0  0  0
 25 20  1  1  0  0  0
 25 23  1  0  0  0  0
 28 26  1  6  0  0  0
 28 29  1  0  0  0  0
 29 27  1  0  0  0  0
 30 31  1  1  0  0  0
 30 25  1  0  0  0  0
 30 27  1  0  0  0  0
 31 28  1  0  0  0  0
M  END
>  <MODEL>
5

>  <REMARK>
 VINA RESULT:      -7.5      2.981      8.601
  Name = 
  3 active torsions:
  status: ('A' for Active; 'I' for Inactive)
    1  A    between atoms: C_5  and  C_15
    2  A    between atoms: C_7  and  C_25
    3  A    between atoms: N_26  and  C_31
                            x       y       z     vdW  Elec       q    Type
                         _______ _______ _______ _____ _____    ______ ____

>  <TORSDO>
F 3

$$$$
=
 OpenBabel11062421263D

 31 36  0  0  1  0  0  0  0  0999 V2000
  188.6230  176.9110  144.0000 C   0  0  1  0  0  3  0  0  0  0  0  0
  190.6460  175.8790  145.6710 N   0  0  0  0  0  2  0  0  0  0  0  0
  190.2730  175.1980  144.4300 C   0  0  1  0  0  0  0  0  0  0  0  0
  189.1990  177.6390  145.2290 C   0  0  0  0  0  2  0  0  0  0  0  0
  191.0920  173.9780  144.0320 C   0  0  1  0  0  3  0  0  0  0  0  0
  189.6940  173.8230  144.6490 C   0  0  0  0  0  2  0  0  0  0  0  0
  190.5970  177.2680  145.4480 N   0  0  0  0  0  2  0  0  0  0  0  0
  189.5950  175.9890  143.3930 N   0  0  0  0  0  2  0  0  0  0  0  0
  186.0740  177.0330  142.5890 C   0  0  0  0  0  2  0  0  0  0  0  0
  186.4560  176.9210  145.3410 C   0  0  0  0  0  0  0  0  0  0  0  0
  185.3430  177.6610  144.8970 C   0  0  0  0  0  0  0  0  0  0  0  0
  184.9590  177.6420  143.4390 C   0  0  1  0  0  3  0  0  0  0  0  0
  184.5280  178.3080  145.8360 C   0  0  0  0  0  3  0  0  0  0  0  0
  187.3060  176.1830  144.3380 C   0  0  1  0  0  3  0  0  0  0  0  0
  186.7650  176.8690  146.7040 C   0  0  0  0  0  3  0  0  0  0  0  0
  186.5580  175.8470  143.1790 O   0  0  0  0  0  0  0  0  0  0  0  0
  184.6630  179.0390  142.9260 C   0  0  0  0  0  1  0  0  0  0  0  0
  184.8410  178.2540  147.1960 C   0  0  0  0  0  3  0  0  0  0  0  0
  185.9610  177.5400  147.6300 C   0  0  0  0  0  3  0  0  0  0  0  0
  189.8400  173.0830  140.4620 C   0  0  0  0  0  2  0  0  0  0  0  0
  190.0150  172.8890  141.9660 C   0  0  0  0  0  2  0  0  0  0  0  0
  191.1220  173.7370  142.5370 C   0  0  0  0  0  0  0  0  0  0  0  0
  192.1330  174.0770  140.2530 C   0  0  0  0  0  2  0  0  0  0  0  0
  192.1060  174.2290  141.7510 C   0  0  0  0  0  3  0  0  0  0  0  0
  191.2030  172.9660  139.7640 C   0  0  2  0  0  3  0  0  0  0  0  0
  189.9710  170.7960  135.8220 N   0  0  0  0  0  1  0  0  0  0  0  0
  189.8720  173.5850  137.8350 C   0  0  0  0  0  2  0  0  0  0  0  0
  189.7740  171.4970  137.0780 C   0  0  2  0  0  3  0  0  0  0  0  0
  189.3060  172.7890  136.8280 O   0  0  0  0  0  0  0  0  0  0  0  0
  191.1230  172.9830  138.2950 N   0  0  2  0  0  0  0  0  0  0  0  0
  191.0840  171.6250  137.8000 C   0  0  0  0  0  2  0  0  0  0  0  0
  1 14  1  0  0  0  0
  1  4  1  1  0  0  0
  3  6  1  1  0  0  0
  3  2  1  0  0  0  0
  4  7  1  0  0  0  0
  5 22  1  6  0  0  0
  5  3  1  0  0  0  0
  5  6  1  0  0  0  0
  7  2  1  0  0  0  0
  8  1  1  0  0  0  0
  8  3  1  0  0  0  0
  9 16  1  0  0  0  0
  9 12  1  0  0  0  0
 10 15  1  0  0  0  0
 11 10  2  0  0  0  0
 11 13  1  0  0  0  0
 12 17  1  6  0  0  0
 12 11  1  0  0  0  0
 13 18  2  0  0  0  0
 14 16  1  6  0  0  0
 14 10  1  0  0  0  0
 15 19  2  0  0  0  0
 18 19  1  0  0  0  0
 20 21  1  0  0  0  0
 21 22  1  0  0  0  0
 23 24  1  0  0  0  0
 24 22  2  0  0  0  0
 25 23  1  1  0  0  0
 25 20  1  0  0  0  0
 27 30  1  0  0  0  0
 28 26  1  6  0  0  0
 28 31  1  0  0  0  0
 29 28  1  0  0  0  0
 29 27  1  0  0  0  0
 30 31  1  1  0  0  0
 30 25  1  0  0  0  0
M  END
>  <MODEL>
6

>  <REMARK>
 VINA RESULT:      -7.5      3.304      4.060
  Name = 
  3 active torsions:
  status: ('A' for Active; 'I' for Inactive)
    1  A    between atoms: C_5  and  C_15
    2  A    between atoms: C_7  and  C_25
    3  A    between atoms: N_26  and  C_31
                            x       y       z     vdW  Elec       q    Type
                         _______ _______ _______ _____ _____    ______ ____

>  <TORSDO>
F 3

$$$$
=
 OpenBabel11062421263D

 31 36  0  0  1  0  0  0  0  0999 V2000
  193.2270  174.5540  145.4730 C   0  0  1  0  0  3  0  0  0  0  0  0
  194.1090  177.2110  145.1380 N   0  0  0  0  0  2  0  0  0  0  0  0
  192.8000  176.7830  144.6430 C   0  0  1  0  0  0  0  0  0  0  0  0
  194.5050  175.1380  146.1040 C   0  0  0  0  0  2  0  0  0  0  0  0
  191.9000  177.8530  144.0400 C   0  0  1  0  0  3  0  0  0  0  0  0
  192.6670  176.8690  143.1430 C   0  0  0  0  0  2  0  0  0  0  0  0
  194.3510  176.5690  146.3670 N   0  0  0  0  0  2  0  0  0  0  0  0
  192.2010  175.5820  145.2420 N   0  0  0  0  0  2  0  0  0  0  0  0
  193.6260  171.6860  145.1280 C   0  0  0  0  0  2  0  0  0  0  0  0
  195.0080  173.7310  143.8480 C   0  0  0  0  0  0  0  0  0  0  0  0
  195.7420  172.5600  144.1230 C   0  0  0  0  0  0  0  0  0  0  0  0
  195.0400  171.3400  144.6620 C   0  0  1  0  0  3  0  0  0  0  0  0
  197.0990  172.5000  143.7740 C   0  0  0  0  0  3  0  0  0  0  0  0
  193.5370  173.7800  144.1760 C   0  0  1  0  0  3  0  0  0  0  0  0
  195.6420  174.8360  143.2700 C   0  0  0  0  0  3  0  0  0  0  0  0
  192.9660  172.4810  144.1680 O   0  0  0  0  0  0  0  0  0  0  0  0
  195.8020  170.7300  145.8240 C   0  0  0  0  0  1  0  0  0  0  0  0
  197.7270  173.6070  143.1970 C   0  0  0  0  0  3  0  0  0  0  0  0
  197.0010  174.7750  142.9500 C   0  0  0  0  0  3  0  0  0  0  0  0
  188.3510  177.5690  145.6020 C   0  0  0  0  0  2  0  0  0  0  0  0
  189.8690  177.4160  145.5570 C   0  0  0  0  0  2  0  0  0  0  0  0
  190.4250  177.5340  144.1610 C   0  0  0  0  0  0  0  0  0  0  0  0
  188.1600  177.0870  143.1490 C   0  0  0  0  0  2  0  0  0  0  0  0
  189.6430  177.3320  143.0760 C   0  0  0  0  0  3  0  0  0  0  0  0
  187.7080  176.6590  144.5460 C   0  0  2  0  0  3  0  0  0  0  0  0
  183.7170  178.7500  145.7560 N   0  0  0  0  0  1  0  0  0  0  0  0
  185.6330  177.1440  143.3920 C   0  0  0  0  0  2  0  0  0  0  0  0
  184.9250  178.5250  144.9840 C   0  0  2  0  0  3  0  0  0  0  0  0
  184.5930  178.0250  143.7230 O   0  0  0  0  0  0  0  0  0  0  0  0
  186.2390  176.6150  144.6130 N   0  0  2  0  0  0  0  0  0  0  0  0
  185.7790  177.4930  145.6650 C   0  0  0  0  0  2  0  0  0  0  0  0
  1  4  1  6  0  0  0
  2  7  1  0  0  0  0
  3  6  1  6  0  0  0
  3  2  1  0  0  0  0
  3  8  1  0  0  0  0
  4  7  1  0  0  0  0
  5 22  1  1  0  0  0
  5  3  1  0  0  0  0
  6  5  1  0  0  0  0
  8  1  1  0  0  0  0
 10 11  1  0  0  0  0
 11 12  1  0  0  0  0
 12  9  1  0  0  0  0
 12 17  1  1  0  0  0
 13 11  2  0  0  0  0
 14 10  1  1  0  0  0
 14  1  1  0  0  0  0
 15 10  2  0  0  0  0
 16 14  1  0  0  0  0
 16  9  1  0  0  0  0
 18 13  1  0  0  0  0
 19 18  2  0  0  0  0
 19 15  1  0  0  0  0
 21 20  1  0  0  0  0
 22 21  1  0  0  0  0
 24 23  1  0  0  0  0
 24 22  2  0  0  0  0
 25 23  1  6  0  0  0
 25 30  1  0  0  0  0
 25 20  1  0  0  0  0
 27 29  1  0  0  0  0
 28 31  1  0  0  0  0
 28 26  1  1  0  0  0
 29 28  1  0  0  0  0
 30 27  1  6  0  0  0
 30 31  1  0  0  0  0
M  END
>  <MODEL>
7

>  <REMARK>
 VINA RESULT:      -7.4      3.117      8.830
  Name = 
  3 active torsions:
  status: ('A' for Active; 'I' for Inactive)
    1  A    between atoms: C_5  and  C_15
    2  A    between atoms: C_7  and  C_25
    3  A    between atoms: N_26  and  C_31
                            x       y       z     vdW  Elec       q    Type
                         _______ _______ _______ _____ _____    ______ ____

>  <TORSDO>
F 3

$$$$
=
 OpenBabel11062421263D

 31 36  0  0  1  0  0  0  0  0999 V2000
  188.6810  177.0140  143.3300 C   0  0  1  0  0  3  0  0  0  0  0  0
  190.6370  176.0420  145.1130 N   0  0  0  0  0  2  0  0  0  0  0  0
  190.1670  175.2270  143.9920 C   0  0  1  0  0  0  0  0  0  0  0  0
  189.3580  177.8540  144.4290 C   0  0  0  0  0  2  0  0  0  0  0  0
  190.8530  173.8850  143.7710 C   0  0  1  0  0  3  0  0  0  0  0  0
  189.4620  173.9640  144.4210 C   0  0  0  0  0  2  0  0  0  0  0  0
  190.7180  177.3810  144.6860 N   0  0  0  0  0  2  0  0  0  0  0  0
  189.5430  175.9190  142.8560 N   0  0  0  0  0  2  0  0  0  0  0  0
  186.0330  178.0680  142.7170 C   0  0  0  0  0  2  0  0  0  0  0  0
  186.8860  177.0000  145.1370 C   0  0  0  0  0  0  0  0  0  0  0  0
  185.9400  178.0410  145.2150 C   0  0  0  0  0  0  0  0  0  0  0  0
  185.2960  178.5690  143.9590 C   0  0  1  0  0  3  0  0  0  0  0  0
  185.5140  178.4910  146.4730 C   0  0  0  0  0  3  0  0  0  0  0  0
  187.3090  176.4800  143.7870 C   0  0  1  0  0  3  0  0  0  0  0  0
  187.4230  176.4520  146.3070 C   0  0  0  0  0  3  0  0  0  0  0  0
  186.2950  176.6860  142.8170 O   0  0  0  0  0  0  0  0  0  0  0  0
  185.2810  180.0860  143.9390 C   0  0  0  0  0  1  0  0  0  0  0  0
  186.0540  177.9410  147.6380 C   0  0  0  0  0  3  0  0  0  0  0  0
  187.0110  176.9260  147.5550 C   0  0  0  0  0  3  0  0  0  0  0  0
  192.0450  173.2250  140.1300 C   0  0  0  0  0  2  0  0  0  0  0  0
  191.8220  174.0510  141.3950 C   0  0  0  0  0  2  0  0  0  0  0  0
  190.8190  173.4250  142.3300 C   0  0  0  0  0  0  0  0  0  0  0  0
  189.8980  171.9790  140.4810 C   0  0  0  0  0  2  0  0  0  0  0  0
  189.9180  172.5190  141.8860 C   0  0  0  0  0  3  0  0  0  0  0  0
  190.6910  172.8540  139.5100 C   0  0  2  0  0  3  0  0  0  0  0  0
  192.4300  169.3630  136.9500 N   0  0  0  0  0  1  0  0  0  0  0  0
  189.7290  171.2110  138.0110 C   0  0  0  0  0  2  0  0  0  0  0  0
  191.5880  169.9940  137.9500 C   0  0  2  0  0  3  0  0  0  0  0  0
  190.2650  170.0170  137.5050 O   0  0  0  0  0  0  0  0  0  0  0  0
  190.7970  172.1900  138.2010 N   0  0  2  0  0  0  0  0  0  0  0  0
  192.0190  171.4190  138.1510 C   0  0  0  0  0  2  0  0  0  0  0  0
  1 14  1  0  0  0  0
  1  4  1  1  0  0  0
  3  6  1  1  0  0  0
  3  2  1  0  0  0  0
  4  7  1  0  0  0  0
  5 22  1  6  0  0  0
  5  3  1  0  0  0  0
  5  6  1  0  0  0  0
  7  2  1  0  0  0  0
  8  1  1  0  0  0  0
  8  3  1  0  0  0  0
  9 16  1  0  0  0  0
  9 12  1  0  0  0  0
 10 11  2  0  0  0  0
 10 15  1  0  0  0  0
 11 13  1  0  0  0  0
 12 17  1  1  0  0  0
 12 11  1  0  0  0  0
 13 18  2  0  0  0  0
 14 16  1  6  0  0  0
 14 10  1  0  0  0  0
 15 19  2  0  0  0  0
 19 18  1  0  0  0  0
 20 21  1  0  0  0  0
 21 22  1  0  0  0  0
 23 24  1  0  0  0  0
 24 22  2  0  0  0  0
 25 20  1  1  0  0  0
 25 23  1  0  0  0  0
 28 26  1  6  0  0  0
 28 31  1  0  0  0  0
 29 28  1  0  0  0  0
 29 27  1  0  0  0  0
 30 27  1  1  0  0  0
 30 25  1  0  0  0  0
 31 30  1  0  0  0  0
M  END
>  <MODEL>
8

>  <REMARK>
 VINA RESULT:      -7.4      3.468      4.135
  Name = 
  3 active torsions:
  status: ('A' for Active; 'I' for Inactive)
    1  A    between atoms: C_5  and  C_15
    2  A    between atoms: C_7  and  C_25
    3  A    between atoms: N_26  and  C_31
                            x       y       z     vdW  Elec       q    Type
                         _______ _______ _______ _____ _____    ______ ____

>  <TORSDO>
F 3

$$$$
=
 OpenBabel11062421263D

 31 36  0  0  1  0  0  0  0  0999 V2000
  188.9410  174.9400  143.9000 C   0  0  1  0  0  3  0  0  0  0  0  0
  189.5780  174.6540  141.1690 N   0  0  0  0  0  2  0  0  0  0  0  0
  190.6150  174.5630  142.1990 C   0  0  1  0  0  0  0  0  0  0  0  0
  187.9050  174.8510  142.7650 C   0  0  0  0  0  2  0  0  0  0  0  0
  192.0220  174.2040  141.7410 C   0  0  1  0  0  3  0  0  0  0  0  0
  191.6540  175.6510  142.1030 C   0  0  0  0  0  2  0  0  0  0  0  0
  188.4110  174.0380  141.6580 N   0  0  0  0  0  2  0  0  0  0  0  0
  190.1920  174.2410  143.5680 N   0  0  0  0  0  2  0  0  0  0  0  0
  188.5730  176.1970  146.5060 C   0  0  0  0  0  2  0  0  0  0  0  0
  188.0600  177.3280  144.0180 C   0  0  0  0  0  0  0  0  0  0  0  0
  187.2120  177.7270  145.0710 C   0  0  0  0  0  0  0  0  0  0  0  0
  187.5130  177.2980  146.4840 C   0  0  1  0  0  3  0  0  0  0  0  0
  186.1660  178.6240  144.8100 C   0  0  0  0  0  3  0  0  0  0  0  0
  189.2150  176.4030  144.3050 C   0  0  1  0  0  3  0  0  0  0  0  0
  187.8300  177.7930  142.7190 C   0  0  0  0  0  3  0  0  0  0  0  0
  189.6470  176.5220  145.6510 O   0  0  0  0  0  0  0  0  0  0  0  0
  186.2670  176.7910  147.1860 C   0  0  0  0  0  1  0  0  0  0  0  0
  185.9410  179.0840  143.5100 C   0  0  0  0  0  3  0  0  0  0  0  0
  186.7690  178.6660  142.4650 C   0  0  0  0  0  3  0  0  0  0  0  0
  194.3240  173.7270  144.8370 C   0  0  0  0  0  2  0  0  0  0  0  0
  193.8920  174.3280  143.5010 C   0  0  0  0  0  2  0  0  0  0  0  0
  192.8390  173.5040  142.8060 C   0  0  0  0  0  0  0  0  0  0  0  0
  193.3980  171.4840  144.2060 C   0  0  0  0  0  2  0  0  0  0  0  0
  192.6600  172.1970  143.1040 C   0  0  0  0  0  3  0  0  0  0  0  0
  194.6510  172.2380  144.6510 C   0  0  2  0  0  3  0  0  0  0  0  0
  195.9940  168.3340  146.8240 N   0  0  0  0  0  1  0  0  0  0  0  0
  196.6850  171.5340  145.7640 C   0  0  0  0  0  2  0  0  0  0  0  0
  196.0520  169.4040  145.8450 C   0  0  2  0  0  3  0  0  0  0  0  0
  197.1210  170.2530  146.1380 O   0  0  0  0  0  0  0  0  0  0  0  0
  195.2270  171.6020  145.8460 N   0  0  2  0  0  0  0  0  0  0  0  0
  194.7950  170.2240  145.9130 C   0  0  0  0  0  2  0  0  0  0  0  0
  1  4  1  6  0  0  0
  1 14  1  0  0  0  0
  2  7  1  0  0  0  0
  2  3  1  0  0  0  0
  3  6  1  1  0  0  0
  3  8  1  0  0  0  0
  5  6  1  0  0  0  0
  5  3  1  0  0  0  0
  5 22  1  1  0  0  0
  7  4  1  0  0  0  0
  8  1  1  0  0  0  0
 10 11  1  0  0  0  0
 11 12  1  0  0  0  0
 12  9  1  0  0  0  0
 12 17  1  6  0  0  0
 13 11  2  0  0  0  0
 14 10  1  1  0  0  0
 14 16  1  0  0  0  0
 15 10  2  0  0  0  0
 16  9  1  0  0  0  0
 18 13  1  0  0  0  0
 19 15  1  0  0  0  0
 19 18  2  0  0  0  0
 21 20  1  0  0  0  0
 22 24  2  0  0  0  0
 22 21  1  0  0  0  0
 24 23  1  0  0  0  0
 25 23  1  1  0  0  0
 25 20  1  0  0  0  0
 25 30  1  0  0  0  0
 27 29  1  0  0  0  0
 28 31  1  0  0  0  0
 28 29  1  0  0  0  0
 28 26  1  1  0  0  0
 30 27  1  6  0  0  0
 30 31  1  0  0  0  0
M  END
>  <MODEL>
9

>  <REMARK>
 VINA RESULT:      -7.2      3.618      5.037
  Name = 
  3 active torsions:
  status: ('A' for Active; 'I' for Inactive)
    1  A    between atoms: C_5  and  C_15
    2  A    between atoms: C_7  and  C_25
    3  A    between atoms: N_26  and  C_31
                            x       y       z     vdW  Elec       q    Type
                         _______ _______ _______ _____ _____    ______ ____

>  <TORSDO>
F 3

$$$$
