=
 OpenBabel11062422013D

 35 37  0  0  1  0  0  0  0  0999 V2000
  188.2720  176.6040  144.3260 C   0  0  1  0  0  0  0  0  0  0  0  0
  188.2550  176.1430  145.7820 C   0  0  0  0  0  1  0  0  0  0  0  0
  189.3720  171.8720  143.6700 C   0  0  0  0  0  1  0  0  0  0  0  0
  189.8430  173.5670  141.8660 C   0  0  0  0  0  2  0  0  0  0  0  0
  189.4410  174.3020  144.2740 C   0  0  0  0  0  2  0  0  0  0  0  0
  187.8370  174.9240  142.5850 O   0  0  0  0  0  0  0  0  0  0  0  0
  188.4530  174.1670  141.5430 C   0  0  0  0  0  2  0  0  0  0  0  0
  188.8140  175.4400  143.4620 C   0  0  1  0  0  3  0  0  0  0  0  0
  189.9970  173.2200  143.3500 C   0  0  1  0  0  3  0  0  0  0  0  0
  186.8180  176.9870  143.9440 C   0  0  1  0  0  3  0  0  0  0  0  0
  185.8890  176.4570  144.8540 O   0  0  0  0  0  1  0  0  0  0  0  0
  186.5650  178.4850  143.6580 C   0  0  1  0  0  3  0  0  0  0  0  0
  184.8700  177.7980  141.9530 C   0  0  1  0  0  3  0  0  0  0  0  0
  186.1030  178.6460  142.2100 C   0  0  2  0  0  3  0  0  0  0  0  0
  184.1080  178.3770  140.9330 O   0  0  0  0  0  1  0  0  0  0  0  0
  186.2420  177.3300  141.4690 C   0  0  2  0  0  3  0  0  0  0  0  0
  186.5040  177.6080  139.9970 C   0  0  0  0  0  1  0  0  0  0  0  0
  185.5720  179.1720  144.6230 C   0  0  0  0  0  0  0  0  0  0  0  0
  185.3410  180.4860  144.2080 O   0  0  0  0  0  1  0  0  0  0  0  0
  186.0840  179.2020  145.9040 F   0  0  0  0  0  0  0  0  0  0  0  0
  184.3650  178.4890  144.6410 F   0  0  0  0  0  0  0  0  0  0  0  0
  189.1900  177.8380  144.2250 C   0  0  0  0  0  2  0  0  0  0  0  0
  190.3350  177.7160  143.2140 C   0  0  0  0  0  2  0  0  0  0  0  0
  191.6880  177.9390  143.8720 C   0  0  0  0  0  2  0  0  0  0  0  0
  192.7640  175.0670  146.0370 N   0  0  0  0  0  0  0  0  0  0  0  0
  192.2580  176.6330  144.3060 C   0  0  0  0  0  0  0  0  0  0  0  0
  193.8260  172.9530  145.6120 N   0  0  0  0  0  1  0  0  0  0  0  0
  193.3300  174.2070  145.1450 C   0  0  0  0  0  0  0  0  0  0  0  0
  193.3760  174.5420  143.7750 C   0  0  0  0  0  0  0  0  0  0  0  0
  192.8260  175.7650  143.3720 C   0  0  0  0  0  3  0  0  0  0  0  0
  192.2370  176.2620  145.6500 C   0  0  0  0  0  3  0  0  0  0  0  0
  193.2930  172.8340  142.1350 O   0  0  0  0  0  0  0  0  0  0  0  0
  194.0020  173.6580  142.7680 C   0  0  0  0  0  0  0  0  0  0  0  0
  196.2160  174.6280  143.0580 O   0  0  0  0  0  1  0  0  0  0  0  0
  195.4060  173.6970  142.5050 N   0  0  0  0  0  2  0  0  0  0  0  0
  1  2  1  1  0  0  0
  4  9  1  0  0  0  0
  6  8  1  0  0  0  0
  7  4  1  0  0  0  0
  7  6  1  0  0  0  0
  8  5  1  0  0  0  0
  8  1  1  1  0  0  0
  9  3  1  6  0  0  0
  9  5  1  0  0  0  0
 10  1  1  0  0  0  0
 10 11  1  1  0  0  0
 12 10  1  0  0  0  0
 12 18  1  1  0  0  0
 13 15  1  6  0  0  0
 13 14  1  0  0  0  0
 14 12  1  1  0  0  0
 16 17  1  6  0  0  0
 16 13  1  0  0  0  0
 16 14  1  0  0  0  0
 18 21  1  0  0  0  0
 18 20  1  0  0  0  0
 19 18  1  0  0  0  0
 22  1  1  0  0  0  0
 23 24  1  0  0  0  0
 23 22  1  0  0  0  0
 24 26  1  0  0  0  0
 26 31  2  0  0  0  0
 28 27  1  0  0  0  0
 28 25  2  0  0  0  0
 29 28  1  0  0  0  0
 30 29  2  0  0  0  0
 30 26  1  0  0  0  0
 31 25  1  0  0  0  0
 32 33  2  0  0  0  0
 33 29  1  0  0  0  0
 35 33  1  0  0  0  0
 35 34  1  0  0  0  0
M  END
>  <MODEL>
1

>  <REMARK>
 VINA RESULT:      -7.0      0.000      0.000
  Name = 
  10 active torsions:
  status: ('A' for Active; 'I' for Inactive)
    1  A    between atoms: C_2  and  C_27
    2  A    between atoms: C_3  and  C_8
    3  A    between atoms: C_3  and  C_27
    4  A    between atoms: C_4  and  C_20
    5  A    between atoms: C_4  and  C_32
    6  A    between atoms: C_8  and  C_20
    7  A    between atoms: C_8  and  C_23
    8  A    between atoms: C_10  and  C_27
    9  A    between atoms: C_15  and  C_32
   10  A    between atoms: C_18  and  C_24
                            x       y       z     vdW  Elec       q    Type
                         _______ _______ _______ _____ _____    ______ ____

>  <TORSDO>
F 10

$$$$
=
 OpenBabel11062422013D

 35 37  0  0  1  0  0  0  0  0999 V2000
  189.1750  176.5600  145.3420 C   0  0  1  0  0  0  0  0  0  0  0  0
  190.0240  177.7670  144.9500 C   0  0  0  0  0  1  0  0  0  0  0  0
  184.9010  178.2600  147.0360 C   0  0  0  0  0  1  0  0  0  0  0  0
  185.1210  177.4700  144.6530 C   0  0  0  0  0  2  0  0  0  0  0  0
  186.8390  176.7990  146.4140 C   0  0  0  0  0  2  0  0  0  0  0  0
  187.5300  178.2280  144.5990 O   0  0  0  0  0  0  0  0  0  0  0  0
  186.2190  178.3820  144.0560 C   0  0  0  0  0  2  0  0  0  0  0  0
  187.6870  176.9380  145.1470 C   0  0  1  0  0  3  0  0  0  0  0  0
  185.3770  177.1390  146.1270 C   0  0  1  0  0  3  0  0  0  0  0  0
  189.6030  175.3780  144.4340 C   0  0  1  0  0  3  0  0  0  0  0  0
  189.0490  174.1640  144.8710 O   0  0  0  0  0  1  0  0  0  0  0  0
  189.4190  175.5900  142.9140 C   0  0  1  0  0  3  0  0  0  0  0  0
  191.4310  174.1060  142.9660 C   0  0  1  0  0  3  0  0  0  0  0  0
  190.7090  175.1960  142.1950 C   0  0  2  0  0  3  0  0  0  0  0  0
  192.1920  173.3340  142.0820 O   0  0  0  0  0  1  0  0  0  0  0  0
  191.9120  175.5530  143.0470 C   0  0  2  0  0  3  0  0  0  0  0  0
  193.0940  175.8620  142.1420 C   0  0  0  0  0  1  0  0  0  0  0  0
  188.2080  174.8520  142.2980 C   0  0  0  0  0  0  0  0  0  0  0  0
  188.1630  175.0850  140.9210 O   0  0  0  0  0  1  0  0  0  0  0  0
  187.0310  175.3050  142.8560 F   0  0  0  0  0  0  0  0  0  0  0  0
  188.3110  173.4870  142.5180 F   0  0  0  0  0  0  0  0  0  0  0  0
  189.4690  176.2280  146.8190 C   0  0  0  0  0  2  0  0  0  0  0  0
  190.8940  176.5410  147.2860 C   0  0  0  0  0  2  0  0  0  0  0  0
  191.7250  175.2750  147.4320 C   0  0  0  0  0  2  0  0  0  0  0  0
  194.6040  176.6970  145.4900 N   0  0  0  0  0  0  0  0  0  0  0  0
  192.9450  175.3740  146.5840 C   0  0  0  0  0  0  0  0  0  0  0  0
  196.4010  175.7390  144.2120 N   0  0  0  0  0  1  0  0  0  0  0  0
  195.2130  175.5860  144.9880 C   0  0  0  0  0  0  0  0  0  0  0  0
  194.6940  174.3060  145.2780 C   0  0  0  0  0  0  0  0  0  0  0  0
  193.5550  174.2200  146.0870 C   0  0  0  0  0  3  0  0  0  0  0  0
  193.4910  176.6180  146.2690 C   0  0  0  0  0  3  0  0  0  0  0  0
  194.8350  172.5550  143.6880 O   0  0  0  0  0  0  0  0  0  0  0  0
  195.2990  173.0690  144.7380 C   0  0  0  0  0  0  0  0  0  0  0  0
  197.0200  172.9700  146.4570 O   0  0  0  0  0  1  0  0  0  0  0  0
  196.3920  172.4220  145.3920 N   0  0  0  0  0  2  0  0  0  0  0  0
  1  2  1  6  0  0  0
  1 22  1  0  0  0  0
  4  9  1  0  0  0  0
  6  8  1  0  0  0  0
  7  6  1  0  0  0  0
  7  4  1  0  0  0  0
  8  1  1  1  0  0  0
  8  5  1  0  0  0  0
  9  5  1  0  0  0  0
  9  3  1  1  0  0  0
 10 11  1  1  0  0  0
 10  1  1  0  0  0  0
 12 18  1  6  0  0  0
 12 10  1  0  0  0  0
 13 15  1  6  0  0  0
 13 16  1  0  0  0  0
 14 12  1  1  0  0  0
 14 13  1  0  0  0  0
 14 16  1  0  0  0  0
 16 17  1  6  0  0  0
 18 21  1  0  0  0  0
 18 20  1  0  0  0  0
 19 18  1  0  0  0  0
 22 23  1  0  0  0  0
 23 24  1  0  0  0  0
 25 31  1  0  0  0  0
 26 24  1  0  0  0  0
 27 28  1  0  0  0  0
 28 29  1  0  0  0  0
 28 25  2  0  0  0  0
 29 30  2  0  0  0  0
 30 26  1  0  0  0  0
 31 26  2  0  0  0  0
 32 33  2  0  0  0  0
 33 29  1  0  0  0  0
 33 35  1  0  0  0  0
 35 34  1  0  0  0  0
M  END
>  <MODEL>
2

>  <REMARK>
 VINA RESULT:      -7.0      2.409      4.894
  Name = 
  10 active torsions:
  status: ('A' for Active; 'I' for Inactive)
    1  A    between atoms: C_2  and  C_27
    2  A    between atoms: C_3  and  C_8
    3  A    between atoms: C_3  and  C_27
    4  A    between atoms: C_4  and  C_20
    5  A    between atoms: C_4  and  C_32
    6  A    between atoms: C_8  and  C_20
    7  A    between atoms: C_8  and  C_23
    8  A    between atoms: C_10  and  C_27
    9  A    between atoms: C_15  and  C_32
   10  A    between atoms: C_18  and  C_24
                            x       y       z     vdW  Elec       q    Type
                         _______ _______ _______ _____ _____    ______ ____

>  <TORSDO>
F 10

$$$$
=
 OpenBabel11062422013D

 35 37  0  0  1  0  0  0  0  0999 V2000
  188.6490  176.5300  145.1440 C   0  0  1  0  0  0  0  0  0  0  0  0
  188.7790  176.2990  146.6470 C   0  0  0  0  0  1  0  0  0  0  0  0
  189.6640  171.7450  144.8280 C   0  0  0  0  0  1  0  0  0  0  0  0
  190.4780  173.3540  143.0680 C   0  0  0  0  0  2  0  0  0  0  0  0
  189.7260  174.1930  145.3560 C   0  0  0  0  0  2  0  0  0  0  0  0
  188.4360  174.8000  143.4110 O   0  0  0  0  0  0  0  0  0  0  0  0
  189.1810  173.9840  142.5070 C   0  0  0  0  0  2  0  0  0  0  0  0
  189.2790  175.3170  144.4160 C   0  0  1  0  0  3  0  0  0  0  0  0
  190.3820  173.0590  144.5680 C   0  0  1  0  0  3  0  0  0  0  0  0
  187.1380  176.6820  144.8270 C   0  0  1  0  0  3  0  0  0  0  0  0
  186.3570  176.6040  145.9910 O   0  0  0  0  0  1  0  0  0  0  0  0
  186.7490  177.8890  143.9420 C   0  0  1  0  0  3  0  0  0  0  0  0
  187.3620  177.4390  141.5610 C   0  0  1  0  0  3  0  0  0  0  0  0
  186.2500  177.3770  142.5920 C   0  0  2  0  0  3  0  0  0  0  0  0
  187.1530  176.4560  140.5880 O   0  0  0  0  0  1  0  0  0  0  0  0
  186.2630  178.5000  141.5710 C   0  0  2  0  0  3  0  0  0  0  0  0
  185.1650  178.2600  140.5470 C   0  0  0  0  0  1  0  0  0  0  0  0
  185.7160  178.8500  144.5740 C   0  0  0  0  0  0  0  0  0  0  0  0
  184.4400  178.2880  144.4990 O   0  0  0  0  0  1  0  0  0  0  0  0
  185.7030  180.0550  143.9030 F   0  0  0  0  0  0  0  0  0  0  0  0
  186.0250  179.0830  145.9050 F   0  0  0  0  0  0  0  0  0  0  0  0
  189.3990  177.8310  144.7930 C   0  0  0  0  0  2  0  0  0  0  0  0
  190.4690  177.6930  143.7050 C   0  0  0  0  0  2  0  0  0  0  0  0
  191.8700  177.6960  144.2960 C   0  0  0  0  0  2  0  0  0  0  0  0
  193.4530  175.1870  141.9970 N   0  0  0  0  0  0  0  0  0  0  0  0
  192.6260  176.5110  143.8040 C   0  0  0  0  0  0  0  0  0  0  0  0
  194.7610  173.1980  142.3310 N   0  0  0  0  0  1  0  0  0  0  0  0
  194.0170  174.2950  142.8590 C   0  0  0  0  0  0  0  0  0  0  0  0
  193.9000  174.4910  144.2510 C   0  0  0  0  0  0  0  0  0  0  0  0
  193.2010  175.6140  144.7070 C   0  0  0  0  0  3  0  0  0  0  0  0
  192.7640  176.2760  142.4360 C   0  0  0  0  0  3  0  0  0  0  0  0
  193.7580  172.6040  145.6770 O   0  0  0  0  0  0  0  0  0  0  0  0
  194.4700  173.5400  145.2310 C   0  0  0  0  0  0  0  0  0  0  0  0
  196.6730  174.5740  145.1950 O   0  0  0  0  0  1  0  0  0  0  0  0
  195.8110  173.6680  145.7080 N   0  0  0  0  0  2  0  0  0  0  0  0
  1  2  1  1  0  0  0
  4  9  1  0  0  0  0
  6  8  1  0  0  0  0
  7  4  1  0  0  0  0
  7  6  1  0  0  0  0
  8  1  1  1  0  0  0
  8  5  1  0  0  0  0
  9  3  1  6  0  0  0
  9  5  1  0  0  0  0
 10  1  1  0  0  0  0
 10 11  1  1  0  0  0
 12 18  1  1  0  0  0
 12 10  1  0  0  0  0
 13 15  1  6  0  0  0
 13 16  1  0  0  0  0
 13 14  1  0  0  0  0
 14 12  1  1  0  0  0
 16 17  1  6  0  0  0
 16 14  1  0  0  0  0
 18 21  1  0  0  0  0
 19 18  1  0  0  0  0
 20 18  1  0  0  0  0
 22  1  1  0  0  0  0
 23 24  1  0  0  0  0
 23 22  1  0  0  0  0
 25 31  2  0  0  0  0
 25 28  1  0  0  0  0
 26 24  1  0  0  0  0
 26 30  2  0  0  0  0
 27 28  1  0  0  0  0
 28 29  2  0  0  0  0
 29 30  1  0  0  0  0
 29 33  1  0  0  0  0
 31 26  1  0  0  0  0
 33 32  2  0  0  0  0
 33 35  1  0  0  0  0
 34 35  1  0  0  0  0
M  END
>  <MODEL>
3

>  <REMARK>
 VINA RESULT:      -7.0      1.534      1.988
  Name = 
  10 active torsions:
  status: ('A' for Active; 'I' for Inactive)
    1  A    between atoms: C_2  and  C_27
    2  A    between atoms: C_3  and  C_8
    3  A    between atoms: C_3  and  C_27
    4  A    between atoms: C_4  and  C_20
    5  A    between atoms: C_4  and  C_32
    6  A    between atoms: C_8  and  C_20
    7  A    between atoms: C_8  and  C_23
    8  A    between atoms: C_10  and  C_27
    9  A    between atoms: C_15  and  C_32
   10  A    between atoms: C_18  and  C_24
                            x       y       z     vdW  Elec       q    Type
                         _______ _______ _______ _____ _____    ______ ____

>  <TORSDO>
F 10

$$$$
=
 OpenBabel11062422013D

 35 37  0  0  1  0  0  0  0  0999 V2000
  188.6850  176.2890  146.2520 C   0  0  1  0  0  0  0  0  0  0  0  0
  188.9750  174.8010  146.4370 C   0  0  0  0  0  1  0  0  0  0  0  0
  191.9680  177.4780  142.8120 C   0  0  0  0  0  1  0  0  0  0  0  0
  189.5080  177.3870  142.2710 C   0  0  0  0  0  2  0  0  0  0  0  0
  190.3080  177.5460  144.6870 C   0  0  0  0  0  2  0  0  0  0  0  0
  189.1790  175.5420  143.9640 O   0  0  0  0  0  0  0  0  0  0  0  0
  189.1070  175.9280  142.5910 C   0  0  0  0  0  2  0  0  0  0  0  0
  189.0550  176.6710  144.7990 C   0  0  1  0  0  3  0  0  0  0  0  0
  190.5760  177.9230  143.2300 C   0  0  1  0  0  3  0  0  0  0  0  0
  187.1780  176.5080  146.5490 C   0  0  1  0  0  3  0  0  0  0  0  0
  186.8560  176.1560  147.8690 O   0  0  0  0  0  1  0  0  0  0  0  0
  186.6030  177.8880  146.1550 C   0  0  1  0  0  3  0  0  0  0  0  0
  186.1120  177.8950  143.7040 C   0  0  1  0  0  3  0  0  0  0  0  0
  185.5250  177.6950  145.0900 C   0  0  2  0  0  3  0  0  0  0  0  0
  185.3830  177.1460  142.7740 O   0  0  0  0  0  1  0  0  0  0  0  0
  185.2790  178.9980  144.3540 C   0  0  2  0  0  3  0  0  0  0  0  0
  183.8350  179.0410  143.8790 C   0  0  0  0  0  1  0  0  0  0  0  0
  186.0560  178.7230  147.3350 C   0  0  0  0  0  0  0  0  0  0  0  0
  184.7700  178.2880  147.6660 O   0  0  0  0  0  1  0  0  0  0  0  0
  185.9910  180.0580  146.9940 F   0  0  0  0  0  0  0  0  0  0  0  0
  186.8750  178.5850  148.4450 F   0  0  0  0  0  0  0  0  0  0  0  0
  189.5440  177.0730  147.2640 C   0  0  0  0  0  2  0  0  0  0  0  0
  190.6670  176.2680  147.9260 C   0  0  0  0  0  2  0  0  0  0  0  0
  191.9770  177.0420  147.9400 C   0  0  0  0  0  2  0  0  0  0  0  0
  194.8990  176.5850  145.6300 N   0  0  0  0  0  0  0  0  0  0  0  0
  192.9320  176.4310  146.9750 C   0  0  0  0  0  0  0  0  0  0  0  0
  195.6880  174.7720  144.2630 N   0  0  0  0  0  1  0  0  0  0  0  0
  194.7210  175.3190  145.1580 C   0  0  0  0  0  0  0  0  0  0  0  0
  193.6180  174.5540  145.5920 C   0  0  0  0  0  0  0  0  0  0  0  0
  192.7320  175.1290  146.5110 C   0  0  0  0  0  3  0  0  0  0  0  0
  194.0340  177.1510  146.5160 C   0  0  0  0  0  3  0  0  0  0  0  0
  193.8160  172.1960  145.7230 O   0  0  0  0  0  0  0  0  0  0  0  0
  193.3620  173.1860  145.0920 C   0  0  0  0  0  0  0  0  0  0  0  0
  192.0110  173.9510  143.2170 O   0  0  0  0  0  1  0  0  0  0  0  0
  192.6260  172.9520  143.8900 N   0  0  0  0  0  2  0  0  0  0  0  0
  1  2  1  1  0  0  0
  1 10  1  0  0  0  0
  1 22  1  0  0  0  0
  4  7  1  0  0  0  0
  4  9  1  0  0  0  0
  5  8  1  0  0  0  0
  6  8  1  0  0  0  0
  7  6  1  0  0  0  0
  8  1  1  1  0  0  0
  9  3  1  6  0  0  0
  9  5  1  0  0  0  0
 10 11  1  1  0  0  0
 12 10  1  0  0  0  0
 12 18  1  1  0  0  0
 13 15  1  6  0  0  0
 13 16  1  0  0  0  0
 13 14  1  0  0  0  0
 14 12  1  1  0  0  0
 16 17  1  6  0  0  0
 16 14  1  0  0  0  0
 18 19  1  0  0  0  0
 18 21  1  0  0  0  0
 20 18  1  0  0  0  0
 22 23  1  0  0  0  0
 23 24  1  0  0  0  0
 25 31  1  0  0  0  0
 26 24  1  0  0  0  0
 27 28  1  0  0  0  0
 28 29  1  0  0  0  0
 28 25  2  0  0  0  0
 29 30  2  0  0  0  0
 30 26  1  0  0  0  0
 31 26  2  0  0  0  0
 33 29  1  0  0  0  0
 33 32  2  0  0  0  0
 34 35  1  0  0  0  0
 35 33  1  0  0  0  0
M  END
>  <MODEL>
4

>  <REMARK>
 VINA RESULT:      -6.9      2.231      3.293
  Name = 
  10 active torsions:
  status: ('A' for Active; 'I' for Inactive)
    1  A    between atoms: C_2  and  C_27
    2  A    between atoms: C_3  and  C_8
    3  A    between atoms: C_3  and  C_27
    4  A    between atoms: C_4  and  C_20
    5  A    between atoms: C_4  and  C_32
    6  A    between atoms: C_8  and  C_20
    7  A    between atoms: C_8  and  C_23
    8  A    between atoms: C_10  and  C_27
    9  A    between atoms: C_15  and  C_32
   10  A    between atoms: C_18  and  C_24
                            x       y       z     vdW  Elec       q    Type
                         _______ _______ _______ _____ _____    ______ ____

>  <TORSDO>
F 10

$$$$
=
 OpenBabel11062422013D

 35 37  0  0  1  0  0  0  0  0999 V2000
  192.7280  175.5050  145.1100 C   0  0  1  0  0  0  0  0  0  0  0  0
  192.3050  176.9160  144.7100 C   0  0  0  0  0  1  0  0  0  0  0  0
  189.4720  172.2300  143.4660 C   0  0  0  0  0  1  0  0  0  0  0  0
  191.4980  172.8340  142.0950 C   0  0  0  0  0  2  0  0  0  0  0  0
  191.4130  173.3440  144.5920 C   0  0  0  0  0  2  0  0  0  0  0  0
  191.4610  175.1800  143.0290 O   0  0  0  0  0  0  0  0  0  0  0  0
  191.3560  174.3580  141.8670 C   0  0  0  0  0  2  0  0  0  0  0  0
  192.2100  174.5260  144.0290 C   0  0  1  0  0  3  0  0  0  0  0  0
  190.9820  172.3990  143.4700 C   0  0  1  0  0  3  0  0  0  0  0  0
  194.2760  175.4960  145.2140 C   0  0  1  0  0  3  0  0  0  0  0  0
  194.7040  175.5910  146.5470 O   0  0  0  0  0  1  0  0  0  0  0  0
  195.0000  174.3660  144.4470 C   0  0  1  0  0  3  0  0  0  0  0  0
  195.9910  176.3400  143.2750 C   0  0  1  0  0  3  0  0  0  0  0  0
  196.2550  174.9350  143.7870 C   0  0  2  0  0  3  0  0  0  0  0  0
  197.1860  177.0660  143.2640 O   0  0  0  0  0  1  0  0  0  0  0  0
  196.0110  175.1590  142.3060 C   0  0  2  0  0  3  0  0  0  0  0  0
  197.3220  175.0020  141.5520 C   0  0  0  0  0  1  0  0  0  0  0  0
  195.3500  173.1250  145.2990 C   0  0  0  0  0  0  0  0  0  0  0  0
  195.7700  172.0840  144.4670 O   0  0  0  0  0  1  0  0  0  0  0  0
  194.2480  172.6980  146.0090 F   0  0  0  0  0  0  0  0  0  0  0  0
  196.3680  173.4230  146.1910 F   0  0  0  0  0  0  0  0  0  0  0  0
  192.1020  175.1890  146.4840 C   0  0  0  0  0  2  0  0  0  0  0  0
  190.9910  176.1460  146.9280 C   0  0  0  0  0  2  0  0  0  0  0  0
  189.6990  175.4010  147.2280 C   0  0  0  0  0  2  0  0  0  0  0  0
  186.4920  176.9070  145.9910 N   0  0  0  0  0  0  0  0  0  0  0  0
  188.6210  175.8770  146.3180 C   0  0  0  0  0  0  0  0  0  0  0  0
  185.5390  177.2680  143.8140 N   0  0  0  0  0  1  0  0  0  0  0  0
  186.5850  176.7600  144.6400 C   0  0  0  0  0  0  0  0  0  0  0  0
  187.7280  176.1540  144.0750 C   0  0  0  0  0  0  0  0  0  0  0  0
  188.7440  175.7220  144.9360 C   0  0  0  0  0  3  0  0  0  0  0  0
  187.4730  176.4780  146.8320 C   0  0  0  0  0  3  0  0  0  0  0  0
  187.4700  174.8710  142.1000 O   0  0  0  0  0  0  0  0  0  0  0  0
  187.8700  175.9450  142.6180 C   0  0  0  0  0  0  0  0  0  0  0  0
  188.8250  178.1510  142.2330 O   0  0  0  0  0  1  0  0  0  0  0  0
  188.4740  176.9280  141.7750 N   0  0  0  0  0  2  0  0  0  0  0  0
  1  2  1  6  0  0  0
  1 10  1  0  0  0  0
  1 22  1  0  0  0  0
  4  9  1  0  0  0  0
  6  8  1  0  0  0  0
  7  4  1  0  0  0  0
  7  6  1  0  0  0  0
  8  5  1  0  0  0  0
  8  1  1  1  0  0  0
  9  3  1  6  0  0  0
  9  5  1  0  0  0  0
 10 11  1  1  0  0  0
 12 10  1  0  0  0  0
 12 18  1  1  0  0  0
 13 15  1  6  0  0  0
 13 14  1  0  0  0  0
 14 12  1  1  0  0  0
 16 17  1  6  0  0  0
 16 13  1  0  0  0  0
 16 14  1  0  0  0  0
 18 20  1  0  0  0  0
 18 21  1  0  0  0  0
 19 18  1  0  0  0  0
 22 23  1  0  0  0  0
 23 24  1  0  0  0  0
 25 31  1  0  0  0  0
 26 31  2  0  0  0  0
 26 24  1  0  0  0  0
 27 28  1  0  0  0  0
 28 25  2  0  0  0  0
 29 28  1  0  0  0  0
 29 30  2  0  0  0  0
 30 26  1  0  0  0  0
 32 33  2  0  0  0  0
 33 29  1  0  0  0  0
 35 34  1  0  0  0  0
 35 33  1  0  0  0  0
M  END
>  <MODEL>
5

>  <REMARK>
 VINA RESULT:      -6.9      4.019      7.759
  Name = 
  10 active torsions:
  status: ('A' for Active; 'I' for Inactive)
    1  A    between atoms: C_2  and  C_27
    2  A    between atoms: C_3  and  C_8
    3  A    between atoms: C_3  and  C_27
    4  A    between atoms: C_4  and  C_20
    5  A    between atoms: C_4  and  C_32
    6  A    between atoms: C_8  and  C_20
    7  A    between atoms: C_8  and  C_23
    8  A    between atoms: C_10  and  C_27
    9  A    between atoms: C_15  and  C_32
   10  A    between atoms: C_18  and  C_24
                            x       y       z     vdW  Elec       q    Type
                         _______ _______ _______ _____ _____    ______ ____

>  <TORSDO>
F 10

$$$$
=
 OpenBabel11062422013D

 35 37  0  0  1  0  0  0  0  0999 V2000
  188.0220  177.0970  143.3350 C   0  0  1  0  0  0  0  0  0  0  0  0
  187.2200  177.8270  142.2600 C   0  0  0  0  0  1  0  0  0  0  0  0
  184.3680  178.5940  146.2380 C   0  0  0  0  0  1  0  0  0  0  0  0
  186.6990  178.2980  147.1490 C   0  0  0  0  0  2  0  0  0  0  0  0
  186.2940  178.5030  144.6400 C   0  0  0  0  0  2  0  0  0  0  0  0
  187.1220  176.4160  145.5180 O   0  0  0  0  0  0  0  0  0  0  0  0
  187.0170  176.8070  146.8870 C   0  0  0  0  0  2  0  0  0  0  0  0
  187.4690  177.5230  144.7160 C   0  0  1  0  0  3  0  0  0  0  0  0
  185.8400  178.9140  146.0400 C   0  0  1  0  0  3  0  0  0  0  0  0
  187.8580  175.5750  143.0830 C   0  0  1  0  0  3  0  0  0  0  0  0
  186.6360  175.2860  142.4550 O   0  0  0  0  0  1  0  0  0  0  0  0
  189.0490  174.8700  142.3950 C   0  0  1  0  0  3  0  0  0  0  0  0
  189.8940  174.1670  144.6410 C   0  0  1  0  0  3  0  0  0  0  0  0
  189.4950  173.6890  143.2570 C   0  0  2  0  0  3  0  0  0  0  0  0
  189.6900  173.1400  145.5680 O   0  0  0  0  0  1  0  0  0  0  0  0
  190.9640  173.8240  143.6070 C   0  0  2  0  0  3  0  0  0  0  0  0
  191.5680  172.4390  143.7820 C   0  0  0  0  0  1  0  0  0  0  0  0
  188.7810  174.4110  140.9430 C   0  0  0  0  0  0  0  0  0  0  0  0
  189.9870  174.0710  140.3260 O   0  0  0  0  0  1  0  0  0  0  0  0
  188.1900  175.4240  140.2170 F   0  0  0  0  0  0  0  0  0  0  0  0
  187.9450  173.3060  140.9330 F   0  0  0  0  0  0  0  0  0  0  0  0
  189.5020  177.5030  143.1860 C   0  0  0  0  0  2  0  0  0  0  0  0
  190.2380  177.7740  144.5030 C   0  0  0  0  0  2  0  0  0  0  0  0
  191.6970  178.1310  144.2650 C   0  0  0  0  0  2  0  0  0  0  0  0
  193.3340  175.3570  146.1900 N   0  0  0  0  0  0  0  0  0  0  0  0
  192.5610  176.9680  144.6060 C   0  0  0  0  0  0  0  0  0  0  0  0
  194.9580  173.6690  145.6450 N   0  0  0  0  0  1  0  0  0  0  0  0
  194.1800  174.8060  145.2740 C   0  0  0  0  0  0  0  0  0  0  0  0
  194.2400  175.3330  143.9660 C   0  0  0  0  0  0  0  0  0  0  0  0
  193.4150  176.4170  143.6480 C   0  0  0  0  0  3  0  0  0  0  0  0
  192.5370  176.4180  145.8870 C   0  0  0  0  0  3  0  0  0  0  0  0
  194.7670  173.8730  142.1750 O   0  0  0  0  0  0  0  0  0  0  0  0
  195.1590  174.7910  142.9410 C   0  0  0  0  0  0  0  0  0  0  0  0
  196.9590  176.3270  143.5120 O   0  0  0  0  0  1  0  0  0  0  0  0
  196.4990  175.2690  142.8070 N   0  0  0  0  0  2  0  0  0  0  0  0
  1  2  1  6  0  0  0
  5  8  1  0  0  0  0
  5  9  1  0  0  0  0
  6  7  1  0  0  0  0
  7  4  1  0  0  0  0
  8  1  1  6  0  0  0
  8  6  1  0  0  0  0
  9  3  1  1  0  0  0
  9  4  1  0  0  0  0
 10 11  1  6  0  0  0
 10  1  1  0  0  0  0
 12 18  1  6  0  0  0
 12 10  1  0  0  0  0
 13 15  1  1  0  0  0
 14 12  1  6  0  0  0
 14 16  1  0  0  0  0
 14 13  1  0  0  0  0
 16 17  1  1  0  0  0
 16 13  1  0  0  0  0
 19 18  1  0  0  0  0
 20 18  1  0  0  0  0
 21 18  1  0  0  0  0
 22  1  1  0  0  0  0
 22 23  1  0  0  0  0
 24 23  1  0  0  0  0
 24 26  1  0  0  0  0
 26 31  2  0  0  0  0
 28 27  1  0  0  0  0
 28 25  2  0  0  0  0
 29 28  1  0  0  0  0
 30 29  2  0  0  0  0
 30 26  1  0  0  0  0
 31 25  1  0  0  0  0
 32 33  2  0  0  0  0
 33 29  1  0  0  0  0
 35 33  1  0  0  0  0
 35 34  1  0  0  0  0
M  END
>  <MODEL>
6

>  <REMARK>
 VINA RESULT:      -6.9      2.330      4.923
  Name = 
  10 active torsions:
  status: ('A' for Active; 'I' for Inactive)
    1  A    between atoms: C_2  and  C_27
    2  A    between atoms: C_3  and  C_8
    3  A    between atoms: C_3  and  C_27
    4  A    between atoms: C_4  and  C_20
    5  A    between atoms: C_4  and  C_32
    6  A    between atoms: C_8  and  C_20
    7  A    between atoms: C_8  and  C_23
    8  A    between atoms: C_10  and  C_27
    9  A    between atoms: C_15  and  C_32
   10  A    between atoms: C_18  and  C_24
                            x       y       z     vdW  Elec       q    Type
                         _______ _______ _______ _____ _____    ______ ____

>  <TORSDO>
F 10

$$$$
=
 OpenBabel11062422013D

 35 37  0  0  1  0  0  0  0  0999 V2000
  189.8180  176.2370  144.9280 C   0  0  1  0  0  0  0  0  0  0  0  0
  189.2800  175.3230  146.0260 C   0  0  0  0  0  1  0  0  0  0  0  0
  192.3760  173.2920  141.9600 C   0  0  0  0  0  1  0  0  0  0  0  0
  190.0610  174.0620  141.3290 C   0  0  0  0  0  2  0  0  0  0  0  0
  191.3990  175.2830  143.1230 C   0  0  0  0  0  2  0  0  0  0  0  0
  189.3900  174.1150  143.7640 O   0  0  0  0  0  0  0  0  0  0  0  0
  189.1660  173.5380  142.4770 C   0  0  0  0  0  2  0  0  0  0  0  0
  189.9600  175.3980  143.6350 C   0  0  1  0  0  3  0  0  0  0  0  0
  191.4480  174.4870  141.8190 C   0  0  1  0  0  3  0  0  0  0  0  0
  188.8100  177.4040  144.7610 C   0  0  1  0  0  3  0  0  0  0  0  0
  189.1240  178.2010  143.6490 O   0  0  0  0  0  1  0  0  0  0  0  0
  187.3140  177.0180  144.7980 C   0  0  1  0  0  3  0  0  0  0  0  0
  186.7090  177.5410  147.1670 C   0  0  1  0  0  3  0  0  0  0  0  0
  186.5710  177.9830  145.7210 C   0  0  2  0  0  3  0  0  0  0  0  0
  186.6150  178.6540  148.0080 O   0  0  0  0  0  1  0  0  0  0  0  0
  185.4160  177.2720  146.4000 C   0  0  2  0  0  3  0  0  0  0  0  0
  184.3090  178.2740  146.6870 C   0  0  0  0  0  1  0  0  0  0  0  0
  186.6260  176.9530  143.4150 C   0  0  0  0  0  0  0  0  0  0  0  0
  186.1320  178.2140  143.0730 O   0  0  0  0  0  1  0  0  0  0  0  0
  185.5720  176.0640  143.4400 F   0  0  0  0  0  0  0  0  0  0  0  0
  187.5300  176.5480  142.4450 F   0  0  0  0  0  0  0  0  0  0  0  0
  191.1870  176.7790  145.3850 C   0  0  0  0  0  2  0  0  0  0  0  0
  191.7460  176.1430  146.6620 C   0  0  0  0  0  2  0  0  0  0  0  0
  193.2330  176.4190  146.8200 C   0  0  0  0  0  2  0  0  0  0  0  0
  194.6910  173.6090  144.8020 N   0  0  0  0  0  0  0  0  0  0  0  0
  193.9950  175.6740  145.7790 C   0  0  0  0  0  0  0  0  0  0  0  0
  196.1040  173.4970  142.8610 N   0  0  0  0  0  1  0  0  0  0  0  0
  195.4240  174.2600  143.8560 C   0  0  0  0  0  0  0  0  0  0  0  0
  195.4630  175.6710  143.8430 C   0  0  0  0  0  0  0  0  0  0  0  0
  194.7340  176.3640  144.8150 C   0  0  0  0  0  3  0  0  0  0  0  0
  193.9880  174.2800  145.7560 C   0  0  0  0  0  3  0  0  0  0  0  0
  197.4350  176.7860  143.1450 O   0  0  0  0  0  0  0  0  0  0  0  0
  196.2640  176.4270  142.8560 C   0  0  0  0  0  0  0  0  0  0  0  0
  194.5320  176.3430  141.1470 O   0  0  0  0  0  1  0  0  0  0  0  0
  195.7350  176.7860  141.5780 N   0  0  0  0  0  2  0  0  0  0  0  0
  1 22  1  0  0  0  0
  1  2  1  1  0  0  0
  4  9  1  0  0  0  0
  4  7  1  0  0  0  0
  5  8  1  0  0  0  0
  7  6  1  0  0  0  0
  8  6  1  0  0  0  0
  8  1  1  1  0  0  0
  9  3  1  1  0  0  0
  9  5  1  0  0  0  0
 10 11  1  6  0  0  0
 10 12  1  0  0  0  0
 10  1  1  0  0  0  0
 12 18  1  6  0  0  0
 13 15  1  1  0  0  0
 14 12  1  6  0  0  0
 14 16  1  0  0  0  0
 14 13  1  0  0  0  0
 16 17  1  1  0  0  0
 16 13  1  0  0  0  0
 18 20  1  0  0  0  0
 19 18  1  0  0  0  0
 21 18  1  0  0  0  0
 22 23  1  0  0  0  0
 23 24  1  0  0  0  0
 25 31  1  0  0  0  0
 26 24  1  0  0  0  0
 27 28  1  0  0  0  0
 28 25  2  0  0  0  0
 29 28  1  0  0  0  0
 29 30  2  0  0  0  0
 30 26  1  0  0  0  0
 31 26  2  0  0  0  0
 33 32  2  0  0  0  0
 33 29  1  0  0  0  0
 34 35  1  0  0  0  0
 35 33  1  0  0  0  0
M  END
>  <MODEL>
7

>  <REMARK>
 VINA RESULT:      -6.8      2.231      3.550
  Name = 
  10 active torsions:
  status: ('A' for Active; 'I' for Inactive)
    1  A    between atoms: C_2  and  C_27
    2  A    between atoms: C_3  and  C_8
    3  A    between atoms: C_3  and  C_27
    4  A    between atoms: C_4  and  C_20
    5  A    between atoms: C_4  and  C_32
    6  A    between atoms: C_8  and  C_20
    7  A    between atoms: C_8  and  C_23
    8  A    between atoms: C_10  and  C_27
    9  A    between atoms: C_15  and  C_32
   10  A    between atoms: C_18  and  C_24
                            x       y       z     vdW  Elec       q    Type
                         _______ _______ _______ _____ _____    ______ ____

>  <TORSDO>
F 10

$$$$
=
 OpenBabel11062422013D

 35 37  0  0  1  0  0  0  0  0999 V2000
  188.8570  175.8530  146.4820 C   0  0  1  0  0  0  0  0  0  0  0  0
  188.9810  174.5690  147.2990 C   0  0  0  0  0  1  0  0  0  0  0  0
  191.7610  175.9020  142.5340 C   0  0  0  0  0  1  0  0  0  0  0  0
  189.4530  174.8990  142.4230 C   0  0  0  0  0  2  0  0  0  0  0  0
  190.0940  176.4920  144.3080 C   0  0  0  0  0  2  0  0  0  0  0  0
  189.6190  174.1890  144.8420 O   0  0  0  0  0  0  0  0  0  0  0  0
  189.4820  173.7720  143.4830 C   0  0  0  0  0  2  0  0  0  0  0  0
  189.1470  175.5080  145.0010 C   0  0  1  0  0  3  0  0  0  0  0  0
  190.2880  176.1130  142.8400 C   0  0  1  0  0  3  0  0  0  0  0  0
  187.4180  176.3950  146.6860 C   0  0  1  0  0  3  0  0  0  0  0  0
  186.8740  175.9690  147.9090 O   0  0  0  0  0  1  0  0  0  0  0  0
  187.2270  177.9120  146.4590 C   0  0  1  0  0  3  0  0  0  0  0  0
  185.0510  177.6720  145.2500 C   0  0  1  0  0  3  0  0  0  0  0  0
  186.4940  178.1310  145.1360 C   0  0  2  0  0  3  0  0  0  0  0  0
  184.2560  178.3990  144.3590 O   0  0  0  0  0  1  0  0  0  0  0  0
  186.0830  176.7970  144.5400 C   0  0  2  0  0  3  0  0  0  0  0  0
  186.0510  176.9130  143.0250 C   0  0  0  0  0  1  0  0  0  0  0  0
  186.5050  178.6540  147.6070 C   0  0  0  0  0  0  0  0  0  0  0  0
  187.4310  179.0250  148.5860 O   0  0  0  0  0  1  0  0  0  0  0  0
  185.5570  177.8400  148.1900 F   0  0  0  0  0  0  0  0  0  0  0  0
  185.8810  179.7950  147.1280 F   0  0  0  0  0  0  0  0  0  0  0  0
  189.8870  176.8650  147.0230 C   0  0  0  0  0  2  0  0  0  0  0  0
  191.0650  176.2500  147.7850 C   0  0  0  0  0  2  0  0  0  0  0  0
  192.3980  176.7750  147.2720 C   0  0  0  0  0  2  0  0  0  0  0  0
  193.1110  173.5590  145.4750 N   0  0  0  0  0  0  0  0  0  0  0  0
  193.0130  175.7760  146.3560 C   0  0  0  0  0  0  0  0  0  0  0  0
  194.6830  172.8980  143.7800 N   0  0  0  0  0  1  0  0  0  0  0  0
  194.1570  173.8860  144.6640 C   0  0  0  0  0  0  0  0  0  0  0  0
  194.6710  175.2000  144.6760 C   0  0  0  0  0  0  0  0  0  0  0  0
  194.0790  176.1380  145.5290 C   0  0  0  0  0  3  0  0  0  0  0  0
  192.5390  174.4650  146.3140 C   0  0  0  0  0  3  0  0  0  0  0  0
  195.6390  176.3690  142.8560 O   0  0  0  0  0  0  0  0  0  0  0  0
  195.8210  175.6030  143.8370 C   0  0  0  0  0  0  0  0  0  0  0  0
  197.4400  174.3940  145.1940 O   0  0  0  0  0  1  0  0  0  0  0  0
  197.1430  175.1260  144.0970 N   0  0  0  0  0  2  0  0  0  0  0  0
  1 10  1  0  0  0  0
  1 22  1  0  0  0  0
  1  2  1  1  0  0  0
  4  9  1  0  0  0  0
  4  7  1  0  0  0  0
  5  8  1  0  0  0  0
  6  8  1  0  0  0  0
  7  6  1  0  0  0  0
  8  1  1  1  0  0  0
  9  3  1  1  0  0  0
  9  5  1  0  0  0  0
 10 11  1  1  0  0  0
 12 10  1  0  0  0  0
 12 18  1  1  0  0  0
 13 15  1  6  0  0  0
 14 13  1  0  0  0  0
 14 12  1  1  0  0  0
 16 17  1  6  0  0  0
 16 14  1  0  0  0  0
 16 13  1  0  0  0  0
 18 20  1  0  0  0  0
 18 19  1  0  0  0  0
 21 18  1  0  0  0  0
 22 23  1  0  0  0  0
 24 23  1  0  0  0  0
 25 31  1  0  0  0  0
 26 24  1  0  0  0  0
 27 28  1  0  0  0  0
 28 29  1  0  0  0  0
 28 25  2  0  0  0  0
 29 30  2  0  0  0  0
 30 26  1  0  0  0  0
 31 26  2  0  0  0  0
 32 33  2  0  0  0  0
 33 35  1  0  0  0  0
 33 29  1  0  0  0  0
 35 34  1  0  0  0  0
M  END
>  <MODEL>
8

>  <REMARK>
 VINA RESULT:      -6.8      2.075      2.983
  Name = 
  10 active torsions:
  status: ('A' for Active; 'I' for Inactive)
    1  A    between atoms: C_2  and  C_27
    2  A    between atoms: C_3  and  C_8
    3  A    between atoms: C_3  and  C_27
    4  A    between atoms: C_4  and  C_20
    5  A    between atoms: C_4  and  C_32
    6  A    between atoms: C_8  and  C_20
    7  A    between atoms: C_8  and  C_23
    8  A    between atoms: C_10  and  C_27
    9  A    between atoms: C_15  and  C_32
   10  A    between atoms: C_18  and  C_24
                            x       y       z     vdW  Elec       q    Type
                         _______ _______ _______ _____ _____    ______ ____

>  <TORSDO>
F 10

$$$$
=
 OpenBabel11062422013D

 35 37  0  0  1  0  0  0  0  0999 V2000
  189.2140  176.6280  145.2130 C   0  0  1  0  0  0  0  0  0  0  0  0
  190.0380  177.9110  145.2910 C   0  0  0  0  0  1  0  0  0  0  0  0
  185.1430  178.4700  147.2270 C   0  0  0  0  0  1  0  0  0  0  0  0
  185.1250  177.5810  144.8690 C   0  0  0  0  0  2  0  0  0  0  0  0
  186.9920  176.9520  146.4880 C   0  0  0  0  0  2  0  0  0  0  0  0
  187.5290  178.2930  144.5580 O   0  0  0  0  0  0  0  0  0  0  0  0
  186.1750  178.4490  144.1340 C   0  0  0  0  0  2  0  0  0  0  0  0
  187.7190  177.0240  145.1410 C   0  0  1  0  0  3  0  0  0  0  0  0
  185.5140  177.3050  146.3250 C   0  0  1  0  0  3  0  0  0  0  0  0
  189.6760  175.8570  143.9480 C   0  0  1  0  0  3  0  0  0  0  0  0
  191.0720  175.7140  143.9120 O   0  0  0  0  0  1  0  0  0  0  0  0
  188.9450  174.5250  143.6630 C   0  0  1  0  0  3  0  0  0  0  0  0
  189.1160  174.8820  141.1940 C   0  0  1  0  0  3  0  0  0  0  0  0
  188.1650  174.6530  142.3550 C   0  0  2  0  0  3  0  0  0  0  0  0
  188.5450  174.3880  140.0170 O   0  0  0  0  0  1  0  0  0  0  0  0
  188.3280  176.0500  141.7850 C   0  0  2  0  0  3  0  0  0  0  0  0
  187.0830  176.4160  140.9930 C   0  0  0  0  0  1  0  0  0  0  0  0
  189.8590  173.2780  143.6290 C   0  0  0  0  0  0  0  0  0  0  0  0
  189.1250  172.1660  143.2090 O   0  0  0  0  0  1  0  0  0  0  0  0
  190.3680  173.0170  144.8840 F   0  0  0  0  0  0  0  0  0  0  0  0
  190.9130  173.4760  142.7510 F   0  0  0  0  0  0  0  0  0  0  0  0
  189.5030  175.7950  146.4780 C   0  0  0  0  0  2  0  0  0  0  0  0
  190.6100  176.3470  147.3810 C   0  0  0  0  0  2  0  0  0  0  0  0
  191.6630  175.2910  147.6840 C   0  0  0  0  0  2  0  0  0  0  0  0
  194.4270  176.8540  145.6820 N   0  0  0  0  0  0  0  0  0  0  0  0
  192.8190  175.4550  146.7590 C   0  0  0  0  0  0  0  0  0  0  0  0
  196.0980  176.0000  144.1800 N   0  0  0  0  0  1  0  0  0  0  0  0
  194.9680  175.7900  145.0250 C   0  0  0  0  0  0  0  0  0  0  0  0
  194.4380  174.4970  145.2220 C   0  0  0  0  0  0  0  0  0  0  0  0
  193.3600  174.3480  146.1020 C   0  0  0  0  0  3  0  0  0  0  0  0
  193.3720  176.7150  146.5320 C   0  0  0  0  0  3  0  0  0  0  0  0
  194.4370  172.9400  143.4360 O   0  0  0  0  0  0  0  0  0  0  0  0
  194.9690  173.3120  144.5130 C   0  0  0  0  0  0  0  0  0  0  0  0
  196.7610  172.9550  146.1210 O   0  0  0  0  0  1  0  0  0  0  0  0
  196.0650  172.5560  145.0330 N   0  0  0  0  0  2  0  0  0  0  0  0
  1  2  1  1  0  0  0
  1 22  1  0  0  0  0
  4  9  1  0  0  0  0
  6  8  1  0  0  0  0
  7  6  1  0  0  0  0
  7  4  1  0  0  0  0
  8  1  1  1  0  0  0
  8  5  1  0  0  0  0
  9  5  1  0  0  0  0
  9  3  1  1  0  0  0
 10 11  1  1  0  0  0
 10  1  1  0  0  0  0
 12 18  1  6  0  0  0
 12 10  1  0  0  0  0
 13 15  1  6  0  0  0
 13 16  1  0  0  0  0
 13 14  1  0  0  0  0
 14 12  1  1  0  0  0
 16 17  1  6  0  0  0
 16 14  1  0  0  0  0
 18 20  1  0  0  0  0
 19 18  1  0  0  0  0
 21 18  1  0  0  0  0
 22 23  1  0  0  0  0
 23 24  1  0  0  0  0
 25 31  1  0  0  0  0
 26 24  1  0  0  0  0
 27 28  1  0  0  0  0
 28 29  1  0  0  0  0
 28 25  2  0  0  0  0
 29 30  2  0  0  0  0
 30 26  1  0  0  0  0
 31 26  2  0  0  0  0
 32 33  2  0  0  0  0
 33 35  1  0  0  0  0
 33 29  1  0  0  0  0
 35 34  1  0  0  0  0
M  END
>  <MODEL>
9

>  <REMARK>
 VINA RESULT:      -6.8      2.750      4.762
  Name = 
  10 active torsions:
  status: ('A' for Active; 'I' for Inactive)
    1  A    between atoms: C_2  and  C_27
    2  A    between atoms: C_3  and  C_8
    3  A    between atoms: C_3  and  C_27
    4  A    between atoms: C_4  and  C_20
    5  A    between atoms: C_4  and  C_32
    6  A    between atoms: C_8  and  C_20
    7  A    between atoms: C_8  and  C_23
    8  A    between atoms: C_10  and  C_27
    9  A    between atoms: C_15  and  C_32
   10  A    between atoms: C_18  and  C_24
                            x       y       z     vdW  Elec       q    Type
                         _______ _______ _______ _____ _____    ______ ____

>  <TORSDO>
F 10

$$$$
