=
 OpenBabel11062420533D

 50 54  0  0  1  0  0  0  0  0999 V2000
  195.0210  177.5750  145.4070 C   0  0  0  0  0  1  0  0  0  0  0  0
  194.6900  176.1040  145.1970 C   0  0  2  0  0  0  0  0  0  0  0  0
  194.5950  175.4640  146.5010 N   0  0  0  0  0  1  0  0  0  0  0  0
  196.6300  174.6430  145.2360 O   0  0  0  0  0  1  0  0  0  0  0  0
  195.8220  175.4230  144.4010 C   0  0  1  0  0  3  0  0  0  0  0  0
  194.8580  173.3220  143.3960 C   0  0  0  0  0  0  0  0  0  0  0  0
  195.0610  175.0280  139.4610 C   0  0  0  0  0  1  0  0  0  0  0  0
  194.9830  174.4220  140.8190 C   0  0  0  0  0  0  0  0  0  0  0  0
  195.4260  175.1590  141.9200 C   0  0  0  0  0  3  0  0  0  0  0  0
  194.0140  172.3980  139.9080 O   0  0  0  0  0  1  0  0  0  0  0  0
  195.3650  174.6190  143.2110 C   0  0  0  0  0  0  0  0  0  0  0  0
  194.4020  172.5800  142.2940 C   0  0  0  0  0  0  0  0  0  0  0  0
  194.4660  173.1300  141.0030 C   0  0  0  0  0  0  0  0  0  0  0  0
  194.7980  172.7910  144.6440 F   0  0  0  0  0  0  0  0  0  0  0  0
  193.7340  170.9280  142.5420 S   0  0  0  0  0  0  0  0  0  0  0  0
  192.0810  171.5400  142.8700 C   0  0  0  0  0  0  0  0  0  0  0  0
  189.7700  173.0860  143.3170 C   0  0  0  0  0  2  0  0  0  0  0  0
  190.2210  172.1920  144.4560 C   0  0  0  0  0  2  0  0  0  0  0  0
  191.3050  171.8190  141.8740 N   0  0  0  0  0  0  0  0  0  0  0  0
  191.6990  171.8530  144.2980 C   0  0  0  0  0  2  0  0  0  0  0  0
  189.9470  172.3050  142.0200 C   0  0  2  0  0  3  0  0  0  0  0  0
  189.5770  173.1610  140.8200 C   0  0  0  0  0  2  0  0  0  0  0  0
  190.8080  173.5060  139.9960 C   0  0  0  0  0  2  0  0  0  0  0  0
  189.7060  174.0130  137.6820 O   0  0  0  0  0  0  0  0  0  0  0  0
  190.6040  172.9490  138.2950 S   0  0  2  0  0  0  0  0  0  0  0  0
  190.2490  170.4170  138.8550 O   0  0  0  0  0  1  0  0  0  0  0  0
  189.5150  171.5250  138.4410 C   0  0  0  0  0  2  0  0  0  0  0  0
  193.3520  175.9710  144.4580 C   0  0  0  0  0  2  0  0  0  0  0  0
  192.2150  176.7120  145.1560 C   0  0  0  0  0  2  0  0  0  0  0  0
  190.9680  175.8450  145.2320 C   0  0  2  0  0  3  0  0  0  0  0  0
  188.3110  175.9040  147.2680 C   0  0  0  0  0  2  0  0  0  0  0  0
  189.8080  176.5570  144.5250 C   0  0  0  0  0  2  0  0  0  0  0  0
  189.0380  177.5130  145.4300 C   0  0  0  0  0  2  0  0  0  0  0  0
  189.3030  174.8210  146.8650 C   0  0  0  0  0  2  0  0  0  0  0  0
  187.8660  176.7730  146.0790 C   0  0  2  0  0  3  0  0  0  0  0  0
  190.6810  175.4390  146.6870 C   0  0  0  0  0  2  0  0  0  0  0  0
  184.6680  177.0590  145.4810 C   0  0  0  0  0  2  0  0  0  0  0  0
  185.4570  176.9400  146.7380 C   0  0  0  0  0  2  0  0  0  0  0  0
  186.4710  178.6150  145.3770 O   0  0  0  0  0  0  0  0  0  0  0  0
  185.1700  178.3580  144.9010 C   0  0  1  0  0  3  0  0  0  0  0  0
  186.7170  177.7360  146.4550 C   0  0  2  0  0  0  0  0  0  0  0  0
  185.1640  178.3120  143.4440 N   0  0  0  0  0  0  0  0  0  0  0  0
  183.9020  178.2750  142.7620 C   0  0  0  0  0  3  0  0  0  0  0  0
  186.2740  177.6370  141.3550 C   0  0  1  0  0  3  0  0  0  0  0  0
  186.4280  178.3520  142.6950 C   0  0  0  0  0  2  0  0  0  0  0  0
  185.0970  178.2430  140.5950 C   0  0  0  0  0  2  0  0  0  0  0  0
  183.8460  178.2150  141.4300 C   0  0  0  0  0  3  0  0  0  0  0  0
  187.4410  177.7860  140.6100 O   0  0  0  0  0  1  0  0  0  0  0  0
  187.0550  178.5310  147.6470 C   0  0  0  0  0  0  0  0  0  0  0  0
  187.3200  179.1570  148.5850 N   0  0  0  0  0  0  0  0  0  0  0  0
  2  1  1  1  0  0  0
  2  3  1  0  0  0  0
  5  2  1  0  0  0  0
  5  4  1  1  0  0  0
  6 14  1  0  0  0  0
  7  8  1  0  0  0  0
  8 13  2  0  0  0  0
  8  9  1  0  0  0  0
  9 11  2  0  0  0  0
 10 13  1  0  0  0  0
 11  6  1  0  0  0  0
 11  5  1  0  0  0  0
 12 15  1  0  0  0  0
 12  6  2  0  0  0  0
 13 12  1  0  0  0  0
 15 16  1  0  0  0  0
 16 20  1  0  0  0  0
 17 18  1  0  0  0  0
 19 21  1  0  0  0  0
 19 16  2  0  0  0  0
 20 18  1  0  0  0  0
 21 22  1  6  0  0  0
 21 17  1  0  0  0  0
 23 22  1  0  0  0  0
 25 24  2  6  0  0  0
 25 27  1  0  0  0  0
 25 23  1  0  0  0  0
 27 26  1  0  0  0  0
 28 29  1  0  0  0  0
 28  2  1  0  0  0  0
 30 29  1  1  0  0  0
 30 36  1  0  0  0  0
 32 30  1  0  0  0  0
 32 33  1  0  0  0  0
 34 31  1  0  0  0  0
 35 33  1  1  0  0  0
 35 41  1  0  0  0  0
 35 31  1  0  0  0  0
 36 34  1  0  0  0  0
 37 38  1  0  0  0  0
 39 41  1  0  0  0  0
 40 42  1  6  0  0  0
 40 39  1  0  0  0  0
 40 37  1  0  0  0  0
 41 38  1  0  0  0  0
 41 49  1  1  0  0  0
 43 42  1  0  0  0  0
 44 48  1  6  0  0  0
 44 45  1  0  0  0  0
 45 42  1  0  0  0  0
 46 44  1  0  0  0  0
 46 47  1  0  0  0  0
 47 43  2  0  0  0  0
 49 50  3  0  0  0  0
M  END
>  <MODEL>
1

>  <REMARK>
 VINA RESULT:      -7.4      0.000      0.000
  Name = 
  14 active torsions:
  status: ('A' for Active; 'I' for Inactive)
    1  A    between atoms: C_2  and  S_11
    2  A    between atoms: N_6  and  C_21
    3  A    between atoms: S_11  and  C_36
    4  A    between atoms: C_14  and  C_28
    5  A    between atoms: C_14  and  C_34
    6  A    between atoms: C_15  and  C_24
    7  A    between atoms: C_15  and  C_28
    8  A    between atoms: C_16  and  C_22
    9  A    between atoms: C_16  and  C_50
   10  A    between atoms: C_22  and  S_23
   11  A    between atoms: S_23  and  C_42
   12  A    between atoms: C_33  and  C_34
   13  A    between atoms: C_38  and  C_47
   14  A    between atoms: C_43  and  C_47
                            x       y       z     vdW  Elec       q    Type
                         _______ _______ _______ _____ _____    ______ ____

>  <TORSDO>
F 14

$$$$
=
 OpenBabel11062420533D

 50 54  0  0  1  0  0  0  0  0999 V2000
  192.4910  176.6870  142.6200 C   0  0  0  0  0  1  0  0  0  0  0  0
  193.2070  176.0030  143.7770 C   0  0  2  0  0  0  0  0  0  0  0  0
  192.8820  176.7160  145.0030 N   0  0  0  0  0  1  0  0  0  0  0  0
  195.3650  176.7250  144.6260 O   0  0  0  0  0  1  0  0  0  0  0  0
  194.7320  176.0730  143.5600 C   0  0  1  0  0  3  0  0  0  0  0  0
  195.4170  174.2290  141.9840 C   0  0  0  0  0  0  0  0  0  0  0  0
  197.2850  172.0810  145.1980 C   0  0  0  0  0  1  0  0  0  0  0  0
  196.6430  172.8130  144.0710 C   0  0  0  0  0  0  0  0  0  0  0  0
  196.0090  174.0320  144.3250 C   0  0  0  0  0  3  0  0  0  0  0  0
  197.3150  171.0900  142.5080 O   0  0  0  0  0  1  0  0  0  0  0  0
  195.3950  174.7470  143.2890 C   0  0  0  0  0  0  0  0  0  0  0  0
  196.0610  173.0090  141.7200 C   0  0  0  0  0  0  0  0  0  0  0  0
  196.6740  172.2990  142.7660 C   0  0  0  0  0  0  0  0  0  0  0  0
  194.8230  174.9150  140.9740 F   0  0  0  0  0  0  0  0  0  0  0  0
  196.1020  172.3630  140.0420 S   0  0  0  0  0  0  0  0  0  0  0  0
  194.3750  171.8840  140.0800 C   0  0  0  0  0  0  0  0  0  0  0  0
  191.6230  171.5900  140.6070 C   0  0  0  0  0  2  0  0  0  0  0  0
  192.4970  170.3760  140.8570 C   0  0  0  0  0  2  0  0  0  0  0  0
  193.5220  172.5530  139.3750 N   0  0  0  0  0  0  0  0  0  0  0  0
  193.9460  170.8090  141.0510 C   0  0  0  0  0  2  0  0  0  0  0  0
  192.1050  172.2480  139.3180 C   0  0  2  0  0  3  0  0  0  0  0  0
  191.3180  173.5160  139.0320 C   0  0  0  0  0  2  0  0  0  0  0  0
  190.4620  173.3570  137.7860 C   0  0  0  0  0  2  0  0  0  0  0  0
  188.1590  174.5610  137.5100 O   0  0  0  0  0  0  0  0  0  0  0  0
  188.7140  173.3360  138.2210 S   0  0  2  0  0  0  0  0  0  0  0  0
  188.0840  172.8310  140.7110 O   0  0  0  0  0  1  0  0  0  0  0  0
  188.7000  173.8230  139.9530 C   0  0  0  0  0  2  0  0  0  0  0  0
  192.7420  174.5450  143.8880 C   0  0  0  0  0  2  0  0  0  0  0  0
  191.5490  174.2350  142.9870 C   0  0  0  0  0  2  0  0  0  0  0  0
  190.3310  173.8490  143.8120 C   0  0  2  0  0  3  0  0  0  0  0  0
  189.1050  175.0290  146.6940 C   0  0  0  0  0  2  0  0  0  0  0  0
  189.1830  174.8200  143.5110 C   0  0  0  0  0  2  0  0  0  0  0  0
  189.2050  176.0760  144.3730 C   0  0  0  0  0  2  0  0  0  0  0  0
  189.4830  173.6380  146.2050 C   0  0  0  0  0  2  0  0  0  0  0  0
  188.3600  175.8520  145.6300 C   0  0  2  0  0  3  0  0  0  0  0  0
  190.7020  173.7350  145.3000 C   0  0  0  0  0  2  0  0  0  0  0  0
  185.4640  177.3370  145.9000 C   0  0  0  0  0  2  0  0  0  0  0  0
  186.4890  176.9250  146.8990 C   0  0  0  0  0  2  0  0  0  0  0  0
  187.5920  178.0880  145.1340 O   0  0  0  0  0  0  0  0  0  0  0  0
  186.2100  178.3470  145.0640 C   0  0  1  0  0  3  0  0  0  0  0  0
  187.8080  177.1800  146.1950 C   0  0  2  0  0  0  0  0  0  0  0  0
  185.7570  178.3070  143.6780 N   0  0  0  0  0  0  0  0  0  0  0  0
  184.3460  178.2840  143.4170 C   0  0  0  0  0  3  0  0  0  0  0  0
  186.1660  177.6330  141.3490 C   0  0  1  0  0  3  0  0  0  0  0  0
  186.7300  178.3400  142.5780 C   0  0  0  0  0  2  0  0  0  0  0  0
  184.8180  178.2530  140.9880 C   0  0  0  0  0  2  0  0  0  0  0  0
  183.8830  178.2310  142.1660 C   0  0  0  0  0  3  0  0  0  0  0  0
  187.0490  177.7760  140.2820 O   0  0  0  0  0  1  0  0  0  0  0  0
  188.7490  177.7850  147.1530 C   0  0  0  0  0  0  0  0  0  0  0  0
  189.4880  178.2610  147.9060 N   0  0  0  0  0  0  0  0  0  0  0  0
  2  1  1  6  0  0  0
  2 28  1  0  0  0  0
  2  3  1  0  0  0  0
  5  2  1  0  0  0  0
  5  4  1  1  0  0  0
  6 11  1  0  0  0  0
  8  9  1  0  0  0  0
  8  7  1  0  0  0  0
 10 13  1  0  0  0  0
 11  5  1  0  0  0  0
 11  9  2  0  0  0  0
 12  6  2  0  0  0  0
 12 13  1  0  0  0  0
 13  8  2  0  0  0  0
 14  6  1  0  0  0  0
 15 16  1  0  0  0  0
 15 12  1  0  0  0  0
 16 20  1  0  0  0  0
 17 18  1  0  0  0  0
 18 20  1  0  0  0  0
 19 16  2  0  0  0  0
 21 22  1  1  0  0  0
 21 19  1  0  0  0  0
 21 17  1  0  0  0  0
 23 25  1  0  0  0  0
 23 22  1  0  0  0  0
 25 24  2  6  0  0  0
 25 27  1  0  0  0  0
 27 26  1  0  0  0  0
 29 28  1  0  0  0  0
 30 29  1  6  0  0  0
 30 36  1  0  0  0  0
 32 30  1  0  0  0  0
 32 33  1  0  0  0  0
 34 31  1  0  0  0  0
 35 33  1  6  0  0  0
 35 41  1  0  0  0  0
 35 31  1  0  0  0  0
 36 34  1  0  0  0  0
 37 38  1  0  0  0  0
 39 41  1  0  0  0  0
 40 42  1  6  0  0  0
 40 39  1  0  0  0  0
 40 37  1  0  0  0  0
 41 38  1  0  0  0  0
 41 49  1  1  0  0  0
 43 42  1  0  0  0  0
 44 48  1  6  0  0  0
 44 45  1  0  0  0  0
 45 42  1  0  0  0  0
 46 44  1  0  0  0  0
 46 47  1  0  0  0  0
 47 43  2  0  0  0  0
 49 50  3  0  0  0  0
M  END
>  <MODEL>
2

>  <REMARK>
 VINA RESULT:      -7.2      1.960      2.663
  Name = 
  14 active torsions:
  status: ('A' for Active; 'I' for Inactive)
    1  A    between atoms: C_2  and  S_11
    2  A    between atoms: N_6  and  C_21
    3  A    between atoms: S_11  and  C_36
    4  A    between atoms: C_14  and  C_28
    5  A    between atoms: C_14  and  C_34
    6  A    between atoms: C_15  and  C_24
    7  A    between atoms: C_15  and  C_28
    8  A    between atoms: C_16  and  C_22
    9  A    between atoms: C_16  and  C_50
   10  A    between atoms: C_22  and  S_23
   11  A    between atoms: S_23  and  C_42
   12  A    between atoms: C_33  and  C_34
   13  A    between atoms: C_38  and  C_47
   14  A    between atoms: C_43  and  C_47
                            x       y       z     vdW  Elec       q    Type
                         _______ _______ _______ _____ _____    ______ ____

>  <TORSDO>
F 14

$$$$
=
 OpenBabel11062420533D

 50 54  0  0  1  0  0  0  0  0999 V2000
  190.7580  176.6430  146.0350 C   0  0  0  0  0  1  0  0  0  0  0  0
  191.9710  175.7590  146.2940 C   0  0  2  0  0  0  0  0  0  0  0  0
  191.9820  175.3970  147.7030 N   0  0  0  0  0  1  0  0  0  0  0  0
  193.7680  177.1620  147.1280 O   0  0  0  0  0  1  0  0  0  0  0  0
  193.2620  176.5410  145.9800 C   0  0  1  0  0  3  0  0  0  0  0  0
  194.4380  175.7440  143.8980 C   0  0  0  0  0  0  0  0  0  0  0  0
  197.2340  173.4940  146.2550 C   0  0  0  0  0  1  0  0  0  0  0  0
  196.2730  174.2700  145.4220 C   0  0  0  0  0  0  0  0  0  0  0  0
  195.2600  174.9970  146.0520 C   0  0  0  0  0  3  0  0  0  0  0  0
  197.3940  173.5680  143.3940 O   0  0  0  0  0  1  0  0  0  0  0  0
  194.3400  175.7380  145.2990 C   0  0  0  0  0  0  0  0  0  0  0  0
  195.4600  175.0230  143.2600 C   0  0  0  0  0  0  0  0  0  0  0  0
  196.3790  174.2840  144.0230 C   0  0  0  0  0  0  0  0  0  0  0  0
  193.5490  176.4580  143.1610 F   0  0  0  0  0  0  0  0  0  0  0  0
  195.5910  175.0530  141.4650 S   0  0  0  0  0  0  0  0  0  0  0  0
  194.1190  174.0540  141.2440 C   0  0  0  0  0  0  0  0  0  0  0  0
  192.1780  172.1690  140.4600 C   0  0  0  0  0  2  0  0  0  0  0  0
  191.8500  173.6280  140.2070 C   0  0  0  0  0  2  0  0  0  0  0  0
  193.9990  172.9550  141.9150 N   0  0  0  0  0  0  0  0  0  0  0  0
  193.1340  174.4500  140.1690 C   0  0  0  0  0  2  0  0  0  0  0  0
  192.8480  172.0770  141.8270 C   0  0  2  0  0  3  0  0  0  0  0  0
  193.2690  170.6480  142.1270 C   0  0  0  0  0  2  0  0  0  0  0  0
  192.6720  170.1680  143.4400 C   0  0  0  0  0  2  0  0  0  0  0  0
  193.9940  171.6290  145.1560 O   0  0  0  0  0  0  0  0  0  0  0  0
  193.9220  170.1680  144.7370 S   0  0  2  0  0  0  0  0  0  0  0  0
  196.5160  170.4780  144.5650 O   0  0  0  0  0  1  0  0  0  0  0  0
  195.4640  169.9190  143.8440 C   0  0  0  0  0  2  0  0  0  0  0  0
  191.8830  174.4910  145.4350 C   0  0  0  0  0  2  0  0  0  0  0  0
  190.4450  174.0880  145.1200 C   0  0  0  0  0  2  0  0  0  0  0  0
  190.2490  173.9030  143.6230 C   0  0  2  0  0  3  0  0  0  0  0  0
  187.5890  174.3290  141.6370 C   0  0  0  0  0  2  0  0  0  0  0  0
  190.3570  175.2620  142.9220 C   0  0  0  0  0  2  0  0  0  0  0  0
  189.0390  176.0260  142.8670 C   0  0  0  0  0  2  0  0  0  0  0  0
  188.5480  173.1710  141.8740 C   0  0  0  0  0  2  0  0  0  0  0  0
  188.3040  175.6890  141.5670 C   0  0  2  0  0  3  0  0  0  0  0  0
  188.9460  173.1360  143.3410 C   0  0  0  0  0  2  0  0  0  0  0  0
  187.5080  178.6850  142.5920 C   0  0  0  0  0  2  0  0  0  0  0  0
  188.0520  178.1650  141.3070 C   0  0  0  0  0  2  0  0  0  0  0  0
  186.1960  176.8070  141.9370 O   0  0  0  0  0  0  0  0  0  0  0  0
  186.1660  178.0030  142.6800 C   0  0  1  0  0  3  0  0  0  0  0  0
  187.3560  176.8280  141.1310 C   0  0  2  0  0  0  0  0  0  0  0  0
  185.8150  177.7280  144.0680 N   0  0  0  0  0  0  0  0  0  0  0  0
  184.6340  178.3350  144.6120 C   0  0  0  0  0  3  0  0  0  0  0  0
  186.5400  177.1710  146.3510 C   0  0  1  0  0  3  0  0  0  0  0  0
  186.6320  176.8070  144.8720 C   0  0  0  0  0  2  0  0  0  0  0  0
  185.0720  177.2040  146.7690 C   0  0  0  0  0  2  0  0  0  0  0  0
  184.2810  178.1270  145.8830 C   0  0  0  0  0  3  0  0  0  0  0  0
  187.2210  176.2200  147.1080 O   0  0  0  0  0  1  0  0  0  0  0  0
  186.9570  176.6820  139.7210 C   0  0  0  0  0  0  0  0  0  0  0  0
  186.6440  176.5670  138.6120 N   0  0  0  0  0  0  0  0  0  0  0  0
  2  1  1  6  0  0  0
  2  3  1  0  0  0  0
  5  2  1  0  0  0  0
  5  4  1  1  0  0  0
  6 11  1  0  0  0  0
  8  9  1  0  0  0  0
  8  7  1  0  0  0  0
 10 13  1  0  0  0  0
 11  5  1  0  0  0  0
 11  9  2  0  0  0  0
 12  6  2  0  0  0  0
 12 13  1  0  0  0  0
 13  8  2  0  0  0  0
 14  6  1  0  0  0  0
 15 12  1  0  0  0  0
 16 15  1  0  0  0  0
 16 19  2  0  0  0  0
 17 21  1  0  0  0  0
 18 17  1  0  0  0  0
 20 18  1  0  0  0  0
 20 16  1  0  0  0  0
 21 19  1  0  0  0  0
 21 22  1  6  0  0  0
 22 23  1  0  0  0  0
 23 25  1  0  0  0  0
 25 24  2  6  0  0  0
 27 26  1  0  0  0  0
 27 25  1  0  0  0  0
 28  2  1  0  0  0  0
 29 28  1  0  0  0  0
 30 29  1  1  0  0  0
 31 34  1  0  0  0  0
 32 30  1  0  0  0  0
 33 32  1  0  0  0  0
 34 36  1  0  0  0  0
 35 31  1  1  0  0  0
 35 33  1  0  0  0  0
 36 30  1  0  0  0  0
 38 37  1  0  0  0  0
 39 40  1  0  0  0  0
 40 37  1  1  0  0  0
 40 42  1  0  0  0  0
 41 49  1  6  0  0  0
 41 38  1  0  0  0  0
 41 35  1  0  0  0  0
 41 39  1  0  0  0  0
 42 43  1  0  0  0  0
 42 45  1  0  0  0  0
 43 47  2  0  0  0  0
 44 46  1  0  0  0  0
 44 48  1  1  0  0  0
 45 44  1  0  0  0  0
 47 46  1  0  0  0  0
 50 49  3  0  0  0  0
M  END
>  <MODEL>
3

>  <REMARK>
 VINA RESULT:      -7.2      2.614      4.979
  Name = 
  14 active torsions:
  status: ('A' for Active; 'I' for Inactive)
    1  A    between atoms: C_2  and  S_11
    2  A    between atoms: N_6  and  C_21
    3  A    between atoms: S_11  and  C_36
    4  A    between atoms: C_14  and  C_28
    5  A    between atoms: C_14  and  C_34
    6  A    between atoms: C_15  and  C_24
    7  A    between atoms: C_15  and  C_28
    8  A    between atoms: C_16  and  C_22
    9  A    between atoms: C_16  and  C_50
   10  A    between atoms: C_22  and  S_23
   11  A    between atoms: S_23  and  C_42
   12  A    between atoms: C_33  and  C_34
   13  A    between atoms: C_38  and  C_47
   14  A    between atoms: C_43  and  C_47
                            x       y       z     vdW  Elec       q    Type
                         _______ _______ _______ _____ _____    ______ ____

>  <TORSDO>
F 14

$$$$
=
 OpenBabel11062420533D

 50 54  0  0  1  0  0  0  0  0999 V2000
  185.0060  177.2720  146.8750 C   0  0  0  0  0  1  0  0  0  0  0  0
  186.4390  177.4090  146.3790 C   0  0  2  0  0  0  0  0  0  0  0  0
  187.0920  178.4590  147.1470 N   0  0  0  0  0  1  0  0  0  0  0  0
  186.2500  179.1970  144.7470 O   0  0  0  0  0  1  0  0  0  0  0  0
  186.4400  177.8170  144.8930 C   0  0  1  0  0  3  0  0  0  0  0  0
  187.4930  176.5230  143.0030 C   0  0  0  0  0  0  0  0  0  0  0  0
  191.3980  177.8900  144.1500 C   0  0  0  0  0  1  0  0  0  0  0  0
  190.0500  177.4070  143.7380 C   0  0  0  0  0  0  0  0  0  0  0  0
  188.9310  177.8040  144.4730 C   0  0  0  0  0  3  0  0  0  0  0  0
  191.0080  176.1810  141.8810 O   0  0  0  0  0  1  0  0  0  0  0  0
  187.6490  177.3690  144.1130 C   0  0  0  0  0  0  0  0  0  0  0  0
  188.6130  176.1280  142.2540 C   0  0  0  0  0  0  0  0  0  0  0  0
  189.8940  176.5700  142.6220 C   0  0  0  0  0  0  0  0  0  0  0  0
  186.2540  176.0950  142.6490 F   0  0  0  0  0  0  0  0  0  0  0  0
  188.4010  175.0610  140.8210 S   0  0  0  0  0  0  0  0  0  0  0  0
  189.1540  173.6530  141.6370 C   0  0  0  0  0  0  0  0  0  0  0  0
  190.1790  171.1320  142.3630 C   0  0  0  0  0  2  0  0  0  0  0  0
  189.0590  171.6850  143.2240 C   0  0  0  0  0  2  0  0  0  0  0  0
  190.4000  173.3890  141.4130 N   0  0  0  0  0  0  0  0  0  0  0  0
  188.2700  172.7300  142.4430 C   0  0  0  0  0  2  0  0  0  0  0  0
  191.1150  172.2880  142.0270 C   0  0  2  0  0  3  0  0  0  0  0  0
  192.2340  171.8260  141.1070 C   0  0  0  0  0  2  0  0  0  0  0  0
  191.9140  170.4710  140.4970 C   0  0  0  0  0  2  0  0  0  0  0  0
  193.2600  171.3290  138.4280 O   0  0  0  0  0  0  0  0  0  0  0  0
  191.9760  170.5590  138.6990 S   0  0  2  0  0  0  0  0  0  0  0  0
  189.4710  171.3130  138.8010 O   0  0  0  0  0  1  0  0  0  0  0  0
  190.6890  171.7480  138.2860 C   0  0  0  0  0  2  0  0  0  0  0  0
  187.1870  176.0840  146.5780 C   0  0  0  0  0  2  0  0  0  0  0  0
  188.5220  176.2590  147.2970 C   0  0  0  0  0  2  0  0  0  0  0  0
  189.3650  174.9980  147.1940 C   0  0  2  0  0  3  0  0  0  0  0  0
  191.7300  174.0480  145.0250 C   0  0  0  0  0  2  0  0  0  0  0  0
  190.7450  175.2550  147.8110 C   0  0  0  0  0  2  0  0  0  0  0  0
  191.7500  175.8470  146.8290 C   0  0  0  0  0  2  0  0  0  0  0  0
  190.4420  173.4070  145.5230 C   0  0  0  0  0  2  0  0  0  0  0  0
  192.5320  174.7200  146.1520 C   0  0  2  0  0  3  0  0  0  0  0  0
  189.3930  174.4860  145.7450 C   0  0  0  0  0  2  0  0  0  0  0  0
  194.6580  173.9670  143.7900 C   0  0  0  0  0  2  0  0  0  0  0  0
  193.9630  175.2300  144.1620 C   0  0  0  0  0  2  0  0  0  0  0  0
  194.9090  174.2880  146.1380 O   0  0  0  0  0  0  0  0  0  0  0  0
  195.4970  173.6830  145.0100 C   0  0  1  0  0  3  0  0  0  0  0  0
  193.9250  175.1920  145.6780 C   0  0  2  0  0  0  0  0  0  0  0  0
  195.6360  172.2470  145.2210 N   0  0  0  0  0  0  0  0  0  0  0  0
  196.8750  171.7450  145.7420 C   0  0  0  0  0  3  0  0  0  0  0  0
  195.0170  169.9560  144.5750 C   0  0  1  0  0  3  0  0  0  0  0  0
  194.5080  171.3450  144.9500 C   0  0  0  0  0  2  0  0  0  0  0  0
  195.9500  169.4510  145.6730 C   0  0  0  0  0  2  0  0  0  0  0  0
  197.0560  170.4360  145.9360 C   0  0  0  0  0  3  0  0  0  0  0  0
  193.9390  169.0840  144.4380 O   0  0  0  0  0  1  0  0  0  0  0  0
  194.2380  176.5350  146.1950 C   0  0  0  0  0  0  0  0  0  0  0  0
  194.4840  177.5910  146.6010 N   0  0  0  0  0  0  0  0  0  0  0  0
  2 28  1  0  0  0  0
  2  1  1  1  0  0  0
  2  3  1  0  0  0  0
  5  4  1  1  0  0  0
  5  2  1  0  0  0  0
  6 11  1  0  0  0  0
  8  7  1  0  0  0  0
  8  9  1  0  0  0  0
 10 13  1  0  0  0  0
 11  9  2  0  0  0  0
 11  5  1  0  0  0  0
 12 13  1  0  0  0  0
 12  6  2  0  0  0  0
 13  8  2  0  0  0  0
 14  6  1  0  0  0  0
 15 16  1  0  0  0  0
 15 12  1  0  0  0  0
 16 20  1  0  0  0  0
 17 18  1  0  0  0  0
 19 16  2  0  0  0  0
 19 21  1  0  0  0  0
 20 18  1  0  0  0  0
 21 22  1  6  0  0  0
 21 17  1  0  0  0  0
 23 22  1  0  0  0  0
 25 24  2  1  0  0  0
 25 23  1  0  0  0  0
 27 25  1  0  0  0  0
 27 26  1  0  0  0  0
 28 29  1  0  0  0  0
 30 29  1  6  0  0  0
 30 32  1  0  0  0  0
 31 34  1  0  0  0  0
 33 32  1  0  0  0  0
 34 36  1  0  0  0  0
 35 31  1  6  0  0  0
 35 33  1  0  0  0  0
 36 30  1  0  0  0  0
 37 38  1  0  0  0  0
 38 41  1  0  0  0  0
 40 37  1  6  0  0  0
 40 42  1  0  0  0  0
 40 39  1  0  0  0  0
 41 39  1  0  0  0  0
 41 35  1  0  0  0  0
 41 49  1  1  0  0  0
 42 43  1  0  0  0  0
 43 47  2  0  0  0  0
 44 48  1  1  0  0  0
 44 45  1  0  0  0  0
 44 46  1  0  0  0  0
 45 42  1  0  0  0  0
 46 47  1  0  0  0  0
 49 50  3  0  0  0  0
M  END
>  <MODEL>
4

>  <REMARK>
 VINA RESULT:      -7.1      2.597      7.816
  Name = 
  14 active torsions:
  status: ('A' for Active; 'I' for Inactive)
    1  A    between atoms: C_2  and  S_11
    2  A    between atoms: N_6  and  C_21
    3  A    between atoms: S_11  and  C_36
    4  A    between atoms: C_14  and  C_28
    5  A    between atoms: C_14  and  C_34
    6  A    between atoms: C_15  and  C_24
    7  A    between atoms: C_15  and  C_28
    8  A    between atoms: C_16  and  C_22
    9  A    between atoms: C_16  and  C_50
   10  A    between atoms: C_22  and  S_23
   11  A    between atoms: S_23  and  C_42
   12  A    between atoms: C_33  and  C_34
   13  A    between atoms: C_38  and  C_47
   14  A    between atoms: C_43  and  C_47
                            x       y       z     vdW  Elec       q    Type
                         _______ _______ _______ _____ _____    ______ ____

>  <TORSDO>
F 14

$$$$
=
 OpenBabel11062420533D

 50 54  0  0  1  0  0  0  0  0999 V2000
  195.7430  176.9890  144.8450 C   0  0  0  0  0  1  0  0  0  0  0  0
  195.3380  175.5220  144.8760 C   0  0  2  0  0  0  0  0  0  0  0  0
  195.0940  175.1420  146.2590 N   0  0  0  0  0  1  0  0  0  0  0  0
  197.1880  174.0270  145.3620 O   0  0  0  0  0  1  0  0  0  0  0  0
  196.4850  174.6520  144.3250 C   0  0  1  0  0  3  0  0  0  0  0  0
  195.4520  172.4440  143.6840 C   0  0  0  0  0  0  0  0  0  0  0  0
  196.1250  173.2590  139.5230 C   0  0  0  0  0  1  0  0  0  0  0  0
  195.8830  172.9610  140.9620 C   0  0  0  0  0  0  0  0  0  0  0  0
  196.2850  173.8880  141.9260 C   0  0  0  0  0  3  0  0  0  0  0  0
  194.8430  170.8480  140.3960 O   0  0  0  0  0  1  0  0  0  0  0  0
  196.0720  173.6400  143.2880 C   0  0  0  0  0  0  0  0  0  0  0  0
  195.0370  171.5110  142.7190 C   0  0  0  0  0  0  0  0  0  0  0  0
  195.2540  171.7700  141.3550 C   0  0  0  0  0  0  0  0  0  0  0  0
  195.2440  172.1940  145.0020 F   0  0  0  0  0  0  0  0  0  0  0  0
  194.2240  169.9910  143.2340 S   0  0  0  0  0  0  0  0  0  0  0  0
  192.5870  170.7110  143.1160 C   0  0  0  0  0  0  0  0  0  0  0  0
  190.3370  172.3430  142.6600 C   0  0  0  0  0  2  0  0  0  0  0  0
  190.6390  171.9890  144.1040 C   0  0  0  0  0  2  0  0  0  0  0  0
  191.9150  170.5690  142.0210 N   0  0  0  0  0  0  0  0  0  0  0  0
  192.1040  171.5900  144.2460 C   0  0  0  0  0  2  0  0  0  0  0  0
  190.5790  171.0950  141.8190 C   0  0  2  0  0  3  0  0  0  0  0  0
  190.3610  171.3880  140.3430 C   0  0  0  0  0  2  0  0  0  0  0  0
  191.2310  172.5480  139.8830 C   0  0  0  0  0  2  0  0  0  0  0  0
  190.8620  174.0340  137.7660 O   0  0  0  0  0  0  0  0  0  0  0  0
  191.2970  172.6110  138.0840 S   0  0  2  0  0  0  0  0  0  0  0  0
  190.2050  170.9150  136.4160 O   0  0  0  0  0  1  0  0  0  0  0  0
  189.8840  171.6230  137.5710 C   0  0  0  0  0  2  0  0  0  0  0  0
  194.0590  175.3180  144.0510 C   0  0  0  0  0  2  0  0  0  0  0  0
  192.8280  175.0720  144.9200 C   0  0  0  0  0  2  0  0  0  0  0  0
  191.9610  176.3190  144.9980 C   0  0  2  0  0  3  0  0  0  0  0  0
  190.0860  177.8970  142.7190 C   0  0  0  0  0  2  0  0  0  0  0  0
  190.4950  175.9100  145.1830 C   0  0  0  0  0  2  0  0  0  0  0  0
  189.7660  175.6460  143.8690 C   0  0  0  0  0  2  0  0  0  0  0  0
  191.1950  178.3460  143.6610 C   0  0  0  0  0  2  0  0  0  0  0  0
  189.0920  176.9330  143.3890 C   0  0  2  0  0  3  0  0  0  0  0  0
  192.2260  177.2360  143.7930 C   0  0  0  0  0  2  0  0  0  0  0  0
  186.3840  178.4840  142.4270 C   0  0  0  0  0  2  0  0  0  0  0  0
  187.5200  177.8740  141.6830 C   0  0  0  0  0  2  0  0  0  0  0  0
  186.7620  176.3020  143.3080 O   0  0  0  0  0  0  0  0  0  0  0  0
  185.7800  177.2960  143.1330 C   0  0  1  0  0  3  0  0  0  0  0  0
  187.8670  176.6400  142.4940 C   0  0  2  0  0  0  0  0  0  0  0  0
  185.2230  177.6890  144.4230 N   0  0  0  0  0  0  0  0  0  0  0  0
  184.1600  178.6530  144.4470 C   0  0  0  0  0  3  0  0  0  0  0  0
  185.5410  178.0270  146.8380 C   0  0  1  0  0  3  0  0  0  0  0  0
  185.7110  177.0690  145.6620 C   0  0  0  0  0  2  0  0  0  0  0  0
  184.0830  178.4740  146.9140 C   0  0  0  0  0  2  0  0  0  0  0  0
  183.6290  179.0560  145.6040 C   0  0  0  0  0  3  0  0  0  0  0  0
  185.8970  177.3830  148.0200 O   0  0  0  0  0  1  0  0  0  0  0  0
  188.1340  175.5240  141.5710 C   0  0  0  0  0  0  0  0  0  0  0  0
  188.3440  174.6470  140.8450 N   0  0  0  0  0  0  0  0  0  0  0  0
  2  1  1  6  0  0  0
  2  3  1  0  0  0  0
  5  2  1  0  0  0  0
  5  4  1  1  0  0  0
  6 14  1  0  0  0  0
  7  8  1  0  0  0  0
  8 13  2  0  0  0  0
  8  9  1  0  0  0  0
  9 11  2  0  0  0  0
 10 13  1  0  0  0  0
 11  6  1  0  0  0  0
 11  5  1  0  0  0  0
 12 15  1  0  0  0  0
 12  6  2  0  0  0  0
 13 12  1  0  0  0  0
 16 15  1  0  0  0  0
 16 20  1  0  0  0  0
 17 18  1  0  0  0  0
 18 20  1  0  0  0  0
 19 16  2  0  0  0  0
 21 22  1  6  0  0  0
 21 19  1  0  0  0  0
 21 17  1  0  0  0  0
 23 22  1  0  0  0  0
 25 24  2  1  0  0  0
 25 23  1  0  0  0  0
 26 27  1  0  0  0  0
 27 25  1  0  0  0  0
 28  2  1  0  0  0  0
 28 29  1  0  0  0  0
 30 29  1  6  0  0  0
 30 32  1  0  0  0  0
 31 34  1  0  0  0  0
 33 32  1  0  0  0  0
 34 36  1  0  0  0  0
 35 31  1  6  0  0  0
 35 33  1  0  0  0  0
 36 30  1  0  0  0  0
 38 37  1  0  0  0  0
 38 41  1  0  0  0  0
 40 37  1  1  0  0  0
 40 39  1  0  0  0  0
 40 42  1  0  0  0  0
 41 49  1  6  0  0  0
 41 39  1  0  0  0  0
 41 35  1  0  0  0  0
 42 43  1  0  0  0  0
 42 45  1  0  0  0  0
 43 47  2  0  0  0  0
 44 46  1  0  0  0  0
 44 48  1  1  0  0  0
 45 44  1  0  0  0  0
 47 46  1  0  0  0  0
 50 49  3  0  0  0  0
M  END
>  <MODEL>
5

>  <REMARK>
 VINA RESULT:      -6.8      1.697      3.181
  Name = 
  14 active torsions:
  status: ('A' for Active; 'I' for Inactive)
    1  A    between atoms: C_2  and  S_11
    2  A    between atoms: N_6  and  C_21
    3  A    between atoms: S_11  and  C_36
    4  A    between atoms: C_14  and  C_28
    5  A    between atoms: C_14  and  C_34
    6  A    between atoms: C_15  and  C_24
    7  A    between atoms: C_15  and  C_28
    8  A    between atoms: C_16  and  C_22
    9  A    between atoms: C_16  and  C_50
   10  A    between atoms: C_22  and  S_23
   11  A    between atoms: S_23  and  C_42
   12  A    between atoms: C_33  and  C_34
   13  A    between atoms: C_38  and  C_47
   14  A    between atoms: C_43  and  C_47
                            x       y       z     vdW  Elec       q    Type
                         _______ _______ _______ _____ _____    ______ ____

>  <TORSDO>
F 14

$$$$
=
 OpenBabel11062420533D

 50 54  0  0  1  0  0  0  0  0999 V2000
  191.0200  176.3760  145.7740 C   0  0  0  0  0  1  0  0  0  0  0  0
  192.2850  175.5360  145.8830 C   0  0  2  0  0  0  0  0  0  0  0  0
  192.3510  174.9790  147.2260 N   0  0  0  0  0  1  0  0  0  0  0  0
  194.0960  176.8090  146.8810 O   0  0  0  0  0  1  0  0  0  0  0  0
  193.5240  176.4260  145.6610 C   0  0  1  0  0  3  0  0  0  0  0  0
  194.5030  176.0630  143.3670 C   0  0  0  0  0  0  0  0  0  0  0  0
  197.7240  173.7630  145.0290 C   0  0  0  0  0  1  0  0  0  0  0  0
  196.6140  174.5590  144.4360 C   0  0  0  0  0  0  0  0  0  0  0  0
  195.6300  175.0850  145.2760 C   0  0  0  0  0  3  0  0  0  0  0  0
  197.5370  174.2760  142.2150 O   0  0  0  0  0  1  0  0  0  0  0  0
  194.5730  175.8390  144.7510 C   0  0  0  0  0  0  0  0  0  0  0  0
  195.4940  175.5450  142.5180 C   0  0  0  0  0  0  0  0  0  0  0  0
  196.5520  174.7910  143.0530 C   0  0  0  0  0  0  0  0  0  0  0  0
  193.4800  176.7910  142.8510 F   0  0  0  0  0  0  0  0  0  0  0  0
  195.4090  175.8540  140.7480 S   0  0  0  0  0  0  0  0  0  0  0  0
  194.2940  174.4790  140.4630 C   0  0  0  0  0  0  0  0  0  0  0  0
  192.0860  172.7510  140.2010 C   0  0  0  0  0  2  0  0  0  0  0  0
  193.1470  172.3500  141.2070 C   0  0  0  0  0  2  0  0  0  0  0  0
  193.7080  174.3730  139.3150 N   0  0  0  0  0  0  0  0  0  0  0  0
  193.9570  173.5730  141.6240 C   0  0  0  0  0  2  0  0  0  0  0  0
  192.8000  173.2960  138.9690 C   0  0  2  0  0  3  0  0  0  0  0  0
  191.7980  173.7840  137.9350 C   0  0  0  0  0  2  0  0  0  0  0  0
  191.0450  172.6180  137.3150 C   0  0  0  0  0  2  0  0  0  0  0  0
  190.2290  174.2900  135.4800 O   0  0  0  0  0  0  0  0  0  0  0  0
  189.6300  173.2130  136.3710 S   0  0  2  0  0  0  0  0  0  0  0  0
  188.3320  173.3310  138.6420 O   0  0  0  0  0  1  0  0  0  0  0  0
  188.6810  174.1550  137.5750 C   0  0  0  0  0  2  0  0  0  0  0  0
  192.2440  174.3980  144.8540 C   0  0  0  0  0  2  0  0  0  0  0  0
  190.9140  173.6490  144.8520 C   0  0  0  0  0  2  0  0  0  0  0  0
  190.3880  173.4800  143.4360 C   0  0  2  0  0  3  0  0  0  0  0  0
  187.4890  174.3380  142.0000 C   0  0  0  0  0  2  0  0  0  0  0  0
  190.5780  174.7890  142.6610 C   0  0  0  0  0  2  0  0  0  0  0  0
  189.4250  175.7710  142.8310 C   0  0  0  0  0  2  0  0  0  0  0  0
  188.2660  173.0330  142.0980 C   0  0  0  0  0  2  0  0  0  0  0  0
  188.3940  175.5500  141.7210 C   0  0  2  0  0  3  0  0  0  0  0  0
  188.9440  172.9500  143.4570 C   0  0  0  0  0  2  0  0  0  0  0  0
  188.1210  178.5630  142.9500 C   0  0  0  0  0  2  0  0  0  0  0  0
  188.4740  178.0490  141.5980 C   0  0  0  0  0  2  0  0  0  0  0  0
  186.5050  176.9240  142.3350 O   0  0  0  0  0  0  0  0  0  0  0  0
  186.7080  178.0680  143.1310 C   0  0  1  0  0  3  0  0  0  0  0  0
  187.5840  176.8320  141.4270 C   0  0  2  0  0  0  0  0  0  0  0  0
  186.4410  177.7630  144.5320 N   0  0  0  0  0  0  0  0  0  0  0  0
  187.2840  176.8150  145.2010 C   0  0  0  0  0  3  0  0  0  0  0  0
  184.8210  177.5730  146.3720 C   0  0  1  0  0  3  0  0  0  0  0  0
  185.3600  178.4540  145.2480 C   0  0  0  0  0  2  0  0  0  0  0  0
  185.9760  177.1500  147.2760 C   0  0  0  0  0  2  0  0  0  0  0  0
  187.0690  176.4910  146.4790 C   0  0  0  0  0  3  0  0  0  0  0  0
  183.8820  178.2860  147.1140 O   0  0  0  0  0  1  0  0  0  0  0  0
  187.0490  176.8240  140.0550 C   0  0  0  0  0  0  0  0  0  0  0  0
  186.6290  176.8170  138.9760 N   0  0  0  0  0  0  0  0  0  0  0  0
  2  1  1  6  0  0  0
  2  3  1  0  0  0  0
  5  2  1  0  0  0  0
  5  4  1  1  0  0  0
  6 11  1  0  0  0  0
  8  7  1  0  0  0  0
  8  9  1  0  0  0  0
 10 13  1  0  0  0  0
 11  9  2  0  0  0  0
 11  5  1  0  0  0  0
 12 13  1  0  0  0  0
 12  6  2  0  0  0  0
 13  8  2  0  0  0  0
 14  6  1  0  0  0  0
 15 12  1  0  0  0  0
 16 15  1  0  0  0  0
 16 20  1  0  0  0  0
 17 18  1  0  0  0  0
 18 20  1  0  0  0  0
 19 16  2  0  0  0  0
 21 22  1  6  0  0  0
 21 19  1  0  0  0  0
 21 17  1  0  0  0  0
 23 22  1  0  0  0  0
 25 24  2  6  0  0  0
 25 23  1  0  0  0  0
 25 27  1  0  0  0  0
 27 26  1  0  0  0  0
 28  2  1  0  0  0  0
 29 28  1  0  0  0  0
 30 36  1  0  0  0  0
 30 29  1  1  0  0  0
 31 34  1  0  0  0  0
 32 33  1  0  0  0  0
 32 30  1  0  0  0  0
 34 36  1  0  0  0  0
 35 31  1  1  0  0  0
 35 33  1  0  0  0  0
 38 37  1  0  0  0  0
 39 40  1  0  0  0  0
 40 37  1  1  0  0  0
 40 42  1  0  0  0  0
 41 49  1  6  0  0  0
 41 38  1  0  0  0  0
 41 35  1  0  0  0  0
 41 39  1  0  0  0  0
 42 43  1  0  0  0  0
 42 45  1  0  0  0  0
 43 47  2  0  0  0  0
 44 48  1  1  0  0  0
 44 46  1  0  0  0  0
 45 44  1  0  0  0  0
 47 46  1  0  0  0  0
 50 49  3  0  0  0  0
M  END
>  <MODEL>
6

>  <REMARK>
 VINA RESULT:      -6.7      2.292      4.430
  Name = 
  14 active torsions:
  status: ('A' for Active; 'I' for Inactive)
    1  A    between atoms: C_2  and  S_11
    2  A    between atoms: N_6  and  C_21
    3  A    between atoms: S_11  and  C_36
    4  A    between atoms: C_14  and  C_28
    5  A    between atoms: C_14  and  C_34
    6  A    between atoms: C_15  and  C_24
    7  A    between atoms: C_15  and  C_28
    8  A    between atoms: C_16  and  C_22
    9  A    between atoms: C_16  and  C_50
   10  A    between atoms: C_22  and  S_23
   11  A    between atoms: S_23  and  C_42
   12  A    between atoms: C_33  and  C_34
   13  A    between atoms: C_38  and  C_47
   14  A    between atoms: C_43  and  C_47
                            x       y       z     vdW  Elec       q    Type
                         _______ _______ _______ _____ _____    ______ ____

>  <TORSDO>
F 14

$$$$
=
 OpenBabel11062420533D

 50 54  0  0  1  0  0  0  0  0999 V2000
  188.0430  174.9130  139.5190 C   0  0  0  0  0  1  0  0  0  0  0  0
  188.6660  173.6900  140.1780 C   0  0  2  0  0  0  0  0  0  0  0  0
  188.2020  172.5030  139.4740 N   0  0  0  0  0  1  0  0  0  0  0  0
  187.8150  172.2940  141.9730 O   0  0  0  0  0  1  0  0  0  0  0  0
  188.2060  173.5980  141.6460 C   0  0  1  0  0  3  0  0  0  0  0  0
  189.1910  175.4740  143.0110 C   0  0  0  0  0  0  0  0  0  0  0  0
  191.9910  172.7740  144.8290 C   0  0  0  0  0  1  0  0  0  0  0  0
  191.0260  173.7240  144.2090 C   0  0  0  0  0  0  0  0  0  0  0  0
  190.1200  173.2500  143.2580 C   0  0  0  0  0  3  0  0  0  0  0  0
  191.9080  175.5530  145.5290 O   0  0  0  0  0  1  0  0  0  0  0  0
  189.1980  174.1160  142.6550 C   0  0  0  0  0  0  0  0  0  0  0  0
  190.0930  175.9560  143.9740 C   0  0  0  0  0  0  0  0  0  0  0  0
  191.0130  175.0790  144.5730 C   0  0  0  0  0  0  0  0  0  0  0  0
  188.3020  176.3200  142.4300 F   0  0  0  0  0  0  0  0  0  0  0  0
  190.0630  177.6930  144.4390 S   0  0  0  0  0  0  0  0  0  0  0  0
  188.5140  177.5290  145.3270 C   0  0  0  0  0  0  0  0  0  0  0  0
  186.2340  177.8680  146.9460 C   0  0  0  0  0  2  0  0  0  0  0  0
  187.1500  176.7100  147.2950 C   0  0  0  0  0  2  0  0  0  0  0  0
  187.4360  178.0180  144.8060 N   0  0  0  0  0  0  0  0  0  0  0  0
  188.5430  176.9590  146.7260 C   0  0  0  0  0  2  0  0  0  0  0  0
  186.1280  177.9310  145.4270 C   0  0  2  0  0  3  0  0  0  0  0  0
  185.2760  179.1130  144.9930 C   0  0  0  0  0  2  0  0  0  0  0  0
  185.3860  179.3430  143.4940 C   0  0  0  0  0  2  0  0  0  0  0  0
  185.3090  176.8650  142.6670 O   0  0  0  0  0  0  0  0  0  0  0  0
  184.4330  178.1070  142.5950 S   0  0  2  0  0  0  0  0  0  0  0  0
  183.4960  178.1410  140.1510 O   0  0  0  0  0  1  0  0  0  0  0  0
  184.5840  178.6190  140.8770 C   0  0  0  0  0  2  0  0  0  0  0  0
  190.1950  173.7760  140.0930 C   0  0  0  0  0  2  0  0  0  0  0  0
  190.7810  172.8610  139.0190 C   0  0  0  0  0  2  0  0  0  0  0  0
  191.9690  172.0810  139.5590 C   0  0  2  0  0  3  0  0  0  0  0  0
  195.2250  172.1270  138.7820 C   0  0  0  0  0  2  0  0  0  0  0  0
  192.7190  172.9390  140.5850 C   0  0  0  0  0  2  0  0  0  0  0  0
  193.7690  173.8530  139.9630 C   0  0  0  0  0  2  0  0  0  0  0  0
  194.1820  171.0210  138.8740 C   0  0  0  0  0  2  0  0  0  0  0  0
  195.1220  173.1370  139.9370 C   0  0  2  0  0  3  0  0  0  0  0  0
  192.8370  171.5550  138.4040 C   0  0  0  0  0  2  0  0  0  0  0  0
  197.7800  173.7100  141.7460 C   0  0  0  0  0  2  0  0  0  0  0  0
  197.5830  173.4090  140.3010 C   0  0  0  0  0  2  0  0  0  0  0  0
  196.0600  175.1360  140.9170 O   0  0  0  0  0  0  0  0  0  0  0  0
  197.0530  175.0220  141.9080 C   0  0  1  0  0  3  0  0  0  0  0  0
  196.3000  174.1370  139.9480 C   0  0  2  0  0  0  0  0  0  0  0  0
  196.4580  175.1230  143.2360 N   0  0  0  0  0  0  0  0  0  0  0  0
  196.1800  173.9150  143.9580 C   0  0  0  0  0  3  0  0  0  0  0  0
  195.0300  176.3560  144.8130 C   0  0  1  0  0  3  0  0  0  0  0  0
  196.1970  176.4400  143.8340 C   0  0  0  0  0  2  0  0  0  0  0  0
  195.3160  175.2660  145.8430 C   0  0  0  0  0  2  0  0  0  0  0  0
  195.6200  173.9560  145.1700 C   0  0  0  0  0  3  0  0  0  0  0  0
  194.8730  177.5810  145.4580 O   0  0  0  0  0  1  0  0  0  0  0  0
  196.4660  174.7810  138.6340 C   0  0  0  0  0  0  0  0  0  0  0  0
  196.5970  175.2890  137.6010 N   0  0  0  0  0  0  0  0  0  0  0  0
  2  1  1  6  0  0  0
  2  5  1  0  0  0  0
  3  2  1  0  0  0  0
  5  4  1  1  0  0  0
  5 11  1  0  0  0  0
  6 12  1  0  0  0  0
  8 13  1  0  0  0  0
  8  7  1  0  0  0  0
  9  8  2  0  0  0  0
 11  6  2  0  0  0  0
 11  9  1  0  0  0  0
 12 15  1  0  0  0  0
 12 13  2  0  0  0  0
 13 10  1  0  0  0  0
 14  6  1  0  0  0  0
 15 16  1  0  0  0  0
 16 20  1  0  0  0  0
 17 18  1  0  0  0  0
 19 16  2  0  0  0  0
 19 21  1  0  0  0  0
 20 18  1  0  0  0  0
 21 22  1  1  0  0  0
 21 17  1  0  0  0  0
 23 22  1  0  0  0  0
 25 24  2  6  0  0  0
 25 23  1  0  0  0  0
 26 27  1  0  0  0  0
 27 25  1  0  0  0  0
 28  2  1  0  0  0  0
 29 28  1  0  0  0  0
 30 29  1  6  0  0  0
 30 32  1  0  0  0  0
 31 34  1  0  0  0  0
 33 32  1  0  0  0  0
 35 31  1  6  0  0  0
 35 41  1  0  0  0  0
 35 33  1  0  0  0  0
 36 34  1  0  0  0  0
 36 30  1  0  0  0  0
 38 37  1  0  0  0  0
 39 40  1  0  0  0  0
 40 37  1  1  0  0  0
 40 42  1  0  0  0  0
 41 49  1  6  0  0  0
 41 38  1  0  0  0  0
 41 39  1  0  0  0  0
 42 45  1  0  0  0  0
 42 43  1  0  0  0  0
 43 47  2  0  0  0  0
 44 48  1  1  0  0  0
 44 46  1  0  0  0  0
 45 44  1  0  0  0  0
 47 46  1  0  0  0  0
 50 49  3  0  0  0  0
M  END
>  <MODEL>
7

>  <REMARK>
 VINA RESULT:      -6.7      3.139      9.375
  Name = 
  14 active torsions:
  status: ('A' for Active; 'I' for Inactive)
    1  A    between atoms: C_2  and  S_11
    2  A    between atoms: N_6  and  C_21
    3  A    between atoms: S_11  and  C_36
    4  A    between atoms: C_14  and  C_28
    5  A    between atoms: C_14  and  C_34
    6  A    between atoms: C_15  and  C_24
    7  A    between atoms: C_15  and  C_28
    8  A    between atoms: C_16  and  C_22
    9  A    between atoms: C_16  and  C_50
   10  A    between atoms: C_22  and  S_23
   11  A    between atoms: S_23  and  C_42
   12  A    between atoms: C_33  and  C_34
   13  A    between atoms: C_38  and  C_47
   14  A    between atoms: C_43  and  C_47
                            x       y       z     vdW  Elec       q    Type
                         _______ _______ _______ _____ _____    ______ ____

>  <TORSDO>
F 14

$$$$
=
 OpenBabel11062420533D

 50 54  0  0  1  0  0  0  0  0999 V2000
  189.5670  171.4790  138.5120 C   0  0  0  0  0  1  0  0  0  0  0  0
  190.6870  172.4850  138.7380 C   0  0  2  0  0  0  0  0  0  0  0  0
  190.2590  173.7740  138.2160 N   0  0  0  0  0  1  0  0  0  0  0  0
  192.1210  172.7940  136.8020 O   0  0  0  0  0  1  0  0  0  0  0  0
  191.9490  172.0420  137.9700 C   0  0  1  0  0  3  0  0  0  0  0  0
  193.8470  173.2520  139.1040 C   0  0  0  0  0  0  0  0  0  0  0  0
  195.4890  169.5320  140.4810 C   0  0  0  0  0  1  0  0  0  0  0  0
  194.9320  170.8310  140.0120 C   0  0  0  0  0  0  0  0  0  0  0  0
  193.7680  170.8340  139.2400 C   0  0  0  0  0  3  0  0  0  0  0  0
  196.7120  172.0450  141.1210 O   0  0  0  0  0  1  0  0  0  0  0  0
  193.2180  172.0390  138.7840 C   0  0  0  0  0  0  0  0  0  0  0  0
  195.0120  173.2570  139.8880 C   0  0  0  0  0  0  0  0  0  0  0  0
  195.5570  172.0440  140.3420 C   0  0  0  0  0  0  0  0  0  0  0  0
  193.3210  174.4240  138.6640 F   0  0  0  0  0  0  0  0  0  0  0  0
  195.8010  174.8180  140.3120 S   0  0  0  0  0  0  0  0  0  0  0  0
  194.8750  174.9830  141.8380 C   0  0  0  0  0  0  0  0  0  0  0  0
  193.2050  174.6450  144.0810 C   0  0  0  0  0  2  0  0  0  0  0  0
  192.8720  175.7960  143.1520 C   0  0  0  0  0  2  0  0  0  0  0  0
  195.3740  174.5020  142.9300 N   0  0  0  0  0  0  0  0  0  0  0  0
  193.4740  175.5450  141.7740 C   0  0  0  0  0  2  0  0  0  0  0  0
  194.7220  174.5910  144.2230 C   0  0  2  0  0  3  0  0  0  0  0  0
  195.1420  173.4160  145.0900 C   0  0  0  0  0  2  0  0  0  0  0  0
  193.9600  172.5070  145.3870 C   0  0  0  0  0  2  0  0  0  0  0  0
  195.5820  170.8240  144.2200 O   0  0  0  0  0  0  0  0  0  0  0  0
  194.4360  170.7780  145.2190 S   0  0  2  0  0  0  0  0  0  0  0  0
  193.0900  170.5880  142.9810 O   0  0  0  0  0  1  0  0  0  0  0  0
  193.0900  170.0560  144.2680 C   0  0  0  0  0  2  0  0  0  0  0  0
  190.9810  172.6080  140.2390 C   0  0  0  0  0  2  0  0  0  0  0  0
  190.2680  173.7930  140.8860 C   0  0  0  0  0  2  0  0  0  0  0  0
  189.4560  173.3460  142.0910 C   0  0  2  0  0  3  0  0  0  0  0  0
  189.9210  173.7320  145.3830 C   0  0  0  0  0  2  0  0  0  0  0  0
  188.5940  174.5130  142.5870 C   0  0  0  0  0  2  0  0  0  0  0  0
  189.3140  175.4230  143.5760 C   0  0  0  0  0  2  0  0  0  0  0  0
  189.6700  172.5230  144.4920 C   0  0  0  0  0  2  0  0  0  0  0  0
  189.0490  174.9410  145.0050 C   0  0  2  0  0  3  0  0  0  0  0  0
  190.3720  172.7240  143.1580 C   0  0  0  0  0  2  0  0  0  0  0  0
  187.1080  176.4690  147.1410 C   0  0  0  0  0  2  0  0  0  0  0  0
  188.3940  175.7330  147.2870 C   0  0  0  0  0  2  0  0  0  0  0  0
  188.6150  177.2690  145.4770 O   0  0  0  0  0  0  0  0  0  0  0  0
  187.4910  177.6230  146.2480 C   0  0  1  0  0  3  0  0  0  0  0  0
  189.1640  176.0910  146.0300 C   0  0  2  0  0  0  0  0  0  0  0  0
  186.3800  177.9980  145.3820 N   0  0  0  0  0  0  0  0  0  0  0  0
  185.1470  178.4150  145.9860 C   0  0  0  0  0  3  0  0  0  0  0  0
  185.2020  177.7380  143.2390 C   0  0  1  0  0  3  0  0  0  0  0  0
  186.5430  177.9930  143.9210 C   0  0  0  0  0  2  0  0  0  0  0  0
  184.1840  178.7630  143.7340 C   0  0  0  0  0  2  0  0  0  0  0  0
  184.0960  178.7520  145.2350 C   0  0  0  0  0  3  0  0  0  0  0  0
  185.3510  177.8540  141.8590 O   0  0  0  0  0  1  0  0  0  0  0  0
  190.5690  176.3470  146.3900 C   0  0  0  0  0  0  0  0  0  0  0  0
  191.6740  176.5480  146.6730 N   0  0  0  0  0  0  0  0  0  0  0  0
  2  1  1  6  0  0  0
  2 28  1  0  0  0  0
  3  2  1  0  0  0  0
  5  4  1  6  0  0  0
  5  2  1  0  0  0  0
  5 11  1  0  0  0  0
  6 12  1  0  0  0  0
  8 13  1  0  0  0  0
  8  7  1  0  0  0  0
  9  8  2  0  0  0  0
 11  6  2  0  0  0  0
 11  9  1  0  0  0  0
 12 15  1  0  0  0  0
 12 13  2  0  0  0  0
 13 10  1  0  0  0  0
 14  6  1  0  0  0  0
 15 16  1  0  0  0  0
 16 19  2  0  0  0  0
 17 21  1  0  0  0  0
 18 17  1  0  0  0  0
 19 21  1  0  0  0  0
 20 16  1  0  0  0  0
 20 18  1  0  0  0  0
 21 22  1  1  0  0  0
 22 23  1  0  0  0  0
 25 24  2  6  0  0  0
 25 23  1  0  0  0  0
 26 27  1  0  0  0  0
 27 25  1  0  0  0  0
 28 29  1  0  0  0  0
 30 29  1  6  0  0  0
 30 32  1  0  0  0  0
 30 36  1  0  0  0  0
 32 33  1  0  0  0  0
 34 31  1  0  0  0  0
 35 33  1  6  0  0  0
 35 31  1  0  0  0  0
 35 41  1  0  0  0  0
 36 34  1  0  0  0  0
 37 38  1  0  0  0  0
 39 41  1  0  0  0  0
 39 40  1  0  0  0  0
 40 42  1  6  0  0  0
 40 37  1  0  0  0  0
 41 49  1  1  0  0  0
 41 38  1  0  0  0  0
 42 43  1  0  0  0  0
 44 48  1  6  0  0  0
 44 46  1  0  0  0  0
 44 45  1  0  0  0  0
 45 42  1  0  0  0  0
 46 47  1  0  0  0  0
 47 43  2  0  0  0  0
 49 50  3  0  0  0  0
M  END
>  <MODEL>
8

>  <REMARK>
 VINA RESULT:      -6.7      2.398      5.285
  Name = 
  14 active torsions:
  status: ('A' for Active; 'I' for Inactive)
    1  A    between atoms: C_2  and  S_11
    2  A    between atoms: N_6  and  C_21
    3  A    between atoms: S_11  and  C_36
    4  A    between atoms: C_14  and  C_28
    5  A    between atoms: C_14  and  C_34
    6  A    between atoms: C_15  and  C_24
    7  A    between atoms: C_15  and  C_28
    8  A    between atoms: C_16  and  C_22
    9  A    between atoms: C_16  and  C_50
   10  A    between atoms: C_22  and  S_23
   11  A    between atoms: S_23  and  C_42
   12  A    between atoms: C_33  and  C_34
   13  A    between atoms: C_38  and  C_47
   14  A    between atoms: C_43  and  C_47
                            x       y       z     vdW  Elec       q    Type
                         _______ _______ _______ _____ _____    ______ ____

>  <TORSDO>
F 14

$$$$
=
 OpenBabel11062420533D

 50 54  0  0  1  0  0  0  0  0999 V2000
  193.7560  176.5160  144.2500 C   0  0  0  0  0  1  0  0  0  0  0  0
  194.2940  175.1930  144.7780 C   0  0  2  0  0  0  0  0  0  0  0  0
  194.0090  175.1170  146.2030 N   0  0  0  0  0  1  0  0  0  0  0  0
  196.4580  174.6130  145.7130 O   0  0  0  0  0  1  0  0  0  0  0  0
  195.8220  175.1360  144.5810 C   0  0  1  0  0  3  0  0  0  0  0  0
  196.3260  175.0850  142.1120 C   0  0  0  0  0  0  0  0  0  0  0  0
  197.5120  170.9670  142.3680 C   0  0  0  0  0  1  0  0  0  0  0  0
  197.1050  172.3960  142.2620 C   0  0  0  0  0  0  0  0  0  0  0  0
  196.6640  173.0650  143.4060 C   0  0  0  0  0  3  0  0  0  0  0  0
  197.6160  172.4120  139.8940 O   0  0  0  0  0  1  0  0  0  0  0  0
  196.2750  174.4090  143.3410 C   0  0  0  0  0  0  0  0  0  0  0  0
  196.7780  174.4210  140.9600 C   0  0  0  0  0  0  0  0  0  0  0  0
  197.1670  173.0740  141.0340 C   0  0  0  0  0  0  0  0  0  0  0  0
  195.9480  176.3870  142.0410 F   0  0  0  0  0  0  0  0  0  0  0  0
  196.8600  175.3020  139.3930 S   0  0  0  0  0  0  0  0  0  0  0  0
  195.1860  174.8480  138.9390 C   0  0  0  0  0  0  0  0  0  0  0  0
  192.8470  173.6040  137.9820 C   0  0  0  0  0  2  0  0  0  0  0  0
  193.1920  174.9550  137.3840 C   0  0  0  0  0  2  0  0  0  0  0  0
  194.5030  174.0910  139.7340 N   0  0  0  0  0  0  0  0  0  0  0  0
  194.6780  175.2420  137.5720 C   0  0  0  0  0  2  0  0  0  0  0  0
  193.1380  173.6730  139.4760 C   0  0  2  0  0  3  0  0  0  0  0  0
  192.8790  172.3300  140.1400 C   0  0  0  0  0  2  0  0  0  0  0  0
  192.1480  171.3880  139.1960 C   0  0  0  0  0  2  0  0  0  0  0  0
  189.8620  172.5760  139.6360 O   0  0  0  0  0  0  0  0  0  0  0  0
  190.4390  171.1710  139.7230 S   0  0  2  0  0  0  0  0  0  0  0  0
  191.0720  169.6100  141.7270 O   0  0  0  0  0  1  0  0  0  0  0  0
  190.5710  170.8890  141.4950 C   0  0  0  0  0  2  0  0  0  0  0  0
  193.6100  174.0270  144.0520 C   0  0  0  0  0  2  0  0  0  0  0  0
  192.6050  174.4910  143.0010 C   0  0  0  0  0  2  0  0  0  0  0  0
  191.1960  174.0480  143.3630 C   0  0  2  0  0  3  0  0  0  0  0  0
  189.3120  174.5540  146.0820 C   0  0  0  0  0  2  0  0  0  0  0  0
  190.2150  175.1940  143.0890 C   0  0  0  0  0  2  0  0  0  0  0  0
  190.0690  176.1630  144.2570 C   0  0  0  0  0  2  0  0  0  0  0  0
  189.7400  173.3090  145.3170 C   0  0  0  0  0  2  0  0  0  0  0  0
  188.9130  175.7140  145.1550 C   0  0  2  0  0  3  0  0  0  0  0  0
  191.1570  173.4970  144.7980 C   0  0  0  0  0  2  0  0  0  0  0  0
  185.9300  176.8490  145.8450 C   0  0  0  0  0  2  0  0  0  0  0  0
  187.0750  176.4260  146.6970 C   0  0  0  0  0  2  0  0  0  0  0  0
  187.9010  177.9030  145.0170 O   0  0  0  0  0  0  0  0  0  0  0  0
  186.5000  178.0250  145.0910 C   0  0  1  0  0  3  0  0  0  0  0  0
  188.2950  176.8990  145.9300 C   0  0  2  0  0  0  0  0  0  0  0  0
  185.9280  178.1090  143.7520 N   0  0  0  0  0  0  0  0  0  0  0  0
  184.5030  178.2140  143.6190 C   0  0  0  0  0  3  0  0  0  0  0  0
  186.0770  177.5510  141.3620 C   0  0  1  0  0  3  0  0  0  0  0  0
  186.8020  178.1330  142.5720 C   0  0  0  0  0  2  0  0  0  0  0  0
  184.7600  178.2970  141.1590 C   0  0  0  0  0  2  0  0  0  0  0  0
  183.9310  178.2760  142.4140 C   0  0  0  0  0  3  0  0  0  0  0  0
  186.8740  177.6910  140.2280 O   0  0  0  0  0  1  0  0  0  0  0  0
  189.2600  177.4760  146.8820 C   0  0  0  0  0  0  0  0  0  0  0  0
  190.0190  177.9300  147.6290 N   0  0  0  0  0  0  0  0  0  0  0  0
  2  1  1  6  0  0  0
  2  3  1  0  0  0  0
  5  2  1  0  0  0  0
  5  4  1  1  0  0  0
  6 11  1  0  0  0  0
  8  7  1  0  0  0  0
  8  9  1  0  0  0  0
 10 13  1  0  0  0  0
 11  9  2  0  0  0  0
 11  5  1  0  0  0  0
 12 13  1  0  0  0  0
 12  6  2  0  0  0  0
 13  8  2  0  0  0  0
 14  6  1  0  0  0  0
 15 12  1  0  0  0  0
 16 15  1  0  0  0  0
 16 19  2  0  0  0  0
 17 21  1  0  0  0  0
 18 20  1  0  0  0  0
 18 17  1  0  0  0  0
 20 16  1  0  0  0  0
 21 19  1  0  0  0  0
 21 22  1  6  0  0  0
 23 25  1  0  0  0  0
 23 22  1  0  0  0  0
 25 24  2  1  0  0  0
 25 27  1  0  0  0  0
 27 26  1  0  0  0  0
 28  2  1  0  0  0  0
 29 28  1  0  0  0  0
 30 29  1  1  0  0  0
 30 36  1  0  0  0  0
 32 30  1  0  0  0  0
 32 33  1  0  0  0  0
 34 31  1  0  0  0  0
 35 33  1  1  0  0  0
 35 41  1  0  0  0  0
 35 31  1  0  0  0  0
 36 34  1  0  0  0  0
 37 38  1  0  0  0  0
 39 40  1  0  0  0  0
 39 41  1  0  0  0  0
 40 42  1  6  0  0  0
 40 37  1  0  0  0  0
 41 38  1  0  0  0  0
 41 49  1  1  0  0  0
 43 42  1  0  0  0  0
 44 48  1  6  0  0  0
 44 45  1  0  0  0  0
 45 42  1  0  0  0  0
 46 44  1  0  0  0  0
 46 47  1  0  0  0  0
 47 43  2  0  0  0  0
 49 50  3  0  0  0  0
M  END
>  <MODEL>
9

>  <REMARK>
 VINA RESULT:      -6.6      2.155      3.260
  Name = 
  14 active torsions:
  status: ('A' for Active; 'I' for Inactive)
    1  A    between atoms: C_2  and  S_11
    2  A    between atoms: N_6  and  C_21
    3  A    between atoms: S_11  and  C_36
    4  A    between atoms: C_14  and  C_28
    5  A    between atoms: C_14  and  C_34
    6  A    between atoms: C_15  and  C_24
    7  A    between atoms: C_15  and  C_28
    8  A    between atoms: C_16  and  C_22
    9  A    between atoms: C_16  and  C_50
   10  A    between atoms: C_22  and  S_23
   11  A    between atoms: S_23  and  C_42
   12  A    between atoms: C_33  and  C_34
   13  A    between atoms: C_38  and  C_47
   14  A    between atoms: C_43  and  C_47
                            x       y       z     vdW  Elec       q    Type
                         _______ _______ _______ _____ _____    ______ ____

>  <TORSDO>
F 14

$$$$
