=
 OpenBabel11062423103D

 28 32  0  0  0  0  0  0  0  0999 V2000
  186.2630  177.2770  145.2570 C   0  0  0  0  0  0  0  0  0  0  0  0
  184.3920  178.3760  144.1490 C   0  0  0  0  0  0  0  0  0  0  0  0
  187.8330  175.9540  143.9210 C   0  0  0  0  0  0  0  0  0  0  0  0
  188.1530  176.1490  146.3260 C   0  0  0  0  0  3  0  0  0  0  0  0
  184.3530  178.1890  146.5970 C   0  0  0  0  0  2  0  0  0  0  0  0
  187.1170  176.2770  142.7620 C   0  0  0  0  0  3  0  0  0  0  0  0
  183.9200  178.8130  145.3890 O   0  0  0  0  0  0  0  0  0  0  0  0
  189.6970  174.8390  145.0000 C   0  0  0  0  0  3  0  0  0  0  0  0
  187.4120  176.4640  145.1770 C   0  0  0  0  0  0  0  0  0  0  0  0
  185.2910  177.4280  141.6690 C   0  0  0  0  0  3  0  0  0  0  0  0
  188.9770  175.1420  143.8430 C   0  0  0  0  0  0  0  0  0  0  0  0
  184.1630  178.2510  141.7390 C   0  0  0  0  0  0  0  0  0  0  0  0
  185.9850  177.0870  142.8340 C   0  0  0  0  0  0  0  0  0  0  0  0
  183.7130  178.7230  142.9770 C   0  0  0  0  0  3  0  0  0  0  0  0
  189.2920  175.3440  146.2380 C   0  0  0  0  0  0  0  0  0  0  0  0
  185.5470  177.5770  144.0820 C   0  0  0  0  0  0  0  0  0  0  0  0
  185.8580  177.9280  146.5590 C   0  0  0  0  0  2  0  0  0  0  0  0
  183.4860  178.5960  140.5800 O   0  0  0  0  0  1  0  0  0  0  0  0
  189.4070  174.6320  142.6220 O   0  0  0  0  0  1  0  0  0  0  0  0
  190.0590  175.0030  147.4680 C   0  0  0  0  0  2  0  0  0  0  0  0
  191.2180  175.9660  147.6430 C   0  0  0  0  0  2  0  0  0  0  0  0
  192.4590  175.3840  147.0020 C   0  0  0  0  0  2  0  0  0  0  0  0
  193.2110  176.4790  146.2710 C   0  0  0  0  0  2  0  0  0  0  0  0
  193.2270  175.6190  143.9300 C   0  0  0  0  0  3  0  0  0  0  0  0
  192.6660  176.0300  142.7370 C   0  0  0  0  0  3  0  0  0  0  0  0
  191.9400  177.1480  142.9510 N   0  0  0  0  0  0  0  0  0  0  0  0
  192.8300  176.4920  144.8700 N   0  0  0  0  0  0  0  0  0  0  0  0
  192.0620  177.4110  144.2660 C   0  0  0  0  0  3  0  0  0  0  0  0
  1 17  1  0  0  0  0
  2  7  1  0  0  0  0
  3  9  1  0  0  0  0
  6 13  2  0  0  0  0
  6  3  1  0  0  0  0
  7  5  1  0  0  0  0
  8 15  2  0  0  0  0
  9  1  1  0  0  0  0
  9  4  2  0  0  0  0
 10 12  2  0  0  0  0
 10 13  1  0  0  0  0
 11  3  2  0  0  0  0
 11  8  1  0  0  0  0
 12 14  1  0  0  0  0
 13 16  1  0  0  0  0
 14  2  2  0  0  0  0
 15  4  1  0  0  0  0
 15 20  1  0  0  0  0
 16  2  1  0  0  0  0
 16  1  2  0  0  0  0
 17  5  1  0  0  0  0
 18 12  1  0  0  0  0
 19 11  1  0  0  0  0
 20 21  1  0  0  0  0
 22 21  1  0  0  0  0
 23 22  1  0  0  0  0
 24 27  1  0  0  0  0
 25 26  1  0  0  0  0
 25 24  2  0  0  0  0
 26 28  2  0  0  0  0
 27 23  1  0  0  0  0
 28 27  1  0  0  0  0
M  END
>  <MODEL>
1

>  <REMARK>
 VINA RESULT:      -8.1      0.000      0.000
  Name = 
  5 active torsions:
  status: ('A' for Active; 'I' for Inactive)
    1  A    between atoms: C_3  and  C_4
    2  A    between atoms: C_3  and  C_23
    3  A    between atoms: C_4  and  N_22
    4  A    between atoms: C_11  and  C_21
    5  A    between atoms: C_11  and  C_23
                            x       y       z     vdW  Elec       q    Type
                         _______ _______ _______ _____ _____    ______ ____

>  <TORSDO>
F 5

$$$$
=
 OpenBabel11062423103D

 28 32  0  0  0  0  0  0  0  0999 V2000
  186.3920  177.3840  145.4330 C   0  0  0  0  0  0  0  0  0  0  0  0
  184.4260  178.4250  144.4400 C   0  0  0  0  0  0  0  0  0  0  0  0
  187.8860  176.0590  144.0130 C   0  0  0  0  0  0  0  0  0  0  0  0
  188.3750  176.3130  146.3850 C   0  0  0  0  0  3  0  0  0  0  0  0
  184.5680  178.2930  146.8880 C   0  0  0  0  0  2  0  0  0  0  0  0
  187.0820  176.3430  142.9030 C   0  0  0  0  0  3  0  0  0  0  0  0
  184.0370  178.8820  145.7020 O   0  0  0  0  0  0  0  0  0  0  0  0
  189.8440  175.0000  144.9780 C   0  0  0  0  0  3  0  0  0  0  0  0
  187.5480  176.5890  145.2860 C   0  0  0  0  0  0  0  0  0  0  0  0
  185.1610  177.4380  141.9220 C   0  0  0  0  0  3  0  0  0  0  0  0
  189.0370  175.2650  143.8690 C   0  0  0  0  0  0  0  0  0  0  0  0
  184.0260  178.2430  142.0570 C   0  0  0  0  0  0  0  0  0  0  0  0
  185.9430  177.1350  143.0400 C   0  0  0  0  0  0  0  0  0  0  0  0
  183.6580  178.7350  143.3140 C   0  0  0  0  0  3  0  0  0  0  0  0
  189.5200  175.5260  146.2310 C   0  0  0  0  0  0  0  0  0  0  0  0
  185.5870  177.6460  144.3060 C   0  0  0  0  0  0  0  0  0  0  0  0
  186.0700  178.0570  146.7460 C   0  0  0  0  0  2  0  0  0  0  0  0
  183.2600  178.5510  140.9420 O   0  0  0  0  0  1  0  0  0  0  0  0
  189.3870  174.7360  142.6310 O   0  0  0  0  0  1  0  0  0  0  0  0
  190.3810  175.2250  147.4080 C   0  0  0  0  0  2  0  0  0  0  0  0
  191.5630  176.1740  147.4450 C   0  0  0  0  0  2  0  0  0  0  0  0
  192.7720  175.4970  146.8380 C   0  0  0  0  0  2  0  0  0  0  0  0
  193.8630  176.5240  146.6070 C   0  0  0  0  0  2  0  0  0  0  0  0
  195.2610  176.5090  144.5410 C   0  0  0  0  0  3  0  0  0  0  0  0
  196.2030  175.6500  144.0070 C   0  0  0  0  0  3  0  0  0  0  0  0
  196.3780  174.6080  144.8470 N   0  0  0  0  0  0  0  0  0  0  0  0
  194.8730  175.9830  145.7130 N   0  0  0  0  0  0  0  0  0  0  0  0
  195.5470  174.8360  145.8820 C   0  0  0  0  0  3  0  0  0  0  0  0
  1 17  1  0  0  0  0
  2  7  1  0  0  0  0
  3  9  1  0  0  0  0
  6 13  2  0  0  0  0
  6  3  1  0  0  0  0
  7  5  1  0  0  0  0
  8 15  2  0  0  0  0
  9  1  1  0  0  0  0
  9  4  2  0  0  0  0
 10 12  2  0  0  0  0
 10 13  1  0  0  0  0
 11  3  2  0  0  0  0
 11  8  1  0  0  0  0
 12 14  1  0  0  0  0
 13 16  1  0  0  0  0
 14  2  2  0  0  0  0
 15  4  1  0  0  0  0
 15 20  1  0  0  0  0
 16  2  1  0  0  0  0
 16  1  2  0  0  0  0
 17  5  1  0  0  0  0
 18 12  1  0  0  0  0
 19 11  1  0  0  0  0
 20 21  1  0  0  0  0
 22 21  1  0  0  0  0
 23 22  1  0  0  0  0
 24 27  1  0  0  0  0
 25 24  2  0  0  0  0
 25 26  1  0  0  0  0
 26 28  2  0  0  0  0
 27 28  1  0  0  0  0
 27 23  1  0  0  0  0
M  END
>  <MODEL>
2

>  <REMARK>
 VINA RESULT:      -7.9      1.340      1.673
  Name = 
  5 active torsions:
  status: ('A' for Active; 'I' for Inactive)
    1  A    between atoms: C_3  and  C_4
    2  A    between atoms: C_3  and  C_23
    3  A    between atoms: C_4  and  N_22
    4  A    between atoms: C_11  and  C_21
    5  A    between atoms: C_11  and  C_23
                            x       y       z     vdW  Elec       q    Type
                         _______ _______ _______ _____ _____    ______ ____

>  <TORSDO>
F 5

$$$$
=
 OpenBabel11062423103D

 28 32  0  0  0  0  0  0  0  0999 V2000
  186.4950  177.6070  142.8910 C   0  0  0  0  0  0  0  0  0  0  0  0
  185.0840  177.8760  140.9230 C   0  0  0  0  0  0  0  0  0  0  0  0
  185.5610  178.0830  145.1050 C   0  0  0  0  0  0  0  0  0  0  0  0
  187.8750  177.3580  144.8960 C   0  0  0  0  0  3  0  0  0  0  0  0
  187.5080  177.6520  140.6010 C   0  0  0  0  0  2  0  0  0  0  0  0
  184.3270  178.3870  144.5180 C   0  0  0  0  0  3  0  0  0  0  0  0
  186.1720  177.5630  140.1060 O   0  0  0  0  0  0  0  0  0  0  0  0
  186.9480  177.8360  147.0800 C   0  0  0  0  0  3  0  0  0  0  0  0
  186.6510  177.6800  144.2910 C   0  0  0  0  0  0  0  0  0  0  0  0
  182.9210  178.5860  142.5600 C   0  0  0  0  0  3  0  0  0  0  0  0
  185.7190  178.1580  146.5000 C   0  0  0  0  0  0  0  0  0  0  0  0
  182.7540  178.4950  141.1750 C   0  0  0  0  0  0  0  0  0  0  0  0
  184.1640  178.3080  143.1360 C   0  0  0  0  0  0  0  0  0  0  0  0
  183.8340  178.1420  140.3570 C   0  0  0  0  0  3  0  0  0  0  0  0
  188.0220  177.4310  146.2840 C   0  0  0  0  0  0  0  0  0  0  0  0
  185.2500  177.9320  142.3180 C   0  0  0  0  0  0  0  0  0  0  0  0
  187.6000  177.0710  142.0100 C   0  0  0  0  0  2  0  0  0  0  0  0
  181.5160  178.7600  140.6080 O   0  0  0  0  0  1  0  0  0  0  0  0
  184.6630  178.5500  147.3170 O   0  0  0  0  0  1  0  0  0  0  0  0
  189.3310  177.1040  146.9130 C   0  0  0  0  0  2  0  0  0  0  0  0
  189.4520  175.6050  147.1160 C   0  0  0  0  0  2  0  0  0  0  0  0
  190.8020  175.2850  147.7190 C   0  0  0  0  0  2  0  0  0  0  0  0
  191.7480  176.4460  147.4840 C   0  0  0  0  0  2  0  0  0  0  0  0
  193.0800  174.7850  146.1850 C   0  0  0  0  0  3  0  0  0  0  0  0
  194.3420  174.7720  145.6230 C   0  0  0  0  0  3  0  0  0  0  0  0
  194.9380  175.9630  145.8450 N   0  0  0  0  0  0  0  0  0  0  0  0
  192.9130  175.9940  146.7420 N   0  0  0  0  0  0  0  0  0  0  0  0
  194.0400  176.6910  146.5370 C   0  0  0  0  0  3  0  0  0  0  0  0
  1  9  1  0  0  0  0
  2 16  1  0  0  0  0
  3 11  1  0  0  0  0
  4 15  2  0  0  0  0
  5 17  1  0  0  0  0
  6  3  1  0  0  0  0
  7  5  1  0  0  0  0
  7  2  1  0  0  0  0
  9  4  1  0  0  0  0
  9  3  2  0  0  0  0
 10 13  1  0  0  0  0
 11  8  2  0  0  0  0
 11 19  1  0  0  0  0
 12 10  2  0  0  0  0
 13  6  2  0  0  0  0
 14  2  2  0  0  0  0
 14 12  1  0  0  0  0
 15 20  1  0  0  0  0
 15  8  1  0  0  0  0
 16  1  2  0  0  0  0
 16 13  1  0  0  0  0
 17  1  1  0  0  0  0
 18 12  1  0  0  0  0
 20 21  1  0  0  0  0
 21 22  1  0  0  0  0
 23 22  1  0  0  0  0
 24 27  1  0  0  0  0
 25 26  1  0  0  0  0
 25 24  2  0  0  0  0
 26 28  2  0  0  0  0
 27 23  1  0  0  0  0
 28 27  1  0  0  0  0
M  END
>  <MODEL>
3

>  <REMARK>
 VINA RESULT:      -7.9      2.007      3.607
  Name = 
  5 active torsions:
  status: ('A' for Active; 'I' for Inactive)
    1  A    between atoms: C_3  and  C_4
    2  A    between atoms: C_3  and  C_23
    3  A    between atoms: C_4  and  N_22
    4  A    between atoms: C_11  and  C_21
    5  A    between atoms: C_11  and  C_23
                            x       y       z     vdW  Elec       q    Type
                         _______ _______ _______ _____ _____    ______ ____

>  <TORSDO>
F 5

$$$$
=
 OpenBabel11062423103D

 28 32  0  0  0  0  0  0  0  0999 V2000
  189.0390  175.7480  143.6100 C   0  0  0  0  0  0  0  0  0  0  0  0
  190.9540  175.1240  142.2390 C   0  0  0  0  0  0  0  0  0  0  0  0
  189.4160  176.9390  145.7170 C   0  0  0  0  0  0  0  0  0  0  0  0
  187.1480  176.3890  145.0240 C   0  0  0  0  0  3  0  0  0  0  0  0
  188.7780  174.0980  141.7440 C   0  0  0  0  0  2  0  0  0  0  0  0
  190.7950  176.9300  145.4740 C   0  0  0  0  0  3  0  0  0  0  0  0
  190.0980  174.4720  141.3480 O   0  0  0  0  0  0  0  0  0  0  0  0
  187.5280  177.5600  147.1080 C   0  0  0  0  0  3  0  0  0  0  0  0
  188.5280  176.3540  144.7760 C   0  0  0  0  0  0  0  0  0  0  0  0
  192.6800  176.3610  144.0690 C   0  0  0  0  0  3  0  0  0  0  0  0
  188.9060  177.5400  146.8810 C   0  0  0  0  0  0  0  0  0  0  0  0
  193.1900  175.7810  142.9040 C   0  0  0  0  0  0  0  0  0  0  0  0
  191.3040  176.3400  144.3180 C   0  0  0  0  0  0  0  0  0  0  0  0
  192.3290  175.1620  141.9900 C   0  0  0  0  0  3  0  0  0  0  0  0
  186.6500  176.9930  146.1820 C   0  0  0  0  0  0  0  0  0  0  0  0
  190.4300  175.7360  143.3910 C   0  0  0  0  0  0  0  0  0  0  0  0
  188.1150  175.2220  142.5370 C   0  0  0  0  0  2  0  0  0  0  0  0
  194.5540  175.8140  142.6540 O   0  0  0  0  0  1  0  0  0  0  0  0
  189.7580  178.1190  147.8160 O   0  0  0  0  0  1  0  0  0  0  0  0
  185.1840  177.0090  146.4420 C   0  0  0  0  0  2  0  0  0  0  0  0
  184.6740  178.4370  146.4680 C   0  0  0  0  0  2  0  0  0  0  0  0
  184.0750  178.7840  145.1230 C   0  0  0  0  0  2  0  0  0  0  0  0
  185.0630  179.6170  144.3290 C   0  0  0  0  0  2  0  0  0  0  0  0
  184.4360  178.3860  142.2530 C   0  0  0  0  0  3  0  0  0  0  0  0
  185.1310  177.8790  141.1720 C   0  0  0  0  0  3  0  0  0  0  0  0
  186.4440  178.1590  141.3200 N   0  0  0  0  0  0  0  0  0  0  0  0
  185.3350  178.9800  143.0520 N   0  0  0  0  0  0  0  0  0  0  0  0
  186.5400  178.8300  142.4830 C   0  0  0  0  0  3  0  0  0  0  0  0
  1  9  1  0  0  0  0
  2 16  1  0  0  0  0
  3 11  1  0  0  0  0
  4 15  2  0  0  0  0
  5 17  1  0  0  0  0
  6  3  1  0  0  0  0
  7  5  1  0  0  0  0
  7  2  1  0  0  0  0
  9  4  1  0  0  0  0
  9  3  2  0  0  0  0
 10 13  1  0  0  0  0
 11  8  2  0  0  0  0
 11 19  1  0  0  0  0
 12 10  2  0  0  0  0
 13  6  2  0  0  0  0
 14  2  2  0  0  0  0
 14 12  1  0  0  0  0
 15 20  1  0  0  0  0
 15  8  1  0  0  0  0
 16  1  2  0  0  0  0
 16 13  1  0  0  0  0
 17  1  1  0  0  0  0
 18 12  1  0  0  0  0
 20 21  1  0  0  0  0
 22 21  1  0  0  0  0
 23 22  1  0  0  0  0
 24 27  1  0  0  0  0
 25 26  1  0  0  0  0
 25 24  2  0  0  0  0
 26 28  2  0  0  0  0
 27 23  1  0  0  0  0
 28 27  1  0  0  0  0
M  END
>  <MODEL>
4

>  <REMARK>
 VINA RESULT:      -7.8      2.981      6.831
  Name = 
  5 active torsions:
  status: ('A' for Active; 'I' for Inactive)
    1  A    between atoms: C_3  and  C_4
    2  A    between atoms: C_3  and  C_23
    3  A    between atoms: C_4  and  N_22
    4  A    between atoms: C_11  and  C_21
    5  A    between atoms: C_11  and  C_23
                            x       y       z     vdW  Elec       q    Type
                         _______ _______ _______ _____ _____    ______ ____

>  <TORSDO>
F 5

$$$$
=
 OpenBabel11062423103D

 28 32  0  0  0  0  0  0  0  0999 V2000
  187.4730  177.2420  145.9250 C   0  0  0  0  0  0  0  0  0  0  0  0
  185.3100  178.2090  145.3560 C   0  0  0  0  0  0  0  0  0  0  0  0
  188.6710  175.9220  144.2440 C   0  0  0  0  0  0  0  0  0  0  0  0
  189.6440  176.2450  146.4520 C   0  0  0  0  0  3  0  0  0  0  0  0
  185.9730  178.1380  147.7190 C   0  0  0  0  0  2  0  0  0  0  0  0
  187.6410  176.1600  143.3250 C   0  0  0  0  0  3  0  0  0  0  0  0
  185.1850  178.6860  146.6630 O   0  0  0  0  0  0  0  0  0  0  0  0
  190.8200  174.9370  144.7880 C   0  0  0  0  0  3  0  0  0  0  0  0
  188.5950  176.4740  145.5490 C   0  0  0  0  0  0  0  0  0  0  0  0
  185.5240  177.1820  142.7560 C   0  0  0  0  0  3  0  0  0  0  0  0
  189.7880  175.1550  143.8720 C   0  0  0  0  0  0  0  0  0  0  0  0
  184.4190  177.9600  143.1150 C   0  0  0  0  0  0  0  0  0  0  0  0
  186.5340  176.9250  143.6880 C   0  0  0  0  0  0  0  0  0  0  0  0
  184.3120  178.4720  144.4140 C   0  0  0  0  0  3  0  0  0  0  0  0
  190.7530  175.4840  146.0720 C   0  0  0  0  0  0  0  0  0  0  0  0
  186.4400  177.4560  144.9910 C   0  0  0  0  0  0  0  0  0  0  0  0
  187.4170  177.9370  147.2650 C   0  0  0  0  0  2  0  0  0  0  0  0
  183.4250  178.2220  142.1850 O   0  0  0  0  0  1  0  0  0  0  0  0
  189.8830  174.6060  142.5980 O   0  0  0  0  0  1  0  0  0  0  0  0
  191.8530  175.2340  147.0440 C   0  0  0  0  0  2  0  0  0  0  0  0
  193.0760  174.7020  146.3220 C   0  0  0  0  0  2  0  0  0  0  0  0
  194.1650  175.7530  146.3330 C   0  0  0  0  0  2  0  0  0  0  0  0
  194.3140  176.3400  144.9430 C   0  0  0  0  0  2  0  0  0  0  0  0
  196.3050  176.6890  143.4820 C   0  0  0  0  0  3  0  0  0  0  0  0
  197.4540  175.9700  143.2120 C   0  0  0  0  0  3  0  0  0  0  0  0
  197.4510  174.8380  143.9480 N   0  0  0  0  0  0  0  0  0  0  0  0
  195.6110  175.9870  144.3920 N   0  0  0  0  0  0  0  0  0  0  0  0
  196.3080  174.8730  144.6580 C   0  0  0  0  0  3  0  0  0  0  0  0
  1 17  1  0  0  0  0
  2  7  1  0  0  0  0
  3  9  1  0  0  0  0
  6 13  2  0  0  0  0
  6  3  1  0  0  0  0
  7  5  1  0  0  0  0
  8 15  2  0  0  0  0
  9  1  1  0  0  0  0
  9  4  2  0  0  0  0
 10 12  2  0  0  0  0
 10 13  1  0  0  0  0
 11  3  2  0  0  0  0
 11  8  1  0  0  0  0
 12 14  1  0  0  0  0
 13 16  1  0  0  0  0
 14  2  2  0  0  0  0
 15  4  1  0  0  0  0
 15 20  1  0  0  0  0
 16  2  1  0  0  0  0
 16  1  2  0  0  0  0
 17  5  1  0  0  0  0
 18 12  1  0  0  0  0
 19 11  1  0  0  0  0
 21 22  1  0  0  0  0
 21 20  1  0  0  0  0
 23 22  1  0  0  0  0
 24 27  1  0  0  0  0
 25 24  2  0  0  0  0
 25 26  1  0  0  0  0
 26 28  2  0  0  0  0
 27 28  1  0  0  0  0
 27 23  1  0  0  0  0
M  END
>  <MODEL>
5

>  <REMARK>
 VINA RESULT:      -7.6      1.911      2.356
  Name = 
  5 active torsions:
  status: ('A' for Active; 'I' for Inactive)
    1  A    between atoms: C_3  and  C_4
    2  A    between atoms: C_3  and  C_23
    3  A    between atoms: C_4  and  N_22
    4  A    between atoms: C_11  and  C_21
    5  A    between atoms: C_11  and  C_23
                            x       y       z     vdW  Elec       q    Type
                         _______ _______ _______ _____ _____    ______ ____

>  <TORSDO>
F 5

$$$$
=
 OpenBabel11062423103D

 28 32  0  0  0  0  0  0  0  0999 V2000
  189.1470  177.3430  144.0370 C   0  0  0  0  0  0  0  0  0  0  0  0
  186.7630  177.8310  143.9130 C   0  0  0  0  0  0  0  0  0  0  0  0
  190.1620  176.8980  146.2220 C   0  0  0  0  0  0  0  0  0  0  0  0
  191.5370  176.8550  144.2140 C   0  0  0  0  0  3  0  0  0  0  0  0
  188.1580  178.3110  141.9490 C   0  0  0  0  0  2  0  0  0  0  0  0
  188.9120  177.0520  146.8330 C   0  0  0  0  0  3  0  0  0  0  0  0
  186.8840  178.0500  142.5380 O   0  0  0  0  0  0  0  0  0  0  0  0
  192.5350  176.4220  146.3760 C   0  0  0  0  0  3  0  0  0  0  0  0
  190.2820  177.0330  144.8140 C   0  0  0  0  0  0  0  0  0  0  0  0
  186.5340  177.4740  146.6840 C   0  0  0  0  0  3  0  0  0  0  0  0
  191.2950  176.5920  146.9950 C   0  0  0  0  0  0  0  0  0  0  0  0
  185.4010  177.7600  145.9160 C   0  0  0  0  0  0  0  0  0  0  0  0
  187.7840  177.3500  146.0690 C   0  0  0  0  0  0  0  0  0  0  0  0
  185.5150  177.9400  144.5330 C   0  0  0  0  0  3  0  0  0  0  0  0
  192.6580  176.5460  144.9900 C   0  0  0  0  0  0  0  0  0  0  0  0
  187.9000  177.5100  144.6730 C   0  0  0  0  0  0  0  0  0  0  0  0
  189.2200  177.3790  142.5290 C   0  0  0  0  0  2  0  0  0  0  0  0
  184.1610  177.8710  146.5280 O   0  0  0  0  0  1  0  0  0  0  0  0
  191.1990  176.4540  148.3760 O   0  0  0  0  0  1  0  0  0  0  0  0
  193.9880  176.3760  144.3430 C   0  0  0  0  0  2  0  0  0  0  0  0
  193.8550  175.5320  143.0900 C   0  0  0  0  0  2  0  0  0  0  0  0
  193.9890  174.0690  143.4510 C   0  0  0  0  0  2  0  0  0  0  0  0
  192.9550  173.2640  142.6880 C   0  0  0  0  0  2  0  0  0  0  0  0
  191.4010  173.1460  144.6360 C   0  0  0  0  0  3  0  0  0  0  0  0
  190.0430  173.3240  144.8110 C   0  0  0  0  0  3  0  0  0  0  0  0
  189.4820  173.6520  143.6280 N   0  0  0  0  0  0  0  0  0  0  0  0
  191.6610  173.3760  143.3390 N   0  0  0  0  0  0  0  0  0  0  0  0
  190.4970  173.6720  142.7430 C   0  0  0  0  0  3  0  0  0  0  0  0
  1 16  2  0  0  0  0
  1  9  1  0  0  0  0
  2 14  2  0  0  0  0
  2 16  1  0  0  0  0
  3  6  1  0  0  0  0
  3 11  1  0  0  0  0
  4  9  1  0  0  0  0
  4 15  2  0  0  0  0
  5 17  1  0  0  0  0
  5  7  1  0  0  0  0
  7  2  1  0  0  0  0
  8 11  2  0  0  0  0
  9  3  2  0  0  0  0
 11 19  1  0  0  0  0
 12 18  1  0  0  0  0
 12 10  2  0  0  0  0
 13 10  1  0  0  0  0
 13  6  2  0  0  0  0
 14 12  1  0  0  0  0
 15  8  1  0  0  0  0
 16 13  1  0  0  0  0
 17  1  1  0  0  0  0
 20 15  1  0  0  0  0
 21 22  1  0  0  0  0
 21 20  1  0  0  0  0
 23 27  1  0  0  0  0
 23 22  1  0  0  0  0
 24 25  2  0  0  0  0
 26 25  1  0  0  0  0
 27 24  1  0  0  0  0
 28 27  1  0  0  0  0
 28 26  2  0  0  0  0
M  END
>  <MODEL>
6

>  <REMARK>
 VINA RESULT:      -7.5      2.316      4.312
  Name = 
  5 active torsions:
  status: ('A' for Active; 'I' for Inactive)
    1  A    between atoms: C_3  and  C_4
    2  A    between atoms: C_3  and  C_23
    3  A    between atoms: C_4  and  N_22
    4  A    between atoms: C_11  and  C_21
    5  A    between atoms: C_11  and  C_23
                            x       y       z     vdW  Elec       q    Type
                         _______ _______ _______ _____ _____    ______ ____

>  <TORSDO>
F 5

$$$$
=
 OpenBabel11062423103D

 28 32  0  0  0  0  0  0  0  0999 V2000
  186.4800  177.7000  144.8980 C   0  0  0  0  0  0  0  0  0  0  0  0
  188.4390  177.3980  146.3150 C   0  0  0  0  0  0  0  0  0  0  0  0
  186.7670  177.7880  142.4670 C   0  0  0  0  0  0  0  0  0  0  0  0
  184.5440  178.0090  143.4340 C   0  0  0  0  0  3  0  0  0  0  0  0
  186.3390  178.1230  147.3630 C   0  0  0  0  0  2  0  0  0  0  0  0
  188.1440  177.5920  142.6230 C   0  0  0  0  0  3  0  0  0  0  0  0
  187.6320  177.5250  147.4490 O   0  0  0  0  0  0  0  0  0  0  0  0
  184.8350  178.1020  141.0330 C   0  0  0  0  0  3  0  0  0  0  0  0
  185.9240  177.8330  143.6080 C   0  0  0  0  0  0  0  0  0  0  0  0
  190.0690  177.2280  144.0410 C   0  0  0  0  0  3  0  0  0  0  0  0
  186.2120  177.9240  141.1830 C   0  0  0  0  0  0  0  0  0  0  0  0
  190.6230  177.0740  145.3160 C   0  0  0  0  0  0  0  0  0  0  0  0
  188.6970  177.4520  143.8950 C   0  0  0  0  0  0  0  0  0  0  0  0
  189.8090  177.1600  146.4510 C   0  0  0  0  0  3  0  0  0  0  0  0
  184.0010  178.1390  142.1530 C   0  0  0  0  0  0  0  0  0  0  0  0
  187.8700  177.5190  145.0350 C   0  0  0  0  0  0  0  0  0  0  0  0
  185.5980  177.6270  146.1230 C   0  0  0  0  0  2  0  0  0  0  0  0
  191.9830  176.8400  145.4560 O   0  0  0  0  0  1  0  0  0  0  0  0
  187.0190  177.8830  140.0500 O   0  0  0  0  0  1  0  0  0  0  0  0
  182.5360  178.3420  141.9820 C   0  0  0  0  0  2  0  0  0  0  0  0
  182.1710  178.2960  140.5110 C   0  0  0  0  0  2  0  0  0  0  0  0
  180.6690  178.1740  140.3670 C   0  0  0  0  0  2  0  0  0  0  0  0
  179.9910  178.9390  141.4860 C   0  0  0  0  0  2  0  0  0  0  0  0
  177.9640  180.3420  141.1080 C   0  0  0  0  0  3  0  0  0  0  0  0
  177.6920  181.4880  140.3860 C   0  0  0  0  0  3  0  0  0  0  0  0
  178.8230  181.9090  139.7820 N   0  0  0  0  0  0  0  0  0  0  0  0
  179.2690  180.0760  140.9420 N   0  0  0  0  0  0  0  0  0  0  0  0
  179.7720  181.0220  140.1370 C   0  0  0  0  0  3  0  0  0  0  0  0
  1 16  1  0  0  0  0
  1 17  1  0  0  0  0
  2 14  1  0  0  0  0
  2  7  1  0  0  0  0
  3  6  2  0  0  0  0
  3  9  1  0  0  0  0
  4  9  1  0  0  0  0
  5  7  1  0  0  0  0
  6 13  1  0  0  0  0
  8 11  2  0  0  0  0
  8 15  1  0  0  0  0
  9  1  2  0  0  0  0
 10 12  1  0  0  0  0
 11  3  1  0  0  0  0
 12 18  1  0  0  0  0
 12 14  2  0  0  0  0
 13 10  2  0  0  0  0
 13 16  1  0  0  0  0
 15  4  2  0  0  0  0
 16  2  2  0  0  0  0
 17  5  1  0  0  0  0
 19 11  1  0  0  0  0
 20 15  1  0  0  0  0
 21 20  1  0  0  0  0
 22 21  1  0  0  0  0
 22 23  1  0  0  0  0
 25 24  2  0  0  0  0
 26 28  2  0  0  0  0
 26 25  1  0  0  0  0
 27 24  1  0  0  0  0
 27 23  1  0  0  0  0
 28 27  1  0  0  0  0
M  END
>  <MODEL>
7

>  <REMARK>
 VINA RESULT:      -7.5      4.681      8.938
  Name = 
  5 active torsions:
  status: ('A' for Active; 'I' for Inactive)
    1  A    between atoms: C_3  and  C_4
    2  A    between atoms: C_3  and  C_23
    3  A    between atoms: C_4  and  N_22
    4  A    between atoms: C_11  and  C_21
    5  A    between atoms: C_11  and  C_23
                            x       y       z     vdW  Elec       q    Type
                         _______ _______ _______ _____ _____    ______ ____

>  <TORSDO>
F 5

$$$$
=
 OpenBabel11062423103D

 28 32  0  0  0  0  0  0  0  0999 V2000
  186.4350  177.5160  142.9130 C   0  0  0  0  0  0  0  0  0  0  0  0
  184.9580  177.9160  141.0160 C   0  0  0  0  0  0  0  0  0  0  0  0
  185.6190  177.9660  145.1780 C   0  0  0  0  0  0  0  0  0  0  0  0
  187.8840  177.1380  144.8470 C   0  0  0  0  0  3  0  0  0  0  0  0
  187.3530  177.5860  140.5830 C   0  0  0  0  0  2  0  0  0  0  0  0
  184.3780  178.3470  144.6540 C   0  0  0  0  0  3  0  0  0  0  0  0
  185.9950  177.5760  140.1430 O   0  0  0  0  0  0  0  0  0  0  0  0
  187.0730  177.5890  147.0830 C   0  0  0  0  0  3  0  0  0  0  0  0
  186.6530  177.5370  144.3060 C   0  0  0  0  0  0  0  0  0  0  0  0
  182.9030  178.6760  142.7650 C   0  0  0  0  0  3  0  0  0  0  0  0
  185.8380  177.9880  146.5660 C   0  0  0  0  0  0  0  0  0  0  0  0
  182.6740  178.6370  141.3860 C   0  0  0  0  0  0  0  0  0  0  0  0
  184.1540  178.3210  143.2780 C   0  0  0  0  0  0  0  0  0  0  0  0
  183.7000  178.2590  140.5130 C   0  0  0  0  0  3  0  0  0  0  0  0
  188.0920  177.1590  146.2290 C   0  0  0  0  0  0  0  0  0  0  0  0
  185.1850  177.9190  142.4030 C   0  0  0  0  0  0  0  0  0  0  0  0
  187.4740  176.9560  141.9690 C   0  0  0  0  0  2  0  0  0  0  0  0
  181.4280  178.9790  140.8820 O   0  0  0  0  0  1  0  0  0  0  0  0
  184.8380  178.4050  147.4390 O   0  0  0  0  0  1  0  0  0  0  0  0
  189.4080  176.7490  146.7910 C   0  0  0  0  0  2  0  0  0  0  0  0
  190.5080  176.9960  145.7760 C   0  0  0  0  0  2  0  0  0  0  0  0
  191.1970  175.6880  145.4510 C   0  0  0  0  0  2  0  0  0  0  0  0
  190.3420  174.5330  145.9330 C   0  0  0  0  0  2  0  0  0  0  0  0
  189.6910  172.4090  144.7990 C   0  0  0  0  0  3  0  0  0  0  0  0
  189.3330  172.0620  143.5110 C   0  0  0  0  0  3  0  0  0  0  0  0
  189.3350  173.1680  142.7370 N   0  0  0  0  0  0  0  0  0  0  0  0
  189.9040  173.7340  144.8010 N   0  0  0  0  0  0  0  0  0  0  0  0
  189.6930  174.1770  143.5530 C   0  0  0  0  0  3  0  0  0  0  0  0
  1  9  1  0  0  0  0
  2 16  1  0  0  0  0
  3 11  1  0  0  0  0
  4 15  2  0  0  0  0
  5 17  1  0  0  0  0
  6  3  1  0  0  0  0
  7  5  1  0  0  0  0
  7  2  1  0  0  0  0
  9  4  1  0  0  0  0
  9  3  2  0  0  0  0
 10 13  1  0  0  0  0
 11  8  2  0  0  0  0
 11 19  1  0  0  0  0
 12 10  2  0  0  0  0
 13  6  2  0  0  0  0
 14  2  2  0  0  0  0
 14 12  1  0  0  0  0
 15 20  1  0  0  0  0
 15  8  1  0  0  0  0
 16  1  2  0  0  0  0
 16 13  1  0  0  0  0
 17  1  1  0  0  0  0
 18 12  1  0  0  0  0
 21 20  1  0  0  0  0
 22 21  1  0  0  0  0
 22 23  1  0  0  0  0
 24 27  1  0  0  0  0
 25 24  2  0  0  0  0
 26 25  1  0  0  0  0
 26 28  2  0  0  0  0
 27 23  1  0  0  0  0
 28 27  1  0  0  0  0
M  END
>  <MODEL>
8

>  <REMARK>
 VINA RESULT:      -7.5      2.128      3.872
  Name = 
  5 active torsions:
  status: ('A' for Active; 'I' for Inactive)
    1  A    between atoms: C_3  and  C_4
    2  A    between atoms: C_3  and  C_23
    3  A    between atoms: C_4  and  N_22
    4  A    between atoms: C_11  and  C_21
    5  A    between atoms: C_11  and  C_23
                            x       y       z     vdW  Elec       q    Type
                         _______ _______ _______ _____ _____    ______ ____

>  <TORSDO>
F 5

$$$$
=
 OpenBabel11062423103D

 28 32  0  0  0  0  0  0  0  0999 V2000
  187.7560  176.0750  143.2250 C   0  0  0  0  0  0  0  0  0  0  0  0
  185.7250  177.4200  143.1550 C   0  0  0  0  0  0  0  0  0  0  0  0
  188.8090  175.6160  145.3890 C   0  0  0  0  0  0  0  0  0  0  0  0
  189.8000  174.7370  143.3470 C   0  0  0  0  0  3  0  0  0  0  0  0
  186.9320  177.0150  141.0540 C   0  0  0  0  0  2  0  0  0  0  0  0
  187.7940  176.3330  146.0340 C   0  0  0  0  0  3  0  0  0  0  0  0
  185.7400  177.3600  141.7590 O   0  0  0  0  0  0  0  0  0  0  0  0
  190.8390  174.2910  145.4870 C   0  0  0  0  0  3  0  0  0  0  0  0
  188.7870  175.4750  143.9770 C   0  0  0  0  0  0  0  0  0  0  0  0
  185.7420  177.6110  145.9510 C   0  0  0  0  0  3  0  0  0  0  0  0
  189.8390  175.0200  146.1360 C   0  0  0  0  0  0  0  0  0  0  0  0
  184.7040  178.1900  145.2140 C   0  0  0  0  0  0  0  0  0  0  0  0
  186.7670  176.9210  145.2980 C   0  0  0  0  0  0  0  0  0  0  0  0
  184.6970  178.0960  143.8170 C   0  0  0  0  0  3  0  0  0  0  0  0
  190.8180  174.1430  144.0990 C   0  0  0  0  0  0  0  0  0  0  0  0
  186.7520  176.8060  143.8920 C   0  0  0  0  0  0  0  0  0  0  0  0
  187.6420  175.8470  141.7360 C   0  0  0  0  0  2  0  0  0  0  0  0
  183.6830  178.8630  145.8670 O   0  0  0  0  0  1  0  0  0  0  0  0
  189.8790  175.1450  147.5210 O   0  0  0  0  0  1  0  0  0  0  0  0
  191.8970  173.3760  143.4170 C   0  0  0  0  0  2  0  0  0  0  0  0
  192.3640  174.1200  142.1800 C   0  0  0  0  0  2  0  0  0  0  0  0
  193.8130  174.5200  142.3500 C   0  0  0  0  0  2  0  0  0  0  0  0
  193.8900  175.9740  142.7700 C   0  0  0  0  0  2  0  0  0  0  0  0
  194.8480  175.3010  144.9720 C   0  0  0  0  0  3  0  0  0  0  0  0
  194.6570  175.6990  146.2810 C   0  0  0  0  0  3  0  0  0  0  0  0
  193.7460  176.6950  146.3130 N   0  0  0  0  0  0  0  0  0  0  0  0
  194.0510  176.0670  144.2110 N   0  0  0  0  0  0  0  0  0  0  0  0
  193.3880  176.8960  145.0310 C   0  0  0  0  0  3  0  0  0  0  0  0
  1 16  2  0  0  0  0
  1  9  1  0  0  0  0
  2 14  2  0  0  0  0
  2 16  1  0  0  0  0
  3  6  1  0  0  0  0
  3 11  1  0  0  0  0
  4  9  1  0  0  0  0
  4 15  2  0  0  0  0
  5 17  1  0  0  0  0
  5  7  1  0  0  0  0
  7  2  1  0  0  0  0
  8 11  2  0  0  0  0
  9  3  2  0  0  0  0
 11 19  1  0  0  0  0
 12 18  1  0  0  0  0
 12 10  2  0  0  0  0
 13 10  1  0  0  0  0
 13  6  2  0  0  0  0
 14 12  1  0  0  0  0
 15  8  1  0  0  0  0
 16 13  1  0  0  0  0
 17  1  1  0  0  0  0
 20 15  1  0  0  0  0
 21 22  1  0  0  0  0
 21 20  1  0  0  0  0
 22 23  1  0  0  0  0
 23 27  1  0  0  0  0
 24 25  2  0  0  0  0
 25 26  1  0  0  0  0
 27 24  1  0  0  0  0
 27 28  1  0  0  0  0
 28 26  2  0  0  0  0
M  END
>  <MODEL>
9

>  <REMARK>
 VINA RESULT:      -7.3      1.685      3.667
  Name = 
  5 active torsions:
  status: ('A' for Active; 'I' for Inactive)
    1  A    between atoms: C_3  and  C_4
    2  A    between atoms: C_3  and  C_23
    3  A    between atoms: C_4  and  N_22
    4  A    between atoms: C_11  and  C_21
    5  A    between atoms: C_11  and  C_23
                            x       y       z     vdW  Elec       q    Type
                         _______ _______ _______ _____ _____    ______ ____

>  <TORSDO>
F 5

$$$$
