=
 OpenBabel11062422083D

 27 31  0  0  1  0  0  0  0  0999 V2000
  191.1700  173.2880  144.6770 C   0  0  0  0  0  2  0  0  0  0  0  0
  190.5480  176.7730  147.1030 N   0  0  0  0  0  0  0  0  0  0  0  0
  192.6550  173.3530  145.0370 C   0  0  0  0  0  2  0  0  0  0  0  0
  188.4730  176.9340  145.9470 C   0  0  0  0  0  0  0  0  0  0  0  0
  192.3860  175.4420  146.3250 N   0  0  0  0  0  2  0  0  0  0  0  0
  188.9570  176.0780  145.0090 N   0  0  0  0  0  0  0  0  0  0  0  0
  193.1700  174.7690  145.2980 C   0  0  0  0  0  2  0  0  0  0  0  0
  191.0440  175.9280  146.1620 C   0  0  0  0  0  0  0  0  0  0  0  0
  189.2940  177.2830  147.0230 C   0  0  0  0  0  3  0  0  0  0  0  0
  190.2130  175.5530  145.0770 C   0  0  0  0  0  0  0  0  0  0  0  0
  190.6710  174.5740  144.0190 C   0  0  2  0  0  3  0  0  0  0  0  0
  184.7700  177.4560  146.5170 C   0  0  0  0  0  3  0  0  0  0  0  0
  185.2390  179.9910  143.9200 F   0  0  0  0  0  0  0  0  0  0  0  0
  185.5060  179.0000  144.8040 C   0  0  0  0  0  0  0  0  0  0  0  0
  183.2230  178.9590  145.5080 F   0  0  0  0  0  0  0  0  0  0  0  0
  184.4870  178.4780  145.6080 C   0  0  0  0  0  0  0  0  0  0  0  0
  186.8070  178.4990  144.9130 C   0  0  0  0  0  3  0  0  0  0  0  0
  186.0700  176.9550  146.6250 C   0  0  0  0  0  3  0  0  0  0  0  0
  187.1010  177.4710  145.8240 C   0  0  0  0  0  0  0  0  0  0  0  0
  189.1380  172.9690  143.0310 O   0  0  0  0  0  0  0  0  0  0  0  0
  188.7010  172.6600  141.7350 C   0  0  0  0  0  2  0  0  0  0  0  0
  190.1440  174.5370  141.5620 C   0  0  0  0  0  2  0  0  0  0  0  0
  189.5570  173.4210  140.7470 C   0  0  2  0  0  3  0  0  0  0  0  0
  189.6050  174.2910  142.9540 C   0  0  2  0  0  3  0  0  0  0  0  0
  188.6890  173.9850  139.6360 C   0  0  2  0  0  3  0  0  0  0  0  0
  188.2610  172.9100  138.7470 C   0  0  0  0  0  2  0  0  0  0  0  0
  189.3660  173.7920  138.3450 N   0  0  0  0  0  2  0  0  0  0  0  0
  1  3  1  0  0  0  0
  3  7  1  0  0  0  0
  4  9  2  0  0  0  0
  6 10  2  0  0  0  0
  6  4  1  0  0  0  0
  7  5  1  0  0  0  0
  8  5  1  0  0  0  0
  8  2  2  0  0  0  0
  9  2  1  0  0  0  0
 10  8  1  0  0  0  0
 11  1  1  1  0  0  0
 11 10  1  0  0  0  0
 12 18  1  0  0  0  0
 13 14  1  0  0  0  0
 14 17  2  0  0  0  0
 14 16  1  0  0  0  0
 15 16  1  0  0  0  0
 16 12  2  0  0  0  0
 17 19  1  0  0  0  0
 19  4  1  0  0  0  0
 19 18  2  0  0  0  0
 21 20  1  0  0  0  0
 23 22  1  1  0  0  0
 23 21  1  0  0  0  0
 24 22  1  6  0  0  0
 24 20  1  0  0  0  0
 24 11  1  0  0  0  0
 25 26  1  6  0  0  0
 25 23  1  0  0  0  0
 27 26  1  0  0  0  0
 27 25  1  0  0  0  0
M  END
>  <MODEL>
1

>  <REMARK>
 VINA RESULT:      -7.7      0.000      0.000
  Name = 
  3 active torsions:
  status: ('A' for Active; 'I' for Inactive)
    1  A    between atoms: C_5  and  C_25
    2  A    between atoms: C_10  and  C_26
    3  A    between atoms: C_24  and  C_27
                            x       y       z     vdW  Elec       q    Type
                         _______ _______ _______ _____ _____    ______ ____

>  <TORSDO>
F 3

$$$$
=
 OpenBabel11062422083D

 27 31  0  0  1  0  0  0  0  0999 V2000
  190.2140  177.1330  146.5820 C   0  0  0  0  0  2  0  0  0  0  0  0
  192.1120  173.8320  144.6000 N   0  0  0  0  0  0  0  0  0  0  0  0
  191.0400  176.8060  147.8270 C   0  0  0  0  0  2  0  0  0  0  0  0
  190.3280  174.0340  143.0370 C   0  0  0  0  0  0  0  0  0  0  0  0
  192.0550  174.8080  146.7910 N   0  0  0  0  0  2  0  0  0  0  0  0
  189.6490  174.7830  143.9450 N   0  0  0  0  0  0  0  0  0  0  0  0
  191.3810  175.3240  147.9760 C   0  0  0  0  0  2  0  0  0  0  0  0
  191.4330  174.5680  145.5190 C   0  0  0  0  0  0  0  0  0  0  0  0
  191.5950  173.5530  143.3780 C   0  0  0  0  0  3  0  0  0  0  0  0
  190.1550  175.0770  145.1750 C   0  0  0  0  0  0  0  0  0  0  0  0
  189.3620  175.9510  146.1200 C   0  0  2  0  0  3  0  0  0  0  0  0
  188.3270  174.4360  139.8510 C   0  0  0  0  0  3  0  0  0  0  0  0
  189.6780  171.1020  139.1780 F   0  0  0  0  0  0  0  0  0  0  0  0
  189.4200  172.2770  139.8020 C   0  0  0  0  0  0  0  0  0  0  0  0
  188.0340  172.9820  137.9880 F   0  0  0  0  0  0  0  0  0  0  0  0
  188.5890  173.2280  139.2010 C   0  0  0  0  0  0  0  0  0  0  0  0
  189.9890  172.5370  141.0530 C   0  0  0  0  0  3  0  0  0  0  0  0
  188.8950  174.6950  141.1010 C   0  0  0  0  0  3  0  0  0  0  0  0
  189.7310  173.7490  141.7140 C   0  0  0  0  0  0  0  0  0  0  0  0
  188.1630  177.5870  144.7830 O   0  0  0  0  0  0  0  0  0  0  0  0
  186.9100  178.2140  144.8430 C   0  0  0  0  0  2  0  0  0  0  0  0
  187.0020  176.6530  146.6290 C   0  0  0  0  0  2  0  0  0  0  0  0
  186.2720  177.8830  146.1750 C   0  0  2  0  0  3  0  0  0  0  0  0
  188.0200  176.4110  145.5360 C   0  0  2  0  0  3  0  0  0  0  0  0
  184.7980  177.5770  145.9820 C   0  0  2  0  0  3  0  0  0  0  0  0
  184.1450  178.6930  145.3040 C   0  0  0  0  0  2  0  0  0  0  0  0
  183.9980  178.5360  146.7580 N   0  0  0  0  0  2  0  0  0  0  0  0
  1  3  1  0  0  0  0
  2  8  2  0  0  0  0
  3  7  1  0  0  0  0
  4  9  2  0  0  0  0
  4  6  1  0  0  0  0
  5  7  1  0  0  0  0
  6 10  2  0  0  0  0
  8  5  1  0  0  0  0
  9  2  1  0  0  0  0
 10  8  1  0  0  0  0
 10 11  1  0  0  0  0
 11  1  1  6  0  0  0
 12 18  1  0  0  0  0
 13 14  1  0  0  0  0
 14 17  2  0  0  0  0
 15 16  1  0  0  0  0
 16 14  1  0  0  0  0
 16 12  2  0  0  0  0
 17 19  1  0  0  0  0
 18 19  2  0  0  0  0
 19  4  1  0  0  0  0
 20 21  1  0  0  0  0
 20 24  1  0  0  0  0
 23 21  1  6  0  0  0
 23 22  1  0  0  0  0
 24 11  1  0  0  0  0
 24 22  1  1  0  0  0
 25 26  1  6  0  0  0
 25 23  1  0  0  0  0
 25 27  1  0  0  0  0
 26 27  1  0  0  0  0
M  END
>  <MODEL>
2

>  <REMARK>
 VINA RESULT:      -7.3      3.374      6.721
  Name = 
  3 active torsions:
  status: ('A' for Active; 'I' for Inactive)
    1  A    between atoms: C_5  and  C_25
    2  A    between atoms: C_10  and  C_26
    3  A    between atoms: C_24  and  C_27
                            x       y       z     vdW  Elec       q    Type
                         _______ _______ _______ _____ _____    ______ ____

>  <TORSDO>
F 3

$$$$
=
 OpenBabel11062422083D

 27 31  0  0  1  0  0  0  0  0999 V2000
  185.7090  177.4830  145.2300 C   0  0  0  0  0  2  0  0  0  0  0  0
  186.0630  177.8790  140.9710 N   0  0  0  0  0  0  0  0  0  0  0  0
  185.0540  178.8650  145.2630 C   0  0  0  0  0  2  0  0  0  0  0  0
  187.6240  176.0910  141.1590 C   0  0  0  0  0  0  0  0  0  0  0  0
  185.3640  179.2140  142.8380 N   0  0  0  0  0  2  0  0  0  0  0  0
  187.7040  176.3330  142.4940 N   0  0  0  0  0  0  0  0  0  0  0  0
  185.5340  179.8070  144.1590 C   0  0  0  0  0  2  0  0  0  0  0  0
  186.1490  178.1370  142.3030 C   0  0  0  0  0  0  0  0  0  0  0  0
  186.7740  176.8860  140.3830 C   0  0  0  0  0  3  0  0  0  0  0  0
  186.9930  177.3250  143.1010 C   0  0  0  0  0  0  0  0  0  0  0  0
  187.1000  177.5110  144.5980 C   0  0  2  0  0  3  0  0  0  0  0  0
  190.2050  173.3600  140.7190 C   0  0  0  0  0  3  0  0  0  0  0  0
  188.6340  173.1020  137.4240 F   0  0  0  0  0  0  0  0  0  0  0  0
  188.9040  173.5210  138.6840 C   0  0  0  0  0  0  0  0  0  0  0  0
  190.6680  171.9210  138.8790 F   0  0  0  0  0  0  0  0  0  0  0  0
  189.9320  172.9230  139.4200 C   0  0  0  0  0  0  0  0  0  0  0  0
  188.1490  174.5530  139.2480 C   0  0  0  0  0  3  0  0  0  0  0  0
  189.4500  174.3940  141.2820 C   0  0  0  0  0  3  0  0  0  0  0  0
  188.4160  175.0000  140.5530 C   0  0  0  0  0  0  0  0  0  0  0  0
  187.5320  176.0470  146.4880 O   0  0  0  0  0  0  0  0  0  0  0  0
  188.6550  175.6860  147.2460 C   0  0  0  0  0  2  0  0  0  0  0  0
  189.4090  177.1230  145.5130 C   0  0  0  0  0  2  0  0  0  0  0  0
  189.8050  176.5890  146.8590 C   0  0  2  0  0  3  0  0  0  0  0  0
  188.0490  176.5080  145.2660 C   0  0  2  0  0  3  0  0  0  0  0  0
  191.0840  175.7810  146.7460 C   0  0  2  0  0  3  0  0  0  0  0  0
  191.5000  175.3230  148.0690 C   0  0  0  0  0  2  0  0  0  0  0  0
  192.1660  176.4810  147.4570 N   0  0  0  0  0  2  0  0  0  0  0  0
  1  3  1  0  0  0  0
  2  8  2  0  0  0  0
  4  6  1  0  0  0  0
  5  7  1  0  0  0  0
  6 10  2  0  0  0  0
  7  3  1  0  0  0  0
  8  5  1  0  0  0  0
  8 10  1  0  0  0  0
  9  2  1  0  0  0  0
  9  4  2  0  0  0  0
 10 11  1  0  0  0  0
 11  1  1  1  0  0  0
 11 24  1  0  0  0  0
 12 18  1  0  0  0  0
 13 14  1  0  0  0  0
 14 17  2  0  0  0  0
 14 16  1  0  0  0  0
 15 16  1  0  0  0  0
 16 12  2  0  0  0  0
 17 19  1  0  0  0  0
 19  4  1  0  0  0  0
 19 18  2  0  0  0  0
 20 21  1  0  0  0  0
 23 22  1  6  0  0  0
 23 21  1  0  0  0  0
 24 22  1  1  0  0  0
 24 20  1  0  0  0  0
 25 23  1  0  0  0  0
 25 27  1  0  0  0  0
 25 26  1  1  0  0  0
 27 26  1  0  0  0  0
M  END
>  <MODEL>
3

>  <REMARK>
 VINA RESULT:      -7.2      3.679      7.621
  Name = 
  3 active torsions:
  status: ('A' for Active; 'I' for Inactive)
    1  A    between atoms: C_5  and  C_25
    2  A    between atoms: C_10  and  C_26
    3  A    between atoms: C_24  and  C_27
                            x       y       z     vdW  Elec       q    Type
                         _______ _______ _______ _____ _____    ______ ____

>  <TORSDO>
F 3

$$$$
=
 OpenBabel11062422083D

 27 31  0  0  1  0  0  0  0  0999 V2000
  187.0800  178.0020  144.2820 C   0  0  0  0  0  2  0  0  0  0  0  0
  189.6760  177.2760  147.6220 N   0  0  0  0  0  0  0  0  0  0  0  0
  185.9020  178.0320  145.2570 C   0  0  0  0  0  2  0  0  0  0  0  0
  191.2490  176.6010  145.9680 C   0  0  0  0  0  0  0  0  0  0  0  0
  187.3230  177.4690  147.1970 N   0  0  0  0  0  2  0  0  0  0  0  0
  190.2300  176.5040  145.0730 N   0  0  0  0  0  0  0  0  0  0  0  0
  186.0910  177.1460  146.4880 C   0  0  0  0  0  2  0  0  0  0  0  0
  188.6500  177.1660  146.7380 C   0  0  0  0  0  0  0  0  0  0  0  0
  190.9580  177.0030  147.2740 C   0  0  0  0  0  3  0  0  0  0  0  0
  188.9370  176.7780  145.4050 C   0  0  0  0  0  0  0  0  0  0  0  0
  187.8600  176.6890  144.3480 C   0  0  2  0  0  3  0  0  0  0  0  0
  194.9110  175.6650  146.1290 C   0  0  0  0  0  3  0  0  0  0  0  0
  194.6600  176.0840  142.5030 F   0  0  0  0  0  0  0  0  0  0  0  0
  194.3180  176.0420  143.8130 C   0  0  0  0  0  0  0  0  0  0  0  0
  196.5450  175.4230  144.4150 F   0  0  0  0  0  0  0  0  0  0  0  0
  195.2710  175.7070  144.7800 C   0  0  0  0  0  0  0  0  0  0  0  0
  193.0050  176.3330  144.1970 C   0  0  0  0  0  3  0  0  0  0  0  0
  193.5990  175.9570  146.5130 C   0  0  0  0  0  3  0  0  0  0  0  0
  192.6330  176.2940  145.5510 C   0  0  0  0  0  0  0  0  0  0  0  0
  187.7050  176.9250  141.9350 O   0  0  0  0  0  0  0  0  0  0  0  0
  187.8160  176.0680  140.8300 C   0  0  0  0  0  2  0  0  0  0  0  0
  188.2850  174.7800  142.7680 C   0  0  0  0  0  2  0  0  0  0  0  0
  187.8690  174.6420  141.3330 C   0  0  2  0  0  3  0  0  0  0  0  0
  188.3950  176.2750  142.9720 C   0  0  2  0  0  3  0  0  0  0  0  0
  188.9120  173.8580  140.5580 C   0  0  2  0  0  3  0  0  0  0  0  0
  188.6000  173.8920  139.1320 C   0  0  0  0  0  2  0  0  0  0  0  0
  188.2730  172.6960  139.9220 N   0  0  0  0  0  2  0  0  0  0  0  0
  1  3  1  0  0  0  0
  3  7  1  0  0  0  0
  4  9  2  0  0  0  0
  6 10  2  0  0  0  0
  6  4  1  0  0  0  0
  7  5  1  0  0  0  0
  8  5  1  0  0  0  0
  8  2  2  0  0  0  0
  9  2  1  0  0  0  0
 10  8  1  0  0  0  0
 11  1  1  6  0  0  0
 11 10  1  0  0  0  0
 12 18  1  0  0  0  0
 13 14  1  0  0  0  0
 14 17  2  0  0  0  0
 14 16  1  0  0  0  0
 15 16  1  0  0  0  0
 16 12  2  0  0  0  0
 17 19  1  0  0  0  0
 19  4  1  0  0  0  0
 19 18  2  0  0  0  0
 20 24  1  0  0  0  0
 21 20  1  0  0  0  0
 23 21  1  6  0  0  0
 23 22  1  0  0  0  0
 24 22  1  6  0  0  0
 24 11  1  0  0  0  0
 25 26  1  6  0  0  0
 25 23  1  0  0  0  0
 26 27  1  0  0  0  0
 27 25  1  0  0  0  0
M  END
>  <MODEL>
4

>  <REMARK>
 VINA RESULT:      -7.1      3.568      6.190
  Name = 
  3 active torsions:
  status: ('A' for Active; 'I' for Inactive)
    1  A    between atoms: C_5  and  C_25
    2  A    between atoms: C_10  and  C_26
    3  A    between atoms: C_24  and  C_27
                            x       y       z     vdW  Elec       q    Type
                         _______ _______ _______ _____ _____    ______ ____

>  <TORSDO>
F 3

$$$$
=
 OpenBabel11062422083D

 27 31  0  0  1  0  0  0  0  0999 V2000
  191.0620  174.3400  141.5760 C   0  0  0  0  0  2  0  0  0  0  0  0
  187.2060  176.0970  140.8900 N   0  0  0  0  0  0  0  0  0  0  0  0
  190.9310  173.6270  140.2290 C   0  0  0  0  0  2  0  0  0  0  0  0
  187.2560  176.5730  143.2230 C   0  0  0  0  0  0  0  0  0  0  0  0
  188.6490  174.4890  139.8470 N   0  0  0  0  0  2  0  0  0  0  0  0
  188.2620  175.6700  143.3610 N   0  0  0  0  0  0  0  0  0  0  0  0
  189.4900  173.2990  139.8370 C   0  0  0  0  0  2  0  0  0  0  0  0
  188.2020  175.1820  141.0230 C   0  0  0  0  0  0  0  0  0  0  0  0
  186.7220  176.7920  141.9490 C   0  0  0  0  0  3  0  0  0  0  0  0
  188.7640  174.9670  142.3060 C   0  0  0  0  0  0  0  0  0  0  0  0
  189.9120  174.0080  142.5270 C   0  0  2  0  0  3  0  0  0  0  0  0
  185.7690  179.3160  145.3620 C   0  0  0  0  0  3  0  0  0  0  0  0
  186.3160  176.8530  148.0130 F   0  0  0  0  0  0  0  0  0  0  0  0
  186.2920  177.4300  146.7870 C   0  0  0  0  0  0  0  0  0  0  0  0
  185.3250  179.4160  147.6990 F   0  0  0  0  0  0  0  0  0  0  0  0
  185.7900  178.7260  146.6280 C   0  0  0  0  0  0  0  0  0  0  0  0
  186.7700  176.7260  145.6780 C   0  0  0  0  0  3  0  0  0  0  0  0
  186.2480  178.6110  144.2540 C   0  0  0  0  0  3  0  0  0  0  0  0
  186.7530  177.3100  144.4010 C   0  0  0  0  0  0  0  0  0  0  0  0
  189.3170  173.6560  144.8560 O   0  0  0  0  0  0  0  0  0  0  0  0
  189.6850  174.2190  146.0860 C   0  0  0  0  0  2  0  0  0  0  0  0
  191.0100  175.2580  144.4120 C   0  0  0  0  0  2  0  0  0  0  0  0
  190.5200  175.4520  145.8170 C   0  0  2  0  0  3  0  0  0  0  0  0
  190.3800  173.9500  143.9860 C   0  0  2  0  0  3  0  0  0  0  0  0
  191.6930  175.5030  146.7790 C   0  0  2  0  0  3  0  0  0  0  0  0
  191.2190  175.3430  148.1500 C   0  0  0  0  0  2  0  0  0  0  0  0
  191.5580  176.6820  147.6490 N   0  0  0  0  0  2  0  0  0  0  0  0
  2  8  2  0  0  0  0
  2  9  1  0  0  0  0
  3  1  1  0  0  0  0
  4  6  1  0  0  0  0
  4 19  1  0  0  0  0
  5  8  1  0  0  0  0
  7  5  1  0  0  0  0
  7  3  1  0  0  0  0
  8 10  1  0  0  0  0
  9  4  2  0  0  0  0
 10 11  1  0  0  0  0
 10  6  2  0  0  0  0
 11  1  1  6  0  0  0
 11 24  1  0  0  0  0
 12 16  1  0  0  0  0
 14 13  1  0  0  0  0
 16 14  2  0  0  0  0
 16 15  1  0  0  0  0
 17 14  1  0  0  0  0
 18 19  1  0  0  0  0
 18 12  2  0  0  0  0
 19 17  2  0  0  0  0
 20 21  1  0  0  0  0
 23 22  1  6  0  0  0
 23 21  1  0  0  0  0
 23 25  1  0  0  0  0
 24 22  1  1  0  0  0
 24 20  1  0  0  0  0
 25 27  1  0  0  0  0
 25 26  1  1  0  0  0
 27 26  1  0  0  0  0
M  END
>  <MODEL>
5

>  <REMARK>
 VINA RESULT:      -6.8      1.950      5.030
  Name = 
  3 active torsions:
  status: ('A' for Active; 'I' for Inactive)
    1  A    between atoms: C_5  and  C_25
    2  A    between atoms: C_10  and  C_26
    3  A    between atoms: C_24  and  C_27
                            x       y       z     vdW  Elec       q    Type
                         _______ _______ _______ _____ _____    ______ ____

>  <TORSDO>
F 3

$$$$
=
 OpenBabel11062422083D

 27 31  0  0  1  0  0  0  0  0999 V2000
  188.7990  176.4270  145.1950 C   0  0  0  0  0  2  0  0  0  0  0  0
  192.7350  175.6740  146.7340 N   0  0  0  0  0  0  0  0  0  0  0  0
  188.2290  175.9230  146.5220 C   0  0  0  0  0  2  0  0  0  0  0  0
  193.4120  175.8320  144.4570 C   0  0  0  0  0  0  0  0  0  0  0  0
  190.4570  175.3310  147.4050 N   0  0  0  0  0  2  0  0  0  0  0  0
  192.1150  175.6750  144.0850 N   0  0  0  0  0  0  0  0  0  0  0  0
  189.0910  174.8630  147.2060 C   0  0  0  0  0  2  0  0  0  0  0  0
  191.4370  175.5020  146.3690 C   0  0  0  0  0  0  0  0  0  0  0  0
  193.7230  175.8360  145.8200 C   0  0  0  0  0  3  0  0  0  0  0  0
  191.1090  175.5150  144.9900 C   0  0  0  0  0  0  0  0  0  0  0  0
  189.6820  175.3870  144.5060 C   0  0  2  0  0  3  0  0  0  0  0  0
  196.7630  176.5400  142.8490 C   0  0  0  0  0  3  0  0  0  0  0  0
  194.8950  175.7680  139.7980 F   0  0  0  0  0  0  0  0  0  0  0  0
  195.1830  175.9680  141.1070 C   0  0  0  0  0  0  0  0  0  0  0  0
  197.4490  176.4990  140.5700 F   0  0  0  0  0  0  0  0  0  0  0  0
  196.4740  176.3370  141.4980 C   0  0  0  0  0  0  0  0  0  0  0  0
  194.1830  175.8020  142.0700 C   0  0  0  0  0  3  0  0  0  0  0  0
  195.7620  176.3760  143.8110 C   0  0  0  0  0  3  0  0  0  0  0  0
  194.4630  176.0050  143.4320 C   0  0  0  0  0  0  0  0  0  0  0  0
  188.4290  176.2010  142.5900 O   0  0  0  0  0  0  0  0  0  0  0  0
  188.0730  175.6950  141.3310 C   0  0  0  0  0  2  0  0  0  0  0  0
  189.4490  174.0690  142.3780 C   0  0  0  0  0  2  0  0  0  0  0  0
  188.4320  174.2260  141.2860 C   0  0  2  0  0  3  0  0  0  0  0  0
  189.5530  175.4530  142.9790 C   0  0  2  0  0  3  0  0  0  0  0  0
  189.0500  173.8850  139.9420 C   0  0  2  0  0  3  0  0  0  0  0  0
  188.1420  174.2730  138.8660 C   0  0  0  0  0  2  0  0  0  0  0  0
  188.2280  172.8640  139.2750 N   0  0  0  0  0  2  0  0  0  0  0  0
  1  3  1  0  0  0  0
  3  7  1  0  0  0  0
  4  9  2  0  0  0  0
  6  4  1  0  0  0  0
  6 10  2  0  0  0  0
  7  5  1  0  0  0  0
  8  2  2  0  0  0  0
  8  5  1  0  0  0  0
  9  2  1  0  0  0  0
 10  8  1  0  0  0  0
 11 10  1  0  0  0  0
 11  1  1  1  0  0  0
 12 18  1  0  0  0  0
 13 14  1  0  0  0  0
 14 16  1  0  0  0  0
 14 17  2  0  0  0  0
 15 16  1  0  0  0  0
 16 12  2  0  0  0  0
 17 19  1  0  0  0  0
 19 18  2  0  0  0  0
 19  4  1  0  0  0  0
 20 24  1  0  0  0  0
 21 20  1  0  0  0  0
 23 21  1  6  0  0  0
 23 22  1  0  0  0  0
 24 22  1  1  0  0  0
 24 11  1  0  0  0  0
 25 26  1  6  0  0  0
 25 23  1  0  0  0  0
 26 27  1  0  0  0  0
 27 25  1  0  0  0  0
M  END
>  <MODEL>
6

>  <REMARK>
 VINA RESULT:      -6.8      4.085      6.684
  Name = 
  3 active torsions:
  status: ('A' for Active; 'I' for Inactive)
    1  A    between atoms: C_5  and  C_25
    2  A    between atoms: C_10  and  C_26
    3  A    between atoms: C_24  and  C_27
                            x       y       z     vdW  Elec       q    Type
                         _______ _______ _______ _____ _____    ______ ____

>  <TORSDO>
F 3

$$$$
=
 OpenBabel11062422083D

 27 31  0  0  1  0  0  0  0  0999 V2000
  186.7170  176.8790  146.8560 C   0  0  0  0  0  2  0  0  0  0  0  0
  184.9370  178.5230  143.3130 N   0  0  0  0  0  0  0  0  0  0  0  0
  186.0780  178.0160  147.6540 C   0  0  0  0  0  2  0  0  0  0  0  0
  186.4980  177.1450  142.1590 C   0  0  0  0  0  0  0  0  0  0  0  0
  185.1510  179.0910  145.6340 N   0  0  0  0  0  2  0  0  0  0  0  0
  187.2010  177.0140  143.3150 N   0  0  0  0  0  0  0  0  0  0  0  0
  185.9040  179.3110  146.8620 C   0  0  0  0  0  2  0  0  0  0  0  0
  185.6430  178.4090  144.4690 C   0  0  0  0  0  0  0  0  0  0  0  0
  185.3330  177.9170  142.1660 C   0  0  0  0  0  3  0  0  0  0  0  0
  186.8150  177.6120  144.4770 C   0  0  0  0  0  0  0  0  0  0  0  0
  187.6220  177.3890  145.7350 C   0  0  2  0  0  3  0  0  0  0  0  0
  188.2150  174.6820  139.8560 C   0  0  0  0  0  3  0  0  0  0  0  0
  186.6930  176.7960  137.2860 F   0  0  0  0  0  0  0  0  0  0  0  0
  187.0480  176.3130  138.5010 C   0  0  0  0  0  0  0  0  0  0  0  0
  188.2870  174.5440  137.4800 F   0  0  0  0  0  0  0  0  0  0  0  0
  187.8530  175.1740  138.6000 C   0  0  0  0  0  0  0  0  0  0  0  0
  186.6040  176.9570  139.6600 C   0  0  0  0  0  3  0  0  0  0  0  0
  187.7720  175.3270  141.0140 C   0  0  0  0  0  3  0  0  0  0  0  0
  186.9620  176.4710  140.9280 C   0  0  0  0  0  0  0  0  0  0  0  0
  188.7530  175.3190  146.3170 O   0  0  0  0  0  0  0  0  0  0  0  0
  190.0820  174.9190  146.5170 C   0  0  0  0  0  2  0  0  0  0  0  0
  190.1260  177.1950  145.8420 C   0  0  0  0  0  2  0  0  0  0  0  0
  190.9560  176.1540  146.5360 C   0  0  2  0  0  3  0  0  0  0  0  0
  188.8350  176.4750  145.5230 C   0  0  2  0  0  3  0  0  0  0  0  0
  192.2330  175.8970  145.7580 C   0  0  2  0  0  3  0  0  0  0  0  0
  193.0810  174.9620  146.4900 C   0  0  0  0  0  2  0  0  0  0  0  0
  193.3810  176.3990  146.5280 N   0  0  0  0  0  2  0  0  0  0  0  0
  1  3  1  0  0  0  0
  2  8  2  0  0  0  0
  4  9  2  0  0  0  0
  4  6  1  0  0  0  0
  5  7  1  0  0  0  0
  6 10  2  0  0  0  0
  7  3  1  0  0  0  0
  8 10  1  0  0  0  0
  8  5  1  0  0  0  0
  9  2  1  0  0  0  0
 10 11  1  0  0  0  0
 11  1  1  1  0  0  0
 12 18  1  0  0  0  0
 13 14  1  0  0  0  0
 14 16  1  0  0  0  0
 14 17  2  0  0  0  0
 15 16  1  0  0  0  0
 16 12  2  0  0  0  0
 17 19  1  0  0  0  0
 19 18  2  0  0  0  0
 19  4  1  0  0  0  0
 20 21  1  0  0  0  0
 21 23  1  0  0  0  0
 23 22  1  6  0  0  0
 24 11  1  0  0  0  0
 24 22  1  1  0  0  0
 24 20  1  0  0  0  0
 25 26  1  1  0  0  0
 25 27  1  0  0  0  0
 25 23  1  0  0  0  0
 26 27  1  0  0  0  0
M  END
>  <MODEL>
7

>  <REMARK>
 VINA RESULT:      -6.8      3.261      6.776
  Name = 
  3 active torsions:
  status: ('A' for Active; 'I' for Inactive)
    1  A    between atoms: C_5  and  C_25
    2  A    between atoms: C_10  and  C_26
    3  A    between atoms: C_24  and  C_27
                            x       y       z     vdW  Elec       q    Type
                         _______ _______ _______ _____ _____    ______ ____

>  <TORSDO>
F 3

$$$$
=
 OpenBabel11062422083D

 27 31  0  0  1  0  0  0  0  0999 V2000
  188.6980  176.7640  145.8240 C   0  0  0  0  0  2  0  0  0  0  0  0
  192.5700  175.2060  146.8250 N   0  0  0  0  0  0  0  0  0  0  0  0
  188.1450  176.0810  147.0750 C   0  0  0  0  0  2  0  0  0  0  0  0
  193.1190  175.7330  144.5690 C   0  0  0  0  0  0  0  0  0  0  0  0
  190.3140  175.0350  147.6220 N   0  0  0  0  0  2  0  0  0  0  0  0
  191.7910  175.8260  144.2930 N   0  0  0  0  0  0  0  0  0  0  0  0
  188.8850  174.8000  147.4620 C   0  0  0  0  0  2  0  0  0  0  0  0
  191.2410  175.2830  146.5530 C   0  0  0  0  0  0  0  0  0  0  0  0
  193.5130  175.4200  145.8730 C   0  0  0  0  0  3  0  0  0  0  0  0
  190.8320  175.6190  145.2390 C   0  0  0  0  0  0  0  0  0  0  0  0
  189.3750  175.7790  144.8700 C   0  0  2  0  0  3  0  0  0  0  0  0
  194.6830  176.0840  141.1420 C   0  0  0  0  0  3  0  0  0  0  0  0
  197.6550  176.8600  143.1310 F   0  0  0  0  0  0  0  0  0  0  0  0
  196.3800  176.5330  142.8080 C   0  0  0  0  0  0  0  0  0  0  0  0
  196.9020  176.6350  140.4790 F   0  0  0  0  0  0  0  0  0  0  0  0
  195.9990  176.4200  141.4680 C   0  0  0  0  0  0  0  0  0  0  0  0
  195.4430  176.3100  143.8220 C   0  0  0  0  0  3  0  0  0  0  0  0
  193.7470  175.8600  142.1560 C   0  0  0  0  0  3  0  0  0  0  0  0
  194.1170  175.9710  143.5050 C   0  0  0  0  0  0  0  0  0  0  0  0
  189.5200  177.5080  143.1690 O   0  0  0  0  0  0  0  0  0  0  0  0
  188.7450  177.9070  142.0700 C   0  0  0  0  0  2  0  0  0  0  0  0
  187.7180  175.9740  142.9890 C   0  0  0  0  0  2  0  0  0  0  0  0
  187.4310  177.1580  142.1130 C   0  0  2  0  0  3  0  0  0  0  0  0
  189.1600  176.1700  143.4030 C   0  0  2  0  0  3  0  0  0  0  0  0
  187.0510  176.6980  140.7170 C   0  0  2  0  0  3  0  0  0  0  0  0
  187.1210  177.8210  139.7880 C   0  0  0  0  0  2  0  0  0  0  0  0
  185.8170  177.3800  140.3000 N   0  0  0  0  0  2  0  0  0  0  0  0
  1  3  1  0  0  0  0
  3  7  1  0  0  0  0
  4  9  2  0  0  0  0
  6  4  1  0  0  0  0
  6 10  2  0  0  0  0
  7  5  1  0  0  0  0
  8  2  2  0  0  0  0
  8  5  1  0  0  0  0
  9  2  1  0  0  0  0
 10  8  1  0  0  0  0
 11 10  1  0  0  0  0
 11  1  1  1  0  0  0
 12 16  2  0  0  0  0
 12 18  1  0  0  0  0
 14 13  1  0  0  0  0
 14 17  2  0  0  0  0
 15 16  1  0  0  0  0
 16 14  1  0  0  0  0
 18 19  2  0  0  0  0
 19 17  1  0  0  0  0
 19  4  1  0  0  0  0
 20 24  1  0  0  0  0
 21 20  1  0  0  0  0
 23 21  1  6  0  0  0
 23 22  1  0  0  0  0
 24 22  1  1  0  0  0
 24 11  1  0  0  0  0
 25 26  1  6  0  0  0
 25 23  1  0  0  0  0
 26 27  1  0  0  0  0
 27 25  1  0  0  0  0
M  END
>  <MODEL>
8

>  <REMARK>
 VINA RESULT:      -6.6      4.683      6.963
  Name = 
  3 active torsions:
  status: ('A' for Active; 'I' for Inactive)
    1  A    between atoms: C_5  and  C_25
    2  A    between atoms: C_10  and  C_26
    3  A    between atoms: C_24  and  C_27
                            x       y       z     vdW  Elec       q    Type
                         _______ _______ _______ _____ _____    ______ ____

>  <TORSDO>
F 3

$$$$
=
 OpenBabel11062422083D

 27 31  0  0  1  0  0  0  0  0999 V2000
  188.3810  176.8780  143.7810 C   0  0  0  0  0  2  0  0  0  0  0  0
  190.7390  176.8670  147.3680 N   0  0  0  0  0  0  0  0  0  0  0  0
  187.2370  177.4950  144.5850 C   0  0  0  0  0  2  0  0  0  0  0  0
  192.1280  175.3380  146.1840 C   0  0  0  0  0  0  0  0  0  0  0  0
  188.4900  177.3780  146.7090 N   0  0  0  0  0  2  0  0  0  0  0  0
  191.1170  175.1420  145.2980 N   0  0  0  0  0  0  0  0  0  0  0  0
  187.2190  177.0860  146.0580 C   0  0  0  0  0  2  0  0  0  0  0  0
  189.7180  176.6650  146.4940 C   0  0  0  0  0  0  0  0  0  0  0  0
  191.9300  176.2300  147.2420 C   0  0  0  0  0  3  0  0  0  0  0  0
  189.9160  175.7780  145.4070 C   0  0  0  0  0  0  0  0  0  0  0  0
  188.8500  175.5430  144.3610 C   0  0  2  0  0  3  0  0  0  0  0  0
  195.8430  174.6570  145.9640 C   0  0  0  0  0  3  0  0  0  0  0  0
  194.6700  171.2490  145.3310 F   0  0  0  0  0  0  0  0  0  0  0  0
  194.6590  172.5790  145.5890 C   0  0  0  0  0  0  0  0  0  0  0  0
  197.0470  172.6460  145.5460 F   0  0  0  0  0  0  0  0  0  0  0  0
  195.8610  173.2860  145.6980 C   0  0  0  0  0  0  0  0  0  0  0  0
  193.4410  173.2460  145.7480 C   0  0  0  0  0  3  0  0  0  0  0  0
  194.6240  175.3230  146.1220 C   0  0  0  0  0  3  0  0  0  0  0  0
  193.4120  174.6240  146.0150 C   0  0  0  0  0  0  0  0  0  0  0  0
  190.3020  175.1120  142.4610 O   0  0  0  0  0  0  0  0  0  0  0  0
  190.1730  174.4710  141.2210 C   0  0  0  0  0  2  0  0  0  0  0  0
  188.1190  174.1860  142.3760 C   0  0  0  0  0  2  0  0  0  0  0  0
  188.7120  174.1480  140.9970 C   0  0  2  0  0  3  0  0  0  0  0  0
  189.2850  174.5660  143.2620 C   0  0  2  0  0  3  0  0  0  0  0  0
  188.5740  172.7570  140.4050 C   0  0  2  0  0  3  0  0  0  0  0  0
  189.5770  172.5600  139.3630 C   0  0  0  0  0  2  0  0  0  0  0  0
  188.1890  172.8680  138.9900 N   0  0  0  0  0  2  0  0  0  0  0  0
  1  3  1  0  0  0  0
  3  7  1  0  0  0  0
  4  9  2  0  0  0  0
  6 10  2  0  0  0  0
  6  4  1  0  0  0  0
  7  5  1  0  0  0  0
  8  5  1  0  0  0  0
  8  2  2  0  0  0  0
  9  2  1  0  0  0  0
 10  8  1  0  0  0  0
 11  1  1  6  0  0  0
 11 10  1  0  0  0  0
 12 18  1  0  0  0  0
 13 14  1  0  0  0  0
 14 16  1  0  0  0  0
 14 17  2  0  0  0  0
 15 16  1  0  0  0  0
 16 12  2  0  0  0  0
 17 19  1  0  0  0  0
 19 18  2  0  0  0  0
 19  4  1  0  0  0  0
 20 24  1  0  0  0  0
 21 20  1  0  0  0  0
 23 21  1  1  0  0  0
 23 22  1  0  0  0  0
 24 22  1  6  0  0  0
 24 11  1  0  0  0  0
 25 26  1  6  0  0  0
 25 23  1  0  0  0  0
 27 26  1  0  0  0  0
 27 25  1  0  0  0  0
M  END
>  <MODEL>
9

>  <REMARK>
 VINA RESULT:      -6.5      3.982      6.662
  Name = 
  3 active torsions:
  status: ('A' for Active; 'I' for Inactive)
    1  A    between atoms: C_5  and  C_25
    2  A    between atoms: C_10  and  C_26
    3  A    between atoms: C_24  and  C_27
                            x       y       z     vdW  Elec       q    Type
                         _______ _______ _______ _____ _____    ______ ____

>  <TORSDO>
F 3

$$$$
