=
 OpenBabel11062418453D

 43 47  0  0  1  0  0  0  0  0999 V2000
  186.3350  178.5220  147.8690 N   0  0  0  0  0  1  0  0  0  0  0  0
  186.0250  177.2000  147.3370 C   0  0  2  0  0  3  0  0  0  0  0  0
  186.8240  177.5840  145.0430 N   0  0  0  0  0  0  0  0  0  0  0  0
  187.0110  176.7820  146.2480 C   0  0  1  0  0  3  0  0  0  0  0  0
  185.6960  178.1410  144.7190 C   0  0  0  0  0  0  0  0  0  0  0  0
  184.4930  178.0660  145.6400 C   0  0  1  0  0  3  0  0  0  0  0  0
  184.6660  177.1640  146.7920 N   0  0  0  0  0  2  0  0  0  0  0  0
  184.1420  179.3320  146.0790 F   0  0  0  0  0  0  0  0  0  0  0  0
  185.6300  178.8600  143.5240 O   0  0  0  0  0  0  0  0  0  0  0  0
  184.5390  178.7410  142.6230 C   0  0  0  0  0  2  0  0  0  0  0  0
  184.7890  177.5860  141.6770 C   0  0  0  0  0  2  0  0  0  0  0  0
  185.6830  178.0620  140.5430 C   0  0  0  0  0  2  0  0  0  0  0  0
  186.9560  177.2290  140.4740 C   0  0  0  0  0  2  0  0  0  0  0  0
  188.1180  177.8890  141.2160 C   0  0  0  0  0  2  0  0  0  0  0  0
  188.6140  177.0290  142.3770 C   0  0  0  0  0  2  0  0  0  0  0  0
  188.4050  175.5450  142.1140 C   0  0  0  0  0  2  0  0  0  0  0  0
  189.6780  174.8910  141.8350 N   0  0  0  0  0  2  0  0  0  0  0  0
  191.1620  172.1320  141.5720 C   0  0  0  0  0  2  0  0  0  0  0  0
  188.9890  172.6270  142.3070 C   0  0  0  0  0  2  0  0  0  0  0  0
  189.9950  171.5230  142.3000 C   0  0  0  0  0  2  0  0  0  0  0  0
  190.6660  173.0870  140.6710 O   0  0  0  0  0  0  0  0  0  0  0  0
  189.4590  173.5770  141.2210 C   0  0  2  0  0  0  0  0  0  0  0  0
  188.5260  172.6080  139.0640 C   0  0  0  0  0  1  0  0  0  0  0  0
  188.3800  173.6830  140.1340 C   0  0  0  0  0  2  0  0  0  0  0  0
  188.4560  176.8290  146.7220 C   0  0  0  0  0  2  0  0  0  0  0  0
  189.0030  175.4190  146.8750 C   0  0  0  0  0  2  0  0  0  0  0  0
  195.3020  175.8670  141.9150 P   0  0  1  0  0  0  0  0  0  0  0  0
  194.8100  174.7570  140.7350 O   0  0  0  0  0  0  0  0  0  0  0  0
  194.0610  173.9680  145.7060 C   0  0  0  0  0  3  0  0  0  0  0  0
  191.7460  174.0820  144.7610 C   0  0  1  0  0  3  0  0  0  0  0  0
  192.1560  175.3910  144.0660 C   0  0  1  0  0  3  0  0  0  0  0  0
  192.7770  173.5730  145.7380 C   0  0  0  0  0  3  0  0  0  0  0  0
  190.3700  174.2240  145.4120 C   0  0  0  0  0  2  0  0  0  0  0  0
  190.5440  176.5780  145.5660 C   0  0  0  0  0  2  0  0  0  0  0  0
  193.9680  176.3860  142.8190 O   0  0  0  0  0  0  0  0  0  0  0  0
  191.9540  176.6020  144.9870 C   0  0  0  0  0  2  0  0  0  0  0  0
  193.6040  175.2700  143.5820 C   0  0  1  0  0  3  0  0  0  0  0  0
  196.8520  174.2900  145.1210 N   0  0  0  0  0  2  0  0  0  0  0  0
  196.3900  175.1160  143.0080 O   0  0  0  0  0  0  0  0  0  0  0  0
  195.9720  177.0520  141.2600 O   0  0  0  0  0  1  0  0  0  0  0  0
  194.5660  175.0440  144.7670 C   0  0  2  0  0  3  0  0  0  0  0  0
  190.3510  175.3520  146.3410 N   0  0  0  0  0  0  0  0  0  0  0  0
  195.9770  174.7640  144.2960 C   0  0  0  0  0  0  0  0  0  0  0  0
  2  1  1  6  0  0  0
  3  4  1  0  0  0  0
  4 25  1  1  0  0  0
  4  2  1  0  0  0  0
  5  3  2  0  0  0  0
  5  6  1  0  0  0  0
  6  8  1  1  0  0  0
  6  7  1  0  0  0  0
  7  2  1  0  0  0  0
  9  5  1  0  0  0  0
 10  9  1  0  0  0  0
 11 10  1  0  0  0  0
 12 11  1  0  0  0  0
 13 12  1  0  0  0  0
 13 14  1  0  0  0  0
 14 15  1  0  0  0  0
 16 15  1  0  0  0  0
 17 16  1  0  0  0  0
 18 20  1  0  0  0  0
 20 19  1  0  0  0  0
 21 22  1  0  0  0  0
 21 18  1  0  0  0  0
 22 24  1  6  0  0  0
 22 17  1  0  0  0  0
 22 19  1  0  0  0  0
 23 24  1  0  0  0  0
 25 26  1  0  0  0  0
 27 28  2  6  0  0  0
 27 35  1  0  0  0  0
 27 39  1  0  0  0  0
 29 32  2  0  0  0  0
 30 33  1  1  0  0  0
 30 32  1  0  0  0  0
 31 30  1  0  0  0  0
 31 36  1  1  0  0  0
 33 42  1  0  0  0  0
 34 42  1  0  0  0  0
 36 34  1  0  0  0  0
 37 35  1  1  0  0  0
 37 31  1  0  0  0  0
 37 41  1  0  0  0  0
 39 43  1  0  0  0  0
 40 27  1  0  0  0  0
 41 29  1  6  0  0  0
 42 26  1  0  0  0  0
 43 41  1  0  0  0  0
 43 38  2  0  0  0  0
M  END
>  <MODEL>
1

>  <REMARK>
 VINA RESULT:      -7.0      0.000      0.000
  Name = 
  14 active torsions:
  status: ('A' for Active; 'I' for Inactive)
    1  A    between atoms: N_4  and  C_21
    2  A    between atoms: N_4  and  C_22
    3  A    between atoms: C_14  and  C_30
    4  A    between atoms: C_14  and  C_40
    5  A    between atoms: O_15  and  C_23
    6  A    between atoms: O_15  and  C_40
    7  A    between atoms: C_16  and  C_29
    8  A    between atoms: C_21  and  C_39
    9  A    between atoms: C_22  and  C_28
   10  A    between atoms: C_26  and  C_29
   11  A    between atoms: C_26  and  N_42
   12  A    between atoms: C_28  and  C_38
   13  A    between atoms: C_30  and  C_34
   14  A    between atoms: C_34  and  C_38
                            x       y       z     vdW  Elec       q    Type
                         _______ _______ _______ _____ _____    ______ ____

>  <TORSDO>
F 14

$$$$
=
 OpenBabel11062418453D

 43 47  0  0  1  0  0  0  0  0999 V2000
  186.2900  178.4820  147.7230 N   0  0  0  0  0  1  0  0  0  0  0  0
  185.9730  177.1890  147.1260 C   0  0  2  0  0  3  0  0  0  0  0  0
  187.1090  177.5460  144.9740 N   0  0  0  0  0  0  0  0  0  0  0  0
  187.0720  176.7190  146.1770 C   0  0  1  0  0  3  0  0  0  0  0  0
  186.0760  178.1810  144.5080 C   0  0  0  0  0  0  0  0  0  0  0  0
  184.7530  178.1760  145.2500 C   0  0  1  0  0  3  0  0  0  0  0  0
  184.7040  177.2510  146.3960 N   0  0  0  0  0  2  0  0  0  0  0  0
  184.4260  179.4570  145.6630 F   0  0  0  0  0  0  0  0  0  0  0  0
  186.2250  178.9170  143.3310 O   0  0  0  0  0  0  0  0  0  0  0  0
  185.6570  178.5030  142.0960 C   0  0  0  0  0  2  0  0  0  0  0  0
  186.1850  177.1310  141.7320 C   0  0  0  0  0  2  0  0  0  0  0  0
  187.5970  177.2740  141.1910 C   0  0  0  0  0  2  0  0  0  0  0  0
  188.5450  176.3080  141.8910 C   0  0  0  0  0  2  0  0  0  0  0  0
  188.0890  174.8560  141.7560 C   0  0  0  0  0  2  0  0  0  0  0  0
  188.5440  174.2360  140.4360 C   0  0  0  0  0  2  0  0  0  0  0  0
  189.0100  172.7980  140.6150 C   0  0  0  0  0  2  0  0  0  0  0  0
  190.1670  172.7420  141.5000 N   0  0  0  0  0  2  0  0  0  0  0  0
  191.1200  169.7500  141.6650 C   0  0  0  0  0  2  0  0  0  0  0  0
  190.5890  171.0780  139.8050 C   0  0  0  0  0  2  0  0  0  0  0  0
  190.8180  169.6540  140.1950 C   0  0  0  0  0  2  0  0  0  0  0  0
  191.7100  171.0000  141.9110 O   0  0  0  0  0  0  0  0  0  0  0  0
  191.2120  171.8860  140.9280 C   0  0  2  0  0  0  0  0  0  0  0  0
  192.3620  174.1530  140.9670 C   0  0  0  0  0  1  0  0  0  0  0  0
  192.3470  172.7530  140.3650 C   0  0  0  0  0  2  0  0  0  0  0  0
  188.4370  176.6650  146.8480 C   0  0  0  0  0  2  0  0  0  0  0  0
  188.8410  175.2210  147.0950 C   0  0  0  0  0  2  0  0  0  0  0  0
  195.7950  176.1460  143.1890 P   0  0  1  0  0  0  0  0  0  0  0  0
  195.2060  176.3880  141.6210 O   0  0  0  0  0  0  0  0  0  0  0  0
  193.1730  172.9780  144.8030 C   0  0  0  0  0  3  0  0  0  0  0  0
  191.3130  174.6020  144.3950 C   0  0  1  0  0  3  0  0  0  0  0  0
  192.3020  175.7310  144.7310 C   0  0  1  0  0  3  0  0  0  0  0  0
  191.8590  173.2230  144.6760 C   0  0  0  0  0  3  0  0  0  0  0  0
  189.9720  174.8340  145.0930 C   0  0  0  0  0  2  0  0  0  0  0  0
  190.9370  176.1880  146.7760 C   0  0  0  0  0  2  0  0  0  0  0  0
  194.5730  176.4420  144.3220 O   0  0  0  0  0  0  0  0  0  0  0  0
  192.3520  176.0030  146.2400 C   0  0  0  0  0  2  0  0  0  0  0  0
  193.6800  175.3750  144.1630 C   0  0  1  0  0  3  0  0  0  0  0  0
  195.9510  172.4280  144.3380 N   0  0  0  0  0  2  0  0  0  0  0  0
  196.2810  174.5130  143.3870 O   0  0  0  0  0  0  0  0  0  0  0  0
  196.9690  177.0630  143.4460 O   0  0  0  0  0  1  0  0  0  0  0  0
  194.2180  174.0730  144.7930 C   0  0  2  0  0  3  0  0  0  0  0  0
  190.1570  174.9730  146.5360 N   0  0  0  0  0  0  0  0  0  0  0  0
  195.5020  173.6220  144.1310 C   0  0  0  0  0  0  0  0  0  0  0  0
  2  1  1  6  0  0  0
  3  4  1  0  0  0  0
  4 25  1  1  0  0  0
  4  2  1  0  0  0  0
  5  3  2  0  0  0  0
  5  6  1  0  0  0  0
  6  8  1  1  0  0  0
  6  7  1  0  0  0  0
  7  2  1  0  0  0  0
  9  5  1  0  0  0  0
 10  9  1  0  0  0  0
 11 10  1  0  0  0  0
 12 11  1  0  0  0  0
 12 13  1  0  0  0  0
 14 13  1  0  0  0  0
 15 16  1  0  0  0  0
 15 14  1  0  0  0  0
 16 17  1  0  0  0  0
 18 21  1  0  0  0  0
 19 20  1  0  0  0  0
 19 22  1  0  0  0  0
 20 18  1  0  0  0  0
 22 24  1  6  0  0  0
 22 17  1  0  0  0  0
 22 21  1  0  0  0  0
 24 23  1  0  0  0  0
 25 26  1  0  0  0  0
 27 28  2  6  0  0  0
 27 39  1  0  0  0  0
 27 40  1  0  0  0  0
 27 35  1  0  0  0  0
 30 32  1  1  0  0  0
 30 31  1  0  0  0  0
 30 33  1  0  0  0  0
 31 36  1  1  0  0  0
 32 29  2  0  0  0  0
 33 42  1  0  0  0  0
 36 34  1  0  0  0  0
 37 35  1  1  0  0  0
 37 31  1  0  0  0  0
 37 41  1  0  0  0  0
 39 43  1  0  0  0  0
 41 29  1  6  0  0  0
 42 34  1  0  0  0  0
 42 26  1  0  0  0  0
 43 38  2  0  0  0  0
 43 41  1  0  0  0  0
M  END
>  <MODEL>
2

>  <REMARK>
 VINA RESULT:      -7.0      1.314      1.931
  Name = 
  14 active torsions:
  status: ('A' for Active; 'I' for Inactive)
    1  A    between atoms: N_4  and  C_21
    2  A    between atoms: N_4  and  C_22
    3  A    between atoms: C_14  and  C_30
    4  A    between atoms: C_14  and  C_40
    5  A    between atoms: O_15  and  C_23
    6  A    between atoms: O_15  and  C_40
    7  A    between atoms: C_16  and  C_29
    8  A    between atoms: C_21  and  C_39
    9  A    between atoms: C_22  and  C_28
   10  A    between atoms: C_26  and  C_29
   11  A    between atoms: C_26  and  N_42
   12  A    between atoms: C_28  and  C_38
   13  A    between atoms: C_30  and  C_34
   14  A    between atoms: C_34  and  C_38
                            x       y       z     vdW  Elec       q    Type
                         _______ _______ _______ _____ _____    ______ ____

>  <TORSDO>
F 14

$$$$
=
 OpenBabel11062418453D

 43 47  0  0  1  0  0  0  0  0999 V2000
  186.5550  178.5890  147.7960 N   0  0  0  0  0  1  0  0  0  0  0  0
  186.3410  177.2310  147.3100 C   0  0  2  0  0  3  0  0  0  0  0  0
  186.7980  177.6690  144.9330 N   0  0  0  0  0  0  0  0  0  0  0  0
  187.2270  176.9140  146.1070 C   0  0  1  0  0  3  0  0  0  0  0  0
  185.5810  178.0830  144.7520 C   0  0  0  0  0  0  0  0  0  0  0  0
  184.5180  177.8830  145.8160 C   0  0  1  0  0  3  0  0  0  0  0  0
  184.9390  177.0260  146.9390 N   0  0  0  0  0  2  0  0  0  0  0  0
  184.0760  179.1050  146.2940 F   0  0  0  0  0  0  0  0  0  0  0  0
  185.2820  178.7700  143.5740 O   0  0  0  0  0  0  0  0  0  0  0  0
  186.2220  178.9200  142.5200 C   0  0  0  0  0  2  0  0  0  0  0  0
  185.9010  177.9400  141.4120 C   0  0  0  0  0  2  0  0  0  0  0  0
  187.1920  177.3000  140.9310 C   0  0  0  0  0  2  0  0  0  0  0  0
  188.3710  177.7580  141.7800 C   0  0  0  0  0  2  0  0  0  0  0  0
  189.1410  176.5810  142.3790 C   0  0  0  0  0  2  0  0  0  0  0  0
  188.2300  175.3860  142.6560 C   0  0  0  0  0  2  0  0  0  0  0  0
  188.8700  174.0730  142.2270 C   0  0  0  0  0  2  0  0  0  0  0  0
  190.1990  174.3080  141.6770 N   0  0  0  0  0  2  0  0  0  0  0  0
  191.9590  171.7430  142.1280 C   0  0  0  0  0  2  0  0  0  0  0  0
  189.7750  171.9630  141.2990 C   0  0  0  0  0  2  0  0  0  0  0  0
  190.7260  170.9370  141.8240 C   0  0  0  0  0  2  0  0  0  0  0  0
  191.9970  172.8360  141.2490 O   0  0  0  0  0  0  0  0  0  0  0  0
  190.6560  173.1390  140.9180 C   0  0  2  0  0  0  0  0  0  0  0  0
  191.8770  173.4610  138.7110 C   0  0  0  0  0  1  0  0  0  0  0  0
  190.5250  173.4090  139.4130 C   0  0  0  0  0  2  0  0  0  0  0  0
  188.7040  177.1400  146.3960 C   0  0  0  0  0  2  0  0  0  0  0  0
  189.3550  175.8390  146.8370 C   0  0  0  0  0  2  0  0  0  0  0  0
  196.3750  172.8740  144.3070 P   0  0  1  0  0  0  0  0  0  0  0  0
  197.0310  172.3980  145.7930 O   0  0  0  0  0  1  0  0  0  0  0  0
  194.4200  176.7280  145.2230 C   0  0  0  0  0  3  0  0  0  0  0  0
  193.0420  175.4040  146.8390 C   0  0  1  0  0  3  0  0  0  0  0  0
  193.1320  174.2230  145.8590 C   0  0  1  0  0  3  0  0  0  0  0  0
  193.5870  176.6950  146.2750 C   0  0  0  0  0  3  0  0  0  0  0  0
  191.6130  175.5710  147.3560 C   0  0  0  0  0  2  0  0  0  0  0  0
  190.6720  174.4750  145.4830 C   0  0  0  0  0  2  0  0  0  0  0  0
  194.6980  173.0540  144.4420 O   0  0  0  0  0  0  0  0  0  0  0  0
  192.0230  174.2870  144.8010 C   0  0  0  0  0  2  0  0  0  0  0  0
  194.5290  174.1980  145.2310 C   0  0  1  0  0  3  0  0  0  0  0  0
  196.7100  176.6680  143.4930 N   0  0  0  0  0  2  0  0  0  0  0  0
  197.0110  174.4000  143.8470 O   0  0  0  0  0  0  0  0  0  0  0  0
  196.7000  171.8460  143.2480 O   0  0  0  0  0  0  0  0  0  0  0  0
  194.8000  175.4920  144.4350 C   0  0  2  0  0  3  0  0  0  0  0  0
  190.6760  175.7230  146.2460 N   0  0  0  0  0  0  0  0  0  0  0  0
  196.2290  175.5550  143.9400 C   0  0  0  0  0  0  0  0  0  0  0  0
  2  1  1  6  0  0  0
  3  4  1  0  0  0  0
  4 25  1  1  0  0  0
  4  2  1  0  0  0  0
  5  3  2  0  0  0  0
  5  6  1  0  0  0  0
  6  8  1  1  0  0  0
  6  7  1  0  0  0  0
  7  2  1  0  0  0  0
  9  5  1  0  0  0  0
 10  9  1  0  0  0  0
 11 10  1  0  0  0  0
 12 11  1  0  0  0  0
 12 13  1  0  0  0  0
 13 14  1  0  0  0  0
 14 15  1  0  0  0  0
 16 15  1  0  0  0  0
 17 16  1  0  0  0  0
 19 20  1  0  0  0  0
 20 18  1  0  0  0  0
 21 18  1  0  0  0  0
 22 24  1  6  0  0  0
 22 21  1  0  0  0  0
 22 19  1  0  0  0  0
 22 17  1  0  0  0  0
 23 24  1  0  0  0  0
 25 26  1  0  0  0  0
 27 40  2  6  0  0  0
 27 35  1  0  0  0  0
 27 28  1  0  0  0  0
 29 32  2  0  0  0  0
 30 32  1  6  0  0  0
 30 33  1  0  0  0  0
 31 36  1  6  0  0  0
 31 30  1  0  0  0  0
 34 42  1  0  0  0  0
 36 34  1  0  0  0  0
 37 35  1  6  0  0  0
 37 31  1  0  0  0  0
 38 43  2  0  0  0  0
 39 43  1  0  0  0  0
 39 27  1  0  0  0  0
 41 29  1  1  0  0  0
 41 37  1  0  0  0  0
 42 26  1  0  0  0  0
 42 33  1  0  0  0  0
 43 41  1  0  0  0  0
M  END
>  <MODEL>
3

>  <REMARK>
 VINA RESULT:      -6.9      1.615      2.214
  Name = 
  14 active torsions:
  status: ('A' for Active; 'I' for Inactive)
    1  A    between atoms: N_4  and  C_21
    2  A    between atoms: N_4  and  C_22
    3  A    between atoms: C_14  and  C_30
    4  A    between atoms: C_14  and  C_40
    5  A    between atoms: O_15  and  C_23
    6  A    between atoms: O_15  and  C_40
    7  A    between atoms: C_16  and  C_29
    8  A    between atoms: C_21  and  C_39
    9  A    between atoms: C_22  and  C_28
   10  A    between atoms: C_26  and  C_29
   11  A    between atoms: C_26  and  N_42
   12  A    between atoms: C_28  and  C_38
   13  A    between atoms: C_30  and  C_34
   14  A    between atoms: C_34  and  C_38
                            x       y       z     vdW  Elec       q    Type
                         _______ _______ _______ _____ _____    ______ ____

>  <TORSDO>
F 14

$$$$
=
 OpenBabel11062418453D

 43 47  0  0  1  0  0  0  0  0999 V2000
  184.5570  177.7140  143.0740 N   0  0  0  0  0  1  0  0  0  0  0  0
  185.5900  178.7100  142.8110 C   0  0  2  0  0  3  0  0  0  0  0  0
  187.3760  177.6780  144.1510 N   0  0  0  0  0  0  0  0  0  0  0  0
  186.9860  178.0910  142.8060 C   0  0  1  0  0  3  0  0  0  0  0  0
  186.9130  178.2280  145.2330 C   0  0  0  0  0  0  0  0  0  0  0  0
  185.8440  179.3020  145.1710 C   0  0  1  0  0  3  0  0  0  0  0  0
  185.5450  179.7810  143.8090 N   0  0  0  0  0  2  0  0  0  0  0  0
  184.6810  178.8630  145.7830 F   0  0  0  0  0  0  0  0  0  0  0  0
  187.3840  177.7680  146.4640 O   0  0  0  0  0  0  0  0  0  0  0  0
  187.3230  176.4000  146.8400 C   0  0  0  0  0  2  0  0  0  0  0  0
  188.7090  175.7950  146.7730 C   0  0  0  0  0  2  0  0  0  0  0  0
  189.7370  176.9150  146.7920 C   0  0  0  0  0  2  0  0  0  0  0  0
  190.9280  176.5400  147.6650 C   0  0  0  0  0  2  0  0  0  0  0  0
  192.2130  176.3910  146.8530 C   0  0  0  0  0  2  0  0  0  0  0  0
  192.5190  174.9290  146.5330 C   0  0  0  0  0  2  0  0  0  0  0  0
  193.4180  174.7920  145.3130 C   0  0  0  0  0  2  0  0  0  0  0  0
  193.2910  175.9590  144.4490 N   0  0  0  0  0  2  0  0  0  0  0  0
  194.7830  175.8040  141.6860 C   0  0  0  0  0  2  0  0  0  0  0  0
  193.5920  174.1630  142.8670 C   0  0  0  0  0  2  0  0  0  0  0  0
  194.5520  174.3190  141.7320 C   0  0  0  0  0  2  0  0  0  0  0  0
  193.6270  176.4440  142.1610 O   0  0  0  0  0  0  0  0  0  0  0  0
  193.0120  175.5500  143.0680 C   0  0  2  0  0  0  0  0  0  0  0  0
  190.8080  176.8060  143.2440 C   0  0  0  0  0  1  0  0  0  0  0  0
  191.4950  175.5090  142.8330 C   0  0  0  0  0  2  0  0  0  0  0  0
  187.1080  176.9380  141.8200 C   0  0  0  0  0  2  0  0  0  0  0  0
  187.0710  175.6110  142.5600 C   0  0  0  0  0  2  0  0  0  0  0  0
  191.0630  170.5110  137.8150 P   0  0  1  0  0  0  0  0  0  0  0  0
  189.9740  169.2150  137.8150 O   0  0  0  0  0  1  0  0  0  0  0  0
  190.9770  171.9410  141.9930 C   0  0  0  0  0  3  0  0  0  0  0  0
  188.5410  172.3460  141.5830 C   0  0  1  0  0  3  0  0  0  0  0  0
  188.9020  172.6860  140.1280 C   0  0  1  0  0  3  0  0  0  0  0  0
  189.7460  172.1790  142.4770 C   0  0  0  0  0  3  0  0  0  0  0  0
  187.5540  173.3670  142.1480 C   0  0  0  0  0  2  0  0  0  0  0  0
  188.2070  175.0400  140.6080 C   0  0  0  0  0  2  0  0  0  0  0  0
  190.2770  171.9320  138.2920 O   0  0  0  0  0  0  0  0  0  0  0  0
  189.2830  174.1640  139.9750 C   0  0  0  0  0  2  0  0  0  0  0  0
  190.0200  171.7510  139.6560 C   0  0  1  0  0  3  0  0  0  0  0  0
  193.3640  170.7370  140.9480 N   0  0  0  0  0  2  0  0  0  0  0  0
  192.3180  170.2230  138.9480 O   0  0  0  0  0  0  0  0  0  0  0  0
  191.6530  170.6870  136.4340 O   0  0  0  0  0  0  0  0  0  0  0  0
  191.2910  171.9340  140.5120 C   0  0  2  0  0  3  0  0  0  0  0  0
  188.0880  174.7220  142.0310 N   0  0  0  0  0  0  0  0  0  0  0  0
  192.3500  170.9100  140.1650 C   0  0  0  0  0  0  0  0  0  0  0  0
  2  1  1  1  0  0  0
  2  7  1  0  0  0  0
  3  5  2  0  0  0  0
  4 25  1  6  0  0  0
  4  2  1  0  0  0  0
  4  3  1  0  0  0  0
  5  9  1  0  0  0  0
  6  5  1  0  0  0  0
  6  8  1  6  0  0  0
  7  6  1  0  0  0  0
  9 10  1  0  0  0  0
 11 12  1  0  0  0  0
 11 10  1  0  0  0  0
 12 13  1  0  0  0  0
 14 13  1  0  0  0  0
 15 14  1  0  0  0  0
 16 15  1  0  0  0  0
 17 16  1  0  0  0  0
 18 20  1  0  0  0  0
 18 21  1  0  0  0  0
 19 22  1  0  0  0  0
 20 19  1  0  0  0  0
 21 22  1  0  0  0  0
 22 24  1  6  0  0  0
 22 17  1  0  0  0  0
 24 23  1  0  0  0  0
 25 26  1  0  0  0  0
 27 40  2  6  0  0  0
 27 28  1  0  0  0  0
 27 35  1  0  0  0  0
 27 39  1  0  0  0  0
 29 32  2  0  0  0  0
 30 33  1  1  0  0  0
 30 32  1  0  0  0  0
 31 36  1  1  0  0  0
 31 30  1  0  0  0  0
 34 42  1  0  0  0  0
 36 34  1  0  0  0  0
 37 35  1  6  0  0  0
 37 31  1  0  0  0  0
 37 41  1  0  0  0  0
 39 43  1  0  0  0  0
 41 29  1  1  0  0  0
 42 33  1  0  0  0  0
 42 26  1  0  0  0  0
 43 41  1  0  0  0  0
 43 38  2  0  0  0  0
M  END
>  <MODEL>
4

>  <REMARK>
 VINA RESULT:      -6.6      2.532      5.667
  Name = 
  14 active torsions:
  status: ('A' for Active; 'I' for Inactive)
    1  A    between atoms: N_4  and  C_21
    2  A    between atoms: N_4  and  C_22
    3  A    between atoms: C_14  and  C_30
    4  A    between atoms: C_14  and  C_40
    5  A    between atoms: O_15  and  C_23
    6  A    between atoms: O_15  and  C_40
    7  A    between atoms: C_16  and  C_29
    8  A    between atoms: C_21  and  C_39
    9  A    between atoms: C_22  and  C_28
   10  A    between atoms: C_26  and  C_29
   11  A    between atoms: C_26  and  N_42
   12  A    between atoms: C_28  and  C_38
   13  A    between atoms: C_30  and  C_34
   14  A    between atoms: C_34  and  C_38
                            x       y       z     vdW  Elec       q    Type
                         _______ _______ _______ _____ _____    ______ ____

>  <TORSDO>
F 14

$$$$
=
 OpenBabel11062418453D

 43 47  0  0  1  0  0  0  0  0999 V2000
  184.6710  177.8290  142.8370 N   0  0  0  0  0  1  0  0  0  0  0  0
  185.7530  178.8050  142.7860 C   0  0  2  0  0  3  0  0  0  0  0  0
  187.3040  177.6370  144.2960 N   0  0  0  0  0  0  0  0  0  0  0  0
  187.1200  178.1430  142.9390 C   0  0  1  0  0  3  0  0  0  0  0  0
  186.7050  178.1370  145.3350 C   0  0  0  0  0  0  0  0  0  0  0  0
  185.6800  179.2470  145.1910 C   0  0  1  0  0  3  0  0  0  0  0  0
  185.5910  179.8160  143.8340 N   0  0  0  0  0  2  0  0  0  0  0  0
  184.4330  178.8090  145.6030 F   0  0  0  0  0  0  0  0  0  0  0  0
  186.9830  177.5890  146.5890 O   0  0  0  0  0  0  0  0  0  0  0  0
  187.3640  176.2320  146.7600 C   0  0  0  0  0  2  0  0  0  0  0  0
  188.8590  176.1500  146.9820 C   0  0  0  0  0  2  0  0  0  0  0  0
  189.4540  175.1760  145.9780 C   0  0  0  0  0  2  0  0  0  0  0  0
  190.6700  175.7850  145.2910 C   0  0  0  0  0  2  0  0  0  0  0  0
  191.9610  175.0460  145.6430 C   0  0  0  0  0  2  0  0  0  0  0  0
  192.8150  175.8340  146.6350 C   0  0  0  0  0  2  0  0  0  0  0  0
  194.0250  176.4680  145.9640 C   0  0  0  0  0  2  0  0  0  0  0  0
  194.0870  176.0880  144.5570 N   0  0  0  0  0  2  0  0  0  0  0  0
  195.8860  173.7320  145.6040 C   0  0  0  0  0  2  0  0  0  0  0  0
  195.1140  174.2120  143.4400 C   0  0  0  0  0  2  0  0  0  0  0  0
  195.7350  173.1140  144.2410 C   0  0  0  0  0  2  0  0  0  0  0  0
  196.0510  175.1160  145.4420 O   0  0  0  0  0  0  0  0  0  0  0  0
  195.3800  175.4690  144.2480 C   0  0  2  0  0  0  0  0  0  0  0  0
  195.7810  176.5190  141.9670 C   0  0  0  0  0  1  0  0  0  0  0  0
  196.2370  176.4370  143.4190 C   0  0  0  0  0  2  0  0  0  0  0  0
  187.3550  177.0480  141.9090 C   0  0  0  0  0  2  0  0  0  0  0  0
  186.9740  175.6950  142.4880 C   0  0  0  0  0  2  0  0  0  0  0  0
  193.6070  171.5240  140.7310 P   0  0  1  0  0  0  0  0  0  0  0  0
  192.9530  170.3970  139.6510 O   0  0  0  0  0  0  0  0  0  0  0  0
  190.5150  171.8730  143.8670 C   0  0  0  0  0  3  0  0  0  0  0  0
  189.0180  172.6330  142.0110 C   0  0  1  0  0  3  0  0  0  0  0  0
  190.2510  173.2810  141.3600 C   0  0  1  0  0  3  0  0  0  0  0  0
  189.2780  172.1170  143.4060 C   0  0  0  0  0  3  0  0  0  0  0  0
  187.8220  173.5840  141.9720 C   0  0  0  0  0  2  0  0  0  0  0  0
  189.1940  175.5040  141.8030 C   0  0  0  0  0  2  0  0  0  0  0  0
  192.5780  172.8600  140.8730 O   0  0  0  0  0  0  0  0  0  0  0  0
  190.4860  174.7000  141.8940 C   0  0  0  0  0  2  0  0  0  0  0  0
  191.4670  172.3750  141.5750 C   0  0  1  0  0  3  0  0  0  0  0  0
  193.0620  170.7100  144.5000 N   0  0  0  0  0  2  0  0  0  0  0  0
  193.7480  170.8270  142.2920 O   0  0  0  0  0  0  0  0  0  0  0  0
  194.9670  171.9710  140.2470 O   0  0  0  0  0  1  0  0  0  0  0  0
  191.7660  172.1990  143.0780 C   0  0  2  0  0  3  0  0  0  0  0  0
  188.1540  174.8590  142.6060 N   0  0  0  0  0  0  0  0  0  0  0  0
  192.8630  171.1830  143.3140 C   0  0  0  0  0  0  0  0  0  0  0  0
  2  1  1  1  0  0  0
  2  4  1  0  0  0  0
  2  7  1  0  0  0  0
  3  5  2  0  0  0  0
  4 25  1  6  0  0  0
  4  3  1  0  0  0  0
  5  9  1  0  0  0  0
  6  5  1  0  0  0  0
  6  8  1  6  0  0  0
  7  6  1  0  0  0  0
  9 10  1  0  0  0  0
 10 11  1  0  0  0  0
 12 11  1  0  0  0  0
 13 14  1  0  0  0  0
 13 12  1  0  0  0  0
 14 15  1  0  0  0  0
 16 15  1  0  0  0  0
 17 16  1  0  0  0  0
 19 20  1  0  0  0  0
 19 22  1  0  0  0  0
 20 18  1  0  0  0  0
 21 18  1  0  0  0  0
 22 24  1  6  0  0  0
 22 17  1  0  0  0  0
 22 21  1  0  0  0  0
 23 24  1  0  0  0  0
 25 26  1  0  0  0  0
 26 42  1  0  0  0  0
 27 28  2  6  0  0  0
 27 35  1  0  0  0  0
 27 39  1  0  0  0  0
 30 33  1  1  0  0  0
 30 32  1  0  0  0  0
 31 37  1  0  0  0  0
 31 36  1  1  0  0  0
 31 30  1  0  0  0  0
 32 29  2  0  0  0  0
 33 42  1  0  0  0  0
 34 36  1  0  0  0  0
 34 42  1  0  0  0  0
 37 35  1  6  0  0  0
 37 41  1  0  0  0  0
 39 43  1  0  0  0  0
 40 27  1  0  0  0  0
 41 43  1  0  0  0  0
 41 29  1  1  0  0  0
 43 38  2  0  0  0  0
M  END
>  <MODEL>
5

>  <REMARK>
 VINA RESULT:      -6.5      2.222      5.288
  Name = 
  14 active torsions:
  status: ('A' for Active; 'I' for Inactive)
    1  A    between atoms: N_4  and  C_21
    2  A    between atoms: N_4  and  C_22
    3  A    between atoms: C_14  and  C_30
    4  A    between atoms: C_14  and  C_40
    5  A    between atoms: O_15  and  C_23
    6  A    between atoms: O_15  and  C_40
    7  A    between atoms: C_16  and  C_29
    8  A    between atoms: C_21  and  C_39
    9  A    between atoms: C_22  and  C_28
   10  A    between atoms: C_26  and  C_29
   11  A    between atoms: C_26  and  N_42
   12  A    between atoms: C_28  and  C_38
   13  A    between atoms: C_30  and  C_34
   14  A    between atoms: C_34  and  C_38
                            x       y       z     vdW  Elec       q    Type
                         _______ _______ _______ _____ _____    ______ ____

>  <TORSDO>
F 14

$$$$
=
 OpenBabel11062418453D

 43 47  0  0  1  0  0  0  0  0999 V2000
  186.3840  178.4610  147.6700 N   0  0  0  0  0  1  0  0  0  0  0  0
  186.1250  177.1700  147.0450 C   0  0  2  0  0  3  0  0  0  0  0  0
  187.2230  177.6320  144.8930 N   0  0  0  0  0  0  0  0  0  0  0  0
  187.2370  176.7760  146.0760 C   0  0  1  0  0  3  0  0  0  0  0  0
  186.1560  178.2260  144.4500 C   0  0  0  0  0  0  0  0  0  0  0  0
  184.8410  178.1390  145.2020 C   0  0  1  0  0  3  0  0  0  0  0  0
  184.8480  177.1860  146.3260 N   0  0  0  0  0  2  0  0  0  0  0  0
  184.4560  179.3930  145.6480 F   0  0  0  0  0  0  0  0  0  0  0  0
  186.2580  178.9960  143.2900 O   0  0  0  0  0  0  0  0  0  0  0  0
  185.9360  178.4830  142.0050 C   0  0  0  0  0  2  0  0  0  0  0  0
  187.2100  178.2460  141.2220 C   0  0  0  0  0  2  0  0  0  0  0  0
  187.3370  176.7600  140.9260 C   0  0  0  0  0  2  0  0  0  0  0  0
  188.1930  176.0710  141.9810 C   0  0  0  0  0  2  0  0  0  0  0  0
  187.7080  174.6530  142.2790 C   0  0  0  0  0  2  0  0  0  0  0  0
  188.7740  173.6070  141.9570 C   0  0  0  0  0  2  0  0  0  0  0  0
  188.5730  172.9980  140.5770 C   0  0  0  0  0  2  0  0  0  0  0  0
  189.2920  173.7680  139.5690 N   0  0  0  0  0  2  0  0  0  0  0  0
  189.3610  173.3140  136.4590 C   0  0  0  0  0  2  0  0  0  0  0  0
  191.1120  173.6160  137.9920 C   0  0  0  0  0  2  0  0  0  0  0  0
  190.8320  173.6220  136.5240 C   0  0  0  0  0  2  0  0  0  0  0  0
  189.0270  172.5300  137.5740 O   0  0  0  0  0  0  0  0  0  0  0  0
  189.9370  172.8740  138.6010 C   0  0  2  0  0  0  0  0  0  0  0  0
  191.8930  171.7380  139.7610 C   0  0  0  0  0  1  0  0  0  0  0  0
  190.4420  171.6110  139.3120 C   0  0  0  0  0  2  0  0  0  0  0  0
  188.6090  176.7730  146.7350 C   0  0  0  0  0  2  0  0  0  0  0  0
  189.5910  177.5820  145.9030 C   0  0  0  0  0  2  0  0  0  0  0  0
  194.6740  171.4820  144.7110 P   0  0  1  0  0  0  0  0  0  0  0  0
  194.4280  170.6260  146.1510 O   0  0  0  0  0  1  0  0  0  0  0  0
  194.6430  175.7080  145.9980 C   0  0  0  0  0  3  0  0  0  0  0  0
  192.3200  175.2280  146.7950 C   0  0  1  0  0  3  0  0  0  0  0  0
  192.1760  174.2560  145.6130 C   0  0  1  0  0  3  0  0  0  0  0  0
  193.5810  176.0570  146.7420 C   0  0  0  0  0  3  0  0  0  0  0  0
  191.0730  176.1030  146.9300 C   0  0  0  0  0  2  0  0  0  0  0  0
  190.4730  175.8200  144.6600 C   0  0  0  0  0  2  0  0  0  0  0  0
  193.3740  172.5280  144.4270 O   0  0  0  0  0  0  0  0  0  0  0  0
  191.7060  174.9800  144.3450 C   0  0  0  0  0  2  0  0  0  0  0  0
  193.5050  173.5250  145.4010 C   0  0  1  0  0  3  0  0  0  0  0  0
  197.0660  174.5410  144.9950 N   0  0  0  0  0  2  0  0  0  0  0  0
  196.0830  172.4510  144.8380 O   0  0  0  0  0  0  0  0  0  0  0  0
  194.8200  170.5160  143.5570 O   0  0  0  0  0  0  0  0  0  0  0  0
  194.6350  174.5200  145.0590 C   0  0  2  0  0  3  0  0  0  0  0  0
  190.8020  176.8130  145.6820 N   0  0  0  0  0  0  0  0  0  0  0  0
  195.9830  173.8350  145.0020 C   0  0  0  0  0  0  0  0  0  0  0  0
  2  1  1  6  0  0  0
  3  4  1  0  0  0  0
  4 25  1  1  0  0  0
  4  2  1  0  0  0  0
  5  3  2  0  0  0  0
  5  6  1  0  0  0  0
  6  8  1  1  0  0  0
  6  7  1  0  0  0  0
  7  2  1  0  0  0  0
  9  5  1  0  0  0  0
 10  9  1  0  0  0  0
 11 10  1  0  0  0  0
 12 11  1  0  0  0  0
 12 13  1  0  0  0  0
 13 14  1  0  0  0  0
 15 14  1  0  0  0  0
 16 15  1  0  0  0  0
 17 16  1  0  0  0  0
 18 20  1  0  0  0  0
 18 21  1  0  0  0  0
 19 22  1  0  0  0  0
 20 19  1  0  0  0  0
 21 22  1  0  0  0  0
 22 24  1  1  0  0  0
 22 17  1  0  0  0  0
 24 23  1  0  0  0  0
 26 25  1  0  0  0  0
 27 40  2  6  0  0  0
 27 39  1  0  0  0  0
 27 28  1  0  0  0  0
 29 32  2  0  0  0  0
 30 32  1  6  0  0  0
 30 33  1  0  0  0  0
 31 36  1  6  0  0  0
 31 30  1  0  0  0  0
 34 42  1  0  0  0  0
 35 27  1  0  0  0  0
 36 34  1  0  0  0  0
 37 35  1  6  0  0  0
 37 31  1  0  0  0  0
 38 43  2  0  0  0  0
 39 43  1  0  0  0  0
 41 37  1  0  0  0  0
 41 29  1  1  0  0  0
 42 26  1  0  0  0  0
 42 33  1  0  0  0  0
 43 41  1  0  0  0  0
M  END
>  <MODEL>
6

>  <REMARK>
 VINA RESULT:      -6.4      2.191      3.032
  Name = 
  14 active torsions:
  status: ('A' for Active; 'I' for Inactive)
    1  A    between atoms: N_4  and  C_21
    2  A    between atoms: N_4  and  C_22
    3  A    between atoms: C_14  and  C_30
    4  A    between atoms: C_14  and  C_40
    5  A    between atoms: O_15  and  C_23
    6  A    between atoms: O_15  and  C_40
    7  A    between atoms: C_16  and  C_29
    8  A    between atoms: C_21  and  C_39
    9  A    between atoms: C_22  and  C_28
   10  A    between atoms: C_26  and  C_29
   11  A    between atoms: C_26  and  N_42
   12  A    between atoms: C_28  and  C_38
   13  A    between atoms: C_30  and  C_34
   14  A    between atoms: C_34  and  C_38
                            x       y       z     vdW  Elec       q    Type
                         _______ _______ _______ _____ _____    ______ ____

>  <TORSDO>
F 14

$$$$
=
 OpenBabel11062418453D

 43 47  0  0  1  0  0  0  0  0999 V2000
  194.9450  172.6080  144.2670 N   0  0  0  0  0  1  0  0  0  0  0  0
  195.2710  173.3490  145.4800 C   0  0  2  0  0  3  0  0  0  0  0  0
  195.1170  175.6090  144.5230 N   0  0  0  0  0  0  0  0  0  0  0  0
  194.5640  174.7020  145.5240 C   0  0  1  0  0  3  0  0  0  0  0  0
  196.3320  175.5250  144.0720 C   0  0  0  0  0  0  0  0  0  0  0  0
  197.2510  174.3970  144.5000 C   0  0  1  0  0  3  0  0  0  0  0  0
  196.7160  173.5600  145.5890 N   0  0  0  0  0  2  0  0  0  0  0  0
  197.5810  173.6040  143.4130 F   0  0  0  0  0  0  0  0  0  0  0  0
  196.7590  176.4700  143.1370 O   0  0  0  0  0  0  0  0  0  0  0  0
  196.2970  176.4750  141.7940 C   0  0  0  0  0  2  0  0  0  0  0  0
  197.2230  175.6390  140.9370 C   0  0  0  0  0  2  0  0  0  0  0  0
  196.4680  175.1760  139.7020 C   0  0  0  0  0  2  0  0  0  0  0  0
  194.9660  175.3420  139.8940 C   0  0  0  0  0  2  0  0  0  0  0  0
  194.2960  174.0460  140.3510 C   0  0  0  0  0  2  0  0  0  0  0  0
  192.8230  174.2560  140.6940 C   0  0  0  0  0  2  0  0  0  0  0  0
  192.1230  172.9440  141.0180 C   0  0  0  0  0  2  0  0  0  0  0  0
  192.2770  172.6180  142.4300 N   0  0  0  0  0  2  0  0  0  0  0  0
  189.8190  172.3370  144.3700 C   0  0  0  0  0  2  0  0  0  0  0  0
  190.0120  171.8640  142.0790 C   0  0  0  0  0  2  0  0  0  0  0  0
  188.9860  172.0550  143.1490 C   0  0  0  0  0  2  0  0  0  0  0  0
  191.0510  171.6830  144.2210 O   0  0  0  0  0  0  0  0  0  0  0  0
  191.3020  171.5970  142.8320 C   0  0  2  0  0  0  0  0  0  0  0  0
  190.8250  169.3990  141.6480 C   0  0  0  0  0  1  0  0  0  0  0  0
  191.8270  170.2020  142.4680 C   0  0  0  0  0  2  0  0  0  0  0  0
  193.0550  174.5760  145.3780 C   0  0  0  0  0  2  0  0  0  0  0  0
  192.5520  175.5300  144.3070 C   0  0  0  0  0  2  0  0  0  0  0  0
  185.1990  178.6870  143.6440 P   0  0  1  0  0  0  0  0  0  0  0  0
  185.5700  180.3190  143.8940 O   0  0  0  0  0  1  0  0  0  0  0  0
  187.7680  176.5810  146.5560 C   0  0  0  0  0  3  0  0  0  0  0  0
  189.6720  177.6400  145.3240 C   0  0  1  0  0  3  0  0  0  0  0  0
  188.8350  177.5160  144.0400 C   0  0  1  0  0  3  0  0  0  0  0  0
  189.0650  176.9260  146.5070 C   0  0  0  0  0  3  0  0  0  0  0  0
  191.1140  177.1980  145.0740 C   0  0  0  0  0  2  0  0  0  0  0  0
  190.5150  175.8540  143.2220 C   0  0  0  0  0  2  0  0  0  0  0  0
  186.5930  177.8340  143.2030 O   0  0  0  0  0  0  0  0  0  0  0  0
  189.0270  176.1460  143.3760 C   0  0  0  0  0  2  0  0  0  0  0  0
  187.3660  177.7960  144.3700 C   0  0  1  0  0  3  0  0  0  0  0  0
  184.9160  176.5430  146.8820 N   0  0  0  0  0  2  0  0  0  0  0  0
  184.6180  177.9880  145.0990 O   0  0  0  0  0  0  0  0  0  0  0  0
  184.1520  178.5570  142.5620 O   0  0  0  0  0  0  0  0  0  0  0  0
  186.8230  176.7700  145.3880 C   0  0  2  0  0  3  0  0  0  0  0  0
  191.1530  175.8390  144.5380 N   0  0  0  0  0  0  0  0  0  0  0  0
  185.4240  177.1240  145.8450 C   0  0  0  0  0  0  0  0  0  0  0  0
  2  1  1  6  0  0  0
  2  4  1  0  0  0  0
  2  7  1  0  0  0  0
  3  4  1  0  0  0  0
  4 25  1  6  0  0  0
  5  6  1  0  0  0  0
  5  3  2  0  0  0  0
  6  8  1  6  0  0  0
  6  7  1  0  0  0  0
  9  5  1  0  0  0  0
 10  9  1  0  0  0  0
 11 10  1  0  0  0  0
 12 13  1  0  0  0  0
 12 11  1  0  0  0  0
 13 14  1  0  0  0  0
 14 15  1  0  0  0  0
 15 16  1  0  0  0  0
 16 17  1  0  0  0  0
 17 22  1  0  0  0  0
 19 22  1  0  0  0  0
 19 20  1  0  0  0  0
 20 18  1  0  0  0  0
 21 18  1  0  0  0  0
 22 24  1  6  0  0  0
 22 21  1  0  0  0  0
 23 24  1  0  0  0  0
 26 42  1  0  0  0  0
 26 25  1  0  0  0  0
 27 40  2  6  0  0  0
 27 28  1  0  0  0  0
 27 39  1  0  0  0  0
 30 33  1  6  0  0  0
 30 32  1  0  0  0  0
 31 36  1  1  0  0  0
 31 37  1  0  0  0  0
 31 30  1  0  0  0  0
 32 29  2  0  0  0  0
 34 36  1  0  0  0  0
 34 42  1  0  0  0  0
 35 27  1  0  0  0  0
 37 35  1  6  0  0  0
 37 41  1  0  0  0  0
 39 43  1  0  0  0  0
 41 43  1  0  0  0  0
 41 29  1  1  0  0  0
 42 33  1  0  0  0  0
 43 38  2  0  0  0  0
M  END
>  <MODEL>
7

>  <REMARK>
 VINA RESULT:      -6.4      3.516      8.387
  Name = 
  14 active torsions:
  status: ('A' for Active; 'I' for Inactive)
    1  A    between atoms: N_4  and  C_21
    2  A    between atoms: N_4  and  C_22
    3  A    between atoms: C_14  and  C_30
    4  A    between atoms: C_14  and  C_40
    5  A    between atoms: O_15  and  C_23
    6  A    between atoms: O_15  and  C_40
    7  A    between atoms: C_16  and  C_29
    8  A    between atoms: C_21  and  C_39
    9  A    between atoms: C_22  and  C_28
   10  A    between atoms: C_26  and  C_29
   11  A    between atoms: C_26  and  N_42
   12  A    between atoms: C_28  and  C_38
   13  A    between atoms: C_30  and  C_34
   14  A    between atoms: C_34  and  C_38
                            x       y       z     vdW  Elec       q    Type
                         _______ _______ _______ _____ _____    ______ ____

>  <TORSDO>
F 14

$$$$
=
 OpenBabel11062418453D

 43 47  0  0  1  0  0  0  0  0999 V2000
  185.5220  180.0670  144.5500 N   0  0  0  0  0  1  0  0  0  0  0  0
  184.5050  179.0930  144.9260 C   0  0  2  0  0  3  0  0  0  0  0  0
  185.8440  177.0670  144.5300 N   0  0  0  0  0  0  0  0  0  0  0  0
  185.1220  177.8380  145.5390 C   0  0  1  0  0  3  0  0  0  0  0  0
  185.5570  177.0980  143.2630 C   0  0  0  0  0  0  0  0  0  0  0  0
  184.4850  178.0270  142.7250 C   0  0  1  0  0  3  0  0  0  0  0  0
  183.6970  178.7100  143.7660 N   0  0  0  0  0  2  0  0  0  0  0  0
  185.0420  178.9590  141.8650 F   0  0  0  0  0  0  0  0  0  0  0  0
  186.2980  176.2930  142.3960 O   0  0  0  0  0  0  0  0  0  0  0  0
  187.5530  175.7360  142.7590 C   0  0  0  0  0  2  0  0  0  0  0  0
  188.3010  175.3190  141.5100 C   0  0  0  0  0  2  0  0  0  0  0  0
  188.6280  173.8380  141.6030 C   0  0  0  0  0  2  0  0  0  0  0  0
  189.9740  173.5410  140.9540 C   0  0  0  0  0  2  0  0  0  0  0  0
  189.8730  172.4400  139.8980 C   0  0  0  0  0  2  0  0  0  0  0  0
  188.9160  172.8180  138.7700 C   0  0  0  0  0  2  0  0  0  0  0  0
  189.3060  172.1650  137.4520 C   0  0  0  0  0  2  0  0  0  0  0  0
  190.7400  171.9040  137.4150 N   0  0  0  0  0  2  0  0  0  0  0  0
  191.7790  169.2580  138.7570 C   0  0  0  0  0  2  0  0  0  0  0  0
  189.8280  169.6730  137.5220 C   0  0  0  0  0  2  0  0  0  0  0  0
  190.4390  168.6580  138.4330 C   0  0  0  0  0  2  0  0  0  0  0  0
  192.1810  170.0490  137.6690 O   0  0  0  0  0  0  0  0  0  0  0  0
  191.0000  170.5090  137.0420 C   0  0  2  0  0  0  0  0  0  0  0  0
  191.9670  169.1950  135.0930 C   0  0  0  0  0  1  0  0  0  0  0  0
  191.1230  170.3910  135.5170 C   0  0  0  0  0  2  0  0  0  0  0  0
  186.0140  178.1500  146.7320 C   0  0  0  0  0  2  0  0  0  0  0  0
  186.6250  176.8700  147.2780 C   0  0  0  0  0  2  0  0  0  0  0  0
  194.1040  174.5430  145.5150 P   0  0  1  0  0  0  0  0  0  0  0  0
  194.9730  175.6880  146.4090 O   0  0  0  0  0  1  0  0  0  0  0  0
  190.7570  176.8740  143.8180 C   0  0  0  0  0  3  0  0  0  0  0  0
  190.1470  177.3340  146.2020 C   0  0  1  0  0  3  0  0  0  0  0  0
  190.6770  175.9330  146.5470 C   0  0  1  0  0  3  0  0  0  0  0  0
  190.0690  177.5970  144.7170 C   0  0  0  0  0  3  0  0  0  0  0  0
  188.8080  177.5930  146.8940 C   0  0  0  0  0  2  0  0  0  0  0  0
  188.3240  175.2860  147.0970 C   0  0  0  0  0  2  0  0  0  0  0  0
  192.5160  174.4380  146.0900 O   0  0  0  0  0  0  0  0  0  0  0  0
  189.5930  174.8630  146.3650 C   0  0  0  0  0  2  0  0  0  0  0  0
  191.9210  175.6440  145.7020 C   0  0  1  0  0  3  0  0  0  0  0  0
  192.7700  175.7980  142.0780 N   0  0  0  0  0  2  0  0  0  0  0  0
  194.0150  175.0280  143.8720 O   0  0  0  0  0  0  0  0  0  0  0  0
  194.7780  173.1940  145.6130 O   0  0  0  0  0  0  0  0  0  0  0  0
  191.5820  175.6620  144.1960 C   0  0  2  0  0  3  0  0  0  0  0  0
  187.8400  176.5540  146.5510 N   0  0  0  0  0  0  0  0  0  0  0  0
  192.8250  175.5360  143.3430 C   0  0  0  0  0  0  0  0  0  0  0  0
  2  1  1  6  0  0  0
  2  4  1  0  0  0  0
  3  4  1  0  0  0  0
  4 25  1  1  0  0  0
  5  3  2  0  0  0  0
  6  8  1  6  0  0  0
  6  5  1  0  0  0  0
  6  7  1  0  0  0  0
  7  2  1  0  0  0  0
  9 10  1  0  0  0  0
  9  5  1  0  0  0  0
 11 12  1  0  0  0  0
 11 10  1  0  0  0  0
 13 12  1  0  0  0  0
 14 13  1  0  0  0  0
 15 14  1  0  0  0  0
 16 15  1  0  0  0  0
 17 16  1  0  0  0  0
 19 20  1  0  0  0  0
 20 18  1  0  0  0  0
 21 18  1  0  0  0  0
 22 24  1  6  0  0  0
 22 17  1  0  0  0  0
 22 19  1  0  0  0  0
 22 21  1  0  0  0  0
 23 24  1  0  0  0  0
 25 26  1  0  0  0  0
 27 40  2  1  0  0  0
 27 35  1  0  0  0  0
 27 28  1  0  0  0  0
 29 32  2  0  0  0  0
 30 32  1  6  0  0  0
 30 31  1  0  0  0  0
 30 33  1  0  0  0  0
 31 36  1  6  0  0  0
 36 34  1  0  0  0  0
 37 35  1  1  0  0  0
 37 31  1  0  0  0  0
 38 43  2  0  0  0  0
 39 27  1  0  0  0  0
 41 29  1  6  0  0  0
 41 37  1  0  0  0  0
 42 33  1  0  0  0  0
 42 34  1  0  0  0  0
 42 26  1  0  0  0  0
 43 39  1  0  0  0  0
 43 41  1  0  0  0  0
M  END
>  <MODEL>
8

>  <REMARK>
 VINA RESULT:      -6.3      2.781      4.298
  Name = 
  14 active torsions:
  status: ('A' for Active; 'I' for Inactive)
    1  A    between atoms: N_4  and  C_21
    2  A    between atoms: N_4  and  C_22
    3  A    between atoms: C_14  and  C_30
    4  A    between atoms: C_14  and  C_40
    5  A    between atoms: O_15  and  C_23
    6  A    between atoms: O_15  and  C_40
    7  A    between atoms: C_16  and  C_29
    8  A    between atoms: C_21  and  C_39
    9  A    between atoms: C_22  and  C_28
   10  A    between atoms: C_26  and  C_29
   11  A    between atoms: C_26  and  N_42
   12  A    between atoms: C_28  and  C_38
   13  A    between atoms: C_30  and  C_34
   14  A    between atoms: C_34  and  C_38
                            x       y       z     vdW  Elec       q    Type
                         _______ _______ _______ _____ _____    ______ ____

>  <TORSDO>
F 14

$$$$
=
 OpenBabel11062418453D

 43 47  0  0  1  0  0  0  0  0999 V2000
  189.7760  173.7200  138.8040 N   0  0  0  0  0  1  0  0  0  0  0  0
  190.6200  172.5670  139.0970 C   0  0  2  0  0  3  0  0  0  0  0  0
  192.5190  173.7990  140.0590 N   0  0  0  0  0  0  0  0  0  0  0  0
  191.4890  172.8000  140.3300 C   0  0  1  0  0  3  0  0  0  0  0  0
  192.9970  174.0330  138.8740 C   0  0  0  0  0  0  0  0  0  0  0  0
  192.4390  173.3300  137.6510 C   0  0  1  0  0  3  0  0  0  0  0  0
  191.4830  172.2510  137.9560 N   0  0  0  0  0  2  0  0  0  0  0  0
  191.8580  174.2460  136.7890 F   0  0  0  0  0  0  0  0  0  0  0  0
  194.0030  174.9920  138.7410 O   0  0  0  0  0  0  0  0  0  0  0  0
  195.0190  174.8980  137.7540 C   0  0  0  0  0  2  0  0  0  0  0  0
  196.3760  174.8750  138.4270 C   0  0  0  0  0  2  0  0  0  0  0  0
  196.2460  175.4710  139.8180 C   0  0  0  0  0  2  0  0  0  0  0  0
  197.3470  174.9490  140.7340 C   0  0  0  0  0  2  0  0  0  0  0  0
  196.9260  174.9550  142.2030 C   0  0  0  0  0  2  0  0  0  0  0  0
  196.7650  176.3750  142.7430 C   0  0  0  0  0  2  0  0  0  0  0  0
  195.7470  176.4410  143.8720 C   0  0  0  0  0  2  0  0  0  0  0  0
  194.8550  175.2890  143.8250 N   0  0  0  0  0  2  0  0  0  0  0  0
  193.7350  176.2900  146.5860 C   0  0  0  0  0  2  0  0  0  0  0  0
  193.1480  174.4220  145.2930 C   0  0  0  0  0  2  0  0  0  0  0  0
  192.6650  175.2430  146.4440 C   0  0  0  0  0  2  0  0  0  0  0  0
  194.9480  175.7410  146.1420 O   0  0  0  0  0  0  0  0  0  0  0  0
  194.6220  174.7630  145.1740 C   0  0  2  0  0  0  0  0  0  0  0  0
  196.7700  173.7810  146.1150 C   0  0  0  0  0  1  0  0  0  0  0  0
  195.4590  173.4950  145.3920 C   0  0  0  0  0  2  0  0  0  0  0  0
  190.6700  173.1750  141.5570 C   0  0  0  0  0  2  0  0  0  0  0  0
  191.1210  174.5240  142.0940 C   0  0  0  0  0  2  0  0  0  0  0  0
  184.8900  179.0070  144.4500 P   0  0  1  0  0  0  0  0  0  0  0  0
  185.5650  180.5480  144.2620 O   0  0  0  0  0  1  0  0  0  0  0  0
  188.2090  176.6170  146.1180 C   0  0  0  0  0  3  0  0  0  0  0  0
  189.4180  177.2110  144.0080 C   0  0  1  0  0  3  0  0  0  0  0  0
  188.0600  177.1760  143.2890 C   0  0  1  0  0  3  0  0  0  0  0  0
  189.3580  176.6990  145.4280 C   0  0  0  0  0  3  0  0  0  0  0  0
  190.4830  176.4820  143.1880 C   0  0  0  0  0  2  0  0  0  0  0  0
  188.8840  175.1730  142.0370 C   0  0  0  0  0  2  0  0  0  0  0  0
  185.7630  177.8750  143.5450 O   0  0  0  0  0  0  0  0  0  0  0  0
  187.7110  175.7580  142.8170 C   0  0  0  0  0  2  0  0  0  0  0  0
  186.9860  177.7560  144.2150 C   0  0  1  0  0  3  0  0  0  0  0  0
  185.8920  177.1540  147.7250 N   0  0  0  0  0  2  0  0  0  0  0  0
  184.9860  178.5220  146.0930 O   0  0  0  0  0  0  0  0  0  0  0  0
  183.4460  179.0200  144.0050 O   0  0  0  0  0  0  0  0  0  0  0  0
  186.8580  176.9180  145.5050 C   0  0  2  0  0  3  0  0  0  0  0  0
  190.0650  175.1120  142.8980 N   0  0  0  0  0  0  0  0  0  0  0  0
  185.9180  177.5630  146.4990 C   0  0  0  0  0  0  0  0  0  0  0  0
  2  1  1  6  0  0  0
  2  4  1  0  0  0  0
  3  4  1  0  0  0  0
  4 25  1  1  0  0  0
  5  3  2  0  0  0  0
  6  8  1  6  0  0  0
  6  7  1  0  0  0  0
  6  5  1  0  0  0  0
  7  2  1  0  0  0  0
  9  5  1  0  0  0  0
 10 11  1  0  0  0  0
 10  9  1  0  0  0  0
 11 12  1  0  0  0  0
 12 13  1  0  0  0  0
 13 14  1  0  0  0  0
 14 15  1  0  0  0  0
 15 16  1  0  0  0  0
 17 16  1  0  0  0  0
 17 22  1  0  0  0  0
 19 20  1  0  0  0  0
 20 18  1  0  0  0  0
 21 18  1  0  0  0  0
 22 19  1  0  0  0  0
 22 24  1  1  0  0  0
 22 21  1  0  0  0  0
 24 23  1  0  0  0  0
 25 26  1  0  0  0  0
 26 42  1  0  0  0  0
 27 40  2  6  0  0  0
 27 39  1  0  0  0  0
 28 27  1  0  0  0  0
 30 33  1  6  0  0  0
 30 32  1  0  0  0  0
 31 36  1  1  0  0  0
 31 30  1  0  0  0  0
 31 37  1  0  0  0  0
 32 29  2  0  0  0  0
 34 36  1  0  0  0  0
 34 42  1  0  0  0  0
 35 27  1  0  0  0  0
 37 35  1  6  0  0  0
 37 41  1  0  0  0  0
 39 43  1  0  0  0  0
 41 29  1  1  0  0  0
 41 43  1  0  0  0  0
 42 33  1  0  0  0  0
 43 38  2  0  0  0  0
M  END
>  <MODEL>
9

>  <REMARK>
 VINA RESULT:      -6.3      3.690      9.001
  Name = 
  14 active torsions:
  status: ('A' for Active; 'I' for Inactive)
    1  A    between atoms: N_4  and  C_21
    2  A    between atoms: N_4  and  C_22
    3  A    between atoms: C_14  and  C_30
    4  A    between atoms: C_14  and  C_40
    5  A    between atoms: O_15  and  C_23
    6  A    between atoms: O_15  and  C_40
    7  A    between atoms: C_16  and  C_29
    8  A    between atoms: C_21  and  C_39
    9  A    between atoms: C_22  and  C_28
   10  A    between atoms: C_26  and  C_29
   11  A    between atoms: C_26  and  N_42
   12  A    between atoms: C_28  and  C_38
   13  A    between atoms: C_30  and  C_34
   14  A    between atoms: C_34  and  C_38
                            x       y       z     vdW  Elec       q    Type
                         _______ _______ _______ _____ _____    ______ ____

>  <TORSDO>
F 14

$$$$
