=
 OpenBabel11062421543D

 37 42  0  0  1  0  0  0  0  0999 V2000
  191.7680  176.5140  146.7150 O   0  0  0  0  0  1  0  0  0  0  0  0
  192.9880  174.1740  144.1860 C   0  0  1  0  0  0  0  0  0  0  0  0
  195.1180  173.8510  145.6130 C   0  0  0  0  0  2  0  0  0  0  0  0
  195.2190  175.3890  145.5800 C   0  0  0  0  0  2  0  0  0  0  0  0
  192.6990  176.0030  145.8100 C   0  0  2  0  0  3  0  0  0  0  0  0
  194.1920  173.2700  144.5130 C   0  0  1  0  0  3  0  0  0  0  0  0
  191.5040  173.9080  144.4960 C   0  0  1  0  0  3  0  0  0  0  0  0
  192.3920  174.5320  145.5640 C   0  0  1  0  0  3  0  0  0  0  0  0
  194.1240  176.0960  146.4120 C   0  0  2  0  0  3  0  0  0  0  0  0
  188.4920  175.1680  142.9720 N   0  0  0  0  0  0  0  0  0  0  0  0
  187.1930  177.0110  142.4550 C   0  0  0  0  0  2  0  0  0  0  0  0
  188.2190  176.0670  141.9000 C   0  0  2  0  0  3  0  0  0  0  0  0
  189.7300  174.5570  142.8410 C   0  0  0  0  0  0  0  0  0  0  0  0
  190.5890  174.8940  143.9190 N   0  0  0  0  0  0  0  0  0  0  0  0
  187.9630  175.2880  140.6920 N   0  0  0  0  0  2  0  0  0  0  0  0
  189.8270  175.8430  144.7600 C   0  0  0  0  0  2  0  0  0  0  0  0
  187.7200  177.1560  143.9050 C   0  0  2  0  0  3  0  0  0  0  0  0
  190.1160  174.1990  141.6110 C   0  0  0  0  0  3  0  0  0  0  0  0
  188.3700  175.8030  144.2450 C   0  0  1  0  0  3  0  0  0  0  0  0
  189.0900  174.3230  140.4640 C   0  0  0  0  0  2  0  0  0  0  0  0
  185.3330  177.0020  146.8650 C   0  0  0  0  0  3  0  0  0  0  0  0
  186.0840  179.4850  143.5740 O   0  0  0  0  0  1  0  0  0  0  0  0
  186.3560  176.6770  145.9710 C   0  0  0  0  0  3  0  0  0  0  0  0
  185.8450  178.6530  144.6620 C   0  0  0  0  0  0  0  0  0  0  0  0
  184.8210  178.9740  145.5580 C   0  0  0  0  0  3  0  0  0  0  0  0
  184.5650  178.1510  146.6590 C   0  0  0  0  0  3  0  0  0  0  0  0
  186.6190  177.4980  144.8640 C   0  0  0  0  0  0  0  0  0  0  0  0
  194.0980  171.3390  145.9020 O   0  0  0  0  0  0  0  0  0  0  0  0
  193.8170  171.8470  144.7840 C   0  0  0  0  0  0  0  0  0  0  0  0
  193.1850  171.0620  143.7710 N   0  0  0  0  0  2  0  0  0  0  0  0
  192.8320  169.6690  143.9840 C   0  0  0  0  0  1  0  0  0  0  0  0
  194.5330  177.5510  146.5830 C   0  0  0  0  0  2  0  0  0  0  0  0
  195.1930  178.0040  145.4400 O   0  0  0  0  0  1  0  0  0  0  0  0
  193.2480  175.3080  143.1640 C   0  0  0  0  0  2  0  0  0  0  0  0
  194.1230  174.8760  142.0270 C   0  0  0  0  0  0  0  0  0  0  0  0
  193.7070  173.7730  141.1150 C   0  0  0  0  0  1  0  0  0  0  0  0
  195.2840  175.4900  141.8250 C   0  0  0  0  0  2  0  0  0  0  0  0
  2 34  1  6  0  0  0
  2  7  1  0  0  0  0
  2  6  1  0  0  0  0
  2  8  1  0  0  0  0
  4  3  1  0  0  0  0
  4  9  1  0  0  0  0
  5  9  1  0  0  0  0
  5  1  1  1  0  0  0
  6 29  1  1  0  0  0
  6  3  1  0  0  0  0
  7 14  1  6  0  0  0
  7  8  1  0  0  0  0
  8  5  1  0  0  0  0
  9 32  1  0  0  0  0
 10 19  1  0  0  0  0
 11 17  1  0  0  0  0
 12 11  1  0  0  0  0
 12 10  1  0  0  0  0
 13 10  1  0  0  0  0
 13 14  1  0  0  0  0
 14 16  1  0  0  0  0
 15 12  1  0  0  0  0
 17 19  1  0  0  0  0
 17 27  1  0  0  0  0
 18 13  2  0  0  0  0
 19 16  1  0  0  0  0
 20 15  1  0  0  0  0
 20 18  1  0  0  0  0
 22 24  1  0  0  0  0
 23 21  2  0  0  0  0
 24 27  2  0  0  0  0
 24 25  1  0  0  0  0
 25 26  2  0  0  0  0
 26 21  1  0  0  0  0
 27 23  1  0  0  0  0
 29 28  2  0  0  0  0
 30 31  1  0  0  0  0
 30 29  1  0  0  0  0
 33 32  1  0  0  0  0
 35 34  1  0  0  0  0
 36 35  1  0  0  0  0
 37 35  2  0  0  0  0
M  END
>  <MODEL>
1

>  <REMARK>
 VINA RESULT:      -8.1      0.000      0.000
  Name = 
  6 active torsions:
  status: ('A' for Active; 'I' for Inactive)
    1  A    between atoms: C_1  and  C_36
    2  A    between atoms: C_5  and  C_18
    3  A    between atoms: C_8  and  C_18
    4  A    between atoms: N_13  and  C_25
    5  A    between atoms: C_16  and  C_21
    6  A    between atoms: C_26  and  C_31
                            x       y       z     vdW  Elec       q    Type
                         _______ _______ _______ _____ _____    ______ ____

>  <TORSDO>
F 6

$$$$
=
 OpenBabel11062421543D

 37 42  0  0  1  0  0  0  0  0999 V2000
  189.7950  174.1870  141.2480 O   0  0  0  0  0  1  0  0  0  0  0  0
  192.9850  174.1990  143.0320 C   0  0  1  0  0  0  0  0  0  0  0  0
  194.0210  172.9100  141.0480 C   0  0  0  0  0  2  0  0  0  0  0  0
  192.8510  171.9250  141.2420 C   0  0  0  0  0  2  0  0  0  0  0  0
  190.9420  173.6070  141.7910 C   0  0  2  0  0  3  0  0  0  0  0  0
  194.2730  173.8190  142.2780 C   0  0  1  0  0  3  0  0  0  0  0  0
  192.3170  175.5840  143.1110 C   0  0  1  0  0  3  0  0  0  0  0  0
  192.0190  174.6750  141.9280 C   0  0  1  0  0  3  0  0  0  0  0  0
  191.4780  172.5100  140.8380 C   0  0  2  0  0  3  0  0  0  0  0  0
  190.0780  177.0130  145.5460 N   0  0  0  0  0  0  0  0  0  0  0  0
  188.0360  176.8890  146.6250 C   0  0  0  0  0  2  0  0  0  0  0  0
  189.4900  176.5430  146.7560 C   0  0  2  0  0  3  0  0  0  0  0  0
  191.2690  176.3670  145.2560 C   0  0  0  0  0  0  0  0  0  0  0  0
  191.1830  175.6470  144.0360 N   0  0  0  0  0  0  0  0  0  0  0  0
  190.2890  177.0220  147.8790 N   0  0  0  0  0  2  0  0  0  0  0  0
  189.7940  175.8230  143.5610 C   0  0  0  0  0  2  0  0  0  0  0  0
  187.8270  176.6010  145.1160 C   0  0  2  0  0  3  0  0  0  0  0  0
  192.0850  176.0850  146.2780 C   0  0  0  0  0  3  0  0  0  0  0  0
  189.1730  176.9290  144.4450 C   0  0  1  0  0  3  0  0  0  0  0  0
  191.7300  176.6570  147.6680 C   0  0  0  0  0  2  0  0  0  0  0  0
  185.3240  179.4170  144.5780 C   0  0  0  0  0  3  0  0  0  0  0  0
  186.3220  175.7390  142.8360 O   0  0  0  0  0  1  0  0  0  0  0  0
  186.3640  178.6550  145.1170 C   0  0  0  0  0  3  0  0  0  0  0  0
  186.0010  176.9570  143.4230 C   0  0  0  0  0  0  0  0  0  0  0  0
  184.9600  177.7230  142.8870 C   0  0  0  0  0  3  0  0  0  0  0  0
  184.6230  178.9520  143.4620 C   0  0  0  0  0  3  0  0  0  0  0  0
  186.7090  177.4210  144.5450 C   0  0  0  0  0  0  0  0  0  0  0  0
  195.1890  175.4040  140.7550 O   0  0  0  0  0  0  0  0  0  0  0  0
  195.1410  174.9920  141.9450 C   0  0  0  0  0  0  0  0  0  0  0  0
  195.9370  175.6100  142.9570 N   0  0  0  0  0  2  0  0  0  0  0  0
  196.8150  176.7320  142.6690 C   0  0  0  0  0  1  0  0  0  0  0  0
  190.4880  171.3590  140.7440 C   0  0  0  0  0  2  0  0  0  0  0  0
  190.1410  170.9170  142.0210 O   0  0  0  0  0  1  0  0  0  0  0  0
  192.4820  173.1720  144.0770 C   0  0  0  0  0  2  0  0  0  0  0  0
  193.5940  172.5570  144.8700 C   0  0  0  0  0  0  0  0  0  0  0  0
  193.8550  171.0900  144.8180 C   0  0  0  0  0  1  0  0  0  0  0  0
  194.3650  173.3330  145.6260 C   0  0  0  0  0  2  0  0  0  0  0  0
  2  7  1  0  0  0  0
  2 34  1  1  0  0  0
  3  4  1  0  0  0  0
  3  6  1  0  0  0  0
  5  1  1  6  0  0  0
  5  8  1  0  0  0  0
  6 29  1  6  0  0  0
  6  2  1  0  0  0  0
  7 14  1  1  0  0  0
  8  2  1  0  0  0  0
  8  7  1  0  0  0  0
  9  4  1  0  0  0  0
  9  5  1  0  0  0  0
 10 12  1  0  0  0  0
 11 12  1  0  0  0  0
 12 15  1  0  0  0  0
 13 10  1  0  0  0  0
 13 18  2  0  0  0  0
 14 13  1  0  0  0  0
 16 14  1  0  0  0  0
 16 19  1  0  0  0  0
 17 11  1  0  0  0  0
 18 20  1  0  0  0  0
 19 17  1  0  0  0  0
 19 10  1  0  0  0  0
 20 15  1  0  0  0  0
 21 23  1  0  0  0  0
 22 24  1  0  0  0  0
 24 27  1  0  0  0  0
 25 24  2  0  0  0  0
 25 26  1  0  0  0  0
 26 21  2  0  0  0  0
 27 17  1  0  0  0  0
 27 23  2  0  0  0  0
 28 29  2  0  0  0  0
 29 30  1  0  0  0  0
 31 30  1  0  0  0  0
 32  9  1  0  0  0  0
 32 33  1  0  0  0  0
 34 35  1  0  0  0  0
 35 37  2  0  0  0  0
 36 35  1  0  0  0  0
M  END
>  <MODEL>
2

>  <REMARK>
 VINA RESULT:      -8.0      2.555      4.873
  Name = 
  6 active torsions:
  status: ('A' for Active; 'I' for Inactive)
    1  A    between atoms: C_1  and  C_36
    2  A    between atoms: C_5  and  C_18
    3  A    between atoms: C_8  and  C_18
    4  A    between atoms: N_13  and  C_25
    5  A    between atoms: C_16  and  C_21
    6  A    between atoms: C_26  and  C_31
                            x       y       z     vdW  Elec       q    Type
                         _______ _______ _______ _____ _____    ______ ____

>  <TORSDO>
F 6

$$$$
=
 OpenBabel11062421543D

 37 42  0  0  1  0  0  0  0  0999 V2000
  193.4580  176.1450  145.4000 O   0  0  0  0  0  1  0  0  0  0  0  0
  193.6480  172.9370  143.6580 C   0  0  1  0  0  0  0  0  0  0  0  0
  196.1370  172.7940  144.3380 C   0  0  0  0  0  2  0  0  0  0  0  0
  196.2560  174.1990  143.7130 C   0  0  0  0  0  2  0  0  0  0  0  0
  193.9960  175.2260  144.4980 C   0  0  2  0  0  3  0  0  0  0  0  0
  194.8680  172.0250  143.8880 C   0  0  1  0  0  3  0  0  0  0  0  0
  192.3640  173.0170  144.5030 C   0  0  1  0  0  3  0  0  0  0  0  0
  193.5860  173.8210  144.9210 C   0  0  1  0  0  3  0  0  0  0  0  0
  195.5430  175.3000  144.5320 C   0  0  2  0  0  3  0  0  0  0  0  0
  189.0780  173.9840  143.3830 N   0  0  0  0  0  0  0  0  0  0  0  0
  187.6550  175.7020  142.7720 C   0  0  0  0  0  2  0  0  0  0  0  0
  188.5760  174.6500  142.2270 C   0  0  2  0  0  3  0  0  0  0  0  0
  190.2810  173.3420  143.1360 C   0  0  0  0  0  0  0  0  0  0  0  0
  191.3270  173.8780  143.9310 N   0  0  0  0  0  0  0  0  0  0  0  0
  188.1070  173.6450  141.2780 N   0  0  0  0  0  2  0  0  0  0  0  0
  190.7220  174.9900  144.6960 C   0  0  0  0  0  2  0  0  0  0  0  0
  188.4550  176.1330  144.0290 C   0  0  2  0  0  3  0  0  0  0  0  0
  190.4270  172.7340  141.9530 C   0  0  0  0  0  3  0  0  0  0  0  0
  189.1930  174.8670  144.4990 C   0  0  1  0  0  3  0  0  0  0  0  0
  189.1920  172.6370  141.0320 C   0  0  0  0  0  2  0  0  0  0  0  0
  185.3350  176.9980  146.0290 C   0  0  0  0  0  3  0  0  0  0  0  0
  189.4760  177.5830  146.2780 O   0  0  0  0  0  1  0  0  0  0  0  0
  186.1670  176.4910  145.0280 C   0  0  0  0  0  3  0  0  0  0  0  0
  188.1040  177.3820  146.1840 C   0  0  0  0  0  0  0  0  0  0  0  0
  187.2670  177.8890  147.1830 C   0  0  0  0  0  3  0  0  0  0  0  0
  185.8850  177.6970  147.1070 C   0  0  0  0  0  3  0  0  0  0  0  0
  187.5560  176.6790  145.0970 C   0  0  0  0  0  0  0  0  0  0  0  0
  195.0480  170.8240  145.9360 O   0  0  0  0  0  0  0  0  0  0  0  0
  194.5800  170.8480  144.7670 C   0  0  0  0  0  0  0  0  0  0  0  0
  193.8170  169.7470  144.2700 N   0  0  0  0  0  2  0  0  0  0  0  0
  193.5400  168.5740  145.0810 C   0  0  0  0  0  1  0  0  0  0  0  0
  196.0200  176.6490  144.0160 C   0  0  0  0  0  2  0  0  0  0  0  0
  197.2090  176.4990  143.3010 O   0  0  0  0  0  1  0  0  0  0  0  0
  193.5570  173.6100  142.2660 C   0  0  0  0  0  2  0  0  0  0  0  0
  194.0840  172.7420  141.1650 C   0  0  0  0  0  0  0  0  0  0  0  0
  193.5190  171.3850  140.9190 C   0  0  0  0  0  1  0  0  0  0  0  0
  195.0680  173.1910  140.3920 C   0  0  0  0  0  2  0  0  0  0  0  0
  2 34  1  6  0  0  0
  2  6  1  0  0  0  0
  2  7  1  0  0  0  0
  2  8  1  0  0  0  0
  4  3  1  0  0  0  0
  4  9  1  0  0  0  0
  5  9  1  0  0  0  0
  5  8  1  0  0  0  0
  5  1  1  1  0  0  0
  6  3  1  0  0  0  0
  6 29  1  1  0  0  0
  7 14  1  6  0  0  0
  7  8  1  0  0  0  0
 10 19  1  0  0  0  0
 11 17  1  0  0  0  0
 12 11  1  0  0  0  0
 12 10  1  0  0  0  0
 13 10  1  0  0  0  0
 13 14  1  0  0  0  0
 14 16  1  0  0  0  0
 15 12  1  0  0  0  0
 17 19  1  0  0  0  0
 17 27  1  0  0  0  0
 18 13  2  0  0  0  0
 19 16  1  0  0  0  0
 20 15  1  0  0  0  0
 20 18  1  0  0  0  0
 21 26  1  0  0  0  0
 23 27  1  0  0  0  0
 23 21  2  0  0  0  0
 24 22  1  0  0  0  0
 24 25  1  0  0  0  0
 26 25  2  0  0  0  0
 27 24  2  0  0  0  0
 29 28  2  0  0  0  0
 30 29  1  0  0  0  0
 30 31  1  0  0  0  0
 32  9  1  0  0  0  0
 33 32  1  0  0  0  0
 35 34  1  0  0  0  0
 36 35  1  0  0  0  0
 37 35  2  0  0  0  0
M  END
>  <MODEL>
3

>  <REMARK>
 VINA RESULT:      -7.0      1.769      2.038
  Name = 
  6 active torsions:
  status: ('A' for Active; 'I' for Inactive)
    1  A    between atoms: C_1  and  C_36
    2  A    between atoms: C_5  and  C_18
    3  A    between atoms: C_8  and  C_18
    4  A    between atoms: N_13  and  C_25
    5  A    between atoms: C_16  and  C_21
    6  A    between atoms: C_26  and  C_31
                            x       y       z     vdW  Elec       q    Type
                         _______ _______ _______ _____ _____    ______ ____

>  <TORSDO>
F 6

$$$$
=
 OpenBabel11062421543D

 37 42  0  0  1  0  0  0  0  0999 V2000
  189.5370  172.4490  143.3650 O   0  0  0  0  0  1  0  0  0  0  0  0
  189.5240  175.9730  144.3370 C   0  0  1  0  0  0  0  0  0  0  0  0
  187.0230  176.0690  143.6960 C   0  0  0  0  0  2  0  0  0  0  0  0
  187.4780  175.4790  142.3460 C   0  0  0  0  0  2  0  0  0  0  0  0
  189.2940  173.8110  143.1810 C   0  0  2  0  0  3  0  0  0  0  0  0
  188.1790  176.7020  144.5130 C   0  0  1  0  0  3  0  0  0  0  0  0
  190.2770  175.1280  145.3810 C   0  0  1  0  0  3  0  0  0  0  0  0
  189.1830  174.4830  144.5430 C   0  0  1  0  0  3  0  0  0  0  0  0
  187.9460  174.0090  142.4420 C   0  0  2  0  0  3  0  0  0  0  0  0
  193.7970  174.4050  145.6480 N   0  0  0  0  0  0  0  0  0  0  0  0
  195.6420  173.3380  144.7470 C   0  0  0  0  0  2  0  0  0  0  0  0
  194.9320  174.6580  144.8240 C   0  0  2  0  0  3  0  0  0  0  0  0
  192.7810  175.3240  145.4380 C   0  0  0  0  0  0  0  0  0  0  0  0
  191.6070  174.6940  144.9490 N   0  0  0  0  0  0  0  0  0  0  0  0
  195.6040  175.8580  145.3120 N   0  0  0  0  0  2  0  0  0  0  0  0
  191.9530  173.2650  144.7910 C   0  0  0  0  0  2  0  0  0  0  0  0
  194.4230  172.3830  144.6780 C   0  0  2  0  0  3  0  0  0  0  0  0
  193.1320  176.5990  145.2340 C   0  0  0  0  0  3  0  0  0  0  0  0
  193.3150  173.0690  145.4960 C   0  0  1  0  0  3  0  0  0  0  0  0
  194.6160  176.9810  145.4270 C   0  0  0  0  0  2  0  0  0  0  0  0
  196.1270  169.5830  146.6130 C   0  0  0  0  0  3  0  0  0  0  0  0
  192.9020  170.0570  143.9790 O   0  0  0  0  0  1  0  0  0  0  0  0
  195.8270  170.8500  146.1050 C   0  0  0  0  0  3  0  0  0  0  0  0
  193.9740  169.9130  144.8520 C   0  0  0  0  0  0  0  0  0  0  0  0
  194.2780  168.6470  145.3620 C   0  0  0  0  0  3  0  0  0  0  0  0
  195.3510  168.4810  146.2420 C   0  0  0  0  0  3  0  0  0  0  0  0
  194.7510  171.0240  145.2220 C   0  0  0  0  0  0  0  0  0  0  0  0
  188.6680  177.3630  146.7470 O   0  0  0  0  0  0  0  0  0  0  0  0
  187.8020  176.9270  145.9440 C   0  0  0  0  0  0  0  0  0  0  0  0
  186.4850  176.6110  146.4010 N   0  0  0  0  0  2  0  0  0  0  0  0
  186.0880  176.7860  147.7870 C   0  0  0  0  0  1  0  0  0  0  0  0
  188.0290  173.4510  141.0290 C   0  0  0  0  0  2  0  0  0  0  0  0
  189.1150  174.0100  140.3530 O   0  0  0  0  0  1  0  0  0  0  0  0
  190.3640  176.3860  143.1030 C   0  0  0  0  0  2  0  0  0  0  0  0
  190.3250  177.8610  142.8410 C   0  0  0  0  0  0  0  0  0  0  0  0
  191.2520  178.7910  143.5460 C   0  0  0  0  0  1  0  0  0  0  0  0
  189.4530  178.3460  141.9620 C   0  0  0  0  0  2  0  0  0  0  0  0
  2 34  1  6  0  0  0
  2  6  1  0  0  0  0
  2  8  1  0  0  0  0
  2  7  1  0  0  0  0
  3  6  1  0  0  0  0
  4  9  1  0  0  0  0
  4  3  1  0  0  0  0
  5  1  1  1  0  0  0
  5  8  1  0  0  0  0
  6 29  1  1  0  0  0
  7 14  1  6  0  0  0
  8  7  1  0  0  0  0
  9  5  1  0  0  0  0
 11 12  1  0  0  0  0
 12 15  1  0  0  0  0
 12 10  1  0  0  0  0
 13 10  1  0  0  0  0
 14 13  1  0  0  0  0
 15 20  1  0  0  0  0
 16 14  1  0  0  0  0
 16 19  1  0  0  0  0
 17 11  1  0  0  0  0
 17 27  1  0  0  0  0
 17 19  1  0  0  0  0
 18 20  1  0  0  0  0
 18 13  2  0  0  0  0
 19 10  1  0  0  0  0
 22 24  1  0  0  0  0
 23 21  2  0  0  0  0
 24 27  2  0  0  0  0
 24 25  1  0  0  0  0
 25 26  2  0  0  0  0
 26 21  1  0  0  0  0
 27 23  1  0  0  0  0
 29 30  1  0  0  0  0
 29 28  2  0  0  0  0
 30 31  1  0  0  0  0
 32  9  1  0  0  0  0
 33 32  1  0  0  0  0
 35 34  1  0  0  0  0
 35 36  1  0  0  0  0
 37 35  2  0  0  0  0
M  END
>  <MODEL>
4

>  <REMARK>
 VINA RESULT:      -6.8      2.628      8.241
  Name = 
  6 active torsions:
  status: ('A' for Active; 'I' for Inactive)
    1  A    between atoms: C_1  and  C_36
    2  A    between atoms: C_5  and  C_18
    3  A    between atoms: C_8  and  C_18
    4  A    between atoms: N_13  and  C_25
    5  A    between atoms: C_16  and  C_21
    6  A    between atoms: C_26  and  C_31
                            x       y       z     vdW  Elec       q    Type
                         _______ _______ _______ _____ _____    ______ ____

>  <TORSDO>
F 6

$$$$
=
 OpenBabel11062421543D

 37 42  0  0  1  0  0  0  0  0999 V2000
  190.1110  172.8120  141.5990 O   0  0  0  0  0  1  0  0  0  0  0  0
  193.6060  173.6490  140.9340 C   0  0  1  0  0  0  0  0  0  0  0  0
  193.5070  172.1130  138.8590 C   0  0  0  0  0  2  0  0  0  0  0  0
  192.9780  171.0430  139.8350 C   0  0  0  0  0  2  0  0  0  0  0  0
  191.4510  172.5270  141.3330 C   0  0  2  0  0  3  0  0  0  0  0  0
  194.2200  173.2940  139.5660 C   0  0  1  0  0  3  0  0  0  0  0  0
  192.8100  174.9130  141.3050 C   0  0  1  0  0  3  0  0  0  0  0  0
  192.0900  173.7360  140.6630 C   0  0  1  0  0  3  0  0  0  0  0  0
  191.5500  171.3320  140.3510 C   0  0  2  0  0  3  0  0  0  0  0  0
  192.3090  176.5090  144.4970 N   0  0  0  0  0  0  0  0  0  0  0  0
  191.4250  176.3660  146.6300 C   0  0  0  0  0  2  0  0  0  0  0  0
  192.6870  176.2000  145.8350 C   0  0  2  0  0  3  0  0  0  0  0  0
  193.1690  175.9480  143.5660 C   0  0  0  0  0  0  0  0  0  0  0  0
  192.4930  175.0200  142.7310 N   0  0  0  0  0  0  0  0  0  0  0  0
  193.8970  176.9480  146.1620 N   0  0  0  0  0  2  0  0  0  0  0  0
  191.1020  174.9660  143.2310 C   0  0  0  0  0  2  0  0  0  0  0  0
  190.3960  175.7990  145.6180 C   0  0  2  0  0  3  0  0  0  0  0  0
  194.4740  175.9350  143.8590 C   0  0  0  0  0  3  0  0  0  0  0  0
  190.9560  176.1400  144.2260 C   0  0  1  0  0  3  0  0  0  0  0  0
  194.9430  176.7020  145.1140 C   0  0  0  0  0  2  0  0  0  0  0  0
  187.3070  177.9850  145.2170 C   0  0  0  0  0  3  0  0  0  0  0  0
  188.6130  174.8240  147.6380 O   0  0  0  0  0  1  0  0  0  0  0  0
  188.5800  177.4440  145.0230 C   0  0  0  0  0  3  0  0  0  0  0  0
  188.1910  175.8720  146.8280 C   0  0  0  0  0  0  0  0  0  0  0  0
  186.9170  176.4170  147.0200 C   0  0  0  0  0  3  0  0  0  0  0  0
  186.4750  177.4710  146.2150 C   0  0  0  0  0  3  0  0  0  0  0  0
  189.0320  176.3860  145.8260 C   0  0  0  0  0  0  0  0  0  0  0  0
  195.3250  175.2890  138.8840 O   0  0  0  0  0  0  0  0  0  0  0  0
  194.3910  174.4730  138.6620 C   0  0  0  0  0  0  0  0  0  0  0  0
  193.4790  174.6940  137.5840 N   0  0  0  0  0  2  0  0  0  0  0  0
  193.5930  175.8420  136.7010 C   0  0  0  0  0  1  0  0  0  0  0  0
  191.0230  170.0640  141.0050 C   0  0  0  0  0  2  0  0  0  0  0  0
  191.7720  169.7610  142.1420 O   0  0  0  0  0  1  0  0  0  0  0  0
  194.1060  172.8150  142.1400 C   0  0  0  0  0  2  0  0  0  0  0  0
  195.5750  172.5240  142.0750 C   0  0  0  0  0  0  0  0  0  0  0  0
  196.0750  171.1280  141.9170 C   0  0  0  0  0  1  0  0  0  0  0  0
  196.4440  173.5260  142.1550 C   0  0  0  0  0  2  0  0  0  0  0  0
  2  7  1  0  0  0  0
  2 34  1  1  0  0  0
  3  6  1  0  0  0  0
  3  4  1  0  0  0  0
  4  9  1  0  0  0  0
  5  1  1  6  0  0  0
  6 29  1  6  0  0  0
  6  2  1  0  0  0  0
  7 14  1  1  0  0  0
  8  2  1  0  0  0  0
  8  7  1  0  0  0  0
  8  5  1  0  0  0  0
  9 32  1  0  0  0  0
  9  5  1  0  0  0  0
 10 12  1  0  0  0  0
 12 15  1  0  0  0  0
 12 11  1  0  0  0  0
 13 18  2  0  0  0  0
 13 10  1  0  0  0  0
 14 16  1  0  0  0  0
 14 13  1  0  0  0  0
 16 19  1  0  0  0  0
 17 27  1  0  0  0  0
 17 11  1  0  0  0  0
 18 20  1  0  0  0  0
 19 10  1  0  0  0  0
 19 17  1  0  0  0  0
 20 15  1  0  0  0  0
 21 26  1  0  0  0  0
 23 21  2  0  0  0  0
 23 27  1  0  0  0  0
 24 25  1  0  0  0  0
 24 22  1  0  0  0  0
 26 25  2  0  0  0  0
 27 24  2  0  0  0  0
 29 28  2  0  0  0  0
 30 29  1  0  0  0  0
 31 30  1  0  0  0  0
 32 33  1  0  0  0  0
 35 34  1  0  0  0  0
 35 37  2  0  0  0  0
 36 35  1  0  0  0  0
M  END
>  <MODEL>
5

>  <REMARK>
 VINA RESULT:      -6.6      2.984      5.680
  Name = 
  6 active torsions:
  status: ('A' for Active; 'I' for Inactive)
    1  A    between atoms: C_1  and  C_36
    2  A    between atoms: C_5  and  C_18
    3  A    between atoms: C_8  and  C_18
    4  A    between atoms: N_13  and  C_25
    5  A    between atoms: C_16  and  C_21
    6  A    between atoms: C_26  and  C_31
                            x       y       z     vdW  Elec       q    Type
                         _______ _______ _______ _____ _____    ______ ____

>  <TORSDO>
F 6

$$$$
=
 OpenBabel11062421543D

 37 42  0  0  1  0  0  0  0  0999 V2000
  191.5200  171.6340  142.8420 O   0  0  0  0  0  1  0  0  0  0  0  0
  194.9560  172.8010  143.2840 C   0  0  1  0  0  0  0  0  0  0  0  0
  195.7560  170.7260  141.9690 C   0  0  0  0  0  2  0  0  0  0  0  0
  194.9120  169.9200  142.9770 C   0  0  0  0  0  2  0  0  0  0  0  0
  192.8620  171.5080  143.2060 C   0  0  2  0  0  3  0  0  0  0  0  0
  196.0830  172.1630  142.4480 C   0  0  1  0  0  3  0  0  0  0  0  0
  194.0370  173.9690  142.8830 C   0  0  1  0  0  3  0  0  0  0  0  0
  193.6780  172.5530  142.4570 C   0  0  1  0  0  3  0  0  0  0  0  0
  193.3890  170.1090  142.7950 C   0  0  2  0  0  3  0  0  0  0  0  0
  192.3820  176.3350  145.0390 N   0  0  0  0  0  0  0  0  0  0  0  0
  190.6840  176.7300  146.5590 C   0  0  0  0  0  2  0  0  0  0  0  0
  192.1450  176.4080  146.4420 C   0  0  2  0  0  3  0  0  0  0  0  0
  193.5040  175.5800  144.7360 C   0  0  0  0  0  0  0  0  0  0  0  0
  193.1660  174.4390  143.9620 N   0  0  0  0  0  0  0  0  0  0  0  0
  193.1640  177.2620  147.0440 N   0  0  0  0  0  2  0  0  0  0  0  0
  191.6940  174.4660  143.8260 C   0  0  0  0  0  2  0  0  0  0  0  0
  190.1270  175.8750  145.3920 C   0  0  2  0  0  3  0  0  0  0  0  0
  194.5650  175.6960  145.5420 C   0  0  0  0  0  3  0  0  0  0  0  0
  191.2390  175.8560  144.3290 C   0  0  1  0  0  3  0  0  0  0  0  0
  194.5280  176.7870  146.6350 C   0  0  0  0  0  2  0  0  0  0  0  0
  187.6190  177.5390  143.0630 C   0  0  0  0  0  3  0  0  0  0  0  0
  187.6860  175.8370  146.8910 O   0  0  0  0  0  1  0  0  0  0  0  0
  188.8120  177.0160  143.5680 C   0  0  0  0  0  3  0  0  0  0  0  0
  187.6770  176.3990  145.6200 C   0  0  0  0  0  0  0  0  0  0  0  0
  186.4850  176.9250  145.1110 C   0  0  0  0  0  3  0  0  0  0  0  0
  186.4550  177.4940  143.8350 C   0  0  0  0  0  3  0  0  0  0  0  0
  188.8510  176.4430  144.8480 C   0  0  0  0  0  0  0  0  0  0  0  0
  196.2400  172.7560  140.1480 O   0  0  0  0  0  0  0  0  0  0  0  0
  196.5670  173.0340  141.3320 C   0  0  0  0  0  0  0  0  0  0  0  0
  197.4250  174.1440  141.6040 N   0  0  0  0  0  2  0  0  0  0  0  0
  197.9410  174.9960  140.5460 C   0  0  0  0  0  1  0  0  0  0  0  0
  192.6830  169.0230  143.5920 C   0  0  0  0  0  2  0  0  0  0  0  0
  193.2580  168.9030  144.8570 O   0  0  0  0  0  1  0  0  0  0  0  0
  194.9510  172.4550  144.7930 C   0  0  0  0  0  2  0  0  0  0  0  0
  196.3310  172.3240  145.3640 C   0  0  0  0  0  0  0  0  0  0  0  0
  196.8250  171.0180  145.8860 C   0  0  0  0  0  1  0  0  0  0  0  0
  197.1270  173.3880  145.3990 C   0  0  0  0  0  2  0  0  0  0  0  0
  2 34  1  1  0  0  0
  3  6  1  0  0  0  0
  3  4  1  0  0  0  0
  5  1  1  6  0  0  0
  6 29  1  6  0  0  0
  6  2  1  0  0  0  0
  7  2  1  0  0  0  0
  7 14  1  1  0  0  0
  8  7  1  0  0  0  0
  8  5  1  0  0  0  0
  8  2  1  0  0  0  0
  9  4  1  0  0  0  0
  9  5  1  0  0  0  0
  9 32  1  0  0  0  0
 10 12  1  0  0  0  0
 12 11  1  0  0  0  0
 12 15  1  0  0  0  0
 13 10  1  0  0  0  0
 13 18  2  0  0  0  0
 14 13  1  0  0  0  0
 16 14  1  0  0  0  0
 16 19  1  0  0  0  0
 17 11  1  0  0  0  0
 18 20  1  0  0  0  0
 19 10  1  0  0  0  0
 19 17  1  0  0  0  0
 20 15  1  0  0  0  0
 21 23  2  0  0  0  0
 21 26  1  0  0  0  0
 23 27  1  0  0  0  0
 24 22  1  0  0  0  0
 25 24  1  0  0  0  0
 26 25  2  0  0  0  0
 27 17  1  0  0  0  0
 27 24  2  0  0  0  0
 28 29  2  0  0  0  0
 29 30  1  0  0  0  0
 31 30  1  0  0  0  0
 32 33  1  0  0  0  0
 34 35  1  0  0  0  0
 35 37  2  0  0  0  0
 35 36  1  0  0  0  0
M  END
>  <MODEL>
6

>  <REMARK>
 VINA RESULT:      -6.4      2.710      5.340
  Name = 
  6 active torsions:
  status: ('A' for Active; 'I' for Inactive)
    1  A    between atoms: C_1  and  C_36
    2  A    between atoms: C_5  and  C_18
    3  A    between atoms: C_8  and  C_18
    4  A    between atoms: N_13  and  C_25
    5  A    between atoms: C_16  and  C_21
    6  A    between atoms: C_26  and  C_31
                            x       y       z     vdW  Elec       q    Type
                         _______ _______ _______ _____ _____    ______ ____

>  <TORSDO>
F 6

$$$$
=
 OpenBabel11062421543D

 37 42  0  0  1  0  0  0  0  0999 V2000
  187.7840  174.7470  140.6980 O   0  0  0  0  0  1  0  0  0  0  0  0
  189.4420  176.0230  143.6950 C   0  0  1  0  0  0  0  0  0  0  0  0
  187.3800  177.5230  144.1130 C   0  0  0  0  0  2  0  0  0  0  0  0
  187.5900  177.9980  142.6610 C   0  0  0  0  0  2  0  0  0  0  0  0
  188.2640  175.7420  141.5500 C   0  0  2  0  0  3  0  0  0  0  0  0
  188.6270  176.8310  144.7220 C   0  0  1  0  0  3  0  0  0  0  0  0
  189.5890  174.4930  143.6070 C   0  0  1  0  0  3  0  0  0  0  0  0
  188.3910  175.1690  142.9560 C   0  0  1  0  0  3  0  0  0  0  0  0
  187.2580  176.9190  141.6050 C   0  0  2  0  0  3  0  0  0  0  0  0
  192.1560  172.4310  142.1440 N   0  0  0  0  0  0  0  0  0  0  0  0
  193.3090  171.8150  140.2360 C   0  0  0  0  0  2  0  0  0  0  0  0
  193.3710  172.6960  141.4480 C   0  0  2  0  0  3  0  0  0  0  0  0
  191.7980  173.4690  142.9890 C   0  0  0  0  0  0  0  0  0  0  0  0
  190.5580  174.0440  142.6060 N   0  0  0  0  0  0  0  0  0  0  0  0
  194.4780  172.6120  142.3950 N   0  0  0  0  0  2  0  0  0  0  0  0
  190.1440  173.3290  141.3790 C   0  0  0  0  0  2  0  0  0  0  0  0
  191.8000  171.9300  139.8980 C   0  0  2  0  0  3  0  0  0  0  0  0
  192.7780  174.0890  143.6580 C   0  0  0  0  0  3  0  0  0  0  0  0
  191.0890  172.1110  141.2500 C   0  0  1  0  0  3  0  0  0  0  0  0
  194.1980  173.4890  143.5800 C   0  0  0  0  0  2  0  0  0  0  0  0
  191.4290  168.3420  138.6870 C   0  0  0  0  0  3  0  0  0  0  0  0
  189.6050  172.0620  138.0610 O   0  0  0  0  0  1  0  0  0  0  0  0
  191.9010  169.4670  139.3660 C   0  0  0  0  0  3  0  0  0  0  0  0
  190.2180  170.8340  138.2780 C   0  0  0  0  0  0  0  0  0  0  0  0
  189.7500  169.7040  137.5980 C   0  0  0  0  0  3  0  0  0  0  0  0
  190.3530  168.4600  137.8030 C   0  0  0  0  0  3  0  0  0  0  0  0
  191.3010  170.7200  139.1670 C   0  0  0  0  0  0  0  0  0  0  0  0
  187.1620  176.2060  146.4930 O   0  0  0  0  0  0  0  0  0  0  0  0
  188.2960  176.0620  145.9630 C   0  0  0  0  0  0  0  0  0  0  0  0
  189.2710  175.2060  146.5620 N   0  0  0  0  0  2  0  0  0  0  0  0
  189.0000  174.4650  147.7820 C   0  0  0  0  0  1  0  0  0  0  0  0
  187.1680  177.6030  140.2500 C   0  0  0  0  0  2  0  0  0  0  0  0
  185.8470  177.6110  139.8010 O   0  0  0  0  0  1  0  0  0  0  0  0
  190.4740  176.8260  142.8640 C   0  0  0  0  0  2  0  0  0  0  0  0
  191.3400  177.7090  143.7100 C   0  0  0  0  0  0  0  0  0  0  0  0
  192.2910  177.1300  144.7010 C   0  0  0  0  0  1  0  0  0  0  0  0
  191.2620  179.0290  143.5700 C   0  0  0  0  0  2  0  0  0  0  0  0
  2 34  1  6  0  0  0
  2  6  1  0  0  0  0
  3  6  1  0  0  0  0
  4  3  1  0  0  0  0
  5  1  1  6  0  0  0
  5  9  1  0  0  0  0
  5  8  1  0  0  0  0
  6 29  1  1  0  0  0
  7 14  1  6  0  0  0
  7  2  1  0  0  0  0
  8  7  1  0  0  0  0
  8  2  1  0  0  0  0
  9  4  1  0  0  0  0
 10 13  1  0  0  0  0
 11 12  1  0  0  0  0
 12 10  1  0  0  0  0
 12 15  1  0  0  0  0
 13 18  2  0  0  0  0
 14 13  1  0  0  0  0
 15 20  1  0  0  0  0
 16 14  1  0  0  0  0
 17 11  1  0  0  0  0
 17 19  1  0  0  0  0
 19 16  1  0  0  0  0
 19 10  1  0  0  0  0
 20 18  1  0  0  0  0
 21 23  1  0  0  0  0
 22 24  1  0  0  0  0
 24 27  1  0  0  0  0
 25 26  1  0  0  0  0
 25 24  2  0  0  0  0
 26 21  2  0  0  0  0
 27 23  2  0  0  0  0
 27 17  1  0  0  0  0
 29 28  2  0  0  0  0
 29 30  1  0  0  0  0
 30 31  1  0  0  0  0
 32  9  1  0  0  0  0
 33 32  1  0  0  0  0
 34 35  1  0  0  0  0
 35 36  1  0  0  0  0
 37 35  2  0  0  0  0
M  END
>  <MODEL>
7

>  <REMARK>
 VINA RESULT:      -6.3      3.375      7.824
  Name = 
  6 active torsions:
  status: ('A' for Active; 'I' for Inactive)
    1  A    between atoms: C_1  and  C_36
    2  A    between atoms: C_5  and  C_18
    3  A    between atoms: C_8  and  C_18
    4  A    between atoms: N_13  and  C_25
    5  A    between atoms: C_16  and  C_21
    6  A    between atoms: C_26  and  C_31
                            x       y       z     vdW  Elec       q    Type
                         _______ _______ _______ _____ _____    ______ ____

>  <TORSDO>
F 6

$$$$
=
 OpenBabel11062421543D

 37 42  0  0  1  0  0  0  0  0999 V2000
  193.4550  174.4610  142.1510 O   0  0  0  0  0  1  0  0  0  0  0  0
  190.5340  175.1480  144.2390 C   0  0  1  0  0  0  0  0  0  0  0  0
  191.1800  177.6490  144.1990 C   0  0  0  0  0  2  0  0  0  0  0  0
  192.5670  177.1670  144.6710 C   0  0  0  0  0  2  0  0  0  0  0  0
  192.7860  174.9940  143.2540 C   0  0  2  0  0  3  0  0  0  0  0  0
  190.0580  176.6020  144.4140 C   0  0  1  0  0  3  0  0  0  0  0  0
  190.1700  174.1710  143.1060 C   0  0  1  0  0  3  0  0  0  0  0  0
  191.3120  175.1570  142.9070 C   0  0  1  0  0  3  0  0  0  0  0  0
  193.3540  176.3970  143.5860 C   0  0  2  0  0  3  0  0  0  0  0  0
  192.2020  171.2480  142.5490 N   0  0  0  0  0  0  0  0  0  0  0  0
  192.9680  169.2230  143.3630 C   0  0  0  0  0  2  0  0  0  0  0  0
  191.9360  169.8500  142.4720 C   0  0  2  0  0  3  0  0  0  0  0  0
  191.0940  172.0110  142.2160 C   0  0  0  0  0  0  0  0  0  0  0  0
  190.6690  172.8090  143.3100 N   0  0  0  0  0  0  0  0  0  0  0  0
  191.8140  169.4750  141.0670 N   0  0  0  0  0  2  0  0  0  0  0  0
  191.5650  172.4630  144.4340 C   0  0  0  0  0  2  0  0  0  0  0  0
  193.0120  170.2740  144.5020 C   0  0  2  0  0  3  0  0  0  0  0  0
  190.3210  171.5770  141.2140 C   0  0  0  0  0  3  0  0  0  0  0  0
  192.7130  171.6240  143.8280 C   0  0  1  0  0  3  0  0  0  0  0  0
  190.8160  170.3680  140.3900 C   0  0  0  0  0  2  0  0  0  0  0  0
  196.4880  171.3320  145.6320 C   0  0  0  0  0  3  0  0  0  0  0  0
  193.7900  168.2020  146.3220 O   0  0  0  0  0  1  0  0  0  0  0  0
  195.2540  171.3250  144.9780 C   0  0  0  0  0  3  0  0  0  0  0  0
  194.6760  169.2460  146.0850 C   0  0  0  0  0  0  0  0  0  0  0  0
  195.9130  169.2570  146.7370 C   0  0  0  0  0  3  0  0  0  0  0  0
  196.8180  170.2980  146.5120 C   0  0  0  0  0  3  0  0  0  0  0  0
  194.3400  170.2830  145.1980 C   0  0  0  0  0  0  0  0  0  0  0  0
  187.7050  176.5380  144.0550 O   0  0  0  0  0  0  0  0  0  0  0  0
  188.8250  176.9270  143.6300 C   0  0  0  0  0  0  0  0  0  0  0  0
  188.9230  177.6350  142.3930 N   0  0  0  0  0  2  0  0  0  0  0  0
  187.7540  177.9440  141.5870 C   0  0  0  0  0  1  0  0  0  0  0  0
  194.8000  176.2880  144.0450 C   0  0  0  0  0  2  0  0  0  0  0  0
  194.9410  176.8260  145.3240 O   0  0  0  0  0  1  0  0  0  0  0  0
  191.1840  174.4920  145.4820 C   0  0  0  0  0  2  0  0  0  0  0  0
  190.5340  174.9100  146.7660 C   0  0  0  0  0  0  0  0  0  0  0  0
  191.2690  175.7370  147.7650 C   0  0  0  0  0  1  0  0  0  0  0  0
  189.2810  174.5420  147.0150 C   0  0  0  0  0  2  0  0  0  0  0  0
  2  6  1  0  0  0  0
  2 34  1  1  0  0  0
  3  6  1  0  0  0  0
  3  4  1  0  0  0  0
  5  1  1  6  0  0  0
  5  9  1  0  0  0  0
  6 29  1  6  0  0  0
  7 14  1  1  0  0  0
  7  2  1  0  0  0  0
  8  7  1  0  0  0  0
  8  5  1  0  0  0  0
  8  2  1  0  0  0  0
  9 32  1  0  0  0  0
  9  4  1  0  0  0  0
 10 19  1  0  0  0  0
 11 17  1  0  0  0  0
 12 10  1  0  0  0  0
 12 11  1  0  0  0  0
 13 10  1  0  0  0  0
 13 14  1  0  0  0  0
 14 16  1  0  0  0  0
 15 12  1  0  0  0  0
 17 27  1  0  0  0  0
 18 13  2  0  0  0  0
 19 16  1  0  0  0  0
 19 17  1  0  0  0  0
 20 15  1  0  0  0  0
 20 18  1  0  0  0  0
 21 26  1  0  0  0  0
 23 27  1  0  0  0  0
 23 21  2  0  0  0  0
 24 22  1  0  0  0  0
 24 25  1  0  0  0  0
 26 25  2  0  0  0  0
 27 24  2  0  0  0  0
 29 28  2  0  0  0  0
 30 29  1  0  0  0  0
 31 30  1  0  0  0  0
 32 33  1  0  0  0  0
 34 35  1  0  0  0  0
 35 37  2  0  0  0  0
 35 36  1  0  0  0  0
M  END
>  <MODEL>
8

>  <REMARK>
 VINA RESULT:      -6.3      2.546      7.637
  Name = 
  6 active torsions:
  status: ('A' for Active; 'I' for Inactive)
    1  A    between atoms: C_1  and  C_36
    2  A    between atoms: C_5  and  C_18
    3  A    between atoms: C_8  and  C_18
    4  A    between atoms: N_13  and  C_25
    5  A    between atoms: C_16  and  C_21
    6  A    between atoms: C_26  and  C_31
                            x       y       z     vdW  Elec       q    Type
                         _______ _______ _______ _____ _____    ______ ____

>  <TORSDO>
F 6

$$$$
=
 OpenBabel11062421543D

 37 42  0  0  1  0  0  0  0  0999 V2000
  193.4550  176.8500  145.0710 O   0  0  0  0  0  1  0  0  0  0  0  0
  190.5640  175.2990  143.4580 C   0  0  1  0  0  0  0  0  0  0  0  0
  189.0530  176.4740  145.1940 C   0  0  0  0  0  2  0  0  0  0  0  0
  189.9830  175.8360  146.2460 C   0  0  0  0  0  2  0  0  0  0  0  0
  192.2730  176.1090  145.0360 C   0  0  2  0  0  3  0  0  0  0  0  0
  189.1490  175.8040  143.7990 C   0  0  1  0  0  3  0  0  0  0  0  0
  191.5330  175.8630  142.4030 C   0  0  1  0  0  3  0  0  0  0  0  0
  191.4870  176.4910  143.7890 C   0  0  1  0  0  3  0  0  0  0  0  0
  191.4000  176.4530  146.2710 C   0  0  2  0  0  3  0  0  0  0  0  0
  194.9570  174.8450  142.8730 N   0  0  0  0  0  0  0  0  0  0  0  0
  196.5510  173.1890  142.6150 C   0  0  0  0  0  2  0  0  0  0  0  0
  196.0060  174.4420  141.9970 C   0  0  2  0  0  3  0  0  0  0  0  0
  194.0320  175.6620  142.2430 C   0  0  0  0  0  0  0  0  0  0  0  0
  192.7450  175.0630  142.2190 N   0  0  0  0  0  0  0  0  0  0  0  0
  196.8610  175.5950  141.7330 N   0  0  0  0  0  2  0  0  0  0  0  0
  192.9080  173.7320  142.8430 C   0  0  0  0  0  2  0  0  0  0  0  0
  195.2340  172.5470  143.1230 C   0  0  2  0  0  3  0  0  0  0  0  0
  194.4950  176.5630  141.3690 C   0  0  0  0  0  3  0  0  0  0  0  0
  194.3150  173.7260  143.4850 C   0  0  1  0  0  3  0  0  0  0  0  0
  196.0240  176.7490  141.2640 C   0  0  0  0  0  2  0  0  0  0  0  0
  196.8170  170.9850  146.2110 C   0  0  0  0  0  3  0  0  0  0  0  0
  193.4290  170.4300  143.8090 O   0  0  0  0  0  1  0  0  0  0  0  0
  196.6010  171.8220  145.1130 C   0  0  0  0  0  3  0  0  0  0  0  0
  194.5560  170.6250  144.5980 C   0  0  0  0  0  0  0  0  0  0  0  0
  194.7760  169.7880  145.6970 C   0  0  0  0  0  3  0  0  0  0  0  0
  195.9030  169.9680  146.5040 C   0  0  0  0  0  3  0  0  0  0  0  0
  195.4720  171.6480  144.2990 C   0  0  0  0  0  0  0  0  0  0  0  0
  188.5660  177.9030  142.8380 O   0  0  0  0  0  0  0  0  0  0  0  0
  188.5390  176.6490  142.7250 C   0  0  0  0  0  0  0  0  0  0  0  0
  187.8970  176.0370  141.6040 N   0  0  0  0  0  2  0  0  0  0  0  0
  187.2670  176.8200  140.5550 C   0  0  0  0  0  1  0  0  0  0  0  0
  192.0880  175.9960  147.5480 C   0  0  0  0  0  2  0  0  0  0  0  0
  191.1910  175.2910  148.3520 O   0  0  0  0  0  1  0  0  0  0  0  0
  190.9320  173.8950  143.9970 C   0  0  0  0  0  2  0  0  0  0  0  0
  189.8010  172.9170  143.8900 C   0  0  0  0  0  0  0  0  0  0  0  0
  189.1530  172.6330  142.5790 C   0  0  0  0  0  1  0  0  0  0  0  0
  189.3730  172.2910  144.9820 C   0  0  0  0  0  2  0  0  0  0  0  0
  2  8  1  0  0  0  0
  2  6  1  0  0  0  0
  2 34  1  1  0  0  0
  3  4  1  0  0  0  0
  4  9  1  0  0  0  0
  5  1  1  1  0  0  0
  5  9  1  0  0  0  0
  6 29  1  6  0  0  0
  6  3  1  0  0  0  0
  7 14  1  1  0  0  0
  7  2  1  0  0  0  0
  7  8  1  0  0  0  0
  8  5  1  0  0  0  0
  9 32  1  0  0  0  0
 10 19  1  0  0  0  0
 11 17  1  0  0  0  0
 12 11  1  0  0  0  0
 12 10  1  0  0  0  0
 13 10  1  0  0  0  0
 14 13  1  0  0  0  0
 14 16  1  0  0  0  0
 15 12  1  0  0  0  0
 16 19  1  0  0  0  0
 17 19  1  0  0  0  0
 17 27  1  0  0  0  0
 18 13  2  0  0  0  0
 20 18  1  0  0  0  0
 20 15  1  0  0  0  0
 21 26  1  0  0  0  0
 22 24  1  0  0  0  0
 23 21  2  0  0  0  0
 24 25  1  0  0  0  0
 25 26  2  0  0  0  0
 27 24  2  0  0  0  0
 27 23  1  0  0  0  0
 29 28  2  0  0  0  0
 30 29  1  0  0  0  0
 31 30  1  0  0  0  0
 32 33  1  0  0  0  0
 35 34  1  0  0  0  0
 35 37  2  0  0  0  0
 36 35  1  0  0  0  0
M  END
>  <MODEL>
9

>  <REMARK>
 VINA RESULT:      -5.8      2.440      7.681
  Name = 
  6 active torsions:
  status: ('A' for Active; 'I' for Inactive)
    1  A    between atoms: C_1  and  C_36
    2  A    between atoms: C_5  and  C_18
    3  A    between atoms: C_8  and  C_18
    4  A    between atoms: N_13  and  C_25
    5  A    between atoms: C_16  and  C_21
    6  A    between atoms: C_26  and  C_31
                            x       y       z     vdW  Elec       q    Type
                         _______ _______ _______ _____ _____    ______ ____

>  <TORSDO>
F 6

$$$$
