=
 OpenBabel11062422033D

 34 36  0  0  1  0  0  0  0  0999 V2000
  195.0790  176.0660  145.5770 C   0  0  0  0  0  2  0  0  0  0  0  0
  194.5940  174.9150  144.8200 N   0  0  1  0  0  0  0  0  0  0  0  0
  192.5720  176.3720  145.9530 C   0  0  2  0  0  3  0  0  0  0  0  0
  193.5890  175.3570  143.8380 C   0  0  0  0  0  2  0  0  0  0  0  0
  192.5740  176.3570  144.4210 C   0  0  0  0  0  2  0  0  0  0  0  0
  193.9840  176.5800  146.5170 C   0  0  0  0  0  2  0  0  0  0  0  0
  196.8660  173.3560  146.2820 C   0  0  0  0  0  2  0  0  0  0  0  0
  195.7540  174.2770  144.1790 C   0  0  1  0  0  3  0  0  0  0  0  0
  195.4020  171.7050  144.0760 C   0  0  0  0  0  0  0  0  0  0  0  0
  195.6380  171.5030  145.5510 C   0  0  2  0  0  3  0  0  0  0  0  0
  196.9740  171.9580  145.9010 N   0  0  0  0  0  2  0  0  0  0  0  0
  197.0080  174.2490  145.0580 C   0  0  0  0  0  2  0  0  0  0  0  0
  195.1600  170.7180  143.3290 O   0  0  0  0  0  0  0  0  0  0  0  0
  195.4550  173.0140  143.4910 N   0  0  0  0  0  2  0  0  0  0  0  0
  195.4510  170.0510  145.9810 C   0  0  0  0  0  2  0  0  0  0  0  0
  196.6630  169.5440  146.7530 C   0  0  0  0  0  2  0  0  0  0  0  0
  194.7780  168.3190  147.8400 C   0  0  0  0  0  1  0  0  0  0  0  0
  196.2860  168.4460  147.7370 C   0  0  0  0  0  2  0  0  0  0  0  0
  192.0120  175.1320  146.4690 N   0  0  0  0  0  2  0  0  0  0  0  0
  189.0850  175.8010  144.9820 C   0  0  0  0  0  2  0  0  0  0  0  0
  189.5890  174.8060  146.0260 C   0  0  1  0  0  3  0  0  0  0  0  0
  188.4320  177.0290  145.6480 C   0  0  2  0  0  3  0  0  0  0  0  0
  190.5140  176.9480  147.0990 C   0  0  0  0  0  2  0  0  0  0  0  0
  190.0460  173.6410  145.4060 O   0  0  0  0  0  1  0  0  0  0  0  0
  189.0480  177.3650  147.0210 C   0  0  0  0  0  2  0  0  0  0  0  0
  190.6660  175.4290  146.9430 C   0  0  2  0  0  3  0  0  0  0  0  0
  186.5590  176.6270  147.1100 O   0  0  0  0  0  1  0  0  0  0  0  0
  186.9180  176.8380  145.7750 C   0  0  1  0  0  3  0  0  0  0  0  0
  186.1520  178.0370  145.2060 C   0  0  2  0  0  3  0  0  0  0  0  0
  184.8920  178.1580  145.7980 O   0  0  0  0  0  1  0  0  0  0  0  0
  185.9710  179.0260  142.9990 N   0  0  0  0  0  2  0  0  0  0  0  0
  186.0290  177.9510  143.7170 C   0  0  0  0  0  0  0  0  0  0  0  0
  186.7030  176.2470  142.2100 O   0  0  0  0  0  0  0  0  0  0  0  0
  185.8920  176.6330  143.0920 C   0  0  0  0  0  3  0  0  0  0  0  0
  1  6  1  0  0  0  0
  2  4  1  6  0  0  0
  2  1  1  0  0  0  0
  3 19  1  1  0  0  0
  3  6  1  0  0  0  0
  4  5  1  0  0  0  0
  5  3  1  0  0  0  0
  8  2  1  0  0  0  0
  8 12  1  1  0  0  0
  9 10  1  0  0  0  0
 10 11  1  0  0  0  0
 10 15  1  6  0  0  0
 11  7  1  0  0  0  0
 12  7  1  0  0  0  0
 13  9  2  0  0  0  0
 14  9  1  0  0  0  0
 14  8  1  0  0  0  0
 15 16  1  0  0  0  0
 16 18  1  0  0  0  0
 18 17  1  0  0  0  0
 20 22  1  0  0  0  0
 20 21  1  0  0  0  0
 21 24  1  6  0  0  0
 21 26  1  0  0  0  0
 22 28  1  1  0  0  0
 22 25  1  0  0  0  0
 25 23  1  0  0  0  0
 26 19  1  6  0  0  0
 26 23  1  0  0  0  0
 28 27  1  1  0  0  0
 29 28  1  0  0  0  0
 29 30  1  1  0  0  0
 31 32  2  0  0  0  0
 32 29  1  0  0  0  0
 33 34  2  0  0  0  0
 34 32  1  0  0  0  0
M  END
>  <MODEL>
1

>  <REMARK>
 VINA RESULT:      -7.0      0.000      0.000
  Name = 
  10 active torsions:
  status: ('A' for Active; 'I' for Inactive)
    1  A    between atoms: C_7  and  C_33
    2  A    between atoms: CA_8  and  C_12
    3  A    between atoms: CA_8  and  C_23
    4  A    between atoms: C_9  and  N_10
    5  A    between atoms: C_11  and  N_21
    6  A    between atoms: C_12  and  C_33
    7  A    between atoms: C_18  and  C_27
    8  A    between atoms: C_20  and  C_27
    9  A    between atoms: C_20  and  C_32
   10  A    between atoms: N_21  and  C_34
                            x       y       z     vdW  Elec       q    Type
                         _______ _______ _______ _____ _____    ______ ____

>  <TORSDO>
F 10

$$$$
=
 OpenBabel11062422033D

 34 36  0  0  1  0  0  0  0  0999 V2000
  192.9490  174.7980  146.1470 C   0  0  0  0  0  2  0  0  0  0  0  0
  192.8100  174.5940  144.7070 N   0  0  1  0  0  0  0  0  0  0  0  0
  191.3050  176.6840  145.6370 C   0  0  2  0  0  3  0  0  0  0  0  0
  193.0870  175.8570  144.0010 C   0  0  0  0  0  2  0  0  0  0  0  0
  192.4160  177.0760  144.6570 C   0  0  0  0  0  2  0  0  0  0  0  0
  191.8000  175.6640  146.6710 C   0  0  0  0  0  2  0  0  0  0  0  0
  192.0610  171.5990  144.2620 C   0  0  0  0  0  2  0  0  0  0  0  0
  193.7370  173.5220  144.3130 C   0  0  1  0  0  3  0  0  0  0  0  0
  193.4120  172.9560  141.7980 C   0  0  0  0  0  0  0  0  0  0  0  0
  192.1000  172.2470  142.0130 C   0  0  2  0  0  3  0  0  0  0  0  0
  192.2920  171.1190  142.9090 N   0  0  0  0  0  2  0  0  0  0  0  0
  193.3530  172.1430  144.8560 C   0  0  0  0  0  2  0  0  0  0  0  0
  193.9080  173.0380  140.6410 O   0  0  0  0  0  0  0  0  0  0  0  0
  194.1260  173.5410  142.8960 N   0  0  0  0  0  2  0  0  0  0  0  0
  191.4670  171.7760  140.7070 C   0  0  0  0  0  2  0  0  0  0  0  0
  190.0320  172.2740  140.5790 C   0  0  0  0  0  2  0  0  0  0  0  0
  188.3680  173.6550  141.8260 C   0  0  0  0  0  1  0  0  0  0  0  0
  189.8090  173.5600  141.3590 C   0  0  0  0  0  2  0  0  0  0  0  0
  190.1640  176.1400  144.9150 N   0  0  0  0  0  2  0  0  0  0  0  0
  187.0420  176.6810  143.8250 C   0  0  0  0  0  2  0  0  0  0  0  0
  188.0170  177.3830  144.7690 C   0  0  1  0  0  3  0  0  0  0  0  0
  187.0850  177.3020  142.4140 C   0  0  2  0  0  3  0  0  0  0  0  0
  189.5940  177.1210  142.7590 C   0  0  0  0  0  2  0  0  0  0  0  0
  187.8620  176.9030  146.0720 O   0  0  0  0  0  1  0  0  0  0  0  0
  188.4700  177.8740  142.0520 C   0  0  0  0  0  2  0  0  0  0  0  0
  189.4790  177.2600  144.2820 C   0  0  2  0  0  3  0  0  0  0  0  0
  185.5590  178.4450  140.9380 O   0  0  0  0  0  1  0  0  0  0  0  0
  186.0070  178.3800  142.2610 C   0  0  1  0  0  3  0  0  0  0  0  0
  184.8270  178.1290  143.2060 C   0  0  2  0  0  3  0  0  0  0  0  0
  183.6160  178.1230  142.5090 O   0  0  0  0  0  1  0  0  0  0  0  0
  185.4360  180.2490  144.2130 N   0  0  0  0  0  2  0  0  0  0  0  0
  184.7910  179.1320  144.3160 C   0  0  0  0  0  0  0  0  0  0  0  0
  184.3830  177.7660  146.2130 O   0  0  0  0  0  0  0  0  0  0  0  0
  184.0820  178.7960  145.5530 C   0  0  0  0  0  3  0  0  0  0  0  0
  1  6  1  0  0  0  0
  2  4  1  6  0  0  0
  2  1  1  0  0  0  0
  3 19  1  6  0  0  0
  3  6  1  0  0  0  0
  4  5  1  0  0  0  0
  5  3  1  0  0  0  0
  7 12  1  0  0  0  0
  8  2  1  0  0  0  0
  8 12  1  6  0  0  0
  9 10  1  0  0  0  0
  9 14  1  0  0  0  0
 10 15  1  6  0  0  0
 10 11  1  0  0  0  0
 11  7  1  0  0  0  0
 13  9  2  0  0  0  0
 14  8  1  0  0  0  0
 16 15  1  0  0  0  0
 16 18  1  0  0  0  0
 18 17  1  0  0  0  0
 20 21  1  0  0  0  0
 21 24  1  1  0  0  0
 22 28  1  1  0  0  0
 22 20  1  0  0  0  0
 23 26  1  0  0  0  0
 25 22  1  0  0  0  0
 25 23  1  0  0  0  0
 26 21  1  0  0  0  0
 26 19  1  1  0  0  0
 28 27  1  6  0  0  0
 28 29  1  0  0  0  0
 29 30  1  6  0  0  0
 29 32  1  0  0  0  0
 31 32  2  0  0  0  0
 32 34  1  0  0  0  0
 34 33  2  0  0  0  0
M  END
>  <MODEL>
2

>  <REMARK>
 VINA RESULT:      -6.7      2.706      4.651
  Name = 
  10 active torsions:
  status: ('A' for Active; 'I' for Inactive)
    1  A    between atoms: C_7  and  C_33
    2  A    between atoms: CA_8  and  C_12
    3  A    between atoms: CA_8  and  C_23
    4  A    between atoms: C_9  and  N_10
    5  A    between atoms: C_11  and  N_21
    6  A    between atoms: C_12  and  C_33
    7  A    between atoms: C_18  and  C_27
    8  A    between atoms: C_20  and  C_27
    9  A    between atoms: C_20  and  C_32
   10  A    between atoms: N_21  and  C_34
                            x       y       z     vdW  Elec       q    Type
                         _______ _______ _______ _____ _____    ______ ____

>  <TORSDO>
F 10

$$$$
=
 OpenBabel11062422033D

 34 36  0  0  1  0  0  0  0  0999 V2000
  190.9920  171.8280  140.7840 C   0  0  0  0  0  2  0  0  0  0  0  0
  191.4230  172.3990  142.0580 N   0  0  1  0  0  0  0  0  0  0  0  0
  188.8750  173.1290  141.3700 C   0  0  2  0  0  3  0  0  0  0  0  0
  190.4340  172.0780  143.1020 C   0  0  0  0  0  2  0  0  0  0  0  0
  188.9800  172.2780  142.6390 C   0  0  0  0  0  2  0  0  0  0  0  0
  189.7730  172.5850  140.2500 C   0  0  0  0  0  2  0  0  0  0  0  0
  194.1380  173.8850  141.6780 C   0  0  0  0  0  2  0  0  0  0  0  0
  192.7540  171.8560  142.3680 C   0  0  1  0  0  3  0  0  0  0  0  0
  193.6300  172.8810  144.5890 C   0  0  0  0  0  0  0  0  0  0  0  0
  193.9150  174.2310  143.9820 C   0  0  2  0  0  3  0  0  0  0  0  0
  194.8850  174.0920  142.9080 N   0  0  0  0  0  2  0  0  0  0  0  0
  193.8680  172.4010  141.4690 C   0  0  0  0  0  2  0  0  0  0  0  0
  193.8810  172.6650  145.8060 O   0  0  0  0  0  0  0  0  0  0  0  0
  193.0800  171.8160  143.8000 N   0  0  0  0  0  2  0  0  0  0  0  0
  194.4140  175.2420  145.0100 C   0  0  0  0  0  2  0  0  0  0  0  0
  193.7770  176.6090  144.7920 C   0  0  0  0  0  2  0  0  0  0  0  0
  191.7050  177.6840  143.9060 C   0  0  0  0  0  1  0  0  0  0  0  0
  192.2610  176.5190  144.7020 C   0  0  0  0  0  2  0  0  0  0  0  0
  189.2290  174.5120  141.6580 N   0  0  0  0  0  2  0  0  0  0  0  0
  188.0990  177.5960  142.3170 C   0  0  0  0  0  2  0  0  0  0  0  0
  187.4890  176.2760  141.8490 C   0  0  1  0  0  3  0  0  0  0  0  0
  187.9410  177.7780  143.8400 C   0  0  2  0  0  3  0  0  0  0  0  0
  188.7660  175.3770  143.8880 C   0  0  0  0  0  2  0  0  0  0  0  0
  187.5150  176.1960  140.4550 O   0  0  0  0  0  1  0  0  0  0  0  0
  187.9380  176.4400  144.6060 C   0  0  0  0  0  2  0  0  0  0  0  0
  188.1790  175.0590  142.5070 C   0  0  2  0  0  3  0  0  0  0  0  0
  186.2620  179.3180  143.0500 O   0  0  0  0  0  1  0  0  0  0  0  0
  186.6760  178.5800  144.1630 C   0  0  1  0  0  3  0  0  0  0  0  0
  185.5430  177.6660  144.6430 C   0  0  2  0  0  3  0  0  0  0  0  0
  184.5710  177.5080  143.6510 O   0  0  0  0  0  1  0  0  0  0  0  0
  183.7870  178.7890  145.8830 N   0  0  0  0  0  2  0  0  0  0  0  0
  184.9260  178.1760  145.9080 C   0  0  0  0  0  0  0  0  0  0  0  0
  186.0470  176.9140  147.5760 O   0  0  0  0  0  0  0  0  0  0  0  0
  185.6700  178.0430  147.1620 C   0  0  0  0  0  3  0  0  0  0  0  0
  2  1  1  6  0  0  0
  2  8  1  0  0  0  0
  2  4  1  0  0  0  0
  3 19  1  1  0  0  0
  3  5  1  0  0  0  0
  5  4  1  0  0  0  0
  6  1  1  0  0  0  0
  6  3  1  0  0  0  0
  7 11  1  0  0  0  0
  8 12  1  6  0  0  0
  8 14  1  0  0  0  0
  9 13  2  0  0  0  0
 10  9  1  0  0  0  0
 10 15  1  1  0  0  0
 11 10  1  0  0  0  0
 12  7  1  0  0  0  0
 14  9  1  0  0  0  0
 16 15  1  0  0  0  0
 17 18  1  0  0  0  0
 18 16  1  0  0  0  0
 20 22  1  0  0  0  0
 21 24  1  6  0  0  0
 21 20  1  0  0  0  0
 21 26  1  0  0  0  0
 22 28  1  6  0  0  0
 22 25  1  0  0  0  0
 23 25  1  0  0  0  0
 26 19  1  6  0  0  0
 26 23  1  0  0  0  0
 28 27  1  6  0  0  0
 28 29  1  0  0  0  0
 29 30  1  6  0  0  0
 29 32  1  0  0  0  0
 31 32  2  0  0  0  0
 32 34  1  0  0  0  0
 34 33  2  0  0  0  0
M  END
>  <MODEL>
3

>  <REMARK>
 VINA RESULT:      -6.6      2.930      5.248
  Name = 
  10 active torsions:
  status: ('A' for Active; 'I' for Inactive)
    1  A    between atoms: C_7  and  C_33
    2  A    between atoms: CA_8  and  C_12
    3  A    between atoms: CA_8  and  C_23
    4  A    between atoms: C_9  and  N_10
    5  A    between atoms: C_11  and  N_21
    6  A    between atoms: C_12  and  C_33
    7  A    between atoms: C_18  and  C_27
    8  A    between atoms: C_20  and  C_27
    9  A    between atoms: C_20  and  C_32
   10  A    between atoms: N_21  and  C_34
                            x       y       z     vdW  Elec       q    Type
                         _______ _______ _______ _____ _____    ______ ____

>  <TORSDO>
F 10

$$$$
=
 OpenBabel11062422033D

 34 36  0  0  1  0  0  0  0  0999 V2000
  193.7410  175.4070  146.4170 C   0  0  0  0  0  2  0  0  0  0  0  0
  193.8220  175.5280  144.9630 N   0  0  1  0  0  0  0  0  0  0  0  0
  191.2850  175.9010  145.9220 C   0  0  2  0  0  3  0  0  0  0  0  0
  193.2340  176.8100  144.5400 C   0  0  0  0  0  2  0  0  0  0  0  0
  191.9060  177.1290  145.2490 C   0  0  0  0  0  2  0  0  0  0  0  0
  192.2860  175.1990  146.8490 C   0  0  0  0  0  2  0  0  0  0  0  0
  195.0730  173.2450  143.2440 C   0  0  0  0  0  2  0  0  0  0  0  0
  195.2370  175.4120  144.5810 C   0  0  1  0  0  3  0  0  0  0  0  0
  195.5400  176.1090  142.0960 C   0  0  0  0  0  0  0  0  0  0  0  0
  194.9080  174.8540  141.5520 C   0  0  2  0  0  3  0  0  0  0  0  0
  195.6630  173.6930  141.9930 N   0  0  0  0  0  2  0  0  0  0  0  0
  195.7180  173.9670  144.4190 C   0  0  0  0  0  2  0  0  0  0  0  0
  195.9840  176.9900  141.3110 O   0  0  0  0  0  0  0  0  0  0  0  0
  195.6580  176.3250  143.5100 N   0  0  0  0  0  2  0  0  0  0  0  0
  194.8040  174.8630  140.0300 C   0  0  0  0  0  2  0  0  0  0  0  0
  193.5660  174.1100  139.5580 C   0  0  0  0  0  2  0  0  0  0  0  0
  191.5090  172.9940  140.4250 C   0  0  0  0  0  1  0  0  0  0  0  0
  192.4380  174.1840  140.5750 C   0  0  0  0  0  2  0  0  0  0  0  0
  190.8020  174.9640  144.9180 N   0  0  0  0  0  2  0  0  0  0  0  0
  188.5440  177.1860  143.8270 C   0  0  0  0  0  2  0  0  0  0  0  0
  188.8010  175.6920  143.6380 C   0  0  1  0  0  3  0  0  0  0  0  0
  187.4910  177.4380  144.9250 C   0  0  2  0  0  3  0  0  0  0  0  0
  188.8860  175.7440  146.2040 C   0  0  0  0  0  2  0  0  0  0  0  0
  189.6480  175.4800  142.5470 O   0  0  0  0  0  1  0  0  0  0  0  0
  187.4980  176.3550  146.0230 C   0  0  0  0  0  2  0  0  0  0  0  0
  189.3470  175.0330  144.9250 C   0  0  2  0  0  3  0  0  0  0  0  0
  185.1380  177.7920  145.3140 O   0  0  0  0  0  1  0  0  0  0  0  0
  186.0910  177.5680  144.3160 C   0  0  1  0  0  3  0  0  0  0  0  0
  186.0370  178.6900  143.2730 C   0  0  2  0  0  3  0  0  0  0  0  0
  185.5670  179.8800  143.8370 O   0  0  0  0  0  1  0  0  0  0  0  0
  183.9190  178.1950  142.2020 N   0  0  0  0  0  2  0  0  0  0  0  0
  185.2030  178.3010  142.0930 C   0  0  0  0  0  0  0  0  0  0  0  0
  186.7820  177.0940  140.7950 O   0  0  0  0  0  0  0  0  0  0  0  0
  185.8710  177.9640  140.8340 C   0  0  0  0  0  3  0  0  0  0  0  0
  1  6  1  0  0  0  0
  2  4  1  1  0  0  0
  2  1  1  0  0  0  0
  3 19  1  6  0  0  0
  3  6  1  0  0  0  0
  4  5  1  0  0  0  0
  5  3  1  0  0  0  0
  7 12  1  0  0  0  0
  8 12  1  6  0  0  0
  8  2  1  0  0  0  0
  9 14  1  0  0  0  0
 10 15  1  6  0  0  0
 10 11  1  0  0  0  0
 10  9  1  0  0  0  0
 11  7  1  0  0  0  0
 13  9  2  0  0  0  0
 14  8  1  0  0  0  0
 16 15  1  0  0  0  0
 16 18  1  0  0  0  0
 17 18  1  0  0  0  0
 20 22  1  0  0  0  0
 21 24  1  6  0  0  0
 21 20  1  0  0  0  0
 21 26  1  0  0  0  0
 22 28  1  6  0  0  0
 22 25  1  0  0  0  0
 25 23  1  0  0  0  0
 26 19  1  6  0  0  0
 26 23  1  0  0  0  0
 28 27  1  1  0  0  0
 29 30  1  1  0  0  0
 29 28  1  0  0  0  0
 32 31  2  0  0  0  0
 32 29  1  0  0  0  0
 33 34  2  0  0  0  0
 34 32  1  0  0  0  0
M  END
>  <MODEL>
4

>  <REMARK>
 VINA RESULT:      -6.5      2.821      4.089
  Name = 
  10 active torsions:
  status: ('A' for Active; 'I' for Inactive)
    1  A    between atoms: C_7  and  C_33
    2  A    between atoms: CA_8  and  C_12
    3  A    between atoms: CA_8  and  C_23
    4  A    between atoms: C_9  and  N_10
    5  A    between atoms: C_11  and  N_21
    6  A    between atoms: C_12  and  C_33
    7  A    between atoms: C_18  and  C_27
    8  A    between atoms: C_20  and  C_27
    9  A    between atoms: C_20  and  C_32
   10  A    between atoms: N_21  and  C_34
                            x       y       z     vdW  Elec       q    Type
                         _______ _______ _______ _____ _____    ______ ____

>  <TORSDO>
F 10

$$$$
=
 OpenBabel11062422033D

 34 36  0  0  1  0  0  0  0  0999 V2000
  191.9680  172.9840  140.6980 C   0  0  0  0  0  2  0  0  0  0  0  0
  192.3260  173.0880  142.1100 N   0  0  1  0  0  0  0  0  0  0  0  0
  189.7020  173.7060  141.6280 C   0  0  2  0  0  3  0  0  0  0  0  0
  191.3920  172.2850  142.9170 C   0  0  0  0  0  2  0  0  0  0  0  0
  189.9220  172.4640  142.4970 C   0  0  0  0  0  2  0  0  0  0  0  0
  190.6580  173.7320  140.4280 C   0  0  0  0  0  2  0  0  0  0  0  0
  194.8250  174.9270  142.4270 C   0  0  0  0  0  2  0  0  0  0  0  0
  193.7180  172.6360  142.2560 C   0  0  1  0  0  3  0  0  0  0  0  0
  194.4630  172.8580  144.7350 C   0  0  0  0  0  0  0  0  0  0  0  0
  194.5680  174.3610  144.6830 C   0  0  2  0  0  3  0  0  0  0  0  0
  195.5430  174.7510  143.6790 N   0  0  0  0  0  2  0  0  0  0  0  0
  194.7480  173.6070  141.6730 C   0  0  0  0  0  2  0  0  0  0  0  0
  194.7440  172.2370  145.7950 O   0  0  0  0  0  0  0  0  0  0  0  0
  194.0520  172.1050  143.5850 N   0  0  0  0  0  2  0  0  0  0  0  0
  194.9360  174.9690  146.0340 C   0  0  0  0  0  2  0  0  0  0  0  0
  194.4150  176.3960  146.1560 C   0  0  0  0  0  2  0  0  0  0  0  0
  192.1560  176.2230  147.2060 C   0  0  0  0  0  1  0  0  0  0  0  0
  192.9150  176.4720  145.9160 C   0  0  0  0  0  2  0  0  0  0  0  0
  189.8760  174.9150  142.4220 N   0  0  0  0  0  2  0  0  0  0  0  0
  187.9260  177.1850  143.9290 C   0  0  0  0  0  2  0  0  0  0  0  0
  187.7180  175.8380  143.2380 C   0  0  1  0  0  3  0  0  0  0  0  0
  188.0220  177.0190  145.4590 C   0  0  2  0  0  3  0  0  0  0  0  0
  189.6020  175.1310  144.8330 C   0  0  0  0  0  2  0  0  0  0  0  0
  187.4910  176.0250  141.8720 O   0  0  0  0  0  1  0  0  0  0  0  0
  188.6240  175.6620  145.8790 C   0  0  0  0  0  2  0  0  0  0  0  0
  188.8940  174.8700  143.4980 C   0  0  2  0  0  3  0  0  0  0  0  0
  186.5960  176.5620  147.3480 O   0  0  0  0  0  1  0  0  0  0  0  0
  186.6520  177.2190  146.1150 C   0  0  1  0  0  3  0  0  0  0  0  0
  186.3300  178.7070  146.2950 C   0  0  2  0  0  3  0  0  0  0  0  0
  186.1350  179.0210  147.6430 O   0  0  0  0  0  1  0  0  0  0  0  0
  183.9440  178.8230  145.8780 N   0  0  0  0  0  2  0  0  0  0  0  0
  185.1410  179.1120  145.4810 C   0  0  0  0  0  0  0  0  0  0  0  0
  185.1140  179.1660  143.1090 O   0  0  0  0  0  0  0  0  0  0  0  0
  185.3560  179.7670  144.1890 C   0  0  0  0  0  3  0  0  0  0  0  0
  2  1  1  6  0  0  0
  2  8  1  0  0  0  0
  2  4  1  0  0  0  0
  3 19  1  1  0  0  0
  3  5  1  0  0  0  0
  5  4  1  0  0  0  0
  6  1  1  0  0  0  0
  6  3  1  0  0  0  0
  7 11  1  0  0  0  0
  8 12  1  1  0  0  0
  8 14  1  0  0  0  0
  9 13  2  0  0  0  0
 10  9  1  0  0  0  0
 10 15  1  1  0  0  0
 11 10  1  0  0  0  0
 12  7  1  0  0  0  0
 14  9  1  0  0  0  0
 15 16  1  0  0  0  0
 18 16  1  0  0  0  0
 18 17  1  0  0  0  0
 20 22  1  0  0  0  0
 21 24  1  6  0  0  0
 21 26  1  0  0  0  0
 21 20  1  0  0  0  0
 22 25  1  0  0  0  0
 22 28  1  1  0  0  0
 23 25  1  0  0  0  0
 26 19  1  6  0  0  0
 26 23  1  0  0  0  0
 28 29  1  0  0  0  0
 28 27  1  1  0  0  0
 29 30  1  1  0  0  0
 32 31  2  0  0  0  0
 32 29  1  0  0  0  0
 33 34  2  0  0  0  0
 34 32  1  0  0  0  0
M  END
>  <MODEL>
5

>  <REMARK>
 VINA RESULT:      -6.5      2.615      4.352
  Name = 
  10 active torsions:
  status: ('A' for Active; 'I' for Inactive)
    1  A    between atoms: C_7  and  C_33
    2  A    between atoms: CA_8  and  C_12
    3  A    between atoms: CA_8  and  C_23
    4  A    between atoms: C_9  and  N_10
    5  A    between atoms: C_11  and  N_21
    6  A    between atoms: C_12  and  C_33
    7  A    between atoms: C_18  and  C_27
    8  A    between atoms: C_20  and  C_27
    9  A    between atoms: C_20  and  C_32
   10  A    between atoms: N_21  and  C_34
                            x       y       z     vdW  Elec       q    Type
                         _______ _______ _______ _____ _____    ______ ____

>  <TORSDO>
F 10

$$$$
=
 OpenBabel11062422033D

 34 36  0  0  1  0  0  0  0  0999 V2000
  195.3520  175.0390  145.8470 C   0  0  0  0  0  2  0  0  0  0  0  0
  194.6990  174.3300  144.7490 N   0  0  1  0  0  0  0  0  0  0  0  0
  193.3250  176.5610  145.5430 C   0  0  2  0  0  3  0  0  0  0  0  0
  194.4390  175.2650  143.6420 C   0  0  0  0  0  2  0  0  0  0  0  0
  193.8680  176.6150  144.1120 C   0  0  0  0  0  2  0  0  0  0  0  0
  194.3640  175.9960  146.5210 C   0  0  0  0  0  2  0  0  0  0  0  0
  194.3970  171.3500  145.6190 C   0  0  0  0  0  2  0  0  0  0  0  0
  195.5750  173.2200  144.3460 C   0  0  1  0  0  3  0  0  0  0  0  0
  194.4000  171.7830  142.5280 C   0  0  0  0  0  0  0  0  0  0  0  0
  193.4310  171.1540  143.4960 C   0  0  2  0  0  3  0  0  0  0  0  0
  194.1620  170.4270  144.5210 N   0  0  0  0  0  2  0  0  0  0  0  0
  195.6950  172.1130  145.3980 C   0  0  0  0  0  2  0  0  0  0  0  0
  194.3780  171.4640  141.3090 O   0  0  0  0  0  0  0  0  0  0  0  0
  195.3670  172.7450  142.9710 N   0  0  0  0  0  2  0  0  0  0  0  0
  192.4340  170.2260  142.8070 C   0  0  0  0  0  2  0  0  0  0  0  0
  191.0680  170.8870  142.6720 C   0  0  0  0  0  2  0  0  0  0  0  0
  189.9170  172.1160  144.5160 C   0  0  0  0  0  1  0  0  0  0  0  0
  190.9930  172.1930  143.4490 C   0  0  0  0  0  2  0  0  0  0  0  0
  192.1120  175.7570  145.5930 N   0  0  0  0  0  2  0  0  0  0  0  0
  188.9170  175.2910  146.4880 C   0  0  0  0  0  2  0  0  0  0  0  0
  190.1440  175.9690  147.0950 C   0  0  1  0  0  3  0  0  0  0  0  0
  188.0190  176.3110  145.7580 C   0  0  2  0  0  3  0  0  0  0  0  0
  190.2340  177.0790  144.7810 C   0  0  0  0  0  2  0  0  0  0  0  0
  190.8680  175.0580  147.8690 O   0  0  0  0  0  1  0  0  0  0  0  0
  188.8130  177.4900  145.1610 C   0  0  0  0  0  2  0  0  0  0  0  0
  191.0280  176.6340  146.0160 C   0  0  2  0  0  3  0  0  0  0  0  0
  187.2950  178.0370  147.2760 O   0  0  0  0  0  1  0  0  0  0  0  0
  186.9160  176.8270  146.6870 C   0  0  1  0  0  3  0  0  0  0  0  0
  185.5890  176.9960  145.9410 C   0  0  2  0  0  3  0  0  0  0  0  0
  185.6980  176.5660  144.6150 O   0  0  0  0  0  1  0  0  0  0  0  0
  184.1910  178.7600  146.8450 N   0  0  0  0  0  2  0  0  0  0  0  0
  185.1040  178.4110  145.9970 C   0  0  0  0  0  0  0  0  0  0  0  0
  184.8910  179.8130  144.0940 O   0  0  0  0  0  0  0  0  0  0  0  0
  185.6210  179.3760  145.0240 C   0  0  0  0  0  3  0  0  0  0  0  0
  1  6  1  0  0  0  0
  2  4  1  6  0  0  0
  2  1  1  0  0  0  0
  3 19  1  6  0  0  0
  3  6  1  0  0  0  0
  4  5  1  0  0  0  0
  5  3  1  0  0  0  0
  8  2  1  0  0  0  0
  8 12  1  1  0  0  0
  9 14  1  0  0  0  0
  9 10  1  0  0  0  0
 10 15  1  6  0  0  0
 10 11  1  0  0  0  0
 11  7  1  0  0  0  0
 12  7  1  0  0  0  0
 13  9  2  0  0  0  0
 14  8  1  0  0  0  0
 16 15  1  0  0  0  0
 16 18  1  0  0  0  0
 18 17  1  0  0  0  0
 20 21  1  0  0  0  0
 21 24  1  6  0  0  0
 22 20  1  0  0  0  0
 22 28  1  1  0  0  0
 23 25  1  0  0  0  0
 23 26  1  0  0  0  0
 25 22  1  0  0  0  0
 26 19  1  6  0  0  0
 26 21  1  0  0  0  0
 28 27  1  6  0  0  0
 29 30  1  6  0  0  0
 29 32  1  0  0  0  0
 29 28  1  0  0  0  0
 32 31  2  0  0  0  0
 33 34  2  0  0  0  0
 34 32  1  0  0  0  0
M  END
>  <MODEL>
6

>  <REMARK>
 VINA RESULT:      -6.4      2.066      3.092
  Name = 
  10 active torsions:
  status: ('A' for Active; 'I' for Inactive)
    1  A    between atoms: C_7  and  C_33
    2  A    between atoms: CA_8  and  C_12
    3  A    between atoms: CA_8  and  C_23
    4  A    between atoms: C_9  and  N_10
    5  A    between atoms: C_11  and  N_21
    6  A    between atoms: C_12  and  C_33
    7  A    between atoms: C_18  and  C_27
    8  A    between atoms: C_20  and  C_27
    9  A    between atoms: C_20  and  C_32
   10  A    between atoms: N_21  and  C_34
                            x       y       z     vdW  Elec       q    Type
                         _______ _______ _______ _____ _____    ______ ____

>  <TORSDO>
F 10

$$$$
=
 OpenBabel11062422033D

 34 36  0  0  1  0  0  0  0  0999 V2000
  193.7810  175.5260  146.4960 C   0  0  0  0  0  2  0  0  0  0  0  0
  193.8440  175.6450  145.0410 N   0  0  1  0  0  0  0  0  0  0  0  0
  191.3170  176.0070  146.0300 C   0  0  2  0  0  3  0  0  0  0  0  0
  193.2440  176.9240  144.6240 C   0  0  0  0  0  2  0  0  0  0  0  0
  191.9230  177.2370  145.3480 C   0  0  0  0  0  2  0  0  0  0  0  0
  192.3320  175.3100  146.9460 C   0  0  0  0  0  2  0  0  0  0  0  0
  195.0810  173.3810  143.2880 C   0  0  0  0  0  2  0  0  0  0  0  0
  195.2550  175.5360  144.6420 C   0  0  1  0  0  3  0  0  0  0  0  0
  195.5290  176.2560  142.1600 C   0  0  0  0  0  0  0  0  0  0  0  0
  194.8930  175.0040  141.6120 C   0  0  2  0  0  3  0  0  0  0  0  0
  195.6560  173.8410  142.0350 N   0  0  0  0  0  2  0  0  0  0  0  0
  195.7370  174.0940  144.4620 C   0  0  0  0  0  2  0  0  0  0  0  0
  195.9620  177.1450  141.3770 O   0  0  0  0  0  0  0  0  0  0  0  0
  195.6620  176.4600  143.5740 N   0  0  0  0  0  2  0  0  0  0  0  0
  194.7720  175.0260  140.0910 C   0  0  0  0  0  2  0  0  0  0  0  0
  195.8920  174.2270  139.4370 C   0  0  0  0  0  2  0  0  0  0  0  0
  197.1480  173.7920  137.3240 C   0  0  0  0  0  1  0  0  0  0  0  0
  196.2270  174.7540  138.0510 C   0  0  0  0  0  2  0  0  0  0  0  0
  190.8270  175.0660  145.0320 N   0  0  0  0  0  2  0  0  0  0  0  0
  188.5470  177.3230  144.0630 C   0  0  0  0  0  2  0  0  0  0  0  0
  188.8090  175.8400  143.8050 C   0  0  1  0  0  3  0  0  0  0  0  0
  187.5040  177.5210  145.1820 C   0  0  2  0  0  3  0  0  0  0  0  0
  188.9200  175.7800  146.3710 C   0  0  0  0  0  2  0  0  0  0  0  0
  189.6450  175.6800  142.6980 O   0  0  0  0  0  1  0  0  0  0  0  0
  187.5280  176.3910  146.2310 C   0  0  0  0  0  2  0  0  0  0  0  0
  189.3710  175.1280  145.0570 C   0  0  2  0  0  3  0  0  0  0  0  0
  185.1710  177.9590  145.5990 O   0  0  0  0  0  1  0  0  0  0  0  0
  186.0980  177.6710  144.5930 C   0  0  1  0  0  3  0  0  0  0  0  0
  186.0570  178.7550  143.5110 C   0  0  2  0  0  3  0  0  0  0  0  0
  185.5310  179.9490  144.0130 O   0  0  0  0  0  1  0  0  0  0  0  0
  183.9940  178.2230  142.3520 N   0  0  0  0  0  2  0  0  0  0  0  0
  185.2850  178.3030  142.3110 C   0  0  0  0  0  0  0  0  0  0  0  0
  186.7060  176.8200  141.1230 O   0  0  0  0  0  0  0  0  0  0  0  0
  186.0170  177.8740  141.1170 C   0  0  0  0  0  3  0  0  0  0  0  0
  1  6  1  0  0  0  0
  2  4  1  1  0  0  0
  2  1  1  0  0  0  0
  3 19  1  6  0  0  0
  3  6  1  0  0  0  0
  4  5  1  0  0  0  0
  5  3  1  0  0  0  0
  7 12  1  0  0  0  0
  8 12  1  6  0  0  0
  8  2  1  0  0  0  0
  9 14  1  0  0  0  0
 10 15  1  6  0  0  0
 10 11  1  0  0  0  0
 10  9  1  0  0  0  0
 11  7  1  0  0  0  0
 13  9  2  0  0  0  0
 14  8  1  0  0  0  0
 16 15  1  0  0  0  0
 17 18  1  0  0  0  0
 18 16  1  0  0  0  0
 20 22  1  0  0  0  0
 21 24  1  6  0  0  0
 21 20  1  0  0  0  0
 21 26  1  0  0  0  0
 22 28  1  6  0  0  0
 22 25  1  0  0  0  0
 25 23  1  0  0  0  0
 26 19  1  6  0  0  0
 26 23  1  0  0  0  0
 28 27  1  1  0  0  0
 29 30  1  1  0  0  0
 29 28  1  0  0  0  0
 32 31  2  0  0  0  0
 32 29  1  0  0  0  0
 34 33  2  0  0  0  0
 34 32  1  0  0  0  0
M  END
>  <MODEL>
7

>  <REMARK>
 VINA RESULT:      -6.4      2.837      4.378
  Name = 
  10 active torsions:
  status: ('A' for Active; 'I' for Inactive)
    1  A    between atoms: C_7  and  C_33
    2  A    between atoms: CA_8  and  C_12
    3  A    between atoms: CA_8  and  C_23
    4  A    between atoms: C_9  and  N_10
    5  A    between atoms: C_11  and  N_21
    6  A    between atoms: C_12  and  C_33
    7  A    between atoms: C_18  and  C_27
    8  A    between atoms: C_20  and  C_27
    9  A    between atoms: C_20  and  C_32
   10  A    between atoms: N_21  and  C_34
                            x       y       z     vdW  Elec       q    Type
                         _______ _______ _______ _____ _____    ______ ____

>  <TORSDO>
F 10

$$$$
=
 OpenBabel11062422033D

 34 36  0  0  1  0  0  0  0  0999 V2000
  194.0630  176.0840  146.4890 C   0  0  0  0  0  2  0  0  0  0  0  0
  194.1530  175.5300  145.1400 N   0  0  1  0  0  0  0  0  0  0  0  0
  191.6080  176.2790  145.8160 C   0  0  2  0  0  3  0  0  0  0  0  0
  193.5610  176.4740  144.1780 C   0  0  0  0  0  2  0  0  0  0  0  0
  192.2260  177.0710  144.6590 C   0  0  0  0  0  2  0  0  0  0  0  0
  192.6060  176.0840  146.9640 C   0  0  0  0  0  2  0  0  0  0  0  0
  195.5990  172.7840  145.4550 C   0  0  0  0  0  2  0  0  0  0  0  0
  195.5720  175.2640  144.8570 C   0  0  1  0  0  3  0  0  0  0  0  0
  195.8000  174.0100  142.5930 C   0  0  0  0  0  0  0  0  0  0  0  0
  195.2820  172.7040  143.1380 C   0  0  2  0  0  3  0  0  0  0  0  0
  196.1410  172.2470  144.2180 N   0  0  0  0  0  2  0  0  0  0  0  0
  196.1810  174.1640  145.7310 C   0  0  0  0  0  2  0  0  0  0  0  0
  196.1590  174.0990  141.3870 O   0  0  0  0  0  0  0  0  0  0  0  0
  195.9030  175.1720  143.4280 N   0  0  0  0  0  2  0  0  0  0  0  0
  195.1710  171.6240  142.0660 C   0  0  0  0  0  2  0  0  0  0  0  0
  193.7150  171.3170  141.7410 C   0  0  0  0  0  2  0  0  0  0  0  0
  191.3890  171.7900  142.5150 C   0  0  0  0  0  1  0  0  0  0  0  0
  192.8140  171.5060  142.9520 C   0  0  0  0  0  2  0  0  0  0  0  0
  191.1370  174.9840  145.3460 N   0  0  0  0  0  2  0  0  0  0  0  0
  188.5620  176.9460  144.4820 C   0  0  0  0  0  2  0  0  0  0  0  0
  188.9170  175.4660  144.3390 C   0  0  1  0  0  3  0  0  0  0  0  0
  187.6600  177.1890  145.7080 C   0  0  2  0  0  3  0  0  0  0  0  0
  189.3650  175.6990  146.8570 C   0  0  0  0  0  2  0  0  0  0  0  0
  189.6140  175.2470  143.1480 O   0  0  0  0  0  1  0  0  0  0  0  0
  187.9190  176.1870  146.8520 C   0  0  0  0  0  2  0  0  0  0  0  0
  189.6970  174.9410  145.5660 C   0  0  2  0  0  3  0  0  0  0  0  0
  185.3880  176.7310  146.3720 O   0  0  0  0  0  1  0  0  0  0  0  0
  186.1810  177.1700  145.3080 C   0  0  1  0  0  3  0  0  0  0  0  0
  185.7120  178.5490  144.8330 C   0  0  2  0  0  3  0  0  0  0  0  0
  184.7000  179.0480  145.6580 O   0  0  0  0  0  1  0  0  0  0  0  0
  184.0200  178.2860  143.1160 N   0  0  0  0  0  2  0  0  0  0  0  0
  185.2600  178.5130  143.4070 C   0  0  0  0  0  0  0  0  0  0  0  0
  186.3000  177.8450  141.3810 O   0  0  0  0  0  0  0  0  0  0  0  0
  186.2570  178.6570  142.3430 C   0  0  0  0  0  3  0  0  0  0  0  0
  1  6  1  0  0  0  0
  2  4  1  6  0  0  0
  2  1  1  0  0  0  0
  3 19  1  6  0  0  0
  3  6  1  0  0  0  0
  4  5  1  0  0  0  0
  5  3  1  0  0  0  0
  7 12  1  0  0  0  0
  8  2  1  0  0  0  0
  8 12  1  1  0  0  0
  9 10  1  0  0  0  0
  9 14  1  0  0  0  0
 10 15  1  6  0  0  0
 10 11  1  0  0  0  0
 11  7  1  0  0  0  0
 13  9  2  0  0  0  0
 14  8  1  0  0  0  0
 16 15  1  0  0  0  0
 16 18  1  0  0  0  0
 17 18  1  0  0  0  0
 20 22  1  0  0  0  0
 21 24  1  6  0  0  0
 21 20  1  0  0  0  0
 21 26  1  0  0  0  0
 22 28  1  6  0  0  0
 22 25  1  0  0  0  0
 25 23  1  0  0  0  0
 26 19  1  6  0  0  0
 26 23  1  0  0  0  0
 28 27  1  1  0  0  0
 29 28  1  0  0  0  0
 29 30  1  1  0  0  0
 31 32  2  0  0  0  0
 32 29  1  0  0  0  0
 33 34  2  0  0  0  0
 34 32  1  0  0  0  0
M  END
>  <MODEL>
8

>  <REMARK>
 VINA RESULT:      -6.3      2.042      2.693
  Name = 
  10 active torsions:
  status: ('A' for Active; 'I' for Inactive)
    1  A    between atoms: C_7  and  C_33
    2  A    between atoms: CA_8  and  C_12
    3  A    between atoms: CA_8  and  C_23
    4  A    between atoms: C_9  and  N_10
    5  A    between atoms: C_11  and  N_21
    6  A    between atoms: C_12  and  C_33
    7  A    between atoms: C_18  and  C_27
    8  A    between atoms: C_20  and  C_27
    9  A    between atoms: C_20  and  C_32
   10  A    between atoms: N_21  and  C_34
                            x       y       z     vdW  Elec       q    Type
                         _______ _______ _______ _____ _____    ______ ____

>  <TORSDO>
F 10

$$$$
=
 OpenBabel11062422033D

 34 36  0  0  1  0  0  0  0  0999 V2000
  193.4790  173.3430  140.7350 C   0  0  0  0  0  2  0  0  0  0  0  0
  193.7330  173.1560  142.1620 N   0  0  1  0  0  0  0  0  0  0  0  0
  191.2320  172.3350  141.4070 C   0  0  2  0  0  3  0  0  0  0  0  0
  193.4540  171.7580  142.5330 C   0  0  0  0  0  2  0  0  0  0  0  0
  192.1470  171.2200  141.9230 C   0  0  0  0  0  2  0  0  0  0  0  0
  191.9750  173.2790  140.4530 C   0  0  0  0  0  2  0  0  0  0  0  0
  194.7920  176.0520  142.6270 C   0  0  0  0  0  2  0  0  0  0  0  0
  195.1310  173.5320  142.4230 C   0  0  1  0  0  3  0  0  0  0  0  0
  195.4420  174.0680  144.9460 C   0  0  0  0  0  0  0  0  0  0  0  0
  194.7140  175.3860  144.8690 C   0  0  2  0  0  3  0  0  0  0  0  0
  195.3920  176.2670  143.9330 N   0  0  0  0  0  2  0  0  0  0  0  0
  195.5050  174.9210  141.8990 C   0  0  0  0  0  2  0  0  0  0  0  0
  195.9350  173.6760  146.0390 O   0  0  0  0  0  0  0  0  0  0  0  0
  195.5980  173.2400  143.7850 N   0  0  0  0  0  2  0  0  0  0  0  0
  194.5870  176.0650  146.2290 C   0  0  0  0  0  2  0  0  0  0  0  0
  193.1370  176.4190  146.5350 C   0  0  0  0  0  2  0  0  0  0  0  0
  191.0330  175.5970  147.5970 C   0  0  0  0  0  1  0  0  0  0  0  0
  192.3210  175.1910  146.9080 C   0  0  0  0  0  2  0  0  0  0  0  0
  190.6830  173.0940  142.5220 N   0  0  0  0  0  2  0  0  0  0  0  0
  189.1500  175.7730  143.8250 C   0  0  0  0  0  2  0  0  0  0  0  0
  190.3130  175.5270  142.8650 C   0  0  1  0  0  3  0  0  0  0  0  0
  187.8400  176.0460  143.0590 C   0  0  2  0  0  3  0  0  0  0  0  0
  188.5780  174.0210  141.7170 C   0  0  0  0  0  2  0  0  0  0  0  0
  191.5130  175.4230  143.5740 O   0  0  0  0  0  1  0  0  0  0  0  0
  187.7780  175.3200  141.6990 C   0  0  0  0  0  2  0  0  0  0  0  0
  190.0670  174.2930  141.9680 C   0  0  2  0  0  3  0  0  0  0  0  0
  188.1170  177.9670  141.6280 O   0  0  0  0  0  1  0  0  0  0  0  0
  187.6240  177.5510  142.8690 C   0  0  1  0  0  3  0  0  0  0  0  0
  186.1440  177.9260  143.0020 C   0  0  2  0  0  3  0  0  0  0  0  0
  185.7100  178.6630  141.8970 O   0  0  0  0  0  1  0  0  0  0  0  0
  185.4980  179.9100  144.2380 N   0  0  0  0  0  2  0  0  0  0  0  0
  185.8810  178.6740  144.2710 C   0  0  0  0  0  0  0  0  0  0  0  0
  186.2240  178.6760  146.6190 O   0  0  0  0  0  0  0  0  0  0  0  0
  186.1420  178.0130  145.5520 C   0  0  0  0  0  3  0  0  0  0  0  0
  2  1  1  6  0  0  0
  2  8  1  0  0  0  0
  2  4  1  0  0  0  0
  3  5  1  0  0  0  0
  3 19  1  1  0  0  0
  5  4  1  0  0  0  0
  6  1  1  0  0  0  0
  6  3  1  0  0  0  0
  7 11  1  0  0  0  0
  8 12  1  1  0  0  0
  8 14  1  0  0  0  0
  9 13  2  0  0  0  0
 10  9  1  0  0  0  0
 10 15  1  1  0  0  0
 11 10  1  0  0  0  0
 12  7  1  0  0  0  0
 14  9  1  0  0  0  0
 15 16  1  0  0  0  0
 16 18  1  0  0  0  0
 18 17  1  0  0  0  0
 21 24  1  1  0  0  0
 21 20  1  0  0  0  0
 22 28  1  6  0  0  0
 22 20  1  0  0  0  0
 23 26  1  0  0  0  0
 25 23  1  0  0  0  0
 25 22  1  0  0  0  0
 26 19  1  1  0  0  0
 26 21  1  0  0  0  0
 28 27  1  6  0  0  0
 28 29  1  0  0  0  0
 29 30  1  6  0  0  0
 29 32  1  0  0  0  0
 31 32  2  0  0  0  0
 32 34  1  0  0  0  0
 34 33  2  0  0  0  0
M  END
>  <MODEL>
9

>  <REMARK>
 VINA RESULT:      -6.2      2.722      4.753
  Name = 
  10 active torsions:
  status: ('A' for Active; 'I' for Inactive)
    1  A    between atoms: C_7  and  C_33
    2  A    between atoms: CA_8  and  C_12
    3  A    between atoms: CA_8  and  C_23
    4  A    between atoms: C_9  and  N_10
    5  A    between atoms: C_11  and  N_21
    6  A    between atoms: C_12  and  C_33
    7  A    between atoms: C_18  and  C_27
    8  A    between atoms: C_20  and  C_27
    9  A    between atoms: C_20  and  C_32
   10  A    between atoms: N_21  and  C_34
                            x       y       z     vdW  Elec       q    Type
                         _______ _______ _______ _____ _____    ______ ____

>  <TORSDO>
F 10

$$$$
