=
 OpenBabel11062418373D

 55 59  0  0  1  0  0  0  0  0999 V2000
  194.7270  175.9570  144.6720 O   0  0  0  0  0  0  0  0  0  0  0  0
  193.9990  175.5960  145.8130 C   0  0  2  0  0  3  0  0  0  0  0  0
  192.6120  175.0230  145.4970 C   0  0  1  0  0  3  0  0  0  0  0  0
  192.7620  176.4750  145.9030 C   0  0  1  0  0  3  0  0  0  0  0  0
  191.4600  173.7150  143.7610 C   0  0  0  0  0  0  0  0  0  0  0  0
  191.4390  176.0810  143.5970 C   0  0  0  0  0  2  0  0  0  0  0  0
  190.0300  174.0470  143.4790 C   0  0  2  0  0  0  0  0  0  0  0  0
  190.0010  175.5820  143.4620 C   0  0  1  0  0  3  0  0  0  0  0  0
  189.2160  173.5200  144.4880 O   0  0  0  0  0  1  0  0  0  0  0  0
  192.3090  174.9080  144.0090 C   0  0  1  0  0  3  0  0  0  0  0  0
  191.9760  172.4910  143.6470 C   0  0  0  0  0  2  0  0  0  0  0  0
  189.1480  174.6920  141.1780 C   0  0  0  0  0  1  0  0  0  0  0  0
  189.5660  173.5570  142.1050 C   0  0  0  0  0  2  0  0  0  0  0  0
  189.1070  176.2120  144.5280 C   0  0  0  0  0  2  0  0  0  0  0  0
  188.5800  177.5670  144.0730 C   0  0  0  0  0  2  0  0  0  0  0  0
  187.2450  177.8840  144.7350 C   0  0  1  0  0  3  0  0  0  0  0  0
  185.5960  179.6730  144.1460 C   0  0  0  0  0  1  0  0  0  0  0  0
  186.2310  178.3630  143.6980 C   0  0  1  0  0  3  0  0  0  0  0  0
  186.8930  178.5640  142.3400 C   0  0  0  0  0  2  0  0  0  0  0  0
  187.0410  177.5300  140.1870 O   0  0  0  0  0  1  0  0  0  0  0  0
  186.1780  177.7660  141.2590 C   0  0  0  0  0  2  0  0  0  0  0  0
  186.7620  176.7140  145.3810 O   0  0  0  0  0  0  0  0  0  0  0  0
  184.7330  176.9620  146.4260 O   0  0  0  0  0  0  0  0  0  0  0  0
  186.5460  176.6570  147.7930 O   0  0  0  0  0  1  0  0  0  0  0  0
  185.9740  176.7760  146.5300 C   0  0  0  0  0  0  0  0  0  0  0  0
  192.3420  176.6300  147.3570 C   0  0  0  0  0  2  0  0  0  0  0  0
  190.0330  177.5570  147.5610 C   0  0  0  0  0  1  0  0  0  0  0  0
  190.8730  176.2930  147.5420 C   0  0  0  0  0  2  0  0  0  0  0  0
  195.9970  175.4060  144.8700 C   0  0  0  0  0  2  0  0  0  0  0  0
  196.7890  175.4250  143.6020 C   0  0  0  0  0  0  0  0  0  0  0  0
  197.3670  176.4460  143.2630 O   0  0  0  0  0  0  0  0  0  0  0  0
  195.5250  173.9420  142.0670 C   0  0  0  0  0  0  0  0  0  0  0  0
  193.5370  174.5140  140.6680 C   0  0  0  0  0  2  0  0  0  0  0  0
  194.8480  174.8330  141.3240 C   0  0  0  0  0  3  0  0  0  0  0  0
  193.7140  172.0240  140.2990 C   0  0  2  0  0  3  0  0  0  0  0  0
  195.1490  172.5400  142.2990 C   0  0  1  0  0  3  0  0  0  0  0  0
  193.6810  173.3990  139.6370 C   0  0  0  0  0  2  0  0  0  0  0  0
  195.0560  171.7850  140.9800 C   0  0  0  0  0  2  0  0  0  0  0  0
  196.8080  174.2030  142.7300 C   0  0  2  0  0  3  0  0  0  0  0  0
  197.0840  173.0170  143.5290 N   0  0  0  0  0  2  0  0  0  0  0  0
  196.2350  171.9710  143.0930 N   0  0  0  0  0  2  0  0  0  0  0  0
  192.9480  169.6740  139.8430 C   0  0  0  0  0  2  0  0  0  0  0  0
  192.0210  170.5840  139.0650 C   0  0  2  0  0  0  0  0  0  0  0  0
  193.4870  170.9670  139.2200 C   0  0  1  0  0  3  0  0  0  0  0  0
  191.0920  171.3230  139.8040 O   0  0  0  0  0  1  0  0  0  0  0  0
  191.6650  170.2070  137.7600 O   0  0  0  0  0  0  0  0  0  0  0  0
  191.3010  171.3790  137.0750 C   0  0  1  0  0  3  0  0  0  0  0  0
  192.1630  171.5870  135.8290 C   0  0  0  0  0  2  0  0  0  0  0  0
  193.1880  172.5050  136.0800 O   0  0  0  0  0  0  0  0  0  0  0  0
  192.7510  173.6920  135.4900 C   0  0  0  0  0  1  0  0  0  0  0  0
  189.7970  171.4140  136.7910 C   0  0  0  0  0  2  0  0  0  0  0  0
  187.8900  174.6590  137.7450 C   0  0  0  0  0  1  0  0  0  0  0  0
  188.0800  172.5470  138.8090 O   0  0  0  0  0  0  0  0  0  0  0  0
  188.4030  173.2690  137.8300 C   0  0  0  0  0  0  0  0  0  0  0  0
  189.2580  172.7720  136.7990 N   0  0  0  0  0  2  0  0  0  0  0  0
  1 29  1  0  0  0  0
  2  1  1  6  0  0  0
  2  4  1  0  0  0  0
  3 10  1  6  0  0  0
  3  2  1  0  0  0  0
  3  4  1  0  0  0  0
  4 26  1  1  0  0  0
  5 10  1  0  0  0  0
  7  5  1  0  0  0  0
  7  9  1  1  0  0  0
  8  7  1  0  0  0  0
  8  6  1  0  0  0  0
  8 14  1  1  0  0  0
 10  6  1  1  0  0  0
 11  5  2  0  0  0  0
 12 13  1  0  0  0  0
 13  7  1  0  0  0  0
 15 14  1  0  0  0  0
 16 15  1  6  0  0  0
 16 22  1  0  0  0  0
 18 17  1  1  0  0  0
 18 16  1  0  0  0  0
 19 18  1  0  0  0  0
 20 21  1  0  0  0  0
 21 19  1  0  0  0  0
 22 25  1  0  0  0  0
 23 25  2  0  0  0  0
 25 24  1  0  0  0  0
 26 28  1  0  0  0  0
 28 27  1  0  0  0  0
 30 29  1  0  0  0  0
 31 30  2  0  0  0  0
 32 36  1  0  0  0  0
 32 39  1  0  0  0  0
 33 34  1  0  0  0  0
 34 32  2  0  0  0  0
 35 37  1  6  0  0  0
 35 38  1  0  0  0  0
 36 38  1  6  0  0  0
 36 41  1  0  0  0  0
 37 33  1  0  0  0  0
 39 40  1  0  0  0  0
 39 30  1  1  0  0  0
 41 40  1  0  0  0  0
 43 44  1  0  0  0  0
 43 45  1  1  0  0  0
 43 42  1  0  0  0  0
 44 42  1  1  0  0  0
 44 35  1  0  0  0  0
 46 43  1  0  0  0  0
 47 48  1  6  0  0  0
 47 46  1  0  0  0  0
 48 49  1  0  0  0  0
 50 49  1  0  0  0  0
 51 55  1  0  0  0  0
 51 47  1  0  0  0  0
 52 54  1  0  0  0  0
 54 53  2  0  0  0  0
 55 54  1  0  0  0  0
M  END
>  <MODEL>
1

>  <REMARK>
 VINA RESULT:      -5.6      0.000      0.000
  Name = 
  23 active torsions:
  status: ('A' for Active; 'I' for Inactive)
    1  A    between atoms: O_4  and  C_48
    2  A    between atoms: C_7  and  C_44
    3  A    between atoms: C_10  and  C_32
    4  A    between atoms: C_10  and  O_33
    5  A    between atoms: C_10  and  C_41
    6  A    between atoms: C_14  and  C_41
    7  A    between atoms: C_14  and  C_43
    8  A    between atoms: C_15  and  C_21
    9  A    between atoms: C_15  and  C_28
   10  A    between atoms: C_16  and  O_37
   11  A    between atoms: C_18  and  C_31
   12  A    between atoms: C_19  and  C_38
   13  A    between atoms: C_21  and  O_37
   14  A    between atoms: C_25  and  O_50
   15  A    between atoms: C_26  and  C_46
   16  A    between atoms: C_26  and  C_48
   17  A    between atoms: C_26  and  O_50
   18  A    between atoms: C_29  and  C_40
   19  A    between atoms: C_32  and  C_40
   20  A    between atoms: O_33  and  C_45
   21  A    between atoms: C_46  and  N_51
   22  A    between atoms: C_53  and  C_54
   23  A    between atoms: C_54  and  C_55
                            x       y       z     vdW  Elec       q    Type
                         _______ _______ _______ _____ _____    ______ ____

>  <TORSDO>
F 23

$$$$
=
 OpenBabel11062418373D

 55 59  0  0  1  0  0  0  0  0999 V2000
  194.4720  176.0890  144.2720 O   0  0  0  0  0  0  0  0  0  0  0  0
  194.1120  175.6470  145.5520 C   0  0  2  0  0  3  0  0  0  0  0  0
  192.7450  174.9550  145.5980 C   0  0  1  0  0  3  0  0  0  0  0  0
  192.8780  176.4090  146.0050 C   0  0  1  0  0  3  0  0  0  0  0  0
  191.3980  173.5120  144.1300 C   0  0  0  0  0  0  0  0  0  0  0  0
  190.9180  175.8330  144.1840 C   0  0  0  0  0  2  0  0  0  0  0  0
  189.9120  173.5710  144.2740 C   0  0  2  0  0  0  0  0  0  0  0  0
  189.6110  175.0710  144.3990 C   0  0  1  0  0  3  0  0  0  0  0  0
  189.5200  172.8630  145.4160 O   0  0  0  0  0  1  0  0  0  0  0  0
  192.0600  174.8360  144.2420 C   0  0  1  0  0  3  0  0  0  0  0  0
  192.0680  172.4140  143.7750 C   0  0  0  0  0  2  0  0  0  0  0  0
  189.2220  174.0170  141.8630 C   0  0  0  0  0  1  0  0  0  0  0  0
  189.1730  173.0490  143.0390 C   0  0  0  0  0  2  0  0  0  0  0  0
  188.9570  175.4800  145.7170 C   0  0  0  0  0  2  0  0  0  0  0  0
  188.4180  176.9040  145.6460 C   0  0  0  0  0  2  0  0  0  0  0  0
  187.3750  177.0390  144.5430 C   0  0  1  0  0  3  0  0  0  0  0  0
  185.6730  176.5520  146.3120 C   0  0  0  0  0  1  0  0  0  0  0  0
  186.0240  177.4420  145.1260 C   0  0  1  0  0  3  0  0  0  0  0  0
  186.0380  178.8980  145.5790 C   0  0  0  0  0  2  0  0  0  0  0  0
  186.1990  179.5930  147.8640 O   0  0  0  0  0  1  0  0  0  0  0  0
  185.3230  179.0620  146.9140 C   0  0  0  0  0  2  0  0  0  0  0  0
  187.8150  178.0190  143.6130 O   0  0  0  0  0  0  0  0  0  0  0  0
  188.3950  177.8680  141.3960 O   0  0  0  0  0  0  0  0  0  0  0  0
  186.1540  178.0120  141.8490 O   0  0  0  0  0  1  0  0  0  0  0  0
  187.4820  177.9560  142.2590 C   0  0  0  0  0  0  0  0  0  0  0  0
  192.8570  176.5040  147.5230 C   0  0  0  0  0  2  0  0  0  0  0  0
  191.4290  177.8210  149.0910 C   0  0  0  0  0  1  0  0  0  0  0  0
  191.4460  176.7290  148.0380 C   0  0  0  0  0  2  0  0  0  0  0  0
  195.8480  175.8520  144.1850 C   0  0  0  0  0  2  0  0  0  0  0  0
  196.3090  175.9110  142.7650 C   0  0  0  0  0  0  0  0  0  0  0  0
  196.6340  176.9830  142.2770 O   0  0  0  0  0  0  0  0  0  0  0  0
  194.9560  174.1920  141.5950 C   0  0  0  0  0  0  0  0  0  0  0  0
  192.6440  174.4170  140.6800 C   0  0  0  0  0  2  0  0  0  0  0  0
  194.0100  174.9430  141.0090 C   0  0  0  0  0  3  0  0  0  0  0  0
  193.0860  171.9570  140.3330 C   0  0  2  0  0  3  0  0  0  0  0  0
  194.8470  172.7670  141.9370 C   0  0  1  0  0  3  0  0  0  0  0  0
  192.7090  173.2780  139.6680 C   0  0  0  0  0  2  0  0  0  0  0  0
  194.5680  171.9370  140.6920 C   0  0  0  0  0  2  0  0  0  0  0  0
  196.3060  174.6580  141.9380 C   0  0  2  0  0  3  0  0  0  0  0  0
  196.9200  173.5640  142.6780 N   0  0  0  0  0  2  0  0  0  0  0  0
  196.1540  172.3920  142.4710 N   0  0  0  0  0  2  0  0  0  0  0  0
  192.5690  169.5070  140.1170 C   0  0  0  0  0  2  0  0  0  0  0  0
  191.3780  170.2460  139.5470 C   0  0  2  0  0  0  0  0  0  0  0  0
  192.7760  170.8230  139.3580 C   0  0  1  0  0  3  0  0  0  0  0  0
  190.5420  170.8990  140.4580 O   0  0  0  0  0  1  0  0  0  0  0  0
  190.7990  169.7570  138.3650 O   0  0  0  0  0  0  0  0  0  0  0  0
  191.2780  170.5520  137.3090 C   0  0  1  0  0  3  0  0  0  0  0  0
  191.5830  169.7100  136.0700 C   0  0  0  0  0  2  0  0  0  0  0  0
  192.5400  168.7310  136.3560 O   0  0  0  0  0  0  0  0  0  0  0  0
  193.7650  169.3830  136.2100 C   0  0  0  0  0  1  0  0  0  0  0  0
  190.3410  171.7320  137.0320 C   0  0  0  0  0  2  0  0  0  0  0  0
  191.2120  175.2750  135.7060 C   0  0  0  0  0  1  0  0  0  0  0  0
  189.1550  174.2540  136.3020 O   0  0  0  0  0  0  0  0  0  0  0  0
  190.4040  174.1330  136.2000 C   0  0  0  0  0  0  0  0  0  0  0  0
  191.0560  172.9120  136.5530 N   0  0  0  0  0  2  0  0  0  0  0  0
  2  1  1  6  0  0  0
  2  3  1  0  0  0  0
  2  4  1  0  0  0  0
  3 10  1  6  0  0  0
  3  4  1  0  0  0  0
  4 26  1  1  0  0  0
  5 10  1  0  0  0  0
  5  7  1  0  0  0  0
  6  8  1  0  0  0  0
  7  8  1  0  0  0  0
  7  9  1  1  0  0  0
  8 14  1  1  0  0  0
 10  6  1  1  0  0  0
 11  5  2  0  0  0  0
 12 13  1  0  0  0  0
 13  7  1  0  0  0  0
 15 14  1  0  0  0  0
 16 18  1  0  0  0  0
 16 15  1  1  0  0  0
 18 19  1  0  0  0  0
 18 17  1  1  0  0  0
 19 21  1  0  0  0  0
 21 20  1  0  0  0  0
 22 16  1  0  0  0  0
 23 25  2  0  0  0  0
 24 25  1  0  0  0  0
 25 22  1  0  0  0  0
 26 28  1  0  0  0  0
 28 27  1  0  0  0  0
 29  1  1  0  0  0  0
 30 29  1  0  0  0  0
 31 30  2  0  0  0  0
 32 36  1  0  0  0  0
 32 39  1  0  0  0  0
 33 34  1  0  0  0  0
 34 32  2  0  0  0  0
 35 37  1  6  0  0  0
 35 38  1  0  0  0  0
 36 38  1  6  0  0  0
 36 41  1  0  0  0  0
 37 33  1  0  0  0  0
 39 40  1  0  0  0  0
 39 30  1  1  0  0  0
 41 40  1  0  0  0  0
 43 42  1  0  0  0  0
 43 45  1  1  0  0  0
 44 43  1  0  0  0  0
 44 42  1  1  0  0  0
 44 35  1  0  0  0  0
 46 43  1  0  0  0  0
 47 48  1  6  0  0  0
 47 46  1  0  0  0  0
 48 49  1  0  0  0  0
 50 49  1  0  0  0  0
 51 47  1  0  0  0  0
 52 54  1  0  0  0  0
 54 53  2  0  0  0  0
 54 55  1  0  0  0  0
 55 51  1  0  0  0  0
M  END
>  <MODEL>
2

>  <REMARK>
 VINA RESULT:      -5.4      1.484      2.490
  Name = 
  23 active torsions:
  status: ('A' for Active; 'I' for Inactive)
    1  A    between atoms: O_4  and  C_48
    2  A    between atoms: C_7  and  C_44
    3  A    between atoms: C_10  and  C_32
    4  A    between atoms: C_10  and  O_33
    5  A    between atoms: C_10  and  C_41
    6  A    between atoms: C_14  and  C_41
    7  A    between atoms: C_14  and  C_43
    8  A    between atoms: C_15  and  C_21
    9  A    between atoms: C_15  and  C_28
   10  A    between atoms: C_16  and  O_37
   11  A    between atoms: C_18  and  C_31
   12  A    between atoms: C_19  and  C_38
   13  A    between atoms: C_21  and  O_37
   14  A    between atoms: C_25  and  O_50
   15  A    between atoms: C_26  and  C_46
   16  A    between atoms: C_26  and  C_48
   17  A    between atoms: C_26  and  O_50
   18  A    between atoms: C_29  and  C_40
   19  A    between atoms: C_32  and  C_40
   20  A    between atoms: O_33  and  C_45
   21  A    between atoms: C_46  and  N_51
   22  A    between atoms: C_53  and  C_54
   23  A    between atoms: C_54  and  C_55
                            x       y       z     vdW  Elec       q    Type
                         _______ _______ _______ _____ _____    ______ ____

>  <TORSDO>
F 23

$$$$
=
 OpenBabel11062418373D

 55 59  0  0  1  0  0  0  0  0999 V2000
  188.1140  177.9720  143.8050 O   0  0  0  0  0  0  0  0  0  0  0  0
  188.4220  177.7950  145.1610 C   0  0  2  0  0  3  0  0  0  0  0  0
  189.6320  176.8850  145.3990 C   0  0  1  0  0  3  0  0  0  0  0  0
  188.2270  176.3310  145.5210 C   0  0  1  0  0  3  0  0  0  0  0  0
  191.5390  177.1620  143.8700 C   0  0  0  0  0  0  0  0  0  0  0  0
  190.7830  174.9660  144.3480 C   0  0  0  0  0  2  0  0  0  0  0  0
  192.7910  176.4070  144.1800 C   0  0  2  0  0  0  0  0  0  0  0  0
  192.2930  175.0100  144.5770 C   0  0  1  0  0  3  0  0  0  0  0  0
  193.4740  177.0350  145.2270 O   0  0  0  0  0  1  0  0  0  0  0  0
  190.2990  176.3860  144.1230 C   0  0  1  0  0  3  0  0  0  0  0  0
  191.5180  178.3550  143.2730 C   0  0  0  0  0  2  0  0  0  0  0  0
  193.1280  175.3180  141.9020 C   0  0  0  0  0  1  0  0  0  0  0  0
  193.7060  176.2470  142.9620 C   0  0  0  0  0  2  0  0  0  0  0  0
  192.6370  174.5960  146.0060 C   0  0  0  0  0  2  0  0  0  0  0  0
  193.9310  173.7920  146.0490 C   0  0  0  0  0  2  0  0  0  0  0  0
  194.1140  172.9830  144.7700 C   0  0  1  0  0  3  0  0  0  0  0  0
  195.6840  172.8860  142.8220 C   0  0  0  0  0  1  0  0  0  0  0  0
  195.5790  172.9820  144.3390 C   0  0  1  0  0  3  0  0  0  0  0  0
  196.2870  174.2480  144.8120 C   0  0  0  0  0  2  0  0  0  0  0  0
  197.1720  176.0780  143.5500 O   0  0  0  0  0  1  0  0  0  0  0  0
  197.3170  174.7100  143.7910 C   0  0  0  0  0  2  0  0  0  0  0  0
  193.6760  171.6510  145.0020 O   0  0  0  0  0  0  0  0  0  0  0  0
  192.6180  169.7690  144.2200 O   0  0  0  0  0  1  0  0  0  0  0  0
  192.0090  171.7510  143.2470 O   0  0  0  0  0  0  0  0  0  0  0  0
  192.7570  171.0190  144.1630 C   0  0  0  0  0  0  0  0  0  0  0  0
  187.8690  176.2040  146.9940 C   0  0  0  0  0  2  0  0  0  0  0  0
  185.7010  177.3100  147.5550 C   0  0  0  0  0  1  0  0  0  0  0  0
  187.2090  177.4730  147.5080 C   0  0  0  0  0  2  0  0  0  0  0  0
  186.8460  178.5630  143.8010 C   0  0  0  0  0  2  0  0  0  0  0  0
  185.8040  177.5830  143.3670 C   0  0  0  0  0  0  0  0  0  0  0  0
  184.9550  177.2100  144.1620 O   0  0  0  0  0  0  0  0  0  0  0  0
  186.9270  176.0380  141.7850 C   0  0  0  0  0  0  0  0  0  0  0  0
  188.2340  173.9780  142.3150 C   0  0  0  0  0  2  0  0  0  0  0  0
  187.1200  174.9550  142.5540 C   0  0  0  0  0  3  0  0  0  0  0  0
  188.6030  174.1830  139.8270 C   0  0  2  0  0  3  0  0  0  0  0  0
  187.6960  176.4030  140.5860 C   0  0  1  0  0  3  0  0  0  0  0  0
  188.0990  173.2920  140.9600 C   0  0  0  0  0  2  0  0  0  0  0  0
  187.6090  175.3020  139.5380 C   0  0  0  0  0  2  0  0  0  0  0  0
  185.8550  177.0230  141.9760 C   0  0  2  0  0  3  0  0  0  0  0  0
  186.1240  178.0840  141.0150 N   0  0  0  0  0  2  0  0  0  0  0  0
  187.0550  177.6060  140.0620 N   0  0  0  0  0  2  0  0  0  0  0  0
  189.9760  173.8120  137.7550 C   0  0  0  0  0  2  0  0  0  0  0  0
  190.0970  172.5480  138.5780 C   0  0  2  0  0  0  0  0  0  0  0  0
  188.7820  173.3180  138.5810 C   0  0  1  0  0  3  0  0  0  0  0  0
  190.8750  172.6210  139.7390 O   0  0  0  0  0  1  0  0  0  0  0  0
  190.0350  171.3140  137.9110 O   0  0  0  0  0  0  0  0  0  0  0  0
  190.9930  170.4740  138.5030 C   0  0  1  0  0  3  0  0  0  0  0  0
  190.3660  169.1660  138.9870 C   0  0  0  0  0  2  0  0  0  0  0  0
  191.1890  168.5370  139.9260 O   0  0  0  0  0  0  0  0  0  0  0  0
  190.8940  169.1690  141.1340 C   0  0  0  0  0  1  0  0  0  0  0  0
  192.2000  170.2700  137.5820 C   0  0  0  0  0  2  0  0  0  0  0  0
  194.9970  172.9320  137.9850 C   0  0  0  0  0  1  0  0  0  0  0  0
  193.1040  172.8080  136.5610 O   0  0  0  0  0  0  0  0  0  0  0  0
  193.7750  172.2630  137.4750 C   0  0  0  0  0  0  0  0  0  0  0  0
  193.3770  171.0090  138.0320 N   0  0  0  0  0  2  0  0  0  0  0  0
  2  1  1  6  0  0  0
  2  3  1  0  0  0  0
  2  4  1  0  0  0  0
  3 10  1  6  0  0  0
  3  4  1  0  0  0  0
  4 26  1  1  0  0  0
  5 10  1  0  0  0  0
  5  7  1  0  0  0  0
  6  8  1  0  0  0  0
  7  8  1  0  0  0  0
  7  9  1  1  0  0  0
  8 14  1  1  0  0  0
 10  6  1  1  0  0  0
 11  5  2  0  0  0  0
 12 13  1  0  0  0  0
 13  7  1  0  0  0  0
 14 15  1  0  0  0  0
 16 22  1  0  0  0  0
 16 15  1  1  0  0  0
 18 17  1  6  0  0  0
 18 16  1  0  0  0  0
 18 19  1  0  0  0  0
 20 21  1  0  0  0  0
 21 19  1  0  0  0  0
 24 25  2  0  0  0  0
 25 23  1  0  0  0  0
 25 22  1  0  0  0  0
 26 28  1  0  0  0  0
 28 27  1  0  0  0  0
 29  1  1  0  0  0  0
 30 29  1  0  0  0  0
 30 31  2  0  0  0  0
 32 39  1  0  0  0  0
 32 34  2  0  0  0  0
 33 34  1  0  0  0  0
 35 38  1  6  0  0  0
 35 37  1  0  0  0  0
 36 38  1  6  0  0  0
 36 32  1  0  0  0  0
 37 33  1  0  0  0  0
 39 30  1  1  0  0  0
 40 39  1  0  0  0  0
 41 36  1  0  0  0  0
 41 40  1  0  0  0  0
 42 43  1  0  0  0  0
 43 44  1  0  0  0  0
 43 45  1  1  0  0  0
 44 42  1  6  0  0  0
 44 35  1  0  0  0  0
 46 47  1  0  0  0  0
 46 43  1  0  0  0  0
 47 51  1  6  0  0  0
 47 48  1  0  0  0  0
 48 49  1  0  0  0  0
 49 50  1  0  0  0  0
 51 55  1  0  0  0  0
 53 54  2  0  0  0  0
 54 52  1  0  0  0  0
 54 55  1  0  0  0  0
M  END
>  <MODEL>
3

>  <REMARK>
 VINA RESULT:      -5.3      2.385      7.298
  Name = 
  23 active torsions:
  status: ('A' for Active; 'I' for Inactive)
    1  A    between atoms: O_4  and  C_48
    2  A    between atoms: C_7  and  C_44
    3  A    between atoms: C_10  and  C_32
    4  A    between atoms: C_10  and  O_33
    5  A    between atoms: C_10  and  C_41
    6  A    between atoms: C_14  and  C_41
    7  A    between atoms: C_14  and  C_43
    8  A    between atoms: C_15  and  C_21
    9  A    between atoms: C_15  and  C_28
   10  A    between atoms: C_16  and  O_37
   11  A    between atoms: C_18  and  C_31
   12  A    between atoms: C_19  and  C_38
   13  A    between atoms: C_21  and  O_37
   14  A    between atoms: C_25  and  O_50
   15  A    between atoms: C_26  and  C_46
   16  A    between atoms: C_26  and  C_48
   17  A    between atoms: C_26  and  O_50
   18  A    between atoms: C_29  and  C_40
   19  A    between atoms: C_32  and  C_40
   20  A    between atoms: O_33  and  C_45
   21  A    between atoms: C_46  and  N_51
   22  A    between atoms: C_53  and  C_54
   23  A    between atoms: C_54  and  C_55
                            x       y       z     vdW  Elec       q    Type
                         _______ _______ _______ _____ _____    ______ ____

>  <TORSDO>
F 23

$$$$
=
 OpenBabel11062418373D

 55 59  0  0  1  0  0  0  0  0999 V2000
  196.0790  174.5730  143.1900 O   0  0  0  0  0  0  0  0  0  0  0  0
  196.5190  173.2970  142.8150 C   0  0  2  0  0  3  0  0  0  0  0  0
  196.2050  172.9460  141.3560 C   0  0  1  0  0  3  0  0  0  0  0  0
  195.3100  172.4430  142.4710 C   0  0  1  0  0  3  0  0  0  0  0  0
  196.1580  174.2110  139.2470 C   0  0  0  0  0  0  0  0  0  0  0  0
  194.0960  173.6420  140.2700 C   0  0  0  0  0  2  0  0  0  0  0  0
  195.3370  173.6600  138.1260 C   0  0  2  0  0  0  0  0  0  0  0  0
  194.0370  173.2090  138.8060 C   0  0  1  0  0  3  0  0  0  0  0  0
  196.0130  172.5900  137.5290 O   0  0  0  0  0  1  0  0  0  0  0  0
  195.5200  174.0640  140.5800 C   0  0  1  0  0  3  0  0  0  0  0  0
  197.2790  174.9130  139.0730 C   0  0  0  0  0  2  0  0  0  0  0  0
  193.5800  175.2980  137.2800 C   0  0  0  0  0  1  0  0  0  0  0  0
  194.9740  174.7170  137.0790 C   0  0  0  0  0  2  0  0  0  0  0  0
  193.7480  171.7140  138.6950 C   0  0  0  0  0  2  0  0  0  0  0  0
  192.4630  171.3460  139.4280 C   0  0  0  0  0  2  0  0  0  0  0  0
  191.2560  172.0210  138.7870 C   0  0  1  0  0  3  0  0  0  0  0  0
  189.6990  170.6980  137.3420 C   0  0  0  0  0  1  0  0  0  0  0  0
  191.0120  171.4690  137.3850 C   0  0  1  0  0  3  0  0  0  0  0  0
  190.9670  172.5940  136.3570 C   0  0  0  0  0  2  0  0  0  0  0  0
  189.4620  174.3190  135.6590 O   0  0  0  0  0  1  0  0  0  0  0  0
  189.9960  173.6860  136.7840 C   0  0  0  0  0  2  0  0  0  0  0  0
  190.1160  171.7940  139.6040 O   0  0  0  0  0  0  0  0  0  0  0  0
  188.6220  172.5590  141.1710 O   0  0  0  0  0  1  0  0  0  0  0  0
  190.6120  173.6850  141.0340 O   0  0  0  0  0  0  0  0  0  0  0  0
  189.7510  172.6710  140.6260 C   0  0  0  0  0  0  0  0  0  0  0  0
  195.6200  170.9770  142.7340 C   0  0  0  0  0  2  0  0  0  0  0  0
  194.6190  170.4970  144.9700 C   0  0  0  0  0  1  0  0  0  0  0  0
  194.4780  170.3000  143.4720 C   0  0  0  0  0  2  0  0  0  0  0  0
  196.7670  174.8540  144.3750 C   0  0  0  0  0  2  0  0  0  0  0  0
  195.9630  174.4450  145.5670 C   0  0  0  0  0  0  0  0  0  0  0  0
  196.2110  173.3920  146.1340 O   0  0  0  0  0  0  0  0  0  0  0  0
  193.5510  174.9810  145.3430 C   0  0  0  0  0  0  0  0  0  0  0  0
  191.7060  173.4740  144.5930 C   0  0  0  0  0  2  0  0  0  0  0  0
  193.0040  173.7550  145.2900 C   0  0  0  0  0  3  0  0  0  0  0  0
  190.5060  175.6860  144.7840 C   0  0  2  0  0  3  0  0  0  0  0  0
  192.9630  176.2180  144.8100 C   0  0  1  0  0  3  0  0  0  0  0  0
  190.5470  174.2280  145.2360 C   0  0  0  0  0  2  0  0  0  0  0  0
  191.6120  176.4910  145.4560 C   0  0  0  0  0  2  0  0  0  0  0  0
  194.8170  175.3070  146.0110 C   0  0  2  0  0  3  0  0  0  0  0  0
  195.0800  176.7020  145.6870 N   0  0  0  0  0  2  0  0  0  0  0  0
  193.8900  177.2830  145.1860 N   0  0  0  0  0  2  0  0  0  0  0  0
  188.8880  177.5700  144.3960 C   0  0  0  0  0  2  0  0  0  0  0  0
  188.1690  176.3000  143.9910 C   0  0  2  0  0  0  0  0  0  0  0  0
  189.1440  176.2660  145.1620 C   0  0  1  0  0  3  0  0  0  0  0  0
  188.5850  175.6890  142.8030 O   0  0  0  0  0  1  0  0  0  0  0  0
  186.8240  176.1530  144.3640 O   0  0  0  0  0  0  0  0  0  0  0  0
  186.1630  177.3410  144.0070 C   0  0  1  0  0  3  0  0  0  0  0  0
  185.5880  177.2570  142.5930 C   0  0  0  0  0  2  0  0  0  0  0  0
  185.4390  178.5320  142.0390 O   0  0  0  0  0  0  0  0  0  0  0  0
  184.4060  178.3950  141.1110 C   0  0  0  0  0  1  0  0  0  0  0  0
  185.1300  177.7420  145.0650 C   0  0  0  0  0  2  0  0  0  0  0  0
  186.7900  179.1740  148.2700 C   0  0  0  0  0  1  0  0  0  0  0  0
  186.3420  176.9550  147.5580 O   0  0  0  0  0  0  0  0  0  0  0  0
  186.2670  178.1840  147.2960 C   0  0  0  0  0  0  0  0  0  0  0  0
  185.6850  178.6420  146.0740 N   0  0  0  0  0  2  0  0  0  0  0  0
  1 29  1  0  0  0  0
  2  1  1  6  0  0  0
  3 10  1  6  0  0  0
  3  4  1  0  0  0  0
  3  2  1  0  0  0  0
  4 26  1  1  0  0  0
  4  2  1  0  0  0  0
  5 10  1  0  0  0  0
  7  9  1  6  0  0  0
  7  8  1  0  0  0  0
  7  5  1  0  0  0  0
  8 14  1  1  0  0  0
  8  6  1  0  0  0  0
 10  6  1  6  0  0  0
 11  5  2  0  0  0  0
 13 12  1  0  0  0  0
 13  7  1  0  0  0  0
 14 15  1  0  0  0  0
 16 15  1  1  0  0  0
 16 22  1  0  0  0  0
 18 17  1  1  0  0  0
 18 16  1  0  0  0  0
 19 21  1  0  0  0  0
 19 18  1  0  0  0  0
 20 21  1  0  0  0  0
 22 25  1  0  0  0  0
 25 24  2  0  0  0  0
 25 23  1  0  0  0  0
 26 28  1  0  0  0  0
 28 27  1  0  0  0  0
 29 30  1  0  0  0  0
 30 31  2  0  0  0  0
 32 39  1  0  0  0  0
 33 37  1  0  0  0  0
 33 34  1  0  0  0  0
 34 32  2  0  0  0  0
 35 44  1  0  0  0  0
 35 37  1  1  0  0  0
 35 38  1  0  0  0  0
 36 41  1  0  0  0  0
 36 32  1  0  0  0  0
 36 38  1  1  0  0  0
 39 30  1  6  0  0  0
 40 39  1  0  0  0  0
 41 40  1  0  0  0  0
 43 45  1  6  0  0  0
 43 46  1  0  0  0  0
 43 42  1  0  0  0  0
 43 44  1  0  0  0  0
 44 42  1  6  0  0  0
 47 48  1  6  0  0  0
 47 46  1  0  0  0  0
 47 51  1  0  0  0  0
 49 48  1  0  0  0  0
 50 49  1  0  0  0  0
 51 55  1  0  0  0  0
 54 53  2  0  0  0  0
 54 52  1  0  0  0  0
 55 54  1  0  0  0  0
M  END
>  <MODEL>
4

>  <REMARK>
 VINA RESULT:      -5.1      2.618      7.956
  Name = 
  23 active torsions:
  status: ('A' for Active; 'I' for Inactive)
    1  A    between atoms: O_4  and  C_48
    2  A    between atoms: C_7  and  C_44
    3  A    between atoms: C_10  and  C_32
    4  A    between atoms: C_10  and  O_33
    5  A    between atoms: C_10  and  C_41
    6  A    between atoms: C_14  and  C_41
    7  A    between atoms: C_14  and  C_43
    8  A    between atoms: C_15  and  C_21
    9  A    between atoms: C_15  and  C_28
   10  A    between atoms: C_16  and  O_37
   11  A    between atoms: C_18  and  C_31
   12  A    between atoms: C_19  and  C_38
   13  A    between atoms: C_21  and  O_37
   14  A    between atoms: C_25  and  O_50
   15  A    between atoms: C_26  and  C_46
   16  A    between atoms: C_26  and  C_48
   17  A    between atoms: C_26  and  O_50
   18  A    between atoms: C_29  and  C_40
   19  A    between atoms: C_32  and  C_40
   20  A    between atoms: O_33  and  C_45
   21  A    between atoms: C_46  and  N_51
   22  A    between atoms: C_53  and  C_54
   23  A    between atoms: C_54  and  C_55
                            x       y       z     vdW  Elec       q    Type
                         _______ _______ _______ _____ _____    ______ ____

>  <TORSDO>
F 23

$$$$
=
 OpenBabel11062418373D

 55 59  0  0  1  0  0  0  0  0999 V2000
  196.3190  172.6190  143.0470 O   0  0  0  0  0  0  0  0  0  0  0  0
  196.1410  171.2340  142.9360 C   0  0  2  0  0  3  0  0  0  0  0  0
  195.3390  170.8180  141.6980 C   0  0  1  0  0  3  0  0  0  0  0  0
  194.6580  170.9200  143.0480 C   0  0  1  0  0  3  0  0  0  0  0  0
  194.9880  171.5570  139.3780 C   0  0  0  0  0  0  0  0  0  0  0  0
  193.4660  172.2920  141.0420 C   0  0  0  0  0  2  0  0  0  0  0  0
  193.6430  171.3180  138.7710 C   0  0  2  0  0  0  0  0  0  0  0  0
  192.6590  171.7090  139.8820 C   0  0  1  0  0  3  0  0  0  0  0  0
  193.5200  169.9710  138.4140 O   0  0  0  0  0  1  0  0  0  0  0  0
  194.9310  171.9800  140.8000 C   0  0  1  0  0  3  0  0  0  0  0  0
  196.1280  171.5550  138.6860 C   0  0  0  0  0  2  0  0  0  0  0  0
  192.4770  173.4100  137.9020 C   0  0  0  0  0  1  0  0  0  0  0  0
  193.3670  172.2200  137.5640 C   0  0  0  0  0  2  0  0  0  0  0  0
  191.7610  170.5720  140.3640 C   0  0  0  0  0  2  0  0  0  0  0  0
  190.2880  170.9300  140.2080 C   0  0  0  0  0  2  0  0  0  0  0  0
  189.9250  172.1350  141.0680 C   0  0  1  0  0  3  0  0  0  0  0  0
  188.9900  174.4390  140.7820 C   0  0  0  0  0  1  0  0  0  0  0  0
  188.8450  172.9740  140.3900 C   0  0  1  0  0  3  0  0  0  0  0  0
  188.9300  172.8500  138.8720 C   0  0  0  0  0  2  0  0  0  0  0  0
  188.8510  174.4400  137.0860 O   0  0  0  0  0  1  0  0  0  0  0  0
  188.1420  173.9580  138.1890 C   0  0  0  0  0  2  0  0  0  0  0  0
  189.4610  171.6750  142.3300 O   0  0  0  0  0  0  0  0  0  0  0  0
  191.1760  172.6290  143.5220 O   0  0  0  0  0  0  0  0  0  0  0  0
  189.3590  171.9430  144.7350 O   0  0  0  0  0  1  0  0  0  0  0  0
  190.0310  172.1060  143.5280 C   0  0  0  0  0  0  0  0  0  0  0  0
  194.4660  169.5220  143.6150 C   0  0  0  0  0  2  0  0  0  0  0  0
  194.6300  170.2810  145.9880 C   0  0  0  0  0  1  0  0  0  0  0  0
  193.7670  169.5690  144.9620 C   0  0  0  0  0  2  0  0  0  0  0  0
  197.4350  172.7700  143.8780 C   0  0  0  0  0  2  0  0  0  0  0  0
  197.0820  173.5460  145.1060 C   0  0  0  0  0  0  0  0  0  0  0  0
  197.2920  173.0640  146.2090 O   0  0  0  0  0  0  0  0  0  0  0  0
  194.9490  174.8020  144.9510 C   0  0  0  0  0  0  0  0  0  0  0  0
  192.7060  174.1360  145.8240 C   0  0  0  0  0  2  0  0  0  0  0  0
  194.2050  174.1900  145.8860 C   0  0  0  0  0  3  0  0  0  0  0  0
  192.1470  176.2390  144.5470 C   0  0  2  0  0  3  0  0  0  0  0  0
  194.4450  175.5520  143.7910 C   0  0  1  0  0  3  0  0  0  0  0  0
  192.0900  175.5290  145.8970 C   0  0  0  0  0  2  0  0  0  0  0  0
  193.5650  176.7090  144.2430 C   0  0  0  0  0  2  0  0  0  0  0  0
  196.4150  174.8830  144.9650 C   0  0  2  0  0  3  0  0  0  0  0  0
  196.7840  175.4990  143.6970 N   0  0  0  0  0  2  0  0  0  0  0  0
  195.6300  176.0910  143.1300 N   0  0  0  0  0  2  0  0  0  0  0  0
  190.6130  177.7160  143.2110 C   0  0  0  0  0  2  0  0  0  0  0  0
  189.7600  177.0760  144.2840 C   0  0  2  0  0  0  0  0  0  0  0  0
  191.2050  177.4410  144.5980 C   0  0  1  0  0  3  0  0  0  0  0  0
  189.4690  175.7150  144.1350 O   0  0  0  0  0  1  0  0  0  0  0  0
  188.8130  177.8760  144.9430 O   0  0  0  0  0  0  0  0  0  0  0  0
  187.5440  177.3540  144.6350 C   0  0  1  0  0  3  0  0  0  0  0  0
  186.7070  177.1440  145.8970 C   0  0  0  0  0  2  0  0  0  0  0  0
  185.7510  178.1550  146.0350 O   0  0  0  0  0  0  0  0  0  0  0  0
  184.5810  177.4870  146.3990 C   0  0  0  0  0  1  0  0  0  0  0  0
  186.8400  178.1970  143.5670 C   0  0  0  0  0  2  0  0  0  0  0  0
  186.6420  177.3410  139.7840 C   0  0  0  0  0  1  0  0  0  0  0  0
  185.0750  178.2920  141.2920 O   0  0  0  0  0  0  0  0  0  0  0  0
  186.2330  177.8270  141.1260 C   0  0  0  0  0  0  0  0  0  0  0  0
  187.1600  177.7580  142.2100 N   0  0  0  0  0  2  0  0  0  0  0  0
  1 29  1  0  0  0  0
  2  1  1  6  0  0  0
  2  4  1  0  0  0  0
  3 10  1  6  0  0  0
  3  2  1  0  0  0  0
  3  4  1  0  0  0  0
  4 26  1  1  0  0  0
  5 10  1  0  0  0  0
  7  9  1  6  0  0  0
  7  5  1  0  0  0  0
  7  8  1  0  0  0  0
  8 14  1  1  0  0  0
  8  6  1  0  0  0  0
 10  6  1  1  0  0  0
 11  5  2  0  0  0  0
 13 12  1  0  0  0  0
 13  7  1  0  0  0  0
 15 14  1  0  0  0  0
 16 15  1  6  0  0  0
 16 22  1  0  0  0  0
 18 17  1  6  0  0  0
 18 16  1  0  0  0  0
 19 18  1  0  0  0  0
 20 21  1  0  0  0  0
 21 19  1  0  0  0  0
 22 25  1  0  0  0  0
 23 25  2  0  0  0  0
 25 24  1  0  0  0  0
 26 28  1  0  0  0  0
 28 27  1  0  0  0  0
 29 30  1  0  0  0  0
 30 31  2  0  0  0  0
 32 39  1  0  0  0  0
 32 34  2  0  0  0  0
 33 34  1  0  0  0  0
 33 37  1  0  0  0  0
 35 38  1  1  0  0  0
 35 44  1  0  0  0  0
 35 37  1  0  0  0  0
 36 38  1  1  0  0  0
 36 32  1  0  0  0  0
 39 30  1  6  0  0  0
 40 39  1  0  0  0  0
 41 40  1  0  0  0  0
 41 36  1  0  0  0  0
 42 43  1  0  0  0  0
 43 45  1  6  0  0  0
 43 44  1  0  0  0  0
 43 46  1  0  0  0  0
 44 42  1  6  0  0  0
 47 51  1  6  0  0  0
 47 46  1  0  0  0  0
 47 48  1  0  0  0  0
 48 49  1  0  0  0  0
 49 50  1  0  0  0  0
 52 54  1  0  0  0  0
 54 53  2  0  0  0  0
 54 55  1  0  0  0  0
 55 51  1  0  0  0  0
M  END
>  <MODEL>
5

>  <REMARK>
 VINA RESULT:      -5.0      2.268      7.132
  Name = 
  23 active torsions:
  status: ('A' for Active; 'I' for Inactive)
    1  A    between atoms: O_4  and  C_48
    2  A    between atoms: C_7  and  C_44
    3  A    between atoms: C_10  and  C_32
    4  A    between atoms: C_10  and  O_33
    5  A    between atoms: C_10  and  C_41
    6  A    between atoms: C_14  and  C_41
    7  A    between atoms: C_14  and  C_43
    8  A    between atoms: C_15  and  C_21
    9  A    between atoms: C_15  and  C_28
   10  A    between atoms: C_16  and  O_37
   11  A    between atoms: C_18  and  C_31
   12  A    between atoms: C_19  and  C_38
   13  A    between atoms: C_21  and  O_37
   14  A    between atoms: C_25  and  O_50
   15  A    between atoms: C_26  and  C_46
   16  A    between atoms: C_26  and  C_48
   17  A    between atoms: C_26  and  O_50
   18  A    between atoms: C_29  and  C_40
   19  A    between atoms: C_32  and  C_40
   20  A    between atoms: O_33  and  C_45
   21  A    between atoms: C_46  and  N_51
   22  A    between atoms: C_53  and  C_54
   23  A    between atoms: C_54  and  C_55
                            x       y       z     vdW  Elec       q    Type
                         _______ _______ _______ _____ _____    ______ ____

>  <TORSDO>
F 23

$$$$
=
 OpenBabel11062418373D

 55 59  0  0  1  0  0  0  0  0999 V2000
  194.0710  173.2290  145.7540 O   0  0  0  0  0  0  0  0  0  0  0  0
  194.3560  174.5990  145.6790 C   0  0  2  0  0  3  0  0  0  0  0  0
  193.1110  175.4890  145.7700 C   0  0  1  0  0  3  0  0  0  0  0  0
  193.7190  175.1650  144.4210 C   0  0  1  0  0  3  0  0  0  0  0  0
  190.9520  175.4410  146.9470 C   0  0  0  0  0  0  0  0  0  0  0  0
  191.0190  174.7530  144.6790 C   0  0  0  0  0  2  0  0  0  0  0  0
  189.8030  176.1590  146.3170 C   0  0  2  0  0  0  0  0  0  0  0  0
  189.9010  175.7840  144.8310 C   0  0  1  0  0  3  0  0  0  0  0  0
  189.9390  177.5370  146.5180 O   0  0  0  0  0  1  0  0  0  0  0  0
  191.8100  174.7210  145.9730 C   0  0  1  0  0  3  0  0  0  0  0  0
  191.1150  175.3110  148.2650 C   0  0  0  0  0  2  0  0  0  0  0  0
  187.3430  176.7150  146.6750 C   0  0  0  0  0  1  0  0  0  0  0  0
  188.4440  175.6740  146.8300 C   0  0  0  0  0  2  0  0  0  0  0  0
  190.1240  176.9670  143.8920 C   0  0  0  0  0  2  0  0  0  0  0  0
  189.2970  176.8230  142.6200 C   0  0  0  0  0  2  0  0  0  0  0  0
  187.8790  176.3630  142.9390 C   0  0  1  0  0  3  0  0  0  0  0  0
  186.8020  178.1960  141.6170 C   0  0  0  0  0  1  0  0  0  0  0  0
  186.9260  177.5550  142.9940 C   0  0  1  0  0  3  0  0  0  0  0  0
  185.5440  177.1270  143.4740 C   0  0  0  0  0  2  0  0  0  0  0  0
  185.6390  179.2820  144.5100 O   0  0  0  0  0  1  0  0  0  0  0  0
  184.7610  178.3160  144.0140 C   0  0  0  0  0  2  0  0  0  0  0  0
  187.4560  175.4490  141.9370 O   0  0  0  0  0  0  0  0  0  0  0  0
  188.7040  173.5510  142.2710 O   0  0  0  0  0  1  0  0  0  0  0  0
  188.6720  174.3800  140.1360 O   0  0  0  0  0  0  0  0  0  0  0  0
  188.2840  174.4280  141.4710 C   0  0  0  0  0  0  0  0  0  0  0  0
  194.5140  176.3660  143.9330 C   0  0  0  0  0  2  0  0  0  0  0  0
  195.5680  174.8580  142.2450 C   0  0  0  0  0  1  0  0  0  0  0  0
  195.8190  175.9330  143.2870 C   0  0  0  0  0  2  0  0  0  0  0  0
  195.2640  172.5960  145.3870 C   0  0  0  0  0  2  0  0  0  0  0  0
  194.9950  171.2330  144.8380 C   0  0  0  0  0  0  0  0  0  0  0  0
  194.6480  170.3340  145.5890 O   0  0  0  0  0  0  0  0  0  0  0  0
  193.9950  171.0830  142.5720 C   0  0  0  0  0  0  0  0  0  0  0  0
  191.9320  172.2080  141.7260 C   0  0  0  0  0  2  0  0  0  0  0  0
  193.1730  172.1450  142.5680 C   0  0  0  0  0  3  0  0  0  0  0  0
  192.5300  170.7180  139.7790 C   0  0  2  0  0  3  0  0  0  0  0  0
  193.8660  169.8800  141.7380 C   0  0  1  0  0  3  0  0  0  0  0  0
  192.2590  172.1490  140.2380 C   0  0  0  0  0  2  0  0  0  0  0  0
  193.8970  170.2460  140.2610 C   0  0  0  0  0  2  0  0  0  0  0  0
  195.2180  170.9720  143.3770 C   0  0  2  0  0  3  0  0  0  0  0  0
  195.6960  169.6110  143.1740 N   0  0  0  0  0  2  0  0  0  0  0  0
  195.0370  169.0640  142.0470 N   0  0  0  0  0  2  0  0  0  0  0  0
  191.6100  169.5220  137.7690 C   0  0  0  0  0  2  0  0  0  0  0  0
  191.0850  170.9400  137.6980 C   0  0  2  0  0  0  0  0  0  0  0  0
  192.4820  170.6870  138.2530 C   0  0  1  0  0  3  0  0  0  0  0  0
  190.0940  171.2950  138.6190 O   0  0  0  0  0  1  0  0  0  0  0  0
  191.0750  171.5820  136.4490 O   0  0  0  0  0  0  0  0  0  0  0  0
  190.8170  172.9430  136.6850 C   0  0  1  0  0  3  0  0  0  0  0  0
  192.0710  173.7930  136.4750 C   0  0  0  0  0  2  0  0  0  0  0  0
  191.7600  175.1560  136.5090 O   0  0  0  0  0  0  0  0  0  0  0  0
  192.9970  175.7990  136.5610 C   0  0  0  0  0  1  0  0  0  0  0  0
  189.6080  173.4270  135.8790 C   0  0  0  0  0  2  0  0  0  0  0  0
  186.9770  175.8690  137.3610 C   0  0  0  0  0  1  0  0  0  0  0  0
  188.3260  175.9650  135.4110 O   0  0  0  0  0  0  0  0  0  0  0  0
  187.9950  175.3130  136.4360 C   0  0  0  0  0  0  0  0  0  0  0  0
  188.5860  174.0440  136.7230 N   0  0  0  0  0  2  0  0  0  0  0  0
  2  1  1  6  0  0  0
  2  3  1  0  0  0  0
  3 10  1  6  0  0  0
  4 26  1  1  0  0  0
  4  2  1  0  0  0  0
  4  3  1  0  0  0  0
  5 11  2  0  0  0  0
  6  8  1  0  0  0  0
  7  9  1  1  0  0  0
  7 13  1  0  0  0  0
  7  5  1  0  0  0  0
  8 14  1  6  0  0  0
  8  7  1  0  0  0  0
 10  6  1  6  0  0  0
 10  5  1  0  0  0  0
 12 13  1  0  0  0  0
 15 14  1  0  0  0  0
 16 15  1  6  0  0  0
 16 18  1  0  0  0  0
 18 17  1  6  0  0  0
 18 19  1  0  0  0  0
 19 21  1  0  0  0  0
 21 20  1  0  0  0  0
 22 16  1  0  0  0  0
 24 25  2  0  0  0  0
 25 22  1  0  0  0  0
 25 23  1  0  0  0  0
 27 28  1  0  0  0  0
 28 26  1  0  0  0  0
 29  1  1  0  0  0  0
 30 29  1  0  0  0  0
 30 31  2  0  0  0  0
 32 39  1  0  0  0  0
 33 34  1  0  0  0  0
 34 32  2  0  0  0  0
 35 37  1  6  0  0  0
 35 38  1  0  0  0  0
 36 38  1  6  0  0  0
 36 41  1  0  0  0  0
 36 32  1  0  0  0  0
 37 33  1  0  0  0  0
 39 30  1  1  0  0  0
 40 39  1  0  0  0  0
 41 40  1  0  0  0  0
 43 42  1  0  0  0  0
 43 44  1  0  0  0  0
 43 45  1  1  0  0  0
 44 42  1  1  0  0  0
 44 35  1  0  0  0  0
 46 47  1  0  0  0  0
 46 43  1  0  0  0  0
 47 51  1  6  0  0  0
 48 49  1  0  0  0  0
 48 47  1  0  0  0  0
 49 50  1  0  0  0  0
 51 55  1  0  0  0  0
 53 54  2  0  0  0  0
 54 55  1  0  0  0  0
 54 52  1  0  0  0  0
M  END
>  <MODEL>
6

>  <REMARK>
 VINA RESULT:      -5.0      2.107      3.737
  Name = 
  23 active torsions:
  status: ('A' for Active; 'I' for Inactive)
    1  A    between atoms: O_4  and  C_48
    2  A    between atoms: C_7  and  C_44
    3  A    between atoms: C_10  and  C_32
    4  A    between atoms: C_10  and  O_33
    5  A    between atoms: C_10  and  C_41
    6  A    between atoms: C_14  and  C_41
    7  A    between atoms: C_14  and  C_43
    8  A    between atoms: C_15  and  C_21
    9  A    between atoms: C_15  and  C_28
   10  A    between atoms: C_16  and  O_37
   11  A    between atoms: C_18  and  C_31
   12  A    between atoms: C_19  and  C_38
   13  A    between atoms: C_21  and  O_37
   14  A    between atoms: C_25  and  O_50
   15  A    between atoms: C_26  and  C_46
   16  A    between atoms: C_26  and  C_48
   17  A    between atoms: C_26  and  O_50
   18  A    between atoms: C_29  and  C_40
   19  A    between atoms: C_32  and  C_40
   20  A    between atoms: O_33  and  C_45
   21  A    between atoms: C_46  and  N_51
   22  A    between atoms: C_53  and  C_54
   23  A    between atoms: C_54  and  C_55
                            x       y       z     vdW  Elec       q    Type
                         _______ _______ _______ _____ _____    ______ ____

>  <TORSDO>
F 23

$$$$
=
 OpenBabel11062418373D

 55 59  0  0  1  0  0  0  0  0999 V2000
  193.5390  173.3890  145.6660 O   0  0  0  0  0  0  0  0  0  0  0  0
  193.8800  174.7080  145.3380 C   0  0  2  0  0  3  0  0  0  0  0  0
  192.6720  175.6480  145.2480 C   0  0  1  0  0  3  0  0  0  0  0  0
  193.2700  175.0520  143.9890 C   0  0  1  0  0  3  0  0  0  0  0  0
  190.7780  175.5800  146.8150 C   0  0  0  0  0  0  0  0  0  0  0  0
  190.3370  175.3440  144.4970 C   0  0  0  0  0  2  0  0  0  0  0  0
  189.6380  176.5150  146.5660 C   0  0  2  0  0  0  0  0  0  0  0  0
  189.4130  176.4290  145.0490 C   0  0  1  0  0  3  0  0  0  0  0  0
  189.9920  177.8070  146.9690 O   0  0  0  0  0  1  0  0  0  0  0  0
  191.3410  174.9850  145.5770 C   0  0  1  0  0  3  0  0  0  0  0  0
  191.1610  175.1810  148.0290 C   0  0  0  0  0  2  0  0  0  0  0  0
  187.0940  176.4360  146.4640 C   0  0  0  0  0  1  0  0  0  0  0  0
  188.3440  176.0720  147.2550 C   0  0  0  0  0  2  0  0  0  0  0  0
  189.6150  177.7450  144.3020 C   0  0  0  0  0  2  0  0  0  0  0  0
  189.4020  177.5650  142.8040 C   0  0  0  0  0  2  0  0  0  0  0  0
  187.9730  177.9180  142.4090 C   0  0  1  0  0  3  0  0  0  0  0  0
  186.8250  177.3620  140.2550 C   0  0  0  0  0  1  0  0  0  0  0  0
  187.3560  176.8030  141.5690 C   0  0  1  0  0  3  0  0  0  0  0  0
  188.3790  175.7120  141.2740 C   0  0  0  0  0  2  0  0  0  0  0  0
  187.1510  174.3020  142.7680 O   0  0  0  0  0  1  0  0  0  0  0  0
  187.7930  174.3300  141.5280 C   0  0  0  0  0  2  0  0  0  0  0  0
  187.2070  178.1190  143.5890 O   0  0  0  0  0  0  0  0  0  0  0  0
  185.4850  179.4360  142.8320 O   0  0  0  0  0  0  0  0  0  0  0  0
  184.9160  177.7640  144.2910 O   0  0  0  0  0  1  0  0  0  0  0  0
  185.8560  178.4650  143.5420 C   0  0  0  0  0  0  0  0  0  0  0  0
  194.1160  176.1080  143.2930 C   0  0  0  0  0  2  0  0  0  0  0  0
  196.1930  174.9730  142.4970 C   0  0  0  0  0  1  0  0  0  0  0  0
  195.5960  175.8830  143.5550 C   0  0  0  0  0  2  0  0  0  0  0  0
  194.4390  172.5980  144.9430 C   0  0  0  0  0  2  0  0  0  0  0  0
  193.7460  171.4170  144.3440 C   0  0  0  0  0  0  0  0  0  0  0  0
  193.0640  170.6910  145.0510 O   0  0  0  0  0  0  0  0  0  0  0  0
  192.7570  171.3440  142.0700 C   0  0  0  0  0  0  0  0  0  0  0  0
  190.8510  172.6890  141.1790 C   0  0  0  0  0  2  0  0  0  0  0  0
  192.0670  172.4960  142.0370 C   0  0  0  0  0  3  0  0  0  0  0  0
  191.2860  171.1020  139.2660 C   0  0  2  0  0  3  0  0  0  0  0  0
  192.4940  170.1490  141.2550 C   0  0  1  0  0  3  0  0  0  0  0  0
  191.1830  172.5630  139.6960 C   0  0  0  0  0  2  0  0  0  0  0  0
  192.5830  170.4810  139.7720 C   0  0  0  0  0  2  0  0  0  0  0  0
  193.9510  171.1040  142.8900 C   0  0  2  0  0  3  0  0  0  0  0  0
  194.2660  169.6930  142.7180 N   0  0  0  0  0  2  0  0  0  0  0  0
  193.5570  169.2060  141.5930 N   0  0  0  0  0  2  0  0  0  0  0  0
  190.0540  170.2160  137.2630 C   0  0  0  0  0  2  0  0  0  0  0  0
  190.0180  171.7250  137.1520 C   0  0  2  0  0  0  0  0  0  0  0  0
  191.2500  171.0480  137.7400 C   0  0  1  0  0  3  0  0  0  0  0  0
  189.1840  172.4060  138.0440 O   0  0  0  0  0  1  0  0  0  0  0  0
  190.2320  172.3020  135.8890 O   0  0  0  0  0  0  0  0  0  0  0  0
  191.5890  172.6630  135.8240 C   0  0  1  0  0  3  0  0  0  0  0  0
  192.2510  172.1190  134.5570 C   0  0  0  0  0  2  0  0  0  0  0  0
  193.6240  172.3800  134.5620 O   0  0  0  0  0  0  0  0  0  0  0  0
  194.1660  171.3970  135.3920 C   0  0  0  0  0  1  0  0  0  0  0  0
  191.7730  174.1720  136.0110 C   0  0  0  0  0  2  0  0  0  0  0  0
  194.0550  175.0750  139.0200 C   0  0  0  0  0  1  0  0  0  0  0  0
  194.5160  174.6890  136.7240 O   0  0  0  0  0  0  0  0  0  0  0  0
  193.6450  174.7510  137.6310 C   0  0  0  0  0  0  0  0  0  0  0  0
  192.2660  174.5140  137.3430 N   0  0  0  0  0  2  0  0  0  0  0  0
  2  1  1  1  0  0  0
  3  2  1  0  0  0  0
  3 10  1  1  0  0  0
  4 26  1  6  0  0  0
  4  3  1  0  0  0  0
  4  2  1  0  0  0  0
  5 11  2  0  0  0  0
  6  8  1  0  0  0  0
  7  5  1  0  0  0  0
  7  9  1  1  0  0  0
  7 13  1  0  0  0  0
  8 14  1  6  0  0  0
  8  7  1  0  0  0  0
 10  6  1  6  0  0  0
 10  5  1  0  0  0  0
 12 13  1  0  0  0  0
 15 14  1  0  0  0  0
 16 15  1  1  0  0  0
 16 22  1  0  0  0  0
 18 17  1  6  0  0  0
 18 16  1  0  0  0  0
 19 21  1  0  0  0  0
 19 18  1  0  0  0  0
 21 20  1  0  0  0  0
 23 25  2  0  0  0  0
 25 22  1  0  0  0  0
 25 24  1  0  0  0  0
 26 28  1  0  0  0  0
 27 28  1  0  0  0  0
 29  1  1  0  0  0  0
 30 29  1  0  0  0  0
 30 31  2  0  0  0  0
 32 39  1  0  0  0  0
 33 34  1  0  0  0  0
 34 32  2  0  0  0  0
 35 37  1  6  0  0  0
 35 38  1  0  0  0  0
 36 38  1  6  0  0  0
 36 41  1  0  0  0  0
 36 32  1  0  0  0  0
 37 33  1  0  0  0  0
 39 30  1  1  0  0  0
 40 39  1  0  0  0  0
 41 40  1  0  0  0  0
 43 42  1  0  0  0  0
 43 44  1  0  0  0  0
 43 45  1  1  0  0  0
 44 42  1  1  0  0  0
 44 35  1  0  0  0  0
 46 43  1  0  0  0  0
 47 48  1  6  0  0  0
 47 46  1  0  0  0  0
 47 51  1  0  0  0  0
 48 49  1  0  0  0  0
 49 50  1  0  0  0  0
 51 55  1  0  0  0  0
 53 54  2  0  0  0  0
 54 52  1  0  0  0  0
 55 54  1  0  0  0  0
M  END
>  <MODEL>
7

>  <REMARK>
 VINA RESULT:      -4.4      2.101      3.985
  Name = 
  23 active torsions:
  status: ('A' for Active; 'I' for Inactive)
    1  A    between atoms: O_4  and  C_48
    2  A    between atoms: C_7  and  C_44
    3  A    between atoms: C_10  and  C_32
    4  A    between atoms: C_10  and  O_33
    5  A    between atoms: C_10  and  C_41
    6  A    between atoms: C_14  and  C_41
    7  A    between atoms: C_14  and  C_43
    8  A    between atoms: C_15  and  C_21
    9  A    between atoms: C_15  and  C_28
   10  A    between atoms: C_16  and  O_37
   11  A    between atoms: C_18  and  C_31
   12  A    between atoms: C_19  and  C_38
   13  A    between atoms: C_21  and  O_37
   14  A    between atoms: C_25  and  O_50
   15  A    between atoms: C_26  and  C_46
   16  A    between atoms: C_26  and  C_48
   17  A    between atoms: C_26  and  O_50
   18  A    between atoms: C_29  and  C_40
   19  A    between atoms: C_32  and  C_40
   20  A    between atoms: O_33  and  C_45
   21  A    between atoms: C_46  and  N_51
   22  A    between atoms: C_53  and  C_54
   23  A    between atoms: C_54  and  C_55
                            x       y       z     vdW  Elec       q    Type
                         _______ _______ _______ _____ _____    ______ ____

>  <TORSDO>
F 23

$$$$
=
 OpenBabel11062418373D

 55 59  0  0  1  0  0  0  0  0999 V2000
  189.6190  176.1000  145.4200 O   0  0  0  0  0  0  0  0  0  0  0  0
  190.5260  176.7050  146.3000 C   0  0  2  0  0  3  0  0  0  0  0  0
  191.9770  176.2610  146.0820 C   0  0  1  0  0  3  0  0  0  0  0  0
  191.1450  175.6310  147.1800 C   0  0  1  0  0  3  0  0  0  0  0  0
  192.9770  175.9310  143.8590 C   0  0  0  0  0  0  0  0  0  0  0  0
  193.0160  174.1260  145.3960 C   0  0  0  0  0  2  0  0  0  0  0  0
  194.3850  175.4350  143.7990 C   0  0  2  0  0  0  0  0  0  0  0  0
  194.4330  174.3260  144.8590 C   0  0  1  0  0  3  0  0  0  0  0  0
  195.2670  176.4800  144.0960 O   0  0  0  0  0  1  0  0  0  0  0  0
  192.1650  175.2900  144.9230 C   0  0  1  0  0  3  0  0  0  0  0  0
  192.4370  176.7490  142.9530 C   0  0  0  0  0  2  0  0  0  0  0  0
  193.8390  173.6270  142.0890 C   0  0  0  0  0  1  0  0  0  0  0  0
  194.7370  174.8040  142.4480 C   0  0  0  0  0  2  0  0  0  0  0  0
  195.4140  174.5820  146.0010 C   0  0  0  0  0  2  0  0  0  0  0  0
  196.6930  173.7740  145.8180 C   0  0  0  0  0  2  0  0  0  0  0  0
  196.4320  172.5120  145.0050 C   0  0  1  0  0  3  0  0  0  0  0  0
  197.9380  170.6540  144.2690 C   0  0  0  0  0  1  0  0  0  0  0  0
  197.6570  172.1470  144.1690 C   0  0  1  0  0  3  0  0  0  0  0  0
  197.4500  172.5230  142.7060 C   0  0  0  0  0  2  0  0  0  0  0  0
  195.8270  171.0350  141.7670 O   0  0  0  0  0  1  0  0  0  0  0  0
  197.1980  171.2850  141.8550 C   0  0  0  0  0  2  0  0  0  0  0  0
  196.1170  171.4500  145.8940 O   0  0  0  0  0  0  0  0  0  0  0  0
  194.6140  169.9010  146.6790 O   0  0  0  0  0  1  0  0  0  0  0  0
  194.1580  170.8050  144.6240 O   0  0  0  0  0  0  0  0  0  0  0  0
  194.9480  170.6990  145.7640 C   0  0  0  0  0  0  0  0  0  0  0  0
  191.5520  176.2290  148.5180 C   0  0  0  0  0  2  0  0  0  0  0  0
  191.5180  178.2840  149.9350 C   0  0  0  0  0  1  0  0  0  0  0  0
  190.9250  177.5980  148.7190 C   0  0  0  0  0  2  0  0  0  0  0  0
  188.9580  177.1670  144.8010 C   0  0  0  0  0  2  0  0  0  0  0  0
  187.5140  176.8460  144.5880 C   0  0  0  0  0  0  0  0  0  0  0  0
  186.7510  176.8230  145.5420 O   0  0  0  0  0  0  0  0  0  0  0  0
  187.9110  175.5410  142.5160 C   0  0  0  0  0  0  0  0  0  0  0  0
  189.2030  173.4200  142.2600 C   0  0  0  0  0  2  0  0  0  0  0  0
  188.3040  174.3570  143.0120 C   0  0  0  0  0  3  0  0  0  0  0  0
  188.6720  173.9810  139.8580 C   0  0  2  0  0  3  0  0  0  0  0  0
  188.2220  176.0720  141.1810 C   0  0  1  0  0  3  0  0  0  0  0  0
  188.5560  172.9380  140.9660 C   0  0  0  0  0  2  0  0  0  0  0  0
  187.7050  175.1340  140.0980 C   0  0  0  0  0  2  0  0  0  0  0  0
  187.0350  176.4930  143.2100 C   0  0  2  0  0  3  0  0  0  0  0  0
  187.0030  177.6810  142.3680 N   0  0  0  0  0  2  0  0  0  0  0  0
  187.5050  177.3410  141.0880 N   0  0  0  0  0  2  0  0  0  0  0  0
  188.6590  174.2470  137.3580 C   0  0  0  0  0  2  0  0  0  0  0  0
  189.5800  173.0840  137.6580 C   0  0  2  0  0  0  0  0  0  0  0  0
  188.3470  173.3050  138.5270 C   0  0  1  0  0  3  0  0  0  0  0  0
  190.8190  173.3880  138.2290 O   0  0  0  0  0  1  0  0  0  0  0  0
  189.5020  171.9480  136.8360 O   0  0  0  0  0  0  0  0  0  0  0  0
  190.6700  171.1980  137.0540 C   0  0  1  0  0  3  0  0  0  0  0  0
  190.3850  169.9530  137.8950 C   0  0  0  0  0  2  0  0  0  0  0  0
  190.0960  170.3020  139.2180 O   0  0  0  0  0  0  0  0  0  0  0  0
  191.3400  170.3530  139.8480 C   0  0  0  0  0  1  0  0  0  0  0  0
  191.3910  170.8950  135.7370 C   0  0  0  0  0  2  0  0  0  0  0  0
  195.2370  171.3040  136.0840 C   0  0  0  0  0  1  0  0  0  0  0  0
  193.4910  172.8690  135.7170 O   0  0  0  0  0  0  0  0  0  0  0  0
  193.8090  171.6640  135.8980 C   0  0  0  0  0  0  0  0  0  0  0  0
  192.8160  170.6370  135.9270 N   0  0  0  0  0  2  0  0  0  0  0  0
  2  1  1  6  0  0  0
  2  4  1  0  0  0  0
  3 10  1  6  0  0  0
  3  2  1  0  0  0  0
  3  4  1  0  0  0  0
  4 26  1  1  0  0  0
  5 10  1  0  0  0  0
  7  5  1  0  0  0  0
  7  9  1  1  0  0  0
  7  8  1  0  0  0  0
  8  6  1  0  0  0  0
  8 14  1  1  0  0  0
 10  6  1  1  0  0  0
 11  5  2  0  0  0  0
 12 13  1  0  0  0  0
 13  7  1  0  0  0  0
 15 14  1  0  0  0  0
 16 15  1  1  0  0  0
 16 22  1  0  0  0  0
 18 17  1  6  0  0  0
 18 16  1  0  0  0  0
 19 18  1  0  0  0  0
 20 21  1  0  0  0  0
 21 19  1  0  0  0  0
 24 25  2  0  0  0  0
 25 22  1  0  0  0  0
 25 23  1  0  0  0  0
 26 28  1  0  0  0  0
 28 27  1  0  0  0  0
 29  1  1  0  0  0  0
 30 29  1  0  0  0  0
 30 31  2  0  0  0  0
 32 34  2  0  0  0  0
 32 39  1  0  0  0  0
 33 34  1  0  0  0  0
 35 38  1  1  0  0  0
 35 37  1  0  0  0  0
 36 38  1  6  0  0  0
 36 32  1  0  0  0  0
 37 33  1  0  0  0  0
 39 30  1  1  0  0  0
 40 39  1  0  0  0  0
 41 36  1  0  0  0  0
 41 40  1  0  0  0  0
 42 43  1  0  0  0  0
 43 45  1  1  0  0  0
 43 44  1  0  0  0  0
 44 42  1  6  0  0  0
 44 35  1  0  0  0  0
 46 47  1  0  0  0  0
 46 43  1  0  0  0  0
 47 51  1  6  0  0  0
 47 48  1  0  0  0  0
 48 49  1  0  0  0  0
 49 50  1  0  0  0  0
 51 55  1  0  0  0  0
 53 54  2  0  0  0  0
 54 55  1  0  0  0  0
 54 52  1  0  0  0  0
M  END
>  <MODEL>
8

>  <REMARK>
 VINA RESULT:      -4.4      2.699      7.445
  Name = 
  23 active torsions:
  status: ('A' for Active; 'I' for Inactive)
    1  A    between atoms: O_4  and  C_48
    2  A    between atoms: C_7  and  C_44
    3  A    between atoms: C_10  and  C_32
    4  A    between atoms: C_10  and  O_33
    5  A    between atoms: C_10  and  C_41
    6  A    between atoms: C_14  and  C_41
    7  A    between atoms: C_14  and  C_43
    8  A    between atoms: C_15  and  C_21
    9  A    between atoms: C_15  and  C_28
   10  A    between atoms: C_16  and  O_37
   11  A    between atoms: C_18  and  C_31
   12  A    between atoms: C_19  and  C_38
   13  A    between atoms: C_21  and  O_37
   14  A    between atoms: C_25  and  O_50
   15  A    between atoms: C_26  and  C_46
   16  A    between atoms: C_26  and  C_48
   17  A    between atoms: C_26  and  O_50
   18  A    between atoms: C_29  and  C_40
   19  A    between atoms: C_32  and  C_40
   20  A    between atoms: O_33  and  C_45
   21  A    between atoms: C_46  and  N_51
   22  A    between atoms: C_53  and  C_54
   23  A    between atoms: C_54  and  C_55
                            x       y       z     vdW  Elec       q    Type
                         _______ _______ _______ _____ _____    ______ ____

>  <TORSDO>
F 23

$$$$
=
 OpenBabel11062418373D

 55 59  0  0  1  0  0  0  0  0999 V2000
  193.9470  168.9070  140.9970 O   0  0  0  0  0  0  0  0  0  0  0  0
  194.8440  169.9750  140.8550 C   0  0  2  0  0  3  0  0  0  0  0  0
  195.5200  170.3830  142.1690 C   0  0  1  0  0  3  0  0  0  0  0  0
  194.3260  171.1600  141.6530 C   0  0  1  0  0  3  0  0  0  0  0  0
  196.2140  169.5520  144.3770 C   0  0  0  0  0  0  0  0  0  0  0  0
  193.9470  170.1720  144.0640 C   0  0  0  0  0  2  0  0  0  0  0  0
  195.9030  170.4020  145.5670 C   0  0  2  0  0  0  0  0  0  0  0  0
  194.4640  170.8770  145.3170 C   0  0  1  0  0  3  0  0  0  0  0  0
  196.8020  171.4730  145.6300 O   0  0  0  0  0  1  0  0  0  0  0  0
  195.1280  169.5250  143.3650 C   0  0  1  0  0  3  0  0  0  0  0  0
  197.2840  168.7610  144.2880 C   0  0  0  0  0  2  0  0  0  0  0  0
  194.5810  168.9370  147.1770 C   0  0  0  0  0  1  0  0  0  0  0  0
  195.9130  169.6150  146.8800 C   0  0  0  0  0  2  0  0  0  0  0  0
  194.3070  172.3900  145.1920 C   0  0  0  0  0  2  0  0  0  0  0  0
  192.8940  172.7630  144.7610 C   0  0  0  0  0  2  0  0  0  0  0  0
  192.6510  174.2590  144.9180 C   0  0  1  0  0  3  0  0  0  0  0  0
  191.9240  175.2220  147.1110 C   0  0  0  0  0  1  0  0  0  0  0  0
  191.4630  174.5180  145.8420 C   0  0  1  0  0  3  0  0  0  0  0  0
  190.4090  175.3730  145.1470 C   0  0  0  0  0  2  0  0  0  0  0  0
  189.9980  177.7270  145.2830 O   0  0  0  0  0  1  0  0  0  0  0  0
  189.9910  176.5440  146.0260 C   0  0  0  0  0  2  0  0  0  0  0  0
  193.8220  174.8610  145.4540 O   0  0  0  0  0  0  0  0  0  0  0  0
  193.5780  177.0230  144.7200 O   0  0  0  0  0  1  0  0  0  0  0  0
  195.6990  176.1610  144.6470 O   0  0  0  0  0  0  0  0  0  0  0  0
  194.3440  176.0480  144.9410 C   0  0  0  0  0  0  0  0  0  0  0  0
  194.8100  172.4580  141.0250 C   0  0  0  0  0  2  0  0  0  0  0  0
  195.0460  174.8800  141.5820 C   0  0  0  0  0  1  0  0  0  0  0  0
  195.2210  173.4610  142.0880 C   0  0  0  0  0  2  0  0  0  0  0  0
  193.9300  168.2860  139.7440 C   0  0  0  0  0  2  0  0  0  0  0  0
  193.0870  169.0570  138.7800 C   0  0  0  0  0  0  0  0  0  0  0  0
  193.5710  169.4450  137.7270 O   0  0  0  0  0  0  0  0  0  0  0  0
  191.4890  170.8100  139.5040 C   0  0  0  0  0  0  0  0  0  0  0  0
  191.6490  173.2770  139.1480 C   0  0  0  0  0  2  0  0  0  0  0  0
  191.8600  171.8490  138.7380 C   0  0  0  0  0  3  0  0  0  0  0  0
  189.6180  173.1120  140.6370 C   0  0  2  0  0  3  0  0  0  0  0  0
  190.7800  170.8870  140.7900 C   0  0  1  0  0  3  0  0  0  0  0  0
  190.1670  173.6050  139.3010 C   0  0  0  0  0  2  0  0  0  0  0  0
  189.4440  171.5980  140.6240 C   0  0  0  0  0  2  0  0  0  0  0  0
  191.6730  169.3980  139.1490 C   0  0  2  0  0  3  0  0  0  0  0  0
  191.2630  168.6430  140.3260 N   0  0  0  0  0  2  0  0  0  0  0  0
  190.5330  169.5020  141.1820 N   0  0  0  0  0  2  0  0  0  0  0  0
  188.0040  173.9330  142.3800 C   0  0  0  0  0  2  0  0  0  0  0  0
  188.3930  175.1420  141.5560 C   0  0  2  0  0  0  0  0  0  0  0  0
  188.2670  173.7840  140.8770 C   0  0  1  0  0  3  0  0  0  0  0  0
  189.6870  175.6410  141.7370 O   0  0  0  0  0  1  0  0  0  0  0  0
  187.3860  176.0530  141.2000 O   0  0  0  0  0  0  0  0  0  0  0  0
  187.3500  177.0410  142.1990 C   0  0  1  0  0  3  0  0  0  0  0  0
  186.5960  178.2860  141.7270 C   0  0  0  0  0  2  0  0  0  0  0  0
  185.9560  178.0460  140.5070 O   0  0  0  0  0  0  0  0  0  0  0  0
  184.6720  178.5650  140.6760 C   0  0  0  0  0  1  0  0  0  0  0  0
  186.8280  176.4760  143.5230 C   0  0  0  0  0  2  0  0  0  0  0  0
  184.4160  178.5720  145.7290 C   0  0  0  0  0  1  0  0  0  0  0  0
  186.6540  177.8500  146.0500 O   0  0  0  0  0  0  0  0  0  0  0  0
  185.6460  177.8640  145.2950 C   0  0  0  0  0  0  0  0  0  0  0  0
  185.6690  177.2090  144.0260 N   0  0  0  0  0  2  0  0  0  0  0  0
  2  1  1  1  0  0  0
  2  4  1  0  0  0  0
  2  3  1  0  0  0  0
  3 10  1  1  0  0  0
  4 26  1  6  0  0  0
  4  3  1  0  0  0  0
  5  7  1  0  0  0  0
  6  8  1  0  0  0  0
  7  9  1  1  0  0  0
  7 13  1  0  0  0  0
  8 14  1  6  0  0  0
  8  7  1  0  0  0  0
 10  6  1  1  0  0  0
 10  5  1  0  0  0  0
 11  5  2  0  0  0  0
 13 12  1  0  0  0  0
 15 14  1  0  0  0  0
 16 15  1  1  0  0  0
 16 22  1  0  0  0  0
 16 18  1  0  0  0  0
 18 17  1  1  0  0  0
 19 18  1  0  0  0  0
 19 21  1  0  0  0  0
 20 21  1  0  0  0  0
 23 25  1  0  0  0  0
 24 25  2  0  0  0  0
 25 22  1  0  0  0  0
 26 28  1  0  0  0  0
 27 28  1  0  0  0  0
 29  1  1  0  0  0  0
 30 29  1  0  0  0  0
 31 30  2  0  0  0  0
 32 36  1  0  0  0  0
 33 37  1  0  0  0  0
 34 33  1  0  0  0  0
 34 32  2  0  0  0  0
 35 37  1  6  0  0  0
 35 44  1  0  0  0  0
 36 38  1  6  0  0  0
 36 41  1  0  0  0  0
 38 35  1  0  0  0  0
 39 30  1  1  0  0  0
 39 32  1  0  0  0  0
 39 40  1  0  0  0  0
 40 41  1  0  0  0  0
 43 45  1  1  0  0  0
 43 42  1  0  0  0  0
 44 43  1  0  0  0  0
 44 42  1  1  0  0  0
 46 43  1  0  0  0  0
 46 47  1  0  0  0  0
 47 48  1  6  0  0  0
 47 51  1  0  0  0  0
 49 50  1  0  0  0  0
 49 48  1  0  0  0  0
 51 55  1  0  0  0  0
 54 52  1  0  0  0  0
 54 53  2  0  0  0  0
 55 54  1  0  0  0  0
M  END
>  <MODEL>
9

>  <REMARK>
 VINA RESULT:      -4.3      2.901      7.579
  Name = 
  23 active torsions:
  status: ('A' for Active; 'I' for Inactive)
    1  A    between atoms: O_4  and  C_48
    2  A    between atoms: C_7  and  C_44
    3  A    between atoms: C_10  and  C_32
    4  A    between atoms: C_10  and  O_33
    5  A    between atoms: C_10  and  C_41
    6  A    between atoms: C_14  and  C_41
    7  A    between atoms: C_14  and  C_43
    8  A    between atoms: C_15  and  C_21
    9  A    between atoms: C_15  and  C_28
   10  A    between atoms: C_16  and  O_37
   11  A    between atoms: C_18  and  C_31
   12  A    between atoms: C_19  and  C_38
   13  A    between atoms: C_21  and  O_37
   14  A    between atoms: C_25  and  O_50
   15  A    between atoms: C_26  and  C_46
   16  A    between atoms: C_26  and  C_48
   17  A    between atoms: C_26  and  O_50
   18  A    between atoms: C_29  and  C_40
   19  A    between atoms: C_32  and  C_40
   20  A    between atoms: O_33  and  C_45
   21  A    between atoms: C_46  and  N_51
   22  A    between atoms: C_53  and  C_54
   23  A    between atoms: C_54  and  C_55
                            x       y       z     vdW  Elec       q    Type
                         _______ _______ _______ _____ _____    ______ ____

>  <TORSDO>
F 23

$$$$
