=
 OpenBabel11072409293D

 40 44  0  0  1  0  0  0  0  0999 V2000
  188.2990  176.1160  146.0050 C   0  0  0  0  0  3  0  0  0  0  0  0
  190.5940  175.4850  145.3900 N   0  0  0  0  0  0  0  0  0  0  0  0
  188.4860  177.8370  143.7940 N   0  0  0  0  0  0  0  0  0  0  0  0
  190.7580  176.9060  143.5610 C   0  0  0  0  0  3  0  0  0  0  0  0
  191.3750  175.9390  144.3700 C   0  0  0  0  0  0  0  0  0  0  0  0
  189.4550  176.1710  145.2500 C   0  0  0  0  0  0  0  0  0  0  0  0
  187.2660  176.9290  145.6280 N   0  0  0  0  0  2  0  0  0  0  0  0
  187.3390  177.7730  144.5430 C   0  0  0  0  0  0  0  0  0  0  0  0
  189.5240  177.0470  144.1430 C   0  0  0  0  0  0  0  0  0  0  0  0
  195.8610  174.6100  146.2490 C   0  0  0  0  0  2  0  0  0  0  0  0
  195.3000  173.8910  143.1100 C   0  0  0  0  0  2  0  0  0  0  0  0
  193.3890  174.9380  145.4150 C   0  0  0  0  0  2  0  0  0  0  0  0
  195.1240  173.5700  144.5140 N   0  0  2  0  0  0  0  0  0  0  0  0
  194.8630  174.8430  145.1400 C   0  0  2  0  0  3  0  0  0  0  0  0
  197.6260  173.6880  144.7300 C   0  0  0  0  0  1  0  0  0  0  0  0
  193.9370  173.8150  142.4700 C   0  0  0  0  0  3  0  0  0  0  0  0
  192.8000  174.4190  142.9130 C   0  0  0  0  0  0  0  0  0  0  0  0
  196.2820  173.4140  145.4060 C   0  0  1  0  0  3  0  0  0  0  0  0
  192.7490  175.4060  144.1000 C   0  0  1  0  0  3  0  0  0  0  0  0
  191.5390  174.1670  142.1270 C   0  0  1  0  0  3  0  0  0  0  0  0
  191.7920  174.2180  140.7530 O   0  0  0  0  0  1  0  0  0  0  0  0
  190.9090  172.8340  142.5060 C   0  0  0  0  0  2  0  0  0  0  0  0
  189.4350  172.9860  142.6540 C   0  0  0  0  0  0  0  0  0  0  0  0
  188.6640  171.9050  143.0590 O   0  0  0  0  0  1  0  0  0  0  0  0
  188.8940  174.1020  142.4470 O   0  0  0  0  0  0  0  0  0  0  0  0
  186.1740  178.6310  144.2190 C   0  0  0  0  0  0  0  0  0  0  0  0
  185.9240  179.6020  144.9840 O   0  0  0  0  0  0  0  0  0  0  0  0
  185.4340  177.9100  140.4770 C   0  0  0  0  0  0  0  0  0  0  0  0
  185.2910  178.4210  143.0450 C   0  0  0  0  0  0  0  0  0  0  0  0
  183.9710  178.5280  143.1950 C   0  0  0  0  0  3  0  0  0  0  0  0
  186.3840  177.6500  139.4520 N   0  0  0  0  0  1  0  0  0  0  0  0
  182.8910  178.3930  142.2190 C   0  0  0  0  0  3  0  0  0  0  0  0
  185.9310  178.1620  141.7920 N   0  0  0  0  0  2  0  0  0  0  0  0
  182.9300  178.1260  140.9130 C   0  0  0  0  0  0  0  0  0  0  0  0
  184.1490  177.8990  140.1310 C   0  0  0  0  0  3  0  0  0  0  0  0
  181.7340  178.0440  140.1860 O   0  0  0  0  0  0  0  0  0  0  0  0
  179.7060  177.7230  142.0770 O   0  0  0  0  0  1  0  0  0  0  0  0
  180.2140  178.6350  140.7470 P   0  0  0  0  0  0  0  0  0  0  0  0
  180.3610  180.0810  141.1580 O   0  0  0  0  0  1  0  0  0  0  0  0
  179.0670  178.5180  139.5100 O   0  0  0  0  0  0  0  0  0  0  0  0
  3  9  1  0  0  0  0
  3  8  2  0  0  0  0
  4  9  2  0  0  0  0
  4  5  1  0  0  0  0
  5  2  2  0  0  0  0
  6  2  1  0  0  0  0
  6  1  2  0  0  0  0
  7  1  1  0  0  0  0
  8  7  1  0  0  0  0
  9  6  1  0  0  0  0
 13 11  1  6  0  0  0
 13 14  1  0  0  0  0
 13 18  1  0  0  0  0
 14 12  1  1  0  0  0
 14 10  1  0  0  0  0
 16 17  2  0  0  0  0
 16 11  1  0  0  0  0
 17 19  1  0  0  0  0
 18 15  1  6  0  0  0
 18 10  1  0  0  0  0
 19  5  1  1  0  0  0
 19 12  1  0  0  0  0
 20 21  1  6  0  0  0
 20 22  1  0  0  0  0
 20 17  1  0  0  0  0
 22 23  1  0  0  0  0
 23 24  1  0  0  0  0
 25 23  2  0  0  0  0
 26  8  1  0  0  0  0
 26 27  2  0  0  0  0
 28 33  1  0  0  0  0
 29 30  2  0  0  0  0
 29 26  1  0  0  0  0
 31 28  1  0  0  0  0
 32 30  1  0  0  0  0
 33 29  1  0  0  0  0
 34 32  2  0  0  0  0
 35 28  2  0  0  0  0
 35 34  1  0  0  0  0
 36 38  1  0  0  0  0
 36 34  1  0  0  0  0
 38 39  1  0  0  0  0
 38 37  1  0  0  0  0
 40 38  2  0  0  0  0
M  END
>  <MODEL>
1

>  <REMARK>
 VINA RESULT:      -7.7      0.000      0.000
  Name = 
  8 active torsions:
  status: ('A' for Active; 'I' for Inactive)
    1  A    between atoms: C_3  and  C_12
    2  A    between atoms: C_9  and  C_39
    3  A    between atoms: C_10  and  C_29
    4  A    between atoms: C_10  and  C_39
    5  A    between atoms: C_12  and  C_34
    6  A    between atoms: P_18  and  O_37
    7  A    between atoms: C_23  and  C_31
    8  A    between atoms: C_32  and  O_37
                            x       y       z     vdW  Elec       q    Type
                         _______ _______ _______ _____ _____    ______ ____

>  <TORSDO>
F 8

$$$$
=
 OpenBabel11072409293D

 40 44  0  0  1  0  0  0  0  0999 V2000
  187.5790  176.6660  146.8280 C   0  0  0  0  0  3  0  0  0  0  0  0
  189.3710  175.0480  146.3620 N   0  0  0  0  0  0  0  0  0  0  0  0
  187.6440  177.1030  144.0550 N   0  0  0  0  0  0  0  0  0  0  0  0
  189.4320  175.4040  144.0680 C   0  0  0  0  0  3  0  0  0  0  0  0
  189.9510  174.7150  145.1740 C   0  0  0  0  0  0  0  0  0  0  0  0
  188.4670  175.9750  146.0260 C   0  0  0  0  0  0  0  0  0  0  0  0
  186.7470  177.5600  146.2140 N   0  0  0  0  0  2  0  0  0  0  0  0
  186.7610  177.7810  144.8560 C   0  0  0  0  0  0  0  0  0  0  0  0
  188.4820  176.2150  144.6330 C   0  0  0  0  0  0  0  0  0  0  0  0
  191.4840  170.4780  142.9090 C   0  0  0  0  0  2  0  0  0  0  0  0
  193.6290  171.9630  144.8790 C   0  0  0  0  0  2  0  0  0  0  0  0
  190.8130  172.8790  143.7450 C   0  0  0  0  0  2  0  0  0  0  0  0
  192.9720  171.8780  143.5880 N   0  0  2  0  0  0  0  0  0  0  0  0
  191.5920  171.6060  143.9080 C   0  0  2  0  0  3  0  0  0  0  0  0
  193.6960  169.4720  143.5120 C   0  0  0  0  0  1  0  0  0  0  0  0
  193.5500  173.4040  145.3160 C   0  0  0  0  0  3  0  0  0  0  0  0
  192.4310  174.1780  145.3480 C   0  0  0  0  0  0  0  0  0  0  0  0
  192.9950  170.6330  142.8070 C   0  0  1  0  0  3  0  0  0  0  0  0
  191.0070  173.6580  145.0550 C   0  0  1  0  0  3  0  0  0  0  0  0
  192.6010  175.6100  145.7880 C   0  0  1  0  0  3  0  0  0  0  0  0
  193.0540  175.6730  147.1080 O   0  0  0  0  0  1  0  0  0  0  0  0
  193.5450  176.3640  144.8620 C   0  0  0  0  0  2  0  0  0  0  0  0
  192.8980  176.5890  143.5400 C   0  0  0  0  0  0  0  0  0  0  0  0
  193.2520  175.8040  142.4510 O   0  0  0  0  0  0  0  0  0  0  0  0
  192.0050  177.4670  143.4180 O   0  0  0  0  0  1  0  0  0  0  0  0
  185.8330  178.7830  144.2800 C   0  0  0  0  0  0  0  0  0  0  0  0
  185.7730  179.9180  144.8260 O   0  0  0  0  0  0  0  0  0  0  0  0
  185.1770  177.9730  140.5400 C   0  0  0  0  0  0  0  0  0  0  0  0
  184.9760  178.5340  143.0940 C   0  0  0  0  0  0  0  0  0  0  0  0
  183.6520  178.6210  143.2170 C   0  0  0  0  0  3  0  0  0  0  0  0
  186.1510  177.7080  139.5390 N   0  0  0  0  0  1  0  0  0  0  0  0
  182.5930  178.4480  142.2240 C   0  0  0  0  0  3  0  0  0  0  0  0
  185.6440  178.2600  141.8590 N   0  0  0  0  0  2  0  0  0  0  0  0
  182.6620  178.1540  140.9240 C   0  0  0  0  0  0  0  0  0  0  0  0
  183.8990  177.9320  140.1710 C   0  0  0  0  0  3  0  0  0  0  0  0
  181.4810  178.0370  140.1760 O   0  0  0  0  0  0  0  0  0  0  0  0
  178.8340  178.4670  139.4040 O   0  0  0  0  0  0  0  0  0  0  0  0
  179.9810  178.7720  140.6080 P   0  0  0  0  0  0  0  0  0  0  0  0
  179.4990  178.1920  141.9170 O   0  0  0  0  0  1  0  0  0  0  0  0
  180.1930  180.4410  140.7770 O   0  0  0  0  0  1  0  0  0  0  0  0
  3  9  1  0  0  0  0
  3  8  2  0  0  0  0
  4  9  2  0  0  0  0
  4  5  1  0  0  0  0
  5  2  2  0  0  0  0
  6  2  1  0  0  0  0
  6  1  2  0  0  0  0
  7  1  1  0  0  0  0
  8  7  1  0  0  0  0
  9  6  1  0  0  0  0
 11 16  1  0  0  0  0
 12 14  1  0  0  0  0
 12 19  1  0  0  0  0
 13 14  1  0  0  0  0
 13 11  1  1  0  0  0
 14 10  1  6  0  0  0
 16 17  2  0  0  0  0
 17 20  1  0  0  0  0
 18 10  1  0  0  0  0
 18 15  1  1  0  0  0
 18 13  1  0  0  0  0
 19  5  1  6  0  0  0
 19 17  1  0  0  0  0
 20 21  1  1  0  0  0
 22 20  1  0  0  0  0
 23 22  1  0  0  0  0
 24 23  2  0  0  0  0
 25 23  1  0  0  0  0
 26 27  2  0  0  0  0
 26  8  1  0  0  0  0
 28 33  1  0  0  0  0
 29 30  2  0  0  0  0
 29 26  1  0  0  0  0
 31 28  1  0  0  0  0
 32 30  1  0  0  0  0
 33 29  1  0  0  0  0
 34 32  2  0  0  0  0
 35 28  2  0  0  0  0
 35 34  1  0  0  0  0
 36 38  1  0  0  0  0
 36 34  1  0  0  0  0
 37 38  2  0  0  0  0
 38 40  1  0  0  0  0
 38 39  1  0  0  0  0
M  END
>  <MODEL>
2

>  <REMARK>
 VINA RESULT:      -7.7      2.017      3.136
  Name = 
  8 active torsions:
  status: ('A' for Active; 'I' for Inactive)
    1  A    between atoms: C_3  and  C_12
    2  A    between atoms: C_9  and  C_39
    3  A    between atoms: C_10  and  C_29
    4  A    between atoms: C_10  and  C_39
    5  A    between atoms: C_12  and  C_34
    6  A    between atoms: P_18  and  O_37
    7  A    between atoms: C_23  and  C_31
    8  A    between atoms: C_32  and  O_37
                            x       y       z     vdW  Elec       q    Type
                         _______ _______ _______ _____ _____    ______ ____

>  <TORSDO>
F 8

$$$$
=
 OpenBabel11072409293D

 40 44  0  0  1  0  0  0  0  0999 V2000
  189.0270  178.5300  142.3930 C   0  0  0  0  0  3  0  0  0  0  0  0
  190.7850  177.0100  143.1950 N   0  0  0  0  0  0  0  0  0  0  0  0
  187.9030  176.1960  141.3090 N   0  0  0  0  0  0  0  0  0  0  0  0
  189.8630  175.0750  142.3010 C   0  0  0  0  0  3  0  0  0  0  0  0
  190.9070  175.6620  143.0330 C   0  0  2  0  0  3  0  0  0  0  0  0
  189.6500  177.3070  142.5520 C   0  0  0  0  0  0  0  0  0  0  0  0
  187.8540  178.5470  141.6910 N   0  0  0  0  0  0  0  0  0  0  0  0
  187.2850  177.4120  141.1600 C   0  0  0  0  0  0  0  0  0  0  0  0
  189.0650  176.1480  141.9950 C   0  0  0  0  0  0  0  0  0  0  0  0
  195.7430  175.5430  144.4550 C   0  0  0  0  0  2  0  0  0  0  0  0
  193.8860  172.9910  145.3080 C   0  0  0  0  0  2  0  0  0  0  0  0
  193.1570  175.8170  144.0650 C   0  0  0  0  0  2  0  0  0  0  0  0
  194.3190  174.3550  145.5500 N   0  0  2  0  0  0  0  0  0  0  0  0
  194.3710  174.9500  144.2360 C   0  0  2  0  0  3  0  0  0  0  0  0
  196.6770  173.4820  145.5290 C   0  0  0  0  0  1  0  0  0  0  0  0
  192.3790  172.9960  145.3590 C   0  0  0  0  0  3  0  0  0  0  0  0
  191.5500  173.8400  144.6850 C   0  0  0  0  0  0  0  0  0  0  0  0
  195.7440  174.6800  145.7090 C   0  0  1  0  0  3  0  0  0  0  0  0
  192.0250  174.8700  143.6370 C   0  0  1  0  0  3  0  0  0  0  0  0
  190.0700  173.6800  144.9230 C   0  0  1  0  0  3  0  0  0  0  0  0
  189.6890  172.3420  144.8000 O   0  0  0  0  0  1  0  0  0  0  0  0
  189.6670  174.2290  146.2840 C   0  0  0  0  0  2  0  0  0  0  0  0
  189.3350  175.6770  146.1770 C   0  0  0  0  0  0  0  0  0  0  0  0
  190.2520  176.6310  146.5950 O   0  0  0  0  0  1  0  0  0  0  0  0
  188.2390  176.0360  145.6760 O   0  0  0  0  0  0  0  0  0  0  0  0
  186.0190  177.5290  140.3990 C   0  0  0  0  0  0  0  0  0  0  0  0
  186.0450  177.2800  139.1630 O   0  0  0  0  0  0  0  0  0  0  0  0
  183.7210  178.7330  143.2880 C   0  0  0  0  0  0  0  0  0  0  0  0
  184.7200  177.9120  141.0050 C   0  0  0  0  0  0  0  0  0  0  0  0
  183.6100  177.8340  140.2720 C   0  0  0  0  0  3  0  0  0  0  0  0
  184.1190  179.0840  144.6060 N   0  0  0  0  0  1  0  0  0  0  0  0
  182.2200  178.1260  140.6200 C   0  0  0  0  0  3  0  0  0  0  0  0
  184.7390  178.3020  142.3820 N   0  0  0  0  0  0  0  0  0  0  0  0
  181.6830  178.5520  141.7650 C   0  0  0  0  0  0  0  0  0  0  0  0
  182.4270  178.8320  142.9970 C   0  0  0  0  0  2  0  0  0  0  0  0
  180.2990  178.7640  141.8450 O   0  0  0  0  0  0  0  0  0  0  0  0
  177.9400  180.1880  141.3970 O   0  0  0  0  0  1  0  0  0  0  0  0
  179.3870  179.6690  140.6930 P   0  0  0  0  0  0  0  0  0  0  0  0
  180.1890  180.8710  140.2530 O   0  0  0  0  0  1  0  0  0  0  0  0
  179.0460  178.7000  139.3500 O   0  0  0  0  0  0  0  0  0  0  0  0
  1  6  1  0  0  0  0
  3  9  1  0  0  0  0
  5  4  1  1  0  0  0
  5  2  1  0  0  0  0
  5 19  1  0  0  0  0
  6  2  2  0  0  0  0
  7  1  2  0  0  0  0
  8  3  2  0  0  0  0
  8  7  1  0  0  0  0
  9  4  2  0  0  0  0
  9  6  1  0  0  0  0
 10 18  1  0  0  0  0
 11 16  1  0  0  0  0
 13 11  1  6  0  0  0
 13 18  1  0  0  0  0
 14 12  1  1  0  0  0
 14 10  1  0  0  0  0
 14 13  1  0  0  0  0
 17 20  1  0  0  0  0
 17 16  2  0  0  0  0
 18 15  1  6  0  0  0
 19 12  1  1  0  0  0
 19 17  1  0  0  0  0
 20 21  1  1  0  0  0
 20 22  1  0  0  0  0
 23 22  1  0  0  0  0
 23 24  1  0  0  0  0
 25 23  2  0  0  0  0
 26 29  1  0  0  0  0
 26  8  1  0  0  0  0
 27 26  2  0  0  0  0
 28 31  1  0  0  0  0
 29 33  1  0  0  0  0
 30 32  1  0  0  0  0
 30 29  2  0  0  0  0
 32 34  2  0  0  0  0
 33 28  2  0  0  0  0
 34 36  1  0  0  0  0
 34 35  1  0  0  0  0
 35 28  1  0  0  0  0
 38 37  1  0  0  0  0
 38 36  1  0  0  0  0
 39 38  1  0  0  0  0
 40 38  2  0  0  0  0
M  END
>  <MODEL>
3

>  <REMARK>
 VINA RESULT:      -7.4      2.046      3.173
  Name = 
  8 active torsions:
  status: ('A' for Active; 'I' for Inactive)
    1  A    between atoms: C_3  and  C_12
    2  A    between atoms: C_9  and  C_39
    3  A    between atoms: C_10  and  C_29
    4  A    between atoms: C_10  and  C_39
    5  A    between atoms: C_12  and  C_34
    6  A    between atoms: P_18  and  O_37
    7  A    between atoms: C_23  and  C_31
    8  A    between atoms: C_32  and  O_37
                            x       y       z     vdW  Elec       q    Type
                         _______ _______ _______ _____ _____    ______ ____

>  <TORSDO>
F 8

$$$$
=
 OpenBabel11072409293D

 40 44  0  0  1  0  0  0  0  0999 V2000
  189.9820  177.5370  145.3990 C   0  0  0  0  0  3  0  0  0  0  0  0
  191.9510  176.1210  145.7980 N   0  0  0  0  0  0  0  0  0  0  0  0
  189.9490  176.2890  142.8840 N   0  0  0  0  0  0  0  0  0  0  0  0
  191.9330  175.0850  143.7200 C   0  0  0  0  0  3  0  0  0  0  0  0
  192.5500  175.2150  144.9730 C   0  0  0  0  0  0  0  0  0  0  0  0
  190.9350  176.5940  145.0680 C   0  0  0  0  0  0  0  0  0  0  0  0
  189.0360  177.8290  144.4560 N   0  0  0  0  0  2  0  0  0  0  0  0
  189.0010  177.2210  143.2220 C   0  0  0  0  0  0  0  0  0  0  0  0
  190.8980  175.9820  143.7950 C   0  0  0  0  0  0  0  0  0  0  0  0
  194.4360  170.6050  145.7550 C   0  0  0  0  0  2  0  0  0  0  0  0
  196.5300  173.1100  145.9310 C   0  0  0  0  0  2  0  0  0  0  0  0
  193.5200  172.9330  144.9450 C   0  0  0  0  0  2  0  0  0  0  0  0
  195.7740  172.1700  145.1240 N   0  0  2  0  0  0  0  0  0  0  0  0
  194.4800  172.1150  145.7600 C   0  0  2  0  0  3  0  0  0  0  0  0
  196.8130  170.3400  146.4980 C   0  0  0  0  0  1  0  0  0  0  0  0
  196.2930  174.4790  145.3440 C   0  0  0  0  0  3  0  0  0  0  0  0
  195.0850  175.0340  145.0500 C   0  0  0  0  0  0  0  0  0  0  0  0
  195.8950  170.7210  145.3360 C   0  0  1  0  0  3  0  0  0  0  0  0
  193.7260  174.3880  145.3940 C   0  0  1  0  0  3  0  0  0  0  0  0
  195.0960  176.4090  144.4320 C   0  0  1  0  0  3  0  0  0  0  0  0
  195.0780  177.3970  145.4190 O   0  0  0  0  0  1  0  0  0  0  0  0
  196.2960  176.5920  143.5140 C   0  0  0  0  0  2  0  0  0  0  0  0
  195.8880  176.4170  142.0920 C   0  0  0  0  0  0  0  0  0  0  0  0
  194.5410  176.3400  141.7620 O   0  0  0  0  0  1  0  0  0  0  0  0
  196.7600  176.3750  141.1870 O   0  0  0  0  0  0  0  0  0  0  0  0
  187.9480  177.6130  142.2560 C   0  0  0  0  0  0  0  0  0  0  0  0
  188.2370  177.6060  141.0290 O   0  0  0  0  0  0  0  0  0  0  0  0
  185.2060  178.7570  144.7550 C   0  0  0  0  0  0  0  0  0  0  0  0
  186.5710  178.0060  142.6450 C   0  0  0  0  0  0  0  0  0  0  0  0
  185.6040  177.9870  141.7280 C   0  0  0  0  0  3  0  0  0  0  0  0
  185.3740  179.0440  146.1370 N   0  0  0  0  0  1  0  0  0  0  0  0
  184.1800  178.3010  141.8430 C   0  0  0  0  0  3  0  0  0  0  0  0
  186.3570  178.3380  144.0200 N   0  0  0  0  0  0  0  0  0  0  0  0
  183.4600  178.6930  142.8950 C   0  0  0  0  0  0  0  0  0  0  0  0
  183.9840  178.9020  144.2490 C   0  0  0  0  0  2  0  0  0  0  0  0
  182.0880  178.9380  142.7440 O   0  0  0  0  0  0  0  0  0  0  0  0
  180.6870  180.0980  140.6260 O   0  0  0  0  0  1  0  0  0  0  0  0
  181.2000  178.6320  141.2970 P   0  0  0  0  0  0  0  0  0  0  0  0
  182.0880  177.9130  140.3090 O   0  0  0  0  0  0  0  0  0  0  0  0
  179.8550  177.6700  141.6480 O   0  0  0  0  0  1  0  0  0  0  0  0
  3  8  2  0  0  0  0
  3  9  1  0  0  0  0
  4  9  2  0  0  0  0
  4  5  1  0  0  0  0
  5  2  2  0  0  0  0
  6  1  2  0  0  0  0
  6  2  1  0  0  0  0
  7  1  1  0  0  0  0
  8  7  1  0  0  0  0
  9  6  1  0  0  0  0
 10 14  1  0  0  0  0
 12 19  1  0  0  0  0
 13 18  1  0  0  0  0
 13 14  1  0  0  0  0
 13 11  1  1  0  0  0
 14 12  1  6  0  0  0
 16 11  1  0  0  0  0
 17 16  2  0  0  0  0
 17 19  1  0  0  0  0
 18 10  1  0  0  0  0
 18 15  1  1  0  0  0
 19  5  1  6  0  0  0
 20 17  1  0  0  0  0
 20 21  1  1  0  0  0
 22 20  1  0  0  0  0
 23 22  1  0  0  0  0
 24 23  1  0  0  0  0
 25 23  2  0  0  0  0
 26 29  1  0  0  0  0
 26  8  1  0  0  0  0
 27 26  2  0  0  0  0
 28 31  1  0  0  0  0
 29 33  1  0  0  0  0
 30 32  1  0  0  0  0
 30 29  2  0  0  0  0
 32 34  2  0  0  0  0
 33 28  2  0  0  0  0
 34 35  1  0  0  0  0
 35 28  1  0  0  0  0
 36 34  1  0  0  0  0
 37 38  1  0  0  0  0
 38 40  1  0  0  0  0
 38 36  1  0  0  0  0
 39 38  2  0  0  0  0
M  END
>  <MODEL>
4

>  <REMARK>
 VINA RESULT:      -7.4      2.309      3.827
  Name = 
  8 active torsions:
  status: ('A' for Active; 'I' for Inactive)
    1  A    between atoms: C_3  and  C_12
    2  A    between atoms: C_9  and  C_39
    3  A    between atoms: C_10  and  C_29
    4  A    between atoms: C_10  and  C_39
    5  A    between atoms: C_12  and  C_34
    6  A    between atoms: P_18  and  O_37
    7  A    between atoms: C_23  and  C_31
    8  A    between atoms: C_32  and  O_37
                            x       y       z     vdW  Elec       q    Type
                         _______ _______ _______ _____ _____    ______ ____

>  <TORSDO>
F 8

$$$$
=
 OpenBabel11072409293D

 40 44  0  0  1  0  0  0  0  0999 V2000
  189.9370  177.1210  146.7150 C   0  0  0  0  0  3  0  0  0  0  0  0
  191.9890  175.7790  146.5510 N   0  0  0  0  0  0  0  0  0  0  0  0
  189.0190  175.4480  144.6560 N   0  0  0  0  0  0  0  0  0  0  0  0
  191.2390  174.3910  144.8470 C   0  0  0  0  0  3  0  0  0  0  0  0
  192.2800  174.7350  145.7230 C   0  0  0  0  0  0  0  0  0  0  0  0
  190.7450  176.1250  146.2030 C   0  0  0  0  0  0  0  0  0  0  0  0
  188.6870  177.2510  146.1770 N   0  0  0  0  0  2  0  0  0  0  0  0
  188.2190  176.4350  145.1720 C   0  0  0  0  0  0  0  0  0  0  0  0
  190.2610  175.2970  145.1650 C   0  0  0  0  0  0  0  0  0  0  0  0
  194.5930  170.2550  145.7210 C   0  0  0  0  0  2  0  0  0  0  0  0
  196.4990  172.9040  145.5380 C   0  0  0  0  0  2  0  0  0  0  0  0
  193.3570  172.5390  145.3110 C   0  0  0  0  0  2  0  0  0  0  0  0
  195.6280  171.9470  144.8820 N   0  0  2  0  0  0  0  0  0  0  0  0
  194.5400  171.7620  145.8120 C   0  0  2  0  0  3  0  0  0  0  0  0
  197.0920  170.1420  145.8390 C   0  0  0  0  0  1  0  0  0  0  0  0
  196.0360  174.2760  145.1160 C   0  0  0  0  0  3  0  0  0  0  0  0
  194.7600  174.7490  145.1640 C   0  0  0  0  0  0  0  0  0  0  0  0
  195.8910  170.5030  144.9650 C   0  0  1  0  0  3  0  0  0  0  0  0
  193.5740  173.9830  145.7890 C   0  0  1  0  0  3  0  0  0  0  0  0
  194.5280  176.1470  144.6510 C   0  0  1  0  0  3  0  0  0  0  0  0
  195.2900  177.0720  145.3710 O   0  0  0  0  0  1  0  0  0  0  0  0
  194.8310  176.2480  143.1630 C   0  0  0  0  0  2  0  0  0  0  0  0
  193.5830  176.0680  142.3710 C   0  0  0  0  0  0  0  0  0  0  0  0
  192.4320  176.7600  142.7240 O   0  0  0  0  0  1  0  0  0  0  0  0
  193.5800  175.3170  141.3620 O   0  0  0  0  0  0  0  0  0  0  0  0
  186.8550  176.6600  144.6380 C   0  0  0  0  0  0  0  0  0  0  0  0
  185.8830  176.5660  145.4360 O   0  0  0  0  0  0  0  0  0  0  0  0
  184.6010  177.8690  141.7170 C   0  0  0  0  0  0  0  0  0  0  0  0
  186.5640  176.9980  143.2230 C   0  0  0  0  0  0  0  0  0  0  0  0
  187.5110  176.8220  142.3020 C   0  0  0  0  0  3  0  0  0  0  0  0
  183.2510  178.3070  141.8040 N   0  0  0  0  0  1  0  0  0  0  0  0
  187.4870  177.0500  140.8580 C   0  0  0  0  0  3  0  0  0  0  0  0
  185.2410  177.4550  142.9250 N   0  0  0  0  0  2  0  0  0  0  0  0
  186.5110  177.4990  140.0670 C   0  0  0  0  0  0  0  0  0  0  0  0
  185.1670  177.8800  140.5130 C   0  0  0  0  0  3  0  0  0  0  0  0
  186.7410  177.6360  138.6910 O   0  0  0  0  0  0  0  0  0  0  0  0
  187.4630  176.7830  136.1330 O   0  0  0  0  0  0  0  0  0  0  0  0
  186.6780  176.3340  137.5610 P   0  0  0  0  0  0  0  0  0  0  0  0
  187.3660  175.1250  138.1520 O   0  0  0  0  0  1  0  0  0  0  0  0
  185.0660  175.9520  137.2230 O   0  0  0  0  0  1  0  0  0  0  0  0
  3  9  1  0  0  0  0
  3  8  2  0  0  0  0
  4  9  2  0  0  0  0
  4  5  1  0  0  0  0
  5  2  2  0  0  0  0
  6  2  1  0  0  0  0
  6  1  2  0  0  0  0
  7  1  1  0  0  0  0
  8  7  1  0  0  0  0
  9  6  1  0  0  0  0
 10 14  1  0  0  0  0
 12 19  1  0  0  0  0
 13 18  1  0  0  0  0
 13 11  1  1  0  0  0
 13 14  1  0  0  0  0
 14 12  1  6  0  0  0
 16 17  2  0  0  0  0
 16 11  1  0  0  0  0
 17 19  1  0  0  0  0
 18 10  1  0  0  0  0
 18 15  1  1  0  0  0
 19  5  1  6  0  0  0
 20 17  1  0  0  0  0
 20 21  1  1  0  0  0
 22 20  1  0  0  0  0
 23 24  1  0  0  0  0
 23 22  1  0  0  0  0
 25 23  2  0  0  0  0
 26  8  1  0  0  0  0
 26 27  2  0  0  0  0
 28 31  1  0  0  0  0
 28 33  1  0  0  0  0
 29 26  1  0  0  0  0
 30 29  2  0  0  0  0
 32 30  1  0  0  0  0
 33 29  1  0  0  0  0
 34 35  1  0  0  0  0
 34 32  2  0  0  0  0
 35 28  2  0  0  0  0
 36 34  1  0  0  0  0
 37 38  2  0  0  0  0
 38 39  1  0  0  0  0
 38 36  1  0  0  0  0
 40 38  1  0  0  0  0
M  END
>  <MODEL>
5

>  <REMARK>
 VINA RESULT:      -7.4      3.209      4.242
  Name = 
  8 active torsions:
  status: ('A' for Active; 'I' for Inactive)
    1  A    between atoms: C_3  and  C_12
    2  A    between atoms: C_9  and  C_39
    3  A    between atoms: C_10  and  C_29
    4  A    between atoms: C_10  and  C_39
    5  A    between atoms: C_12  and  C_34
    6  A    between atoms: P_18  and  O_37
    7  A    between atoms: C_23  and  C_31
    8  A    between atoms: C_32  and  O_37
                            x       y       z     vdW  Elec       q    Type
                         _______ _______ _______ _____ _____    ______ ____

>  <TORSDO>
F 8

$$$$
=
 OpenBabel11072409293D

 40 44  0  0  1  0  0  0  0  0999 V2000
  193.6220  176.5720  146.7430 C   0  0  0  0  0  3  0  0  0  0  0  0
  191.1830  176.7910  146.5230 N   0  0  0  0  0  0  0  0  0  0  0  0
  193.2710  174.2770  145.1630 N   0  0  0  0  0  0  0  0  0  0  0  0
  190.8830  174.8940  145.2180 C   0  0  0  0  0  3  0  0  0  0  0  0
  190.2960  175.9930  145.8630 C   0  0  0  0  0  0  0  0  0  0  0  0
  192.3630  176.1980  146.3130 C   0  0  0  0  0  0  0  0  0  0  0  0
  194.6720  175.7810  146.3680 N   0  0  0  0  0  2  0  0  0  0  0  0
  194.5180  174.6570  145.5880 C   0  0  0  0  0  0  0  0  0  0  0  0
  192.2130  175.0380  145.5210 C   0  0  0  0  0  0  0  0  0  0  0  0
  186.3090  178.2570  147.9620 C   0  0  0  0  0  2  0  0  0  0  0  0
  185.8990  177.0170  144.9650 C   0  0  0  0  0  2  0  0  0  0  0  0
  188.4930  177.4560  146.7360 C   0  0  0  0  0  2  0  0  0  0  0  0
  186.3840  178.0870  145.8170 N   0  0  2  0  0  0  0  0  0  0  0  0
  187.0050  177.4050  146.9270 C   0  0  2  0  0  3  0  0  0  0  0  0
  184.0810  178.1680  146.8220 C   0  0  0  0  0  1  0  0  0  0  0  0
  187.0150  176.6820  144.0070 C   0  0  0  0  0  3  0  0  0  0  0  0
  188.3100  176.4210  144.3340 C   0  0  0  0  0  0  0  0  0  0  0  0
  185.4930  178.7540  146.7770 C   0  0  1  0  0  3  0  0  0  0  0  0
  188.8320  176.3010  145.7830 C   0  0  1  0  0  3  0  0  0  0  0  0
  189.2610  176.1460  143.1980 C   0  0  1  0  0  3  0  0  0  0  0  0
  188.6820  175.2820  142.2650 O   0  0  0  0  0  1  0  0  0  0  0  0
  189.7080  177.4370  142.5270 C   0  0  0  0  0  2  0  0  0  0  0  0
  191.0540  177.8360  143.0240 C   0  0  0  0  0  0  0  0  0  0  0  0
  191.1900  178.9560  143.8330 O   0  0  0  0  0  1  0  0  0  0  0  0
  192.0620  177.1390  142.7410 O   0  0  0  0  0  0  0  0  0  0  0  0
  195.7130  173.8500  145.2440 C   0  0  0  0  0  0  0  0  0  0  0  0
  196.3200  173.2630  146.1810 O   0  0  0  0  0  0  0  0  0  0  0  0
  196.8440  171.7970  142.1500 C   0  0  0  0  0  0  0  0  0  0  0  0
  196.2330  173.6850  143.8640 C   0  0  0  0  0  0  0  0  0  0  0  0
  196.5670  174.7660  143.1600 C   0  0  0  0  0  3  0  0  0  0  0  0
  196.8330  170.3820  142.0110 N   0  0  0  0  0  1  0  0  0  0  0  0
  197.1140  174.8870  141.8100 C   0  0  0  0  0  3  0  0  0  0  0  0
  196.3910  172.3450  143.3880 N   0  0  0  0  0  2  0  0  0  0  0  0
  197.4270  173.9510  140.9130 C   0  0  0  0  0  0  0  0  0  0  0  0
  197.2780  172.5060  141.1100 C   0  0  0  0  0  3  0  0  0  0  0  0
  197.9410  174.3300  139.6650 O   0  0  0  0  0  0  0  0  0  0  0  0
  196.7420  172.9500  137.5550 O   0  0  0  0  0  1  0  0  0  0  0  0
  196.9970  174.4800  138.2290 P   0  0  0  0  0  0  0  0  0  0  0  0
  195.6640  175.1050  138.5710 O   0  0  0  0  0  1  0  0  0  0  0  0
  197.8070  175.4600  137.1150 O   0  0  0  0  0  0  0  0  0  0  0  0
  3  9  1  0  0  0  0
  3  8  2  0  0  0  0
  4  9  2  0  0  0  0
  4  5  1  0  0  0  0
  5  2  2  0  0  0  0
  6  2  1  0  0  0  0
  6  1  2  0  0  0  0
  7  1  1  0  0  0  0
  8  7  1  0  0  0  0
  9  6  1  0  0  0  0
 13 11  1  6  0  0  0
 13 18  1  0  0  0  0
 13 14  1  0  0  0  0
 14 12  1  6  0  0  0
 14 10  1  0  0  0  0
 16 17  2  0  0  0  0
 16 11  1  0  0  0  0
 17 19  1  0  0  0  0
 18 15  1  1  0  0  0
 18 10  1  0  0  0  0
 19  5  1  6  0  0  0
 19 12  1  0  0  0  0
 20 21  1  6  0  0  0
 20 17  1  0  0  0  0
 22 23  1  0  0  0  0
 22 20  1  0  0  0  0
 23 24  1  0  0  0  0
 25 23  2  0  0  0  0
 26  8  1  0  0  0  0
 26 27  2  0  0  0  0
 28 33  1  0  0  0  0
 29 26  1  0  0  0  0
 30 29  2  0  0  0  0
 31 28  1  0  0  0  0
 32 30  1  0  0  0  0
 33 29  1  0  0  0  0
 34 35  1  0  0  0  0
 34 32  2  0  0  0  0
 35 28  2  0  0  0  0
 36 34  1  0  0  0  0
 37 38  1  0  0  0  0
 38 39  1  0  0  0  0
 38 36  1  0  0  0  0
 40 38  2  0  0  0  0
M  END
>  <MODEL>
6

>  <REMARK>
 VINA RESULT:      -7.3      4.891     10.603
  Name = 
  8 active torsions:
  status: ('A' for Active; 'I' for Inactive)
    1  A    between atoms: C_3  and  C_12
    2  A    between atoms: C_9  and  C_39
    3  A    between atoms: C_10  and  C_29
    4  A    between atoms: C_10  and  C_39
    5  A    between atoms: C_12  and  C_34
    6  A    between atoms: P_18  and  O_37
    7  A    between atoms: C_23  and  C_31
    8  A    between atoms: C_32  and  O_37
                            x       y       z     vdW  Elec       q    Type
                         _______ _______ _______ _____ _____    ______ ____

>  <TORSDO>
F 8

$$$$
=
 OpenBabel11072409293D

 40 44  0  0  1  0  0  0  0  0999 V2000
  192.2290  173.1810  144.5930 C   0  0  0  0  0  3  0  0  0  0  0  0
  190.0300  174.2290  144.9220 N   0  0  0  0  0  0  0  0  0  0  0  0
  193.1440  175.8290  144.3980 N   0  0  0  0  0  0  0  0  0  0  0  0
  190.7780  176.4220  144.7610 C   0  0  0  0  0  3  0  0  0  0  0  0
  189.6940  175.5500  144.9470 C   0  0  2  0  0  3  0  0  0  0  0  0
  191.3500  174.2410  144.7060 C   0  0  0  0  0  0  0  0  0  0  0  0
  193.5460  173.4800  144.3830 N   0  0  0  0  0  0  0  0  0  0  0  0
  194.0130  174.7720  144.2920 C   0  0  0  0  0  0  0  0  0  0  0  0
  191.8350  175.5640  144.6020 C   0  0  0  0  0  0  0  0  0  0  0  0
  186.6510  178.3980  147.7860 C   0  0  0  0  0  2  0  0  0  0  0  0
  185.3440  177.0470  145.1100 C   0  0  0  0  0  2  0  0  0  0  0  0
  188.3430  177.2690  146.1190 C   0  0  0  0  0  2  0  0  0  0  0  0
  186.1430  178.0980  145.7150 N   0  0  2  0  0  0  0  0  0  0  0  0
  186.9590  177.4100  146.6850 C   0  0  2  0  0  3  0  0  0  0  0  0
  184.2040  178.5150  147.2600 C   0  0  0  0  0  1  0  0  0  0  0  0
  186.1290  176.5240  143.9330 C   0  0  0  0  0  3  0  0  0  0  0  0
  187.4310  176.1280  143.9420 C   0  0  0  0  0  0  0  0  0  0  0  0
  185.6080  178.9220  146.8080 C   0  0  1  0  0  3  0  0  0  0  0  0
  188.2990  176.0280  145.2150 C   0  0  1  0  0  3  0  0  0  0  0  0
  188.0170  175.6750  142.6290 C   0  0  1  0  0  3  0  0  0  0  0  0
  187.7240  174.3290  142.3930 O   0  0  0  0  0  1  0  0  0  0  0  0
  187.5270  176.5400  141.4770 C   0  0  0  0  0  2  0  0  0  0  0  0
  187.9310  177.9570  141.6890 C   0  0  0  0  0  0  0  0  0  0  0  0
  189.2740  178.2830  141.8210 O   0  0  0  0  0  1  0  0  0  0  0  0
  187.0590  178.8630  141.7150 O   0  0  0  0  0  0  0  0  0  0  0  0
  195.4560  175.0010  144.0470 C   0  0  0  0  0  0  0  0  0  0  0  0
  196.1760  175.3430  145.0240 O   0  0  0  0  0  0  0  0  0  0  0  0
  197.4580  173.0760  141.3340 C   0  0  0  0  0  0  0  0  0  0  0  0
  196.1070  174.8440  142.7220 C   0  0  0  0  0  0  0  0  0  0  0  0
  196.1060  175.8680  141.8700 C   0  0  0  0  0  3  0  0  0  0  0  0
  197.9410  171.7420  141.4140 N   0  0  0  0  0  1  0  0  0  0  0  0
  196.6820  175.9900  140.5320 C   0  0  0  0  0  3  0  0  0  0  0  0
  196.7500  173.5930  142.4620 N   0  0  0  0  0  2  0  0  0  0  0  0
  197.3650  175.1100  139.7970 C   0  0  0  0  0  0  0  0  0  0  0  0
  197.7040  173.7450  140.2100 C   0  0  0  0  0  3  0  0  0  0  0  0
  197.8140  175.4740  138.5200 O   0  0  0  0  0  0  0  0  0  0  0  0
  197.4740  173.7020  136.3900 O   0  0  0  0  0  1  0  0  0  0  0  0
  196.9490  175.1630  137.0610 P   0  0  0  0  0  0  0  0  0  0  0  0
  195.4720  175.0720  137.3650 O   0  0  0  0  0  1  0  0  0  0  0  0
  197.2190  176.4180  135.9610 O   0  0  0  0  0  0  0  0  0  0  0  0
  1  6  1  0  0  0  0
  2  5  1  0  0  0  0
  3  9  1  0  0  0  0
  5  4  1  1  0  0  0
  5 19  1  0  0  0  0
  6  2  2  0  0  0  0
  7  1  2  0  0  0  0
  8  7  1  0  0  0  0
  8  3  2  0  0  0  0
  9  6  1  0  0  0  0
  9  4  2  0  0  0  0
 13 11  1  1  0  0  0
 13 14  1  0  0  0  0
 13 18  1  0  0  0  0
 14 12  1  6  0  0  0
 14 10  1  0  0  0  0
 16 17  2  0  0  0  0
 16 11  1  0  0  0  0
 17 19  1  0  0  0  0
 18 15  1  1  0  0  0
 18 10  1  0  0  0  0
 19 12  1  6  0  0  0
 20 21  1  6  0  0  0
 20 17  1  0  0  0  0
 22 23  1  0  0  0  0
 22 20  1  0  0  0  0
 23 25  2  0  0  0  0
 23 24  1  0  0  0  0
 26  8  1  0  0  0  0
 26 27  2  0  0  0  0
 28 31  1  0  0  0  0
 28 33  1  0  0  0  0
 29 26  1  0  0  0  0
 30 29  2  0  0  0  0
 32 30  1  0  0  0  0
 33 29  1  0  0  0  0
 34 35  1  0  0  0  0
 34 32  2  0  0  0  0
 35 28  2  0  0  0  0
 36 34  1  0  0  0  0
 37 38  1  0  0  0  0
 38 39  1  0  0  0  0
 38 36  1  0  0  0  0
 40 38  2  0  0  0  0
M  END
>  <MODEL>
7

>  <REMARK>
 VINA RESULT:      -7.2      4.355     10.486
  Name = 
  8 active torsions:
  status: ('A' for Active; 'I' for Inactive)
    1  A    between atoms: C_3  and  C_12
    2  A    between atoms: C_9  and  C_39
    3  A    between atoms: C_10  and  C_29
    4  A    between atoms: C_10  and  C_39
    5  A    between atoms: C_12  and  C_34
    6  A    between atoms: P_18  and  O_37
    7  A    between atoms: C_23  and  C_31
    8  A    between atoms: C_32  and  O_37
                            x       y       z     vdW  Elec       q    Type
                         _______ _______ _______ _____ _____    ______ ____

>  <TORSDO>
F 8

$$$$
=
 OpenBabel11072409293D

 40 44  0  0  1  0  0  0  0  0999 V2000
  190.9090  178.0960  144.0170 C   0  0  0  0  0  3  0  0  0  0  0  0
  192.6710  176.6100  143.1650 N   0  0  0  0  0  0  0  0  0  0  0  0
  189.3690  175.7490  144.1050 N   0  0  0  0  0  0  0  0  0  0  0  0
  191.4060  174.6640  143.2340 C   0  0  0  0  0  3  0  0  0  0  0  0
  192.6360  175.2670  142.9320 C   0  0  0  0  0  0  0  0  0  0  0  0
  191.4430  176.8870  143.6160 C   0  0  0  0  0  0  0  0  0  0  0  0
  189.6130  178.0940  144.4510 N   0  0  0  0  0  2  0  0  0  0  0  0
  188.8460  176.9510  144.5080 C   0  0  0  0  0  0  0  0  0  0  0  0
  190.6470  175.7200  143.6680 C   0  0  0  0  0  0  0  0  0  0  0  0
  196.2320  174.7300  139.4370 C   0  0  0  0  0  2  0  0  0  0  0  0
  196.4730  172.8600  142.1080 C   0  0  0  0  0  2  0  0  0  0  0  0
  194.5930  175.3180  141.4090 C   0  0  0  0  0  2  0  0  0  0  0  0
  196.6700  174.1450  141.4630 N   0  0  2  0  0  0  0  0  0  0  0  0
  195.4720  174.3390  140.6830 C   0  0  2  0  0  3  0  0  0  0  0  0
  197.9410  172.9160  139.6760 C   0  0  0  0  0  1  0  0  0  0  0  0
  195.7810  173.1320  143.4200 C   0  0  0  0  0  3  0  0  0  0  0  0
  194.6630  173.8860  143.6040 C   0  0  0  0  0  0  0  0  0  0  0  0
  197.4480  174.2570  140.2210 C   0  0  1  0  0  3  0  0  0  0  0  0
  193.8280  174.4940  142.4560 C   0  0  1  0  0  3  0  0  0  0  0  0
  194.1710  174.0480  145.0200 C   0  0  1  0  0  3  0  0  0  0  0  0
  194.3210  172.8580  145.7370 O   0  0  0  0  0  1  0  0  0  0  0  0
  194.8880  175.1920  145.7250 C   0  0  0  0  0  2  0  0  0  0  0  0
  193.9050  176.0490  146.4430 C   0  0  0  0  0  0  0  0  0  0  0  0
  192.6170  175.5850  146.6730 O   0  0  0  0  0  0  0  0  0  0  0  0
  194.2520  177.1800  146.8710 O   0  0  0  0  0  1  0  0  0  0  0  0
  187.4440  177.0470  144.9780 C   0  0  0  0  0  0  0  0  0  0  0  0
  187.1980  176.7340  146.1740 O   0  0  0  0  0  0  0  0  0  0  0  0
  185.6670  177.7550  141.5990 C   0  0  0  0  0  0  0  0  0  0  0  0
  186.3140  177.4980  144.1280 C   0  0  0  0  0  0  0  0  0  0  0  0
  185.2160  177.9830  144.7070 C   0  0  0  0  0  3  0  0  0  0  0  0
  186.1810  177.5140  140.2960 N   0  0  0  0  0  1  0  0  0  0  0  0
  183.9850  178.5070  144.1180 C   0  0  0  0  0  3  0  0  0  0  0  0
  186.5020  177.4280  142.7110 N   0  0  0  0  0  2  0  0  0  0  0  0
  183.6230  178.6420  142.8410 C   0  0  0  0  0  0  0  0  0  0  0  0
  184.4430  178.2690  141.6840 C   0  0  0  0  0  3  0  0  0  0  0  0
  182.3650  179.1780  142.5300 O   0  0  0  0  0  0  0  0  0  0  0  0
  182.2980  177.7950  140.1060 O   0  0  0  0  0  0  0  0  0  0  0  0
  181.3570  178.6120  141.2500 P   0  0  0  0  0  0  0  0  0  0  0  0
  180.3200  177.6680  141.8100 O   0  0  0  0  0  1  0  0  0  0  0  0
  180.5840  179.9220  140.5130 O   0  0  0  0  0  1  0  0  0  0  0  0
  1  7  1  0  0  0  0
  2  6  1  0  0  0  0
  3  8  2  0  0  0  0
  4  9  2  0  0  0  0
  5  2  2  0  0  0  0
  5  4  1  0  0  0  0
  6  9  1  0  0  0  0
  6  1  2  0  0  0  0
  7  8  1  0  0  0  0
  8 26  1  0  0  0  0
  9  3  1  0  0  0  0
 10 18  1  0  0  0  0
 11 16  1  0  0  0  0
 12 19  1  0  0  0  0
 13 11  1  6  0  0  0
 14 10  1  6  0  0  0
 14 12  1  0  0  0  0
 14 13  1  0  0  0  0
 16 17  2  0  0  0  0
 17 20  1  0  0  0  0
 18 15  1  6  0  0  0
 18 13  1  0  0  0  0
 19  5  1  1  0  0  0
 19 17  1  0  0  0  0
 20 22  1  0  0  0  0
 20 21  1  1  0  0  0
 22 23  1  0  0  0  0
 23 24  2  0  0  0  0
 23 25  1  0  0  0  0
 26 27  2  0  0  0  0
 28 35  2  0  0  0  0
 28 33  1  0  0  0  0
 29 30  2  0  0  0  0
 29 26  1  0  0  0  0
 31 28  1  0  0  0  0
 32 30  1  0  0  0  0
 33 29  1  0  0  0  0
 34 32  2  0  0  0  0
 35 34  1  0  0  0  0
 36 34  1  0  0  0  0
 37 38  2  0  0  0  0
 38 39  1  0  0  0  0
 38 36  1  0  0  0  0
 40 38  1  0  0  0  0
M  END
>  <MODEL>
8

>  <REMARK>
 VINA RESULT:      -7.0      2.510      3.621
  Name = 
  8 active torsions:
  status: ('A' for Active; 'I' for Inactive)
    1  A    between atoms: C_3  and  C_12
    2  A    between atoms: C_9  and  C_39
    3  A    between atoms: C_10  and  C_29
    4  A    between atoms: C_10  and  C_39
    5  A    between atoms: C_12  and  C_34
    6  A    between atoms: P_18  and  O_37
    7  A    between atoms: C_23  and  C_31
    8  A    between atoms: C_32  and  O_37
                            x       y       z     vdW  Elec       q    Type
                         _______ _______ _______ _____ _____    ______ ____

>  <TORSDO>
F 8

$$$$
=
 OpenBabel11072409293D

 40 44  0  0  1  0  0  0  0  0999 V2000
  193.7650  176.4120  146.5640 C   0  0  0  0  0  3  0  0  0  0  0  0
  191.3310  176.6980  146.3760 N   0  0  0  0  0  0  0  0  0  0  0  0
  193.2630  173.8700  145.4820 N   0  0  0  0  0  0  0  0  0  0  0  0
  190.9060  174.5980  145.4820 C   0  0  0  0  0  3  0  0  0  0  0  0
  190.3880  175.8290  145.9130 C   0  0  0  0  0  0  0  0  0  0  0  0
  192.4770  176.0210  146.2530 C   0  0  0  0  0  0  0  0  0  0  0  0
  194.7680  175.5140  146.3240 N   0  0  0  0  0  2  0  0  0  0  0  0
  194.5400  174.2670  145.7870 C   0  0  0  0  0  0  0  0  0  0  0  0
  192.2500  174.7350  145.7120 C   0  0  0  0  0  0  0  0  0  0  0  0
  186.4670  178.2720  147.9310 C   0  0  0  0  0  2  0  0  0  0  0  0
  186.0340  176.9770  144.9610 C   0  0  0  0  0  2  0  0  0  0  0  0
  188.6300  177.3710  146.7390 C   0  0  0  0  0  2  0  0  0  0  0  0
  186.5490  178.0500  145.7910 N   0  0  2  0  0  0  0  0  0  0  0  0
  187.1390  177.3740  146.9210 C   0  0  2  0  0  3  0  0  0  0  0  0
  184.2440  178.2310  146.7780 C   0  0  0  0  0  1  0  0  0  0  0  0
  187.1430  176.5820  144.0190 C   0  0  0  0  0  3  0  0  0  0  0  0
  188.4270  176.2870  144.3610 C   0  0  0  0  0  0  0  0  0  0  0  0
  185.6750  178.7680  146.7290 C   0  0  1  0  0  3  0  0  0  0  0  0
  188.9360  176.1830  145.8150 C   0  0  1  0  0  3  0  0  0  0  0  0
  189.3760  175.9530  143.2380 C   0  0  1  0  0  3  0  0  0  0  0  0
  188.7950  175.0400  142.3530 O   0  0  0  0  0  1  0  0  0  0  0  0
  189.8180  177.2080  142.4980 C   0  0  0  0  0  2  0  0  0  0  0  0
  191.1410  177.6650  143.0060 C   0  0  0  0  0  0  0  0  0  0  0  0
  191.2340  178.8410  143.7380 O   0  0  0  0  0  1  0  0  0  0  0  0
  192.1680  176.9680  142.8030 O   0  0  0  0  0  0  0  0  0  0  0  0
  195.6870  173.3530  145.5760 C   0  0  0  0  0  0  0  0  0  0  0  0
  196.6930  173.4840  146.3250 O   0  0  0  0  0  0  0  0  0  0  0  0
  195.8440  169.6770  144.3390 C   0  0  0  0  0  0  0  0  0  0  0  0
  195.7200  172.2890  144.5430 C   0  0  0  0  0  0  0  0  0  0  0  0
  195.7210  172.6300  143.2550 C   0  0  0  0  0  3  0  0  0  0  0  0
  195.8840  168.5050  145.1430 N   0  0  0  0  0  1  0  0  0  0  0  0
  195.7690  171.7990  142.0530 C   0  0  0  0  0  3  0  0  0  0  0  0
  195.8000  170.9380  145.0080 N   0  0  0  0  0  2  0  0  0  0  0  0
  195.8240  170.4730  141.9160 C   0  0  0  0  0  0  0  0  0  0  0  0
  195.8510  169.5090  143.0190 C   0  0  0  0  0  3  0  0  0  0  0  0
  195.8590  169.9100  140.6320 O   0  0  0  0  0  0  0  0  0  0  0  0
  194.7920  168.5520  138.4390 O   0  0  0  0  0  0  0  0  0  0  0  0
  194.4790  169.7270  139.6140 P   0  0  0  0  0  0  0  0  0  0  0  0
  193.2950  169.2970  140.4490 O   0  0  0  0  0  1  0  0  0  0  0  0
  194.1280  171.1990  138.8610 O   0  0  0  0  0  1  0  0  0  0  0  0
  3  9  1  0  0  0  0
  3  8  2  0  0  0  0
  4  9  2  0  0  0  0
  4  5  1  0  0  0  0
  5  2  2  0  0  0  0
  6  2  1  0  0  0  0
  6  1  2  0  0  0  0
  7  1  1  0  0  0  0
  8  7  1  0  0  0  0
  9  6  1  0  0  0  0
 13 11  1  6  0  0  0
 13 18  1  0  0  0  0
 13 14  1  0  0  0  0
 14 12  1  6  0  0  0
 14 10  1  0  0  0  0
 16 17  2  0  0  0  0
 16 11  1  0  0  0  0
 17 19  1  0  0  0  0
 18 15  1  1  0  0  0
 18 10  1  0  0  0  0
 19  5  1  6  0  0  0
 19 12  1  0  0  0  0
 20 21  1  6  0  0  0
 20 17  1  0  0  0  0
 22 23  1  0  0  0  0
 22 20  1  0  0  0  0
 23 24  1  0  0  0  0
 25 23  2  0  0  0  0
 26  8  1  0  0  0  0
 26 27  2  0  0  0  0
 28 33  1  0  0  0  0
 28 31  1  0  0  0  0
 29 33  1  0  0  0  0
 29 26  1  0  0  0  0
 30 29  2  0  0  0  0
 32 30  1  0  0  0  0
 34 32  2  0  0  0  0
 34 35  1  0  0  0  0
 35 28  2  0  0  0  0
 36 34  1  0  0  0  0
 37 38  2  0  0  0  0
 38 39  1  0  0  0  0
 38 36  1  0  0  0  0
 40 38  1  0  0  0  0
M  END
>  <MODEL>
9

>  <REMARK>
 VINA RESULT:      -7.0      4.883     10.567
  Name = 
  8 active torsions:
  status: ('A' for Active; 'I' for Inactive)
    1  A    between atoms: C_3  and  C_12
    2  A    between atoms: C_9  and  C_39
    3  A    between atoms: C_10  and  C_29
    4  A    between atoms: C_10  and  C_39
    5  A    between atoms: C_12  and  C_34
    6  A    between atoms: P_18  and  O_37
    7  A    between atoms: C_23  and  C_31
    8  A    between atoms: C_32  and  O_37
                            x       y       z     vdW  Elec       q    Type
                         _______ _______ _______ _____ _____    ______ ____

>  <TORSDO>
F 8

$$$$
