=
 OpenBabel11062419323D

 40 44  0  0  1  0  0  0  0  0999 V2000
  187.5030  173.7670  142.1080 F   0  0  0  0  0  0  0  0  0  0  0  0
  187.5930  176.7760  145.8550 C   0  0  2  0  0  3  0  0  0  0  0  0
  185.3720  177.4150  145.0430 C   0  0  2  0  0  3  0  0  0  0  0  0
  188.7750  175.5220  141.1170 C   0  0  1  0  0  3  0  0  0  0  0  0
  190.0180  172.9800  139.4200 C   0  0  0  0  0  0  0  0  0  0  0  0
  191.2660  174.0540  142.2330 C   0  0  1  0  0  3  0  0  0  0  0  0
  187.3960  176.1870  140.9560 C   0  0  0  0  0  2  0  0  0  0  0  0
  190.3820  175.0900  142.9160 C   0  0  1  0  0  0  0  0  0  0  0  0
  186.8400  176.9840  142.1430 C   0  0  2  0  0  3  0  0  0  0  0  0
  191.3770  176.4290  144.6420 C   0  0  0  0  0  2  0  0  0  0  0  0
  189.6900  176.1990  142.1170 C   0  0  0  0  0  2  0  0  0  0  0  0
  191.4050  173.1210  139.9560 C   0  0  0  0  0  2  0  0  0  0  0  0
  190.5750  177.5840  145.2120 C   0  0  0  0  0  2  0  0  0  0  0  0
  189.7870  173.7410  142.5290 C   0  0  1  0  0  3  0  0  0  0  0  0
  189.8990  177.1740  146.3640 O   0  0  0  0  0  0  0  0  0  0  0  0
  188.7090  174.0370  141.4780 C   0  0  1  0  0  0  0  0  0  0  0  0
  189.9000  172.5860  138.2290 O   0  0  0  0  0  0  0  0  0  0  0  0
  190.4990  175.2980  144.3800 N   0  0  0  0  0  0  0  0  0  0  0  0
  188.7880  173.1800  140.2280 C   0  0  0  0  0  0  0  0  0  0  0  0
  185.2140  176.6630  146.3500 C   0  0  0  0  0  2  0  0  0  0  0  0
  186.9740  176.2860  143.4920 C   0  0  0  0  0  2  0  0  0  0  0  0
  186.8350  177.2860  144.6350 C   0  0  2  0  0  3  0  0  0  0  0  0
  186.5870  176.6150  146.9820 C   0  0  0  0  0  2  0  0  0  0  0  0
  188.6490  177.7890  146.2730 C   0  0  0  0  0  2  0  0  0  0  0  0
  191.5660  174.3790  140.7770 C   0  0  0  0  0  2  0  0  0  0  0  0
  187.7130  172.6930  139.7810 O   0  0  0  0  0  0  0  0  0  0  0  0
  185.3850  177.3080  141.8470 C   0  0  0  0  0  1  0  0  0  0  0  0
  191.6710  174.4850  146.6140 O   0  0  0  0  0  0  0  0  0  0  0  0
  191.0480  173.9460  145.3550 S   0  0  0  0  0  0  0  0  0  0  0  0
  189.8650  173.1100  145.7480 O   0  0  0  0  0  0  0  0  0  0  0  0
  192.2380  172.8840  144.5380 C   0  0  0  0  0  2  0  0  0  0  0  0
  193.6420  173.0840  145.0220 C   0  0  0  0  0  0  0  0  0  0  0  0
  194.1800  172.1370  145.7770 C   0  0  0  0  0  2  0  0  0  0  0  0
  194.3150  174.9260  143.6740 O   0  0  0  0  0  0  0  0  0  0  0  0
  194.3620  174.3540  144.8010 C   0  0  0  0  0  0  0  0  0  0  0  0
  194.5510  176.1490  146.3220 O   0  0  0  0  0  1  0  0  0  0  0  0
  195.1750  174.9830  145.8810 C   0  0  0  0  0  2  0  0  0  0  0  0
  184.9960  178.8530  145.2090 C   0  0  0  0  0  0  0  0  0  0  0  0
  184.1270  179.1780  146.0600 O   0  0  0  0  0  0  0  0  0  0  0  0
  185.6120  179.8630  144.4180 N   0  0  0  0  0  1  0  0  0  0  0  0
  2 24  1  1  0  0  0
  2 23  1  0  0  0  0
  3 38  1  1  0  0  0
  3 20  1  0  0  0  0
  4  7  1  1  0  0  0
  4 16  1  0  0  0  0
  4 11  1  0  0  0  0
  5 12  1  0  0  0  0
  5 19  1  0  0  0  0
  6 25  1  6  0  0  0
  6 14  1  0  0  0  0
  6  8  1  0  0  0  0
  7  9  1  0  0  0  0
  8 11  1  6  0  0  0
  8 18  1  0  0  0  0
  9 27  1  6  0  0  0
  9 21  1  0  0  0  0
 10 13  1  0  0  0  0
 12 25  1  0  0  0  0
 13 15  1  0  0  0  0
 14  8  1  0  0  0  0
 16  1  1  0  0  0  0
 16 14  1  0  0  0  0
 17  5  2  0  0  0  0
 18 10  1  0  0  0  0
 18 29  1  0  0  0  0
 19 16  1  0  0  0  0
 20 23  1  0  0  0  0
 21 22  1  0  0  0  0
 22  3  1  0  0  0  0
 22  2  1  0  0  0  0
 24 15  1  0  0  0  0
 26 19  2  0  0  0  0
 29 30  2  0  0  0  0
 29 28  2  0  0  0  0
 31 32  1  0  0  0  0
 31 29  1  0  0  0  0
 32 33  2  0  0  0  0
 34 35  2  0  0  0  0
 35 32  1  0  0  0  0
 35 37  1  0  0  0  0
 37 36  1  0  0  0  0
 38 39  2  0  0  0  0
 40 38  1  0  0  0  0
M  END
>  <MODEL>
1

>  <REMARK>
 VINA RESULT:      -7.8      0.000      0.000
  Name = 
  6 active torsions:
  status: ('A' for Active; 'I' for Inactive)
    1  A    between atoms: C_1  and  C_37
    2  A    between atoms: C_1  and  C_38
    3  A    between atoms: C_4  and  C_7
    4  A    between atoms: S_8  and  N_29
    5  A    between atoms: S_8  and  C_37
    6  A    between atoms: C_24  and  C_38
                            x       y       z     vdW  Elec       q    Type
                         _______ _______ _______ _____ _____    ______ ____

>  <TORSDO>
F 6

$$$$
=
 OpenBabel11062419323D

 40 44  0  0  1  0  0  0  0  0999 V2000
  191.9760  174.5850  140.8560 F   0  0  0  0  0  0  0  0  0  0  0  0
  193.6520  176.0570  145.1130 C   0  0  2  0  0  3  0  0  0  0  0  0
  195.7550  175.0900  144.3100 C   0  0  2  0  0  3  0  0  0  0  0  0
  191.2140  172.7570  142.1820 C   0  0  1  0  0  3  0  0  0  0  0  0
  188.8720  172.7040  139.8590 C   0  0  0  0  0  0  0  0  0  0  0  0
  188.6390  174.4260  142.6170 C   0  0  1  0  0  3  0  0  0  0  0  0
  192.6790  172.2960  142.0650 C   0  0  0  0  0  2  0  0  0  0  0  0
  189.9390  174.4510  143.4100 C   0  0  1  0  0  0  0  0  0  0  0  0
  193.6940  172.8640  143.0650 C   0  0  2  0  0  3  0  0  0  0  0  0
  189.8190  175.1280  145.7100 C   0  0  0  0  0  2  0  0  0  0  0  0
  190.8000  173.1940  143.5730 C   0  0  0  0  0  2  0  0  0  0  0  0
  187.7490  173.0340  140.7880 C   0  0  0  0  0  2  0  0  0  0  0  0
  191.0620  174.9920  146.5690 C   0  0  0  0  0  2  0  0  0  0  0  0
  189.9490  174.8870  141.9500 C   0  0  1  0  0  3  0  0  0  0  0  0
  191.7670  176.1980  146.5850 O   0  0  0  0  0  0  0  0  0  0  0  0
  190.8370  173.8770  141.2110 C   0  0  1  0  0  0  0  0  0  0  0  0
  188.6140  171.9290  138.9000 O   0  0  0  0  0  0  0  0  0  0  0  0
  190.1880  175.5560  144.3690 N   0  0  0  0  0  0  0  0  0  0  0  0
  190.2280  173.3020  139.9450 C   0  0  0  0  0  0  0  0  0  0  0  0
  195.8970  176.5980  144.3480 C   0  0  0  0  0  2  0  0  0  0  0  0
  193.5940  174.3700  143.2800 C   0  0  0  0  0  2  0  0  0  0  0  0
  194.2860  174.7790  144.5760 C   0  0  2  0  0  3  0  0  0  0  0  0
  194.7400  177.1150  145.1760 C   0  0  0  0  0  2  0  0  0  0  0  0
  193.1100  175.8190  146.5150 C   0  0  0  0  0  2  0  0  0  0  0  0
  188.1920  173.0230  142.2320 C   0  0  0  0  0  2  0  0  0  0  0  0
  190.9620  173.2280  138.9220 O   0  0  0  0  0  0  0  0  0  0  0  0
  195.0850  172.4800  142.5880 C   0  0  0  0  0  1  0  0  0  0  0  0
  189.5320  177.9540  145.2880 O   0  0  0  0  0  0  0  0  0  0  0  0
  189.4100  177.0980  144.0560 S   0  0  0  0  0  0  0  0  0  0  0  0
  190.1290  177.7940  142.9380 O   0  0  0  0  0  0  0  0  0  0  0  0
  187.6770  176.9730  143.6170 C   0  0  0  0  0  2  0  0  0  0  0  0
  186.7540  177.4210  144.7080 C   0  0  0  0  0  0  0  0  0  0  0  0
  186.5450  176.5940  145.7230 C   0  0  0  0  0  2  0  0  0  0  0  0
  185.9260  179.4770  145.5760 O   0  0  0  0  0  0  0  0  0  0  0  0
  185.9780  178.6720  144.6000 C   0  0  0  0  0  0  0  0  0  0  0  0
  184.3560  177.9730  143.0360 O   0  0  0  0  0  1  0  0  0  0  0  0
  185.2240  179.0140  143.3610 C   0  0  0  0  0  2  0  0  0  0  0  0
  196.6240  174.4480  145.3440 C   0  0  0  0  0  0  0  0  0  0  0  0
  196.1870  174.2840  146.5130 O   0  0  0  0  0  0  0  0  0  0  0  0
  197.9410  174.0150  145.0210 N   0  0  0  0  0  1  0  0  0  0  0  0
  1 16  1  0  0  0  0
  2 23  1  1  0  0  0
  2 24  1  0  0  0  0
  3 20  1  0  0  0  0
  3 22  1  0  0  0  0
  3 38  1  1  0  0  0
  4  7  1  1  0  0  0
  4 11  1  0  0  0  0
  5 19  1  0  0  0  0
  5 12  1  0  0  0  0
  6 25  1  6  0  0  0
  6  8  1  0  0  0  0
  7  9  1  0  0  0  0
  8 11  1  1  0  0  0
  8 18  1  0  0  0  0
  9 27  1  6  0  0  0
  9 21  1  0  0  0  0
 10 13  1  0  0  0  0
 12 25  1  0  0  0  0
 13 15  1  0  0  0  0
 14  6  1  0  0  0  0
 14  8  1  0  0  0  0
 16 14  1  0  0  0  0
 16  4  1  0  0  0  0
 17  5  2  0  0  0  0
 18 10  1  0  0  0  0
 19 16  1  0  0  0  0
 20 23  1  0  0  0  0
 21 22  1  0  0  0  0
 22  2  1  0  0  0  0
 24 15  1  0  0  0  0
 26 19  2  0  0  0  0
 29 18  1  0  0  0  0
 29 28  2  0  0  0  0
 30 29  2  0  0  0  0
 31 29  1  0  0  0  0
 31 32  1  0  0  0  0
 32 33  2  0  0  0  0
 35 32  1  0  0  0  0
 35 34  2  0  0  0  0
 36 37  1  0  0  0  0
 37 35  1  0  0  0  0
 38 39  2  0  0  0  0
 40 38  1  0  0  0  0
M  END
>  <MODEL>
2

>  <REMARK>
 VINA RESULT:      -7.4      2.302      7.087
  Name = 
  6 active torsions:
  status: ('A' for Active; 'I' for Inactive)
    1  A    between atoms: C_1  and  C_37
    2  A    between atoms: C_1  and  C_38
    3  A    between atoms: C_4  and  C_7
    4  A    between atoms: S_8  and  N_29
    5  A    between atoms: S_8  and  C_37
    6  A    between atoms: C_24  and  C_38
                            x       y       z     vdW  Elec       q    Type
                         _______ _______ _______ _____ _____    ______ ____

>  <TORSDO>
F 6

$$$$
=
 OpenBabel11062419323D

 40 44  0  0  1  0  0  0  0  0999 V2000
  191.0300  176.4270  143.3050 F   0  0  0  0  0  0  0  0  0  0  0  0
  193.2990  172.6760  141.3350 C   0  0  2  0  0  3  0  0  0  0  0  0
  191.4790  172.7860  139.6990 C   0  0  2  0  0  3  0  0  0  0  0  0
  190.1560  174.7120  144.7110 C   0  0  1  0  0  3  0  0  0  0  0  0
  190.0380  177.2230  146.8480 C   0  0  0  0  0  0  0  0  0  0  0  0
  192.6110  175.2470  146.5250 C   0  0  1  0  0  3  0  0  0  0  0  0
  189.2320  174.4460  143.5070 C   0  0  0  0  0  2  0  0  0  0  0  0
  192.4940  174.3150  145.3270 C   0  0  1  0  0  0  0  0  0  0  0  0
  189.7580  173.5410  142.3850 C   0  0  2  0  0  3  0  0  0  0  0  0
  193.9510  172.4080  145.2610 C   0  0  0  0  0  2  0  0  0  0  0  0
  191.1720  173.6210  144.9800 C   0  0  0  0  0  2  0  0  0  0  0  0
  191.0260  176.6370  147.8030 C   0  0  0  0  0  2  0  0  0  0  0  0
  193.7350  171.3710  144.1750 C   0  0  0  0  0  2  0  0  0  0  0  0
  192.3470  175.8170  145.1190 C   0  0  1  0  0  3  0  0  0  0  0  0
  194.5650  171.6400  143.0850 O   0  0  0  0  0  0  0  0  0  0  0  0
  190.9090  176.0410  144.6320 C   0  0  1  0  0  0  0  0  0  0  0  0
  189.1010  177.9060  147.3390 O   0  0  0  0  0  0  0  0  0  0  0  0
  193.7240  173.7410  144.7250 N   0  0  0  0  0  0  0  0  0  0  0  0
  190.1510  177.1290  145.3700 C   0  0  0  0  0  0  0  0  0  0  0  0
  192.7660  173.2200  139.0250 C   0  0  0  0  0  2  0  0  0  0  0  0
  191.1850  173.8460  141.9430 C   0  0  0  0  0  2  0  0  0  0  0  0
  191.7830  172.6630  141.1880 C   0  0  2  0  0  3  0  0  0  0  0  0
  193.8920  172.7940  139.9420 C   0  0  0  0  0  2  0  0  0  0  0  0
  193.7710  171.3740  141.9670 C   0  0  0  0  0  2  0  0  0  0  0  0
  191.3910  175.2180  147.4360 C   0  0  0  0  0  2  0  0  0  0  0  0
  189.4790  177.9460  144.6820 O   0  0  0  0  0  0  0  0  0  0  0  0
  188.7980  173.6460  141.2120 C   0  0  0  0  0  1  0  0  0  0  0  0
  195.4960  174.8520  146.3520 O   0  0  0  0  0  0  0  0  0  0  0  0
  195.2130  174.6550  144.8870 S   0  0  0  0  0  0  0  0  0  0  0  0
  196.3440  173.8610  144.3020 O   0  0  0  0  0  0  0  0  0  0  0  0
  195.1830  176.2600  144.0890 C   0  0  0  0  0  2  0  0  0  0  0  0
  195.2590  176.1820  142.5960 C   0  0  0  0  0  0  0  0  0  0  0  0
  194.1230  176.0710  141.9210 C   0  0  0  0  0  2  0  0  0  0  0  0
  197.6350  176.2830  142.5120 O   0  0  0  0  0  0  0  0  0  0  0  0
  196.5520  176.0770  141.8910 C   0  0  0  0  0  0  0  0  0  0  0  0
  197.0650  174.4400  140.2700 O   0  0  0  0  0  1  0  0  0  0  0  0
  196.6210  175.7500  140.4380 C   0  0  0  0  0  2  0  0  0  0  0  0
  191.0060  171.4780  139.1480 C   0  0  0  0  0  0  0  0  0  0  0  0
  190.8810  171.3340  137.9030 O   0  0  0  0  0  0  0  0  0  0  0  0
  190.6980  170.3920  140.0140 N   0  0  0  0  0  1  0  0  0  0  0  0
  1 16  1  0  0  0  0
  2 23  1  6  0  0  0
  2 24  1  0  0  0  0
  3 38  1  6  0  0  0
  3 22  1  0  0  0  0
  4  7  1  6  0  0  0
  4 11  1  0  0  0  0
  5 17  2  0  0  0  0
  5 12  1  0  0  0  0
  6 25  1  1  0  0  0
  8 11  1  6  0  0  0
  8  6  1  0  0  0  0
  9 27  1  6  0  0  0
  9  7  1  0  0  0  0
 13 10  1  0  0  0  0
 14  8  1  0  0  0  0
 14  6  1  0  0  0  0
 15 13  1  0  0  0  0
 16  4  1  0  0  0  0
 16 14  1  0  0  0  0
 16 19  1  0  0  0  0
 18 29  1  0  0  0  0
 18 10  1  0  0  0  0
 18  8  1  0  0  0  0
 19  5  1  0  0  0  0
 20  3  1  0  0  0  0
 20 23  1  0  0  0  0
 21  9  1  0  0  0  0
 22  2  1  0  0  0  0
 22 21  1  0  0  0  0
 24 15  1  0  0  0  0
 25 12  1  0  0  0  0
 26 19  2  0  0  0  0
 29 28  2  0  0  0  0
 30 29  2  0  0  0  0
 31 29  1  0  0  0  0
 32 31  1  0  0  0  0
 33 32  2  0  0  0  0
 35 34  2  0  0  0  0
 35 32  1  0  0  0  0
 36 37  1  0  0  0  0
 37 35  1  0  0  0  0
 38 40  1  0  0  0  0
 39 38  2  0  0  0  0
M  END
>  <MODEL>
3

>  <REMARK>
 VINA RESULT:      -7.4      3.341      7.055
  Name = 
  6 active torsions:
  status: ('A' for Active; 'I' for Inactive)
    1  A    between atoms: C_1  and  C_37
    2  A    between atoms: C_1  and  C_38
    3  A    between atoms: C_4  and  C_7
    4  A    between atoms: S_8  and  N_29
    5  A    between atoms: S_8  and  C_37
    6  A    between atoms: C_24  and  C_38
                            x       y       z     vdW  Elec       q    Type
                         _______ _______ _______ _____ _____    ______ ____

>  <TORSDO>
F 6

$$$$
=
 OpenBabel11062419323D

 40 44  0  0  1  0  0  0  0  0999 V2000
  189.3070  177.2320  141.8940 F   0  0  0  0  0  0  0  0  0  0  0  0
  191.7600  173.1280  142.3780 C   0  0  2  0  0  3  0  0  0  0  0  0
  191.4580  172.9820  139.9520 C   0  0  2  0  0  3  0  0  0  0  0  0
  187.5050  175.8260  142.5740 C   0  0  1  0  0  3  0  0  0  0  0  0
  186.3920  178.6880  143.7800 C   0  0  0  0  0  0  0  0  0  0  0  0
  188.2610  176.6220  145.4720 C   0  0  1  0  0  3  0  0  0  0  0  0
  187.5470  175.3670  141.1040 C   0  0  0  0  0  2  0  0  0  0  0  0
  188.8150  175.4890  144.6180 C   0  0  1  0  0  0  0  0  0  0  0  0
  188.5390  174.2590  140.7260 C   0  0  2  0  0  3  0  0  0  0  0  0
  189.6880  173.5670  145.7590 C   0  0  0  0  0  2  0  0  0  0  0  0
  187.9460  174.7770  143.5750 C   0  0  0  0  0  2  0  0  0  0  0  0
  186.4400  178.2620  145.2110 C   0  0  0  0  0  2  0  0  0  0  0  0
  190.0800  172.3540  144.9350 C   0  0  0  0  0  2  0  0  0  0  0  0
  189.0470  176.9310  144.1830 C   0  0  1  0  0  3  0  0  0  0  0  0
  191.4440  172.3980  144.6380 O   0  0  0  0  0  0  0  0  0  0  0  0
  188.3080  177.0990  142.8480 C   0  0  1  0  0  0  0  0  0  0  0  0
  185.4640  179.4720  143.4460 O   0  0  0  0  0  0  0  0  0  0  0  0
  190.0480  174.7850  145.0480 N   0  0  0  0  0  0  0  0  0  0  0  0
  187.4140  178.3210  142.7670 C   0  0  0  0  0  0  0  0  0  0  0  0
  192.9210  173.2520  140.2440 C   0  0  0  0  0  2  0  0  0  0  0  0
  189.9400  174.4420  141.2980 C   0  0  0  0  0  2  0  0  0  0  0  0
  190.7110  173.1260  141.2740 C   0  0  2  0  0  3  0  0  0  0  0  0
  193.1190  172.9730  141.7180 C   0  0  0  0  0  2  0  0  0  0  0  0
  191.5280  171.9520  143.3170 C   0  0  0  0  0  2  0  0  0  0  0  0
  186.7530  176.7910  145.3500 C   0  0  0  0  0  2  0  0  0  0  0  0
  187.4640  179.0160  141.7140 O   0  0  0  0  0  0  0  0  0  0  0  0
  188.5850  174.1720  139.2090 C   0  0  0  0  0  1  0  0  0  0  0  0
  190.4920  176.1250  147.2910 O   0  0  0  0  0  0  0  0  0  0  0  0
  191.1920  175.6740  146.0370 S   0  0  0  0  0  0  0  0  0  0  0  0
  192.3120  174.7600  146.4380 O   0  0  0  0  0  0  0  0  0  0  0  0
  191.9020  177.1100  145.2320 C   0  0  0  0  0  2  0  0  0  0  0  0
  193.0080  176.7710  144.2810 C   0  0  0  0  0  0  0  0  0  0  0  0
  192.6810  176.4250  143.0430 C   0  0  0  0  0  2  0  0  0  0  0  0
  194.7830  177.2520  145.7910 O   0  0  0  0  0  0  0  0  0  0  0  0
  194.4110  176.6710  144.7310 C   0  0  0  0  0  0  0  0  0  0  0  0
  196.3380  176.7910  143.3740 O   0  0  0  0  0  1  0  0  0  0  0  0
  195.4250  175.9090  143.9480 C   0  0  0  0  0  2  0  0  0  0  0  0
  191.2730  171.6080  139.3900 C   0  0  0  0  0  0  0  0  0  0  0  0
  190.5720  170.7680  140.0130 O   0  0  0  0  0  0  0  0  0  0  0  0
  191.8780  171.2380  138.1560 N   0  0  0  0  0  1  0  0  0  0  0  0
  1 16  1  0  0  0  0
  2 23  1  6  0  0  0
  2 24  1  0  0  0  0
  3 38  1  1  0  0  0
  3 20  1  0  0  0  0
  3 22  1  0  0  0  0
  4  7  1  6  0  0  0
  4 16  1  0  0  0  0
  4 11  1  0  0  0  0
  5 12  1  0  0  0  0
  6 25  1  6  0  0  0
  8 11  1  6  0  0  0
  8 18  1  0  0  0  0
  8  6  1  0  0  0  0
  9 27  1  6  0  0  0
  9  7  1  0  0  0  0
  9 21  1  0  0  0  0
 12 25  1  0  0  0  0
 13 10  1  0  0  0  0
 14  8  1  0  0  0  0
 14  6  1  0  0  0  0
 15 13  1  0  0  0  0
 16 14  1  0  0  0  0
 17  5  2  0  0  0  0
 18 10  1  0  0  0  0
 18 29  1  0  0  0  0
 19 16  1  0  0  0  0
 19  5  1  0  0  0  0
 20 23  1  0  0  0  0
 22 21  1  0  0  0  0
 22  2  1  0  0  0  0
 24 15  1  0  0  0  0
 26 19  2  0  0  0  0
 29 30  2  0  0  0  0
 29 28  2  0  0  0  0
 31 29  1  0  0  0  0
 32 35  1  0  0  0  0
 32 31  1  0  0  0  0
 33 32  2  0  0  0  0
 35 34  2  0  0  0  0
 36 37  1  0  0  0  0
 37 35  1  0  0  0  0
 38 39  2  0  0  0  0
 40 38  1  0  0  0  0
M  END
>  <MODEL>
4

>  <REMARK>
 VINA RESULT:      -7.4      2.317      6.175
  Name = 
  6 active torsions:
  status: ('A' for Active; 'I' for Inactive)
    1  A    between atoms: C_1  and  C_37
    2  A    between atoms: C_1  and  C_38
    3  A    between atoms: C_4  and  C_7
    4  A    between atoms: S_8  and  N_29
    5  A    between atoms: S_8  and  C_37
    6  A    between atoms: C_24  and  C_38
                            x       y       z     vdW  Elec       q    Type
                         _______ _______ _______ _____ _____    ______ ____

>  <TORSDO>
F 6

$$$$
=
 OpenBabel11062419323D

 40 44  0  0  1  0  0  0  0  0999 V2000
  187.9690  175.5750  146.8090 F   0  0  0  0  0  0  0  0  0  0  0  0
  191.9370  175.3820  144.1040 C   0  0  2  0  0  3  0  0  0  0  0  0
  193.0500  174.9920  146.2510 C   0  0  2  0  0  3  0  0  0  0  0  0
  188.3700  177.9170  146.6080 C   0  0  1  0  0  3  0  0  0  0  0  0
  185.0870  177.9930  146.9230 C   0  0  0  0  0  0  0  0  0  0  0  0
  186.6200  177.7780  144.0540 C   0  0  1  0  0  3  0  0  0  0  0  0
  189.4230  177.6470  147.7000 C   0  0  0  0  0  2  0  0  0  0  0  0
  188.1170  177.5410  144.2000 C   0  0  1  0  0  0  0  0  0  0  0  0
  190.8100  177.1640  147.2560 C   0  0  2  0  0  3  0  0  0  0  0  0
  189.4950  177.9540  142.2780 C   0  0  0  0  0  2  0  0  0  0  0  0
  188.9440  178.2830  145.2550 C   0  0  0  0  0  2  0  0  0  0  0  0
  184.8310  178.5540  145.5620 C   0  0  0  0  0  2  0  0  0  0  0  0
  191.0020  177.8990  142.4450 C   0  0  0  0  0  2  0  0  0  0  0  0
  187.1420  176.5970  144.8930 C   0  0  1  0  0  3  0  0  0  0  0  0
  191.4740  176.6280  142.1100 O   0  0  0  0  0  0  0  0  0  0  0  0
  187.3850  176.7650  146.3990 C   0  0  1  0  0  0  0  0  0  0  0  0
  184.3080  178.3510  147.8460 O   0  0  0  0  0  0  0  0  0  0  0  0
  188.8700  176.9160  143.0840 N   0  0  0  0  0  0  0  0  0  0  0  0
  186.1300  176.9800  147.2240 C   0  0  0  0  0  0  0  0  0  0  0  0
  193.0950  173.7120  145.4400 C   0  0  0  0  0  2  0  0  0  0  0  0
  190.7890  176.0570  146.2090 C   0  0  0  0  0  2  0  0  0  0  0  0
  192.1360  175.9550  145.5010 C   0  0  2  0  0  3  0  0  0  0  0  0
  192.7370  174.0940  144.0200 C   0  0  0  0  0  2  0  0  0  0  0  0
  192.4620  176.3600  143.0610 C   0  0  0  0  0  2  0  0  0  0  0  0
  186.1110  178.9580  144.8700 C   0  0  0  0  0  2  0  0  0  0  0  0
  186.0160  176.3320  148.3010 O   0  0  0  0  0  0  0  0  0  0  0  0
  191.5670  176.7180  148.4970 C   0  0  0  0  0  1  0  0  0  0  0  0
  186.8050  175.2900  142.7460 O   0  0  0  0  0  0  0  0  0  0  0  0
  187.9900  175.8460  142.0060 S   0  0  0  0  0  0  0  0  0  0  0  0
  187.4750  176.6370  140.8390 O   0  0  0  0  0  0  0  0  0  0  0  0
  188.9610  174.4790  141.3720 C   0  0  0  0  0  2  0  0  0  0  0  0
  188.6520  173.1730  142.0370 C   0  0  0  0  0  0  0  0  0  0  0  0
  187.5750  172.5120  141.6370 C   0  0  0  0  0  2  0  0  0  0  0  0
  189.3160  173.2830  144.3200 O   0  0  0  0  0  0  0  0  0  0  0  0
  189.4230  172.6980  143.2030 C   0  0  0  0  0  0  0  0  0  0  0  0
  191.0230  171.5830  141.8740 O   0  0  0  0  0  1  0  0  0  0  0  0
  190.3560  171.5400  143.0970 C   0  0  0  0  0  2  0  0  0  0  0  0
  194.4190  175.5740  146.4010 C   0  0  0  0  0  0  0  0  0  0  0  0
  194.5520  176.7710  146.7700 O   0  0  0  0  0  0  0  0  0  0  0  0
  195.5770  174.7910  146.1370 N   0  0  0  0  0  1  0  0  0  0  0  0
  2 24  1  6  0  0  0
  2 22  1  0  0  0  0
  3 38  1  6  0  0  0
  4 11  1  6  0  0  0
  4  7  1  0  0  0  0
  5 19  1  0  0  0  0
  5 17  2  0  0  0  0
  6  8  1  0  0  0  0
  6 25  1  1  0  0  0
  6 14  1  0  0  0  0
  8 14  1  0  0  0  0
  8 11  1  1  0  0  0
  9  7  1  0  0  0  0
  9 27  1  1  0  0  0
 10 13  1  0  0  0  0
 10 18  1  0  0  0  0
 12  5  1  0  0  0  0
 14 16  1  0  0  0  0
 15 13  1  0  0  0  0
 15 24  1  0  0  0  0
 16  4  1  0  0  0  0
 16  1  1  0  0  0  0
 16 19  1  0  0  0  0
 18  8  1  0  0  0  0
 19 26  2  0  0  0  0
 20  3  1  0  0  0  0
 21  9  1  0  0  0  0
 22 21  1  0  0  0  0
 22  3  1  0  0  0  0
 23  2  1  0  0  0  0
 23 20  1  0  0  0  0
 25 12  1  0  0  0  0
 29 28  2  0  0  0  0
 29 18  1  0  0  0  0
 30 29  2  0  0  0  0
 31 29  1  0  0  0  0
 31 32  1  0  0  0  0
 32 35  1  0  0  0  0
 33 32  2  0  0  0  0
 35 34  2  0  0  0  0
 36 37  1  0  0  0  0
 37 35  1  0  0  0  0
 38 39  2  0  0  0  0
 40 38  1  0  0  0  0
M  END
>  <MODEL>
5

>  <REMARK>
 VINA RESULT:      -7.2      2.465      7.097
  Name = 
  6 active torsions:
  status: ('A' for Active; 'I' for Inactive)
    1  A    between atoms: C_1  and  C_37
    2  A    between atoms: C_1  and  C_38
    3  A    between atoms: C_4  and  C_7
    4  A    between atoms: S_8  and  N_29
    5  A    between atoms: S_8  and  C_37
    6  A    between atoms: C_24  and  C_38
                            x       y       z     vdW  Elec       q    Type
                         _______ _______ _______ _____ _____    ______ ____

>  <TORSDO>
F 6

$$$$
=
 OpenBabel11062419323D

 40 44  0  0  1  0  0  0  0  0999 V2000
  187.6810  173.5690  142.3010 F   0  0  0  0  0  0  0  0  0  0  0  0
  188.5130  176.5580  145.9710 C   0  0  2  0  0  3  0  0  0  0  0  0
  186.2030  177.2610  145.5630 C   0  0  2  0  0  3  0  0  0  0  0  0
  188.8070  175.2930  141.1000 C   0  0  1  0  0  3  0  0  0  0  0  0
  189.6600  172.7250  139.2120 C   0  0  0  0  0  0  0  0  0  0  0  0
  191.4150  173.7530  141.7600 C   0  0  1  0  0  3  0  0  0  0  0  0
  187.4390  175.9970  141.1840 C   0  0  0  0  0  2  0  0  0  0  0  0
  190.6940  174.8100  142.5870 C   0  0  1  0  0  0  0  0  0  0  0  0
  187.1240  176.8030  142.4510 C   0  0  2  0  0  3  0  0  0  0  0  0
  192.0130  176.1140  144.1100 C   0  0  0  0  0  2  0  0  0  0  0  0
  189.9020  175.9410  141.9230 C   0  0  0  0  0  2  0  0  0  0  0  0
  191.1240  172.8270  139.4940 C   0  0  0  0  0  2  0  0  0  0  0  0
  191.3570  177.2880  144.8120 C   0  0  0  0  0  2  0  0  0  0  0  0
  190.0030  173.4790  142.3120 C   0  0  1  0  0  3  0  0  0  0  0  0
  190.8840  176.8920  146.0650 O   0  0  0  0  0  0  0  0  0  0  0  0
  188.7640  173.8090  141.4680 C   0  0  1  0  0  0  0  0  0  0  0  0
  189.3240  172.3410  138.0610 O   0  0  0  0  0  0  0  0  0  0  0  0
  191.0720  175.0080  144.0080 N   0  0  0  0  0  0  0  0  0  0  0  0
  188.5980  172.9560  140.2240 C   0  0  0  0  0  0  0  0  0  0  0  0
  186.2570  176.5090  146.8780 C   0  0  0  0  0  2  0  0  0  0  0  0
  187.4740  176.0960  143.7550 C   0  0  0  0  0  2  0  0  0  0  0  0
  187.5670  177.0940  144.9040 C   0  0  2  0  0  3  0  0  0  0  0  0
  187.7190  176.4200  147.2590 C   0  0  0  0  0  2  0  0  0  0  0  0
  189.6540  177.5410  146.1960 C   0  0  0  0  0  2  0  0  0  0  0  0
  191.4610  174.0770  140.2730 C   0  0  0  0  0  2  0  0  0  0  0  0
  187.4480  172.5000  139.9740 O   0  0  0  0  0  0  0  0  0  0  0  0
  185.6490  177.1680  142.4160 C   0  0  0  0  0  1  0  0  0  0  0  0
  192.1390  174.0880  146.2530 O   0  0  0  0  0  0  0  0  0  0  0  0
  191.7470  173.6380  144.8720 S   0  0  0  0  0  0  0  0  0  0  0  0
  190.6930  172.5790  145.0140 O   0  0  0  0  0  0  0  0  0  0  0  0
  193.1790  172.9020  144.0830 C   0  0  0  0  0  2  0  0  0  0  0  0
  193.4640  171.5090  144.5520 C   0  0  0  0  0  0  0  0  0  0  0  0
  194.3510  171.3480  145.5240 C   0  0  0  0  0  2  0  0  0  0  0  0
  192.7480  169.2400  144.4860 O   0  0  0  0  0  0  0  0  0  0  0  0
  192.8980  170.3310  143.8640 C   0  0  0  0  0  0  0  0  0  0  0  0
  191.1560  170.0850  142.2900 O   0  0  0  0  0  1  0  0  0  0  0  0
  192.5110  170.3830  142.4250 C   0  0  0  0  0  2  0  0  0  0  0  0
  185.9020  178.7090  145.7920 C   0  0  0  0  0  0  0  0  0  0  0  0
  185.9420  179.5150  144.8250 O   0  0  0  0  0  0  0  0  0  0  0  0
  185.5670  179.1870  147.0900 N   0  0  0  0  0  1  0  0  0  0  0  0
  2 24  1  1  0  0  0
  2 23  1  0  0  0  0
  3 38  1  1  0  0  0
  3 20  1  0  0  0  0
  4  7  1  1  0  0  0
  4 16  1  0  0  0  0
  4 11  1  0  0  0  0
  5 12  1  0  0  0  0
  5 19  1  0  0  0  0
  6 25  1  6  0  0  0
  6 14  1  0  0  0  0
  6  8  1  0  0  0  0
  7  9  1  0  0  0  0
  8 11  1  6  0  0  0
  8 18  1  0  0  0  0
  9 27  1  1  0  0  0
  9 21  1  0  0  0  0
 10 13  1  0  0  0  0
 12 25  1  0  0  0  0
 13 15  1  0  0  0  0
 14  8  1  0  0  0  0
 15 24  1  0  0  0  0
 16  1  1  0  0  0  0
 16 14  1  0  0  0  0
 17  5  2  0  0  0  0
 18 10  1  0  0  0  0
 18 29  1  0  0  0  0
 19 16  1  0  0  0  0
 20 23  1  0  0  0  0
 21 22  1  0  0  0  0
 22  3  1  0  0  0  0
 22  2  1  0  0  0  0
 26 19  2  0  0  0  0
 29 30  2  0  0  0  0
 29 28  2  0  0  0  0
 31 32  1  0  0  0  0
 31 29  1  0  0  0  0
 32 33  2  0  0  0  0
 35 34  2  0  0  0  0
 35 32  1  0  0  0  0
 36 37  1  0  0  0  0
 37 35  1  0  0  0  0
 38 40  1  0  0  0  0
 39 38  2  0  0  0  0
M  END
>  <MODEL>
6

>  <REMARK>
 VINA RESULT:      -7.2      1.572      2.203
  Name = 
  6 active torsions:
  status: ('A' for Active; 'I' for Inactive)
    1  A    between atoms: C_1  and  C_37
    2  A    between atoms: C_1  and  C_38
    3  A    between atoms: C_4  and  C_7
    4  A    between atoms: S_8  and  N_29
    5  A    between atoms: S_8  and  C_37
    6  A    between atoms: C_24  and  C_38
                            x       y       z     vdW  Elec       q    Type
                         _______ _______ _______ _____ _____    ______ ____

>  <TORSDO>
F 6

$$$$
=
 OpenBabel11062419323D

 40 44  0  0  1  0  0  0  0  0999 V2000
  193.0940  176.3500  144.2150 F   0  0  0  0  0  0  0  0  0  0  0  0
  188.6760  175.6630  142.4520 C   0  0  2  0  0  3  0  0  0  0  0  0
  188.1110  177.5790  143.8700 C   0  0  2  0  0  3  0  0  0  0  0  0
  192.4030  174.5960  145.6750 C   0  0  1  0  0  3  0  0  0  0  0  0
  195.6470  173.9930  145.6630 C   0  0  0  0  0  0  0  0  0  0  0  0
  193.5560  172.6620  143.5460 C   0  0  1  0  0  3  0  0  0  0  0  0
  191.6520  175.7340  146.3920 C   0  0  0  0  0  2  0  0  0  0  0  0
  192.1620  173.2700  143.6280 C   0  0  1  0  0  0  0  0  0  0  0  0
  190.2630  176.1200  145.8660 C   0  0  2  0  0  3  0  0  0  0  0  0
  190.3600  172.0510  142.6160 C   0  0  0  0  0  2  0  0  0  0  0  0
  191.5090  173.5910  144.9770 C   0  0  0  0  0  2  0  0  0  0  0  0
  195.5350  172.6510  145.0150 C   0  0  0  0  0  2  0  0  0  0  0  0
  188.9420  172.5420  142.8370 C   0  0  0  0  0  2  0  0  0  0  0  0
  193.3630  174.1850  143.4170 C   0  0  1  0  0  3  0  0  0  0  0  0
  188.5510  173.3670  141.7800 O   0  0  0  0  0  0  0  0  0  0  0  0
  193.4390  175.0820  144.6600 C   0  0  1  0  0  0  0  0  0  0  0  0
  196.5640  174.1440  146.5130 O   0  0  0  0  0  0  0  0  0  0  0  0
  191.2570  173.1850  142.4550 N   0  0  0  0  0  0  0  0  0  0  0  0
  194.8130  175.1660  145.2990 C   0  0  0  0  0  0  0  0  0  0  0  0
  188.0300  178.0080  142.4180 C   0  0  0  0  0  2  0  0  0  0  0  0
  190.1760  176.2560  144.3510 C   0  0  0  0  0  2  0  0  0  0  0  0
  188.7260  176.1840  143.8830 C   0  0  2  0  0  3  0  0  0  0  0  0
  188.0240  176.7370  141.5970 C   0  0  0  0  0  2  0  0  0  0  0  0
  187.8310  174.3980  142.3880 C   0  0  0  0  0  2  0  0  0  0  0  0
  194.0970  172.2030  144.8930 C   0  0  0  0  0  2  0  0  0  0  0  0
  195.2300  176.3060  145.6450 O   0  0  0  0  0  0  0  0  0  0  0  0
  189.8500  177.4140  146.5470 C   0  0  0  0  0  1  0  0  0  0  0  0
  192.9280  171.9000  140.8490 O   0  0  0  0  0  0  0  0  0  0  0  0
  191.9920  173.0780  140.8650 S   0  0  0  0  0  0  0  0  0  0  0  0
  190.9200  172.8290  139.8440 O   0  0  0  0  0  0  0  0  0  0  0  0
  192.9050  174.5410  140.3750 C   0  0  0  0  0  2  0  0  0  0  0  0
  194.2210  174.2300  139.7310 C   0  0  0  0  0  0  0  0  0  0  0  0
  194.2090  173.7280  138.5040 C   0  0  0  0  0  2  0  0  0  0  0  0
  196.0010  173.3020  141.0100 O   0  0  0  0  0  0  0  0  0  0  0  0
  195.4910  174.3300  140.4780 C   0  0  0  0  0  0  0  0  0  0  0  0
  195.6770  176.3100  141.7490 O   0  0  0  0  0  1  0  0  0  0  0  0
  196.1920  175.6350  140.6450 C   0  0  0  0  0  2  0  0  0  0  0  0
  186.7520  177.5610  144.4950 C   0  0  0  0  0  0  0  0  0  0  0  0
  186.3910  176.5650  145.1750 O   0  0  0  0  0  0  0  0  0  0  0  0
  185.8610  178.6590  144.3340 N   0  0  0  0  0  1  0  0  0  0  0  0
  1 16  1  0  0  0  0
  2 23  1  6  0  0  0
  2 22  1  0  0  0  0
  3 22  1  0  0  0  0
  3 38  1  6  0  0  0
  4 11  1  6  0  0  0
  4  7  1  0  0  0  0
  5 17  2  0  0  0  0
  6  8  1  0  0  0  0
  6 25  1  1  0  0  0
  8 11  1  1  0  0  0
  9  7  1  0  0  0  0
  9 27  1  1  0  0  0
 10 13  1  0  0  0  0
 12  5  1  0  0  0  0
 14  6  1  0  0  0  0
 14  8  1  0  0  0  0
 14 16  1  0  0  0  0
 15 24  1  0  0  0  0
 15 13  1  0  0  0  0
 16 19  1  0  0  0  0
 16  4  1  0  0  0  0
 18 10  1  0  0  0  0
 18  8  1  0  0  0  0
 19 26  2  0  0  0  0
 19  5  1  0  0  0  0
 20  3  1  0  0  0  0
 21  9  1  0  0  0  0
 22 21  1  0  0  0  0
 23 20  1  0  0  0  0
 24  2  1  0  0  0  0
 25 12  1  0  0  0  0
 28 29  2  0  0  0  0
 29 18  1  0  0  0  0
 30 29  2  0  0  0  0
 31 29  1  0  0  0  0
 32 31  1  0  0  0  0
 32 35  1  0  0  0  0
 33 32  2  0  0  0  0
 35 37  1  0  0  0  0
 35 34  2  0  0  0  0
 37 36  1  0  0  0  0
 38 39  2  0  0  0  0
 40 38  1  0  0  0  0
M  END
>  <MODEL>
7

>  <REMARK>
 VINA RESULT:      -7.2      2.478      5.563
  Name = 
  6 active torsions:
  status: ('A' for Active; 'I' for Inactive)
    1  A    between atoms: C_1  and  C_37
    2  A    between atoms: C_1  and  C_38
    3  A    between atoms: C_4  and  C_7
    4  A    between atoms: S_8  and  N_29
    5  A    between atoms: S_8  and  C_37
    6  A    between atoms: C_24  and  C_38
                            x       y       z     vdW  Elec       q    Type
                         _______ _______ _______ _____ _____    ______ ____

>  <TORSDO>
F 6

$$$$
=
 OpenBabel11062419323D

 40 44  0  0  1  0  0  0  0  0999 V2000
  192.8610  176.2450  143.7860 F   0  0  0  0  0  0  0  0  0  0  0  0
  188.3890  175.5230  142.1790 C   0  0  2  0  0  3  0  0  0  0  0  0
  187.8940  177.5460  143.4670 C   0  0  2  0  0  3  0  0  0  0  0  0
  192.1740  174.6150  145.3840 C   0  0  1  0  0  3  0  0  0  0  0  0
  195.4040  173.9470  145.3410 C   0  0  0  0  0  0  0  0  0  0  0  0
  193.2380  172.5100  143.3740 C   0  0  1  0  0  3  0  0  0  0  0  0
  191.4610  175.8160  146.0340 C   0  0  0  0  0  2  0  0  0  0  0  0
  191.8580  173.1510  143.4440 C   0  0  1  0  0  0  0  0  0  0  0  0
  190.0670  176.1910  145.5140 C   0  0  2  0  0  3  0  0  0  0  0  0
  190.0100  171.8980  142.5640 C   0  0  0  0  0  2  0  0  0  0  0  0
  191.2450  173.5810  144.7810 C   0  0  0  0  0  2  0  0  0  0  0  0
  195.2520  172.5650  144.7950 C   0  0  0  0  0  2  0  0  0  0  0  0
  188.6070  172.4330  142.7810 C   0  0  0  0  0  2  0  0  0  0  0  0
  193.0710  174.0230  143.1400 C   0  0  1  0  0  3  0  0  0  0  0  0
  188.2060  173.1870  141.6770 O   0  0  0  0  0  0  0  0  0  0  0  0
  193.1930  175.0060  144.3130 C   0  0  1  0  0  0  0  0  0  0  0  0
  196.3450  174.1410  146.1560 O   0  0  0  0  0  0  0  0  0  0  0  0
  190.9240  173.0000  142.3010 N   0  0  0  0  0  0  0  0  0  0  0  0
  194.5830  175.1080  144.9120 C   0  0  0  0  0  0  0  0  0  0  0  0
  187.7860  177.8720  141.9900 C   0  0  0  0  0  2  0  0  0  0  0  0
  189.9450  176.2200  143.9940 C   0  0  0  0  0  2  0  0  0  0  0  0
  188.4840  176.1440  143.5670 C   0  0  2  0  0  3  0  0  0  0  0  0
  187.7360  176.5450  141.2640 C   0  0  0  0  0  2  0  0  0  0  0  0
  187.5200  174.2740  142.2260 C   0  0  0  0  0  2  0  0  0  0  0  0
  193.8040  172.1390  144.7380 C   0  0  0  0  0  2  0  0  0  0  0  0
  195.0300  176.2610  145.1660 O   0  0  0  0  0  0  0  0  0  0  0  0
  189.6940  177.5390  146.1090 C   0  0  0  0  0  1  0  0  0  0  0  0
  192.1280  174.0890  140.2070 O   0  0  0  0  0  0  0  0  0  0  0  0
  191.6170  172.7640  140.7070 S   0  0  0  0  0  0  0  0  0  0  0  0
  192.7860  171.8290  140.8110 O   0  0  0  0  0  0  0  0  0  0  0  0
  190.4730  172.0990  139.4970 C   0  0  0  0  0  2  0  0  0  0  0  0
  190.6420  172.6930  138.1320 C   0  0  0  0  0  0  0  0  0  0  0  0
  191.6850  172.3070  137.4110 C   0  0  0  0  0  2  0  0  0  0  0  0
  190.1130  174.4760  136.6480 O   0  0  0  0  0  0  0  0  0  0  0  0
  189.7720  173.7840  137.6510 C   0  0  0  0  0  0  0  0  0  0  0  0
  187.7080  174.9190  137.5090 O   0  0  0  0  0  1  0  0  0  0  0  0
  188.4900  174.1150  138.3350 C   0  0  0  0  0  2  0  0  0  0  0  0
  186.5500  177.6000  144.1220 C   0  0  0  0  0  0  0  0  0  0  0  0
  185.6680  178.3780  143.6740 O   0  0  0  0  0  0  0  0  0  0  0  0
  186.2540  176.7790  145.2460 N   0  0  0  0  0  1  0  0  0  0  0  0
  1 16  1  0  0  0  0
  2 23  1  6  0  0  0
  2 24  1  0  0  0  0
  2 22  1  0  0  0  0
  3 22  1  0  0  0  0
  3 38  1  6  0  0  0
  4 11  1  6  0  0  0
  4  7  1  0  0  0  0
  5 17  2  0  0  0  0
  6  8  1  0  0  0  0
  6 25  1  1  0  0  0
  8 11  1  1  0  0  0
  9  7  1  0  0  0  0
  9 27  1  6  0  0  0
 10 13  1  0  0  0  0
 12  5  1  0  0  0  0
 14  6  1  0  0  0  0
 14  8  1  0  0  0  0
 14 16  1  0  0  0  0
 15 24  1  0  0  0  0
 15 13  1  0  0  0  0
 16 19  1  0  0  0  0
 16  4  1  0  0  0  0
 18 10  1  0  0  0  0
 18  8  1  0  0  0  0
 19 26  2  0  0  0  0
 19  5  1  0  0  0  0
 20  3  1  0  0  0  0
 21  9  1  0  0  0  0
 22 21  1  0  0  0  0
 23 20  1  0  0  0  0
 25 12  1  0  0  0  0
 28 29  2  0  0  0  0
 29 30  2  0  0  0  0
 29 18  1  0  0  0  0
 31 29  1  0  0  0  0
 32 31  1  0  0  0  0
 33 32  2  0  0  0  0
 34 35  2  0  0  0  0
 35 32  1  0  0  0  0
 35 37  1  0  0  0  0
 36 37  1  0  0  0  0
 38 40  1  0  0  0  0
 39 38  2  0  0  0  0
M  END
>  <MODEL>
8

>  <REMARK>
 VINA RESULT:      -7.2      2.495      6.181
  Name = 
  6 active torsions:
  status: ('A' for Active; 'I' for Inactive)
    1  A    between atoms: C_1  and  C_37
    2  A    between atoms: C_1  and  C_38
    3  A    between atoms: C_4  and  C_7
    4  A    between atoms: S_8  and  N_29
    5  A    between atoms: S_8  and  C_37
    6  A    between atoms: C_24  and  C_38
                            x       y       z     vdW  Elec       q    Type
                         _______ _______ _______ _____ _____    ______ ____

>  <TORSDO>
F 6

$$$$
=
 OpenBabel11062419323D

 40 44  0  0  1  0  0  0  0  0999 V2000
  192.6180  172.0080  144.5680 F   0  0  0  0  0  0  0  0  0  0  0  0
  189.3830  175.0970  142.8110 C   0  0  2  0  0  3  0  0  0  0  0  0
  188.9690  173.3120  141.1860 C   0  0  2  0  0  3  0  0  0  0  0  0
  194.0920  173.3550  143.2660 C   0  0  1  0  0  3  0  0  0  0  0  0
  196.2120  172.4120  145.6110 C   0  0  0  0  0  0  0  0  0  0  0  0
  194.3880  175.1060  145.8060 C   0  0  1  0  0  3  0  0  0  0  0  0
  193.5340  172.5200  142.0990 C   0  0  0  0  0  2  0  0  0  0  0  0
  193.3430  175.1940  144.7020 C   0  0  1  0  0  0  0  0  0  0  0  0
  192.2190  172.9750  141.4540 C   0  0  2  0  0  3  0  0  0  0  0  0
  192.3290  177.3330  144.3050 C   0  0  0  0  0  2  0  0  0  0  0  0
  193.6750  174.8120  143.2560 C   0  0  0  0  0  2  0  0  0  0  0  0
  196.4400  173.7860  146.1520 C   0  0  0  0  0  2  0  0  0  0  0  0
  191.4200  177.4890  143.1000 C   0  0  0  0  0  2  0  0  0  0  0  0
  193.3960  173.9490  145.5800 C   0  0  1  0  0  3  0  0  0  0  0  0
  190.0900  177.2870  143.4740 O   0  0  0  0  0  0  0  0  0  0  0  0
  193.7640  172.7870  144.6480 C   0  0  1  0  0  0  0  0  0  0  0  0
  197.1900  171.6180  145.6340 O   0  0  0  0  0  0  0  0  0  0  0  0
  192.1300  176.0240  144.9080 N   0  0  0  0  0  0  0  0  0  0  0  0
  194.8960  171.9080  145.1460 C   0  0  0  0  0  0  0  0  0  0  0  0
  187.7660  173.4230  142.1030 C   0  0  0  0  0  2  0  0  0  0  0  0
  191.1260  173.3550  142.4470 C   0  0  0  0  0  2  0  0  0  0  0  0
  190.0550  174.2060  141.7740 C   0  0  2  0  0  3  0  0  0  0  0  0
  187.9060  174.7420  142.8300 C   0  0  0  0  0  2  0  0  0  0  0  0
  189.5360  176.5600  142.4190 C   0  0  0  0  0  2  0  0  0  0  0  0
  195.7950  174.8450  145.2880 C   0  0  0  0  0  2  0  0  0  0  0  0
  194.7510  170.6570  145.0560 O   0  0  0  0  0  0  0  0  0  0  0  0
  191.7440  171.8660  140.5300 C   0  0  0  0  0  1  0  0  0  0  0  0
  191.3100  174.9150  147.1720 O   0  0  0  0  0  0  0  0  0  0  0  0
  191.5760  176.2630  146.5560 S   0  0  0  0  0  0  0  0  0  0  0  0
  192.6630  176.9260  147.3500 O   0  0  0  0  0  0  0  0  0  0  0  0
  190.0910  177.2580  146.6980 C   0  0  0  0  0  2  0  0  0  0  0  0
  188.8310  176.4750  146.4950 C   0  0  0  0  0  0  0  0  0  0  0  0
  188.9230  175.1540  146.4260 C   0  0  0  0  0  2  0  0  0  0  0  0
  187.3930  177.8520  145.1910 O   0  0  0  0  0  0  0  0  0  0  0  0
  187.5410  177.1420  146.2270 C   0  0  0  0  0  0  0  0  0  0  0  0
  185.2180  176.7910  146.4540 O   0  0  0  0  0  1  0  0  0  0  0  0
  186.3920  177.0170  147.1690 C   0  0  0  0  0  2  0  0  0  0  0  0
  188.6200  173.7490  139.7980 C   0  0  0  0  0  0  0  0  0  0  0  0
  188.1920  174.9160  139.6010 O   0  0  0  0  0  0  0  0  0  0  0  0
  188.7710  172.8620  138.6950 N   0  0  0  0  0  1  0  0  0  0  0  0
  1 16  1  0  0  0  0
  2 24  1  6  0  0  0
  2 23  1  0  0  0  0
  3 38  1  6  0  0  0
  3 22  1  0  0  0  0
  3 20  1  0  0  0  0
  4  7  1  6  0  0  0
  4 16  1  0  0  0  0
  5 17  2  0  0  0  0
  5 12  1  0  0  0  0
  6 25  1  6  0  0  0
  8 11  1  6  0  0  0
  8 18  1  0  0  0  0
  8 14  1  0  0  0  0
  8  6  1  0  0  0  0
  9 27  1  1  0  0  0
  9  7  1  0  0  0  0
  9 21  1  0  0  0  0
 10 18  1  0  0  0  0
 11  4  1  0  0  0  0
 13 15  1  0  0  0  0
 13 10  1  0  0  0  0
 14  6  1  0  0  0  0
 16 19  1  0  0  0  0
 16 14  1  0  0  0  0
 18 29  1  0  0  0  0
 19  5  1  0  0  0  0
 20 23  1  0  0  0  0
 22 21  1  0  0  0  0
 22  2  1  0  0  0  0
 24 15  1  0  0  0  0
 25 12  1  0  0  0  0
 26 19  2  0  0  0  0
 29 31  1  0  0  0  0
 29 28  2  0  0  0  0
 29 30  2  0  0  0  0
 32 31  1  0  0  0  0
 33 32  2  0  0  0  0
 34 35  2  0  0  0  0
 35 32  1  0  0  0  0
 35 37  1  0  0  0  0
 36 37  1  0  0  0  0
 39 38  2  0  0  0  0
 40 38  1  0  0  0  0
M  END
>  <MODEL>
9

>  <REMARK>
 VINA RESULT:      -7.2      2.472      6.434
  Name = 
  6 active torsions:
  status: ('A' for Active; 'I' for Inactive)
    1  A    between atoms: C_1  and  C_37
    2  A    between atoms: C_1  and  C_38
    3  A    between atoms: C_4  and  C_7
    4  A    between atoms: S_8  and  N_29
    5  A    between atoms: S_8  and  C_37
    6  A    between atoms: C_24  and  C_38
                            x       y       z     vdW  Elec       q    Type
                         _______ _______ _______ _____ _____    ______ ____

>  <TORSDO>
F 6

$$$$
