=
 OpenBabel11072409383D

 25 28  0  0  1  0  0  0  0  0999 V2000
  189.0600  175.5420  143.6790 C   0  0  0  0  0  3  0  0  0  0  0  0
  186.8630  177.8210  146.5920 C   0  0  0  0  0  0  0  0  0  0  0  0
  187.8550  175.9300  141.4910 C   0  0  0  0  0  0  0  0  0  0  0  0
  186.1490  176.2130  143.2210 C   0  0  0  0  0  2  0  0  0  0  0  0
  187.8890  175.6620  140.2620 O   0  0  0  0  0  0  0  0  0  0  0  0
  186.1780  178.5650  147.5560 C   0  0  0  0  0  3  0  0  0  0  0  0
  188.8930  175.3580  142.3630 C   0  0  0  0  0  3  0  0  0  0  0  0
  188.1910  177.4720  146.7970 C   0  0  0  0  0  3  0  0  0  0  0  0
  184.8760  178.9010  147.3600 N   0  0  0  0  0  0  0  0  0  0  0  0
  186.8870  176.6690  144.4410 C   0  0  0  0  0  0  0  0  0  0  0  0
  184.2060  178.5300  146.2370 C   0  0  0  0  0  3  0  0  0  0  0  0
  186.7780  176.8250  141.9920 C   0  0  0  0  0  2  0  0  0  0  0  0
  188.2530  176.3350  144.6450 C   0  0  0  0  0  0  0  0  0  0  0  0
  188.8920  176.7290  145.8420 C   0  0  0  0  0  0  0  0  0  0  0  0
  184.8510  177.7840  145.2480 C   0  0  0  0  0  3  0  0  0  0  0  0
  186.1970  177.4220  145.4160 C   0  0  0  0  0  0  0  0  0  0  0  0
  190.0050  174.7550  147.7440 O   0  0  0  0  0  0  0  0  0  0  0  0
  190.2680  176.3710  146.0600 N   0  0  0  0  0  2  0  0  0  0  0  0
  190.7790  175.4080  146.9960 C   0  0  0  0  0  0  0  0  0  0  0  0
  194.1240  174.9720  145.6230 C   0  0  0  0  0  2  0  0  0  0  0  0
  192.2490  175.1690  147.0910 C   0  0  1  0  0  3  0  0  0  0  0  0
  192.7490  174.4000  145.9000 C   0  0  0  0  0  2  0  0  0  0  0  0
  193.0140  176.4700  147.0490 C   0  0  0  0  0  2  0  0  0  0  0  0
  194.2770  176.2210  146.3650 N   0  0  0  0  0  0  0  0  0  0  0  0
  194.4420  177.2800  145.3860 C   0  0  0  0  0  1  0  0  0  0  0  0
  1 13  1  0  0  0  0
  2  8  1  0  0  0  0
  2  6  2  0  0  0  0
  3 12  1  0  0  0  0
  3  7  1  0  0  0  0
  4 10  1  0  0  0  0
  5  3  2  0  0  0  0
  7  1  2  0  0  0  0
  9  6  1  0  0  0  0
 10 13  2  0  0  0  0
 10 16  1  0  0  0  0
 11  9  2  0  0  0  0
 12  4  1  0  0  0  0
 13 14  1  0  0  0  0
 14 18  1  0  0  0  0
 14  8  2  0  0  0  0
 15 16  2  0  0  0  0
 15 11  1  0  0  0  0
 16  2  1  0  0  0  0
 18 19  1  0  0  0  0
 19 17  2  0  0  0  0
 20 22  1  0  0  0  0
 20 24  1  0  0  0  0
 21 19  1  6  0  0  0
 22 21  1  0  0  0  0
 23 21  1  0  0  0  0
 24 23  1  0  0  0  0
 25 24  1  0  0  0  0
M  END
>  <MODEL>
1

>  <REMARK>
 VINA RESULT:      -8.4      0.000      0.000
  Name = 
  2 active torsions:
  status: ('A' for Active; 'I' for Inactive)
    1  A    between atoms: C_10  and  C_23
    2  A    between atoms: N_15  and  C_22
                            x       y       z     vdW  Elec       q    Type
                         _______ _______ _______ _____ _____    ______ ____

>  <TORSDO>
F 2

$$$$
=
 OpenBabel11072409383D

 25 28  0  0  1  0  0  0  0  0999 V2000
  188.0070  177.7030  145.4420 C   0  0  0  0  0  3  0  0  0  0  0  0
  186.0250  177.9400  141.6310 C   0  0  0  0  0  0  0  0  0  0  0  0
  186.2190  176.9770  147.0720 C   0  0  0  0  0  0  0  0  0  0  0  0
  185.0230  178.1540  145.2930 C   0  0  0  0  0  2  0  0  0  0  0  0
  186.0180  176.6760  148.2770 O   0  0  0  0  0  0  0  0  0  0  0  0
  185.4110  178.0100  140.3780 C   0  0  0  0  0  3  0  0  0  0  0  0
  187.5750  177.3790  146.6660 C   0  0  0  0  0  3  0  0  0  0  0  0
  187.4000  177.7680  141.7230 C   0  0  0  0  0  3  0  0  0  0  0  0
  184.0670  178.1860  140.2860 N   0  0  0  0  0  0  0  0  0  0  0  0
  185.8630  177.9840  144.0650 C   0  0  0  0  0  0  0  0  0  0  0  0
  183.2860  178.3000  141.3940 C   0  0  0  0  0  3  0  0  0  0  0  0
  185.0790  176.8930  146.1210 C   0  0  0  0  0  2  0  0  0  0  0  0
  187.2670  177.7830  144.1540 C   0  0  0  0  0  0  0  0  0  0  0  0
  188.0310  177.6950  142.9690 C   0  0  0  0  0  0  0  0  0  0  0  0
  183.8590  178.2370  142.6660 C   0  0  0  0  0  3  0  0  0  0  0  0
  185.2440  178.0530  142.7980 C   0  0  0  0  0  0  0  0  0  0  0  0
  189.6100  175.2310  142.5290 O   0  0  0  0  0  0  0  0  0  0  0  0
  189.4550  177.5150  143.0570 N   0  0  0  0  0  2  0  0  0  0  0  0
  190.1940  176.3020  142.8410 C   0  0  0  0  0  0  0  0  0  0  0  0
  193.3110  176.6890  144.6850 C   0  0  0  0  0  2  0  0  0  0  0  0
  191.6800  176.3000  142.9830 C   0  0  1  0  0  3  0  0  0  0  0  0
  192.1280  177.3260  143.9860 C   0  0  0  0  0  2  0  0  0  0  0  0
  192.1700  174.9860  143.5420 C   0  0  0  0  0  2  0  0  0  0  0  0
  193.3370  175.2630  144.3690 N   0  0  0  0  0  0  0  0  0  0  0  0
  193.1470  174.5470  145.6180 C   0  0  0  0  0  1  0  0  0  0  0  0
  1  7  2  0  0  0  0
  2  8  2  0  0  0  0
  2 16  1  0  0  0  0
  3  5  2  0  0  0  0
  4 12  1  0  0  0  0
  6  2  1  0  0  0  0
  7  3  1  0  0  0  0
  8 14  1  0  0  0  0
  9  6  2  0  0  0  0
  9 11  1  0  0  0  0
 10 13  1  0  0  0  0
 10  4  1  0  0  0  0
 11 15  2  0  0  0  0
 12  3  1  0  0  0  0
 13  1  1  0  0  0  0
 14 18  1  0  0  0  0
 14 13  2  0  0  0  0
 15 16  1  0  0  0  0
 16 10  2  0  0  0  0
 17 19  2  0  0  0  0
 19 18  1  0  0  0  0
 21 19  1  1  0  0  0
 21 23  1  0  0  0  0
 21 22  1  0  0  0  0
 22 20  1  0  0  0  0
 23 24  1  0  0  0  0
 24 20  1  0  0  0  0
 24 25  1  0  0  0  0
M  END
>  <MODEL>
2

>  <REMARK>
 VINA RESULT:      -8.1      2.616      4.476
  Name = 
  2 active torsions:
  status: ('A' for Active; 'I' for Inactive)
    1  A    between atoms: C_10  and  C_23
    2  A    between atoms: N_15  and  C_22
                            x       y       z     vdW  Elec       q    Type
                         _______ _______ _______ _____ _____    ______ ____

>  <TORSDO>
F 2

$$$$
=
 OpenBabel11072409383D

 25 28  0  0  1  0  0  0  0  0999 V2000
  188.4130  177.5370  145.9330 C   0  0  0  0  0  3  0  0  0  0  0  0
  187.3300  177.4070  141.7720 C   0  0  0  0  0  0  0  0  0  0  0  0
  186.2180  177.5640  147.1860 C   0  0  0  0  0  0  0  0  0  0  0  0
  185.7290  178.5790  145.0160 C   0  0  0  0  0  2  0  0  0  0  0  0
  185.7190  177.5670  148.3410 O   0  0  0  0  0  0  0  0  0  0  0  0
  187.0080  177.3490  140.4140 C   0  0  0  0  0  3  0  0  0  0  0  0
  187.6840  177.5730  147.0550 C   0  0  0  0  0  3  0  0  0  0  0  0
  188.5710  176.9650  142.2120 C   0  0  0  0  0  3  0  0  0  0  0  0
  185.7970  177.7870  139.9810 N   0  0  0  0  0  0  0  0  0  0  0  0
  186.7180  177.9840  144.0630 C   0  0  0  0  0  0  0  0  0  0  0  0
  184.8720  178.2910  140.8410 C   0  0  0  0  0  3  0  0  0  0  0  0
  185.3010  177.5340  146.0170 C   0  0  0  0  0  2  0  0  0  0  0  0
  187.9800  177.5080  144.5100 C   0  0  0  0  0  0  0  0  0  0  0  0
  188.9100  177.0160  143.5680 C   0  0  0  0  0  0  0  0  0  0  0  0
  185.1540  178.3690  142.2070 C   0  0  0  0  0  3  0  0  0  0  0  0
  186.3940  177.9230  142.6900 C   0  0  0  0  0  0  0  0  0  0  0  0
  191.4750  178.4900  143.6340 O   0  0  0  0  0  0  0  0  0  0  0  0
  190.1970  176.5560  144.0170 N   0  0  0  0  0  2  0  0  0  0  0  0
  191.4280  177.2960  144.0330 C   0  0  0  0  0  0  0  0  0  0  0  0
  193.3190  175.0180  146.1550 C   0  0  0  0  0  2  0  0  0  0  0  0
  192.6780  176.6510  144.5330 C   0  0  1  0  0  3  0  0  0  0  0  0
  192.5710  176.3250  145.9960 C   0  0  0  0  0  2  0  0  0  0  0  0
  192.9040  175.3170  143.8640 C   0  0  0  0  0  2  0  0  0  0  0  0
  193.5440  174.4370  144.8340 N   0  0  0  0  0  0  0  0  0  0  0  0
  192.8260  173.1760  144.7960 C   0  0  0  0  0  1  0  0  0  0  0  0
  1  7  2  0  0  0  0
  2  8  2  0  0  0  0
  2 16  1  0  0  0  0
  3  5  2  0  0  0  0
  4 12  1  0  0  0  0
  6  2  1  0  0  0  0
  7  3  1  0  0  0  0
  8 14  1  0  0  0  0
  9  6  2  0  0  0  0
  9 11  1  0  0  0  0
 10 13  1  0  0  0  0
 10  4  1  0  0  0  0
 11 15  2  0  0  0  0
 12  3  1  0  0  0  0
 13  1  1  0  0  0  0
 14 18  1  0  0  0  0
 14 13  2  0  0  0  0
 15 16  1  0  0  0  0
 16 10  2  0  0  0  0
 17 19  2  0  0  0  0
 18 19  1  0  0  0  0
 21 19  1  6  0  0  0
 21 22  1  0  0  0  0
 22 20  1  0  0  0  0
 23 21  1  0  0  0  0
 23 24  1  0  0  0  0
 24 20  1  0  0  0  0
 25 24  1  0  0  0  0
M  END
>  <MODEL>
3

>  <REMARK>
 VINA RESULT:      -8.1      2.665      4.420
  Name = 
  2 active torsions:
  status: ('A' for Active; 'I' for Inactive)
    1  A    between atoms: C_10  and  C_23
    2  A    between atoms: N_15  and  C_22
                            x       y       z     vdW  Elec       q    Type
                         _______ _______ _______ _____ _____    ______ ____

>  <TORSDO>
F 2

$$$$
=
 OpenBabel11072409383D

 25 28  0  0  1  0  0  0  0  0999 V2000
  188.3380  176.3650  142.4450 C   0  0  0  0  0  3  0  0  0  0  0  0
  187.0530  177.6210  146.3540 C   0  0  0  0  0  0  0  0  0  0  0  0
  186.6910  177.4130  140.8400 C   0  0  0  0  0  0  0  0  0  0  0  0
  185.4590  177.1420  142.9350 C   0  0  0  0  0  2  0  0  0  0  0  0
  186.4200  177.5410  139.6180 O   0  0  0  0  0  0  0  0  0  0  0  0
  186.6690  178.0270  147.6340 C   0  0  0  0  0  3  0  0  0  0  0  0
  187.8580  176.5990  141.2180 C   0  0  0  0  0  3  0  0  0  0  0  0
  188.3630  177.2270  146.1130 C   0  0  0  0  0  3  0  0  0  0  0  0
  185.3860  178.4060  147.8720 N   0  0  0  0  0  0  0  0  0  0  0  0
  186.4920  177.1960  144.0170 C   0  0  0  0  0  0  0  0  0  0  0  0
  184.4470  178.4020  146.8880 C   0  0  0  0  0  3  0  0  0  0  0  0
  185.8310  178.1060  141.8340 C   0  0  0  0  0  2  0  0  0  0  0  0
  187.8390  176.8170  143.7710 C   0  0  0  0  0  0  0  0  0  0  0  0
  188.7660  176.8180  144.8380 C   0  0  0  0  0  0  0  0  0  0  0  0
  184.7890  178.0020  145.5940 C   0  0  0  0  0  3  0  0  0  0  0  0
  186.1050  177.6070  145.3110 C   0  0  0  0  0  0  0  0  0  0  0  0
  191.0390  178.4580  143.8900 O   0  0  0  0  0  0  0  0  0  0  0  0
  190.1240  176.4120  144.5950 N   0  0  0  0  0  2  0  0  0  0  0  0
  191.2080  177.2330  144.1310 C   0  0  0  0  0  0  0  0  0  0  0  0
  194.3840  175.8520  145.2590 C   0  0  0  0  0  2  0  0  0  0  0  0
  192.5600  176.6360  143.9280 C   0  0  1  0  0  3  0  0  0  0  0  0
  193.5090  177.0640  145.0130 C   0  0  0  0  0  2  0  0  0  0  0  0
  192.5120  175.1310  144.0410 C   0  0  0  0  0  2  0  0  0  0  0  0
  193.7720  174.6880  144.6230 N   0  0  0  0  0  0  0  0  0  0  0  0
  193.4400  173.7510  145.6820 C   0  0  0  0  0  1  0  0  0  0  0  0
  1 13  1  0  0  0  0
  2  6  2  0  0  0  0
  3  7  1  0  0  0  0
  3 12  1  0  0  0  0
  4 10  1  0  0  0  0
  5  3  2  0  0  0  0
  6  9  1  0  0  0  0
  7  1  2  0  0  0  0
  8  2  1  0  0  0  0
 10 16  1  0  0  0  0
 11  9  2  0  0  0  0
 12  4  1  0  0  0  0
 13 10  2  0  0  0  0
 13 14  1  0  0  0  0
 14  8  2  0  0  0  0
 15 11  1  0  0  0  0
 16 15  2  0  0  0  0
 16  2  1  0  0  0  0
 17 19  2  0  0  0  0
 18 14  1  0  0  0  0
 19 18  1  0  0  0  0
 21 23  1  0  0  0  0
 21 19  1  1  0  0  0
 21 22  1  0  0  0  0
 22 20  1  0  0  0  0
 23 24  1  0  0  0  0
 24 20  1  0  0  0  0
 24 25  1  0  0  0  0
M  END
>  <MODEL>
4

>  <REMARK>
 VINA RESULT:      -7.9      1.775      2.207
  Name = 
  2 active torsions:
  status: ('A' for Active; 'I' for Inactive)
    1  A    between atoms: C_10  and  C_23
    2  A    between atoms: N_15  and  C_22
                            x       y       z     vdW  Elec       q    Type
                         _______ _______ _______ _____ _____    ______ ____

>  <TORSDO>
F 2

$$$$
=
 OpenBabel11072409383D

 25 28  0  0  1  0  0  0  0  0999 V2000
  188.3760  177.3280  145.7200 C   0  0  0  0  0  3  0  0  0  0  0  0
  187.1780  177.1160  141.5940 C   0  0  0  0  0  0  0  0  0  0  0  0
  186.2410  177.7420  147.0070 C   0  0  0  0  0  0  0  0  0  0  0  0
  185.8450  178.6910  144.7880 C   0  0  0  0  0  2  0  0  0  0  0  0
  185.7780  177.8830  148.1680 O   0  0  0  0  0  0  0  0  0  0  0  0
  186.8160  177.0270  140.2480 C   0  0  0  0  0  3  0  0  0  0  0  0
  187.6890  177.5330  146.8510 C   0  0  0  0  0  3  0  0  0  0  0  0
  188.3540  176.5270  142.0380 C   0  0  0  0  0  3  0  0  0  0  0  0
  185.6690  177.6090  139.8100 N   0  0  0  0  0  0  0  0  0  0  0  0
  186.7140  177.9050  143.8560 C   0  0  0  0  0  0  0  0  0  0  0  0
  184.8480  178.2890  140.6550 C   0  0  0  0  0  3  0  0  0  0  0  0
  185.2980  177.7770  145.8580 C   0  0  0  0  0  2  0  0  0  0  0  0
  187.9060  177.2800  144.3090 C   0  0  0  0  0  0  0  0  0  0  0  0
  188.7330  176.6060  143.3820 C   0  0  0  0  0  0  0  0  0  0  0  0
  185.1730  178.4040  142.0080 C   0  0  0  0  0  3  0  0  0  0  0  0
  186.3490  177.8130  142.4950 C   0  0  0  0  0  0  0  0  0  0  0  0
  191.5160  177.5360  143.0050 O   0  0  0  0  0  0  0  0  0  0  0  0
  189.9520  175.9930  143.8360 N   0  0  0  0  0  2  0  0  0  0  0  0
  191.2930  176.4680  143.6340 C   0  0  0  0  0  0  0  0  0  0  0  0
  194.7940  175.9860  144.5110 C   0  0  0  0  0  2  0  0  0  0  0  0
  192.4470  175.6930  144.1750 C   0  0  1  0  0  3  0  0  0  0  0  0
  193.7170  176.0360  143.4480 C   0  0  0  0  0  2  0  0  0  0  0  0
  192.7230  176.0620  145.6120 C   0  0  0  0  0  2  0  0  0  0  0  0
  194.1610  175.9660  145.8280 N   0  0  0  0  0  0  0  0  0  0  0  0
  194.5660  177.1800  146.5130 C   0  0  0  0  0  1  0  0  0  0  0  0
  1  7  2  0  0  0  0
  2  8  2  0  0  0  0
  2 16  1  0  0  0  0
  3  5  2  0  0  0  0
  4 12  1  0  0  0  0
  6  2  1  0  0  0  0
  7  3  1  0  0  0  0
  8 14  1  0  0  0  0
  9  6  2  0  0  0  0
  9 11  1  0  0  0  0
 10 13  1  0  0  0  0
 10  4  1  0  0  0  0
 11 15  2  0  0  0  0
 12  3  1  0  0  0  0
 13  1  1  0  0  0  0
 14 18  1  0  0  0  0
 14 13  2  0  0  0  0
 15 16  1  0  0  0  0
 16 10  2  0  0  0  0
 17 19  2  0  0  0  0
 19 18  1  0  0  0  0
 20 24  1  0  0  0  0
 21 19  1  6  0  0  0
 21 23  1  0  0  0  0
 22 21  1  0  0  0  0
 22 20  1  0  0  0  0
 23 24  1  0  0  0  0
 24 25  1  0  0  0  0
M  END
>  <MODEL>
5

>  <REMARK>
 VINA RESULT:      -7.9      2.580      4.334
  Name = 
  2 active torsions:
  status: ('A' for Active; 'I' for Inactive)
    1  A    between atoms: C_10  and  C_23
    2  A    between atoms: N_15  and  C_22
                            x       y       z     vdW  Elec       q    Type
                         _______ _______ _______ _____ _____    ______ ____

>  <TORSDO>
F 2

$$$$
=
 OpenBabel11072409383D

 25 28  0  0  1  0  0  0  0  0999 V2000
  188.2150  175.5790  143.1540 C   0  0  0  0  0  3  0  0  0  0  0  0
  192.0460  176.4770  144.8940 C   0  0  0  0  0  0  0  0  0  0  0  0
  188.6310  173.6140  141.6200 C   0  0  0  0  0  0  0  0  0  0  0  0
  190.7650  174.8030  141.7280 C   0  0  0  0  0  2  0  0  0  0  0  0
  188.0600  172.8090  140.8390 O   0  0  0  0  0  0  0  0  0  0  0  0
  193.2740  176.7800  145.4860 C   0  0  0  0  0  3  0  0  0  0  0  0
  187.8180  174.6540  142.2710 C   0  0  0  0  0  3  0  0  0  0  0  0
  190.8620  176.8530  145.5140 C   0  0  0  0  0  3  0  0  0  0  0  0
  194.4330  176.4180  144.8770 N   0  0  0  0  0  0  0  0  0  0  0  0
  190.7750  175.4870  143.0610 C   0  0  0  0  0  0  0  0  0  0  0  0
  194.4370  175.7590  143.6880 C   0  0  0  0  0  3  0  0  0  0  0  0
  190.0910  173.4590  141.8570 C   0  0  0  0  0  2  0  0  0  0  0  0
  189.5670  175.8530  143.7110 C   0  0  0  0  0  0  0  0  0  0  0  0
  189.6240  176.5570  144.9350 C   0  0  0  0  0  0  0  0  0  0  0  0
  193.2320  175.4370  143.0600 C   0  0  0  0  0  3  0  0  0  0  0  0
  192.0160  175.7930  143.6620 C   0  0  0  0  0  0  0  0  0  0  0  0
  188.2680  175.2880  147.2390 O   0  0  0  0  0  0  0  0  0  0  0  0
  188.4010  176.9500  145.5830 N   0  0  0  0  0  2  0  0  0  0  0  0
  187.7650  176.3090  146.7010 C   0  0  0  0  0  0  0  0  0  0  0  0
  185.2920  178.9250  147.2550 C   0  0  0  0  0  2  0  0  0  0  0  0
  186.4860  176.8560  147.2430 C   0  0  1  0  0  3  0  0  0  0  0  0
  186.6300  178.3080  147.6050 C   0  0  0  0  0  2  0  0  0  0  0  0
  185.3990  176.8340  146.1950 C   0  0  0  0  0  2  0  0  0  0  0  0
  184.5410  177.9900  146.4210 N   0  0  0  0  0  0  0  0  0  0  0  0
  184.3490  178.6300  145.1320 C   0  0  0  0  0  1  0  0  0  0  0  0
  1 13  1  0  0  0  0
  2  6  1  0  0  0  0
  2  8  1  0  0  0  0
  3 12  1  0  0  0  0
  3  7  1  0  0  0  0
  4 12  1  0  0  0  0
  4 10  1  0  0  0  0
  5  3  2  0  0  0  0
  7  1  2  0  0  0  0
  9  6  2  0  0  0  0
 10 16  1  0  0  0  0
 10 13  2  0  0  0  0
 11  9  1  0  0  0  0
 13 14  1  0  0  0  0
 14  8  2  0  0  0  0
 14 18  1  0  0  0  0
 15 16  1  0  0  0  0
 15 11  2  0  0  0  0
 16  2  2  0  0  0  0
 18 19  1  0  0  0  0
 19 17  2  0  0  0  0
 20 22  1  0  0  0  0
 21 19  1  6  0  0  0
 21 22  1  0  0  0  0
 23 24  1  0  0  0  0
 23 21  1  0  0  0  0
 24 20  1  0  0  0  0
 25 24  1  0  0  0  0
M  END
>  <MODEL>
6

>  <REMARK>
 VINA RESULT:      -7.4      1.775      6.308
  Name = 
  2 active torsions:
  status: ('A' for Active; 'I' for Inactive)
    1  A    between atoms: C_10  and  C_23
    2  A    between atoms: N_15  and  C_22
                            x       y       z     vdW  Elec       q    Type
                         _______ _______ _______ _____ _____    ______ ____

>  <TORSDO>
F 2

$$$$
=
 OpenBabel11072409383D

 25 28  0  0  1  0  0  0  0  0999 V2000
  189.5010  175.4090  144.1920 C   0  0  0  0  0  3  0  0  0  0  0  0
  185.8120  177.2640  142.9870 C   0  0  0  0  0  0  0  0  0  0  0  0
  189.3910  175.2960  146.7150 C   0  0  0  0  0  0  0  0  0  0  0  0
  187.9990  177.2100  146.0980 C   0  0  0  0  0  2  0  0  0  0  0  0
  190.0140  174.8970  147.7320 O   0  0  0  0  0  0  0  0  0  0  0  0
  184.6160  177.8500  142.5660 C   0  0  0  0  0  3  0  0  0  0  0  0
  190.0040  175.0940  145.3920 C   0  0  0  0  0  3  0  0  0  0  0  0
  186.5370  176.4600  142.1170 C   0  0  0  0  0  3  0  0  0  0  0  0
  183.9090  178.6420  143.4140 N   0  0  0  0  0  0  0  0  0  0  0  0
  187.4920  176.9090  144.7210 C   0  0  0  0  0  0  0  0  0  0  0  0
  184.3370  178.8900  144.6810 C   0  0  0  0  0  3  0  0  0  0  0  0
  188.0610  175.9340  146.9020 C   0  0  0  0  0  2  0  0  0  0  0  0
  188.2170  176.0690  143.8350 C   0  0  0  0  0  0  0  0  0  0  0  0
  187.7360  175.8650  142.5220 C   0  0  0  0  0  0  0  0  0  0  0  0
  185.5280  178.3260  145.1420 C   0  0  0  0  0  3  0  0  0  0  0  0
  186.2820  177.4990  144.2950 C   0  0  0  0  0  0  0  0  0  0  0  0
  187.4180  172.9720  141.9910 O   0  0  0  0  0  0  0  0  0  0  0  0
  188.4820  175.0330  141.6160 N   0  0  0  0  0  2  0  0  0  0  0  0
  188.3060  173.6260  141.3830 C   0  0  0  0  0  0  0  0  0  0  0  0
  190.7010  173.4710  138.6430 C   0  0  0  0  0  2  0  0  0  0  0  0
  189.1820  172.9190  140.4030 C   0  0  1  0  0  3  0  0  0  0  0  0
  189.2770  173.6840  139.1120 C   0  0  0  0  0  2  0  0  0  0  0  0
  190.6040  172.8430  140.9030 C   0  0  0  0  0  2  0  0  0  0  0  0
  191.4860  172.9220  139.7460 N   0  0  0  0  0  0  0  0  0  0  0  0
  192.5130  173.8980  140.0650 C   0  0  0  0  0  1  0  0  0  0  0  0
  1  7  2  0  0  0  0
  2 16  1  0  0  0  0
  3 12  1  0  0  0  0
  3  5  2  0  0  0  0
  4 12  1  0  0  0  0
  6  2  2  0  0  0  0
  6  9  1  0  0  0  0
  7  3  1  0  0  0  0
  8 14  2  0  0  0  0
  8  2  1  0  0  0  0
  9 11  2  0  0  0  0
 10  4  1  0  0  0  0
 11 15  1  0  0  0  0
 13  1  1  0  0  0  0
 13 10  2  0  0  0  0
 14 13  1  0  0  0  0
 16 10  1  0  0  0  0
 16 15  2  0  0  0  0
 18 14  1  0  0  0  0
 19 18  1  0  0  0  0
 19 17  2  0  0  0  0
 20 22  1  0  0  0  0
 20 24  1  0  0  0  0
 21 23  1  0  0  0  0
 21 19  1  1  0  0  0
 22 21  1  0  0  0  0
 24 25  1  0  0  0  0
 24 23  1  0  0  0  0
M  END
>  <MODEL>
7

>  <REMARK>
 VINA RESULT:      -7.4      2.872      5.277
  Name = 
  2 active torsions:
  status: ('A' for Active; 'I' for Inactive)
    1  A    between atoms: C_10  and  C_23
    2  A    between atoms: N_15  and  C_22
                            x       y       z     vdW  Elec       q    Type
                         _______ _______ _______ _____ _____    ______ ____

>  <TORSDO>
F 2

$$$$
=
 OpenBabel11072409383D

 25 28  0  0  1  0  0  0  0  0999 V2000
  186.4680  176.2170  142.7640 C   0  0  0  0  0  3  0  0  0  0  0  0
  190.1830  175.8440  144.9020 C   0  0  0  0  0  0  0  0  0  0  0  0
  185.3380  178.2500  143.7530 C   0  0  0  0  0  0  0  0  0  0  0  0
  186.7610  177.3760  145.5400 C   0  0  0  0  0  2  0  0  0  0  0  0
  184.3180  178.9800  143.6580 O   0  0  0  0  0  0  0  0  0  0  0  0
  191.4030  175.7070  145.5680 C   0  0  0  0  0  3  0  0  0  0  0  0
  185.4590  177.0920  142.8530 C   0  0  0  0  0  3  0  0  0  0  0  0
  190.0140  175.2900  143.6400 C   0  0  0  0  0  3  0  0  0  0  0  0
  191.5670  176.2430  146.8060 N   0  0  0  0  0  0  0  0  0  0  0  0
  187.8890  176.6760  144.8470 C   0  0  0  0  0  0  0  0  0  0  0  0
  190.5640  176.9180  147.4290 C   0  0  0  0  0  3  0  0  0  0  0  0
  186.3750  178.6070  144.7570 C   0  0  0  0  0  2  0  0  0  0  0  0
  187.7300  176.1280  143.5470 C   0  0  0  0  0  0  0  0  0  0  0  0
  188.8000  175.4170  142.9570 C   0  0  0  0  0  0  0  0  0  0  0  0
  189.3280  177.0760  146.8000 C   0  0  0  0  0  3  0  0  0  0  0  0
  189.1240  176.5390  145.5190 C   0  0  0  0  0  0  0  0  0  0  0  0
  188.3380  172.5850  142.2350 O   0  0  0  0  0  0  0  0  0  0  0  0
  188.6320  174.8410  141.6500 N   0  0  0  0  0  2  0  0  0  0  0  0
  188.4120  173.4580  141.3310 C   0  0  0  0  0  0  0  0  0  0  0  0
  189.0670  173.7030  137.7560 C   0  0  0  0  0  2  0  0  0  0  0  0
  188.2650  173.0370  139.9060 C   0  0  1  0  0  3  0  0  0  0  0  0
  188.3440  174.2200  138.9820 C   0  0  0  0  0  2  0  0  0  0  0  0
  189.4090  172.1490  139.4820 C   0  0  0  0  0  2  0  0  0  0  0  0
  189.6810  172.4160  138.0750 N   0  0  0  0  0  0  0  0  0  0  0  0
  191.1170  172.5870  137.9490 C   0  0  0  0  0  1  0  0  0  0  0  0
  1  7  2  0  0  0  0
  1 13  1  0  0  0  0
  2 16  1  0  0  0  0
  2  6  2  0  0  0  0
  3 12  1  0  0  0  0
  5  3  2  0  0  0  0
  6  9  1  0  0  0  0
  7  3  1  0  0  0  0
  8  2  1  0  0  0  0
  9 11  2  0  0  0  0
 10 16  1  0  0  0  0
 10  4  1  0  0  0  0
 12  4  1  0  0  0  0
 13 10  2  0  0  0  0
 14 13  1  0  0  0  0
 14  8  2  0  0  0  0
 15 11  1  0  0  0  0
 16 15  2  0  0  0  0
 18 14  1  0  0  0  0
 19 18  1  0  0  0  0
 19 17  2  0  0  0  0
 20 24  1  0  0  0  0
 20 22  1  0  0  0  0
 21 19  1  1  0  0  0
 22 21  1  0  0  0  0
 23 21  1  0  0  0  0
 24 23  1  0  0  0  0
 25 24  1  0  0  0  0
M  END
>  <MODEL>
8

>  <REMARK>
 VINA RESULT:      -7.2      3.293      6.079
  Name = 
  2 active torsions:
  status: ('A' for Active; 'I' for Inactive)
    1  A    between atoms: C_10  and  C_23
    2  A    between atoms: N_15  and  C_22
                            x       y       z     vdW  Elec       q    Type
                         _______ _______ _______ _____ _____    ______ ____

>  <TORSDO>
F 2

$$$$
=
 OpenBabel11072409383D

 25 28  0  0  1  0  0  0  0  0999 V2000
  188.9080  176.6370  146.2320 C   0  0  0  0  0  3  0  0  0  0  0  0
  189.7690  173.9140  143.0140 C   0  0  0  0  0  0  0  0  0  0  0  0
  191.0380  176.7520  147.5870 C   0  0  0  0  0  0  0  0  0  0  0  0
  191.0700  174.5470  146.5300 C   0  0  0  0  0  2  0  0  0  0  0  0
  191.5660  177.3060  148.5850 O   0  0  0  0  0  0  0  0  0  0  0  0
  190.0250  173.0470  141.9500 C   0  0  0  0  0  3  0  0  0  0  0  0
  189.6410  177.0820  147.2590 C   0  0  0  0  0  3  0  0  0  0  0  0
  188.7570  174.8600  142.9120 C   0  0  0  0  0  3  0  0  0  0  0  0
  191.0100  172.1160  142.0500 N   0  0  0  0  0  0  0  0  0  0  0  0
  190.2770  174.6950  145.2690 C   0  0  0  0  0  0  0  0  0  0  0  0
  191.7670  171.9990  143.1740 C   0  0  0  0  0  3  0  0  0  0  0  0
  191.8590  175.8100  146.7810 C   0  0  0  0  0  2  0  0  0  0  0  0
  189.2570  175.6760  145.1510 C   0  0  0  0  0  0  0  0  0  0  0  0
  188.4860  175.7370  143.9670 C   0  0  0  0  0  0  0  0  0  0  0  0
  191.5430  172.8450  144.2630 C   0  0  0  0  0  3  0  0  0  0  0  0
  190.5360  173.8200  144.1920 C   0  0  0  0  0  0  0  0  0  0  0  0
  188.3930  178.1530  142.2620 O   0  0  0  0  0  0  0  0  0  0  0  0
  187.4380  176.7150  143.8550 N   0  0  0  0  0  2  0  0  0  0  0  0
  187.4230  177.8830  143.0180 C   0  0  0  0  0  0  0  0  0  0  0  0
  183.8900  178.6660  143.4270 C   0  0  0  0  0  2  0  0  0  0  0  0
  186.2430  178.7960  143.0360 C   0  0  1  0  0  3  0  0  0  0  0  0
  185.0010  178.0840  142.5780 C   0  0  0  0  0  2  0  0  0  0  0  0
  185.9250  179.2460  144.4410 C   0  0  0  0  0  2  0  0  0  0  0  0
  184.4800  179.4030  144.5410 N   0  0  0  0  0  0  0  0  0  0  0  0
  184.0660  178.7330  145.7610 C   0  0  0  0  0  1  0  0  0  0  0  0
  1  7  2  0  0  0  0
  2 16  1  0  0  0  0
  3  5  2  0  0  0  0
  4 12  1  0  0  0  0
  6  9  2  0  0  0  0
  6  2  1  0  0  0  0
  7  3  1  0  0  0  0
  8  2  2  0  0  0  0
  8 14  1  0  0  0  0
  9 11  1  0  0  0  0
 10  4  1  0  0  0  0
 11 15  2  0  0  0  0
 12  3  1  0  0  0  0
 13 10  1  0  0  0  0
 13  1  1  0  0  0  0
 14 13  2  0  0  0  0
 16 15  1  0  0  0  0
 16 10  2  0  0  0  0
 17 19  2  0  0  0  0
 18 14  1  0  0  0  0
 19 18  1  0  0  0  0
 20 24  1  0  0  0  0
 21 19  1  1  0  0  0
 21 23  1  0  0  0  0
 22 21  1  0  0  0  0
 22 20  1  0  0  0  0
 23 24  1  0  0  0  0
 24 25  1  0  0  0  0
M  END
>  <MODEL>
9

>  <REMARK>
 VINA RESULT:      -7.2      2.453      7.448
  Name = 
  2 active torsions:
  status: ('A' for Active; 'I' for Inactive)
    1  A    between atoms: C_10  and  C_23
    2  A    between atoms: N_15  and  C_22
                            x       y       z     vdW  Elec       q    Type
                         _______ _______ _______ _____ _____    ______ ____

>  <TORSDO>
F 2

$$$$
