=
 OpenBabel11062421583D

 35 39  0  0  1  0  0  0  0  0999 V2000
  186.8120  176.8800  141.0460 C   0  0  0  0  0  1  0  0  0  0  0  0
  187.9320  176.1010  141.7150 C   0  0  1  0  0  3  0  0  0  0  0  0
  188.9110  175.3880  143.9920 C   0  0  0  0  0  0  0  0  0  0  0  0
  189.0740  172.4260  141.8790 C   0  0  0  0  0  0  0  0  0  0  0  0
  188.0480  176.3850  143.2320 C   0  0  2  0  0  3  0  0  0  0  0  0
  189.9730  171.9740  143.0250 C   0  0  0  0  0  2  0  0  0  0  0  0
  189.0710  173.9430  141.9550 C   0  0  1  0  0  3  0  0  0  0  0  0
  187.8020  171.9080  142.0610 F   0  0  0  0  0  0  0  0  0  0  0  0
  189.9230  173.0670  144.0860 C   0  0  0  0  0  2  0  0  0  0  0  0
  189.5880  172.0040  140.6670 F   0  0  0  0  0  0  0  0  0  0  0  0
  187.8100  174.6110  141.4250 C   0  0  0  0  0  2  0  0  0  0  0  0
  189.3010  174.2320  143.3980 C   0  0  0  0  0  0  0  0  0  0  0  0
  189.1980  175.7090  145.4410 C   0  0  2  0  0  3  0  0  0  0  0  0
  191.5310  175.1020  145.6800 O   0  0  0  0  0  0  0  0  0  0  0  0
  190.1600  175.0270  147.5850 C   0  0  0  0  0  2  0  0  0  0  0  0
  189.5170  177.1940  145.6970 C   0  0  0  0  0  2  0  0  0  0  0  0
  190.2250  174.7650  146.0990 C   0  0  1  0  0  3  0  0  0  0  0  0
  190.0140  177.4330  147.1380 C   0  0  0  0  0  2  0  0  0  0  0  0
  190.9370  176.3020  147.6530 C   0  0  2  0  0  3  0  0  0  0  0  0
  192.0530  175.9670  146.6700 C   0  0  2  0  0  3  0  0  0  0  0  0
  192.5940  177.1170  146.0830 O   0  0  0  0  0  0  0  0  0  0  0  0
  194.2310  176.1380  144.0640 O   0  0  0  0  0  0  0  0  0  0  0  0
  195.1550  178.0930  145.7710 O   0  0  0  0  0  1  0  0  0  0  0  0
  194.7200  175.6520  146.5920 O   0  0  0  0  0  1  0  0  0  0  0  0
  194.1860  176.7130  145.6560 P   0  0  0  0  0  0  0  0  0  0  0  0
  186.0850  177.7960  144.1360 C   0  0  0  0  0  0  0  0  0  0  0  0
  185.6650  180.0170  144.0850 C   0  0  0  0  0  3  0  0  0  0  0  0
  184.7850  177.8870  144.8490 C   0  0  2  0  0  3  0  0  0  0  0  0
  186.7390  176.5480  143.8710 N   0  0  0  0  0  2  0  0  0  0  0  0
  186.5450  178.9240  143.7230 N   0  0  0  0  0  0  0  0  0  0  0  0
  184.4640  179.3740  144.7730 C   0  0  0  0  0  3  0  0  0  0  0  0
  184.0680  178.2280  147.1390 O   0  0  0  0  0  1  0  0  0  0  0  0
  184.8750  177.4380  146.3110 C   0  0  2  0  0  3  0  0  0  0  0  0
  186.4970  178.5380  147.8500 C   0  0  0  0  0  1  0  0  0  0  0  0
  186.3160  177.4630  146.7980 C   0  0  0  0  0  2  0  0  0  0  0  0
  2  1  1  1  0  0  0
  2  5  1  0  0  0  0
  4  7  1  0  0  0  0
  4  8  1  0  0  0  0
  4  6  1  0  0  0  0
  5 29  1  1  0  0  0
  5  3  1  0  0  0  0
  6  9  1  0  0  0  0
  7 11  1  1  0  0  0
  7 12  1  0  0  0  0
 10  4  1  0  0  0  0
 11  2  1  0  0  0  0
 12  3  2  0  0  0  0
 12  9  1  0  0  0  0
 13  3  1  6  0  0  0
 13 16  1  0  0  0  0
 13 17  1  0  0  0  0
 14 17  1  0  0  0  0
 14 20  1  0  0  0  0
 15 19  1  0  0  0  0
 16 18  1  0  0  0  0
 17 15  1  1  0  0  0
 19 18  1  6  0  0  0
 20 21  1  6  0  0  0
 20 19  1  0  0  0  0
 22 25  2  0  0  0  0
 25 23  1  0  0  0  0
 25 21  1  0  0  0  0
 25 24  1  0  0  0  0
 26 28  1  0  0  0  0
 27 31  2  0  0  0  0
 28 33  1  1  0  0  0
 29 26  1  0  0  0  0
 30 27  1  0  0  0  0
 30 26  2  0  0  0  0
 31 28  1  0  0  0  0
 33 35  1  0  0  0  0
 33 32  1  1  0  0  0
 35 34  1  0  0  0  0
M  END
>  <MODEL>
1

>  <REMARK>
 VINA RESULT:      -8.6      0.000      0.000
  Name = 
  6 active torsions:
  status: ('A' for Active; 'I' for Inactive)
    1  A    between atoms: C_1  and  C_13
    2  A    between atoms: C_7  and  C_22
    3  A    between atoms: C_16  and  N_21
    4  A    between atoms: C_22  and  C_34
    5  A    between atoms: O_25  and  P_27
    6  A    between atoms: O_25  and  C_28
                            x       y       z     vdW  Elec       q    Type
                         _______ _______ _______ _____ _____    ______ ____

>  <TORSDO>
F 6

$$$$
=
 OpenBabel11062421583D

 35 39  0  0  1  0  0  0  0  0999 V2000
  190.4450  177.5280  148.0480 C   0  0  0  0  0  1  0  0  0  0  0  0
  190.9690  176.2780  147.3620 C   0  0  1  0  0  3  0  0  0  0  0  0
  190.6270  174.6980  145.3520 C   0  0  0  0  0  0  0  0  0  0  0  0
  194.2250  175.2020  145.6090 C   0  0  0  0  0  0  0  0  0  0  0  0
  190.0030  175.7260  146.2860 C   0  0  2  0  0  3  0  0  0  0  0  0
  194.2000  174.0200  144.6460 C   0  0  0  0  0  2  0  0  0  0  0  0
  192.8860  175.1560  146.3260 C   0  0  1  0  0  3  0  0  0  0  0  0
  194.3740  176.3770  144.8910 F   0  0  0  0  0  0  0  0  0  0  0  0
  192.7370  173.7430  144.3220 C   0  0  0  0  0  2  0  0  0  0  0  0
  195.2620  175.0650  146.5130 F   0  0  0  0  0  0  0  0  0  0  0  0
  192.3680  176.5040  146.8060 C   0  0  0  0  0  2  0  0  0  0  0  0
  191.9710  174.5160  145.3390 C   0  0  0  0  0  0  0  0  0  0  0  0
  189.6910  174.0010  144.3900 C   0  0  2  0  0  3  0  0  0  0  0  0
  190.5730  174.6310  142.2230 O   0  0  0  0  0  0  0  0  0  0  0  0
  188.2900  174.1070  142.3880 C   0  0  0  0  0  2  0  0  0  0  0  0
  190.0420  172.5210  144.1470 C   0  0  0  0  0  2  0  0  0  0  0  0
  189.4570  174.7740  143.0770 C   0  0  1  0  0  3  0  0  0  0  0  0
  189.2030  171.9160  143.0020 C   0  0  0  0  0  2  0  0  0  0  0  0
  188.9780  172.9030  141.8300 C   0  0  2  0  0  3  0  0  0  0  0  0
  190.2750  173.5520  141.3590 C   0  0  2  0  0  3  0  0  0  0  0  0
  191.3350  172.6390  141.3290 O   0  0  0  0  0  0  0  0  0  0  0  0
  190.5100  170.6670  139.5560 O   0  0  0  0  0  1  0  0  0  0  0  0
  190.7970  173.2700  138.6990 O   0  0  0  0  0  0  0  0  0  0  0  0
  192.8600  171.8080  139.3520 O   0  0  0  0  0  1  0  0  0  0  0  0
  191.4220  172.0840  139.7290 P   0  0  0  0  0  0  0  0  0  0  0  0
  187.9320  177.0670  145.5300 C   0  0  0  0  0  0  0  0  0  0  0  0
  185.7550  176.9620  146.1330 C   0  0  0  0  0  3  0  0  0  0  0  0
  187.3200  178.1260  144.6870 C   0  0  2  0  0  3  0  0  0  0  0  0
  189.3390  176.7930  145.5310 N   0  0  0  0  0  2  0  0  0  0  0  0
  187.1040  176.4580  146.3030 N   0  0  0  0  0  0  0  0  0  0  0  0
  185.8610  178.1030  145.1240 C   0  0  0  0  0  3  0  0  0  0  0  0
  188.6810  178.2020  142.6830 O   0  0  0  0  0  1  0  0  0  0  0  0
  187.4290  177.8310  143.1870 C   0  0  2  0  0  3  0  0  0  0  0  0
  186.1580  177.9060  141.0450 C   0  0  0  0  0  1  0  0  0  0  0  0
  186.3200  178.5310  142.4160 C   0  0  0  0  0  2  0  0  0  0  0  0
  2  1  1  6  0  0  0
  3  5  1  0  0  0  0
  4  7  1  0  0  0  0
  4 10  1  0  0  0  0
  5 29  1  6  0  0  0
  5  2  1  0  0  0  0
  6  4  1  0  0  0  0
  7 11  1  6  0  0  0
  8  4  1  0  0  0  0
  9  6  1  0  0  0  0
  9 12  1  0  0  0  0
 11  2  1  0  0  0  0
 12  3  2  0  0  0  0
 12  7  1  0  0  0  0
 13  3  1  6  0  0  0
 14 17  1  0  0  0  0
 16 13  1  0  0  0  0
 17 15  1  6  0  0  0
 17 13  1  0  0  0  0
 18 16  1  0  0  0  0
 19 15  1  1  0  0  0
 19 18  1  0  0  0  0
 20 21  1  1  0  0  0
 20 19  1  0  0  0  0
 20 14  1  0  0  0  0
 22 25  1  0  0  0  0
 23 25  2  0  0  0  0
 24 25  1  0  0  0  0
 25 21  1  0  0  0  0
 26 29  1  0  0  0  0
 26 30  2  0  0  0  0
 27 30  1  0  0  0  0
 28 33  1  6  0  0  0
 28 31  1  0  0  0  0
 28 26  1  0  0  0  0
 31 27  2  0  0  0  0
 33 32  1  6  0  0  0
 34 35  1  0  0  0  0
 35 33  1  0  0  0  0
M  END
>  <MODEL>
2

>  <REMARK>
 VINA RESULT:      -8.4      3.724      5.807
  Name = 
  6 active torsions:
  status: ('A' for Active; 'I' for Inactive)
    1  A    between atoms: C_1  and  C_13
    2  A    between atoms: C_7  and  C_22
    3  A    between atoms: C_16  and  N_21
    4  A    between atoms: C_22  and  C_34
    5  A    between atoms: O_25  and  P_27
    6  A    between atoms: O_25  and  C_28
                            x       y       z     vdW  Elec       q    Type
                         _______ _______ _______ _____ _____    ______ ____

>  <TORSDO>
F 6

$$$$
=
 OpenBabel11062421583D

 35 39  0  0  1  0  0  0  0  0999 V2000
  194.3790  174.2400  144.6710 C   0  0  0  0  0  1  0  0  0  0  0  0
  193.3710  175.3570  144.8820 C   0  0  1  0  0  3  0  0  0  0  0  0
  191.1390  176.3440  144.0460 C   0  0  0  0  0  0  0  0  0  0  0  0
  190.9740  176.4730  147.6830 C   0  0  0  0  0  0  0  0  0  0  0  0
  192.3530  175.4830  143.7240 C   0  0  2  0  0  3  0  0  0  0  0  0
  189.7930  177.3750  147.3400 C   0  0  0  0  0  2  0  0  0  0  0  0
  191.8500  176.4810  146.4420 C   0  0  1  0  0  3  0  0  0  0  0  0
  190.5110  175.1980  147.9670 F   0  0  0  0  0  0  0  0  0  0  0  0
  189.6320  177.3390  145.8250 C   0  0  0  0  0  2  0  0  0  0  0  0
  191.6660  176.9770  148.7680 F   0  0  0  0  0  0  0  0  0  0  0  0
  192.6800  175.2230  146.2320 C   0  0  0  0  0  2  0  0  0  0  0  0
  190.8930  176.7210  145.3260 C   0  0  0  0  0  0  0  0  0  0  0  0
  190.1960  176.6410  142.9030 C   0  0  2  0  0  3  0  0  0  0  0  0
  188.0280  176.0840  143.8280 O   0  0  0  0  0  0  0  0  0  0  0  0
  188.3180  175.9370  141.5020 C   0  0  0  0  0  2  0  0  0  0  0  0
  189.8090  178.1270  142.7880 C   0  0  0  0  0  2  0  0  0  0  0  0
  188.9700  175.7080  142.8460 C   0  0  1  0  0  3  0  0  0  0  0  0
  188.6850  178.3470  141.7540 C   0  0  0  0  0  2  0  0  0  0  0  0
  187.6160  177.2270  141.7770 C   0  0  2  0  0  3  0  0  0  0  0  0
  187.1040  176.9390  143.1840 C   0  0  2  0  0  3  0  0  0  0  0  0
  186.9230  178.1130  143.9240 O   0  0  0  0  0  0  0  0  0  0  0  0
  184.8070  177.4470  145.5950 O   0  0  0  0  0  1  0  0  0  0  0  0
  184.8450  179.8850  144.3120 O   0  0  0  0  0  1  0  0  0  0  0  0
  184.5030  177.6530  143.0010 O   0  0  0  0  0  0  0  0  0  0  0  0
  185.2500  178.2500  144.1720 P   0  0  0  0  0  0  0  0  0  0  0  0
  192.1210  173.7400  141.8340 C   0  0  0  0  0  0  0  0  0  0  0  0
  192.8320  173.7280  139.6880 C   0  0  0  0  0  3  0  0  0  0  0  0
  191.6290  172.4260  141.3480 C   0  0  2  0  0  3  0  0  0  0  0  0
  191.9510  174.1790  143.1890 N   0  0  0  0  0  2  0  0  0  0  0  0
  192.7670  174.4240  140.9580 N   0  0  0  0  0  0  0  0  0  0  0  0
  192.1490  172.3820  139.9170 C   0  0  0  0  0  3  0  0  0  0  0  0
  189.6580  171.4180  142.3330 O   0  0  0  0  0  1  0  0  0  0  0  0
  190.1000  172.3220  141.3600 C   0  0  2  0  0  3  0  0  0  0  0  0
  188.3770  172.7750  139.6180 C   0  0  0  0  0  1  0  0  0  0  0  0
  189.5740  171.9230  139.9890 C   0  0  0  0  0  2  0  0  0  0  0  0
  2  1  1  6  0  0  0
  2 11  1  0  0  0  0
  3 12  2  0  0  0  0
  4  8  1  0  0  0  0
  4 10  1  0  0  0  0
  5 29  1  1  0  0  0
  5  3  1  0  0  0  0
  5  2  1  0  0  0  0
  6  4  1  0  0  0  0
  7 11  1  6  0  0  0
  7  4  1  0  0  0  0
  9  6  1  0  0  0  0
 12  9  1  0  0  0  0
 12  7  1  0  0  0  0
 13  3  1  1  0  0  0
 16 13  1  0  0  0  0
 17 15  1  6  0  0  0
 17 13  1  0  0  0  0
 17 14  1  0  0  0  0
 18 19  1  0  0  0  0
 18 16  1  0  0  0  0
 19 15  1  1  0  0  0
 19 20  1  0  0  0  0
 20 14  1  0  0  0  0
 20 21  1  1  0  0  0
 21 25  1  0  0  0  0
 24 25  2  0  0  0  0
 25 23  1  0  0  0  0
 25 22  1  0  0  0  0
 26 29  1  0  0  0  0
 27 31  2  0  0  0  0
 27 30  1  0  0  0  0
 28 33  1  6  0  0  0
 28 26  1  0  0  0  0
 30 26  2  0  0  0  0
 31 28  1  0  0  0  0
 33 32  1  1  0  0  0
 34 35  1  0  0  0  0
 35 33  1  0  0  0  0
M  END
>  <MODEL>
3

>  <REMARK>
 VINA RESULT:      -8.3      4.137      7.596
  Name = 
  6 active torsions:
  status: ('A' for Active; 'I' for Inactive)
    1  A    between atoms: C_1  and  C_13
    2  A    between atoms: C_7  and  C_22
    3  A    between atoms: C_16  and  N_21
    4  A    between atoms: C_22  and  C_34
    5  A    between atoms: O_25  and  P_27
    6  A    between atoms: O_25  and  C_28
                            x       y       z     vdW  Elec       q    Type
                         _______ _______ _______ _____ _____    ______ ____

>  <TORSDO>
F 6

$$$$
=
 OpenBabel11062421583D

 35 39  0  0  1  0  0  0  0  0999 V2000
  189.6610  173.4920  140.7010 C   0  0  0  0  0  1  0  0  0  0  0  0
  189.2300  174.2560  141.9410 C   0  0  1  0  0  3  0  0  0  0  0  0
  190.0670  175.7330  143.8830 C   0  0  0  0  0  0  0  0  0  0  0  0
  186.9860  177.2890  142.7200 C   0  0  0  0  0  0  0  0  0  0  0  0
  190.4180  174.6880  142.8330 C   0  0  2  0  0  3  0  0  0  0  0  0
  187.1670  178.0330  144.0380 C   0  0  0  0  0  2  0  0  0  0  0  0
  187.7940  176.0120  142.8730 C   0  0  1  0  0  3  0  0  0  0  0  0
  187.4650  178.0690  141.6810 F   0  0  0  0  0  0  0  0  0  0  0  0
  188.5040  177.5880  144.6190 C   0  0  0  0  0  2  0  0  0  0  0  0
  185.6510  176.9940  142.5130 F   0  0  0  0  0  0  0  0  0  0  0  0
  188.3390  175.4360  141.5740 C   0  0  0  0  0  2  0  0  0  0  0  0
  188.8780  176.3830  143.8260 C   0  0  0  0  0  0  0  0  0  0  0  0
  191.1430  176.0690  144.8900 C   0  0  2  0  0  3  0  0  0  0  0  0
  192.0520  173.8960  145.4590 O   0  0  0  0  0  0  0  0  0  0  0  0
  192.2050  175.6190  147.0470 C   0  0  0  0  0  2  0  0  0  0  0  0
  192.4760  176.5030  144.2510 C   0  0  0  0  0  2  0  0  0  0  0  0
  191.3360  174.9960  145.9800 C   0  0  1  0  0  3  0  0  0  0  0  0
  193.6010  176.6220  145.3000 C   0  0  0  0  0  2  0  0  0  0  0  0
  193.5390  175.5150  146.3810 C   0  0  2  0  0  3  0  0  0  0  0  0
  193.4100  174.1200  145.7800 C   0  0  2  0  0  3  0  0  0  0  0  0
  194.2160  173.9640  144.6450 O   0  0  0  0  0  0  0  0  0  0  0  0
  196.5380  173.6610  146.1390 O   0  0  0  0  0  1  0  0  0  0  0  0
  194.7610  171.5690  145.8990 O   0  0  0  0  0  1  0  0  0  0  0  0
  196.1830  172.3980  143.8720 O   0  0  0  0  0  0  0  0  0  0  0  0
  195.4480  172.8900  145.0980 P   0  0  0  0  0  0  0  0  0  0  0  0
  192.6810  174.2530  141.6710 C   0  0  0  0  0  0  0  0  0  0  0  0
  193.8920  172.3680  141.3680 C   0  0  0  0  0  3  0  0  0  0  0  0
  193.8650  174.7560  140.9280 C   0  0  2  0  0  3  0  0  0  0  0  0
  191.5860  175.0980  142.0470 N   0  0  0  0  0  2  0  0  0  0  0  0
  192.6920  172.9870  141.8950 N   0  0  0  0  0  0  0  0  0  0  0  0
  194.6640  173.4840  140.6700 C   0  0  0  0  0  3  0  0  0  0  0  0
  194.7230  177.0130  141.1360 O   0  0  0  0  0  1  0  0  0  0  0  0
  194.7010  175.7500  141.7410 C   0  0  2  0  0  3  0  0  0  0  0  0
  196.7980  175.9810  143.0670 C   0  0  0  0  0  1  0  0  0  0  0  0
  196.1180  175.2340  141.9380 C   0  0  0  0  0  2  0  0  0  0  0  0
  2  1  1  6  0  0  0
  2  5  1  0  0  0  0
  4  7  1  0  0  0  0
  4  6  1  0  0  0  0
  5 29  1  6  0  0  0
  5  3  1  0  0  0  0
  6  9  1  0  0  0  0
  7 11  1  6  0  0  0
  7 12  1  0  0  0  0
  8  4  1  0  0  0  0
 10  4  1  0  0  0  0
 11  2  1  0  0  0  0
 12  3  2  0  0  0  0
 12  9  1  0  0  0  0
 13  3  1  6  0  0  0
 13 17  1  0  0  0  0
 14 20  1  0  0  0  0
 14 17  1  0  0  0  0
 16 13  1  0  0  0  0
 16 18  1  0  0  0  0
 17 15  1  1  0  0  0
 19 18  1  6  0  0  0
 19 15  1  0  0  0  0
 20 21  1  6  0  0  0
 20 19  1  0  0  0  0
 21 25  1  0  0  0  0
 24 25  2  0  0  0  0
 25 23  1  0  0  0  0
 25 22  1  0  0  0  0
 26 30  2  0  0  0  0
 26 29  1  0  0  0  0
 27 30  1  0  0  0  0
 28 26  1  0  0  0  0
 28 33  1  1  0  0  0
 31 28  1  0  0  0  0
 31 27  2  0  0  0  0
 33 32  1  6  0  0  0
 33 35  1  0  0  0  0
 35 34  1  0  0  0  0
M  END
>  <MODEL>
4

>  <REMARK>
 VINA RESULT:      -7.5      3.609      6.520
  Name = 
  6 active torsions:
  status: ('A' for Active; 'I' for Inactive)
    1  A    between atoms: C_1  and  C_13
    2  A    between atoms: C_7  and  C_22
    3  A    between atoms: C_16  and  N_21
    4  A    between atoms: C_22  and  C_34
    5  A    between atoms: O_25  and  P_27
    6  A    between atoms: O_25  and  C_28
                            x       y       z     vdW  Elec       q    Type
                         _______ _______ _______ _____ _____    ______ ____

>  <TORSDO>
F 6

$$$$
=
 OpenBabel11062421583D

 35 39  0  0  1  0  0  0  0  0999 V2000
  193.0330  171.2290  141.6990 C   0  0  0  0  0  1  0  0  0  0  0  0
  191.7020  171.7300  142.2340 C   0  0  1  0  0  3  0  0  0  0  0  0
  190.5950  173.4430  143.8130 C   0  0  0  0  0  0  0  0  0  0  0  0
  188.5690  173.4390  140.7850 C   0  0  0  0  0  0  0  0  0  0  0  0
  191.8510  172.6570  143.4630 C   0  0  2  0  0  3  0  0  0  0  0  0
  187.6330  174.1980  141.7200 C   0  0  0  0  0  2  0  0  0  0  0  0
  189.4980  172.6620  141.7030 C   0  0  1  0  0  3  0  0  0  0  0  0
  189.2700  174.3430  140.0040 F   0  0  0  0  0  0  0  0  0  0  0  0
  188.3840  174.4050  143.0290 C   0  0  0  0  0  2  0  0  0  0  0  0
  187.8500  172.5750  139.9810 F   0  0  0  0  0  0  0  0  0  0  0  0
  190.8790  172.3800  141.1290 C   0  0  0  0  0  2  0  0  0  0  0  0
  189.5560  173.4890  142.9410 C   0  0  0  0  0  0  0  0  0  0  0  0
  190.6270  174.2350  145.1000 C   0  0  2  0  0  3  0  0  0  0  0  0
  189.4450  176.2670  144.5160 O   0  0  0  0  0  0  0  0  0  0  0  0
  191.0390  176.3610  146.2380 C   0  0  0  0  0  2  0  0  0  0  0  0
  189.5280  173.8360  146.1020 C   0  0  0  0  0  2  0  0  0  0  0  0
  190.7090  175.7610  144.8920 C   0  0  1  0  0  3  0  0  0  0  0  0
  189.4620  174.8100  147.2960 C   0  0  0  0  0  2  0  0  0  0  0  0
  189.6940  176.2850  146.8870 C   0  0  2  0  0  3  0  0  0  0  0  0
  188.8240  176.7060  145.7080 C   0  0  2  0  0  3  0  0  0  0  0  0
  187.5270  176.1890  145.8050 O   0  0  0  0  0  0  0  0  0  0  0  0
  186.8630  178.2900  147.4950 O   0  0  0  0  0  1  0  0  0  0  0  0
  186.7620  178.6250  144.7620 O   0  0  0  0  0  0  0  0  0  0  0  0
  185.0630  177.0890  146.0180 O   0  0  0  0  0  1  0  0  0  0  0  0
  186.5100  177.5290  146.0250 P   0  0  0  0  0  0  0  0  0  0  0  0
  194.2060  173.4550  144.1540 C   0  0  0  0  0  0  0  0  0  0  0  0
  195.7200  172.6260  145.6150 C   0  0  0  0  0  3  0  0  0  0  0  0
  195.3230  174.4280  144.0360 C   0  0  2  0  0  3  0  0  0  0  0  0
  193.0160  173.5400  143.3590 N   0  0  0  0  0  2  0  0  0  0  0  0
  194.4220  172.4960  144.9820 N   0  0  0  0  0  0  0  0  0  0  0  0
  196.3730  173.8500  144.9770 C   0  0  0  0  0  3  0  0  0  0  0  0
  195.9080  176.7780  144.1290 O   0  0  0  0  0  1  0  0  0  0  0  0
  194.9310  175.8410  144.4830 C   0  0  2  0  0  3  0  0  0  0  0  0
  194.5260  177.3160  146.4500 C   0  0  0  0  0  1  0  0  0  0  0  0
  194.6770  175.8830  145.9830 C   0  0  0  0  0  2  0  0  0  0  0  0
  2  1  1  6  0  0  0
  2  5  1  0  0  0  0
  4  7  1  0  0  0  0
  4  6  1  0  0  0  0
  5 29  1  6  0  0  0
  5  3  1  0  0  0  0
  6  9  1  0  0  0  0
  7 11  1  6  0  0  0
  7 12  1  0  0  0  0
  8  4  1  0  0  0  0
 10  4  1  0  0  0  0
 11  2  1  0  0  0  0
 12  9  1  0  0  0  0
 12  3  2  0  0  0  0
 13  3  1  6  0  0  0
 13 16  1  0  0  0  0
 14 17  1  0  0  0  0
 14 20  1  0  0  0  0
 16 18  1  0  0  0  0
 17 13  1  0  0  0  0
 17 15  1  1  0  0  0
 19 15  1  6  0  0  0
 19 18  1  0  0  0  0
 20 21  1  1  0  0  0
 20 19  1  0  0  0  0
 21 25  1  0  0  0  0
 23 25  2  0  0  0  0
 24 25  1  0  0  0  0
 25 22  1  0  0  0  0
 26 30  2  0  0  0  0
 28 26  1  0  0  0  0
 28 33  1  1  0  0  0
 28 31  1  0  0  0  0
 29 26  1  0  0  0  0
 30 27  1  0  0  0  0
 31 27  2  0  0  0  0
 33 32  1  1  0  0  0
 33 35  1  0  0  0  0
 35 34  1  0  0  0  0
M  END
>  <MODEL>
5

>  <REMARK>
 VINA RESULT:      -7.4      3.390      6.888
  Name = 
  6 active torsions:
  status: ('A' for Active; 'I' for Inactive)
    1  A    between atoms: C_1  and  C_13
    2  A    between atoms: C_7  and  C_22
    3  A    between atoms: C_16  and  N_21
    4  A    between atoms: C_22  and  C_34
    5  A    between atoms: O_25  and  P_27
    6  A    between atoms: O_25  and  C_28
                            x       y       z     vdW  Elec       q    Type
                         _______ _______ _______ _____ _____    ______ ____

>  <TORSDO>
F 6

$$$$
=
 OpenBabel11062421583D

 35 39  0  0  1  0  0  0  0  0999 V2000
  194.8120  174.2740  141.8880 C   0  0  0  0  0  1  0  0  0  0  0  0
  193.9780  175.2660  142.6790 C   0  0  1  0  0  3  0  0  0  0  0  0
  191.5700  176.0570  143.1620 C   0  0  0  0  0  0  0  0  0  0  0  0
  193.2470  175.9750  146.3940 C   0  0  0  0  0  0  0  0  0  0  0  0
  192.5090  175.3470  142.1970 C   0  0  2  0  0  3  0  0  0  0  0  0
  191.9990  176.7650  146.7730 C   0  0  0  0  0  2  0  0  0  0  0  0
  193.3780  176.1410  144.8900 C   0  0  1  0  0  3  0  0  0  0  0  0
  193.0720  174.6460  146.7430 F   0  0  0  0  0  0  0  0  0  0  0  0
  191.1010  176.7930  145.5410 C   0  0  0  0  0  2  0  0  0  0  0  0
  194.3570  176.4910  147.0370 F   0  0  0  0  0  0  0  0  0  0  0  0
  194.0690  174.9890  144.1740 C   0  0  0  0  0  2  0  0  0  0  0  0
  191.9770  176.3380  144.4250 C   0  0  0  0  0  0  0  0  0  0  0  0
  190.1630  176.3130  142.6710 C   0  0  2  0  0  3  0  0  0  0  0  0
  188.7990  175.6120  144.5460 O   0  0  0  0  0  0  0  0  0  0  0  0
  187.8660  175.5190  142.3930 C   0  0  0  0  0  2  0  0  0  0  0  0
  189.7060  177.7750  142.8350 C   0  0  0  0  0  2  0  0  0  0  0  0
  189.1220  175.3090  143.2060 C   0  0  1  0  0  3  0  0  0  0  0  0
  188.2040  177.9430  142.5290 C   0  0  0  0  0  2  0  0  0  0  0  0
  187.3470  176.7600  143.0430 C   0  0  2  0  0  3  0  0  0  0  0  0
  187.6390  176.4200  144.5000 C   0  0  2  0  0  3  0  0  0  0  0  0
  187.8090  177.5700  145.2810 O   0  0  0  0  0  0  0  0  0  0  0  0
  185.3930  176.4170  146.0220 O   0  0  0  0  0  1  0  0  0  0  0  0
  186.5910  178.2910  147.6480 O   0  0  0  0  0  1  0  0  0  0  0  0
  185.5630  178.9400  145.3360 O   0  0  0  0  0  0  0  0  0  0  0  0
  186.3170  177.8360  146.0430 P   0  0  0  0  0  0  0  0  0  0  0  0
  191.8600  173.5470  140.4640 C   0  0  0  0  0  0  0  0  0  0  0  0
  192.1200  173.4400  138.2210 C   0  0  0  0  0  3  0  0  0  0  0  0
  191.2490  172.2330  140.1400 C   0  0  2  0  0  3  0  0  0  0  0  0
  191.9780  174.0380  141.8070 N   0  0  0  0  0  2  0  0  0  0  0  0
  192.3300  174.1810  139.4490 N   0  0  0  0  0  0  0  0  0  0  0  0
  191.4670  172.1230  138.6360 C   0  0  0  0  0  3  0  0  0  0  0  0
  189.1020  173.3560  140.0850 O   0  0  0  0  0  1  0  0  0  0  0  0
  189.7520  172.1760  140.4640 C   0  0  2  0  0  3  0  0  0  0  0  0
  190.4420  170.7860  142.4140 C   0  0  0  0  0  1  0  0  0  0  0  0
  189.5290  171.9000  141.9430 C   0  0  0  0  0  2  0  0  0  0  0  0
  2  1  1  6  0  0  0
  2 11  1  0  0  0  0
  3 12  2  0  0  0  0
  4  8  1  0  0  0  0
  4  6  1  0  0  0  0
  4 10  1  0  0  0  0
  5 29  1  1  0  0  0
  5  2  1  0  0  0  0
  5  3  1  0  0  0  0
  7 11  1  6  0  0  0
  7  4  1  0  0  0  0
  9  6  1  0  0  0  0
 12  7  1  0  0  0  0
 12  9  1  0  0  0  0
 13 16  1  0  0  0  0
 13  3  1  1  0  0  0
 13 17  1  0  0  0  0
 17 15  1  6  0  0  0
 17 14  1  0  0  0  0
 18 16  1  0  0  0  0
 18 19  1  0  0  0  0
 19 15  1  6  0  0  0
 19 20  1  0  0  0  0
 20 14  1  0  0  0  0
 20 21  1  1  0  0  0
 21 25  1  0  0  0  0
 22 25  1  0  0  0  0
 24 25  2  0  0  0  0
 25 23  1  0  0  0  0
 26 29  1  0  0  0  0
 27 31  2  0  0  0  0
 27 30  1  0  0  0  0
 28 33  1  6  0  0  0
 28 26  1  0  0  0  0
 30 26  2  0  0  0  0
 31 28  1  0  0  0  0
 33 32  1  1  0  0  0
 33 35  1  0  0  0  0
 35 34  1  0  0  0  0
M  END
>  <MODEL>
6

>  <REMARK>
 VINA RESULT:      -7.3      3.998      7.293
  Name = 
  6 active torsions:
  status: ('A' for Active; 'I' for Inactive)
    1  A    between atoms: C_1  and  C_13
    2  A    between atoms: C_7  and  C_22
    3  A    between atoms: C_16  and  N_21
    4  A    between atoms: C_22  and  C_34
    5  A    between atoms: O_25  and  P_27
    6  A    between atoms: O_25  and  C_28
                            x       y       z     vdW  Elec       q    Type
                         _______ _______ _______ _____ _____    ______ ____

>  <TORSDO>
F 6

$$$$
=
 OpenBabel11062421583D

 35 39  0  0  1  0  0  0  0  0999 V2000
  191.5750  178.2620  143.8920 C   0  0  0  0  0  1  0  0  0  0  0  0
  190.3760  177.7850  143.0920 C   0  0  1  0  0  3  0  0  0  0  0  0
  189.0290  175.7010  142.3860 C   0  0  0  0  0  0  0  0  0  0  0  0
  186.5530  178.2310  143.2450 C   0  0  0  0  0  0  0  0  0  0  0  0
  190.3610  176.2530  142.8730 C   0  0  2  0  0  3  0  0  0  0  0  0
  185.6540  177.2220  142.5380 C   0  0  0  0  0  2  0  0  0  0  0  0
  187.9540  177.9340  142.7390 C   0  0  1  0  0  3  0  0  0  0  0  0
  186.4600  178.0480  144.6150 F   0  0  0  0  0  0  0  0  0  0  0  0
  186.5190  176.0110  142.2090 C   0  0  0  0  0  2  0  0  0  0  0  0
  186.1820  179.5210  142.9130 F   0  0  0  0  0  0  0  0  0  0  0  0
  189.0740  178.2810  143.7090 C   0  0  0  0  0  2  0  0  0  0  0  0
  187.9190  176.4800  142.4120 C   0  0  0  0  0  0  0  0  0  0  0  0
  189.0030  174.2410  141.9950 C   0  0  2  0  0  3  0  0  0  0  0  0
  191.2750  173.8370  141.2570 O   0  0  0  0  0  0  0  0  0  0  0  0
  189.5600  172.5000  140.3700 C   0  0  0  0  0  2  0  0  0  0  0  0
  189.1760  173.2770  143.1840 C   0  0  0  0  0  2  0  0  0  0  0  0
  189.9340  173.8930  140.8160 C   0  0  1  0  0  3  0  0  0  0  0  0
  189.3630  171.8190  142.7170 C   0  0  0  0  0  2  0  0  0  0  0  0
  190.2310  171.7010  141.4400 C   0  0  2  0  0  3  0  0  0  0  0  0
  191.5380  172.4790  141.5510 C   0  0  2  0  0  3  0  0  0  0  0  0
  192.1150  172.3530  142.8200 O   0  0  0  0  0  0  0  0  0  0  0  0
  194.0870  174.3080  142.8020 O   0  0  0  0  0  1  0  0  0  0  0  0
  194.6430  171.7870  143.7640 O   0  0  0  0  0  1  0  0  0  0  0  0
  194.2040  172.2180  141.2260 O   0  0  0  0  0  0  0  0  0  0  0  0
  193.7700  172.6560  142.6070 P   0  0  0  0  0  0  0  0  0  0  0  0
  190.1670  175.4160  145.3070 C   0  0  0  0  0  0  0  0  0  0  0  0
  188.5190  175.5960  146.8450 C   0  0  0  0  0  3  0  0  0  0  0  0
  190.7480  174.7050  146.4750 C   0  0  2  0  0  3  0  0  0  0  0  0
  190.8430  175.5170  144.0460 N   0  0  0  0  0  2  0  0  0  0  0  0
  188.9830  175.8780  145.5010 N   0  0  0  0  0  0  0  0  0  0  0  0
  189.6250  174.7720  147.5020 C   0  0  0  0  0  3  0  0  0  0  0  0
  191.8580  176.7790  147.0560 O   0  0  0  0  0  1  0  0  0  0  0  0
  192.0070  175.3880  147.0210 C   0  0  2  0  0  3  0  0  0  0  0  0
  194.1100  176.2190  145.9750 C   0  0  0  0  0  1  0  0  0  0  0  0
  193.2290  175.0070  146.1990 C   0  0  0  0  0  2  0  0  0  0  0  0
  2 11  1  0  0  0  0
  2  1  1  1  0  0  0
  3 12  2  0  0  0  0
  3  5  1  0  0  0  0
  4  8  1  0  0  0  0
  5  2  1  0  0  0  0
  5 29  1  1  0  0  0
  6  4  1  0  0  0  0
  7  4  1  0  0  0  0
  7 11  1  1  0  0  0
  9 12  1  0  0  0  0
  9  6  1  0  0  0  0
 10  4  1  0  0  0  0
 12  7  1  0  0  0  0
 13  3  1  1  0  0  0
 13 16  1  0  0  0  0
 14 20  1  0  0  0  0
 17 15  1  1  0  0  0
 17 14  1  0  0  0  0
 17 13  1  0  0  0  0
 18 16  1  0  0  0  0
 19 15  1  6  0  0  0
 19 20  1  0  0  0  0
 19 18  1  0  0  0  0
 20 21  1  1  0  0  0
 24 25  2  0  0  0  0
 25 22  1  0  0  0  0
 25 21  1  0  0  0  0
 25 23  1  0  0  0  0
 26 30  2  0  0  0  0
 26 28  1  0  0  0  0
 27 31  2  0  0  0  0
 28 33  1  1  0  0  0
 28 31  1  0  0  0  0
 29 26  1  0  0  0  0
 30 27  1  0  0  0  0
 33 32  1  6  0  0  0
 34 35  1  0  0  0  0
 35 33  1  0  0  0  0
M  END
>  <MODEL>
7

>  <REMARK>
 VINA RESULT:      -7.3      3.114      5.884
  Name = 
  6 active torsions:
  status: ('A' for Active; 'I' for Inactive)
    1  A    between atoms: C_1  and  C_13
    2  A    between atoms: C_7  and  C_22
    3  A    between atoms: C_16  and  N_21
    4  A    between atoms: C_22  and  C_34
    5  A    between atoms: O_25  and  P_27
    6  A    between atoms: O_25  and  C_28
                            x       y       z     vdW  Elec       q    Type
                         _______ _______ _______ _____ _____    ______ ____

>  <TORSDO>
F 6

$$$$
=
 OpenBabel11062421583D

 35 39  0  0  1  0  0  0  0  0999 V2000
  193.9710  176.6720  146.4200 C   0  0  0  0  0  1  0  0  0  0  0  0
  194.0520  175.6510  145.2980 C   0  0  1  0  0  3  0  0  0  0  0  0
  192.6540  174.2370  143.6550 C   0  0  0  0  0  0  0  0  0  0  0  0
  195.4420  175.5430  141.7080 C   0  0  0  0  0  0  0  0  0  0  0  0
  192.6880  174.9950  144.9750 C   0  0  2  0  0  3  0  0  0  0  0  0
  194.9240  174.4860  140.7380 C   0  0  0  0  0  2  0  0  0  0  0  0
  194.9240  175.1150  143.0700 C   0  0  1  0  0  3  0  0  0  0  0  0
  194.9450  176.7830  141.3440 F   0  0  0  0  0  0  0  0  0  0  0  0
  193.6540  173.9070  141.3490 C   0  0  0  0  0  2  0  0  0  0  0  0
  196.8240  175.5660  141.7010 F   0  0  0  0  0  0  0  0  0  0  0  0
  194.7000  176.2520  144.0580 C   0  0  0  0  0  2  0  0  0  0  0  0
  193.6660  174.3770  142.7630 C   0  0  0  0  0  0  0  0  0  0  0  0
  191.4050  173.4370  143.3660 C   0  0  2  0  0  3  0  0  0  0  0  0
  190.5810  174.4370  141.3190 O   0  0  0  0  0  0  0  0  0  0  0  0
  189.0360  173.4030  142.7540 C   0  0  0  0  0  2  0  0  0  0  0  0
  191.6760  172.1000  142.6500 C   0  0  0  0  0  2  0  0  0  0  0  0
  190.2850  174.2510  142.6870 C   0  0  1  0  0  3  0  0  0  0  0  0
  190.3690  171.4260  142.1820 C   0  0  0  0  0  2  0  0  0  0  0  0
  189.3250  172.4380  141.6490 C   0  0  2  0  0  3  0  0  0  0  0  0
  189.9160  173.4000  140.6250 C   0  0  2  0  0  3  0  0  0  0  0  0
  190.7950  172.7530  139.7480 O   0  0  0  0  0  0  0  0  0  0  0  0
  190.8510  172.6210  136.9740 O   0  0  0  0  0  0  0  0  0  0  0  0
  189.3560  170.8130  138.4180 O   0  0  0  0  0  1  0  0  0  0  0  0
  188.6930  173.3350  138.2770 O   0  0  0  0  0  1  0  0  0  0  0  0
  189.8910  172.4150  138.3530 P   0  0  0  0  0  0  0  0  0  0  0  0
  190.3810  175.7620  145.8420 C   0  0  0  0  0  0  0  0  0  0  0  0
  188.9450  174.8560  147.3350 C   0  0  0  0  0  3  0  0  0  0  0  0
  189.2640  176.7410  145.8380 C   0  0  2  0  0  3  0  0  0  0  0  0
  191.5750  175.9440  145.0690 N   0  0  0  0  0  2  0  0  0  0  0  0
  190.2160  174.7700  146.6430 N   0  0  0  0  0  0  0  0  0  0  0  0
  188.3130  176.1690  146.8810 C   0  0  0  0  0  3  0  0  0  0  0  0
  189.0320  177.9300  143.7390 O   0  0  0  0  0  1  0  0  0  0  0  0
  188.5630  176.8380  144.4790 C   0  0  2  0  0  3  0  0  0  0  0  0
  186.5680  178.3230  144.3270 C   0  0  0  0  0  1  0  0  0  0  0  0
  187.0540  176.9260  144.6530 C   0  0  0  0  0  2  0  0  0  0  0  0
  2  1  1  1  0  0  0
  3  5  1  0  0  0  0
  4  7  1  0  0  0  0
  5 29  1  6  0  0  0
  5  2  1  0  0  0  0
  6  9  1  0  0  0  0
  6  4  1  0  0  0  0
  7 11  1  1  0  0  0
  8  4  1  0  0  0  0
  9 12  1  0  0  0  0
 10  4  1  0  0  0  0
 11  2  1  0  0  0  0
 12  7  1  0  0  0  0
 12  3  2  0  0  0  0
 13  3  1  6  0  0  0
 14 17  1  0  0  0  0
 16 13  1  0  0  0  0
 17 15  1  6  0  0  0
 17 13  1  0  0  0  0
 18 16  1  0  0  0  0
 19 18  1  1  0  0  0
 19 15  1  0  0  0  0
 20 21  1  6  0  0  0
 20 14  1  0  0  0  0
 20 19  1  0  0  0  0
 22 25  2  0  0  0  0
 24 25  1  0  0  0  0
 25 23  1  0  0  0  0
 25 21  1  0  0  0  0
 26 30  2  0  0  0  0
 28 33  1  6  0  0  0
 28 26  1  0  0  0  0
 28 31  1  0  0  0  0
 29 26  1  0  0  0  0
 30 27  1  0  0  0  0
 31 27  2  0  0  0  0
 33 32  1  1  0  0  0
 33 35  1  0  0  0  0
 34 35  1  0  0  0  0
M  END
>  <MODEL>
8

>  <REMARK>
 VINA RESULT:      -7.2      4.611      6.658
  Name = 
  6 active torsions:
  status: ('A' for Active; 'I' for Inactive)
    1  A    between atoms: C_1  and  C_13
    2  A    between atoms: C_7  and  C_22
    3  A    between atoms: C_16  and  N_21
    4  A    between atoms: C_22  and  C_34
    5  A    between atoms: O_25  and  P_27
    6  A    between atoms: O_25  and  C_28
                            x       y       z     vdW  Elec       q    Type
                         _______ _______ _______ _____ _____    ______ ____

>  <TORSDO>
F 6

$$$$
=
 OpenBabel11062421583D

 35 39  0  0  1  0  0  0  0  0999 V2000
  190.1220  171.9390  144.4030 C   0  0  0  0  0  1  0  0  0  0  0  0
  189.3660  172.3610  143.1550 C   0  0  1  0  0  3  0  0  0  0  0  0
  188.4870  174.3930  141.8310 C   0  0  0  0  0  0  0  0  0  0  0  0
  189.9010  172.1350  139.3470 C   0  0  0  0  0  0  0  0  0  0  0  0
  188.9340  173.8470  143.1800 C   0  0  2  0  0  3  0  0  0  0  0  0
  189.1360  173.0820  138.4270 C   0  0  0  0  0  2  0  0  0  0  0  0
  189.2420  172.2880  140.7070 C   0  0  1  0  0  3  0  0  0  0  0  0
  191.2340  172.5090  139.3850 F   0  0  0  0  0  0  0  0  0  0  0  0
  188.5670  174.1900  139.3060 C   0  0  0  0  0  2  0  0  0  0  0  0
  189.7880  170.8330  138.8990 F   0  0  0  0  0  0  0  0  0  0  0  0
  190.1540  172.0210  141.8960 C   0  0  0  0  0  2  0  0  0  0  0  0
  188.7160  173.6820  140.6980 C   0  0  0  0  0  0  0  0  0  0  0  0
  187.8960  175.7850  141.8260 C   0  0  2  0  0  3  0  0  0  0  0  0
  187.1140  176.0500  144.1040 O   0  0  0  0  0  0  0  0  0  0  0  0
  186.0460  177.2750  142.4090 C   0  0  0  0  0  2  0  0  0  0  0  0
  188.9400  176.9020  142.0130 C   0  0  0  0  0  2  0  0  0  0  0  0
  186.6830  175.9520  142.7630 C   0  0  1  0  0  3  0  0  0  0  0  0
  188.2740  178.2790  142.2200 C   0  0  0  0  0  2  0  0  0  0  0  0
  186.9960  178.2060  143.0910 C   0  0  2  0  0  3  0  0  0  0  0  0
  187.2160  177.4320  144.3860 C   0  0  2  0  0  3  0  0  0  0  0  0
  188.4570  177.7260  144.9640 O   0  0  0  0  0  0  0  0  0  0  0  0
  186.8160  177.6710  147.2040 O   0  0  0  0  0  1  0  0  0  0  0  0
  188.5210  175.5710  146.6840 O   0  0  0  0  0  0  0  0  0  0  0  0
  189.4160  177.9150  147.4070 O   0  0  0  0  0  1  0  0  0  0  0  0
  188.3350  177.2480  146.5870 P   0  0  0  0  0  0  0  0  0  0  0  0
  191.2520  174.9790  143.2640 C   0  0  0  0  0  0  0  0  0  0  0  0
  192.9740  175.0170  141.8000 C   0  0  0  0  0  3  0  0  0  0  0  0
  192.2510  175.8170  143.9760 C   0  0  2  0  0  3  0  0  0  0  0  0
  189.9460  174.7120  143.7930 N   0  0  0  0  0  2  0  0  0  0  0  0
  191.6320  174.5650  142.1080 N   0  0  0  0  0  0  0  0  0  0  0  0
  193.3970  175.8960  142.9750 C   0  0  0  0  0  3  0  0  0  0  0  0
  191.8970  175.5240  146.3550 O   0  0  0  0  0  1  0  0  0  0  0  0
  192.7340  175.1840  145.2860 C   0  0  2  0  0  3  0  0  0  0  0  0
  194.1910  176.7900  146.5130 C   0  0  0  0  0  1  0  0  0  0  0  0
  194.1680  175.5910  145.5870 C   0  0  0  0  0  2  0  0  0  0  0  0
  2  5  1  0  0  0  0
  2  1  1  1  0  0  0
  3  5  1  0  0  0  0
  4  8  1  0  0  0  0
  4  7  1  0  0  0  0
  5 29  1  6  0  0  0
  6  9  1  0  0  0  0
  6  4  1  0  0  0  0
  7 11  1  1  0  0  0
  9 12  1  0  0  0  0
 10  4  1  0  0  0  0
 11  2  1  0  0  0  0
 12  7  1  0  0  0  0
 12  3  2  0  0  0  0
 13  3  1  1  0  0  0
 13 16  1  0  0  0  0
 13 17  1  0  0  0  0
 14 20  1  0  0  0  0
 15 19  1  0  0  0  0
 16 18  1  0  0  0  0
 17 15  1  6  0  0  0
 17 14  1  0  0  0  0
 19 18  1  6  0  0  0
 19 20  1  0  0  0  0
 20 21  1  6  0  0  0
 21 25  1  0  0  0  0
 25 23  2  0  0  0  0
 25 22  1  0  0  0  0
 25 24  1  0  0  0  0
 26 29  1  0  0  0  0
 26 28  1  0  0  0  0
 27 30  1  0  0  0  0
 27 31  2  0  0  0  0
 28 33  1  1  0  0  0
 30 26  2  0  0  0  0
 31 28  1  0  0  0  0
 33 35  1  0  0  0  0
 33 32  1  1  0  0  0
 35 34  1  0  0  0  0
M  END
>  <MODEL>
9

>  <REMARK>
 VINA RESULT:      -7.2      2.808      5.897
  Name = 
  6 active torsions:
  status: ('A' for Active; 'I' for Inactive)
    1  A    between atoms: C_1  and  C_13
    2  A    between atoms: C_7  and  C_22
    3  A    between atoms: C_16  and  N_21
    4  A    between atoms: C_22  and  C_34
    5  A    between atoms: O_25  and  P_27
    6  A    between atoms: O_25  and  C_28
                            x       y       z     vdW  Elec       q    Type
                         _______ _______ _______ _____ _____    ______ ____

>  <TORSDO>
F 6

$$$$
