=
 OpenBabel11072409303D

 40 44  0  0  1  0  0  0  0  0999 V2000
  191.9700  174.2240  145.3540 C   0  0  1  0  0  3  0  0  0  0  0  0
  188.8200  176.7290  146.6820 C   0  0  0  0  0  0  0  0  0  0  0  0
  189.6450  177.1510  145.6360 C   0  0  0  0  0  3  0  0  0  0  0  0
  191.4940  176.6870  143.9880 C   0  0  1  0  0  3  0  0  0  0  0  0
  193.6770  173.6050  143.8420 C   0  0  2  0  0  3  0  0  0  0  0  0
  190.8650  175.0710  145.8160 C   0  0  0  0  0  0  0  0  0  0  0  0
  193.8260  176.4970  142.9970 O   0  0  0  0  0  0  0  0  0  0  0  0
  191.9290  172.9380  145.3270 N   0  0  0  0  0  2  0  0  0  0  0  0
  193.2930  175.9570  141.8130 C   0  0  0  0  0  2  0  0  0  0  0  0
  190.6830  176.3230  145.2090 C   0  0  0  0  0  0  0  0  0  0  0  0
  187.7510  177.5580  147.1230 N   0  0  0  0  0  1  0  0  0  0  0  0
  193.8620  174.5800  141.5470 C   0  0  2  0  0  3  0  0  0  0  0  0
  193.6460  174.2530  140.2220 F   0  0  0  0  0  0  0  0  0  0  0  0
  190.0020  174.6730  146.8410 C   0  0  0  0  0  3  0  0  0  0  0  0
  193.0720  172.4020  144.5890 C   0  0  2  0  0  3  0  0  0  0  0  0
  193.1400  174.7860  144.6510 C   0  0  1  0  0  3  0  0  0  0  0  0
  193.0000  176.2440  144.1290 C   0  0  2  0  0  0  0  0  0  0  0  0
  193.1420  173.5740  142.4190 C   0  0  0  0  0  2  0  0  0  0  0  0
  189.0070  175.5060  147.2490 N   0  0  0  0  0  0  0  0  0  0  0  0
  194.0880  171.7940  145.5550 C   0  0  1  0  0  3  0  0  0  0  0  0
  194.1870  170.2970  145.3320 C   0  0  0  0  0  1  0  0  0  0  0  0
  195.3420  172.3700  145.3570 O   0  0  0  0  0  1  0  0  0  0  0  0
  193.5940  177.0940  145.2600 C   0  0  0  0  0  2  0  0  0  0  0  0
  194.6710  176.3620  146.0490 C   0  0  0  0  0  1  0  0  0  0  0  0
  190.8400  176.1230  142.8550 O   0  0  0  0  0  0  0  0  0  0  0  0
  187.9720  178.1340  141.5950 C   0  0  0  0  0  2  0  0  0  0  0  0
  188.4110  175.4800  142.7950 C   0  0  2  0  0  3  0  0  0  0  0  0
  186.9870  176.9970  141.3570 C   0  0  0  0  0  2  0  0  0  0  0  0
  189.2980  177.6220  141.9380 N   0  0  0  0  0  0  0  0  0  0  0  0
  187.0040  176.0670  142.5650 C   0  0  2  0  0  3  0  0  0  0  0  0
  189.5290  176.4710  142.5130 C   0  0  0  0  0  0  0  0  0  0  0  0
  187.3660  173.5330  141.8410 O   0  0  0  0  0  1  0  0  0  0  0  0
  189.3170  174.2990  140.7670 C   0  0  0  0  0  1  0  0  0  0  0  0
  188.6090  174.1130  142.0980 C   0  0  0  0  0  0  0  0  0  0  0  0
  189.4320  173.1650  142.9560 C   0  0  0  0  0  1  0  0  0  0  0  0
  186.5710  176.7460  143.7100 O   0  0  0  0  0  0  0  0  0  0  0  0
  185.2740  177.1680  143.4120 C   0  0  0  0  0  2  0  0  0  0  0  0
  184.1420  178.4380  145.0800 O   0  0  0  0  0  1  0  0  0  0  0  0
  184.9780  178.4340  144.1390 C   0  0  0  0  0  0  0  0  0  0  0  0
  185.5900  179.6170  143.7520 O   0  0  0  0  0  0  0  0  0  0  0  0
  1  8  1  6  0  0  0
  1  6  1  0  0  0  0
  2 11  1  0  0  0  0
  2 19  1  0  0  0  0
  3  2  2  0  0  0  0
  4 25  1  6  0  0  0
  4 17  1  0  0  0  0
  4 10  1  0  0  0  0
  5 18  1  6  0  0  0
  5 15  1  0  0  0  0
  5 16  1  0  0  0  0
  6 14  1  0  0  0  0
  7 17  1  0  0  0  0
  9  7  1  0  0  0  0
 10  3  1  0  0  0  0
 10  6  2  0  0  0  0
 12 13  1  6  0  0  0
 12  9  1  0  0  0  0
 12 18  1  0  0  0  0
 14 19  2  0  0  0  0
 15  8  1  0  0  0  0
 15 20  1  1  0  0  0
 16  1  1  0  0  0  0
 17 16  1  0  0  0  0
 17 23  1  0  0  0  0
 21 20  1  0  0  0  0
 22 20  1  0  0  0  0
 23 24  1  0  0  0  0
 26 29  1  0  0  0  0
 28 26  1  0  0  0  0
 28 30  1  0  0  0  0
 29 31  2  0  0  0  0
 30 27  1  0  0  0  0
 30 36  1  0  0  0  0
 31 27  1  0  0  0  0
 31 25  1  0  0  0  0
 32 34  1  0  0  0  0
 33 34  1  0  0  0  0
 34 27  1  0  0  0  0
 34 35  1  0  0  0  0
 37 36  1  0  0  0  0
 37 39  1  0  0  0  0
 39 38  1  0  0  0  0
 40 39  2  0  0  0  0
M  END
>  <MODEL>
1

>  <REMARK>
 VINA RESULT:      -7.1      0.000      0.000
  Name = 
  8 active torsions:
  status: ('A' for Active; 'I' for Inactive)
    1  A    between atoms: C_1  and  C_29
    2  A    between atoms: C_7  and  C_27
    3  A    between atoms: C_8  and  O_25
    4  A    between atoms: C_10  and  C_34
    5  A    between atoms: C_15  and  C_31
    6  A    between atoms: C_15  and  O_38
    7  A    between atoms: O_25  and  C_39
    8  A    between atoms: C_35  and  O_38
                            x       y       z     vdW  Elec       q    Type
                         _______ _______ _______ _____ _____    ______ ____

>  <TORSDO>
F 8

$$$$
=
 OpenBabel11072409303D

 40 44  0  0  1  0  0  0  0  0999 V2000
  193.1230  173.9400  145.2190 C   0  0  1  0  0  3  0  0  0  0  0  0
  190.6210  176.8740  146.9750 C   0  0  0  0  0  0  0  0  0  0  0  0
  191.1400  177.0840  145.6950 C   0  0  0  0  0  3  0  0  0  0  0  0
  192.4190  176.2470  143.6910 C   0  0  1  0  0  3  0  0  0  0  0  0
  194.2970  172.9810  143.4060 C   0  0  2  0  0  3  0  0  0  0  0  0
  192.2430  174.9370  145.8360 C   0  0  0  0  0  0  0  0  0  0  0  0
  194.3620  175.7180  142.1420 O   0  0  0  0  0  0  0  0  0  0  0  0
  193.0050  172.6690  145.3920 N   0  0  0  0  0  2  0  0  0  0  0  0
  193.4880  175.0880  141.2390 C   0  0  0  0  0  2  0  0  0  0  0  0
  191.9670  176.1150  145.1260 C   0  0  0  0  0  0  0  0  0  0  0  0
  189.7680  177.8490  147.5650 N   0  0  0  0  0  1  0  0  0  0  0  0
  193.8810  173.6410  141.0310 C   0  0  2  0  0  3  0  0  0  0  0  0
  193.2820  173.1750  139.8770 F   0  0  0  0  0  0  0  0  0  0  0  0
  191.6830  174.7520  147.1040 C   0  0  0  0  0  3  0  0  0  0  0  0
  193.8620  171.9410  144.4560 C   0  0  2  0  0  3  0  0  0  0  0  0
  194.0770  174.2970  144.1510 C   0  0  1  0  0  3  0  0  0  0  0  0
  193.8760  175.6870  143.4800 C   0  0  2  0  0  0  0  0  0  0  0  0
  193.3810  172.8240  142.2030 C   0  0  0  0  0  2  0  0  0  0  0  0
  190.8920  175.7190  147.6420 N   0  0  0  0  0  0  0  0  0  0  0  0
  195.0730  171.3650  145.1880 C   0  0  1  0  0  3  0  0  0  0  0  0
  194.7040  170.0530  145.8530 C   0  0  0  0  0  1  0  0  0  0  0  0
  196.1160  171.1430  144.2880 O   0  0  0  0  0  1  0  0  0  0  0  0
  194.8120  176.6100  144.2710 C   0  0  0  0  0  2  0  0  0  0  0  0
  196.2300  176.6340  143.7170 C   0  0  0  0  0  1  0  0  0  0  0  0
  191.4420  175.6120  142.8740 O   0  0  0  0  0  0  0  0  0  0  0  0
  188.6440  177.9740  142.2040 C   0  0  0  0  0  2  0  0  0  0  0  0
  188.9780  175.2080  143.1600 C   0  0  2  0  0  3  0  0  0  0  0  0
  187.5200  176.9570  142.0580 C   0  0  0  0  0  2  0  0  0  0  0  0
  189.9450  177.3140  142.3020 N   0  0  0  0  0  0  0  0  0  0  0  0
  187.6210  175.9420  143.1910 C   0  0  2  0  0  3  0  0  0  0  0  0
  190.1380  176.1070  142.7640 C   0  0  0  0  0  0  0  0  0  0  0  0
  187.5930  173.5420  142.1120 O   0  0  0  0  0  1  0  0  0  0  0  0
  189.6170  174.0510  141.0200 C   0  0  0  0  0  1  0  0  0  0  0  0
  188.9220  173.8850  142.3610 C   0  0  0  0  0  0  0  0  0  0  0  0
  189.5940  172.7500  143.1170 C   0  0  0  0  0  1  0  0  0  0  0  0
  187.4410  176.5720  144.4280 O   0  0  0  0  0  0  0  0  0  0  0  0
  186.0670  176.8020  144.5200 C   0  0  0  0  0  2  0  0  0  0  0  0
  186.4850  176.6440  146.8600 O   0  0  0  0  0  1  0  0  0  0  0  0
  185.6800  176.9680  145.9490 C   0  0  0  0  0  0  0  0  0  0  0  0
  184.4170  177.4400  146.2760 O   0  0  0  0  0  0  0  0  0  0  0  0
  1  8  1  6  0  0  0
  1  6  1  0  0  0  0
  2 11  1  0  0  0  0
  2 19  1  0  0  0  0
  3  2  2  0  0  0  0
  4 25  1  6  0  0  0
  4 10  1  0  0  0  0
  5 18  1  6  0  0  0
  5 16  1  0  0  0  0
  5 15  1  0  0  0  0
  6 14  1  0  0  0  0
  7 17  1  0  0  0  0
  9  7  1  0  0  0  0
 10  3  1  0  0  0  0
 10  6  2  0  0  0  0
 12 13  1  6  0  0  0
 12  9  1  0  0  0  0
 12 18  1  0  0  0  0
 14 19  2  0  0  0  0
 15 20  1  1  0  0  0
 15  8  1  0  0  0  0
 16  1  1  0  0  0  0
 17  4  1  0  0  0  0
 17 16  1  0  0  0  0
 17 23  1  0  0  0  0
 20 21  1  0  0  0  0
 22 20  1  0  0  0  0
 24 23  1  0  0  0  0
 26 29  1  0  0  0  0
 27 30  1  0  0  0  0
 28 26  1  0  0  0  0
 28 30  1  0  0  0  0
 29 31  2  0  0  0  0
 30 36  1  0  0  0  0
 31 25  1  0  0  0  0
 31 27  1  0  0  0  0
 32 34  1  0  0  0  0
 33 34  1  0  0  0  0
 34 35  1  0  0  0  0
 34 27  1  0  0  0  0
 36 37  1  0  0  0  0
 37 39  1  0  0  0  0
 39 40  2  0  0  0  0
 39 38  1  0  0  0  0
M  END
>  <MODEL>
2

>  <REMARK>
 VINA RESULT:      -6.6      1.342      1.496
  Name = 
  8 active torsions:
  status: ('A' for Active; 'I' for Inactive)
    1  A    between atoms: C_1  and  C_29
    2  A    between atoms: C_7  and  C_27
    3  A    between atoms: C_8  and  O_25
    4  A    between atoms: C_10  and  C_34
    5  A    between atoms: C_15  and  C_31
    6  A    between atoms: C_15  and  O_38
    7  A    between atoms: O_25  and  C_39
    8  A    between atoms: C_35  and  O_38
                            x       y       z     vdW  Elec       q    Type
                         _______ _______ _______ _____ _____    ______ ____

>  <TORSDO>
F 8

$$$$
=
 OpenBabel11072409303D

 40 44  0  0  1  0  0  0  0  0999 V2000
  193.0250  172.9080  141.8110 C   0  0  1  0  0  3  0  0  0  0  0  0
  188.7890  172.7940  141.8680 C   0  0  0  0  0  0  0  0  0  0  0  0
  189.5020  172.6110  143.0560 C   0  0  0  0  0  3  0  0  0  0  0  0
  191.6860  172.6000  144.3140 C   0  0  1  0  0  3  0  0  0  0  0  0
  195.1460  172.9960  142.8480 C   0  0  2  0  0  3  0  0  0  0  0  0
  191.5580  172.8870  141.8140 C   0  0  0  0  0  0  0  0  0  0  0  0
  193.8780  171.7730  145.2960 O   0  0  0  0  0  0  0  0  0  0  0  0
  193.7330  173.6570  141.0380 N   0  0  0  0  0  2  0  0  0  0  0  0
  194.1450  173.0530  145.8130 C   0  0  0  0  0  2  0  0  0  0  0  0
  190.8960  172.6450  143.0270 C   0  0  0  0  0  0  0  0  0  0  0  0
  187.3660  172.7710  141.8820 N   0  0  0  0  0  1  0  0  0  0  0  0
  195.4440  173.5970  145.2570 C   0  0  2  0  0  3  0  0  0  0  0  0
  195.8740  174.6360  146.0580 F   0  0  0  0  0  0  0  0  0  0  0  0
  190.8090  173.0920  140.6520 C   0  0  0  0  0  3  0  0  0  0  0  0
  195.1370  173.6320  141.4450 C   0  0  2  0  0  3  0  0  0  0  0  0
  193.8160  172.2440  142.8650 C   0  0  1  0  0  3  0  0  0  0  0  0
  193.0410  171.8150  144.1450 C   0  0  2  0  0  0  0  0  0  0  0  0
  195.1950  174.1290  143.8620 C   0  0  0  0  0  2  0  0  0  0  0  0
  189.4510  173.0390  140.7040 N   0  0  0  0  0  0  0  0  0  0  0  0
  195.9580  172.7980  140.4640 C   0  0  1  0  0  3  0  0  0  0  0  0
  195.5850  173.1560  139.0370 C   0  0  0  0  0  1  0  0  0  0  0  0
  197.3190  173.0350  140.6530 O   0  0  0  0  0  1  0  0  0  0  0  0
  192.6620  170.3550  143.8670 C   0  0  0  0  0  2  0  0  0  0  0  0
  193.4980  169.3630  144.6630 C   0  0  0  0  0  1  0  0  0  0  0  0
  191.8570  173.9410  144.7600 O   0  0  0  0  0  0  0  0  0  0  0  0
  188.8690  175.2380  146.5610 C   0  0  0  0  0  2  0  0  0  0  0  0
  190.4430  175.9340  144.1700 C   0  0  2  0  0  3  0  0  0  0  0  0
  188.8810  176.6620  146.0210 C   0  0  0  0  0  2  0  0  0  0  0  0
  190.0690  174.5090  146.1540 N   0  0  0  0  0  0  0  0  0  0  0  0
  189.1050  176.6190  144.5140 C   0  0  2  0  0  3  0  0  0  0  0  0
  190.7660  174.7580  145.0770 C   0  0  0  0  0  0  0  0  0  0  0  0
  192.3810  176.9330  145.1900 O   0  0  0  0  0  1  0  0  0  0  0  0
  192.5100  176.5430  142.8710 C   0  0  0  0  0  1  0  0  0  0  0  0
  191.6090  176.9410  144.0270 C   0  0  0  0  0  0  0  0  0  0  0  0
  191.0990  178.3510  143.7800 C   0  0  0  0  0  1  0  0  0  0  0  0
  188.0470  175.9550  143.8820 O   0  0  0  0  0  0  0  0  0  0  0  0
  187.3410  176.9540  143.2100 C   0  0  0  0  0  2  0  0  0  0  0  0
  188.4300  178.1730  141.4780 O   0  0  0  0  0  1  0  0  0  0  0  0
  187.8720  177.1010  141.8260 C   0  0  0  0  0  0  0  0  0  0  0  0
  187.7130  176.0730  140.9090 O   0  0  0  0  0  0  0  0  0  0  0  0
  1  8  1  1  0  0  0
  1  6  1  0  0  0  0
  1 16  1  0  0  0  0
  2 11  1  0  0  0  0
  2  3  1  0  0  0  0
  4 25  1  6  0  0  0
  5 16  1  0  0  0  0
  5 18  1  1  0  0  0
  6 10  1  0  0  0  0
  7  9  1  0  0  0  0
  8 15  1  0  0  0  0
 10  3  2  0  0  0  0
 10  4  1  0  0  0  0
 12  9  1  0  0  0  0
 12 13  1  1  0  0  0
 14 19  1  0  0  0  0
 14  6  2  0  0  0  0
 15 20  1  6  0  0  0
 15  5  1  0  0  0  0
 16 17  1  0  0  0  0
 17  4  1  0  0  0  0
 17  7  1  0  0  0  0
 18 12  1  0  0  0  0
 19  2  2  0  0  0  0
 20 22  1  0  0  0  0
 21 20  1  0  0  0  0
 23 17  1  0  0  0  0
 23 24  1  0  0  0  0
 25 31  1  0  0  0  0
 27 30  1  0  0  0  0
 27 31  1  0  0  0  0
 28 26  1  0  0  0  0
 29 26  1  0  0  0  0
 30 28  1  0  0  0  0
 31 29  2  0  0  0  0
 33 34  1  0  0  0  0
 34 27  1  0  0  0  0
 34 32  1  0  0  0  0
 35 34  1  0  0  0  0
 36 30  1  0  0  0  0
 37 36  1  0  0  0  0
 38 39  1  0  0  0  0
 39 37  1  0  0  0  0
 40 39  2  0  0  0  0
M  END
>  <MODEL>
3

>  <REMARK>
 VINA RESULT:      -6.6      2.515      4.983
  Name = 
  8 active torsions:
  status: ('A' for Active; 'I' for Inactive)
    1  A    between atoms: C_1  and  C_29
    2  A    between atoms: C_7  and  C_27
    3  A    between atoms: C_8  and  O_25
    4  A    between atoms: C_10  and  C_34
    5  A    between atoms: C_15  and  C_31
    6  A    between atoms: C_15  and  O_38
    7  A    between atoms: O_25  and  C_39
    8  A    between atoms: C_35  and  O_38
                            x       y       z     vdW  Elec       q    Type
                         _______ _______ _______ _____ _____    ______ ____

>  <TORSDO>
F 8

$$$$
=
 OpenBabel11072409303D

 40 44  0  0  1  0  0  0  0  0999 V2000
  194.6190  174.8110  142.0230 C   0  0  1  0  0  3  0  0  0  0  0  0
  192.1020  173.8980  138.7380 C   0  0  0  0  0  0  0  0  0  0  0  0
  191.7360  173.4920  140.0240 C   0  0  0  0  0  3  0  0  0  0  0  0
  192.1310  173.4970  142.5130 C   0  0  1  0  0  3  0  0  0  0  0  0
  195.1010  174.9650  144.3300 C   0  0  2  0  0  3  0  0  0  0  0  0
  193.7530  174.5170  140.8760 C   0  0  0  0  0  0  0  0  0  0  0  0
  193.0230  172.8300  144.7960 O   0  0  0  0  0  0  0  0  0  0  0  0
  195.3280  175.8800  142.1350 N   0  0  0  0  0  2  0  0  0  0  0  0
  192.3510  173.9120  145.3900 C   0  0  0  0  0  2  0  0  0  0  0  0
  192.5730  173.7920  141.0990 C   0  0  0  0  0  0  0  0  0  0  0  0
  191.2540  173.6080  137.6320 N   0  0  0  0  0  1  0  0  0  0  0  0
  193.3280  174.8330  146.0880 C   0  0  2  0  0  3  0  0  0  0  0  0
  192.6350  175.6340  146.9750 F   0  0  0  0  0  0  0  0  0  0  0  0
  194.0710  174.9290  139.5780 C   0  0  0  0  0  3  0  0  0  0  0  0
  195.8780  175.9920  143.4850 C   0  0  2  0  0  3  0  0  0  0  0  0
  194.5680  174.0110  143.2620 C   0  0  1  0  0  3  0  0  0  0  0  0
  193.3400  173.0700  143.4290 C   0  0  2  0  0  0  0  0  0  0  0  0
  193.9950  175.7160  145.0550 C   0  0  0  0  0  2  0  0  0  0  0  0
  193.2460  174.6110  138.5460 N   0  0  0  0  0  0  0  0  0  0  0  0
  197.3720  175.6710  143.4760 C   0  0  1  0  0  3  0  0  0  0  0  0
  197.6440  174.4370  144.3140 C   0  0  0  0  0  1  0  0  0  0  0  0
  197.8060  175.4420  142.1710 O   0  0  0  0  0  1  0  0  0  0  0  0
  193.8380  171.7250  142.8860 C   0  0  0  0  0  2  0  0  0  0  0  0
  195.2630  171.4030  143.3120 C   0  0  0  0  0  1  0  0  0  0  0  0
  191.4320  174.6420  142.9910 O   0  0  0  0  0  0  0  0  0  0  0  0
  187.9660  173.9690  141.8130 C   0  0  0  0  0  2  0  0  0  0  0  0
  189.4550  176.1920  143.0450 C   0  0  2  0  0  3  0  0  0  0  0  0
  187.2430  175.0430  142.6140 C   0  0  0  0  0  2  0  0  0  0  0  0
  189.3690  173.8680  142.2100 N   0  0  0  0  0  0  0  0  0  0  0  0
  188.0190  176.3510  142.5030 C   0  0  2  0  0  3  0  0  0  0  0  0
  190.0750  174.8440  142.7160 C   0  0  0  0  0  0  0  0  0  0  0  0
  190.8470  177.0950  144.7890 O   0  0  0  0  0  1  0  0  0  0  0  0
  188.5610  177.6540  144.8870 C   0  0  0  0  0  1  0  0  0  0  0  0
  189.5750  176.5780  144.5380 C   0  0  0  0  0  0  0  0  0  0  0  0
  189.3390  175.3790  145.4430 C   0  0  0  0  0  1  0  0  0  0  0  0
  188.0510  176.7880  141.1740 O   0  0  0  0  0  0  0  0  0  0  0  0
  187.1410  177.8460  141.1190 C   0  0  0  0  0  2  0  0  0  0  0  0
  184.9550  177.9940  140.1860 O   0  0  0  0  0  1  0  0  0  0  0  0
  186.1390  177.5930  140.0470 C   0  0  0  0  0  0  0  0  0  0  0  0
  186.5000  176.8790  138.9130 O   0  0  0  0  0  0  0  0  0  0  0  0
  1  6  1  1  0  0  0
  1  8  1  0  0  0  0
  1 16  1  0  0  0  0
  2  3  1  0  0  0  0
  3 10  2  0  0  0  0
  4 25  1  1  0  0  0
  4 17  1  0  0  0  0
  5 18  1  6  0  0  0
  6 10  1  0  0  0  0
  7  9  1  0  0  0  0
  8 15  1  0  0  0  0
  9 12  1  0  0  0  0
 10  4  1  0  0  0  0
 11  2  1  0  0  0  0
 12 13  1  1  0  0  0
 14  6  2  0  0  0  0
 15 20  1  6  0  0  0
 15  5  1  0  0  0  0
 16 17  1  0  0  0  0
 16  5  1  0  0  0  0
 17  7  1  0  0  0  0
 18 12  1  0  0  0  0
 19  2  2  0  0  0  0
 19 14  1  0  0  0  0
 20 21  1  0  0  0  0
 22 20  1  0  0  0  0
 23 24  1  0  0  0  0
 23 17  1  0  0  0  0
 26 29  1  0  0  0  0
 26 28  1  0  0  0  0
 27 34  1  0  0  0  0
 29 31  2  0  0  0  0
 30 28  1  0  0  0  0
 30 27  1  0  0  0  0
 31 25  1  0  0  0  0
 31 27  1  0  0  0  0
 34 32  1  0  0  0  0
 34 33  1  0  0  0  0
 34 35  1  0  0  0  0
 36 30  1  0  0  0  0
 37 36  1  0  0  0  0
 39 38  1  0  0  0  0
 39 37  1  0  0  0  0
 40 39  2  0  0  0  0
M  END
>  <MODEL>
4

>  <REMARK>
 VINA RESULT:      -6.2      2.935      5.174
  Name = 
  8 active torsions:
  status: ('A' for Active; 'I' for Inactive)
    1  A    between atoms: C_1  and  C_29
    2  A    between atoms: C_7  and  C_27
    3  A    between atoms: C_8  and  O_25
    4  A    between atoms: C_10  and  C_34
    5  A    between atoms: C_15  and  C_31
    6  A    between atoms: C_15  and  O_38
    7  A    between atoms: O_25  and  C_39
    8  A    between atoms: C_35  and  O_38
                            x       y       z     vdW  Elec       q    Type
                         _______ _______ _______ _____ _____    ______ ____

>  <TORSDO>
F 8

$$$$
=
 OpenBabel11072409303D

 40 44  0  0  1  0  0  0  0  0999 V2000
  189.2530  174.8370  144.9220 C   0  0  1  0  0  3  0  0  0  0  0  0
  190.9400  171.3230  143.2600 C   0  0  0  0  0  0  0  0  0  0  0  0
  191.1150  172.5480  142.6110 C   0  0  0  0  0  3  0  0  0  0  0  0
  190.8480  175.0540  142.5640 C   0  0  1  0  0  3  0  0  0  0  0  0
  188.9740  177.1790  145.0650 C   0  0  2  0  0  3  0  0  0  0  0  0
  189.8430  173.6130  144.3700 C   0  0  0  0  0  0  0  0  0  0  0  0
  189.8220  177.3450  142.1750 O   0  0  0  0  0  0  0  0  0  0  0  0
  189.1320  175.0730  146.1820 N   0  0  0  0  0  2  0  0  0  0  0  0
  190.9420  177.9610  142.7590 C   0  0  0  0  0  2  0  0  0  0  0  0
  190.5510  173.6990  143.1620 C   0  0  0  0  0  0  0  0  0  0  0  0
  191.5170  170.1420  142.7160 N   0  0  0  0  0  1  0  0  0  0  0  0
  190.5340  178.7900  143.9590 C   0  0  2  0  0  3  0  0  0  0  0  0
  191.5500  179.6770  144.2580 F   0  0  0  0  0  0  0  0  0  0  0  0
  189.7130  172.3730  145.0030 C   0  0  0  0  0  3  0  0  0  0  0  0
  188.7420  176.4650  146.4090 C   0  0  2  0  0  3  0  0  0  0  0  0
  188.9630  176.0120  144.0780 C   0  0  1  0  0  3  0  0  0  0  0  0
  189.6110  176.0240  142.6630 C   0  0  2  0  0  0  0  0  0  0  0  0
  190.3260  177.8710  145.1430 C   0  0  0  0  0  2  0  0  0  0  0  0
  190.2590  171.2640  144.4370 N   0  0  0  0  0  0  0  0  0  0  0  0
  187.2730  176.5420  146.8210 C   0  0  1  0  0  3  0  0  0  0  0  0
  186.9920  177.8700  147.4990 C   0  0  0  0  0  1  0  0  0  0  0  0
  186.4540  176.4200  145.7000 O   0  0  0  0  0  1  0  0  0  0  0  0
  188.5230  175.4280  141.7610 C   0  0  0  0  0  2  0  0  0  0  0  0
  187.1530  176.0490  141.9930 C   0  0  0  0  0  1  0  0  0  0  0  0
  192.0180  175.5570  143.2020 O   0  0  0  0  0  0  0  0  0  0  0  0
  195.0940  173.9550  141.8510 C   0  0  0  0  0  2  0  0  0  0  0  0
  193.8010  174.3230  144.4720 C   0  0  2  0  0  3  0  0  0  0  0  0
  195.9090  173.9130  143.1360 C   0  0  0  0  0  2  0  0  0  0  0  0
  193.8590  174.7150  142.0330 N   0  0  0  0  0  0  0  0  0  0  0  0
  195.0240  173.4050  144.2690 C   0  0  2  0  0  3  0  0  0  0  0  0
  193.2320  174.8620  143.1700 C   0  0  0  0  0  0  0  0  0  0  0  0
  195.2300  175.1450  146.2260 O   0  0  0  0  0  1  0  0  0  0  0  0
  194.2010  176.7750  144.8720 C   0  0  0  0  0  1  0  0  0  0  0  0
  194.0470  175.4170  145.5380 C   0  0  0  0  0  0  0  0  0  0  0  0
  192.9000  175.4930  146.5320 C   0  0  0  0  0  1  0  0  0  0  0  0
  194.6060  172.0940  144.0110 O   0  0  0  0  0  0  0  0  0  0  0  0
  194.0690  171.6420  145.2170 C   0  0  0  0  0  2  0  0  0  0  0  0
  193.8890  169.2730  145.0360 O   0  0  0  0  0  0  0  0  0  0  0  0
  194.5370  170.2540  145.4870 C   0  0  0  0  0  0  0  0  0  0  0  0
  195.6620  170.0390  146.2700 O   0  0  0  0  0  1  0  0  0  0  0  0
  1  6  1  1  0  0  0
  1  8  1  0  0  0  0
  2 19  1  0  0  0  0
  3 10  1  0  0  0  0
  3  2  2  0  0  0  0
  4 17  1  0  0  0  0
  4 10  1  0  0  0  0
  4 25  1  1  0  0  0
  5 18  1  1  0  0  0
  5 15  1  0  0  0  0
  6 14  1  0  0  0  0
  7 17  1  0  0  0  0
  7  9  1  0  0  0  0
  8 15  1  0  0  0  0
  9 12  1  0  0  0  0
 10  6  2  0  0  0  0
 11  2  1  0  0  0  0
 12 13  1  1  0  0  0
 12 18  1  0  0  0  0
 15 20  1  6  0  0  0
 16  1  1  0  0  0  0
 16  5  1  0  0  0  0
 17 16  1  0  0  0  0
 19 14  2  0  0  0  0
 20 21  1  0  0  0  0
 22 20  1  0  0  0  0
 23 24  1  0  0  0  0
 23 17  1  0  0  0  0
 26 29  1  0  0  0  0
 26 28  1  0  0  0  0
 27 34  1  0  0  0  0
 28 30  1  0  0  0  0
 29 31  2  0  0  0  0
 30 27  1  0  0  0  0
 31 25  1  0  0  0  0
 31 27  1  0  0  0  0
 33 34  1  0  0  0  0
 34 32  1  0  0  0  0
 34 35  1  0  0  0  0
 36 30  1  0  0  0  0
 36 37  1  0  0  0  0
 37 39  1  0  0  0  0
 38 39  2  0  0  0  0
 39 40  1  0  0  0  0
M  END
>  <MODEL>
5

>  <REMARK>
 VINA RESULT:      -6.2      2.342      7.330
  Name = 
  8 active torsions:
  status: ('A' for Active; 'I' for Inactive)
    1  A    between atoms: C_1  and  C_29
    2  A    between atoms: C_7  and  C_27
    3  A    between atoms: C_8  and  O_25
    4  A    between atoms: C_10  and  C_34
    5  A    between atoms: C_15  and  C_31
    6  A    between atoms: C_15  and  O_38
    7  A    between atoms: O_25  and  C_39
    8  A    between atoms: C_35  and  O_38
                            x       y       z     vdW  Elec       q    Type
                         _______ _______ _______ _____ _____    ______ ____

>  <TORSDO>
F 8

$$$$
=
 OpenBabel11072409303D

 40 44  0  0  1  0  0  0  0  0999 V2000
  193.4370  173.8880  142.3200 C   0  0  1  0  0  3  0  0  0  0  0  0
  189.3720  172.6890  142.3630 C   0  0  0  0  0  0  0  0  0  0  0  0
  189.9780  173.1220  143.5460 C   0  0  0  0  0  3  0  0  0  0  0  0
  191.9550  174.1190  144.7500 C   0  0  1  0  0  3  0  0  0  0  0  0
  195.3520  174.8820  143.2820 C   0  0  2  0  0  3  0  0  0  0  0  0
  192.0270  173.4840  142.3130 C   0  0  0  0  0  0  0  0  0  0  0  0
  194.1650  174.2900  145.9900 O   0  0  0  0  0  0  0  0  0  0  0  0
  194.0210  174.4820  141.3380 N   0  0  0  0  0  2  0  0  0  0  0  0
  194.0590  175.6910  146.0150 C   0  0  0  0  0  2  0  0  0  0  0  0
  191.3180  173.5090  143.5230 C   0  0  0  0  0  0  0  0  0  0  0  0
  188.0040  172.2990  142.3670 N   0  0  0  0  0  1  0  0  0  0  0  0
  195.2390  176.3320  145.3160 C   0  0  2  0  0  3  0  0  0  0  0  0
  195.3190  177.6580  145.6940 F   0  0  0  0  0  0  0  0  0  0  0  0
  191.3770  173.0700  141.1460 C   0  0  0  0  0  3  0  0  0  0  0  0
  195.3380  174.9700  141.7440 C   0  0  2  0  0  3  0  0  0  0  0  0
  194.2480  173.8600  143.5520 C   0  0  1  0  0  3  0  0  0  0  0  0
  193.4700  173.7110  144.8910 C   0  0  2  0  0  0  0  0  0  0  0  0
  195.0190  176.2650  143.8200 C   0  0  0  0  0  2  0  0  0  0  0  0
  190.0750  172.6830  141.1970 N   0  0  0  0  0  0  0  0  0  0  0  0
  196.4350  174.0960  141.1390 C   0  0  1  0  0  3  0  0  0  0  0  0
  197.0550  174.7920  139.9420 C   0  0  0  0  0  1  0  0  0  0  0  0
  197.4280  173.8470  142.0860 O   0  0  0  0  0  1  0  0  0  0  0  0
  193.4860  172.1990  145.1530 C   0  0  0  0  0  2  0  0  0  0  0  0
  194.8900  171.6460  145.3490 C   0  0  0  0  0  1  0  0  0  0  0  0
  191.7490  175.5270  144.6840 O   0  0  0  0  0  0  0  0  0  0  0  0
  190.3120  177.1030  147.7350 C   0  0  0  0  0  2  0  0  0  0  0  0
  189.4650  176.5360  144.9710 C   0  0  2  0  0  3  0  0  0  0  0  0
  189.2190  177.9270  147.0690 C   0  0  0  0  0  2  0  0  0  0  0  0
  191.1890  176.4870  146.7410 N   0  0  0  0  0  0  0  0  0  0  0  0
  188.4930  177.0570  146.0490 C   0  0  2  0  0  3  0  0  0  0  0  0
  190.8360  176.1780  145.5210 C   0  0  0  0  0  0  0  0  0  0  0  0
  188.3970  178.2790  143.7000 O   0  0  0  0  0  1  0  0  0  0  0  0
  190.7500  178.3420  143.7810 C   0  0  0  0  0  1  0  0  0  0  0  0
  189.5200  177.4520  143.7250 C   0  0  0  0  0  0  0  0  0  0  0  0
  189.5680  176.6410  142.4400 C   0  0  0  0  0  1  0  0  0  0  0  0
  187.8600  175.9830  146.6870 O   0  0  0  0  0  0  0  0  0  0  0  0
  186.7190  176.5320  147.2730 C   0  0  0  0  0  2  0  0  0  0  0  0
  185.3770  178.2920  146.3920 O   0  0  0  0  0  1  0  0  0  0  0  0
  185.8570  177.1410  146.2230 C   0  0  0  0  0  0  0  0  0  0  0  0
  185.5480  176.4240  145.0760 O   0  0  0  0  0  0  0  0  0  0  0  0
  1  8  1  1  0  0  0
  1 16  1  0  0  0  0
  2 11  1  0  0  0  0
  2  3  1  0  0  0  0
  4 25  1  6  0  0  0
  4 17  1  0  0  0  0
  5 16  1  0  0  0  0
  5 18  1  1  0  0  0
  6  1  1  0  0  0  0
  6 10  1  0  0  0  0
  7  9  1  0  0  0  0
  8 15  1  0  0  0  0
 10  3  2  0  0  0  0
 10  4  1  0  0  0  0
 12 13  1  1  0  0  0
 12  9  1  0  0  0  0
 14 19  1  0  0  0  0
 14  6  2  0  0  0  0
 15 20  1  6  0  0  0
 15  5  1  0  0  0  0
 16 17  1  0  0  0  0
 17 23  1  0  0  0  0
 17  7  1  0  0  0  0
 18 12  1  0  0  0  0
 19  2  2  0  0  0  0
 20 22  1  0  0  0  0
 21 20  1  0  0  0  0
 23 24  1  0  0  0  0
 25 31  1  0  0  0  0
 27 31  1  0  0  0  0
 27 30  1  0  0  0  0
 28 26  1  0  0  0  0
 29 26  1  0  0  0  0
 30 36  1  0  0  0  0
 30 28  1  0  0  0  0
 31 29  2  0  0  0  0
 32 34  1  0  0  0  0
 34 33  1  0  0  0  0
 34 27  1  0  0  0  0
 35 34  1  0  0  0  0
 36 37  1  0  0  0  0
 39 38  1  0  0  0  0
 39 37  1  0  0  0  0
 40 39  2  0  0  0  0
M  END
>  <MODEL>
6

>  <REMARK>
 VINA RESULT:      -6.1      2.451      4.565
  Name = 
  8 active torsions:
  status: ('A' for Active; 'I' for Inactive)
    1  A    between atoms: C_1  and  C_29
    2  A    between atoms: C_7  and  C_27
    3  A    between atoms: C_8  and  O_25
    4  A    between atoms: C_10  and  C_34
    5  A    between atoms: C_15  and  C_31
    6  A    between atoms: C_15  and  O_38
    7  A    between atoms: O_25  and  C_39
    8  A    between atoms: C_35  and  O_38
                            x       y       z     vdW  Elec       q    Type
                         _______ _______ _______ _____ _____    ______ ____

>  <TORSDO>
F 8

$$$$
=
 OpenBabel11072409303D

 40 44  0  0  1  0  0  0  0  0999 V2000
  190.2640  176.0600  143.6980 C   0  0  1  0  0  3  0  0  0  0  0  0
  193.7590  177.1670  145.8230 C   0  0  0  0  0  0  0  0  0  0  0  0
  193.2090  175.8960  146.0100 C   0  0  0  0  0  3  0  0  0  0  0  0
  191.5260  174.1290  145.3800 C   0  0  1  0  0  3  0  0  0  0  0  0
  188.6590  174.4980  142.9470 C   0  0  2  0  0  3  0  0  0  0  0  0
  191.4820  176.4550  144.4140 C   0  0  0  0  0  0  0  0  0  0  0  0
  189.3690  172.7880  145.3280 O   0  0  0  0  0  0  0  0  0  0  0  0
  189.9750  176.4420  142.5030 N   0  0  0  0  0  2  0  0  0  0  0  0
  189.8890  171.9650  144.3150 C   0  0  0  0  0  2  0  0  0  0  0  0
  192.0560  175.5420  145.3110 C   0  0  0  0  0  0  0  0  0  0  0  0
  194.9410  177.5390  146.5220 N   0  0  0  0  0  1  0  0  0  0  0  0
  189.0220  172.0270  143.0740 C   0  0  2  0  0  3  0  0  0  0  0  0
  189.3120  170.9420  142.2700 F   0  0  0  0  0  0  0  0  0  0  0  0
  192.0780  177.7070  144.2340 C   0  0  0  0  0  3  0  0  0  0  0  0
  188.8340  175.6880  141.9840 C   0  0  2  0  0  3  0  0  0  0  0  0
  189.3760  174.9940  144.2020 C   0  0  1  0  0  3  0  0  0  0  0  0
  189.9520  174.0870  145.3270 C   0  0  2  0  0  0  0  0  0  0  0  0
  189.3430  173.2960  142.3140 C   0  0  0  0  0  2  0  0  0  0  0  0
  193.1930  178.0330  144.9390 N   0  0  0  0  0  0  0  0  0  0  0  0
  187.5830  176.5640  141.9690 C   0  0  1  0  0  3  0  0  0  0  0  0
  186.5570  176.0230  142.9470 C   0  0  0  0  0  1  0  0  0  0  0  0
  187.9090  177.8720  142.3260 O   0  0  0  0  0  1  0  0  0  0  0  0
  189.4590  174.7530  146.6180 C   0  0  0  0  0  2  0  0  0  0  0  0
  188.2760  175.6840  146.3920 C   0  0  0  0  0  1  0  0  0  0  0  0
  192.1510  173.3850  144.3380 O   0  0  0  0  0  0  0  0  0  0  0  0
  195.2800  171.7360  145.4960 C   0  0  0  0  0  2  0  0  0  0  0  0
  194.4690  173.6450  143.4040 C   0  0  2  0  0  3  0  0  0  0  0  0
  196.1030  171.8980  144.2250 C   0  0  0  0  0  2  0  0  0  0  0  0
  193.8930  172.1470  145.2830 N   0  0  0  0  0  0  0  0  0  0  0  0
  195.9460  173.3240  143.7110 C   0  0  2  0  0  3  0  0  0  0  0  0
  193.5010  173.0240  144.3980 C   0  0  0  0  0  0  0  0  0  0  0  0
  193.5330  172.1040  141.8100 O   0  0  0  0  0  1  0  0  0  0  0  0
  193.0620  174.3840  141.4540 C   0  0  0  0  0  1  0  0  0  0  0  0
  194.0950  173.3750  141.9280 C   0  0  0  0  0  0  0  0  0  0  0  0
  195.3120  173.4660  141.0200 C   0  0  0  0  0  1  0  0  0  0  0  0
  196.4540  174.2370  144.6430 O   0  0  0  0  0  0  0  0  0  0  0  0
  197.6790  174.6500  144.1150 C   0  0  0  0  0  2  0  0  0  0  0  0
  196.8130  176.7850  143.5100 O   0  0  0  0  0  1  0  0  0  0  0  0
  197.4620  175.7670  143.1550 C   0  0  0  0  0  0  0  0  0  0  0  0
  197.9400  175.6690  141.8560 O   0  0  0  0  0  0  0  0  0  0  0  0
  1  8  1  6  0  0  0
  1 16  1  0  0  0  0
  1  6  1  0  0  0  0
  2  3  1  0  0  0  0
  2 11  1  0  0  0  0
  4 25  1  6  0  0  0
  5 18  1  6  0  0  0
  5 16  1  0  0  0  0
  6 10  1  0  0  0  0
  9  7  1  0  0  0  0
 10  4  1  0  0  0  0
 10  3  2  0  0  0  0
 12 13  1  6  0  0  0
 12  9  1  0  0  0  0
 14  6  2  0  0  0  0
 14 19  1  0  0  0  0
 15 20  1  1  0  0  0
 15  8  1  0  0  0  0
 15  5  1  0  0  0  0
 16 17  1  0  0  0  0
 17  7  1  0  0  0  0
 17  4  1  0  0  0  0
 17 23  1  0  0  0  0
 18 12  1  0  0  0  0
 19  2  2  0  0  0  0
 20 22  1  0  0  0  0
 20 21  1  0  0  0  0
 24 23  1  0  0  0  0
 25 31  1  0  0  0  0
 27 30  1  0  0  0  0
 27 31  1  0  0  0  0
 28 26  1  0  0  0  0
 29 26  1  0  0  0  0
 30 28  1  0  0  0  0
 30 36  1  0  0  0  0
 31 29  2  0  0  0  0
 32 34  1  0  0  0  0
 33 34  1  0  0  0  0
 34 27  1  0  0  0  0
 35 34  1  0  0  0  0
 37 36  1  0  0  0  0
 39 38  1  0  0  0  0
 39 37  1  0  0  0  0
 40 39  2  0  0  0  0
M  END
>  <MODEL>
7

>  <REMARK>
 VINA RESULT:      -6.1      2.521      7.284
  Name = 
  8 active torsions:
  status: ('A' for Active; 'I' for Inactive)
    1  A    between atoms: C_1  and  C_29
    2  A    between atoms: C_7  and  C_27
    3  A    between atoms: C_8  and  O_25
    4  A    between atoms: C_10  and  C_34
    5  A    between atoms: C_15  and  C_31
    6  A    between atoms: C_15  and  O_38
    7  A    between atoms: O_25  and  C_39
    8  A    between atoms: C_35  and  O_38
                            x       y       z     vdW  Elec       q    Type
                         _______ _______ _______ _____ _____    ______ ____

>  <TORSDO>
F 8

$$$$
=
 OpenBabel11072409303D

 40 44  0  0  1  0  0  0  0  0999 V2000
  194.0900  173.4980  144.7170 C   0  0  1  0  0  3  0  0  0  0  0  0
  191.0290  176.4160  144.9770 C   0  0  0  0  0  0  0  0  0  0  0  0
  191.5240  176.0430  143.7250 C   0  0  0  0  0  3  0  0  0  0  0  0
  192.9830  174.5560  142.3070 C   0  0  1  0  0  3  0  0  0  0  0  0
  195.4660  171.9850  143.5330 C   0  0  2  0  0  3  0  0  0  0  0  0
  193.0200  174.4950  144.8260 C   0  0  0  0  0  0  0  0  0  0  0  0
  195.0240  173.6760  141.0750 O   0  0  0  0  0  0  0  0  0  0  0  0
  194.2180  172.4890  145.5070 N   0  0  0  0  0  2  0  0  0  0  0  0
  194.3080  172.5340  140.6770 C   0  0  0  0  0  2  0  0  0  0  0  0
  192.5350  175.0850  143.6490 C   0  0  0  0  0  0  0  0  0  0  0  0
  189.9910  177.3850  145.0710 N   0  0  0  0  0  1  0  0  0  0  0  0
  194.9800  171.2760  141.1860 C   0  0  2  0  0  3  0  0  0  0  0  0
  194.5070  170.1940  140.4680 F   0  0  0  0  0  0  0  0  0  0  0  0
  192.4800  174.8760  146.0580 C   0  0  0  0  0  3  0  0  0  0  0  0
  195.2200  171.5560  144.9920 C   0  0  2  0  0  3  0  0  0  0  0  0
  194.9790  173.4340  143.5400 C   0  0  1  0  0  3  0  0  0  0  0  0
  194.5260  174.2360  142.2860 C   0  0  2  0  0  0  0  0  0  0  0  0
  194.6240  171.0840  142.6440 C   0  0  0  0  0  2  0  0  0  0  0  0
  191.5060  175.8220  146.1050 N   0  0  0  0  0  0  0  0  0  0  0  0
  196.5040  171.6530  145.8130 C   0  0  1  0  0  3  0  0  0  0  0  0
  196.7820  170.3310  146.5020 C   0  0  0  0  0  1  0  0  0  0  0  0
  197.5800  171.9710  144.9850 O   0  0  0  0  0  1  0  0  0  0  0  0
  195.2470  175.5820  142.4360 C   0  0  0  0  0  2  0  0  0  0  0  0
  196.6920  175.4330  142.8920 C   0  0  0  0  0  1  0  0  0  0  0  0
  192.1650  173.4330  141.9940 O   0  0  0  0  0  0  0  0  0  0  0  0
  189.9750  173.7610  139.0020 C   0  0  0  0  0  2  0  0  0  0  0  0
  189.6620  173.6510  141.9290 C   0  0  2  0  0  3  0  0  0  0  0  0
  188.6660  173.3050  139.6310 C   0  0  0  0  0  2  0  0  0  0  0  0
  191.0970  173.5670  139.9190 N   0  0  0  0  0  0  0  0  0  0  0  0
  188.4960  173.9940  140.9800 C   0  0  2  0  0  3  0  0  0  0  0  0
  191.0050  173.5590  141.2220 C   0  0  0  0  0  0  0  0  0  0  0  0
  187.9940  172.1390  142.7790 O   0  0  0  0  0  1  0  0  0  0  0  0
  190.1150  171.2110  142.3450 C   0  0  0  0  0  1  0  0  0  0  0  0
  189.3570  172.4340  142.8340 C   0  0  0  0  0  0  0  0  0  0  0  0
  189.7490  172.7020  144.2780 C   0  0  0  0  0  1  0  0  0  0  0  0
  188.4040  175.3810  140.8110 O   0  0  0  0  0  0  0  0  0  0  0  0
  188.1570  175.8860  142.0890 C   0  0  0  0  0  2  0  0  0  0  0  0
  186.7770  177.8270  142.0620 O   0  0  0  0  0  1  0  0  0  0  0  0
  187.9440  177.3580  142.0160 C   0  0  0  0  0  0  0  0  0  0  0  0
  189.0270  178.2100  141.8550 O   0  0  0  0  0  0  0  0  0  0  0  0
  1  6  1  6  0  0  0
  1  8  1  0  0  0  0
  2 11  1  0  0  0  0
  2 19  1  0  0  0  0
  3  2  2  0  0  0  0
  4 25  1  1  0  0  0
  4 10  1  0  0  0  0
  5 18  1  6  0  0  0
  5 16  1  0  0  0  0
  5 15  1  0  0  0  0
  6 14  1  0  0  0  0
  7 17  1  0  0  0  0
  9  7  1  0  0  0  0
  9 12  1  0  0  0  0
 10  3  1  0  0  0  0
 10  6  2  0  0  0  0
 12 13  1  6  0  0  0
 12 18  1  0  0  0  0
 14 19  2  0  0  0  0
 15  8  1  0  0  0  0
 15 20  1  1  0  0  0
 16  1  1  0  0  0  0
 17  4  1  0  0  0  0
 17 23  1  0  0  0  0
 17 16  1  0  0  0  0
 20 21  1  0  0  0  0
 22 20  1  0  0  0  0
 23 24  1  0  0  0  0
 26 28  1  0  0  0  0
 26 29  1  0  0  0  0
 27 34  1  0  0  0  0
 28 30  1  0  0  0  0
 29 31  2  0  0  0  0
 30 27  1  0  0  0  0
 31 27  1  0  0  0  0
 31 25  1  0  0  0  0
 32 34  1  0  0  0  0
 33 34  1  0  0  0  0
 34 35  1  0  0  0  0
 36 30  1  0  0  0  0
 36 37  1  0  0  0  0
 39 38  1  0  0  0  0
 39 37  1  0  0  0  0
 40 39  2  0  0  0  0
M  END
>  <MODEL>
8

>  <REMARK>
 VINA RESULT:      -6.1      2.244      3.237
  Name = 
  8 active torsions:
  status: ('A' for Active; 'I' for Inactive)
    1  A    between atoms: C_1  and  C_29
    2  A    between atoms: C_7  and  C_27
    3  A    between atoms: C_8  and  O_25
    4  A    between atoms: C_10  and  C_34
    5  A    between atoms: C_15  and  C_31
    6  A    between atoms: C_15  and  O_38
    7  A    between atoms: O_25  and  C_39
    8  A    between atoms: C_35  and  O_38
                            x       y       z     vdW  Elec       q    Type
                         _______ _______ _______ _____ _____    ______ ____

>  <TORSDO>
F 8

$$$$
=
 OpenBabel11072409303D

 40 44  0  0  1  0  0  0  0  0999 V2000
  190.2410  174.8040  144.5000 C   0  0  1  0  0  3  0  0  0  0  0  0
  189.8290  173.1020  140.6410 C   0  0  0  0  0  0  0  0  0  0  0  0
  190.9990  173.7900  140.9720 C   0  0  0  0  0  3  0  0  0  0  0  0
  192.4320  174.9710  142.6760 C   0  0  1  0  0  3  0  0  0  0  0  0
  191.4800  175.8280  146.2310 C   0  0  2  0  0  3  0  0  0  0  0  0
  190.0870  174.1950  143.1740 C   0  0  0  0  0  0  0  0  0  0  0  0
  193.3940  176.8240  144.1240 O   0  0  0  0  0  0  0  0  0  0  0  0
  189.7610  174.3010  145.5840 N   0  0  0  0  0  2  0  0  0  0  0  0
  194.2430  175.9040  144.7620 C   0  0  0  0  0  2  0  0  0  0  0  0
  191.1240  174.3520  142.2430 C   0  0  0  0  0  0  0  0  0  0  0  0
  189.6900  172.5150  139.3520 N   0  0  0  0  0  1  0  0  0  0  0  0
  193.9800  175.8750  146.2530 C   0  0  2  0  0  3  0  0  0  0  0  0
  195.0580  175.2900  146.8880 F   0  0  0  0  0  0  0  0  0  0  0  0
  188.9430  173.4760  142.8140 C   0  0  0  0  0  3  0  0  0  0  0  0
  190.2910  175.0000  146.7540 C   0  0  2  0  0  3  0  0  0  0  0  0
  191.1690  175.9270  144.7380 C   0  0  1  0  0  3  0  0  0  0  0  0
  192.2110  176.2140  143.6190 C   0  0  2  0  0  0  0  0  0  0  0  0
  192.7470  175.0380  146.5180 C   0  0  0  0  0  2  0  0  0  0  0  0
  188.8400  172.9510  141.5640 N   0  0  0  0  0  0  0  0  0  0  0  0
  189.2200  175.9060  147.3590 C   0  0  1  0  0  3  0  0  0  0  0  0
  189.6230  177.3610  147.2080 C   0  0  0  0  0  1  0  0  0  0  0  0
  188.0000  175.7020  146.7170 O   0  0  0  0  0  1  0  0  0  0  0  0
  191.5350  177.2900  142.7610 C   0  0  0  0  0  2  0  0  0  0  0  0
  190.7500  178.3010  143.5860 C   0  0  0  0  0  1  0  0  0  0  0  0
  193.2180  173.9410  143.2680 O   0  0  0  0  0  0  0  0  0  0  0  0
  195.3640  172.7190  140.4840 C   0  0  0  0  0  2  0  0  0  0  0  0
  194.1940  171.6450  142.9640 C   0  0  2  0  0  3  0  0  0  0  0  0
  195.9930  171.5260  141.1900 C   0  0  0  0  0  2  0  0  0  0  0  0
  194.5780  173.5290  141.4120 N   0  0  0  0  0  0  0  0  0  0  0  0
  194.9020  170.7530  141.9240 C   0  0  2  0  0  3  0  0  0  0  0  0
  194.0050  173.0790  142.4960 C   0  0  0  0  0  0  0  0  0  0  0  0
  193.8340  171.6950  145.3440 O   0  0  0  0  0  1  0  0  0  0  0  0
  195.4420  170.1600  144.5660 C   0  0  0  0  0  1  0  0  0  0  0  0
  194.8230  171.5340  144.3730 C   0  0  0  0  0  0  0  0  0  0  0  0
  195.9020  172.5840  144.5840 C   0  0  0  0  0  1  0  0  0  0  0  0
  193.9700  170.2410  141.0130 O   0  0  0  0  0  0  0  0  0  0  0  0
  193.0330  169.5650  141.7960 C   0  0  0  0  0  2  0  0  0  0  0  0
  190.7080  170.0350  142.0090 O   0  0  0  0  0  1  0  0  0  0  0  0
  191.6680  169.7740  141.2390 C   0  0  0  0  0  0  0  0  0  0  0  0
  191.4450  169.6380  139.8760 O   0  0  0  0  0  0  0  0  0  0  0  0
  1  6  1  1  0  0  0
  1 16  1  0  0  0  0
  1  8  1  0  0  0  0
  2  3  2  0  0  0  0
  2 19  1  0  0  0  0
  3 10  1  0  0  0  0
  4 25  1  1  0  0  0
  4 17  1  0  0  0  0
  5 18  1  6  0  0  0
  5 15  1  0  0  0  0
  7  9  1  0  0  0  0
  8 15  1  0  0  0  0
  9 12  1  0  0  0  0
 10  4  1  0  0  0  0
 10  6  2  0  0  0  0
 11  2  1  0  0  0  0
 12 18  1  0  0  0  0
 12 13  1  1  0  0  0
 14  6  1  0  0  0  0
 15 20  1  6  0  0  0
 16  5  1  0  0  0  0
 17  7  1  0  0  0  0
 17 16  1  0  0  0  0
 19 14  2  0  0  0  0
 21 20  1  0  0  0  0
 22 20  1  0  0  0  0
 23 24  1  0  0  0  0
 23 17  1  0  0  0  0
 26 28  1  0  0  0  0
 26 29  1  0  0  0  0
 27 34  1  0  0  0  0
 28 30  1  0  0  0  0
 29 31  2  0  0  0  0
 30 27  1  0  0  0  0
 31 27  1  0  0  0  0
 31 25  1  0  0  0  0
 34 33  1  0  0  0  0
 34 35  1  0  0  0  0
 34 32  1  0  0  0  0
 36 37  1  0  0  0  0
 36 30  1  0  0  0  0
 39 37  1  0  0  0  0
 39 38  1  0  0  0  0
 40 39  2  0  0  0  0
M  END
>  <MODEL>
9

>  <REMARK>
 VINA RESULT:      -6.0      2.953      6.897
  Name = 
  8 active torsions:
  status: ('A' for Active; 'I' for Inactive)
    1  A    between atoms: C_1  and  C_29
    2  A    between atoms: C_7  and  C_27
    3  A    between atoms: C_8  and  O_25
    4  A    between atoms: C_10  and  C_34
    5  A    between atoms: C_15  and  C_31
    6  A    between atoms: C_15  and  O_38
    7  A    between atoms: O_25  and  C_39
    8  A    between atoms: C_35  and  O_38
                            x       y       z     vdW  Elec       q    Type
                         _______ _______ _______ _____ _____    ______ ____

>  <TORSDO>
F 8

$$$$
