=
 OpenBabel11062419433D

 30 35  0  0  1  0  0  0  0  0999 V2000
  187.5050  176.2650  140.7940 N   0  0  0  0  0  0  0  0  0  0  0  0
  190.7670  176.6400  147.4900 N   0  0  0  0  0  0  0  0  0  0  0  0
  189.9120  176.1210  145.3480 C   0  0  0  0  0  0  0  0  0  0  0  0
  187.3090  176.9870  141.9220 C   0  0  0  0  0  0  0  0  0  0  0  0
  189.1610  174.9930  141.8930 C   0  0  0  0  0  3  0  0  0  0  0  0
  189.0590  176.9260  145.9400 C   0  0  0  0  0  0  0  0  0  0  0  0
  189.7900  175.4730  144.0740 N   0  0  0  0  0  0  0  0  0  0  0  0
  186.3130  178.0220  142.1430 C   0  0  0  0  0  3  0  0  0  0  0  0
  191.0520  175.8620  146.2730 C   0  0  1  0  0  3  0  0  0  0  0  0
  186.4510  178.3140  143.4380 C   0  0  0  0  0  0  0  0  0  0  0  0
  187.7750  177.3460  145.4520 N   0  0  0  0  0  0  0  0  0  0  0  0
  188.0040  176.7190  143.0760 C   0  0  0  0  0  0  0  0  0  0  0  0
  189.5330  177.2550  147.2290 N   0  0  0  0  0  0  0  0  0  0  0  0
  188.9840  175.7160  143.0830 C   0  0  0  0  0  0  0  0  0  0  0  0
  187.5100  177.4800  144.0440 C   0  0  0  0  0  0  0  0  0  0  0  0
  188.4150  175.2860  140.7870 N   0  0  0  0  0  0  0  0  0  0  0  0
  186.7970  177.8580  146.4190 C   0  0  0  0  0  3  0  0  0  0  0  0
  186.5230  176.8240  147.5020 C   0  0  0  0  0  2  0  0  0  0  0  0
  185.5320  177.0130  146.3810 C   0  0  0  0  0  2  0  0  0  0  0  0
  185.7100  179.2810  144.1220 O   0  0  0  0  0  0  0  0  0  0  0  0
  184.2940  179.3570  144.0360 C   0  0  0  0  0  1  0  0  0  0  0  0
  192.3500  176.3440  145.6470 C   0  0  0  0  0  2  0  0  0  0  0  0
  193.2810  176.6330  146.6470 O   0  0  0  0  0  0  0  0  0  0  0  0
  195.8450  176.4160  143.9480 C   0  0  0  0  0  2  0  0  0  0  0  0
  194.5210  176.3500  146.0730 C   0  0  1  0  0  3  0  0  0  0  0  0
  196.1610  174.5270  145.5620 C   0  0  0  0  0  2  0  0  0  0  0  0
  196.1440  174.9250  144.0880 C   0  0  2  0  0  3  0  0  0  0  0  0
  194.8200  174.8580  146.2110 C   0  0  0  0  0  2  0  0  0  0  0  0
  197.3830  174.6440  143.5150 O   0  0  0  0  0  1  0  0  0  0  0  0
  194.5050  176.7480  144.5970 C   0  0  0  0  0  2  0  0  0  0  0  0
  1  4  2  0  0  0  0
  3  6  2  0  0  0  0
  3  9  1  0  0  0  0
  4  8  1  0  0  0  0
  4 12  1  0  0  0  0
  5 14  1  0  0  0  0
  6 13  1  0  0  0  0
  7  3  1  0  0  0  0
  8 10  2  0  0  0  0
  9 22  1  6  0  0  0
  9  2  1  0  0  0  0
 10 15  1  0  0  0  0
 10 20  1  0  0  0  0
 11  6  1  0  0  0  0
 11 17  1  0  0  0  0
 12 14  1  0  0  0  0
 12 15  2  0  0  0  0
 13  2  2  0  0  0  0
 14  7  2  0  0  0  0
 15 11  1  0  0  0  0
 16  1  1  0  0  0  0
 16  5  2  0  0  0  0
 17 18  1  0  0  0  0
 19 17  1  0  0  0  0
 19 18  1  0  0  0  0
 21 20  1  0  0  0  0
 22 23  1  0  0  0  0
 24 27  1  0  0  0  0
 24 30  1  0  0  0  0
 25 28  1  0  0  0  0
 25 23  1  6  0  0  0
 26 28  1  0  0  0  0
 27 29  1  1  0  0  0
 27 26  1  0  0  0  0
 30 25  1  0  0  0  0
M  END
>  <MODEL>
1

>  <REMARK>
 VINA RESULT:      -7.5      0.000      0.000
  Name = 
  5 active torsions:
  status: ('A' for Active; 'I' for Inactive)
    1  A    between atoms: C_2  and  N_22
    2  A    between atoms: C_5  and  O_13
    3  A    between atoms: O_7  and  C_21
    4  A    between atoms: C_8  and  O_13
    5  A    between atoms: C_8  and  C_20
                            x       y       z     vdW  Elec       q    Type
                         _______ _______ _______ _____ _____    ______ ____

>  <TORSDO>
F 5

$$$$
=
 OpenBabel11062419433D

 30 35  0  0  1  0  0  0  0  0999 V2000
  189.0500  172.7760  141.4900 N   0  0  0  0  0  0  0  0  0  0  0  0
  190.5800  176.9240  147.4960 N   0  0  0  0  0  0  0  0  0  0  0  0
  190.1220  175.2710  145.8690 C   0  0  0  0  0  0  0  0  0  0  0  0
  188.8590  174.0700  141.8420 C   0  0  0  0  0  0  0  0  0  0  0  0
  189.8530  172.3030  143.6580 C   0  0  0  0  0  3  0  0  0  0  0  0
  189.4910  176.3690  145.5190 C   0  0  0  0  0  0  0  0  0  0  0  0
  190.0820  173.9810  145.2430 N   0  0  0  0  0  0  0  0  0  0  0  0
  188.2650  175.1230  141.0360 C   0  0  0  0  0  3  0  0  0  0  0  0
  190.8510  175.5210  147.1460 C   0  0  1  0  0  3  0  0  0  0  0  0
  188.1900  176.1540  141.8790 C   0  0  0  0  0  0  0  0  0  0  0  0
  188.5850  176.5390  144.4180 N   0  0  0  0  0  0  0  0  0  0  0  0
  189.1280  174.5160  143.1130 C   0  0  0  0  0  0  0  0  0  0  0  0
  189.7350  177.3820  146.4730 N   0  0  0  0  0  0  0  0  0  0  0  0
  189.6670  173.6350  144.0620 C   0  0  0  0  0  0  0  0  0  0  0  0
  188.7190  175.7740  143.2050 C   0  0  0  0  0  0  0  0  0  0  0  0
  189.5350  171.9130  142.3880 N   0  0  0  0  0  0  0  0  0  0  0  0
  187.6500  177.6700  144.4540 C   0  0  0  0  0  3  0  0  0  0  0  0
  186.7900  177.6130  145.7080 C   0  0  0  0  0  2  0  0  0  0  0  0
  186.2160  177.1650  144.3880 C   0  0  0  0  0  2  0  0  0  0  0  0
  187.6950  177.4200  141.5520 O   0  0  0  0  0  0  0  0  0  0  0  0
  186.6500  177.6070  140.6090 C   0  0  0  0  0  1  0  0  0  0  0  0
  192.3440  175.3210  146.9410 C   0  0  0  0  0  2  0  0  0  0  0  0
  192.9850  176.5600  146.8860 O   0  0  0  0  0  0  0  0  0  0  0  0
  194.4930  176.0970  143.5070 C   0  0  0  0  0  2  0  0  0  0  0  0
  194.0020  176.3930  145.9440 C   0  0  1  0  0  3  0  0  0  0  0  0
  195.8810  174.9060  145.2170 C   0  0  0  0  0  2  0  0  0  0  0  0
  195.2740  174.8230  143.8180 C   0  0  2  0  0  3  0  0  0  0  0  0
  194.7830  175.1170  146.2550 C   0  0  0  0  0  2  0  0  0  0  0  0
  196.2900  174.6580  142.8790 O   0  0  0  0  0  1  0  0  0  0  0  0
  193.3950  176.3100  144.5450 C   0  0  0  0  0  2  0  0  0  0  0  0
  1  4  2  0  0  0  0
  1 16  1  0  0  0  0
  3  9  1  0  0  0  0
  4 12  1  0  0  0  0
  5 14  1  0  0  0  0
  6  3  2  0  0  0  0
  6 13  1  0  0  0  0
  7  3  1  0  0  0  0
  8  4  1  0  0  0  0
  8 10  2  0  0  0  0
  9 22  1  6  0  0  0
  9  2  1  0  0  0  0
 10 15  1  0  0  0  0
 11 17  1  0  0  0  0
 11  6  1  0  0  0  0
 12 15  2  0  0  0  0
 12 14  1  0  0  0  0
 13  2  2  0  0  0  0
 14  7  2  0  0  0  0
 15 11  1  0  0  0  0
 16  5  2  0  0  0  0
 17 18  1  0  0  0  0
 19 17  1  0  0  0  0
 19 18  1  0  0  0  0
 20 10  1  0  0  0  0
 21 20  1  0  0  0  0
 23 22  1  0  0  0  0
 24 27  1  0  0  0  0
 24 30  1  0  0  0  0
 25 28  1  0  0  0  0
 25 23  1  1  0  0  0
 26 28  1  0  0  0  0
 27 29  1  6  0  0  0
 27 26  1  0  0  0  0
 30 25  1  0  0  0  0
M  END
>  <MODEL>
2

>  <REMARK>
 VINA RESULT:      -7.4      1.648      2.301
  Name = 
  5 active torsions:
  status: ('A' for Active; 'I' for Inactive)
    1  A    between atoms: C_2  and  N_22
    2  A    between atoms: C_5  and  O_13
    3  A    between atoms: O_7  and  C_21
    4  A    between atoms: C_8  and  O_13
    5  A    between atoms: C_8  and  C_20
                            x       y       z     vdW  Elec       q    Type
                         _______ _______ _______ _____ _____    ______ ____

>  <TORSDO>
F 5

$$$$
=
 OpenBabel11062419433D

 30 35  0  0  1  0  0  0  0  0999 V2000
  190.9360  173.1840  141.6920 N   0  0  0  0  0  0  0  0  0  0  0  0
  190.0440  177.5300  147.6860 N   0  0  0  0  0  0  0  0  0  0  0  0
  190.1240  176.4760  145.5710 C   0  0  0  0  0  0  0  0  0  0  0  0
  191.5370  173.2940  142.9000 C   0  0  0  0  0  0  0  0  0  0  0  0
  189.6380  175.0970  142.1600 C   0  0  0  0  0  3  0  0  0  0  0  0
  191.1770  176.0900  146.2550 C   0  0  0  0  0  0  0  0  0  0  0  0
  189.7820  176.1700  144.2120 N   0  0  0  0  0  0  0  0  0  0  0  0
  192.6220  172.4800  143.4210 C   0  0  0  0  0  3  0  0  0  0  0  0
  189.3280  177.4230  146.4050 C   0  0  1  0  0  3  0  0  0  0  0  0
  192.9300  173.0750  144.5750 C   0  0  0  0  0  0  0  0  0  0  0  0
  192.2620  175.2690  145.7950 N   0  0  0  0  0  0  0  0  0  0  0  0
  191.2340  174.3200  143.7620 C   0  0  0  0  0  0  0  0  0  0  0  0
  191.1690  176.7060  147.5260 N   0  0  0  0  0  0  0  0  0  0  0  0
  190.2400  175.2480  143.4190 C   0  0  0  0  0  0  0  0  0  0  0  0
  192.0670  174.2550  144.7920 C   0  0  0  0  0  0  0  0  0  0  0  0
  190.0060  174.0740  141.3330 N   0  0  0  0  0  0  0  0  0  0  0  0
  193.5320  175.3220  146.5270 C   0  0  0  0  0  3  0  0  0  0  0  0
  194.0720  176.7450  146.5610 C   0  0  0  0  0  2  0  0  0  0  0  0
  194.6560  175.7480  145.5930 C   0  0  0  0  0  2  0  0  0  0  0  0
  193.9190  172.6380  145.4610 O   0  0  0  0  0  0  0  0  0  0  0  0
  195.0920  171.9690  145.0210 C   0  0  0  0  0  1  0  0  0  0  0  0
  187.9340  176.8630  146.6400 C   0  0  0  0  0  2  0  0  0  0  0  0
  186.9950  177.8940  146.5910 O   0  0  0  0  0  0  0  0  0  0  0  0
  185.4140  179.3980  143.5660 C   0  0  0  0  0  2  0  0  0  0  0  0
  186.7040  178.0470  145.2340 C   0  0  1  0  0  3  0  0  0  0  0  0
  185.7010  176.9330  143.2270 C   0  0  0  0  0  2  0  0  0  0  0  0
  184.7630  178.1220  143.0360 C   0  0  2  0  0  3  0  0  0  0  0  0
  186.0510  176.7720  144.7030 C   0  0  0  0  0  2  0  0  0  0  0  0
  184.4740  178.2750  141.6810 O   0  0  0  0  0  1  0  0  0  0  0  0
  185.7650  179.2360  145.0420 C   0  0  0  0  0  2  0  0  0  0  0  0
  1  4  2  0  0  0  0
  3  6  2  0  0  0  0
  3  9  1  0  0  0  0
  4  8  1  0  0  0  0
  4 12  1  0  0  0  0
  5 14  1  0  0  0  0
  6 13  1  0  0  0  0
  7  3  1  0  0  0  0
  8 10  2  0  0  0  0
  9 22  1  1  0  0  0
  9  2  1  0  0  0  0
 10 15  1  0  0  0  0
 10 20  1  0  0  0  0
 11  6  1  0  0  0  0
 11 17  1  0  0  0  0
 12 15  2  0  0  0  0
 13  2  2  0  0  0  0
 14 12  1  0  0  0  0
 14  7  2  0  0  0  0
 15 11  1  0  0  0  0
 16  1  1  0  0  0  0
 16  5  2  0  0  0  0
 17 18  1  0  0  0  0
 19 17  1  0  0  0  0
 19 18  1  0  0  0  0
 21 20  1  0  0  0  0
 23 22  1  0  0  0  0
 24 30  1  0  0  0  0
 25 23  1  1  0  0  0
 26 28  1  0  0  0  0
 27 29  1  6  0  0  0
 27 26  1  0  0  0  0
 27 24  1  0  0  0  0
 28 25  1  0  0  0  0
 30 25  1  0  0  0  0
M  END
>  <MODEL>
3

>  <REMARK>
 VINA RESULT:      -7.3      2.163      7.367
  Name = 
  5 active torsions:
  status: ('A' for Active; 'I' for Inactive)
    1  A    between atoms: C_2  and  N_22
    2  A    between atoms: C_5  and  O_13
    3  A    between atoms: O_7  and  C_21
    4  A    between atoms: C_8  and  O_13
    5  A    between atoms: C_8  and  C_20
                            x       y       z     vdW  Elec       q    Type
                         _______ _______ _______ _____ _____    ______ ____

>  <TORSDO>
F 5

$$$$
=
 OpenBabel11062419433D

 30 35  0  0  1  0  0  0  0  0999 V2000
  192.3420  176.7360  147.6470 N   0  0  0  0  0  0  0  0  0  0  0  0
  188.5790  174.8470  141.4910 N   0  0  0  0  0  0  0  0  0  0  0  0
  189.4140  175.3080  143.6550 C   0  0  0  0  0  0  0  0  0  0  0  0
  192.6750  176.4190  146.3730 C   0  0  0  0  0  0  0  0  0  0  0  0
  190.0870  176.2120  147.1900 C   0  0  0  0  0  3  0  0  0  0  0  0
  190.4330  175.0000  142.8850 C   0  0  0  0  0  0  0  0  0  0  0  0
  189.4100  175.5830  145.0620 N   0  0  0  0  0  0  0  0  0  0  0  0
  194.0060  176.3890  145.7930 C   0  0  0  0  0  3  0  0  0  0  0  0
  188.1610  175.2280  142.8500 C   0  0  1  0  0  3  0  0  0  0  0  0
  193.8010  175.8930  144.5710 C   0  0  0  0  0  0  0  0  0  0  0  0
  191.8060  174.8470  143.2780 N   0  0  0  0  0  0  0  0  0  0  0  0
  191.7370  175.9610  145.4790 C   0  0  0  0  0  0  0  0  0  0  0  0
  189.9730  174.7100  141.5810 N   0  0  0  0  0  0  0  0  0  0  0  0
  190.3920  175.8710  145.8630 C   0  0  0  0  0  0  0  0  0  0  0  0
  192.3670  175.6020  144.3680 C   0  0  0  0  0  0  0  0  0  0  0  0
  191.0690  176.6290  148.0420 N   0  0  0  0  0  0  0  0  0  0  0  0
  192.6970  174.0750  142.4050 C   0  0  0  0  0  3  0  0  0  0  0  0
  192.1570  172.6670  142.1980 C   0  0  0  0  0  2  0  0  0  0  0  0
  193.2870  172.8980  143.1680 C   0  0  0  0  0  2  0  0  0  0  0  0
  194.7990  175.6910  143.6130 O   0  0  0  0  0  0  0  0  0  0  0  0
  196.0200  176.4160  143.6220 C   0  0  0  0  0  1  0  0  0  0  0  0
  187.4760  176.5850  142.8160 C   0  0  0  0  0  2  0  0  0  0  0  0
  186.0910  176.4160  142.7690 O   0  0  0  0  0  0  0  0  0  0  0  0
  185.7820  179.3810  145.0100 C   0  0  0  0  0  2  0  0  0  0  0  0
  185.6030  177.1780  143.8320 C   0  0  1  0  0  3  0  0  0  0  0  0
  185.3740  177.2880  146.3230 C   0  0  0  0  0  2  0  0  0  0  0  0
  186.0530  178.6550  146.3260 C   0  0  2  0  0  3  0  0  0  0  0  0
  185.8760  176.4530  145.1490 C   0  0  0  0  0  2  0  0  0  0  0  0
  185.5650  179.4160  147.3870 O   0  0  0  0  0  1  0  0  0  0  0  0
  186.2830  178.5470  143.8350 C   0  0  0  0  0  2  0  0  0  0  0  0
  1 16  1  0  0  0  0
  2 13  2  0  0  0  0
  2  9  1  0  0  0  0
  3  7  1  0  0  0  0
  4  1  2  0  0  0  0
  5 16  2  0  0  0  0
  6 11  1  0  0  0  0
  6  3  2  0  0  0  0
  7 14  2  0  0  0  0
  8  4  1  0  0  0  0
  9 22  1  6  0  0  0
  9  3  1  0  0  0  0
 10  8  2  0  0  0  0
 11 15  1  0  0  0  0
 12 14  1  0  0  0  0
 12  4  1  0  0  0  0
 13  6  1  0  0  0  0
 14  5  1  0  0  0  0
 15 10  1  0  0  0  0
 15 12  2  0  0  0  0
 17 19  1  0  0  0  0
 17 11  1  0  0  0  0
 18 17  1  0  0  0  0
 18 19  1  0  0  0  0
 20 21  1  0  0  0  0
 20 10  1  0  0  0  0
 23 22  1  0  0  0  0
 24 27  1  0  0  0  0
 25 23  1  6  0  0  0
 25 30  1  0  0  0  0
 25 28  1  0  0  0  0
 26 27  1  0  0  0  0
 27 29  1  1  0  0  0
 28 26  1  0  0  0  0
 30 24  1  0  0  0  0
M  END
>  <MODEL>
4

>  <REMARK>
 VINA RESULT:      -7.1      1.863      7.958
  Name = 
  5 active torsions:
  status: ('A' for Active; 'I' for Inactive)
    1  A    between atoms: C_2  and  N_22
    2  A    between atoms: C_5  and  O_13
    3  A    between atoms: O_7  and  C_21
    4  A    between atoms: C_8  and  O_13
    5  A    between atoms: C_8  and  C_20
                            x       y       z     vdW  Elec       q    Type
                         _______ _______ _______ _____ _____    ______ ____

>  <TORSDO>
F 5

$$$$
=
 OpenBabel11062419433D

 30 35  0  0  1  0  0  0  0  0999 V2000
  188.2680  174.5040  140.7730 N   0  0  0  0  0  0  0  0  0  0  0  0
  191.2790  176.4440  147.3150 N   0  0  0  0  0  0  0  0  0  0  0  0
  190.3310  176.2590  145.1570 C   0  0  0  0  0  0  0  0  0  0  0  0
  189.0060  173.8760  141.7190 C   0  0  0  0  0  0  0  0  0  0  0  0
  188.5240  176.5460  141.9280 C   0  0  0  0  0  3  0  0  0  0  0  0
  191.0220  175.1670  145.3900 C   0  0  0  0  0  0  0  0  0  0  0  0
  189.6460  176.6430  143.9560 N   0  0  0  0  0  0  0  0  0  0  0  0
  189.4300  172.4860  141.7250 C   0  0  0  0  0  3  0  0  0  0  0  0
  190.4420  177.1610  146.3400 C   0  0  1  0  0  3  0  0  0  0  0  0
  190.2310  172.4100  142.7890 C   0  0  0  0  0  0  0  0  0  0  0  0
  191.2730  174.0840  144.4800 N   0  0  0  0  0  0  0  0  0  0  0  0
  189.5500  174.5610  142.7780 C   0  0  0  0  0  0  0  0  0  0  0  0
  191.6110  175.2420  146.6710 N   0  0  0  0  0  0  0  0  0  0  0  0
  189.2960  175.9310  142.9270 C   0  0  0  0  0  0  0  0  0  0  0  0
  190.3280  173.7260  143.4550 C   0  0  0  0  0  0  0  0  0  0  0  0
  188.0380  175.8160  140.8810 N   0  0  0  0  0  0  0  0  0  0  0  0
  192.4100  173.1970  144.7520 C   0  0  0  0  0  3  0  0  0  0  0  0
  193.6960  174.0000  144.8850 C   0  0  0  0  0  2  0  0  0  0  0  0
  193.4080  173.2580  143.6040 C   0  0  0  0  0  2  0  0  0  0  0  0
  190.8760  171.2490  143.2230 O   0  0  0  0  0  0  0  0  0  0  0  0
  191.3000  170.2330  142.3250 C   0  0  0  0  0  1  0  0  0  0  0  0
  189.0650  177.4140  146.9320 C   0  0  0  0  0  2  0  0  0  0  0  0
  188.3170  176.2360  146.9150 O   0  0  0  0  0  0  0  0  0  0  0  0
  185.1930  177.2830  145.1690 C   0  0  0  0  0  2  0  0  0  0  0  0
  186.9920  176.6560  146.7950 C   0  0  1  0  0  3  0  0  0  0  0  0
  185.3760  178.4850  147.3590 C   0  0  0  0  0  2  0  0  0  0  0  0
  185.0150  178.6220  145.8820 C   0  0  2  0  0  3  0  0  0  0  0  0
  186.8140  177.9970  147.5060 C   0  0  0  0  0  2  0  0  0  0  0  0
  183.6910  179.0410  145.7620 O   0  0  0  0  0  1  0  0  0  0  0  0
  186.6310  176.7940  145.3170 C   0  0  0  0  0  2  0  0  0  0  0  0
  1 16  1  0  0  0  0
  1  4  2  0  0  0  0
  3  6  2  0  0  0  0
  3  9  1  0  0  0  0
  4  8  1  0  0  0  0
  4 12  1  0  0  0  0
  5 14  1  0  0  0  0
  6 13  1  0  0  0  0
  7  3  1  0  0  0  0
  8 10  2  0  0  0  0
  9 22  1  1  0  0  0
  9  2  1  0  0  0  0
 10 20  1  0  0  0  0
 10 15  1  0  0  0  0
 11 17  1  0  0  0  0
 11  6  1  0  0  0  0
 12 14  1  0  0  0  0
 12 15  2  0  0  0  0
 13  2  2  0  0  0  0
 14  7  2  0  0  0  0
 15 11  1  0  0  0  0
 16  5  2  0  0  0  0
 17 18  1  0  0  0  0
 19 17  1  0  0  0  0
 19 18  1  0  0  0  0
 21 20  1  0  0  0  0
 23 22  1  0  0  0  0
 24 30  1  0  0  0  0
 24 27  1  0  0  0  0
 25 23  1  6  0  0  0
 25 28  1  0  0  0  0
 26 28  1  0  0  0  0
 27 29  1  1  0  0  0
 27 26  1  0  0  0  0
 30 25  1  0  0  0  0
M  END
>  <MODEL>
5

>  <REMARK>
 VINA RESULT:      -6.9      2.461      6.962
  Name = 
  5 active torsions:
  status: ('A' for Active; 'I' for Inactive)
    1  A    between atoms: C_2  and  N_22
    2  A    between atoms: C_5  and  O_13
    3  A    between atoms: O_7  and  C_21
    4  A    between atoms: C_8  and  O_13
    5  A    between atoms: C_8  and  C_20
                            x       y       z     vdW  Elec       q    Type
                         _______ _______ _______ _____ _____    ______ ____

>  <TORSDO>
F 5

$$$$
=
 OpenBabel11062419433D

 30 35  0  0  1  0  0  0  0  0999 V2000
  191.5810  176.7340  147.6770 N   0  0  0  0  0  0  0  0  0  0  0  0
  188.6360  175.1380  141.0140 N   0  0  0  0  0  0  0  0  0  0  0  0
  189.1560  175.7310  143.2430 C   0  0  0  0  0  0  0  0  0  0  0  0
  191.9590  175.9930  146.6090 C   0  0  0  0  0  0  0  0  0  0  0  0
  189.4860  177.1260  146.6660 C   0  0  0  0  0  3  0  0  0  0  0  0
  190.0300  174.8330  142.8490 C   0  0  0  0  0  0  0  0  0  0  0  0
  189.0140  176.3280  144.5390 N   0  0  0  0  0  0  0  0  0  0  0  0
  193.1980  175.2510  146.4460 C   0  0  0  0  0  3  0  0  0  0  0  0
  188.1980  175.9920  142.1300 C   0  0  1  0  0  3  0  0  0  0  0  0
  193.0200  174.5980  145.2960 C   0  0  0  0  0  0  0  0  0  0  0  0
  191.0590  174.2140  143.6370 N   0  0  0  0  0  0  0  0  0  0  0  0
  191.1090  175.7690  145.5530 C   0  0  0  0  0  0  0  0  0  0  0  0
  189.7480  174.4470  141.5200 N   0  0  0  0  0  0  0  0  0  0  0  0
  189.8390  176.3630  145.5420 C   0  0  0  0  0  0  0  0  0  0  0  0
  191.6910  174.9060  144.7300 C   0  0  0  0  0  0  0  0  0  0  0  0
  190.3640  177.2850  147.7000 N   0  0  0  0  0  0  0  0  0  0  0  0
  191.6210  172.9420  143.1710 C   0  0  0  0  0  3  0  0  0  0  0  0
  190.5190  171.9130  142.9640 C   0  0  0  0  0  2  0  0  0  0  0  0
  191.3750  171.8510  144.2040 C   0  0  0  0  0  2  0  0  0  0  0  0
  193.9620  173.7540  144.7030 O   0  0  0  0  0  0  0  0  0  0  0  0
  195.0650  174.2490  143.9570 C   0  0  0  0  0  1  0  0  0  0  0  0
  188.2660  177.4530  141.7160 C   0  0  0  0  0  2  0  0  0  0  0  0
  187.0130  177.8800  141.2750 O   0  0  0  0  0  0  0  0  0  0  0  0
  183.8970  178.2770  143.2850 C   0  0  0  0  0  2  0  0  0  0  0  0
  186.1950  177.8140  142.4040 C   0  0  1  0  0  3  0  0  0  0  0  0
  185.8960  178.6320  144.7520 C   0  0  0  0  0  2  0  0  0  0  0  0
  184.4960  179.1310  144.4000 C   0  0  2  0  0  3  0  0  0  0  0  0
  186.7930  178.6700  143.5190 C   0  0  0  0  0  2  0  0  0  0  0  0
  183.6800  179.0640  145.5280 O   0  0  0  0  0  1  0  0  0  0  0  0
  184.7950  178.3140  142.0520 C   0  0  0  0  0  2  0  0  0  0  0  0
  1 16  1  0  0  0  0
  2 13  2  0  0  0  0
  2  9  1  0  0  0  0
  3  7  1  0  0  0  0
  4  1  2  0  0  0  0
  5 16  2  0  0  0  0
  6  3  2  0  0  0  0
  6 11  1  0  0  0  0
  7 14  2  0  0  0  0
  8  4  1  0  0  0  0
  9 22  1  6  0  0  0
  9  3  1  0  0  0  0
 10  8  2  0  0  0  0
 11 15  1  0  0  0  0
 12  4  1  0  0  0  0
 13  6  1  0  0  0  0
 14 12  1  0  0  0  0
 14  5  1  0  0  0  0
 15 10  1  0  0  0  0
 15 12  2  0  0  0  0
 17 11  1  0  0  0  0
 17 19  1  0  0  0  0
 18 17  1  0  0  0  0
 18 19  1  0  0  0  0
 20 10  1  0  0  0  0
 21 20  1  0  0  0  0
 23 22  1  0  0  0  0
 24 27  1  0  0  0  0
 25 23  1  6  0  0  0
 25 28  1  0  0  0  0
 27 26  1  0  0  0  0
 27 29  1  1  0  0  0
 28 26  1  0  0  0  0
 30 25  1  0  0  0  0
 30 24  1  0  0  0  0
M  END
>  <MODEL>
6

>  <REMARK>
 VINA RESULT:      -6.8      1.908      8.106
  Name = 
  5 active torsions:
  status: ('A' for Active; 'I' for Inactive)
    1  A    between atoms: C_2  and  N_22
    2  A    between atoms: C_5  and  O_13
    3  A    between atoms: O_7  and  C_21
    4  A    between atoms: C_8  and  O_13
    5  A    between atoms: C_8  and  C_20
                            x       y       z     vdW  Elec       q    Type
                         _______ _______ _______ _____ _____    ______ ____

>  <TORSDO>
F 5

$$$$
=
 OpenBabel11062419433D

 30 35  0  0  1  0  0  0  0  0999 V2000
  190.8270  177.1120  145.4580 N   0  0  0  0  0  0  0  0  0  0  0  0
  185.4610  177.5410  140.2970 N   0  0  0  0  0  0  0  0  0  0  0  0
  187.4050  177.6210  141.6390 C   0  0  0  0  0  0  0  0  0  0  0  0
  189.4750  177.0460  145.4660 C   0  0  0  0  0  0  0  0  0  0  0  0
  190.7890  177.6610  143.1630 C   0  0  0  0  0  3  0  0  0  0  0  0
  186.3620  177.6320  142.4370 C   0  0  0  0  0  0  0  0  0  0  0  0
  188.7930  177.7390  141.9830 N   0  0  0  0  0  0  0  0  0  0  0  0
  188.6120  176.8180  146.6120 C   0  0  0  0  0  3  0  0  0  0  0  0
  186.9300  177.5750  140.2260 C   0  0  1  0  0  3  0  0  0  0  0  0
  187.3840  176.9780  146.1140 C   0  0  0  0  0  0  0  0  0  0  0  0
  186.3590  177.7810  143.8660 N   0  0  0  0  0  0  0  0  0  0  0  0
  188.7360  177.3140  144.3390 C   0  0  0  0  0  0  0  0  0  0  0  0
  185.1760  177.5920  141.6700 N   0  0  0  0  0  0  0  0  0  0  0  0
  189.3860  177.6060  143.1320 C   0  0  0  0  0  0  0  0  0  0  0  0
  187.4530  177.3100  144.6750 C   0  0  0  0  0  0  0  0  0  0  0  0
  191.4660  177.4170  144.3240 N   0  0  0  0  0  0  0  0  0  0  0  0
  185.1200  178.2190  144.5170 C   0  0  0  0  0  3  0  0  0  0  0  0
  184.6080  179.5060  143.8860 C   0  0  0  0  0  2  0  0  0  0  0  0
  185.3350  179.5590  145.2060 C   0  0  0  0  0  2  0  0  0  0  0  0
  186.2010  176.8380  146.8430 O   0  0  0  0  0  0  0  0  0  0  0  0
  185.9630  177.5450  148.0520 C   0  0  0  0  0  1  0  0  0  0  0  0
  187.4420  176.3150  139.5470 C   0  0  0  0  0  2  0  0  0  0  0  0
  187.4970  175.2680  140.4680 O   0  0  0  0  0  0  0  0  0  0  0  0
  189.4140  172.3920  139.0690 C   0  0  0  0  0  2  0  0  0  0  0  0
  188.6260  174.5310  140.1030 C   0  0  1  0  0  3  0  0  0  0  0  0
  190.6920  173.4110  140.9660 C   0  0  0  0  0  2  0  0  0  0  0  0
  190.2590  172.1030  140.3080 C   0  0  2  0  0  3  0  0  0  0  0  0
  189.4700  174.2410  141.3430 C   0  0  0  0  0  2  0  0  0  0  0  0
  191.3850  171.3680  139.9430 O   0  0  0  0  0  1  0  0  0  0  0  0
  188.1910  173.2220  139.4460 C   0  0  0  0  0  2  0  0  0  0  0  0
  1  4  2  0  0  0  0
  2 13  2  0  0  0  0
  3  7  1  0  0  0  0
  3  6  2  0  0  0  0
  4  8  1  0  0  0  0
  5 16  2  0  0  0  0
  6 11  1  0  0  0  0
  7 14  2  0  0  0  0
  9 22  1  1  0  0  0
  9  2  1  0  0  0  0
  9  3  1  0  0  0  0
 10  8  2  0  0  0  0
 10 20  1  0  0  0  0
 11 17  1  0  0  0  0
 11 15  1  0  0  0  0
 12 15  2  0  0  0  0
 12  4  1  0  0  0  0
 13  6  1  0  0  0  0
 14  5  1  0  0  0  0
 14 12  1  0  0  0  0
 15 10  1  0  0  0  0
 16  1  1  0  0  0  0
 17 19  1  0  0  0  0
 18 17  1  0  0  0  0
 18 19  1  0  0  0  0
 20 21  1  0  0  0  0
 22 23  1  0  0  0  0
 24 30  1  0  0  0  0
 24 27  1  0  0  0  0
 25 23  1  1  0  0  0
 25 28  1  0  0  0  0
 26 28  1  0  0  0  0
 27 29  1  6  0  0  0
 27 26  1  0  0  0  0
 30 25  1  0  0  0  0
M  END
>  <MODEL>
7

>  <REMARK>
 VINA RESULT:      -6.8      3.509      5.890
  Name = 
  5 active torsions:
  status: ('A' for Active; 'I' for Inactive)
    1  A    between atoms: C_2  and  N_22
    2  A    between atoms: C_5  and  O_13
    3  A    between atoms: O_7  and  C_21
    4  A    between atoms: C_8  and  O_13
    5  A    between atoms: C_8  and  C_20
                            x       y       z     vdW  Elec       q    Type
                         _______ _______ _______ _____ _____    ______ ____

>  <TORSDO>
F 5

$$$$
=
 OpenBabel11062419433D

 30 35  0  0  1  0  0  0  0  0999 V2000
  185.9190  178.7830  147.3000 N   0  0  0  0  0  0  0  0  0  0  0  0
  189.5120  174.3830  142.4680 N   0  0  0  0  0  0  0  0  0  0  0  0
  188.7730  175.8580  144.1610 C   0  0  0  0  0  0  0  0  0  0  0  0
  185.6520  178.2800  146.0710 C   0  0  0  0  0  0  0  0  0  0  0  0
  188.1010  177.8910  147.1920 C   0  0  0  0  0  3  0  0  0  0  0  0
  187.9470  175.9620  143.1450 C   0  0  0  0  0  0  0  0  0  0  0  0
  188.7840  176.6100  145.3820 N   0  0  0  0  0  0  0  0  0  0  0  0
  184.4390  178.4600  145.2910 C   0  0  0  0  0  3  0  0  0  0  0  0
  189.8340  174.8660  143.8200 C   0  0  1  0  0  3  0  0  0  0  0  0
  184.7330  177.8850  144.1240 C   0  0  0  0  0  0  0  0  0  0  0  0
  186.8490  176.8780  143.0040 N   0  0  0  0  0  0  0  0  0  0  0  0
  186.6020  177.5960  145.3530 C   0  0  0  0  0  0  0  0  0  0  0  0
  188.3600  175.0980  142.1070 N   0  0  0  0  0  0  0  0  0  0  0  0
  187.8640  177.3570  145.9150 C   0  0  0  0  0  0  0  0  0  0  0  0
  186.1100  177.3490  144.1460 C   0  0  0  0  0  0  0  0  0  0  0  0
  187.1250  178.5910  147.8430 N   0  0  0  0  0  0  0  0  0  0  0  0
  186.3430  177.1540  141.6560 C   0  0  0  0  0  3  0  0  0  0  0  0
  187.4160  177.8210  140.8070 C   0  0  0  0  0  2  0  0  0  0  0  0
  186.3120  178.6560  141.4060 C   0  0  0  0  0  2  0  0  0  0  0  0
  183.8580  177.7890  143.0380 O   0  0  0  0  0  0  0  0  0  0  0  0
  182.8480  178.7560  142.7860 C   0  0  0  0  0  1  0  0  0  0  0  0
  189.7980  173.7070  144.8030 C   0  0  0  0  0  2  0  0  0  0  0  0
  191.0970  173.3690  145.1850 O   0  0  0  0  0  0  0  0  0  0  0  0
  193.9620  175.7510  145.0160 C   0  0  0  0  0  2  0  0  0  0  0  0
  191.7620  174.5910  145.3090 C   0  0  1  0  0  3  0  0  0  0  0  0
  192.4600  176.3750  146.9210 C   0  0  0  0  0  2  0  0  0  0  0  0
  193.9100  176.2160  146.4700 C   0  0  2  0  0  3  0  0  0  0  0  0
  191.7120  175.0550  146.7630 C   0  0  0  0  0  2  0  0  0  0  0  0
  194.5730  177.4360  146.5930 O   0  0  0  0  0  1  0  0  0  0  0  0
  193.2130  174.4310  144.8580 C   0  0  0  0  0  2  0  0  0  0  0  0
  1 16  1  0  0  0  0
  2  9  1  0  0  0  0
  3  7  1  0  0  0  0
  4  1  2  0  0  0  0
  5 16  2  0  0  0  0
  6  3  2  0  0  0  0
  7 14  2  0  0  0  0
  8  4  1  0  0  0  0
  9  3  1  0  0  0  0
  9 22  1  1  0  0  0
 10 15  1  0  0  0  0
 10  8  2  0  0  0  0
 11  6  1  0  0  0  0
 11 15  1  0  0  0  0
 12 14  1  0  0  0  0
 12  4  1  0  0  0  0
 13  2  2  0  0  0  0
 13  6  1  0  0  0  0
 14  5  1  0  0  0  0
 15 12  2  0  0  0  0
 17 11  1  0  0  0  0
 18 19  1  0  0  0  0
 18 17  1  0  0  0  0
 19 17  1  0  0  0  0
 20 10  1  0  0  0  0
 21 20  1  0  0  0  0
 22 23  1  0  0  0  0
 24 27  1  0  0  0  0
 25 23  1  1  0  0  0
 25 28  1  0  0  0  0
 27 29  1  6  0  0  0
 27 26  1  0  0  0  0
 28 26  1  0  0  0  0
 30 24  1  0  0  0  0
 30 25  1  0  0  0  0
M  END
>  <MODEL>
8

>  <REMARK>
 VINA RESULT:      -6.7      1.902      4.239
  Name = 
  5 active torsions:
  status: ('A' for Active; 'I' for Inactive)
    1  A    between atoms: C_2  and  N_22
    2  A    between atoms: C_5  and  O_13
    3  A    between atoms: O_7  and  C_21
    4  A    between atoms: C_8  and  O_13
    5  A    between atoms: C_8  and  C_20
                            x       y       z     vdW  Elec       q    Type
                         _______ _______ _______ _____ _____    ______ ____

>  <TORSDO>
F 5

$$$$
=
 OpenBabel11062419433D

 30 35  0  0  1  0  0  0  0  0999 V2000
  191.8850  176.5720  147.5160 N   0  0  0  0  0  0  0  0  0  0  0  0
  190.3040  171.3820  142.4010 N   0  0  0  0  0  0  0  0  0  0  0  0
  190.4180  172.9160  144.1960 C   0  0  0  0  0  0  0  0  0  0  0  0
  192.6060  175.8220  146.6500 C   0  0  0  0  0  0  0  0  0  0  0  0
  189.9320  175.3920  146.9160 C   0  0  0  0  0  3  0  0  0  0  0  0
  191.6440  172.5510  143.8960 C   0  0  0  0  0  0  0  0  0  0  0  0
  189.9760  173.7640  145.2640 N   0  0  0  0  0  0  0  0  0  0  0  0
  194.0440  175.8540  146.4430 C   0  0  0  0  0  3  0  0  0  0  0  0
  189.4690  172.2040  143.2910 C   0  0  1  0  0  3  0  0  0  0  0  0
  194.2580  174.8450  145.5960 C   0  0  0  0  0  0  0  0  0  0  0  0
  192.8520  172.9090  144.5860 N   0  0  0  0  0  0  0  0  0  0  0  0
  192.0250  174.8170  145.9150 C   0  0  0  0  0  0  0  0  0  0  0  0
  191.6170  171.6270  142.8290 N   0  0  0  0  0  0  0  0  0  0  0  0
  190.6450  174.5910  146.0100 C   0  0  0  0  0  0  0  0  0  0  0  0
  192.9860  174.1690  145.2690 C   0  0  0  0  0  0  0  0  0  0  0  0
  190.5730  176.3550  147.6440 N   0  0  0  0  0  0  0  0  0  0  0  0
  194.0380  172.0660  144.3940 C   0  0  0  0  0  3  0  0  0  0  0  0
  193.7310  170.6200  144.7580 C   0  0  0  0  0  2  0  0  0  0  0  0
  194.4910  171.4900  145.7280 C   0  0  0  0  0  2  0  0  0  0  0  0
  195.5060  174.4870  145.0800 O   0  0  0  0  0  0  0  0  0  0  0  0
  196.2150  175.3080  144.1620 C   0  0  0  0  0  1  0  0  0  0  0  0
  188.6790  173.2110  142.4710 C   0  0  0  0  0  2  0  0  0  0  0  0
  189.5520  174.1100  141.8540 O   0  0  0  0  0  0  0  0  0  0  0  0
  188.8020  177.6930  142.5670 C   0  0  0  0  0  2  0  0  0  0  0  0
  188.8420  175.3110  141.7950 C   0  0  1  0  0  3  0  0  0  0  0  0
  186.6610  176.4170  142.3320 C   0  0  0  0  0  2  0  0  0  0  0  0
  187.3990  177.4870  143.1330 C   0  0  2  0  0  3  0  0  0  0  0  0
  187.4390  175.1050  142.3630 C   0  0  0  0  0  2  0  0  0  0  0  0
  186.6920  178.6860  143.0720 O   0  0  0  0  0  1  0  0  0  0  0  0
  189.5810  176.3820  142.5970 C   0  0  0  0  0  2  0  0  0  0  0  0
  1 16  1  0  0  0  0
  2 13  2  0  0  0  0
  2  9  1  0  0  0  0
  3  7  1  0  0  0  0
  4  1  2  0  0  0  0
  5 16  2  0  0  0  0
  6  3  2  0  0  0  0
  6 11  1  0  0  0  0
  7 14  2  0  0  0  0
  8  4  1  0  0  0  0
  9 22  1  6  0  0  0
  9  3  1  0  0  0  0
 10  8  2  0  0  0  0
 11 15  1  0  0  0  0
 12 14  1  0  0  0  0
 12  4  1  0  0  0  0
 13  6  1  0  0  0  0
 14  5  1  0  0  0  0
 15 10  1  0  0  0  0
 15 12  2  0  0  0  0
 17 11  1  0  0  0  0
 17 18  1  0  0  0  0
 17 19  1  0  0  0  0
 18 19  1  0  0  0  0
 20 10  1  0  0  0  0
 21 20  1  0  0  0  0
 23 22  1  0  0  0  0
 24 30  1  0  0  0  0
 24 27  1  0  0  0  0
 25 23  1  1  0  0  0
 25 28  1  0  0  0  0
 25 30  1  0  0  0  0
 26 28  1  0  0  0  0
 26 27  1  0  0  0  0
 27 29  1  6  0  0  0
M  END
>  <MODEL>
9

>  <REMARK>
 VINA RESULT:      -6.7      2.709      7.833
  Name = 
  5 active torsions:
  status: ('A' for Active; 'I' for Inactive)
    1  A    between atoms: C_2  and  N_22
    2  A    between atoms: C_5  and  O_13
    3  A    between atoms: O_7  and  C_21
    4  A    between atoms: C_8  and  O_13
    5  A    between atoms: C_8  and  C_20
                            x       y       z     vdW  Elec       q    Type
                         _______ _______ _______ _____ _____    ______ ____

>  <TORSDO>
F 5

$$$$
