=
 OpenBabel11062421183D

 56 60  0  0  1  0  0  0  0  0999 V2000
  194.4310  177.6750  146.3390 O   0  0  0  0  0  0  0  0  0  0  0  0
  195.0140  175.1240  142.6790 C   0  0  1  0  0  3  0  0  0  0  0  0
  195.4380  174.7800  145.4640 O   0  0  0  0  0  1  0  0  0  0  0  0
  194.3050  176.8920  145.4120 C   0  0  0  0  0  0  0  0  0  0  0  0
  192.9390  176.7520  144.7790 C   0  0  2  0  0  3  0  0  0  0  0  0
  191.9350  176.0340  145.6770 C   0  0  0  0  0  2  0  0  0  0  0  0
  190.5050  177.2760  143.3630 C   0  0  1  0  0  3  0  0  0  0  0  0
  189.8450  176.6130  144.4820 N   0  0  0  0  0  2  0  0  0  0  0  0
  192.8800  176.3470  143.2920 C   0  0  1  0  0  3  0  0  0  0  0  0
  195.7880  176.1600  143.4990 C   0  0  0  0  0  2  0  0  0  0  0  0
  193.5390  174.9990  143.0560 C   0  0  0  0  0  2  0  0  0  0  0  0
  191.4660  176.2850  142.7140 C   0  0  0  0  0  2  0  0  0  0  0  0
  195.5100  176.0960  144.9980 C   0  0  2  0  0  3  0  0  0  0  0  0
  190.6270  176.8270  145.6980 C   0  0  0  0  0  2  0  0  0  0  0  0
  195.2190  175.4550  140.9130 S   0  0  2  0  0  0  0  0  0  0  0  0
  193.8740  175.0860  140.2980 O   0  0  0  0  0  0  0  0  0  0  0  0
  196.3390  174.1600  140.3210 C   0  0  0  0  0  2  0  0  0  0  0  0
  196.5210  174.8420  138.0450 O   0  0  0  0  0  0  0  0  0  0  0  0
  196.1780  173.9390  138.8540 C   0  0  0  0  0  0  0  0  0  0  0  0
  195.6090  172.7500  138.4020 O   0  0  0  0  0  0  0  0  0  0  0  0
  195.3390  171.6560  139.2640 C   0  0  0  0  0  2  0  0  0  0  0  0
  193.9270  171.1570  138.9830 C   0  0  1  0  0  3  0  0  0  0  0  0
  193.8880  169.7710  139.1630 O   0  0  0  0  0  0  0  0  0  0  0  0
  193.8250  169.2380  137.8750 C   0  0  0  0  0  1  0  0  0  0  0  0
  192.8020  171.8250  139.8110 C   0  0  1  0  0  3  0  0  0  0  0  0
  191.5060  172.1990  139.0420 C   0  0  0  0  0  0  0  0  0  0  0  0
  190.8760  173.4690  139.5930 C   0  0  0  0  0  1  0  0  0  0  0  0
  191.8110  172.4170  137.5680 C   0  0  0  0  0  1  0  0  0  0  0  0
  190.5840  171.1560  139.1270 O   0  0  0  0  0  1  0  0  0  0  0  0
  192.4750  170.9410  141.0200 C   0  0  0  0  0  2  0  0  0  0  0  0
  192.9870  171.5420  142.3210 C   0  0  0  0  0  2  0  0  0  0  0  0
  193.7910  170.5160  143.1030 C   0  0  0  0  0  2  0  0  0  0  0  0
  194.5320  170.9940  145.5410 C   0  0  1  0  0  3  0  0  0  0  0  0
  193.4560  171.9640  145.0930 C   0  0  0  0  0  2  0  0  0  0  0  0
  193.4200  170.5390  144.5860 C   0  0  1  0  0  3  0  0  0  0  0  0
  196.9080  170.3500  145.2980 C   0  0  0  0  0  2  0  0  0  0  0  0
  195.8520  171.3480  144.8710 C   0  0  0  0  0  3  0  0  0  0  0  0
  196.8600  171.7160  145.9390 C   0  0  0  0  0  2  0  0  0  0  0  0
  189.4660  177.7440  142.3520 C   0  0  0  0  0  2  0  0  0  0  0  0
  188.1560  176.9840  142.5420 C   0  0  2  0  0  3  0  0  0  0  0  0
  188.1730  174.4640  142.5960 N   0  0  0  0  0  2  0  0  0  0  0  0
  188.1560  175.6230  140.5690 O   0  0  0  0  0  0  0  0  0  0  0  0
  188.1690  175.6680  141.8290 C   0  0  0  0  0  0  0  0  0  0  0  0
  188.1360  173.1520  141.9690 C   0  0  0  0  0  2  0  0  0  0  0  0
  189.0480  172.1940  142.7160 C   0  0  0  0  0  2  0  0  0  0  0  0
  189.9390  172.9610  143.6770 C   0  0  0  0  0  1  0  0  0  0  0  0
  186.7390  177.9220  140.8050 O   0  0  0  0  0  1  0  0  0  0  0  0
  186.9460  177.8520  142.1840 C   0  0  1  0  0  3  0  0  0  0  0  0
  185.6900  177.3760  142.8960 C   0  0  0  0  0  2  0  0  0  0  0  0
  184.6900  177.5360  146.4510 C   0  0  2  0  0  3  0  0  0  0  0  0
  185.5910  178.0480  144.2560 C   0  0  1  0  0  3  0  0  0  0  0  0
  184.2830  178.7850  144.4160 C   0  0  0  0  0  2  0  0  0  0  0  0
  185.6110  177.0170  145.3590 C   0  0  0  0  0  2  0  0  0  0  0  0
  184.0190  178.7860  145.9050 C   0  0  0  0  0  2  0  0  0  0  0  0
  186.4400  176.8710  147.9370 O   0  0  0  0  0  1  0  0  0  0  0  0
  185.4980  177.8700  147.6920 C   0  0  0  0  0  2  0  0  0  0  0  0
  2 15  1  6  0  0  0
  2 11  1  0  0  0  0
  2 10  1  0  0  0  0
  4  1  2  0  0  0  0
  5  4  1  0  0  0  0
  5  6  1  1  0  0  0
  6 14  1  0  0  0  0
  7 39  1  6  0  0  0
  7  8  1  0  0  0  0
  8 14  1  0  0  0  0
  9 12  1  1  0  0  0
  9  5  1  0  0  0  0
 10 13  1  0  0  0  0
 11  9  1  0  0  0  0
 12  7  1  0  0  0  0
 13  4  1  0  0  0  0
 13  3  1  6  0  0  0
 15 16  2  6  0  0  0
 17 15  1  0  0  0  0
 18 19  2  0  0  0  0
 19 17  1  0  0  0  0
 20 19  1  0  0  0  0
 20 21  1  0  0  0  0
 22 23  1  0  0  0  0
 22 21  1  1  0  0  0
 22 25  1  0  0  0  0
 24 23  1  0  0  0  0
 25 30  1  1  0  0  0
 26 29  1  0  0  0  0
 26 27  1  0  0  0  0
 26 25  1  0  0  0  0
 28 26  1  0  0  0  0
 30 31  1  0  0  0  0
 31 32  1  0  0  0  0
 33 37  1  6  0  0  0
 34 33  1  0  0  0  0
 35 32  1  6  0  0  0
 35 34  1  0  0  0  0
 35 33  1  0  0  0  0
 36 38  1  0  0  0  0
 37 36  1  0  0  0  0
 37 38  1  0  0  0  0
 40 39  1  6  0  0  0
 42 43  2  0  0  0  0
 43 40  1  0  0  0  0
 43 41  1  0  0  0  0
 44 41  1  0  0  0  0
 44 45  1  0  0  0  0
 45 46  1  0  0  0  0
 48 47  1  6  0  0  0
 48 40  1  0  0  0  0
 48 49  1  0  0  0  0
 50 56  1  1  0  0  0
 51 49  1  6  0  0  0
 51 52  1  0  0  0  0
 51 53  1  0  0  0  0
 52 54  1  0  0  0  0
 53 50  1  0  0  0  0
 54 50  1  0  0  0  0
 56 55  1  0  0  0  0
M  END
>  <MODEL>
1

>  <REMARK>
 VINA RESULT:      -6.2      0.000      0.000
  Name = 
  23 active torsions:
  status: ('A' for Active; 'I' for Inactive)
    1  A    between atoms: C_1  and  C_15
    2  A    between atoms: C_2  and  C_47
    3  A    between atoms: S_7  and  C_17
    4  A    between atoms: S_7  and  C_51
    5  A    between atoms: C_8  and  C_27
    6  A    between atoms: C_10  and  C_38
    7  A    between atoms: C_10  and  C_40
    8  A    between atoms: C_10  and  C_50
    9  A    between atoms: C_11  and  C_26
   10  A    between atoms: C_12  and  C_22
   11  A    between atoms: C_12  and  C_37
   12  A    between atoms: C_15  and  C_29
   13  A    between atoms: C_15  and  C_31
   14  A    between atoms: C_18  and  C_31
   15  A    between atoms: C_18  and  O_34
   16  A    between atoms: O_23  and  C_31
   17  A    between atoms: C_24  and  C_54
   18  A    between atoms: N_25  and  C_54
   19  A    between atoms: C_26  and  C_50
   20  A    between atoms: C_28  and  O_34
   21  A    between atoms: C_28  and  C_51
   22  A    between atoms: C_29  and  C_37
   23  A    between atoms: C_36  and  C_38
                            x       y       z     vdW  Elec       q    Type
                         _______ _______ _______ _____ _____    ______ ____

>  <TORSDO>
F 23

$$$$
=
 OpenBabel11062421183D

 56 60  0  0  1  0  0  0  0  0999 V2000
  186.5110  176.6040  148.3560 O   0  0  0  0  0  0  0  0  0  0  0  0
  186.1020  178.0470  144.1140 C   0  0  1  0  0  3  0  0  0  0  0  0
  185.8060  179.2230  146.6800 O   0  0  0  0  0  1  0  0  0  0  0  0
  186.6950  177.0670  147.2420 C   0  0  0  0  0  0  0  0  0  0  0  0
  188.0470  176.8610  146.6000 C   0  0  2  0  0  3  0  0  0  0  0  0
  189.1530  177.6860  147.2540 C   0  0  0  0  0  2  0  0  0  0  0  0
  190.3620  175.6740  145.4000 C   0  0  1  0  0  3  0  0  0  0  0  0
  191.1260  176.5490  146.2820 N   0  0  0  0  0  2  0  0  0  0  0  0
  188.1040  176.8130  145.0580 C   0  0  1  0  0  3  0  0  0  0  0  0
  185.2430  177.3870  145.1960 C   0  0  0  0  0  2  0  0  0  0  0  0
  187.5930  178.1030  144.4420 C   0  0  0  0  0  2  0  0  0  0  0  0
  189.4980  176.5420  144.4910 C   0  0  0  0  0  2  0  0  0  0  0  0
  185.5730  177.8460  146.6140 C   0  0  2  0  0  3  0  0  0  0  0  0
  190.3640  176.7860  147.5060 C   0  0  0  0  0  2  0  0  0  0  0  0
  185.8060  177.2490  142.5190 S   0  0  2  0  0  0  0  0  0  0  0  0
  185.9500  175.7590  142.8050 O   0  0  0  0  0  0  0  0  0  0  0  0
  187.2660  177.6440  141.5200 C   0  0  0  0  0  2  0  0  0  0  0  0
  186.6770  177.2180  139.2500 O   0  0  0  0  0  0  0  0  0  0  0  0
  187.3020  176.8270  140.2730 C   0  0  0  0  0  0  0  0  0  0  0  0
  187.9920  175.6160  140.2710 O   0  0  0  0  0  0  0  0  0  0  0  0
  188.8450  175.2210  141.3330 C   0  0  0  0  0  2  0  0  0  0  0  0
  189.2360  173.7640  141.1210 C   0  0  1  0  0  3  0  0  0  0  0  0
  188.0880  173.0180  140.8410 O   0  0  0  0  0  0  0  0  0  0  0  0
  187.6340  172.5660  142.0810 C   0  0  0  0  0  1  0  0  0  0  0  0
  190.3070  173.5080  140.0320 C   0  0  1  0  0  3  0  0  0  0  0  0
  191.5200  172.6320  140.4470 C   0  0  0  0  0  0  0  0  0  0  0  0
  191.4460  171.2450  139.8260 C   0  0  0  0  0  1  0  0  0  0  0  0
  192.8190  173.2850  140.0030 C   0  0  0  0  0  1  0  0  0  0  0  0
  191.5670  172.5100  141.8350 O   0  0  0  0  0  1  0  0  0  0  0  0
  189.6260  172.9290  138.7860 C   0  0  0  0  0  2  0  0  0  0  0  0
  189.9580  173.7260  137.5330 C   0  0  0  0  0  2  0  0  0  0  0  0
  190.3590  172.7970  136.3990 C   0  0  0  0  0  2  0  0  0  0  0  0
  192.3120  171.1390  135.9980 C   0  0  1  0  0  3  0  0  0  0  0  0
  192.3260  172.2630  134.9800 C   0  0  0  0  0  2  0  0  0  0  0  0
  191.8690  172.5540  136.3930 C   0  0  1  0  0  3  0  0  0  0  0  0
  191.1070  169.1180  136.7610 C   0  0  0  0  0  2  0  0  0  0  0  0
  191.1780  170.1750  135.6790 C   0  0  0  0  0  3  0  0  0  0  0  0
  191.7590  168.7970  135.4370 C   0  0  0  0  0  2  0  0  0  0  0  0
  191.3100  174.8190  144.5700 C   0  0  0  0  0  2  0  0  0  0  0  0
  192.6700  175.5000  144.4420 C   0  0  2  0  0  3  0  0  0  0  0  0
  194.3340  176.1680  142.6700 N   0  0  0  0  0  2  0  0  0  0  0  0
  192.0920  175.7980  142.1350 O   0  0  0  0  0  0  0  0  0  0  0  0
  192.9910  175.8330  143.0180 C   0  0  0  0  0  0  0  0  0  0  0  0
  194.7260  176.4540  141.2980 C   0  0  0  0  0  2  0  0  0  0  0  0
  196.2370  176.5690  141.2040 C   0  0  0  0  0  2  0  0  0  0  0  0
  196.8980  175.5200  142.0780 C   0  0  0  0  0  1  0  0  0  0  0  0
  194.2250  175.3150  146.2990 O   0  0  0  0  0  1  0  0  0  0  0  0
  193.7710  174.6930  145.1350 C   0  0  1  0  0  3  0  0  0  0  0  0
  193.3210  173.2710  145.4210 C   0  0  0  0  0  2  0  0  0  0  0  0
  196.7710  172.1570  144.6990 C   0  0  2  0  0  3  0  0  0  0  0  0
  194.3540  172.2920  144.8870 C   0  0  1  0  0  3  0  0  0  0  0  0
  194.7390  172.6150  143.4630 C   0  0  0  0  0  2  0  0  0  0  0  0
  195.6350  172.3880  145.6820 C   0  0  0  0  0  2  0  0  0  0  0  0
  196.1490  172.0880  143.3140 C   0  0  0  0  0  2  0  0  0  0  0  0
  197.0400  169.8420  144.1690 O   0  0  0  0  0  1  0  0  0  0  0  0
  197.4790  170.8540  145.0240 C   0  0  0  0  0  2  0  0  0  0  0  0
  2 15  1  6  0  0  0
  2 11  1  0  0  0  0
  2 10  1  0  0  0  0
  4  1  2  0  0  0  0
  5  4  1  0  0  0  0
  5  6  1  6  0  0  0
  6 14  1  0  0  0  0
  7 39  1  6  0  0  0
  7  8  1  0  0  0  0
  8 14  1  0  0  0  0
  9 11  1  6  0  0  0
  9  5  1  0  0  0  0
 10 13  1  0  0  0  0
 12  9  1  0  0  0  0
 12  7  1  0  0  0  0
 13  3  1  6  0  0  0
 13  4  1  0  0  0  0
 15 16  2  1  0  0  0
 17 15  1  0  0  0  0
 18 19  2  0  0  0  0
 19 17  1  0  0  0  0
 20 19  1  0  0  0  0
 20 21  1  0  0  0  0
 22 21  1  6  0  0  0
 23 22  1  0  0  0  0
 23 24  1  0  0  0  0
 25 30  1  6  0  0  0
 25 26  1  0  0  0  0
 25 22  1  0  0  0  0
 26 29  1  0  0  0  0
 27 26  1  0  0  0  0
 28 26  1  0  0  0  0
 31 30  1  0  0  0  0
 32 31  1  0  0  0  0
 33 37  1  6  0  0  0
 33 35  1  0  0  0  0
 34 33  1  0  0  0  0
 34 35  1  0  0  0  0
 35 32  1  6  0  0  0
 37 36  1  0  0  0  0
 38 37  1  0  0  0  0
 38 36  1  0  0  0  0
 40 39  1  6  0  0  0
 40 48  1  0  0  0  0
 41 43  1  0  0  0  0
 42 43  2  0  0  0  0
 43 40  1  0  0  0  0
 44 41  1  0  0  0  0
 45 44  1  0  0  0  0
 45 46  1  0  0  0  0
 48 49  1  0  0  0  0
 48 47  1  1  0  0  0
 50 56  1  1  0  0  0
 50 53  1  0  0  0  0
 51 49  1  1  0  0  0
 51 53  1  0  0  0  0
 52 51  1  0  0  0  0
 54 52  1  0  0  0  0
 54 50  1  0  0  0  0
 55 56  1  0  0  0  0
M  END
>  <MODEL>
2

>  <REMARK>
 VINA RESULT:      -5.8      2.583      8.331
  Name = 
  23 active torsions:
  status: ('A' for Active; 'I' for Inactive)
    1  A    between atoms: C_1  and  C_15
    2  A    between atoms: C_2  and  C_47
    3  A    between atoms: S_7  and  C_17
    4  A    between atoms: S_7  and  C_51
    5  A    between atoms: C_8  and  C_27
    6  A    between atoms: C_10  and  C_38
    7  A    between atoms: C_10  and  C_40
    8  A    between atoms: C_10  and  C_50
    9  A    between atoms: C_11  and  C_26
   10  A    between atoms: C_12  and  C_22
   11  A    between atoms: C_12  and  C_37
   12  A    between atoms: C_15  and  C_29
   13  A    between atoms: C_15  and  C_31
   14  A    between atoms: C_18  and  C_31
   15  A    between atoms: C_18  and  O_34
   16  A    between atoms: O_23  and  C_31
   17  A    between atoms: C_24  and  C_54
   18  A    between atoms: N_25  and  C_54
   19  A    between atoms: C_26  and  C_50
   20  A    between atoms: C_28  and  O_34
   21  A    between atoms: C_28  and  C_51
   22  A    between atoms: C_29  and  C_37
   23  A    between atoms: C_36  and  C_38
                            x       y       z     vdW  Elec       q    Type
                         _______ _______ _______ _____ _____    ______ ____

>  <TORSDO>
F 23

$$$$
=
 OpenBabel11062421183D

 56 60  0  0  1  0  0  0  0  0999 V2000
  187.0050  175.9780  148.3300 O   0  0  0  0  0  0  0  0  0  0  0  0
  186.0720  177.8720  144.3560 C   0  0  1  0  0  3  0  0  0  0  0  0
  185.8050  178.6510  147.0720 O   0  0  0  0  0  1  0  0  0  0  0  0
  187.0350  176.6030  147.2820 C   0  0  0  0  0  0  0  0  0  0  0  0
  188.3510  176.6900  146.5430 C   0  0  2  0  0  3  0  0  0  0  0  0
  189.3720  177.5830  147.2410 C   0  0  0  0  0  2  0  0  0  0  0  0
  190.7150  176.0340  145.0640 C   0  0  1  0  0  3  0  0  0  0  0  0
  191.4090  176.8960  146.0140 N   0  0  0  0  0  2  0  0  0  0  0  0
  188.2970  176.8480  145.0090 C   0  0  1  0  0  3  0  0  0  0  0  0
  185.4020  176.9550  145.3830 C   0  0  0  0  0  2  0  0  0  0  0  0
  187.5600  178.1130  144.6060 C   0  0  0  0  0  2  0  0  0  0  0  0
  189.6690  176.8680  144.3320 C   0  0  0  0  0  2  0  0  0  0  0  0
  185.7690  177.2750  146.8300 C   0  0  2  0  0  3  0  0  0  0  0  0
  190.7160  176.8550  147.2990 C   0  0  0  0  0  2  0  0  0  0  0  0
  185.7750  177.2490  142.6850 S   0  0  2  0  0  0  0  0  0  0  0  0
  185.9750  175.7430  142.7990 O   0  0  0  0  0  0  0  0  0  0  0  0
  187.2010  177.8060  141.7170 C   0  0  0  0  0  2  0  0  0  0  0  0
  186.8110  177.7220  139.3670 O   0  0  0  0  0  0  0  0  0  0  0  0
  187.2490  177.1280  140.3890 C   0  0  0  0  0  0  0  0  0  0  0  0
  187.7390  175.8260  140.3060 O   0  0  0  0  0  0  0  0  0  0  0  0
  188.8660  175.3850  141.0450 C   0  0  0  0  0  2  0  0  0  0  0  0
  189.0190  173.8830  140.8420 C   0  0  1  0  0  3  0  0  0  0  0  0
  189.2260  173.6240  139.4840 O   0  0  0  0  0  0  0  0  0  0  0  0
  188.2240  172.7190  139.1290 C   0  0  0  0  0  1  0  0  0  0  0  0
  190.1280  173.2020  141.6810 C   0  0  1  0  0  3  0  0  0  0  0  0
  189.6720  172.0710  142.6430 C   0  0  0  0  0  0  0  0  0  0  0  0
  190.2760  170.7300  142.2550 C   0  0  0  0  0  1  0  0  0  0  0  0
  190.0930  172.3900  144.0690 C   0  0  0  0  0  1  0  0  0  0  0  0
  188.2810  171.9680  142.6320 O   0  0  0  0  0  1  0  0  0  0  0  0
  191.2290  172.6970  140.7410 C   0  0  0  0  0  2  0  0  0  0  0  0
  192.3590  173.7050  140.5940 C   0  0  0  0  0  2  0  0  0  0  0  0
  193.6630  173.1250  141.1180 C   0  0  0  0  0  2  0  0  0  0  0  0
  195.6260  171.7360  140.1470 C   0  0  1  0  0  3  0  0  0  0  0  0
  194.3880  171.6220  139.2780 C   0  0  0  0  0  2  0  0  0  0  0  0
  194.6730  172.9290  139.9870 C   0  0  1  0  0  3  0  0  0  0  0  0
  196.7700  170.7620  142.1130 C   0  0  0  0  0  2  0  0  0  0  0  0
  195.4330  170.9250  141.4210 C   0  0  0  0  0  3  0  0  0  0  0  0
  196.2010  169.6260  141.2960 C   0  0  0  0  0  2  0  0  0  0  0  0
  191.7110  175.4470  144.0730 C   0  0  0  0  0  2  0  0  0  0  0  0
  193.1370  175.5990  144.5950 C   0  0  2  0  0  3  0  0  0  0  0  0
  195.4490  176.2630  143.8420 N   0  0  0  0  0  2  0  0  0  0  0  0
  193.6290  176.3880  142.3860 O   0  0  0  0  0  0  0  0  0  0  0  0
  194.0630  176.1130  143.5370 C   0  0  0  0  0  0  0  0  0  0  0  0
  196.4130  176.7100  142.8470 C   0  0  0  0  0  2  0  0  0  0  0  0
  197.5760  175.7360  142.7780 C   0  0  0  0  0  2  0  0  0  0  0  0
  197.0680  174.3310  142.5110 C   0  0  0  0  0  1  0  0  0  0  0  0
  192.9080  173.9980  146.4080 O   0  0  0  0  0  1  0  0  0  0  0  0
  193.6340  174.3110  145.2570 C   0  0  1  0  0  3  0  0  0  0  0  0
  193.6290  173.1460  144.2810 C   0  0  0  0  0  2  0  0  0  0  0  0
  195.2720  170.0010  145.3170 C   0  0  2  0  0  3  0  0  0  0  0  0
  193.7070  171.8380  145.0500 C   0  0  1  0  0  3  0  0  0  0  0  0
  193.2220  170.6760  144.2170 C   0  0  0  0  0  2  0  0  0  0  0  0
  195.1400  171.5130  145.4000 C   0  0  0  0  0  2  0  0  0  0  0  0
  193.9580  169.4730  144.7640 C   0  0  0  0  0  2  0  0  0  0  0  0
  196.8840  169.5430  147.0210 O   0  0  0  0  0  1  0  0  0  0  0  0
  195.5310  169.4290  146.6990 C   0  0  0  0  0  2  0  0  0  0  0  0
  2 15  1  6  0  0  0
  2 11  1  0  0  0  0
  2 10  1  0  0  0  0
  4  1  2  0  0  0  0
  5  6  1  1  0  0  0
  5  4  1  0  0  0  0
  6 14  1  0  0  0  0
  7 39  1  6  0  0  0
  7  8  1  0  0  0  0
  8 14  1  0  0  0  0
  9 12  1  1  0  0  0
  9  5  1  0  0  0  0
 10 13  1  0  0  0  0
 11  9  1  0  0  0  0
 12  7  1  0  0  0  0
 13  3  1  6  0  0  0
 13  4  1  0  0  0  0
 15 16  2  1  0  0  0
 17 15  1  0  0  0  0
 18 19  2  0  0  0  0
 19 17  1  0  0  0  0
 20 19  1  0  0  0  0
 20 21  1  0  0  0  0
 22 21  1  6  0  0  0
 22 25  1  0  0  0  0
 23 22  1  0  0  0  0
 24 23  1  0  0  0  0
 25 30  1  6  0  0  0
 25 26  1  0  0  0  0
 26 28  1  0  0  0  0
 27 26  1  0  0  0  0
 29 26  1  0  0  0  0
 31 30  1  0  0  0  0
 31 32  1  0  0  0  0
 33 37  1  1  0  0  0
 34 35  1  0  0  0  0
 34 33  1  0  0  0  0
 35 33  1  0  0  0  0
 35 32  1  1  0  0  0
 37 36  1  0  0  0  0
 38 37  1  0  0  0  0
 38 36  1  0  0  0  0
 40 39  1  6  0  0  0
 40 48  1  0  0  0  0
 42 43  2  0  0  0  0
 43 41  1  0  0  0  0
 43 40  1  0  0  0  0
 44 41  1  0  0  0  0
 45 44  1  0  0  0  0
 46 45  1  0  0  0  0
 48 47  1  1  0  0  0
 49 48  1  0  0  0  0
 50 53  1  0  0  0  0
 50 56  1  1  0  0  0
 51 49  1  6  0  0  0
 51 53  1  0  0  0  0
 52 54  1  0  0  0  0
 52 51  1  0  0  0  0
 54 50  1  0  0  0  0
 56 55  1  0  0  0  0
M  END
>  <MODEL>
3

>  <REMARK>
 VINA RESULT:      -5.8      2.588      7.718
  Name = 
  23 active torsions:
  status: ('A' for Active; 'I' for Inactive)
    1  A    between atoms: C_1  and  C_15
    2  A    between atoms: C_2  and  C_47
    3  A    between atoms: S_7  and  C_17
    4  A    between atoms: S_7  and  C_51
    5  A    between atoms: C_8  and  C_27
    6  A    between atoms: C_10  and  C_38
    7  A    between atoms: C_10  and  C_40
    8  A    between atoms: C_10  and  C_50
    9  A    between atoms: C_11  and  C_26
   10  A    between atoms: C_12  and  C_22
   11  A    between atoms: C_12  and  C_37
   12  A    between atoms: C_15  and  C_29
   13  A    between atoms: C_15  and  C_31
   14  A    between atoms: C_18  and  C_31
   15  A    between atoms: C_18  and  O_34
   16  A    between atoms: O_23  and  C_31
   17  A    between atoms: C_24  and  C_54
   18  A    between atoms: N_25  and  C_54
   19  A    between atoms: C_26  and  C_50
   20  A    between atoms: C_28  and  O_34
   21  A    between atoms: C_28  and  C_51
   22  A    between atoms: C_29  and  C_37
   23  A    between atoms: C_36  and  C_38
                            x       y       z     vdW  Elec       q    Type
                         _______ _______ _______ _____ _____    ______ ____

>  <TORSDO>
F 23

$$$$
=
 OpenBabel11062421183D

 56 60  0  0  1  0  0  0  0  0999 V2000
  194.2550  177.5540  146.5890 O   0  0  0  0  0  0  0  0  0  0  0  0
  194.8890  175.0860  142.8800 C   0  0  1  0  0  3  0  0  0  0  0  0
  195.2010  174.6520  145.6670 O   0  0  0  0  0  1  0  0  0  0  0  0
  194.1380  176.8010  145.6350 C   0  0  0  0  0  0  0  0  0  0  0  0
  192.7920  176.7230  144.9520 C   0  0  2  0  0  3  0  0  0  0  0  0
  191.7340  176.0130  145.7930 C   0  0  0  0  0  2  0  0  0  0  0  0
  190.4290  177.3650  143.4660 C   0  0  1  0  0  3  0  0  0  0  0  0
  189.7080  176.6930  144.5420 N   0  0  0  0  0  2  0  0  0  0  0  0
  192.7740  176.3600  143.4520 C   0  0  1  0  0  3  0  0  0  0  0  0
  195.6650  176.0730  143.7560 C   0  0  0  0  0  2  0  0  0  0  0  0
  193.3980  174.9990  143.2020 C   0  0  0  0  0  2  0  0  0  0  0  0
  191.3800  176.3610  142.8230 C   0  0  0  0  0  2  0  0  0  0  0  0
  195.3320  175.9770  145.2420 C   0  0  2  0  0  3  0  0  0  0  0  0
  190.4520  176.8480  145.7900 C   0  0  0  0  0  2  0  0  0  0  0  0
  195.1670  175.4580  141.1330 S   0  0  2  0  0  0  0  0  0  0  0  0
  193.8500  175.1060  140.4530 O   0  0  0  0  0  0  0  0  0  0  0  0
  196.3110  174.1760  140.5570 C   0  0  0  0  0  2  0  0  0  0  0  0
  197.1440  175.5610  138.8060 O   0  0  0  0  0  0  0  0  0  0  0  0
  196.7270  174.4210  139.1460 C   0  0  0  0  0  0  0  0  0  0  0  0
  196.6070  173.3930  138.2120 O   0  0  0  0  0  0  0  0  0  0  0  0
  196.3060  172.0570  138.5800 C   0  0  0  0  0  2  0  0  0  0  0  0
  195.0530  171.6200  137.8320 C   0  0  1  0  0  3  0  0  0  0  0  0
  194.8260  170.2620  138.0750 O   0  0  0  0  0  0  0  0  0  0  0  0
  195.2280  169.6100  136.9080 C   0  0  0  0  0  1  0  0  0  0  0  0
  193.7700  172.4300  138.1400 C   0  0  1  0  0  3  0  0  0  0  0  0
  192.9030  172.8430  136.9190 C   0  0  0  0  0  0  0  0  0  0  0  0
  191.6750  171.9540  136.7820 C   0  0  0  0  0  1  0  0  0  0  0  0
  192.4370  174.2830  137.0660 C   0  0  0  0  0  1  0  0  0  0  0  0
  193.6580  172.7650  135.7500 O   0  0  0  0  0  1  0  0  0  0  0  0
  192.9270  171.6630  139.1650 C   0  0  0  0  0  2  0  0  0  0  0  0
  193.4350  171.8640  140.5850 C   0  0  0  0  0  2  0  0  0  0  0  0
  192.3900  171.4190  141.5950 C   0  0  0  0  0  2  0  0  0  0  0  0
  191.9780  171.6250  144.1470 C   0  0  1  0  0  3  0  0  0  0  0  0
  192.3620  170.2090  143.7640 C   0  0  0  0  0  2  0  0  0  0  0  0
  192.9730  171.3680  143.0080 C   0  0  1  0  0  3  0  0  0  0  0  0
  190.1110  173.2450  144.2570 C   0  0  0  0  0  2  0  0  0  0  0  0
  190.5490  171.9060  143.7020 C   0  0  0  0  0  3  0  0  0  0  0  0
  189.6580  171.9680  144.9250 C   0  0  0  0  0  2  0  0  0  0  0  0
  189.4420  177.8930  142.4330 C   0  0  0  0  0  2  0  0  0  0  0  0
  188.1090  177.1580  142.5420 C   0  0  2  0  0  3  0  0  0  0  0  0
  188.2940  174.7090  141.9750 N   0  0  0  0  0  2  0  0  0  0  0  0
  187.6590  176.2710  140.3610 O   0  0  0  0  0  0  0  0  0  0  0  0
  188.0100  176.0410  141.5500 C   0  0  0  0  0  0  0  0  0  0  0  0
  188.1700  173.5710  141.0780 C   0  0  0  0  0  2  0  0  0  0  0  0
  189.4680  173.3650  140.3170 C   0  0  0  0  0  2  0  0  0  0  0  0
  189.2830  173.7290  138.8560 C   0  0  0  0  0  1  0  0  0  0  0  0
  186.6070  178.4840  141.1680 O   0  0  0  0  0  1  0  0  0  0  0  0
  186.9250  178.1270  142.4800 C   0  0  1  0  0  3  0  0  0  0  0  0
  185.7090  177.5670  143.1980 C   0  0  0  0  0  2  0  0  0  0  0  0
  185.1850  177.1740  146.8360 C   0  0  2  0  0  3  0  0  0  0  0  0
  185.6940  178.0620  144.6350 C   0  0  1  0  0  3  0  0  0  0  0  0
  184.3240  178.5510  145.0380 C   0  0  0  0  0  2  0  0  0  0  0  0
  186.0180  176.9350  145.5880 C   0  0  0  0  0  2  0  0  0  0  0  0
  184.2660  178.3470  146.5360 C   0  0  0  0  0  2  0  0  0  0  0  0
  186.4650  178.8460  147.9670 O   0  0  0  0  0  1  0  0  0  0  0  0
  186.0930  177.5020  148.0080 C   0  0  0  0  0  2  0  0  0  0  0  0
  2 15  1  6  0  0  0
  2 11  1  0  0  0  0
  2 10  1  0  0  0  0
  4  1  2  0  0  0  0
  5  4  1  0  0  0  0
  5  6  1  1  0  0  0
  7 39  1  6  0  0  0
  7  8  1  0  0  0  0
  8 14  1  0  0  0  0
  9 12  1  1  0  0  0
  9  5  1  0  0  0  0
 10 13  1  0  0  0  0
 11  9  1  0  0  0  0
 12  7  1  0  0  0  0
 13  4  1  0  0  0  0
 13  3  1  6  0  0  0
 14  6  1  0  0  0  0
 15 16  2  6  0  0  0
 17 15  1  0  0  0  0
 18 19  2  0  0  0  0
 19 17  1  0  0  0  0
 20 21  1  0  0  0  0
 20 19  1  0  0  0  0
 22 23  1  0  0  0  0
 22 25  1  0  0  0  0
 22 21  1  1  0  0  0
 24 23  1  0  0  0  0
 25 30  1  1  0  0  0
 26 28  1  0  0  0  0
 26 25  1  0  0  0  0
 27 26  1  0  0  0  0
 29 26  1  0  0  0  0
 30 31  1  0  0  0  0
 31 32  1  0  0  0  0
 33 37  1  6  0  0  0
 34 33  1  0  0  0  0
 35 32  1  6  0  0  0
 35 34  1  0  0  0  0
 35 33  1  0  0  0  0
 36 38  1  0  0  0  0
 37 36  1  0  0  0  0
 37 38  1  0  0  0  0
 40 39  1  6  0  0  0
 42 43  2  0  0  0  0
 43 41  1  0  0  0  0
 43 40  1  0  0  0  0
 44 41  1  0  0  0  0
 45 44  1  0  0  0  0
 46 45  1  0  0  0  0
 48 47  1  6  0  0  0
 48 40  1  0  0  0  0
 48 49  1  0  0  0  0
 50 56  1  1  0  0  0
 51 49  1  6  0  0  0
 51 52  1  0  0  0  0
 51 53  1  0  0  0  0
 52 54  1  0  0  0  0
 53 50  1  0  0  0  0
 54 50  1  0  0  0  0
 55 56  1  0  0  0  0
M  END
>  <MODEL>
4

>  <REMARK>
 VINA RESULT:      -5.8      1.481      2.213
  Name = 
  23 active torsions:
  status: ('A' for Active; 'I' for Inactive)
    1  A    between atoms: C_1  and  C_15
    2  A    between atoms: C_2  and  C_47
    3  A    between atoms: S_7  and  C_17
    4  A    between atoms: S_7  and  C_51
    5  A    between atoms: C_8  and  C_27
    6  A    between atoms: C_10  and  C_38
    7  A    between atoms: C_10  and  C_40
    8  A    between atoms: C_10  and  C_50
    9  A    between atoms: C_11  and  C_26
   10  A    between atoms: C_12  and  C_22
   11  A    between atoms: C_12  and  C_37
   12  A    between atoms: C_15  and  C_29
   13  A    between atoms: C_15  and  C_31
   14  A    between atoms: C_18  and  C_31
   15  A    between atoms: C_18  and  O_34
   16  A    between atoms: O_23  and  C_31
   17  A    between atoms: C_24  and  C_54
   18  A    between atoms: N_25  and  C_54
   19  A    between atoms: C_26  and  C_50
   20  A    between atoms: C_28  and  O_34
   21  A    between atoms: C_28  and  C_51
   22  A    between atoms: C_29  and  C_37
   23  A    between atoms: C_36  and  C_38
                            x       y       z     vdW  Elec       q    Type
                         _______ _______ _______ _____ _____    ______ ____

>  <TORSDO>
F 23

$$$$
=
 OpenBabel11062421183D

 56 60  0  0  1  0  0  0  0  0999 V2000
  189.5320  174.6630  147.5110 O   0  0  0  0  0  0  0  0  0  0  0  0
  188.5430  177.6920  144.3340 C   0  0  1  0  0  3  0  0  0  0  0  0
  188.1830  177.5280  147.1440 O   0  0  0  0  0  1  0  0  0  0  0  0
  189.5390  175.5950  146.7240 C   0  0  0  0  0  0  0  0  0  0  0  0
  190.8580  175.9910  146.1000 C   0  0  2  0  0  3  0  0  0  0  0  0
  191.8080  176.6640  147.0880 C   0  0  0  0  0  2  0  0  0  0  0  0
  193.2830  175.9850  144.5760 C   0  0  1  0  0  3  0  0  0  0  0  0
  193.9050  176.5280  145.7780 N   0  0  0  0  0  2  0  0  0  0  0  0
  190.8190  176.6370  144.7000 C   0  0  1  0  0  3  0  0  0  0  0  0
  187.9170  176.4550  144.9840 C   0  0  0  0  0  2  0  0  0  0  0  0
  190.0080  177.9210  144.7020 C   0  0  0  0  0  2  0  0  0  0  0  0
  192.1970  176.9530  144.1160 C   0  0  0  0  0  2  0  0  0  0  0  0
  188.2390  176.3050  146.4680 C   0  0  2  0  0  3  0  0  0  0  0  0
  193.1950  176.0320  146.9550 C   0  0  0  0  0  2  0  0  0  0  0  0
  188.3140  177.6320  142.5420 S   0  0  2  0  0  0  0  0  0  0  0  0
  187.1210  178.5420  142.2790 O   0  0  0  0  0  0  0  0  0  0  0  0
  187.6760  175.9690  142.2070 C   0  0  0  0  0  2  0  0  0  0  0  0
  187.3580  176.1170  139.8490 O   0  0  0  0  0  0  0  0  0  0  0  0
  187.9630  175.5560  140.8030 C   0  0  0  0  0  0  0  0  0  0  0  0
  188.8670  174.5210  140.5680 O   0  0  0  0  0  0  0  0  0  0  0  0
  188.6330  173.1900  140.9980 C   0  0  0  0  0  2  0  0  0  0  0  0
  189.5750  172.2650  140.2390 C   0  0  1  0  0  3  0  0  0  0  0  0
  190.1030  172.9510  139.1400 O   0  0  0  0  0  0  0  0  0  0  0  0
  189.4600  172.4070  138.0270 C   0  0  0  0  0  1  0  0  0  0  0  0
  190.7250  171.6460  141.0720 C   0  0  1  0  0  3  0  0  0  0  0  0
  190.7200  171.9560  142.5940 C   0  0  0  0  0  0  0  0  0  0  0  0
  191.7260  171.0930  143.3420 C   0  0  0  0  0  1  0  0  0  0  0  0
  191.0690  173.4160  142.8360 C   0  0  0  0  0  1  0  0  0  0  0  0
  189.4480  171.7380  143.1210 O   0  0  0  0  0  1  0  0  0  0  0  0
  190.7610  170.1330  140.8300 C   0  0  0  0  0  2  0  0  0  0  0  0
  191.4960  169.7780  139.5460 C   0  0  0  0  0  2  0  0  0  0  0  0
  192.9050  170.3480  139.5620 C   0  0  0  0  0  2  0  0  0  0  0  0
  194.6430  171.2610  137.8680 C   0  0  1  0  0  3  0  0  0  0  0  0
  193.6880  170.2870  137.2050 C   0  0  0  0  0  2  0  0  0  0  0  0
  193.1750  171.1850  138.3100 C   0  0  1  0  0  3  0  0  0  0  0  0
  196.6450  171.4670  139.3060 C   0  0  0  0  0  2  0  0  0  0  0  0
  195.6220  170.4990  138.7500 C   0  0  0  0  0  3  0  0  0  0  0  0
  197.0030  170.5840  138.1350 C   0  0  0  0  0  2  0  0  0  0  0  0
  194.3310  175.8100  143.4850 C   0  0  0  0  0  2  0  0  0  0  0  0
  194.6370  174.3300  143.2700 C   0  0  2  0  0  3  0  0  0  0  0  0
  195.6680  173.1180  145.2250 N   0  0  0  0  0  2  0  0  0  0  0  0
  197.0010  174.1960  143.6400 O   0  0  0  0  0  0  0  0  0  0  0  0
  195.8440  173.8960  144.0420 C   0  0  0  0  0  0  0  0  0  0  0  0
  196.7970  172.6210  145.9960 C   0  0  0  0  0  2  0  0  0  0  0  0
  197.0050  171.1430  145.7180 C   0  0  0  0  0  2  0  0  0  0  0  0
  195.7220  170.3750  145.9780 C   0  0  0  0  0  1  0  0  0  0  0  0
  194.3070  172.6720  141.5250 O   0  0  0  0  0  1  0  0  0  0  0  0
  194.7150  173.9820  141.7810 C   0  0  1  0  0  3  0  0  0  0  0  0
  193.9280  174.9700  140.9370 C   0  0  0  0  0  2  0  0  0  0  0  0
  195.8650  174.7140  137.7990 C   0  0  2  0  0  3  0  0  0  0  0  0
  194.8180  175.5210  139.8360 C   0  0  1  0  0  3  0  0  0  0  0  0
  196.2780  175.2640  140.1230 C   0  0  0  0  0  2  0  0  0  0  0  0
  194.5350  174.8240  138.5260 C   0  0  0  0  0  2  0  0  0  0  0  0
  196.9350  175.2060  138.7610 C   0  0  0  0  0  2  0  0  0  0  0  0
  197.1120  176.1080  136.3100 O   0  0  0  0  0  1  0  0  0  0  0  0
  195.8440  175.5770  136.5500 C   0  0  0  0  0  2  0  0  0  0  0  0
  2 15  1  6  0  0  0
  2 11  1  0  0  0  0
  2 10  1  0  0  0  0
  4  1  2  0  0  0  0
  5  4  1  0  0  0  0
  5  6  1  1  0  0  0
  7 39  1  6  0  0  0
  7  8  1  0  0  0  0
  8 14  1  0  0  0  0
  9 12  1  1  0  0  0
  9 11  1  0  0  0  0
  9  5  1  0  0  0  0
 10 13  1  0  0  0  0
 12  7  1  0  0  0  0
 13  4  1  0  0  0  0
 13  3  1  6  0  0  0
 14  6  1  0  0  0  0
 15 16  2  1  0  0  0
 17 15  1  0  0  0  0
 18 19  2  0  0  0  0
 19 17  1  0  0  0  0
 20 19  1  0  0  0  0
 20 21  1  0  0  0  0
 22 21  1  1  0  0  0
 22 25  1  0  0  0  0
 23 22  1  0  0  0  0
 24 23  1  0  0  0  0
 25 30  1  1  0  0  0
 25 26  1  0  0  0  0
 26 28  1  0  0  0  0
 26 29  1  0  0  0  0
 26 27  1  0  0  0  0
 31 32  1  0  0  0  0
 31 30  1  0  0  0  0
 33 35  1  0  0  0  0
 33 37  1  1  0  0  0
 34 33  1  0  0  0  0
 34 35  1  0  0  0  0
 35 32  1  1  0  0  0
 37 36  1  0  0  0  0
 38 37  1  0  0  0  0
 38 36  1  0  0  0  0
 40 39  1  6  0  0  0
 40 43  1  0  0  0  0
 41 44  1  0  0  0  0
 42 43  2  0  0  0  0
 43 41  1  0  0  0  0
 45 46  1  0  0  0  0
 45 44  1  0  0  0  0
 48 47  1  1  0  0  0
 48 40  1  0  0  0  0
 49 48  1  0  0  0  0
 50 56  1  6  0  0  0
 50 53  1  0  0  0  0
 50 54  1  0  0  0  0
 51 52  1  0  0  0  0
 51 49  1  1  0  0  0
 53 51  1  0  0  0  0
 54 52  1  0  0  0  0
 55 56  1  0  0  0  0
M  END
>  <MODEL>
5

>  <REMARK>
 VINA RESULT:      -5.4      2.587      7.817
  Name = 
  23 active torsions:
  status: ('A' for Active; 'I' for Inactive)
    1  A    between atoms: C_1  and  C_15
    2  A    between atoms: C_2  and  C_47
    3  A    between atoms: S_7  and  C_17
    4  A    between atoms: S_7  and  C_51
    5  A    between atoms: C_8  and  C_27
    6  A    between atoms: C_10  and  C_38
    7  A    between atoms: C_10  and  C_40
    8  A    between atoms: C_10  and  C_50
    9  A    between atoms: C_11  and  C_26
   10  A    between atoms: C_12  and  C_22
   11  A    between atoms: C_12  and  C_37
   12  A    between atoms: C_15  and  C_29
   13  A    between atoms: C_15  and  C_31
   14  A    between atoms: C_18  and  C_31
   15  A    between atoms: C_18  and  O_34
   16  A    between atoms: O_23  and  C_31
   17  A    between atoms: C_24  and  C_54
   18  A    between atoms: N_25  and  C_54
   19  A    between atoms: C_26  and  C_50
   20  A    between atoms: C_28  and  O_34
   21  A    between atoms: C_28  and  C_51
   22  A    between atoms: C_29  and  C_37
   23  A    between atoms: C_36  and  C_38
                            x       y       z     vdW  Elec       q    Type
                         _______ _______ _______ _____ _____    ______ ____

>  <TORSDO>
F 23

$$$$
=
 OpenBabel11062421183D

 56 60  0  0  1  0  0  0  0  0999 V2000
  197.8160  174.4920  144.6810 O   0  0  0  0  0  0  0  0  0  0  0  0
  194.9650  171.0200  144.4390 C   0  0  1  0  0  3  0  0  0  0  0  0
  197.1050  171.7550  146.1510 O   0  0  0  0  0  1  0  0  0  0  0  0
  196.8760  173.7240  144.8030 C   0  0  0  0  0  0  0  0  0  0  0  0
  195.4900  174.3120  144.9450 C   0  0  2  0  0  3  0  0  0  0  0  0
  195.2630  174.9920  146.2930 C   0  0  0  0  0  2  0  0  0  0  0  0
  193.0230  175.6750  144.4330 C   0  0  1  0  0  3  0  0  0  0  0  0
  193.1950  176.2450  145.7640 N   0  0  0  0  0  2  0  0  0  0  0  0
  194.3030  173.4670  144.4400 C   0  0  1  0  0  3  0  0  0  0  0  0
  196.3260  171.4370  143.8750 C   0  0  0  0  0  2  0  0  0  0  0  0
  194.2180  172.1360  145.1670 C   0  0  0  0  0  2  0  0  0  0  0  0
  192.9440  174.1570  144.5650 C   0  0  0  0  0  2  0  0  0  0  0  0
  197.1750  172.2520  144.8470 C   0  0  2  0  0  3  0  0  0  0  0  0
  194.6210  176.3600  146.0600 C   0  0  0  0  0  2  0  0  0  0  0  0
  193.9510  170.2910  143.1310 S   0  0  2  0  0  0  0  0  0  0  0  0
  192.6450  169.9210  143.8230 O   0  0  0  0  0  0  0  0  0  0  0  0
  194.7250  168.6920  142.7760 C   0  0  0  0  0  2  0  0  0  0  0  0
  196.7100  168.8500  141.4660 O   0  0  0  0  0  0  0  0  0  0  0  0
  195.4550  168.7260  141.4750 C   0  0  0  0  0  0  0  0  0  0  0  0
  194.7330  168.6630  140.2850 O   0  0  0  0  0  0  0  0  0  0  0  0
  193.4050  168.1670  140.2230 C   0  0  0  0  0  2  0  0  0  0  0  0
  192.6140  169.0270  139.2450 C   0  0  1  0  0  3  0  0  0  0  0  0
  191.4250  169.4380  139.8560 O   0  0  0  0  0  0  0  0  0  0  0  0
  190.4080  168.8220  139.1240 C   0  0  0  0  0  1  0  0  0  0  0  0
  193.3630  170.2570  138.6760 C   0  0  1  0  0  3  0  0  0  0  0  0
  193.1840  170.5340  137.1580 C   0  0  0  0  0  0  0  0  0  0  0  0
  192.1060  171.5780  136.9040 C   0  0  0  0  0  1  0  0  0  0  0  0
  194.4870  171.0360  136.5560 C   0  0  0  0  0  1  0  0  0  0  0  0
  192.8450  169.3550  136.4950 O   0  0  0  0  0  1  0  0  0  0  0  0
  192.9880  171.4970  139.4970 C   0  0  0  0  0  2  0  0  0  0  0  0
  194.2170  172.2420  139.9960 C   0  0  0  0  0  2  0  0  0  0  0  0
  194.1210  173.7200  139.6550 C   0  0  0  0  0  2  0  0  0  0  0  0
  196.2380  175.1560  140.0770 C   0  0  1  0  0  3  0  0  0  0  0  0
  196.5870  173.6870  139.9460 C   0  0  0  0  0  2  0  0  0  0  0  0
  195.4520  174.2510  139.1200 C   0  0  1  0  0  3  0  0  0  0  0  0
  195.0230  176.8170  141.4500 C   0  0  0  0  0  2  0  0  0  0  0  0
  195.5700  175.4060  141.4220 C   0  0  0  0  0  3  0  0  0  0  0  0
  196.3240  176.5000  142.1480 C   0  0  0  0  0  2  0  0  0  0  0  0
  191.7500  176.2170  143.7970 C   0  0  0  0  0  2  0  0  0  0  0  0
  190.6830  175.1280  143.7240 C   0  0  2  0  0  3  0  0  0  0  0  0
  188.9470  174.8050  141.9260 N   0  0  0  0  0  2  0  0  0  0  0  0
  191.2200  174.5440  141.4630 O   0  0  0  0  0  0  0  0  0  0  0  0
  190.3220  174.8000  142.3100 C   0  0  0  0  0  0  0  0  0  0  0  0
  188.5270  174.5440  140.5580 C   0  0  0  0  0  2  0  0  0  0  0  0
  188.3070  173.0550  140.3570 C   0  0  0  0  0  2  0  0  0  0  0  0
  188.9750  172.5950  139.0740 C   0  0  0  0  0  1  0  0  0  0  0  0
  189.3150  174.5800  145.6560 O   0  0  0  0  0  1  0  0  0  0  0  0
  189.4700  175.4720  144.5930 C   0  0  1  0  0  3  0  0  0  0  0  0
  189.5320  176.9050  145.0940 C   0  0  0  0  0  2  0  0  0  0  0  0
  185.9960  176.8790  146.1700 C   0  0  2  0  0  3  0  0  0  0  0  0
  188.1260  177.4770  145.1720 C   0  0  1  0  0  3  0  0  0  0  0  0
  187.2370  176.9130  144.0900 C   0  0  0  0  0  2  0  0  0  0  0  0
  187.4680  177.0930  146.4760 C   0  0  0  0  0  2  0  0  0  0  0  0
  185.8380  176.9860  144.6620 C   0  0  0  0  0  2  0  0  0  0  0  0
  185.5440  179.2130  146.4230 O   0  0  0  0  0  1  0  0  0  0  0  0
  185.1640  177.9450  146.8630 C   0  0  0  0  0  2  0  0  0  0  0  0
  1  4  2  0  0  0  0
  2 15  1  6  0  0  0
  2 11  1  0  0  0  0
  4 13  1  0  0  0  0
  4  5  1  0  0  0  0
  5  6  1  1  0  0  0
  7 39  1  1  0  0  0
  7 12  1  0  0  0  0
  7  8  1  0  0  0  0
  8 14  1  0  0  0  0
  9 12  1  1  0  0  0
  9  5  1  0  0  0  0
  9 11  1  0  0  0  0
 10  2  1  0  0  0  0
 10 13  1  0  0  0  0
 13  3  1  1  0  0  0
 14  6  1  0  0  0  0
 15 16  2  1  0  0  0
 17 15  1  0  0  0  0
 18 19  2  0  0  0  0
 19 17  1  0  0  0  0
 20 19  1  0  0  0  0
 21 20  1  0  0  0  0
 22 23  1  0  0  0  0
 22 21  1  1  0  0  0
 24 23  1  0  0  0  0
 25 22  1  0  0  0  0
 25 30  1  1  0  0  0
 26 25  1  0  0  0  0
 27 26  1  0  0  0  0
 28 26  1  0  0  0  0
 29 26  1  0  0  0  0
 30 31  1  0  0  0  0
 32 31  1  0  0  0  0
 33 37  1  1  0  0  0
 34 33  1  0  0  0  0
 35 32  1  1  0  0  0
 35 34  1  0  0  0  0
 35 33  1  0  0  0  0
 36 38  1  0  0  0  0
 37 36  1  0  0  0  0
 37 38  1  0  0  0  0
 40 39  1  6  0  0  0
 40 48  1  0  0  0  0
 41 43  1  0  0  0  0
 42 43  2  0  0  0  0
 43 40  1  0  0  0  0
 44 41  1  0  0  0  0
 45 44  1  0  0  0  0
 46 45  1  0  0  0  0
 48 49  1  0  0  0  0
 48 47  1  1  0  0  0
 50 53  1  0  0  0  0
 50 56  1  1  0  0  0
 51 49  1  1  0  0  0
 51 53  1  0  0  0  0
 52 54  1  0  0  0  0
 52 51  1  0  0  0  0
 54 50  1  0  0  0  0
 55 56  1  0  0  0  0
M  END
>  <MODEL>
6

>  <REMARK>
 VINA RESULT:      -5.4      2.370      4.256
  Name = 
  23 active torsions:
  status: ('A' for Active; 'I' for Inactive)
    1  A    between atoms: C_1  and  C_15
    2  A    between atoms: C_2  and  C_47
    3  A    between atoms: S_7  and  C_17
    4  A    between atoms: S_7  and  C_51
    5  A    between atoms: C_8  and  C_27
    6  A    between atoms: C_10  and  C_38
    7  A    between atoms: C_10  and  C_40
    8  A    between atoms: C_10  and  C_50
    9  A    between atoms: C_11  and  C_26
   10  A    between atoms: C_12  and  C_22
   11  A    between atoms: C_12  and  C_37
   12  A    between atoms: C_15  and  C_29
   13  A    between atoms: C_15  and  C_31
   14  A    between atoms: C_18  and  C_31
   15  A    between atoms: C_18  and  O_34
   16  A    between atoms: O_23  and  C_31
   17  A    between atoms: C_24  and  C_54
   18  A    between atoms: N_25  and  C_54
   19  A    between atoms: C_26  and  C_50
   20  A    between atoms: C_28  and  O_34
   21  A    between atoms: C_28  and  C_51
   22  A    between atoms: C_29  and  C_37
   23  A    between atoms: C_36  and  C_38
                            x       y       z     vdW  Elec       q    Type
                         _______ _______ _______ _____ _____    ______ ____

>  <TORSDO>
F 23

$$$$
=
 OpenBabel11062421183D

 56 60  0  0  1  0  0  0  0  0999 V2000
  192.2230  170.7810  144.4440 O   0  0  0  0  0  0  0  0  0  0  0  0
  194.3010  173.5260  141.5470 C   0  0  1  0  0  3  0  0  0  0  0  0
  193.8570  170.7280  141.7070 O   0  0  0  0  0  1  0  0  0  0  0  0
  192.5120  171.5290  143.5240 C   0  0  0  0  0  0  0  0  0  0  0  0
  191.4540  172.4870  143.0260 C   0  0  2  0  0  3  0  0  0  0  0  0
  190.3290  171.7920  142.2640 C   0  0  0  0  0  2  0  0  0  0  0  0
  189.5520  174.6210  142.8460 C   0  0  1  0  0  3  0  0  0  0  0  0
  188.6710  173.6300  142.2380 N   0  0  0  0  0  2  0  0  0  0  0  0
  191.9320  173.8140  142.4020 C   0  0  1  0  0  3  0  0  0  0  0  0
  194.6170  172.7440  142.8240 C   0  0  0  0  0  2  0  0  0  0  0  0
  192.8160  173.5740  141.1910 C   0  0  0  0  0  2  0  0  0  0  0  0
  190.8000  174.7520  141.9790 C   0  0  0  0  0  2  0  0  0  0  0  0
  193.8870  171.4070  142.9290 C   0  0  2  0  0  3  0  0  0  0  0  0
  188.9850  172.3090  142.7780 C   0  0  0  0  0  2  0  0  0  0  0  0
  195.0100  175.1860  141.6470 S   0  0  2  0  0  0  0  0  0  0  0  0
  194.0640  176.0550  140.8280 O   0  0  0  0  0  0  0  0  0  0  0  0
  196.5160  175.1140  140.6430 C   0  0  0  0  0  2  0  0  0  0  0  0
  197.3110  172.9000  140.2590 O   0  0  0  0  0  0  0  0  0  0  0  0
  196.5800  173.8460  139.8600 C   0  0  0  0  0  0  0  0  0  0  0  0
  195.8600  173.7430  138.6700 O   0  0  0  0  0  0  0  0  0  0  0  0
  195.4510  172.4980  138.1300 C   0  0  0  0  0  2  0  0  0  0  0  0
  195.1150  172.6970  136.6580 C   0  0  1  0  0  3  0  0  0  0  0  0
  195.7530  171.7060  135.9050 O   0  0  0  0  0  0  0  0  0  0  0  0
  196.8370  171.2970  136.6840 C   0  0  0  0  0  1  0  0  0  0  0  0
  193.6060  172.7280  136.3110 C   0  0  1  0  0  3  0  0  0  0  0  0
  193.0210  174.1050  135.8940 C   0  0  0  0  0  0  0  0  0  0  0  0
  191.7480  173.9450  135.0750 C   0  0  0  0  0  1  0  0  0  0  0  0
  192.6960  174.9350  137.1260 C   0  0  0  0  0  1  0  0  0  0  0  0
  193.9600  174.8160  135.1470 O   0  0  0  0  0  1  0  0  0  0  0  0
  193.3160  171.6720  135.2380 C   0  0  0  0  0  2  0  0  0  0  0  0
  192.6460  170.4370  135.8220 C   0  0  0  0  0  2  0  0  0  0  0  0
  191.2700  170.7830  136.3680 C   0  0  0  0  0  2  0  0  0  0  0  0
  190.0490  170.9660  138.6490 C   0  0  1  0  0  3  0  0  0  0  0  0
  189.6870  169.6790  137.9320 C   0  0  0  0  0  2  0  0  0  0  0  0
  191.0860  170.2360  137.7850 C   0  0  1  0  0  3  0  0  0  0  0  0
  189.7360  173.4190  138.6880 C   0  0  0  0  0  2  0  0  0  0  0  0
  189.3590  172.1410  137.9700 C   0  0  0  0  0  3  0  0  0  0  0  0
  188.3960  172.7760  138.9510 C   0  0  0  0  0  2  0  0  0  0  0  0
  188.8350  175.9610  142.9450 C   0  0  0  0  0  2  0  0  0  0  0  0
  188.1160  176.0840  144.2860 C   0  0  2  0  0  3  0  0  0  0  0  0
  186.3920  177.7750  145.0090 N   0  0  0  0  0  2  0  0  0  0  0  0
  185.9750  176.3180  143.2330 O   0  0  0  0  0  0  0  0  0  0  0  0
  186.7650  176.7100  144.1340 C   0  0  0  0  0  0  0  0  0  0  0  0
  185.1160  178.4620  144.8860 C   0  0  0  0  0  2  0  0  0  0  0  0
  184.4200  178.5090  146.2350 C   0  0  0  0  0  2  0  0  0  0  0  0
  185.4430  178.4590  147.3550 C   0  0  0  0  0  1  0  0  0  0  0  0
  189.1520  176.0080  146.4820 O   0  0  0  0  0  1  0  0  0  0  0  0
  188.9900  176.7810  145.3310 C   0  0  1  0  0  3  0  0  0  0  0  0
  190.3380  177.1790  144.7530 C   0  0  0  0  0  2  0  0  0  0  0  0
  193.6200  175.5400  145.2060 C   0  0  2  0  0  3  0  0  0  0  0  0
  191.4500  176.5600  145.5840 C   0  0  1  0  0  3  0  0  0  0  0  0
  191.2950  175.0620  145.6900 C   0  0  0  0  0  2  0  0  0  0  0  0
  192.7910  176.7820  144.9240 C   0  0  0  0  0  2  0  0  0  0  0  0
  192.7010  174.5410  145.8900 C   0  0  0  0  0  2  0  0  0  0  0  0
  195.7240  174.8590  146.1130 O   0  0  0  0  0  1  0  0  0  0  0  0
  194.7860  175.8920  146.1130 C   0  0  0  0  0  2  0  0  0  0  0  0
  2 15  1  1  0  0  0
  2 10  1  0  0  0  0
  4  1  2  0  0  0  0
  5  6  1  6  0  0  0
  5  4  1  0  0  0  0
  6 14  1  0  0  0  0
  7 39  1  6  0  0  0
  8 14  1  0  0  0  0
  8  7  1  0  0  0  0
  9 11  1  6  0  0  0
  9  5  1  0  0  0  0
 10 13  1  0  0  0  0
 11  2  1  0  0  0  0
 12  9  1  0  0  0  0
 12  7  1  0  0  0  0
 13  3  1  6  0  0  0
 13  4  1  0  0  0  0
 15 16  2  6  0  0  0
 17 15  1  0  0  0  0
 19 18  2  0  0  0  0
 19 17  1  0  0  0  0
 20 19  1  0  0  0  0
 21 20  1  0  0  0  0
 22 21  1  1  0  0  0
 23 22  1  0  0  0  0
 23 24  1  0  0  0  0
 25 30  1  6  0  0  0
 25 22  1  0  0  0  0
 26 25  1  0  0  0  0
 26 28  1  0  0  0  0
 27 26  1  0  0  0  0
 29 26  1  0  0  0  0
 30 31  1  0  0  0  0
 31 32  1  0  0  0  0
 33 37  1  6  0  0  0
 34 33  1  0  0  0  0
 35 32  1  6  0  0  0
 35 34  1  0  0  0  0
 35 33  1  0  0  0  0
 36 38  1  0  0  0  0
 37 36  1  0  0  0  0
 37 38  1  0  0  0  0
 40 39  1  6  0  0  0
 40 48  1  0  0  0  0
 42 43  2  0  0  0  0
 43 40  1  0  0  0  0
 43 41  1  0  0  0  0
 44 41  1  0  0  0  0
 44 45  1  0  0  0  0
 45 46  1  0  0  0  0
 48 47  1  1  0  0  0
 49 48  1  0  0  0  0
 50 54  1  0  0  0  0
 50 56  1  1  0  0  0
 51 49  1  6  0  0  0
 51 52  1  0  0  0  0
 52 54  1  0  0  0  0
 53 50  1  0  0  0  0
 53 51  1  0  0  0  0
 55 56  1  0  0  0  0
M  END
>  <MODEL>
7

>  <REMARK>
 VINA RESULT:      -5.1      2.148      5.866
  Name = 
  23 active torsions:
  status: ('A' for Active; 'I' for Inactive)
    1  A    between atoms: C_1  and  C_15
    2  A    between atoms: C_2  and  C_47
    3  A    between atoms: S_7  and  C_17
    4  A    between atoms: S_7  and  C_51
    5  A    between atoms: C_8  and  C_27
    6  A    between atoms: C_10  and  C_38
    7  A    between atoms: C_10  and  C_40
    8  A    between atoms: C_10  and  C_50
    9  A    between atoms: C_11  and  C_26
   10  A    between atoms: C_12  and  C_22
   11  A    between atoms: C_12  and  C_37
   12  A    between atoms: C_15  and  C_29
   13  A    between atoms: C_15  and  C_31
   14  A    between atoms: C_18  and  C_31
   15  A    between atoms: C_18  and  O_34
   16  A    between atoms: O_23  and  C_31
   17  A    between atoms: C_24  and  C_54
   18  A    between atoms: N_25  and  C_54
   19  A    between atoms: C_26  and  C_50
   20  A    between atoms: C_28  and  O_34
   21  A    between atoms: C_28  and  C_51
   22  A    between atoms: C_29  and  C_37
   23  A    between atoms: C_36  and  C_38
                            x       y       z     vdW  Elec       q    Type
                         _______ _______ _______ _____ _____    ______ ____

>  <TORSDO>
F 23

$$$$
=
 OpenBabel11062421183D

 56 60  0  0  1  0  0  0  0  0999 V2000
  195.3230  176.4790  145.0420 O   0  0  0  0  0  0  0  0  0  0  0  0
  195.1230  172.0450  144.3050 C   0  0  1  0  0  3  0  0  0  0  0  0
  196.4940  173.7230  146.1370 O   0  0  0  0  0  1  0  0  0  0  0  0
  195.0430  175.2910  145.0470 C   0  0  0  0  0  0  0  0  0  0  0  0
  193.5950  174.9020  145.2370 C   0  0  2  0  0  3  0  0  0  0  0  0
  193.0900  175.1490  146.6560 C   0  0  0  0  0  2  0  0  0  0  0  0
  190.7780  174.5450  144.8580 C   0  0  1  0  0  3  0  0  0  0  0  0
  190.6550  174.9480  146.2540 N   0  0  0  0  0  2  0  0  0  0  0  0
  193.1250  173.5750  144.6060 C   0  0  1  0  0  3  0  0  0  0  0  0
  195.9220  173.2590  143.8240 C   0  0  0  0  0  2  0  0  0  0  0  0
  193.9020  172.3920  145.1560 C   0  0  0  0  0  2  0  0  0  0  0  0
  191.6350  173.2850  144.7930 C   0  0  0  0  0  2  0  0  0  0  0  0
  196.1690  174.3050  144.9080 C   0  0  2  0  0  3  0  0  0  0  0  0
  191.7410  175.8670  146.5890 C   0  0  0  0  0  2  0  0  0  0  0  0
  194.6710  171.0050  142.8960 S   0  0  2  0  0  0  0  0  0  0  0  0
  194.7580  169.5810  143.4290 O   0  0  0  0  0  0  0  0  0  0  0  0
  196.0730  171.1290  141.7540 C   0  0  0  0  0  2  0  0  0  0  0  0
  195.0530  169.5580  140.2810 O   0  0  0  0  0  0  0  0  0  0  0  0
  195.7070  170.6290  140.3980 C   0  0  0  0  0  0  0  0  0  0  0  0
  196.1330  171.3350  139.2730 O   0  0  0  0  0  0  0  0  0  0  0  0
  195.9610  170.8450  137.9530 C   0  0  0  0  0  2  0  0  0  0  0  0
  195.3270  171.9440  137.1100 C   0  0  1  0  0  3  0  0  0  0  0  0
  196.0360  172.0680  135.9120 O   0  0  0  0  0  0  0  0  0  0  0  0
  197.3300  171.6370  136.2070 C   0  0  0  0  0  1  0  0  0  0  0  0
  193.8170  171.7740  136.8110 C   0  0  1  0  0  3  0  0  0  0  0  0
  193.3600  170.3680  136.3360 C   0  0  0  0  0  0  0  0  0  0  0  0
  191.8530  170.3090  136.1350 C   0  0  0  0  0  1  0  0  0  0  0  0
  194.0320  170.0110  135.0200 C   0  0  0  0  0  1  0  0  0  0  0  0
  193.7350  169.4040  137.2720 O   0  0  0  0  0  1  0  0  0  0  0  0
  193.0090  172.2180  138.0360 C   0  0  0  0  0  2  0  0  0  0  0  0
  192.5780  173.6740  137.9380 C   0  0  0  0  0  2  0  0  0  0  0  0
  193.4380  174.5470  138.8360 C   0  0  0  0  0  2  0  0  0  0  0  0
  194.5800  174.6310  141.1630 C   0  0  1  0  0  3  0  0  0  0  0  0
  193.0950  174.9190  141.2680 C   0  0  0  0  0  2  0  0  0  0  0  0
  193.5830  173.9320  140.2290 C   0  0  1  0  0  3  0  0  0  0  0  0
  196.7800  175.5520  140.5030 C   0  0  0  0  0  2  0  0  0  0  0  0
  195.2930  175.8340  140.5600 C   0  0  0  0  0  3  0  0  0  0  0  0
  196.2200  176.4260  141.6000 C   0  0  0  0  0  2  0  0  0  0  0  0
  189.3980  174.2770  144.2730 C   0  0  0  0  0  2  0  0  0  0  0  0
  188.9340  175.4630  143.4310 C   0  0  2  0  0  3  0  0  0  0  0  0
  189.6660  174.0230  141.4970 N   0  0  0  0  0  2  0  0  0  0  0  0
  188.1850  175.7990  141.1800 O   0  0  0  0  0  0  0  0  0  0  0  0
  188.8990  175.1280  141.9730 C   0  0  0  0  0  0  0  0  0  0  0  0
  189.6400  173.6110  140.1020 C   0  0  0  0  0  2  0  0  0  0  0  0
  189.7940  172.1030  140.0030 C   0  0  0  0  0  2  0  0  0  0  0  0
  189.3340  171.6180  138.6400 C   0  0  0  0  0  1  0  0  0  0  0  0
  190.7120  176.9790  142.7680 O   0  0  0  0  0  1  0  0  0  0  0  0
  189.7450  176.7240  143.7410 C   0  0  1  0  0  3  0  0  0  0  0  0
  188.8440  177.9310  143.9380 C   0  0  0  0  0  2  0  0  0  0  0  0
  185.9450  178.6280  146.1230 C   0  0  2  0  0  3  0  0  0  0  0  0
  187.6320  177.5320  144.7650 C   0  0  1  0  0  3  0  0  0  0  0  0
  187.9930  177.3380  146.2190 C   0  0  0  0  0  2  0  0  0  0  0  0
  186.5950  178.6300  144.7500 C   0  0  0  0  0  2  0  0  0  0  0  0
  186.7190  177.6360  146.9770 C   0  0  0  0  0  2  0  0  0  0  0  0
  184.0680  178.2970  144.6810 O   0  0  0  0  0  1  0  0  0  0  0  0
  184.4920  178.2020  146.0060 C   0  0  0  0  0  2  0  0  0  0  0  0
  1  4  2  0  0  0  0
  2 15  1  6  0  0  0
  2 11  1  0  0  0  0
  4  5  1  0  0  0  0
  5  6  1  1  0  0  0
  7 39  1  1  0  0  0
  7  8  1  0  0  0  0
  8 14  1  0  0  0  0
  9 12  1  1  0  0  0
  9 11  1  0  0  0  0
  9  5  1  0  0  0  0
 10  2  1  0  0  0  0
 10 13  1  0  0  0  0
 12  7  1  0  0  0  0
 13  4  1  0  0  0  0
 13  3  1  1  0  0  0
 14  6  1  0  0  0  0
 15 16  2  1  0  0  0
 17 15  1  0  0  0  0
 18 19  2  0  0  0  0
 19 17  1  0  0  0  0
 20 19  1  0  0  0  0
 21 20  1  0  0  0  0
 22 21  1  6  0  0  0
 23 24  1  0  0  0  0
 23 22  1  0  0  0  0
 25 22  1  0  0  0  0
 25 30  1  1  0  0  0
 26 25  1  0  0  0  0
 26 29  1  0  0  0  0
 27 26  1  0  0  0  0
 28 26  1  0  0  0  0
 31 30  1  0  0  0  0
 31 32  1  0  0  0  0
 33 37  1  6  0  0  0
 33 34  1  0  0  0  0
 35 32  1  6  0  0  0
 35 33  1  0  0  0  0
 35 34  1  0  0  0  0
 36 37  1  0  0  0  0
 36 38  1  0  0  0  0
 37 38  1  0  0  0  0
 40 48  1  0  0  0  0
 40 39  1  1  0  0  0
 41 43  1  0  0  0  0
 42 43  2  0  0  0  0
 43 40  1  0  0  0  0
 44 41  1  0  0  0  0
 45 44  1  0  0  0  0
 46 45  1  0  0  0  0
 48 47  1  6  0  0  0
 48 49  1  0  0  0  0
 50 56  1  6  0  0  0
 50 54  1  0  0  0  0
 51 49  1  6  0  0  0
 51 52  1  0  0  0  0
 52 54  1  0  0  0  0
 53 51  1  0  0  0  0
 53 50  1  0  0  0  0
 55 56  1  0  0  0  0
M  END
>  <MODEL>
8

>  <REMARK>
 VINA RESULT:      -4.9      2.196      3.807
  Name = 
  23 active torsions:
  status: ('A' for Active; 'I' for Inactive)
    1  A    between atoms: C_1  and  C_15
    2  A    between atoms: C_2  and  C_47
    3  A    between atoms: S_7  and  C_17
    4  A    between atoms: S_7  and  C_51
    5  A    between atoms: C_8  and  C_27
    6  A    between atoms: C_10  and  C_38
    7  A    between atoms: C_10  and  C_40
    8  A    between atoms: C_10  and  C_50
    9  A    between atoms: C_11  and  C_26
   10  A    between atoms: C_12  and  C_22
   11  A    between atoms: C_12  and  C_37
   12  A    between atoms: C_15  and  C_29
   13  A    between atoms: C_15  and  C_31
   14  A    between atoms: C_18  and  C_31
   15  A    between atoms: C_18  and  O_34
   16  A    between atoms: O_23  and  C_31
   17  A    between atoms: C_24  and  C_54
   18  A    between atoms: N_25  and  C_54
   19  A    between atoms: C_26  and  C_50
   20  A    between atoms: C_28  and  O_34
   21  A    between atoms: C_28  and  C_51
   22  A    between atoms: C_29  and  C_37
   23  A    between atoms: C_36  and  C_38
                            x       y       z     vdW  Elec       q    Type
                         _______ _______ _______ _____ _____    ______ ____

>  <TORSDO>
F 23

$$$$
=
 OpenBabel11062421183D

 56 60  0  0  1  0  0  0  0  0999 V2000
  195.1850  176.7480  144.6880 O   0  0  0  0  0  0  0  0  0  0  0  0
  195.1850  172.2490  144.6420 C   0  0  1  0  0  3  0  0  0  0  0  0
  196.4580  174.2480  146.2020 O   0  0  0  0  0  1  0  0  0  0  0  0
  194.9560  175.5650  144.8750 C   0  0  0  0  0  0  0  0  0  0  0  0
  193.5240  175.1450  145.1130 C   0  0  2  0  0  3  0  0  0  0  0  0
  192.9900  175.5840  146.4740 C   0  0  0  0  0  2  0  0  0  0  0  0
  190.7300  174.6100  144.7750 C   0  0  1  0  0  3  0  0  0  0  0  0
  190.5720  175.2160  146.0920 N   0  0  0  0  0  2  0  0  0  0  0  0
  193.1190  173.7170  144.6910 C   0  0  1  0  0  3  0  0  0  0  0  0
  195.9370  173.4100  143.9850 C   0  0  0  0  0  2  0  0  0  0  0  0
  193.9390  172.6680  145.4210 C   0  0  0  0  0  2  0  0  0  0  0  0
  191.6410  173.3940  144.9110 C   0  0  0  0  0  2  0  0  0  0  0  0
  196.1250  174.6200  144.8960 C   0  0  2  0  0  3  0  0  0  0  0  0
  191.6130  176.2230  146.2880 C   0  0  0  0  0  2  0  0  0  0  0  0
  194.7970  170.9870  143.4070 S   0  0  2  0  0  0  0  0  0  0  0  0
  194.8770  169.6700  144.1690 O   0  0  0  0  0  0  0  0  0  0  0  0
  196.2390  170.9450  142.3110 C   0  0  0  0  0  2  0  0  0  0  0  0
  194.6230  170.6190  140.5890 O   0  0  0  0  0  0  0  0  0  0  0  0
  195.8250  170.8650  140.8800 C   0  0  0  0  0  0  0  0  0  0  0  0
  196.7860  171.0210  139.8830 O   0  0  0  0  0  0  0  0  0  0  0  0
  196.4770  171.5340  138.5970 C   0  0  0  0  0  2  0  0  0  0  0  0
  197.1010  172.9180  138.4660 C   0  0  1  0  0  3  0  0  0  0  0  0
  197.4160  173.1520  137.1250 O   0  0  0  0  0  0  0  0  0  0  0  0
  196.9490  172.0300  136.4390 C   0  0  0  0  0  1  0  0  0  0  0  0
  196.2540  174.0910  139.0180 C   0  0  1  0  0  3  0  0  0  0  0  0
  196.9200  174.9710  140.1100 C   0  0  0  0  0  0  0  0  0  0  0  0
  195.8900  175.5340  141.0790 C   0  0  0  0  0  1  0  0  0  0  0  0
  197.9270  174.1550  140.9050 C   0  0  0  0  0  1  0  0  0  0  0  0
  197.6140  176.0250  139.5160 O   0  0  0  0  0  1  0  0  0  0  0  0
  195.7730  174.9570  137.8480 C   0  0  0  0  0  2  0  0  0  0  0  0
  194.2550  174.9870  137.7470 C   0  0  0  0  0  2  0  0  0  0  0  0
  193.7700  173.9970  136.7010 C   0  0  0  0  0  2  0  0  0  0  0  0
  191.8460  172.3170  137.1500 C   0  0  1  0  0  3  0  0  0  0  0  0
  192.9180  171.7030  136.2710 C   0  0  0  0  0  2  0  0  0  0  0  0
  193.3220  172.6860  137.3490 C   0  0  1  0  0  3  0  0  0  0  0  0
  189.8560  173.7880  137.1700 C   0  0  0  0  0  2  0  0  0  0  0  0
  191.0350  173.3220  136.3420 C   0  0  0  0  0  3  0  0  0  0  0  0
  189.6550  172.7490  136.0920 C   0  0  0  0  0  2  0  0  0  0  0  0
  189.3700  174.1930  144.2300 C   0  0  0  0  0  2  0  0  0  0  0  0
  188.9850  175.0610  143.0340 C   0  0  2  0  0  3  0  0  0  0  0  0
  190.4650  173.4650  141.7630 N   0  0  0  0  0  2  0  0  0  0  0  0
  188.9120  174.8080  140.6520 O   0  0  0  0  0  0  0  0  0  0  0  0
  189.4410  174.4590  141.7420 C   0  0  0  0  0  0  0  0  0  0  0  0
  190.9210  172.8020  140.5510 C   0  0  0  0  0  2  0  0  0  0  0  0
  190.0680  171.5760  140.2780 C   0  0  0  0  0  2  0  0  0  0  0  0
  190.9430  170.3400  140.1830 C   0  0  0  0  0  1  0  0  0  0  0  0
  190.7590  176.7030  142.7880 O   0  0  0  0  0  1  0  0  0  0  0  0
  189.4460  176.5100  143.2200 C   0  0  1  0  0  3  0  0  0  0  0  0
  188.5030  177.4850  142.5360 C   0  0  0  0  0  2  0  0  0  0  0  0
  186.5030  177.2570  145.6370 C   0  0  2  0  0  3  0  0  0  0  0  0
  187.4810  177.9930  143.5410 C   0  0  1  0  0  3  0  0  0  0  0  0
  186.1030  177.4450  143.2550 C   0  0  0  0  0  2  0  0  0  0  0  0
  187.8240  177.5180  144.9330 C   0  0  0  0  0  2  0  0  0  0  0  0
  185.4070  177.4300  144.5980 C   0  0  0  0  0  2  0  0  0  0  0  0
  186.0920  177.5750  147.9700 O   0  0  0  0  0  1  0  0  0  0  0  0
  186.3170  178.2500  146.7700 C   0  0  0  0  0  2  0  0  0  0  0  0
  1  4  2  0  0  0  0
  2 15  1  6  0  0  0
  2 11  1  0  0  0  0
  4 13  1  0  0  0  0
  4  5  1  0  0  0  0
  5  6  1  1  0  0  0
  7 39  1  1  0  0  0
  7 12  1  0  0  0  0
  7  8  1  0  0  0  0
  8 14  1  0  0  0  0
  9 12  1  1  0  0  0
  9  5  1  0  0  0  0
  9 11  1  0  0  0  0
 10  2  1  0  0  0  0
 10 13  1  0  0  0  0
 13  3  1  1  0  0  0
 14  6  1  0  0  0  0
 15 16  2  1  0  0  0
 17 15  1  0  0  0  0
 18 19  2  0  0  0  0
 19 17  1  0  0  0  0
 20 19  1  0  0  0  0
 21 20  1  0  0  0  0
 22 21  1  6  0  0  0
 22 25  1  0  0  0  0
 23 22  1  0  0  0  0
 24 23  1  0  0  0  0
 25 30  1  6  0  0  0
 25 26  1  0  0  0  0
 26 28  1  0  0  0  0
 26 27  1  0  0  0  0
 29 26  1  0  0  0  0
 31 30  1  0  0  0  0
 32 31  1  0  0  0  0
 33 37  1  6  0  0  0
 33 35  1  0  0  0  0
 34 33  1  0  0  0  0
 34 35  1  0  0  0  0
 35 32  1  6  0  0  0
 37 36  1  0  0  0  0
 38 37  1  0  0  0  0
 38 36  1  0  0  0  0
 40 48  1  0  0  0  0
 40 39  1  1  0  0  0
 42 43  2  0  0  0  0
 43 41  1  0  0  0  0
 43 40  1  0  0  0  0
 44 41  1  0  0  0  0
 45 44  1  0  0  0  0
 46 45  1  0  0  0  0
 48 47  1  6  0  0  0
 49 48  1  0  0  0  0
 50 56  1  1  0  0  0
 51 49  1  6  0  0  0
 51 53  1  0  0  0  0
 52 51  1  0  0  0  0
 52 54  1  0  0  0  0
 53 50  1  0  0  0  0
 54 50  1  0  0  0  0
 56 55  1  0  0  0  0
M  END
>  <MODEL>
9

>  <REMARK>
 VINA RESULT:      -4.8      2.068      4.904
  Name = 
  23 active torsions:
  status: ('A' for Active; 'I' for Inactive)
    1  A    between atoms: C_1  and  C_15
    2  A    between atoms: C_2  and  C_47
    3  A    between atoms: S_7  and  C_17
    4  A    between atoms: S_7  and  C_51
    5  A    between atoms: C_8  and  C_27
    6  A    between atoms: C_10  and  C_38
    7  A    between atoms: C_10  and  C_40
    8  A    between atoms: C_10  and  C_50
    9  A    between atoms: C_11  and  C_26
   10  A    between atoms: C_12  and  C_22
   11  A    between atoms: C_12  and  C_37
   12  A    between atoms: C_15  and  C_29
   13  A    between atoms: C_15  and  C_31
   14  A    between atoms: C_18  and  C_31
   15  A    between atoms: C_18  and  O_34
   16  A    between atoms: O_23  and  C_31
   17  A    between atoms: C_24  and  C_54
   18  A    between atoms: N_25  and  C_54
   19  A    between atoms: C_26  and  C_50
   20  A    between atoms: C_28  and  O_34
   21  A    between atoms: C_28  and  C_51
   22  A    between atoms: C_29  and  C_37
   23  A    between atoms: C_36  and  C_38
                            x       y       z     vdW  Elec       q    Type
                         _______ _______ _______ _____ _____    ______ ____

>  <TORSDO>
F 23

$$$$
