=
 OpenBabel11062418563D

 33 35  0  0  1  0  0  0  0  0999 V2000
  189.6700  176.4560  146.7910 C   0  0  0  0  0  0  0  0  0  0  0  0
  189.2770  174.1650  141.1160 C   0  0  2  0  0  3  0  0  0  0  0  0
  188.0160  175.4950  142.7880 C   0  0  0  0  0  3  0  0  0  0  0  0
  186.4910  177.2780  142.1850 C   0  0  0  0  0  0  0  0  0  0  0  0
  185.5050  178.3180  142.6470 C   0  0  0  0  0  2  0  0  0  0  0  0
  187.1510  176.5180  143.1590 C   0  0  0  0  0  0  0  0  0  0  0  0
  186.7110  176.9980  140.8230 C   0  0  0  0  0  0  0  0  0  0  0  0
  187.0440  176.8650  144.5360 N   0  0  0  0  0  0  0  0  0  0  0  0
  190.9480  175.2250  143.4160 O   0  0  0  0  0  0  0  0  0  0  0  0
  191.4560  174.4660  142.3510 C   0  0  1  0  0  3  0  0  0  0  0  0
  186.4780  177.9600  144.9540 C   0  0  0  0  0  0  0  0  0  0  0  0
  188.2520  175.2130  141.4450 C   0  0  0  0  0  0  0  0  0  0  0  0
  190.6810  174.7600  141.0710 C   0  0  0  0  0  2  0  0  0  0  0  0
  191.5630  175.2520  145.7400 C   0  0  0  0  0  2  0  0  0  0  0  0
  186.5880  178.3190  146.3370 N   0  0  0  0  0  2  0  0  0  0  0  0
  185.9420  178.9680  143.9680 C   0  0  0  0  0  2  0  0  0  0  0  0
  190.7650  176.4170  145.9250 O   0  0  0  0  0  0  0  0  0  0  0  0
  186.9300  176.2950  147.4400 O   0  0  0  0  0  1  0  0  0  0  0  0
  186.0270  177.7720  139.7500 C   0  0  0  0  0  1  0  0  0  0  0  0
  187.4570  177.5760  147.2480 C   0  0  1  0  0  3  0  0  0  0  0  0
  187.6090  175.9820  140.4600 C   0  0  0  0  0  3  0  0  0  0  0  0
  189.4900  175.5410  147.6410 O   0  0  0  0  0  0  0  0  0  0  0  0
  191.0600  174.4190  144.5600 C   0  0  1  0  0  3  0  0  0  0  0  0
  188.7690  177.5210  146.6770 O   0  0  0  0  0  0  0  0  0  0  0  0
  189.6660  173.6620  138.6900 O   0  0  0  0  0  0  0  0  0  0  0  0
  188.9640  173.4100  139.8620 C   0  0  0  0  0  0  0  0  0  0  0  0
  188.0380  172.5580  139.8630 O   0  0  0  0  0  1  0  0  0  0  0  0
  192.8670  174.8080  142.1320 C   0  0  0  0  0  0  0  0  0  0  0  0
  193.9790  175.0770  141.9580 N   0  0  0  0  0  0  0  0  0  0  0  0
  189.7210  173.7680  144.8830 C   0  0  0  0  0  2  0  0  0  0  0  0
  189.7990  172.2550  144.7500 C   0  0  0  0  0  2  0  0  0  0  0  0
  189.9640  171.1750  142.6560 O   0  0  0  0  0  0  0  0  0  0  0  0
  189.2580  171.7920  143.4360 C   0  0  0  0  0  3  0  0  0  0  0  0
  1 22  2  0  0  0  0
  2 26  1  6  0  0  0
  2 12  1  0  0  0  0
  3  6  1  0  0  0  0
  4  5  1  0  0  0  0
  4  6  2  0  0  0  0
  5 16  1  0  0  0  0
  6  8  1  0  0  0  0
  7  4  1  0  0  0  0
  8 11  2  0  0  0  0
  9 23  1  0  0  0  0
 10 28  1  6  0  0  0
 10  9  1  0  0  0  0
 11 15  1  0  0  0  0
 12  3  2  0  0  0  0
 13  2  1  0  0  0  0
 13 10  1  0  0  0  0
 14 17  1  0  0  0  0
 15 20  1  0  0  0  0
 16 11  1  0  0  0  0
 17  1  1  0  0  0  0
 19  7  1  0  0  0  0
 20 18  1  6  0  0  0
 21  7  2  0  0  0  0
 21 12  1  0  0  0  0
 23 30  1  1  0  0  0
 23 14  1  0  0  0  0
 24  1  1  0  0  0  0
 24 20  1  0  0  0  0
 25 26  2  0  0  0  0
 26 27  1  0  0  0  0
 29 28  3  0  0  0  0
 31 30  1  0  0  0  0
 32 33  2  0  0  0  0
 33 31  1  0  0  0  0
M  END
>  <MODEL>
1

>  <REMARK>
 VINA RESULT:      -6.9      0.000      0.000
  Name = 
  5 active torsions:
  status: ('A' for Active; 'I' for Inactive)
    1  A    between atoms: C_2  and  C_5
    2  A    between atoms: C_7  and  C_14
    3  A    between atoms: C_7  and  C_30
    4  A    between atoms: C_14  and  C_20
    5  A    between atoms: C_15  and  C_23
                            x       y       z     vdW  Elec       q    Type
                         _______ _______ _______ _____ _____    ______ ____

>  <TORSDO>
F 5

$$$$
=
 OpenBabel11062418563D

 33 35  0  0  1  0  0  0  0  0999 V2000
  188.3410  173.9430  141.5830 C   0  0  0  0  0  0  0  0  0  0  0  0
  193.6460  174.2240  144.6480 C   0  0  2  0  0  3  0  0  0  0  0  0
  191.4840  175.4040  144.3540 C   0  0  0  0  0  3  0  0  0  0  0  0
  190.3750  176.6010  146.1450 C   0  0  0  0  0  0  0  0  0  0  0  0
  189.2120  177.4580  146.5720 C   0  0  0  0  0  2  0  0  0  0  0  0
  190.4000  176.1360  144.8240 C   0  0  0  0  0  0  0  0  0  0  0  0
  191.4590  176.3190  146.9970 C   0  0  0  0  0  0  0  0  0  0  0  0
  189.2610  176.2990  143.9820 N   0  0  0  0  0  0  0  0  0  0  0  0
  191.4930  172.6010  143.2570 O   0  0  0  0  0  0  0  0  0  0  0  0
  192.7830  172.1270  143.5430 C   0  0  1  0  0  3  0  0  0  0  0  0
  188.1120  176.7290  144.4140 C   0  0  0  0  0  0  0  0  0  0  0  0
  192.5580  175.1080  145.1890 C   0  0  0  0  0  0  0  0  0  0  0  0
  193.3040  172.7500  144.8340 C   0  0  0  0  0  2  0  0  0  0  0  0
  190.0590  172.1700  141.3760 C   0  0  0  0  0  2  0  0  0  0  0  0
  186.9750  176.6760  143.5420 N   0  0  0  0  0  2  0  0  0  0  0  0
  187.9090  177.0350  145.8770 C   0  0  0  0  0  2  0  0  0  0  0  0
  188.9850  172.8020  142.0660 O   0  0  0  0  0  0  0  0  0  0  0  0
  187.8810  176.7200  141.3970 O   0  0  0  0  0  1  0  0  0  0  0  0
  191.4820  176.7970  148.4080 C   0  0  0  0  0  1  0  0  0  0  0  0
  187.0390  175.9980  142.2490 C   0  0  1  0  0  3  0  0  0  0  0  0
  192.5340  175.5540  146.5220 C   0  0  0  0  0  3  0  0  0  0  0  0
  188.5100  174.3210  140.3910 O   0  0  0  0  0  0  0  0  0  0  0  0
  191.4120  172.6960  141.8590 C   0  0  1  0  0  3  0  0  0  0  0  0
  187.5260  174.6680  142.4600 O   0  0  0  0  0  0  0  0  0  0  0  0
  195.5940  175.7740  144.9540 O   0  0  0  0  0  0  0  0  0  0  0  0
  194.9970  174.5450  145.2070 C   0  0  0  0  0  0  0  0  0  0  0  0
  195.6080  173.6850  145.8910 O   0  0  0  0  0  1  0  0  0  0  0  0
  192.7470  170.6690  143.7080 C   0  0  0  0  0  0  0  0  0  0  0  0
  192.7190  169.5200  143.8380 N   0  0  0  0  0  0  0  0  0  0  0  0
  191.6280  174.1370  141.4130 C   0  0  0  0  0  2  0  0  0  0  0  0
  192.8180  174.2490  140.4720 C   0  0  0  0  0  2  0  0  0  0  0  0
  193.7850  176.0310  141.6830 O   0  0  0  0  0  0  0  0  0  0  0  0
  193.9600  174.9650  141.1170 C   0  0  0  0  0  3  0  0  0  0  0  0
  1 17  1  0  0  0  0
  1 24  1  0  0  0  0
  2 13  1  0  0  0  0
  2 12  1  0  0  0  0
  2 26  1  1  0  0  0
  3  6  2  0  0  0  0
  3 12  1  0  0  0  0
  4  5  1  0  0  0  0
  4  7  2  0  0  0  0
  6  4  1  0  0  0  0
  7 19  1  0  0  0  0
  8 11  2  0  0  0  0
  8  6  1  0  0  0  0
  9 10  1  0  0  0  0
 10 28  1  1  0  0  0
 10 13  1  0  0  0  0
 11 16  1  0  0  0  0
 12 21  2  0  0  0  0
 14 23  1  0  0  0  0
 14 17  1  0  0  0  0
 15 11  1  0  0  0  0
 16  5  1  0  0  0  0
 20 18  1  6  0  0  0
 20 24  1  0  0  0  0
 20 15  1  0  0  0  0
 21  7  1  0  0  0  0
 22  1  2  0  0  0  0
 23 30  1  1  0  0  0
 23  9  1  0  0  0  0
 25 26  2  0  0  0  0
 26 27  1  0  0  0  0
 28 29  3  0  0  0  0
 31 33  1  0  0  0  0
 31 30  1  0  0  0  0
 33 32  2  0  0  0  0
M  END
>  <MODEL>
2

>  <REMARK>
 VINA RESULT:      -6.7      2.750      5.849
  Name = 
  5 active torsions:
  status: ('A' for Active; 'I' for Inactive)
    1  A    between atoms: C_2  and  C_5
    2  A    between atoms: C_7  and  C_14
    3  A    between atoms: C_7  and  C_30
    4  A    between atoms: C_14  and  C_20
    5  A    between atoms: C_15  and  C_23
                            x       y       z     vdW  Elec       q    Type
                         _______ _______ _______ _____ _____    ______ ____

>  <TORSDO>
F 5

$$$$
=
 OpenBabel11062418563D

 33 35  0  0  1  0  0  0  0  0999 V2000
  187.3380  177.9200  147.2370 C   0  0  0  0  0  0  0  0  0  0  0  0
  189.8670  174.9630  142.4970 C   0  0  2  0  0  3  0  0  0  0  0  0
  187.7520  176.0150  143.2510 C   0  0  0  0  0  3  0  0  0  0  0  0
  186.2220  177.1400  141.7460 C   0  0  0  0  0  0  0  0  0  0  0  0
  184.9130  177.8630  141.5710 C   0  0  0  0  0  2  0  0  0  0  0  0
  186.5900  176.7490  143.0400 C   0  0  0  0  0  0  0  0  0  0  0  0
  187.0410  176.7840  140.6580 C   0  0  0  0  0  0  0  0  0  0  0  0
  185.8490  177.2070  144.1680 N   0  0  0  0  0  0  0  0  0  0  0  0
  190.1400  176.7610  144.9250 O   0  0  0  0  0  0  0  0  0  0  0  0
  191.2070  176.0810  144.3190 C   0  0  1  0  0  3  0  0  0  0  0  0
  184.9140  178.1080  144.0880 C   0  0  0  0  0  0  0  0  0  0  0  0
  188.5760  175.6640  142.1860 C   0  0  0  0  0  0  0  0  0  0  0  0
  190.9760  175.9600  142.8160 C   0  0  0  0  0  2  0  0  0  0  0  0
  189.7260  177.2590  147.2410 C   0  0  0  0  0  2  0  0  0  0  0  0
  184.3590  178.6460  145.2960 N   0  0  0  0  0  2  0  0  0  0  0  0
  184.6000  178.7700  142.7700 C   0  0  0  0  0  2  0  0  0  0  0  0
  188.6650  178.1250  146.8510 O   0  0  0  0  0  0  0  0  0  0  0  0
  184.7020  176.9810  146.8880 O   0  0  0  0  0  1  0  0  0  0  0  0
  186.6880  177.1690  139.2620 C   0  0  0  0  0  1  0  0  0  0  0  0
  184.9320  178.3300  146.6020 C   0  0  1  0  0  3  0  0  0  0  0  0
  188.2250  176.0680  140.8860 C   0  0  0  0  0  3  0  0  0  0  0  0
  187.0560  177.1020  148.1560 O   0  0  0  0  0  0  0  0  0  0  0  0
  189.9680  176.1750  146.1880 C   0  0  1  0  0  3  0  0  0  0  0  0
  186.3330  178.6240  146.5640 O   0  0  0  0  0  0  0  0  0  0  0  0
  191.4450  174.2270  140.6910 O   0  0  0  0  0  0  0  0  0  0  0  0
  190.2880  174.0030  141.4280 C   0  0  0  0  0  0  0  0  0  0  0  0
  189.5730  172.9990  141.1750 O   0  0  0  0  0  1  0  0  0  0  0  0
  192.4540  176.8210  144.5420 C   0  0  0  0  0  0  0  0  0  0  0  0
  193.4380  177.4050  144.7170 N   0  0  0  0  0  0  0  0  0  0  0  0
  188.8160  175.1780  146.1570 C   0  0  0  0  0  2  0  0  0  0  0  0
  189.2910  173.7780  146.5170 C   0  0  0  0  0  2  0  0  0  0  0  0
  189.3170  172.0240  144.9360 O   0  0  0  0  0  0  0  0  0  0  0  0
  189.8320  173.0600  145.3240 C   0  0  0  0  0  3  0  0  0  0  0  0
  1 22  2  0  0  0  0
  2 26  1  6  0  0  0
  2 13  1  0  0  0  0
  4  6  2  0  0  0  0
  5  4  1  0  0  0  0
  5 16  1  0  0  0  0
  6  3  1  0  0  0  0
  6  8  1  0  0  0  0
  7 21  2  0  0  0  0
  7  4  1  0  0  0  0
  9 23  1  0  0  0  0
 10 28  1  6  0  0  0
 10  9  1  0  0  0  0
 11  8  2  0  0  0  0
 11 15  1  0  0  0  0
 12  2  1  0  0  0  0
 12  3  2  0  0  0  0
 13 10  1  0  0  0  0
 15 20  1  0  0  0  0
 16 11  1  0  0  0  0
 17  1  1  0  0  0  0
 17 14  1  0  0  0  0
 19  7  1  0  0  0  0
 20 18  1  6  0  0  0
 21 12  1  0  0  0  0
 23 30  1  6  0  0  0
 23 14  1  0  0  0  0
 24 20  1  0  0  0  0
 24  1  1  0  0  0  0
 25 26  2  0  0  0  0
 27 26  1  0  0  0  0
 28 29  3  0  0  0  0
 30 31  1  0  0  0  0
 32 33  2  0  0  0  0
 33 31  1  0  0  0  0
M  END
>  <MODEL>
3

>  <REMARK>
 VINA RESULT:      -6.3      1.669      2.218
  Name = 
  5 active torsions:
  status: ('A' for Active; 'I' for Inactive)
    1  A    between atoms: C_2  and  C_5
    2  A    between atoms: C_7  and  C_14
    3  A    between atoms: C_7  and  C_30
    4  A    between atoms: C_14  and  C_20
    5  A    between atoms: C_15  and  C_23
                            x       y       z     vdW  Elec       q    Type
                         _______ _______ _______ _____ _____    ______ ____

>  <TORSDO>
F 5

$$$$
=
 OpenBabel11062418563D

 33 35  0  0  1  0  0  0  0  0999 V2000
  194.9320  176.2340  145.4420 C   0  0  0  0  0  0  0  0  0  0  0  0
  189.7510  174.4410  142.6940 C   0  0  2  0  0  3  0  0  0  0  0  0
  192.2170  174.4290  142.4320 C   0  0  0  0  0  3  0  0  0  0  0  0
  193.4260  172.6280  141.3520 C   0  0  0  0  0  0  0  0  0  0  0  0
  194.7510  172.0860  140.8860 C   0  0  0  0  0  2  0  0  0  0  0  0
  193.4180  173.8460  142.0440 C   0  0  0  0  0  0  0  0  0  0  0  0
  192.2040  171.9950  141.0530 C   0  0  0  0  0  0  0  0  0  0  0  0
  194.6420  174.4390  142.4680 N   0  0  0  0  0  0  0  0  0  0  0  0
  191.2980  175.1010  145.2190 O   0  0  0  0  0  0  0  0  0  0  0  0
  189.8980  175.0330  145.1420 C   0  0  1  0  0  3  0  0  0  0  0  0
  195.7920  173.8370  142.3860 C   0  0  0  0  0  0  0  0  0  0  0  0
  191.0020  173.8100  142.1530 C   0  0  0  0  0  0  0  0  0  0  0  0
  189.4730  173.9830  144.1220 C   0  0  0  0  0  2  0  0  0  0  0  0
  192.7170  176.5540  146.5060 C   0  0  0  0  0  2  0  0  0  0  0  0
  196.9370  174.4300  143.0140 N   0  0  0  0  0  2  0  0  0  0  0  0
  195.8800  172.4220  141.8720 C   0  0  0  0  0  2  0  0  0  0  0  0
  193.8380  175.7460  146.1590 O   0  0  0  0  0  0  0  0  0  0  0  0
  196.4400  176.7040  143.1050 O   0  0  0  0  0  1  0  0  0  0  0  0
  192.1600  170.7030  140.3130 C   0  0  0  0  0  1  0  0  0  0  0  0
  196.8080  175.6000  143.8810 C   0  0  1  0  0  3  0  0  0  0  0  0
  191.0000  172.5780  141.4760 C   0  0  0  0  0  3  0  0  0  0  0  0
  195.0960  177.4760  145.2880 O   0  0  0  0  0  0  0  0  0  0  0  0
  191.6130  176.4490  145.4520 C   0  0  1  0  0  3  0  0  0  0  0  0
  195.8250  175.3130  144.8820 O   0  0  0  0  0  0  0  0  0  0  0  0
  187.6620  173.2030  142.0650 O   0  0  0  0  0  1  0  0  0  0  0  0
  188.5600  174.2330  141.8120 C   0  0  0  0  0  0  0  0  0  0  0  0
  188.3840  174.9820  140.8160 O   0  0  0  0  0  0  0  0  0  0  0  0
  189.3500  174.6630  146.4510 C   0  0  0  0  0  0  0  0  0  0  0  0
  188.9180  174.3700  147.4840 N   0  0  0  0  0  0  0  0  0  0  0  0
  192.0320  177.1270  144.1530 C   0  0  0  0  0  2  0  0  0  0  0  0
  191.1020  178.2820  143.8130 C   0  0  0  0  0  2  0  0  0  0  0  0
  188.9220  177.8460  143.0160 O   0  0  0  0  0  0  0  0  0  0  0  0
  190.1140  177.8970  142.7610 C   0  0  0  0  0  3  0  0  0  0  0  0
  1 17  1  0  0  0  0
  2 26  1  6  0  0  0
  2 13  1  0  0  0  0
  4  6  1  0  0  0  0
  5  4  1  0  0  0  0
  5 16  1  0  0  0  0
  6  3  2  0  0  0  0
  6  8  1  0  0  0  0
  7  4  2  0  0  0  0
  7 21  1  0  0  0  0
  9 23  1  0  0  0  0
 10  9  1  0  0  0  0
 10 28  1  1  0  0  0
 11  8  2  0  0  0  0
 11 15  1  0  0  0  0
 12  3  1  0  0  0  0
 12  2  1  0  0  0  0
 13 10  1  0  0  0  0
 15 20  1  0  0  0  0
 16 11  1  0  0  0  0
 17 14  1  0  0  0  0
 19  7  1  0  0  0  0
 20 18  1  6  0  0  0
 20 24  1  0  0  0  0
 21 12  2  0  0  0  0
 22  1  2  0  0  0  0
 23 30  1  6  0  0  0
 23 14  1  0  0  0  0
 24  1  1  0  0  0  0
 26 25  1  0  0  0  0
 27 26  2  0  0  0  0
 28 29  3  0  0  0  0
 31 30  1  0  0  0  0
 33 32  2  0  0  0  0
 33 31  1  0  0  0  0
M  END
>  <MODEL>
4

>  <REMARK>
 VINA RESULT:      -6.3      2.995      6.834
  Name = 
  5 active torsions:
  status: ('A' for Active; 'I' for Inactive)
    1  A    between atoms: C_2  and  C_5
    2  A    between atoms: C_7  and  C_14
    3  A    between atoms: C_7  and  C_30
    4  A    between atoms: C_14  and  C_20
    5  A    between atoms: C_15  and  C_23
                            x       y       z     vdW  Elec       q    Type
                         _______ _______ _______ _____ _____    ______ ____

>  <TORSDO>
F 5

$$$$
=
 OpenBabel11062418563D

 33 35  0  0  1  0  0  0  0  0999 V2000
  188.5090  178.0620  143.5790 C   0  0  0  0  0  0  0  0  0  0  0  0
  191.2360  172.8250  141.9240 C   0  0  2  0  0  3  0  0  0  0  0  0
  189.3100  174.2920  141.3820 C   0  0  0  0  0  3  0  0  0  0  0  0
  188.4400  174.5600  139.1370 C   0  0  0  0  0  0  0  0  0  0  0  0
  187.4030  175.1840  138.2420 C   0  0  0  0  0  2  0  0  0  0  0  0
  188.4230  174.8940  140.4970 C   0  0  0  0  0  0  0  0  0  0  0  0
  189.3670  173.6080  138.6700 C   0  0  0  0  0  0  0  0  0  0  0  0
  187.5850  175.9450  140.9690 N   0  0  0  0  0  0  0  0  0  0  0  0
  191.3930  175.6140  143.1070 O   0  0  0  0  0  0  0  0  0  0  0  0
  192.3780  174.6270  143.2700 C   0  0  1  0  0  3  0  0  0  0  0  0
  186.9230  176.7390  140.1790 C   0  0  0  0  0  0  0  0  0  0  0  0
  190.2390  173.3570  140.9340 C   0  0  0  0  0  0  0  0  0  0  0  0
  192.4510  173.7400  142.0310 C   0  0  0  0  0  2  0  0  0  0  0  0
  190.6210  177.3070  144.6300 C   0  0  0  0  0  2  0  0  0  0  0  0
  186.2630  177.8840  140.7330 N   0  0  0  0  0  2  0  0  0  0  0  0
  187.0590  176.6150  138.6820 C   0  0  0  0  0  2  0  0  0  0  0  0
  189.8970  177.9160  143.5650 O   0  0  0  0  0  0  0  0  0  0  0  0
  185.8630  177.3090  142.9550 O   0  0  0  0  0  1  0  0  0  0  0  0
  189.4190  173.2150  137.2350 C   0  0  0  0  0  1  0  0  0  0  0  0
  186.4550  178.2700  142.1300 C   0  0  1  0  0  3  0  0  0  0  0  0
  190.2770  173.0290  139.5670 C   0  0  0  0  0  3  0  0  0  0  0  0
  187.8550  177.8920  144.6450 O   0  0  0  0  0  0  0  0  0  0  0  0
  190.8250  175.8120  144.3750 C   0  0  1  0  0  3  0  0  0  0  0  0
  187.8610  178.3790  142.3790 O   0  0  0  0  0  0  0  0  0  0  0  0
  192.8770  171.1260  141.0800 O   0  0  0  0  0  0  0  0  0  0  0  0
  191.6410  171.4110  141.6480 C   0  0  0  0  0  0  0  0  0  0  0  0
  190.8440  170.4720  141.9080 O   0  0  0  0  0  1  0  0  0  0  0  0
  193.6850  175.2630  143.4670 C   0  0  0  0  0  0  0  0  0  0  0  0
  194.7160  175.7650  143.6230 N   0  0  0  0  0  0  0  0  0  0  0  0
  189.5070  175.0550  144.4890 C   0  0  0  0  0  2  0  0  0  0  0  0
  189.5600  174.0270  145.6090 C   0  0  0  0  0  2  0  0  0  0  0  0
  188.3820  175.4500  147.0810 O   0  0  0  0  0  0  0  0  0  0  0  0
  189.2950  174.6530  146.9400 C   0  0  0  0  0  3  0  0  0  0  0  0
  1 22  2  0  0  0  0
  2 26  1  6  0  0  0
  2 13  1  0  0  0  0
  4  6  1  0  0  0  0
  5 16  1  0  0  0  0
  5  4  1  0  0  0  0
  6  8  1  0  0  0  0
  6  3  2  0  0  0  0
  7  4  2  0  0  0  0
  7 21  1  0  0  0  0
  9 10  1  0  0  0  0
  9 23  1  0  0  0  0
 10 28  1  6  0  0  0
 11 15  1  0  0  0  0
 11  8  2  0  0  0  0
 12  3  1  0  0  0  0
 12  2  1  0  0  0  0
 13 10  1  0  0  0  0
 15 20  1  0  0  0  0
 16 11  1  0  0  0  0
 17  1  1  0  0  0  0
 17 14  1  0  0  0  0
 19  7  1  0  0  0  0
 20 24  1  0  0  0  0
 20 18  1  1  0  0  0
 21 12  2  0  0  0  0
 23 30  1  6  0  0  0
 23 14  1  0  0  0  0
 24  1  1  0  0  0  0
 25 26  2  0  0  0  0
 26 27  1  0  0  0  0
 28 29  3  0  0  0  0
 30 31  1  0  0  0  0
 31 33  1  0  0  0  0
 33 32  2  0  0  0  0
M  END
>  <MODEL>
5

>  <REMARK>
 VINA RESULT:      -6.0      2.286      3.965
  Name = 
  5 active torsions:
  status: ('A' for Active; 'I' for Inactive)
    1  A    between atoms: C_2  and  C_5
    2  A    between atoms: C_7  and  C_14
    3  A    between atoms: C_7  and  C_30
    4  A    between atoms: C_14  and  C_20
    5  A    between atoms: C_15  and  C_23
                            x       y       z     vdW  Elec       q    Type
                         _______ _______ _______ _____ _____    ______ ____

>  <TORSDO>
F 5

$$$$
=
 OpenBabel11062418563D

 33 35  0  0  1  0  0  0  0  0999 V2000
  189.9900  177.7150  143.4320 C   0  0  0  0  0  0  0  0  0  0  0  0
  192.9790  172.3590  143.4220 C   0  0  2  0  0  3  0  0  0  0  0  0
  190.8910  173.4430  142.6350 C   0  0  0  0  0  3  0  0  0  0  0  0
  189.7840  172.8410  140.5660 C   0  0  0  0  0  0  0  0  0  0  0  0
  188.6130  173.0520  139.6420 C   0  0  0  0  0  2  0  0  0  0  0  0
  189.8730  173.6440  141.7110 C   0  0  0  0  0  0  0  0  0  0  0  0
  190.7380  171.8270  140.3580 C   0  0  0  0  0  0  0  0  0  0  0  0
  188.9980  174.7560  141.8780 N   0  0  0  0  0  0  0  0  0  0  0  0
  193.0130  175.3920  143.5090 O   0  0  0  0  0  0  0  0  0  0  0  0
  194.0900  174.5750  143.8890 C   0  0  1  0  0  3  0  0  0  0  0  0
  188.1970  175.1800  140.9450 C   0  0  0  0  0  0  0  0  0  0  0  0
  191.8480  172.4520  142.4380 C   0  0  0  0  0  0  0  0  0  0  0  0
  194.1160  173.3040  143.0470 C   0  0  0  0  0  2  0  0  0  0  0  0
  192.2530  177.4860  144.4140 C   0  0  0  0  0  2  0  0  0  0  0  0
  187.4990  176.4180  141.1330 N   0  0  0  0  0  2  0  0  0  0  0  0
  188.1940  174.5290  139.5850 C   0  0  0  0  0  2  0  0  0  0  0  0
  191.3790  177.6350  143.3000 O   0  0  0  0  0  0  0  0  0  0  0  0
  187.3710  176.6700  143.4450 O   0  0  0  0  0  1  0  0  0  0  0  0
  190.6810  170.9420  139.1610 C   0  0  0  0  0  1  0  0  0  0  0  0
  187.7940  177.2920  142.2670 C   0  0  1  0  0  3  0  0  0  0  0  0
  191.7780  171.6530  141.2830 C   0  0  0  0  0  3  0  0  0  0  0  0
  189.4630  177.9130  144.5610 O   0  0  0  0  0  0  0  0  0  0  0  0
  192.5580  176.0100  144.6840 C   0  0  1  0  0  3  0  0  0  0  0  0
  189.2030  177.5450  142.2870 O   0  0  0  0  0  0  0  0  0  0  0  0
  192.6870  170.0140  144.2620 O   0  0  0  0  0  1  0  0  0  0  0  0
  193.4740  170.9610  143.6180 C   0  0  0  0  0  0  0  0  0  0  0  0
  194.6250  170.6460  143.2200 O   0  0  0  0  0  0  0  0  0  0  0  0
  195.3510  175.2970  143.6860 C   0  0  0  0  0  0  0  0  0  0  0  0
  196.3460  175.8660  143.5250 N   0  0  0  0  0  0  0  0  0  0  0  0
  191.3270  175.2890  145.2200 C   0  0  0  0  0  2  0  0  0  0  0  0
  191.3090  175.2900  146.7410 C   0  0  0  0  0  2  0  0  0  0  0  0
  189.1340  174.5410  147.2760 O   0  0  0  0  0  0  0  0  0  0  0  0
  189.9240  175.4710  147.2720 C   0  0  0  0  0  3  0  0  0  0  0  0
  1 22  2  0  0  0  0
  2 26  1  6  0  0  0
  4  6  1  0  0  0  0
  5  4  1  0  0  0  0
  6  8  1  0  0  0  0
  6  3  2  0  0  0  0
  7  4  2  0  0  0  0
  7 21  1  0  0  0  0
  9 10  1  0  0  0  0
  9 23  1  0  0  0  0
 10 28  1  6  0  0  0
 11 15  1  0  0  0  0
 11  8  2  0  0  0  0
 12  3  1  0  0  0  0
 12  2  1  0  0  0  0
 13  2  1  0  0  0  0
 13 10  1  0  0  0  0
 14 23  1  0  0  0  0
 15 20  1  0  0  0  0
 16  5  1  0  0  0  0
 16 11  1  0  0  0  0
 17  1  1  0  0  0  0
 17 14  1  0  0  0  0
 19  7  1  0  0  0  0
 20 24  1  0  0  0  0
 20 18  1  1  0  0  0
 21 12  2  0  0  0  0
 23 30  1  6  0  0  0
 24  1  1  0  0  0  0
 26 25  1  0  0  0  0
 27 26  2  0  0  0  0
 29 28  3  0  0  0  0
 30 31  1  0  0  0  0
 31 33  1  0  0  0  0
 33 32  2  0  0  0  0
M  END
>  <MODEL>
6

>  <REMARK>
 VINA RESULT:      -6.0      2.663      4.964
  Name = 
  5 active torsions:
  status: ('A' for Active; 'I' for Inactive)
    1  A    between atoms: C_2  and  C_5
    2  A    between atoms: C_7  and  C_14
    3  A    between atoms: C_7  and  C_30
    4  A    between atoms: C_14  and  C_20
    5  A    between atoms: C_15  and  C_23
                            x       y       z     vdW  Elec       q    Type
                         _______ _______ _______ _____ _____    ______ ____

>  <TORSDO>
F 5

$$$$
=
 OpenBabel11062418563D

 33 35  0  0  1  0  0  0  0  0999 V2000
  187.0680  176.0560  140.9660 C   0  0  0  0  0  0  0  0  0  0  0  0
  189.8530  176.0730  146.4310 C   0  0  2  0  0  3  0  0  0  0  0  0
  188.1140  177.2500  145.1100 C   0  0  0  0  0  3  0  0  0  0  0  0
  186.1360  178.2340  146.1040 C   0  0  0  0  0  0  0  0  0  0  0  0
  184.8700  179.0240  145.9010 C   0  0  0  0  0  2  0  0  0  0  0  0
  186.9000  177.9140  144.9750 C   0  0  0  0  0  0  0  0  0  0  0  0
  186.6060  177.8750  147.3820 C   0  0  0  0  0  0  0  0  0  0  0  0
  186.3860  178.1510  143.6670 N   0  0  0  0  0  0  0  0  0  0  0  0
  188.9070  174.5810  143.9640 O   0  0  0  0  0  0  0  0  0  0  0  0
  189.8680  174.0960  144.8640 C   0  0  1  0  0  3  0  0  0  0  0  0
  185.1590  178.5180  143.4400 C   0  0  0  0  0  0  0  0  0  0  0  0
  188.5870  176.8790  146.3660 C   0  0  0  0  0  0  0  0  0  0  0  0
  189.5670  174.5830  146.2770 C   0  0  0  0  0  2  0  0  0  0  0  0
  188.7450  174.3370  141.5780 C   0  0  0  0  0  2  0  0  0  0  0  0
  184.6770  178.5440  142.0900 N   0  0  0  0  0  2  0  0  0  0  0  0
  184.1800  178.6620  144.5780 C   0  0  0  0  0  2  0  0  0  0  0  0
  187.4280  174.8780  141.6240 O   0  0  0  0  0  0  0  0  0  0  0  0
  186.5900  178.8300  140.7930 O   0  0  0  0  0  1  0  0  0  0  0  0
  185.8330  178.1990  148.6130 C   0  0  0  0  0  1  0  0  0  0  0  0
  185.4750  178.0100  140.9880 C   0  0  1  0  0  3  0  0  0  0  0  0
  187.8180  177.1790  147.5040 C   0  0  0  0  0  3  0  0  0  0  0  0
  187.8270  176.5610  140.0930 O   0  0  0  0  0  0  0  0  0  0  0  0
  189.5850  174.8260  142.7600 C   0  0  1  0  0  3  0  0  0  0  0  0
  185.8610  176.6710  141.3170 O   0  0  0  0  0  0  0  0  0  0  0  0
  190.9020  177.6550  148.0710 O   0  0  0  0  0  0  0  0  0  0  0  0
  190.6640  176.3490  147.6580 C   0  0  0  0  0  0  0  0  0  0  0  0
  191.1570  175.3910  148.3080 O   0  0  0  0  0  1  0  0  0  0  0  0
  189.8500  172.6290  144.8610 C   0  0  0  0  0  0  0  0  0  0  0  0
  189.8360  171.4720  144.8580 N   0  0  0  0  0  0  0  0  0  0  0  0
  189.9070  176.3090  142.6250 C   0  0  0  0  0  2  0  0  0  0  0  0
  191.4000  176.5620  142.7650 C   0  0  0  0  0  2  0  0  0  0  0  0
  190.9700  178.6780  143.7200 O   0  0  0  0  0  0  0  0  0  0  0  0
  191.6790  177.6860  143.7090 C   0  0  0  0  0  3  0  0  0  0  0  0
  1 24  1  0  0  0  0
  1 17  1  0  0  0  0
  2 26  1  1  0  0  0
  3 12  1  0  0  0  0
  4  7  2  0  0  0  0
  5  4  1  0  0  0  0
  6  3  2  0  0  0  0
  6  4  1  0  0  0  0
  7 21  1  0  0  0  0
  7 19  1  0  0  0  0
  8  6  1  0  0  0  0
  9 10  1  0  0  0  0
 10 28  1  1  0  0  0
 10 13  1  0  0  0  0
 11  8  2  0  0  0  0
 11 16  1  0  0  0  0
 12  2  1  0  0  0  0
 12 21  2  0  0  0  0
 13  2  1  0  0  0  0
 14 17  1  0  0  0  0
 14 23  1  0  0  0  0
 15 11  1  0  0  0  0
 16  5  1  0  0  0  0
 20 18  1  1  0  0  0
 20 24  1  0  0  0  0
 20 15  1  0  0  0  0
 22  1  2  0  0  0  0
 23 30  1  6  0  0  0
 23  9  1  0  0  0  0
 26 25  2  0  0  0  0
 26 27  1  0  0  0  0
 29 28  3  0  0  0  0
 30 31  1  0  0  0  0
 31 33  1  0  0  0  0
 33 32  2  0  0  0  0
M  END
>  <MODEL>
7

>  <REMARK>
 VINA RESULT:      -5.9      2.553      5.797
  Name = 
  5 active torsions:
  status: ('A' for Active; 'I' for Inactive)
    1  A    between atoms: C_2  and  C_5
    2  A    between atoms: C_7  and  C_14
    3  A    between atoms: C_7  and  C_30
    4  A    between atoms: C_14  and  C_20
    5  A    between atoms: C_15  and  C_23
                            x       y       z     vdW  Elec       q    Type
                         _______ _______ _______ _____ _____    ______ ____

>  <TORSDO>
F 5

$$$$
=
 OpenBabel11062418563D

 33 35  0  0  1  0  0  0  0  0999 V2000
  191.5840  176.4380  146.6790 C   0  0  0  0  0  0  0  0  0  0  0  0
  193.0180  173.1720  141.6900 C   0  0  2  0  0  3  0  0  0  0  0  0
  191.0860  173.9710  143.0240 C   0  0  0  0  0  3  0  0  0  0  0  0
  188.9480  174.5500  142.0420 C   0  0  0  0  0  0  0  0  0  0  0  0
  187.5290  175.0050  142.2630 C   0  0  0  0  0  2  0  0  0  0  0  0
  189.7900  174.4550  143.1580 C   0  0  0  0  0  0  0  0  0  0  0  0
  189.4270  174.1530  140.7790 C   0  0  0  0  0  0  0  0  0  0  0  0
  189.3720  174.9700  144.4200 N   0  0  0  0  0  0  0  0  0  0  0  0
  193.6670  175.3820  143.6650 O   0  0  0  0  0  0  0  0  0  0  0  0
  194.6010  174.7940  142.7980 C   0  0  1  0  0  3  0  0  0  0  0  0
  188.2920  175.6760  144.5790 C   0  0  0  0  0  0  0  0  0  0  0  0
  191.5770  173.5850  141.7800 C   0  0  0  0  0  0  0  0  0  0  0  0
  193.9280  174.3800  141.4940 C   0  0  0  0  0  2  0  0  0  0  0  0
  193.9270  176.1940  145.9130 C   0  0  0  0  0  2  0  0  0  0  0  0
  188.0540  176.3130  145.8410 N   0  0  0  0  0  2  0  0  0  0  0  0
  187.4330  176.0390  143.3940 C   0  0  0  0  0  2  0  0  0  0  0  0
  192.6370  176.7910  145.8330 O   0  0  0  0  0  0  0  0  0  0  0  0
  189.2430  175.0270  147.3770 O   0  0  0  0  0  1  0  0  0  0  0  0
  188.5680  174.2290  139.5650 C   0  0  0  0  0  1  0  0  0  0  0  0
  189.0730  176.3260  146.8890 C   0  0  1  0  0  3  0  0  0  0  0  0
  190.7460  173.6950  140.6510 C   0  0  0  0  0  3  0  0  0  0  0  0
  191.7960  175.7550  147.7180 O   0  0  0  0  0  0  0  0  0  0  0  0
  194.0430  175.0000  144.9620 C   0  0  1  0  0  3  0  0  0  0  0  0
  190.2880  176.8390  146.3310 O   0  0  0  0  0  0  0  0  0  0  0  0
  193.7930  172.4730  139.4090 O   0  0  0  0  0  0  0  0  0  0  0  0
  193.2660  172.1270  140.6470 C   0  0  0  0  0  0  0  0  0  0  0  0
  192.9700  170.9280  140.8850 O   0  0  0  0  0  1  0  0  0  0  0  0
  195.6630  175.7590  142.4900 C   0  0  0  0  0  0  0  0  0  0  0  0
  196.5000  176.5200  142.2480 N   0  0  0  0  0  0  0  0  0  0  0  0
  193.1860  173.8350  145.4410 C   0  0  0  0  0  2  0  0  0  0  0  0
  194.0420  172.6200  145.7620 C   0  0  0  0  0  2  0  0  0  0  0  0
  194.7200  171.1270  144.0620 O   0  0  0  0  0  0  0  0  0  0  0  0
  193.8140  171.5160  144.7820 C   0  0  0  0  0  3  0  0  0  0  0  0
  1 22  2  0  0  0  0
  2 26  1  6  0  0  0
  2 12  1  0  0  0  0
  3  6  1  0  0  0  0
  4  5  1  0  0  0  0
  4  6  2  0  0  0  0
  5 16  1  0  0  0  0
  6  8  1  0  0  0  0
  7  4  1  0  0  0  0
  8 11  2  0  0  0  0
  9 23  1  0  0  0  0
 10 28  1  6  0  0  0
 10  9  1  0  0  0  0
 11 15  1  0  0  0  0
 12  3  2  0  0  0  0
 13  2  1  0  0  0  0
 13 10  1  0  0  0  0
 15 20  1  0  0  0  0
 16 11  1  0  0  0  0
 17 14  1  0  0  0  0
 17  1  1  0  0  0  0
 19  7  1  0  0  0  0
 20 18  1  6  0  0  0
 21  7  2  0  0  0  0
 21 12  1  0  0  0  0
 23 30  1  1  0  0  0
 23 14  1  0  0  0  0
 24  1  1  0  0  0  0
 24 20  1  0  0  0  0
 25 26  2  0  0  0  0
 26 27  1  0  0  0  0
 29 28  3  0  0  0  0
 30 31  1  0  0  0  0
 32 33  2  0  0  0  0
 33 31  1  0  0  0  0
M  END
>  <MODEL>
8

>  <REMARK>
 VINA RESULT:      -5.9      2.395      3.485
  Name = 
  5 active torsions:
  status: ('A' for Active; 'I' for Inactive)
    1  A    between atoms: C_2  and  C_5
    2  A    between atoms: C_7  and  C_14
    3  A    between atoms: C_7  and  C_30
    4  A    between atoms: C_14  and  C_20
    5  A    between atoms: C_15  and  C_23
                            x       y       z     vdW  Elec       q    Type
                         _______ _______ _______ _____ _____    ______ ____

>  <TORSDO>
F 5

$$$$
=
 OpenBabel11062418563D

 33 35  0  0  1  0  0  0  0  0999 V2000
  188.8560  173.6260  139.7600 C   0  0  0  0  0  0  0  0  0  0  0  0
  192.4070  175.4280  144.4240 C   0  0  2  0  0  3  0  0  0  0  0  0
  192.5060  174.5830  142.0940 C   0  0  0  0  0  3  0  0  0  0  0  0
  194.2240  175.2420  140.5180 C   0  0  0  0  0  0  0  0  0  0  0  0
  194.8120  175.0880  139.1400 C   0  0  0  0  0  2  0  0  0  0  0  0
  193.0510  174.5360  140.8160 C   0  0  0  0  0  0  0  0  0  0  0  0
  194.8480  176.0020  141.5260 C   0  0  0  0  0  0  0  0  0  0  0  0
  192.3330  173.8660  139.7840 N   0  0  0  0  0  0  0  0  0  0  0  0
  189.7790  175.5610  142.9130 O   0  0  0  0  0  0  0  0  0  0  0  0
  189.9570  176.0010  144.2340 C   0  0  1  0  0  3  0  0  0  0  0  0
  192.6180  173.9910  138.5210 C   0  0  0  0  0  0  0  0  0  0  0  0
  193.1060  175.3380  143.0980 C   0  0  0  0  0  0  0  0  0  0  0  0
  191.3680  176.5450  144.4270 C   0  0  0  0  0  2  0  0  0  0  0  0
  187.8910  174.5030  141.8660 C   0  0  0  0  0  2  0  0  0  0  0  0
  191.7250  173.4370  137.5460 N   0  0  0  0  0  2  0  0  0  0  0  0
  193.7200  174.9180  138.0730 C   0  0  0  0  0  2  0  0  0  0  0  0
  188.5070  174.6890  140.5960 O   0  0  0  0  0  0  0  0  0  0  0  0
  190.6260  171.7190  138.6700 O   0  0  0  0  0  1  0  0  0  0  0  0
  196.1010  176.7630  141.2600 C   0  0  0  0  0  1  0  0  0  0  0  0
  190.4260  172.8890  137.9300 C   0  0  1  0  0  3  0  0  0  0  0  0
  194.2730  176.0650  142.8030 C   0  0  0  0  0  3  0  0  0  0  0  0
  188.4120  172.4650  139.9780 O   0  0  0  0  0  0  0  0  0  0  0  0
  188.9350  174.4420  142.9840 C   0  0  1  0  0  3  0  0  0  0  0  0
  189.7260  173.8780  138.6930 O   0  0  0  0  0  0  0  0  0  0  0  0
  193.5230  176.7780  146.2200 O   0  0  0  0  0  1  0  0  0  0  0  0
  193.3510  175.5570  145.5790 C   0  0  0  0  0  0  0  0  0  0  0  0
  194.0140  174.5570  145.9550 O   0  0  0  0  0  0  0  0  0  0  0  0
  188.9980  177.0710  144.5310 C   0  0  0  0  0  0  0  0  0  0  0  0
  188.2420  177.9150  144.7650 N   0  0  0  0  0  0  0  0  0  0  0  0
  189.7500  173.1570  142.8990 C   0  0  0  0  0  2  0  0  0  0  0  0
  190.0290  172.5920  144.2830 C   0  0  0  0  0  2  0  0  0  0  0  0
  192.2900  172.0050  144.6350 O   0  0  0  0  0  0  0  0  0  0  0  0
  191.1850  171.6450  144.2640 C   0  0  0  0  0  3  0  0  0  0  0  0
  1 22  2  0  0  0  0
  1 17  1  0  0  0  0
  2 13  1  0  0  0  0
  2 26  1  1  0  0  0
  3 12  1  0  0  0  0
  4  6  1  0  0  0  0
  4  7  2  0  0  0  0
  5  4  1  0  0  0  0
  6  3  2  0  0  0  0
  7 21  1  0  0  0  0
  8  6  1  0  0  0  0
  9 23  1  0  0  0  0
  9 10  1  0  0  0  0
 10 13  1  0  0  0  0
 10 28  1  6  0  0  0
 11  8  2  0  0  0  0
 12  2  1  0  0  0  0
 14 23  1  0  0  0  0
 15 20  1  0  0  0  0
 15 11  1  0  0  0  0
 16 11  1  0  0  0  0
 16  5  1  0  0  0  0
 17 14  1  0  0  0  0
 19  7  1  0  0  0  0
 20 18  1  1  0  0  0
 20 24  1  0  0  0  0
 21 12  2  0  0  0  0
 23 30  1  6  0  0  0
 24  1  1  0  0  0  0
 26 27  2  0  0  0  0
 26 25  1  0  0  0  0
 28 29  3  0  0  0  0
 30 31  1  0  0  0  0
 33 31  1  0  0  0  0
 33 32  2  0  0  0  0
M  END
>  <MODEL>
9

>  <REMARK>
 VINA RESULT:      -5.9      2.615      7.275
  Name = 
  5 active torsions:
  status: ('A' for Active; 'I' for Inactive)
    1  A    between atoms: C_2  and  C_5
    2  A    between atoms: C_7  and  C_14
    3  A    between atoms: C_7  and  C_30
    4  A    between atoms: C_14  and  C_20
    5  A    between atoms: C_15  and  C_23
                            x       y       z     vdW  Elec       q    Type
                         _______ _______ _______ _____ _____    ______ ____

>  <TORSDO>
F 5

$$$$
