=
 OpenBabel11062420373D

 32 38  0  0  1  0  0  0  0  0999 V2000
  186.5540  178.1580  143.2000 N   0  0  0  0  0  2  0  0  0  0  0  0
  188.0170  176.0140  143.2970 C   0  0  1  0  0  3  0  0  0  0  0  0
  189.5860  173.4640  139.9770 C   0  0  0  0  0  2  0  0  0  0  0  0
  187.8570  175.7230  140.9490 C   0  0  0  0  0  0  0  0  0  0  0  0
  188.8580  173.8630  142.3570 C   0  0  0  0  0  3  0  0  0  0  0  0
  187.8160  175.2340  139.7440 N   0  0  0  0  0  0  0  0  0  0  0  0
  187.2800  177.1050  142.5590 C   0  0  0  0  0  0  0  0  0  0  0  0
  187.1950  176.9320  141.2790 N   0  0  0  0  0  0  0  0  0  0  0  0
  188.3470  175.0820  142.1730 C   0  0  0  0  0  0  0  0  0  0  0  0
  189.2330  172.9860  141.2990 N   0  0  0  0  0  2  0  0  0  0  0  0
  188.4270  174.0420  139.3230 N   0  0  0  0  0  2  0  0  0  0  0  0
  195.2640  175.2910  146.1380 N   0  0  0  0  0  2  0  0  0  0  0  0
  193.3950  176.4930  145.1980 C   0  0  1  0  0  3  0  0  0  0  0  0
  194.6430  175.7000  145.0940 C   0  0  0  0  0  0  0  0  0  0  0  0
  193.6600  175.5090  142.9450 C   0  0  0  0  0  3  0  0  0  0  0  0
  192.2810  177.6860  143.2970 C   0  0  0  0  0  2  0  0  0  0  0  0
  192.7220  176.3180  143.8450 C   0  0  2  0  0  0  0  0  0  0  0  0
  189.2850  176.5350  143.9080 C   0  0  0  0  0  0  0  0  0  0  0  0
  192.1790  175.5890  145.0820 C   0  0  2  0  0  3  0  0  0  0  0  0
  191.0120  178.2880  143.8850 C   0  0  0  0  0  2  0  0  0  0  0  0
  190.9780  176.2430  145.7400 C   0  0  1  0  0  3  0  0  0  0  0  0
  194.8560  175.0660  143.7740 C   0  0  0  0  0  3  0  0  0  0  0  0
  189.8240  177.6020  143.3900 N   0  0  0  0  0  0  0  0  0  0  0  0
  189.7980  175.8760  145.0400 O   0  0  0  0  0  0  0  0  0  0  0  0
  190.8790  175.7580  147.1750 C   0  0  0  0  0  2  0  0  0  0  0  0
  189.6320  174.9160  147.3580 C   0  0  0  0  0  1  0  0  0  0  0  0
  184.7970  179.0410  146.2470 C   0  0  0  0  0  2  0  0  0  0  0  0
  185.8090  176.7910  146.5890 C   0  0  0  0  0  2  0  0  0  0  0  0
  185.5590  179.4420  145.0070 C   0  0  0  0  0  2  0  0  0  0  0  0
  184.5720  177.5430  146.1380 C   0  0  2  0  0  3  0  0  0  0  0  0
  185.5700  177.0270  145.1110 C   0  0  1  0  0  3  0  0  0  0  0  0
  186.3720  178.2250  144.6390 C   0  0  1  0  0  3  0  0  0  0  0  0
  1 32  1  0  0  0  0
  2 18  1  6  0  0  0
  3 10  1  0  0  0  0
  4  8  1  0  0  0  0
  4  9  1  0  0  0  0
  6  4  2  0  0  0  0
  7  1  1  0  0  0  0
  7  2  1  0  0  0  0
  8  7  2  0  0  0  0
  9  5  2  0  0  0  0
  9  2  1  0  0  0  0
 10  5  1  0  0  0  0
 11  6  1  0  0  0  0
 11  3  1  0  0  0  0
 13 14  1  6  0  0  0
 14 12  2  0  0  0  0
 15 22  2  0  0  0  0
 16 17  1  0  0  0  0
 16 20  1  0  0  0  0
 17 15  1  6  0  0  0
 17 19  1  0  0  0  0
 17 13  1  0  0  0  0
 18 24  1  0  0  0  0
 19 13  1  0  0  0  0
 19 21  1  0  0  0  0
 21 25  1  0  0  0  0
 22 14  1  0  0  0  0
 23 20  1  0  0  0  0
 23 18  2  0  0  0  0
 24 21  1  0  0  0  0
 25 26  1  0  0  0  0
 29 27  1  0  0  0  0
 30 27  1  0  0  0  0
 30 28  1  0  0  0  0
 31 30  1  0  0  0  0
 31 28  1  0  0  0  0
 32 29  1  0  0  0  0
 32 31  1  0  0  0  0
M  END
>  <MODEL>
1

>  <REMARK>
 VINA RESULT:      -8.8      0.000      0.000
  Name = 
  3 active torsions:
  status: ('A' for Active; 'I' for Inactive)
    1  A    between atoms: N_2  and  C_29
    2  A    between atoms: C_5  and  C_26
    3  A    between atoms: C_7  and  C_15
                            x       y       z     vdW  Elec       q    Type
                         _______ _______ _______ _____ _____    ______ ____

>  <TORSDO>
F 3

$$$$
=
 OpenBabel11062420373D

 32 38  0  0  1  0  0  0  0  0999 V2000
  186.8880  176.8870  143.1980 N   0  0  0  0  0  2  0  0  0  0  0  0
  188.6000  174.9550  142.9130 C   0  0  1  0  0  3  0  0  0  0  0  0
  190.1860  173.0590  139.1880 C   0  0  0  0  0  2  0  0  0  0  0  0
  188.2840  174.9380  140.5620 C   0  0  0  0  0  0  0  0  0  0  0  0
  189.6130  173.0630  141.6430 C   0  0  0  0  0  3  0  0  0  0  0  0
  188.2040  174.6000  139.3090 N   0  0  0  0  0  0  0  0  0  0  0  0
  187.6790  176.0240  142.3770 C   0  0  0  0  0  0  0  0  0  0  0  0
  187.5120  176.0010  141.0930 N   0  0  0  0  0  0  0  0  0  0  0  0
  188.9460  174.2200  141.6550 C   0  0  0  0  0  0  0  0  0  0  0  0
  190.0020  172.3800  140.4550 N   0  0  0  0  0  2  0  0  0  0  0  0
  188.9160  173.5590  138.6940 N   0  0  0  0  0  2  0  0  0  0  0  0
  195.6860  174.6350  146.1990 N   0  0  0  0  0  2  0  0  0  0  0  0
  193.8810  175.6910  144.9940 C   0  0  1  0  0  3  0  0  0  0  0  0
  195.1230  174.8850  145.0750 C   0  0  0  0  0  0  0  0  0  0  0  0
  194.2460  174.3760  142.9310 C   0  0  0  0  0  3  0  0  0  0  0  0
  192.8780  176.5880  142.8810 C   0  0  0  0  0  2  0  0  0  0  0  0
  193.2750  175.3170  143.6500 C   0  0  2  0  0  0  0  0  0  0  0  0
  189.8420  175.5560  143.5030 C   0  0  0  0  0  0  0  0  0  0  0  0
  192.6620  174.7860  144.9530 C   0  0  2  0  0  3  0  0  0  0  0  0
  191.5890  177.2780  143.3060 C   0  0  0  0  0  2  0  0  0  0  0  0
  191.4370  175.5370  145.4430 C   0  0  1  0  0  3  0  0  0  0  0  0
  195.3940  174.0590  143.8780 C   0  0  0  0  0  3  0  0  0  0  0  0
  190.4190  176.5300  142.8590 N   0  0  0  0  0  0  0  0  0  0  0  0
  190.2890  175.0740  144.7460 O   0  0  0  0  0  0  0  0  0  0  0  0
  191.2610  175.2740  146.9270 C   0  0  0  0  0  2  0  0  0  0  0  0
  189.8020  175.0020  147.2410 C   0  0  0  0  0  1  0  0  0  0  0  0
  187.2460  178.0300  146.6210 C   0  0  0  0  0  2  0  0  0  0  0  0
  185.1690  176.6600  146.5000 C   0  0  0  0  0  2  0  0  0  0  0  0
  187.8570  177.6260  145.3010 C   0  0  0  0  0  2  0  0  0  0  0  0
  185.7430  178.0600  146.4000 C   0  0  2  0  0  3  0  0  0  0  0  0
  185.4730  177.2530  145.1380 C   0  0  1  0  0  3  0  0  0  0  0  0
  186.8170  176.7520  144.6420 C   0  0  1  0  0  3  0  0  0  0  0  0
  1 32  1  0  0  0  0
  2 18  1  6  0  0  0
  3 10  1  0  0  0  0
  4  8  1  0  0  0  0
  4  9  1  0  0  0  0
  5  9  2  0  0  0  0
  6  4  2  0  0  0  0
  7  2  1  0  0  0  0
  7  1  1  0  0  0  0
  8  7  2  0  0  0  0
  9  2  1  0  0  0  0
 10  5  1  0  0  0  0
 11  3  1  0  0  0  0
 11  6  1  0  0  0  0
 13 14  1  6  0  0  0
 14 12  2  0  0  0  0
 15 17  1  0  0  0  0
 15 22  2  0  0  0  0
 16 20  1  0  0  0  0
 17 16  1  6  0  0  0
 17 19  1  0  0  0  0
 17 13  1  0  0  0  0
 18 24  1  0  0  0  0
 19 13  1  0  0  0  0
 19 21  1  0  0  0  0
 21 25  1  0  0  0  0
 22 14  1  0  0  0  0
 23 20  1  0  0  0  0
 23 18  2  0  0  0  0
 24 21  1  0  0  0  0
 25 26  1  0  0  0  0
 29 27  1  0  0  0  0
 30 28  1  0  0  0  0
 30 27  1  0  0  0  0
 31 30  1  0  0  0  0
 31 28  1  0  0  0  0
 32 31  1  0  0  0  0
 32 29  1  0  0  0  0
M  END
>  <MODEL>
2

>  <REMARK>
 VINA RESULT:      -8.2      1.058      1.263
  Name = 
  3 active torsions:
  status: ('A' for Active; 'I' for Inactive)
    1  A    between atoms: N_2  and  C_29
    2  A    between atoms: C_5  and  C_26
    3  A    between atoms: C_7  and  C_15
                            x       y       z     vdW  Elec       q    Type
                         _______ _______ _______ _____ _____    ______ ____

>  <TORSDO>
F 3

$$$$
=
 OpenBabel11062420373D

 32 38  0  0  1  0  0  0  0  0999 V2000
  188.6290  176.9510  147.3700 N   0  0  0  0  0  2  0  0  0  0  0  0
  190.2200  176.8560  145.3190 C   0  0  1  0  0  3  0  0  0  0  0  0
  194.5670  175.8320  145.1110 C   0  0  0  0  0  2  0  0  0  0  0  0
  192.0890  176.4130  146.7100 C   0  0  0  0  0  0  0  0  0  0  0  0
  192.4750  176.9530  144.2600 C   0  0  0  0  0  3  0  0  0  0  0  0
  193.2830  176.3200  147.2170 N   0  0  0  0  0  0  0  0  0  0  0  0
  189.9080  176.6880  146.7860 C   0  0  0  0  0  0  0  0  0  0  0  0
  190.9370  176.4520  147.5350 N   0  0  0  0  0  0  0  0  0  0  0  0
  191.7100  176.7070  145.3260 C   0  0  0  0  0  0  0  0  0  0  0  0
  193.8870  176.7600  144.2300 N   0  0  0  0  0  2  0  0  0  0  0  0
  194.4820  176.2870  146.4860 N   0  0  0  0  0  2  0  0  0  0  0  0
  188.2060  173.3400  138.6340 N   0  0  0  0  0  2  0  0  0  0  0  0
  188.6900  173.4310  140.9960 C   0  0  1  0  0  3  0  0  0  0  0  0
  189.0740  173.2630  139.5740 C   0  0  0  0  0  0  0  0  0  0  0  0
  191.1240  173.7250  140.6710 C   0  0  0  0  0  3  0  0  0  0  0  0
  190.1680  172.9330  142.9570 C   0  0  0  0  0  2  0  0  0  0  0  0
  189.9900  173.7970  141.6970 C   0  0  2  0  0  0  0  0  0  0  0  0
  189.6070  175.7540  144.5060 C   0  0  0  0  0  0  0  0  0  0  0  0
  188.9170  174.8650  141.4430 C   0  0  2  0  0  3  0  0  0  0  0  0
  189.3580  173.3270  144.1850 C   0  0  0  0  0  2  0  0  0  0  0  0
  188.0320  175.1870  142.6330 C   0  0  1  0  0  3  0  0  0  0  0  0
  190.5180  173.4440  139.3050 C   0  0  0  0  0  3  0  0  0  0  0  0
  189.9030  174.5240  144.8150 N   0  0  0  0  0  0  0  0  0  0  0  0
  188.7030  176.1030  143.4860 O   0  0  0  0  0  0  0  0  0  0  0  0
  186.7460  175.8190  142.1330 C   0  0  0  0  0  2  0  0  0  0  0  0
  186.6670  177.2670  142.5790 C   0  0  0  0  0  1  0  0  0  0  0  0
  185.2280  177.0250  146.1130 C   0  0  0  0  0  2  0  0  0  0  0  0
  185.8690  179.3640  146.6810 C   0  0  0  0  0  2  0  0  0  0  0  0
  186.6030  176.4020  146.1450 C   0  0  0  0  0  2  0  0  0  0  0  0
  185.2230  178.0920  147.1940 C   0  0  2  0  0  3  0  0  0  0  0  0
  186.6790  178.3920  147.5160 C   0  0  1  0  0  3  0  0  0  0  0  0
  187.5190  177.5050  146.6150 C   0  0  1  0  0  3  0  0  0  0  0  0
  2 18  1  6  0  0  0
  2  9  1  0  0  0  0
  2  7  1  0  0  0  0
  3 11  1  0  0  0  0
  4  6  2  0  0  0  0
  4  8  1  0  0  0  0
  5  9  2  0  0  0  0
  7  1  1  0  0  0  0
  7  8  2  0  0  0  0
  9  4  1  0  0  0  0
 10  5  1  0  0  0  0
 10  3  1  0  0  0  0
 11  6  1  0  0  0  0
 12 14  2  0  0  0  0
 13 14  1  6  0  0  0
 13 19  1  0  0  0  0
 13 17  1  0  0  0  0
 16 20  1  0  0  0  0
 17 15  1  6  0  0  0
 17 16  1  0  0  0  0
 18 23  2  0  0  0  0
 19 17  1  0  0  0  0
 19 21  1  0  0  0  0
 20 23  1  0  0  0  0
 21 24  1  0  0  0  0
 22 14  1  0  0  0  0
 22 15  2  0  0  0  0
 24 18  1  0  0  0  0
 25 26  1  0  0  0  0
 25 21  1  0  0  0  0
 27 29  1  0  0  0  0
 27 30  1  0  0  0  0
 28 30  1  0  0  0  0
 28 31  1  0  0  0  0
 29 32  1  0  0  0  0
 30 31  1  0  0  0  0
 32  1  1  0  0  0  0
 32 31  1  0  0  0  0
M  END
>  <MODEL>
3

>  <REMARK>
 VINA RESULT:      -8.2      1.919      5.669
  Name = 
  3 active torsions:
  status: ('A' for Active; 'I' for Inactive)
    1  A    between atoms: N_2  and  C_29
    2  A    between atoms: C_5  and  C_26
    3  A    between atoms: C_7  and  C_15
                            x       y       z     vdW  Elec       q    Type
                         _______ _______ _______ _____ _____    ______ ____

>  <TORSDO>
F 3

$$$$
=
 OpenBabel11062420373D

 32 38  0  0  1  0  0  0  0  0999 V2000
  188.2190  176.5780  146.8890 N   0  0  0  0  0  2  0  0  0  0  0  0
  190.1080  176.3390  145.1220 C   0  0  1  0  0  3  0  0  0  0  0  0
  194.5370  176.0980  145.6790 C   0  0  0  0  0  2  0  0  0  0  0  0
  191.7800  176.5470  146.7910 C   0  0  0  0  0  0  0  0  0  0  0  0
  192.4610  176.6150  144.3460 C   0  0  0  0  0  3  0  0  0  0  0  0
  192.8810  176.7820  147.4430 N   0  0  0  0  0  0  0  0  0  0  0  0
  189.5980  176.4330  146.5400 C   0  0  0  0  0  0  0  0  0  0  0  0
  190.5210  176.5510  147.4400 N   0  0  0  0  0  0  0  0  0  0  0  0
  191.5830  176.4660  145.3410 C   0  0  0  0  0  0  0  0  0  0  0  0
  193.8720  176.6790  144.5290 N   0  0  0  0  0  2  0  0  0  0  0  0
  194.1700  176.8120  146.8880 N   0  0  0  0  0  2  0  0  0  0  0  0
  190.3970  170.9180  139.4970 N   0  0  0  0  0  2  0  0  0  0  0  0
  190.0900  171.7100  141.7560 C   0  0  1  0  0  3  0  0  0  0  0  0
  190.9150  171.1950  140.6370 C   0  0  0  0  0  0  0  0  0  0  0  0
  192.4950  172.1550  142.1210 C   0  0  0  0  0  3  0  0  0  0  0  0
  190.8590  171.9320  144.1310 C   0  0  0  0  0  2  0  0  0  0  0  0
  191.0900  172.3890  142.6800 C   0  0  2  0  0  0  0  0  0  0  0  0
  189.8010  174.9970  144.5250 C   0  0  0  0  0  0  0  0  0  0  0  0
  190.1470  173.2270  141.8060 C   0  0  2  0  0  3  0  0  0  0  0  0
  189.6920  172.5640  144.8760 C   0  0  0  0  0  2  0  0  0  0  0  0
  188.9210  173.7720  142.5160 C   0  0  1  0  0  3  0  0  0  0  0  0
  192.3660  171.4440  140.7820 C   0  0  0  0  0  3  0  0  0  0  0  0
  189.9930  173.9390  145.2590 N   0  0  0  0  0  0  0  0  0  0  0  0
  189.2720  174.9530  143.2220 O   0  0  0  0  0  0  0  0  0  0  0  0
  187.8600  174.1030  141.4830 C   0  0  0  0  0  2  0  0  0  0  0  0
  187.8160  175.5990  141.2380 C   0  0  0  0  0  1  0  0  0  0  0  0
  184.9800  177.6960  145.6980 C   0  0  0  0  0  2  0  0  0  0  0  0
  186.6240  178.0710  143.8650 C   0  0  0  0  0  2  0  0  0  0  0  0
  185.8190  176.7910  146.5680 C   0  0  0  0  0  2  0  0  0  0  0  0
  185.9430  178.6890  145.0710 C   0  0  2  0  0  3  0  0  0  0  0  0
  187.3350  178.0890  145.2040 C   0  0  1  0  0  3  0  0  0  0  0  0
  187.1700  176.7490  145.8980 C   0  0  1  0  0  3  0  0  0  0  0  0
  2 18  1  1  0  0  0
  2  9  1  0  0  0  0
  2  7  1  0  0  0  0
  3 11  1  0  0  0  0
  4  8  1  0  0  0  0
  4  6  2  0  0  0  0
  5 10  1  0  0  0  0
  5  9  2  0  0  0  0
  7  1  1  0  0  0  0
  7  8  2  0  0  0  0
  9  4  1  0  0  0  0
 10  3  1  0  0  0  0
 11  6  1  0  0  0  0
 12 14  2  0  0  0  0
 13 14  1  6  0  0  0
 13 19  1  0  0  0  0
 13 17  1  0  0  0  0
 14 22  1  0  0  0  0
 16 20  1  0  0  0  0
 17 15  1  6  0  0  0
 17 16  1  0  0  0  0
 18 23  2  0  0  0  0
 19 21  1  0  0  0  0
 19 17  1  0  0  0  0
 20 23  1  0  0  0  0
 21 24  1  0  0  0  0
 22 15  2  0  0  0  0
 24 18  1  0  0  0  0
 25 21  1  0  0  0  0
 26 25  1  0  0  0  0
 27 29  1  0  0  0  0
 28 30  1  0  0  0  0
 28 31  1  0  0  0  0
 30 31  1  0  0  0  0
 30 27  1  0  0  0  0
 31 32  1  0  0  0  0
 32 29  1  0  0  0  0
 32  1  1  0  0  0  0
M  END
>  <MODEL>
4

>  <REMARK>
 VINA RESULT:      -8.1      2.304      5.573
  Name = 
  3 active torsions:
  status: ('A' for Active; 'I' for Inactive)
    1  A    between atoms: N_2  and  C_29
    2  A    between atoms: C_5  and  C_26
    3  A    between atoms: C_7  and  C_15
                            x       y       z     vdW  Elec       q    Type
                         _______ _______ _______ _____ _____    ______ ____

>  <TORSDO>
F 3

$$$$
=
 OpenBabel11062420373D

 32 38  0  0  1  0  0  0  0  0999 V2000
  187.3170  177.2880  143.2710 N   0  0  0  0  0  2  0  0  0  0  0  0
  187.9820  174.9150  142.4510 C   0  0  1  0  0  3  0  0  0  0  0  0
  188.7280  173.4230  138.3030 C   0  0  0  0  0  2  0  0  0  0  0  0
  187.8150  175.5850  140.1810 C   0  0  0  0  0  0  0  0  0  0  0  0
  188.0930  173.1200  140.7240 C   0  0  0  0  0  3  0  0  0  0  0  0
  187.6550  175.6190  138.8910 N   0  0  0  0  0  0  0  0  0  0  0  0
  187.6740  176.3770  142.2290 C   0  0  0  0  0  0  0  0  0  0  0  0
  187.5810  176.7270  140.9860 N   0  0  0  0  0  0  0  0  0  0  0  0
  188.0220  174.4150  141.0400 C   0  0  0  0  0  0  0  0  0  0  0  0
  188.1920  172.6280  139.3900 N   0  0  0  0  0  2  0  0  0  0  0  0
  187.8500  174.5410  138.0130 N   0  0  0  0  0  2  0  0  0  0  0  0
  194.0130  177.1660  146.8850 N   0  0  0  0  0  2  0  0  0  0  0  0
  192.6220  175.5620  145.7390 C   0  0  1  0  0  3  0  0  0  0  0  0
  192.9970  176.3850  146.9130 C   0  0  0  0  0  0  0  0  0  0  0  0
  190.7440  175.7780  147.3330 C   0  0  0  0  0  3  0  0  0  0  0  0
  190.9230  173.7200  145.7520 C   0  0  0  0  0  2  0  0  0  0  0  0
  191.1560  175.2250  145.9660 C   0  0  2  0  0  0  0  0  0  0  0  0
  189.3290  174.7360  143.0870 C   0  0  0  0  0  0  0  0  0  0  0  0
  191.5590  176.2660  144.9130 C   0  0  2  0  0  3  0  0  0  0  0  0
  190.8440  173.2330  144.3110 C   0  0  0  0  0  2  0  0  0  0  0  0
  191.5890  175.7580  143.4820 C   0  0  1  0  0  3  0  0  0  0  0  0
  191.9110  176.5700  147.9020 C   0  0  0  0  0  3  0  0  0  0  0  0
  189.5780  173.6110  143.6950 N   0  0  0  0  0  0  0  0  0  0  0  0
  190.2720  175.7700  142.9500 O   0  0  0  0  0  0  0  0  0  0  0  0
  192.4720  176.6730  142.6540 C   0  0  0  0  0  2  0  0  0  0  0  0
  193.7350  175.9440  142.2360 C   0  0  0  0  0  1  0  0  0  0  0  0
  187.5610  177.6380  146.8730 C   0  0  0  0  0  2  0  0  0  0  0  0
  185.3350  176.6430  146.3630 C   0  0  0  0  0  2  0  0  0  0  0  0
  188.2120  177.4280  145.5260 C   0  0  0  0  0  2  0  0  0  0  0  0
  186.0980  177.9330  146.5930 C   0  0  2  0  0  3  0  0  0  0  0  0
  185.8200  177.4510  145.1770 C   0  0  1  0  0  3  0  0  0  0  0  0
  187.1190  176.8710  144.6480 C   0  0  1  0  0  3  0  0  0  0  0  0
  1 32  1  0  0  0  0
  2 18  1  6  0  0  0
  3 10  1  0  0  0  0
  4  8  1  0  0  0  0
  4  9  1  0  0  0  0
  5  9  2  0  0  0  0
  6  4  2  0  0  0  0
  7  2  1  0  0  0  0
  7  1  1  0  0  0  0
  8  7  2  0  0  0  0
  9  2  1  0  0  0  0
 10  5  1  0  0  0  0
 11  3  1  0  0  0  0
 11  6  1  0  0  0  0
 12 14  2  0  0  0  0
 13 17  1  0  0  0  0
 13 14  1  1  0  0  0
 14 22  1  0  0  0  0
 15 22  2  0  0  0  0
 17 16  1  6  0  0  0
 17 15  1  0  0  0  0
 18 23  2  0  0  0  0
 19 13  1  0  0  0  0
 19 17  1  0  0  0  0
 20 16  1  0  0  0  0
 21 19  1  0  0  0  0
 23 20  1  0  0  0  0
 24 18  1  0  0  0  0
 24 21  1  0  0  0  0
 25 21  1  0  0  0  0
 26 25  1  0  0  0  0
 28 30  1  0  0  0  0
 29 27  1  0  0  0  0
 30 27  1  0  0  0  0
 31 28  1  0  0  0  0
 31 30  1  0  0  0  0
 32 31  1  0  0  0  0
 32 29  1  0  0  0  0
M  END
>  <MODEL>
5

>  <REMARK>
 VINA RESULT:      -8.0      1.509      2.934
  Name = 
  3 active torsions:
  status: ('A' for Active; 'I' for Inactive)
    1  A    between atoms: N_2  and  C_29
    2  A    between atoms: C_5  and  C_26
    3  A    between atoms: C_7  and  C_15
                            x       y       z     vdW  Elec       q    Type
                         _______ _______ _______ _____ _____    ______ ____

>  <TORSDO>
F 3

$$$$
=
 OpenBabel11062420373D

 32 38  0  0  1  0  0  0  0  0999 V2000
  192.5660  173.4840  144.4740 N   0  0  0  0  0  2  0  0  0  0  0  0
  191.8710  174.2530  142.0920 C   0  0  1  0  0  3  0  0  0  0  0  0
  189.5490  172.0850  138.9470 C   0  0  0  0  0  2  0  0  0  0  0  0
  190.9520  172.1210  141.6050 C   0  0  0  0  0  0  0  0  0  0  0  0
  191.2100  173.8120  139.7290 C   0  0  0  0  0  3  0  0  0  0  0  0
  190.5250  171.0430  141.0160 N   0  0  0  0  0  0  0  0  0  0  0  0
  191.8890  173.2640  143.2340 C   0  0  0  0  0  0  0  0  0  0  0  0
  191.3900  172.1040  142.9530 N   0  0  0  0  0  0  0  0  0  0  0  0
  191.2710  173.4190  141.0040 C   0  0  0  0  0  0  0  0  0  0  0  0
  190.5910  173.0590  138.6900 N   0  0  0  0  0  2  0  0  0  0  0  0
  190.0840  170.9570  139.6860 N   0  0  0  0  0  2  0  0  0  0  0  0
  185.6950  177.6570  145.4660 N   0  0  0  0  0  2  0  0  0  0  0  0
  187.8570  177.6220  144.3940 C   0  0  1  0  0  3  0  0  0  0  0  0
  186.9690  177.5740  145.5800 C   0  0  0  0  0  0  0  0  0  0  0  0
  189.0190  176.6740  146.3610 C   0  0  0  0  0  3  0  0  0  0  0  0
  190.3500  177.8610  144.4670 C   0  0  0  0  0  2  0  0  0  0  0  0
  189.1540  176.9810  144.8670 C   0  0  2  0  0  0  0  0  0  0  0  0
  190.9680  175.4120  142.3950 C   0  0  0  0  0  0  0  0  0  0  0  0
  188.2050  176.2170  143.9330 C   0  0  2  0  0  3  0  0  0  0  0  0
  190.8070  177.7870  143.0160 C   0  0  0  0  0  2  0  0  0  0  0  0
  188.5940  176.2300  142.4660 C   0  0  1  0  0  3  0  0  0  0  0  0
  187.5970  177.0000  146.7910 C   0  0  0  0  0  3  0  0  0  0  0  0
  191.5140  176.5410  142.7480 N   0  0  0  0  0  0  0  0  0  0  0  0
  189.5830  175.2370  142.2310 O   0  0  0  0  0  0  0  0  0  0  0  0
  187.3670  175.9220  141.6290 C   0  0  0  0  0  2  0  0  0  0  0  0
  187.0440  177.0950  140.7230 C   0  0  0  0  0  1  0  0  0  0  0  0
  194.1600  175.9920  146.5550 C   0  0  0  0  0  2  0  0  0  0  0  0
  195.7720  175.3680  144.7610 C   0  0  0  0  0  2  0  0  0  0  0  0
  192.9160  175.3760  145.9600 C   0  0  0  0  0  2  0  0  0  0  0  0
  195.3080  175.0740  146.1740 C   0  0  2  0  0  3  0  0  0  0  0  0
  194.8170  174.2190  145.0150 C   0  0  1  0  0  3  0  0  0  0  0  0
  193.3920  174.6520  144.7240 C   0  0  1  0  0  3  0  0  0  0  0  0
  1 32  1  0  0  0  0
  2 18  1  1  0  0  0
  2  7  1  0  0  0  0
  3 11  1  0  0  0  0
  4  8  1  0  0  0  0
  5  9  2  0  0  0  0
  6  4  2  0  0  0  0
  7  1  1  0  0  0  0
  8  7  2  0  0  0  0
  9  4  1  0  0  0  0
  9  2  1  0  0  0  0
 10  3  1  0  0  0  0
 10  5  1  0  0  0  0
 11  6  1  0  0  0  0
 12 14  2  0  0  0  0
 13 17  1  0  0  0  0
 13 14  1  1  0  0  0
 14 22  1  0  0  0  0
 15 22  2  0  0  0  0
 17 16  1  6  0  0  0
 17 15  1  0  0  0  0
 18 23  2  0  0  0  0
 19 13  1  0  0  0  0
 19 17  1  0  0  0  0
 20 16  1  0  0  0  0
 21 19  1  0  0  0  0
 23 20  1  0  0  0  0
 24 18  1  0  0  0  0
 24 21  1  0  0  0  0
 25 21  1  0  0  0  0
 26 25  1  0  0  0  0
 28 31  1  0  0  0  0
 28 30  1  0  0  0  0
 29 27  1  0  0  0  0
 30 27  1  0  0  0  0
 31 30  1  0  0  0  0
 32 31  1  0  0  0  0
 32 29  1  0  0  0  0
M  END
>  <MODEL>
6

>  <REMARK>
 VINA RESULT:      -7.9      2.168      6.307
  Name = 
  3 active torsions:
  status: ('A' for Active; 'I' for Inactive)
    1  A    between atoms: N_2  and  C_29
    2  A    between atoms: C_5  and  C_26
    3  A    between atoms: C_7  and  C_15
                            x       y       z     vdW  Elec       q    Type
                         _______ _______ _______ _____ _____    ______ ____

>  <TORSDO>
F 3

$$$$
=
 OpenBabel11062420373D

 32 38  0  0  1  0  0  0  0  0999 V2000
  191.8480  176.7840  143.5140 N   0  0  0  0  0  2  0  0  0  0  0  0
  189.4470  176.1550  144.2790 C   0  0  1  0  0  3  0  0  0  0  0  0
  185.4900  177.4430  142.6450 C   0  0  0  0  0  2  0  0  0  0  0  0
  188.4870  177.6590  142.7160 C   0  0  0  0  0  0  0  0  0  0  0  0
  187.0000  176.5920  144.4750 C   0  0  0  0  0  3  0  0  0  0  0  0
  187.7070  178.4900  142.0900 N   0  0  0  0  0  0  0  0  0  0  0  0
  190.4270  176.8500  143.3650 C   0  0  0  0  0  0  0  0  0  0  0  0
  189.8910  177.6720  142.5210 N   0  0  0  0  0  0  0  0  0  0  0  0
  188.1560  176.7680  143.8320 C   0  0  0  0  0  0  0  0  0  0  0  0
  185.7520  177.1190  144.0330 N   0  0  0  0  0  2  0  0  0  0  0  0
  186.3120  178.5630  142.2250 N   0  0  0  0  0  2  0  0  0  0  0  0
  190.9110  169.7310  140.0710 N   0  0  0  0  0  2  0  0  0  0  0  0
  190.4030  170.9540  142.0890 C   0  0  1  0  0  3  0  0  0  0  0  0
  191.3370  170.3620  141.1030 C   0  0  0  0  0  0  0  0  0  0  0  0
  192.6680  171.9270  142.2870 C   0  0  0  0  0  3  0  0  0  0  0  0
  191.0570  171.8680  144.3290 C   0  0  0  0  0  2  0  0  0  0  0  0
  191.2300  172.0100  142.8070 C   0  0  2  0  0  0  0  0  0  0  0  0
  189.4190  174.6770  144.0190 C   0  0  0  0  0  0  0  0  0  0  0  0
  190.1650  172.4220  141.7820 C   0  0  2  0  0  3  0  0  0  0  0  0
  189.7720  172.4200  144.9310 C   0  0  0  0  0  2  0  0  0  0  0  0
  188.8400  172.8710  142.3720 C   0  0  1  0  0  3  0  0  0  0  0  0
  192.7100  170.9130  141.1540 C   0  0  0  0  0  3  0  0  0  0  0  0
  189.7930  173.8770  144.9760 N   0  0  0  0  0  0  0  0  0  0  0  0
  188.9390  174.2290  142.7750 O   0  0  0  0  0  0  0  0  0  0  0  0
  187.7600  172.7400  141.3140 C   0  0  0  0  0  2  0  0  0  0  0  0
  188.3550  172.9370  139.9320 C   0  0  0  0  0  1  0  0  0  0  0  0
  194.3950  174.7310  145.0800 C   0  0  0  0  0  2  0  0  0  0  0  0
  193.8610  176.5910  146.6480 C   0  0  0  0  0  2  0  0  0  0  0  0
  193.2140  174.8770  144.1500 C   0  0  0  0  0  2  0  0  0  0  0  0
  194.7640  176.1370  145.5180 C   0  0  2  0  0  3  0  0  0  0  0  0
  193.5560  177.0150  145.2250 C   0  0  1  0  0  3  0  0  0  0  0  0
  192.4920  176.1120  144.6290 C   0  0  1  0  0  3  0  0  0  0  0  0
  1 32  1  0  0  0  0
  2 18  1  6  0  0  0
  3 10  1  0  0  0  0
  4  9  1  0  0  0  0
  6 11  1  0  0  0  0
  6  4  2  0  0  0  0
  7  1  1  0  0  0  0
  7  2  1  0  0  0  0
  8  4  1  0  0  0  0
  8  7  2  0  0  0  0
  9  2  1  0  0  0  0
  9  5  2  0  0  0  0
 10  5  1  0  0  0  0
 11  3  1  0  0  0  0
 12 14  2  0  0  0  0
 13 14  1  6  0  0  0
 13 17  1  0  0  0  0
 14 22  1  0  0  0  0
 16 20  1  0  0  0  0
 17 15  1  6  0  0  0
 17 16  1  0  0  0  0
 18 23  2  0  0  0  0
 19 13  1  0  0  0  0
 19 21  1  0  0  0  0
 19 17  1  0  0  0  0
 20 23  1  0  0  0  0
 21 24  1  0  0  0  0
 22 15  2  0  0  0  0
 24 18  1  0  0  0  0
 25 21  1  0  0  0  0
 26 25  1  0  0  0  0
 27 30  1  0  0  0  0
 29 32  1  0  0  0  0
 29 27  1  0  0  0  0
 30 28  1  0  0  0  0
 31 30  1  0  0  0  0
 31 28  1  0  0  0  0
 32 31  1  0  0  0  0
M  END
>  <MODEL>
7

>  <REMARK>
 VINA RESULT:      -7.8      2.436      6.125
  Name = 
  3 active torsions:
  status: ('A' for Active; 'I' for Inactive)
    1  A    between atoms: N_2  and  C_29
    2  A    between atoms: C_5  and  C_26
    3  A    between atoms: C_7  and  C_15
                            x       y       z     vdW  Elec       q    Type
                         _______ _______ _______ _____ _____    ______ ____

>  <TORSDO>
F 3

$$$$
=
 OpenBabel11062420373D

 32 38  0  0  1  0  0  0  0  0999 V2000
  187.6720  176.3330  143.6650 N   0  0  0  0  0  2  0  0  0  0  0  0
  189.3080  174.3410  143.3500 C   0  0  1  0  0  3  0  0  0  0  0  0
  190.2510  171.9620  139.6850 C   0  0  0  0  0  2  0  0  0  0  0  0
  188.6080  174.0410  141.1040 C   0  0  0  0  0  0  0  0  0  0  0  0
  190.0920  172.2840  142.1800 C   0  0  0  0  0  3  0  0  0  0  0  0
  188.3200  173.5530  139.9330 N   0  0  0  0  0  0  0  0  0  0  0  0
  188.3150  175.3580  142.8410 C   0  0  0  0  0  0  0  0  0  0  0  0
  187.9370  175.1790  141.6160 N   0  0  0  0  0  0  0  0  0  0  0  0
  189.4390  173.4480  142.1550 C   0  0  0  0  0  0  0  0  0  0  0  0
  190.2770  171.4490  141.0400 N   0  0  0  0  0  2  0  0  0  0  0  0
  188.9190  172.4270  139.3460 N   0  0  0  0  0  2  0  0  0  0  0  0
  196.8420  174.2620  145.4360 N   0  0  0  0  0  2  0  0  0  0  0  0
  194.8630  175.2040  144.4250 C   0  0  1  0  0  3  0  0  0  0  0  0
  196.1000  174.3870  144.3990 C   0  0  0  0  0  0  0  0  0  0  0  0
  194.8780  173.6410  142.5080 C   0  0  0  0  0  3  0  0  0  0  0  0
  193.5250  175.8610  142.4110 C   0  0  0  0  0  2  0  0  0  0  0  0
  194.0410  174.6840  143.2550 C   0  0  2  0  0  0  0  0  0  0  0  0
  190.6320  174.9810  143.6480 C   0  0  0  0  0  0  0  0  0  0  0  0
  193.6520  174.3290  144.6970 C   0  0  2  0  0  3  0  0  0  0  0  0
  192.3260  176.6260  142.9550 C   0  0  0  0  0  2  0  0  0  0  0  0
  192.5280  175.1610  145.2860 C   0  0  1  0  0  3  0  0  0  0  0  0
  196.1660  173.4150  143.2840 C   0  0  0  0  0  3  0  0  0  0  0  0
  191.0960  175.8570  142.8030 N   0  0  0  0  0  0  0  0  0  0  0  0
  191.2790  174.6430  144.8500 O   0  0  0  0  0  0  0  0  0  0  0  0
  192.6010  175.0850  146.8000 C   0  0  0  0  0  2  0  0  0  0  0  0
  191.2340  175.3510  147.4030 C   0  0  0  0  0  1  0  0  0  0  0  0
  188.4900  177.9180  146.8240 C   0  0  0  0  0  2  0  0  0  0  0  0
  186.5180  176.4470  147.2100 C   0  0  0  0  0  2  0  0  0  0  0  0
  188.9100  177.3790  145.4770 C   0  0  0  0  0  2  0  0  0  0  0  0
  186.9740  177.8480  146.8520 C   0  0  2  0  0  3  0  0  0  0  0  0
  186.5620  176.8760  145.7570 C   0  0  1  0  0  3  0  0  0  0  0  0
  187.8410  176.3800  145.1070 C   0  0  1  0  0  3  0  0  0  0  0  0
  1 32  1  0  0  0  0
  2 18  1  6  0  0  0
  3 10  1  0  0  0  0
  4  8  1  0  0  0  0
  4  9  1  0  0  0  0
  6  4  2  0  0  0  0
  7  2  1  0  0  0  0
  7  1  1  0  0  0  0
  8  7  2  0  0  0  0
  9  5  2  0  0  0  0
  9  2  1  0  0  0  0
 10  5  1  0  0  0  0
 11  3  1  0  0  0  0
 11  6  1  0  0  0  0
 13 14  1  6  0  0  0
 13 19  1  0  0  0  0
 14 12  2  0  0  0  0
 15 17  1  0  0  0  0
 15 22  2  0  0  0  0
 16 20  1  0  0  0  0
 17 16  1  6  0  0  0
 17 13  1  0  0  0  0
 17 19  1  0  0  0  0
 18 24  1  0  0  0  0
 19 21  1  0  0  0  0
 21 25  1  0  0  0  0
 22 14  1  0  0  0  0
 23 20  1  0  0  0  0
 23 18  2  0  0  0  0
 24 21  1  0  0  0  0
 25 26  1  0  0  0  0
 27 30  1  0  0  0  0
 29 27  1  0  0  0  0
 30 28  1  0  0  0  0
 31 30  1  0  0  0  0
 31 28  1  0  0  0  0
 32 29  1  0  0  0  0
 32 31  1  0  0  0  0
M  END
>  <MODEL>
8

>  <REMARK>
 VINA RESULT:      -7.8      1.647      2.178
  Name = 
  3 active torsions:
  status: ('A' for Active; 'I' for Inactive)
    1  A    between atoms: N_2  and  C_29
    2  A    between atoms: C_5  and  C_26
    3  A    between atoms: C_7  and  C_15
                            x       y       z     vdW  Elec       q    Type
                         _______ _______ _______ _____ _____    ______ ____

>  <TORSDO>
F 3

$$$$
=
 OpenBabel11062420373D

 32 38  0  0  1  0  0  0  0  0999 V2000
  188.0580  177.0340  143.3540 N   0  0  0  0  0  2  0  0  0  0  0  0
  188.3690  174.6020  142.4960 C   0  0  1  0  0  3  0  0  0  0  0  0
  188.5780  173.0470  138.3100 C   0  0  0  0  0  2  0  0  0  0  0  0
  188.0870  175.2940  140.2450 C   0  0  0  0  0  0  0  0  0  0  0  0
  188.1220  172.8120  140.7780 C   0  0  0  0  0  3  0  0  0  0  0  0
  187.8210  175.3510  138.9730 N   0  0  0  0  0  0  0  0  0  0  0  0
  188.2150  176.0900  142.2910 C   0  0  0  0  0  0  0  0  0  0  0  0
  188.0570  176.4540  141.0580 N   0  0  0  0  0  0  0  0  0  0  0  0
  188.2300  174.1060  141.0900 C   0  0  0  0  0  0  0  0  0  0  0  0
  188.0480  172.3170  139.4440 N   0  0  0  0  0  2  0  0  0  0  0  0
  187.8130  174.2600  138.0890 N   0  0  0  0  0  2  0  0  0  0  0  0
  195.8910  176.1220  143.9870 N   0  0  0  0  0  2  0  0  0  0  0  0
  193.8000  174.9510  144.2690 C   0  0  1  0  0  3  0  0  0  0  0  0
  194.7580  176.0380  144.5800 C   0  0  0  0  0  0  0  0  0  0  0  0
  192.6890  176.8370  145.4210 C   0  0  0  0  0  3  0  0  0  0  0  0
  191.7390  174.4210  145.5920 C   0  0  0  0  0  2  0  0  0  0  0  0
  192.4560  175.4840  144.7420 C   0  0  2  0  0  0  0  0  0  0  0  0
  189.7360  174.2660  143.0150 C   0  0  0  0  0  0  0  0  0  0  0  0
  192.7810  175.4170  143.2440 C   0  0  2  0  0  3  0  0  0  0  0  0
  191.0590  173.2830  144.8430 C   0  0  0  0  0  2  0  0  0  0  0  0
  192.1960  174.2240  142.5090 C   0  0  1  0  0  3  0  0  0  0  0  0
  194.1550  177.2090  145.2560 C   0  0  0  0  0  3  0  0  0  0  0  0
  189.8290  173.7340  144.2010 N   0  0  0  0  0  0  0  0  0  0  0  0
  190.8410  174.4930  142.1760 O   0  0  0  0  0  0  0  0  0  0  0  0
  192.9880  173.9940  141.2360 C   0  0  0  0  0  2  0  0  0  0  0  0
  192.0480  173.8400  140.0550 C   0  0  0  0  0  1  0  0  0  0  0  0
  188.6580  177.3340  146.9180 C   0  0  0  0  0  2  0  0  0  0  0  0
  186.2910  176.6240  146.6120 C   0  0  0  0  0  2  0  0  0  0  0  0
  189.1580  177.0530  145.5210 C   0  0  0  0  0  2  0  0  0  0  0  0
  187.2240  177.8090  146.7660 C   0  0  2  0  0  3  0  0  0  0  0  0
  186.7650  177.3710  145.3830 C   0  0  1  0  0  3  0  0  0  0  0  0
  187.9310  176.6380  144.7450 C   0  0  1  0  0  3  0  0  0  0  0  0
  1 32  1  0  0  0  0
  2 18  1  6  0  0  0
  3 10  1  0  0  0  0
  4  8  1  0  0  0  0
  4  9  1  0  0  0  0
  5  9  2  0  0  0  0
  6  4  2  0  0  0  0
  7  2  1  0  0  0  0
  7  1  1  0  0  0  0
  8  7  2  0  0  0  0
  9  2  1  0  0  0  0
 10  5  1  0  0  0  0
 11  3  1  0  0  0  0
 11  6  1  0  0  0  0
 12 14  2  0  0  0  0
 13 14  1  1  0  0  0
 13 17  1  0  0  0  0
 14 22  1  0  0  0  0
 17 15  1  1  0  0  0
 17 16  1  0  0  0  0
 18 23  2  0  0  0  0
 19 13  1  0  0  0  0
 19 17  1  0  0  0  0
 20 16  1  0  0  0  0
 21 19  1  0  0  0  0
 22 15  2  0  0  0  0
 23 20  1  0  0  0  0
 24 21  1  0  0  0  0
 24 18  1  0  0  0  0
 25 21  1  0  0  0  0
 26 25  1  0  0  0  0
 28 30  1  0  0  0  0
 29 27  1  0  0  0  0
 30 27  1  0  0  0  0
 31 28  1  0  0  0  0
 31 30  1  0  0  0  0
 32 31  1  0  0  0  0
 32 29  1  0  0  0  0
M  END
>  <MODEL>
9

>  <REMARK>
 VINA RESULT:      -7.5      1.740      3.087
  Name = 
  3 active torsions:
  status: ('A' for Active; 'I' for Inactive)
    1  A    between atoms: N_2  and  C_29
    2  A    between atoms: C_5  and  C_26
    3  A    between atoms: C_7  and  C_15
                            x       y       z     vdW  Elec       q    Type
                         _______ _______ _______ _____ _____    ______ ____

>  <TORSDO>
F 3

$$$$
