=
 OpenBabel11072408543D

 60 67  0  0  1  0  0  0  0  0999 V2000
  187.0930  178.3390  141.7520 N   0  0  0  0  0  0  0  0  0  0  0  0
  186.7410  178.2800  143.0750 C   0  0  0  0  0  0  0  0  0  0  0  0
  187.7140  175.0030  141.0040 N   0  0  0  0  0  0  0  0  0  0  0  0
  187.5300  177.2940  141.1100 C   0  0  0  0  0  3  0  0  0  0  0  0
  187.6210  176.0300  141.8050 C   0  0  0  0  0  0  0  0  0  0  0  0
  187.8460  175.9980  143.2820 C   0  0  0  0  0  2  0  0  0  0  0  0
  187.2350  177.2490  144.0420 C   0  0  1  0  0  3  0  0  0  0  0  0
  185.9560  179.2160  143.5540 O   0  0  0  0  0  0  0  0  0  0  0  0
  187.4590  172.8660  141.9970 O   0  0  0  0  0  0  0  0  0  0  0  0
  188.0140  173.6300  141.1500 C   0  0  0  0  0  0  0  0  0  0  0  0
  188.9390  173.4840  138.8190 C   0  0  0  0  0  2  0  0  0  0  0  0
  191.7290  173.3680  140.4350 C   0  0  0  0  0  2  0  0  0  0  0  0
  192.2850  172.4360  137.6380 C   0  0  0  0  0  2  0  0  0  0  0  0
  192.5880  171.7450  138.9130 N   0  0  0  0  0  0  0  0  0  0  0  0
  190.1750  173.7570  137.9450 C   0  0  0  0  0  2  0  0  0  0  0  0
  190.7850  172.4980  137.3230 C   0  0  0  0  0  2  0  0  0  0  0  0
  189.1680  173.1430  140.3280 C   0  0  1  0  0  3  0  0  0  0  0  0
  190.3830  173.8240  140.9490 C   0  0  0  0  0  2  0  0  0  0  0  0
  191.6590  171.9260  140.0320 C   0  0  0  0  0  2  0  0  0  0  0  0
  195.0670  171.6990  139.2380 C   0  0  0  0  0  0  0  0  0  0  0  0
  194.7210  174.0730  139.6810 O   0  0  0  0  0  0  0  0  0  0  0  0
  193.7820  171.0570  139.2370 C   0  0  0  0  0  0  0  0  0  0  0  0
  195.0160  168.9260  139.1180 C   0  0  0  0  0  3  0  0  0  0  0  0
  196.1960  169.5900  139.0280 N   0  0  0  0  0  0  0  0  0  0  0  0
  193.8180  169.6300  139.2780 C   0  0  0  0  0  0  0  0  0  0  0  0
  197.4460  171.7880  139.2870 C   0  0  0  0  0  2  0  0  0  0  0  0
  196.8950  173.1110  139.6280 N   0  0  0  0  0  0  0  0  0  0  0  0
  195.4770  173.0510  139.5090 C   0  0  0  0  0  0  0  0  0  0  0  0
  192.6590  168.9300  139.4780 F   0  0  0  0  0  0  0  0  0  0  0  0
  196.2010  170.9770  139.1230 C   0  0  0  0  0  0  0  0  0  0  0  0
  197.8100  174.2330  139.8710 C   0  0  0  0  0  2  0  0  0  0  0  0
  197.9380  174.2740  142.2880 C   0  0  0  0  0  3  0  0  0  0  0  0
  196.9110  176.2130  141.2490 C   0  0  0  0  0  3  0  0  0  0  0  0
  197.7310  174.9230  143.6110 C   0  0  0  0  0  2  0  0  0  0  0  0
  196.4000  176.5950  142.3710 N   0  0  0  0  0  0  0  0  0  0  0  0
  196.4500  175.7600  143.5840 C   0  0  0  0  0  2  0  0  0  0  0  0
  197.5970  174.9230  141.1620 C   0  0  0  0  0  0  0  0  0  0  0  0
  188.1540  177.9150  144.8880 O   0  0  0  0  0  0  0  0  0  0  0  0
  190.7030  178.2930  143.8160 C   0  0  0  0  0  1  0  0  0  0  0  0
  189.3370  177.2620  146.7790 O   0  0  0  0  0  0  0  0  0  0  0  0
  189.2750  177.3500  145.5020 C   0  0  0  0  0  0  0  0  0  0  0  0
  190.5240  177.2340  144.7760 N   0  0  0  0  0  0  0  0  0  0  0  0
  192.4770  176.0790  146.2670 C   0  0  2  0  0  3  0  0  0  0  0  0
  192.6730  174.4950  146.4120 C   0  0  0  0  0  2  0  0  0  0  0  0
  193.1360  173.7020  145.1090 C   0  0  2  0  0  0  0  0  0  0  0  0
  191.6430  175.2310  144.0320 N   0  0  0  0  0  2  0  0  0  0  0  0
  194.5780  173.2910  145.3280 C   0  0  0  0  0  2  0  0  0  0  0  0
  194.6900  171.7750  145.1650 C   0  0  0  0  0  2  0  0  0  0  0  0
  193.5120  171.3090  144.3770 C   0  0  1  0  0  3  0  0  0  0  0  0
  191.6370  176.3670  145.0070 C   0  0  1  0  0  3  0  0  0  0  0  0
  192.9910  174.6600  143.9810 C   0  0  0  0  0  2  0  0  0  0  0  0
  192.4600  172.3740  144.6450 C   0  0  2  0  0  3  0  0  0  0  0  0
  189.8310  172.4110  144.7410 C   0  0  0  0  0  2  0  0  0  0  0  0
  191.0920  172.2830  143.9350 C   0  0  2  0  0  3  0  0  0  0  0  0
  190.3370  171.1440  144.3690 O   0  0  0  0  0  0  0  0  0  0  0  0
  194.2030  177.5490  147.2560 O   0  0  0  0  0  1  0  0  0  0  0  0
  193.8730  177.6430  145.0050 O   0  0  0  0  0  1  0  0  0  0  0  0
  193.8470  176.8020  146.1400 C   0  0  0  0  0  3  0  0  0  0  0  0
  195.3580  171.5130  142.7500 O   0  0  0  0  0  1  0  0  0  0  0  0
  194.0530  171.0890  142.9510 C   0  0  0  0  0  2  0  0  0  0  0  0
  1  2  1  0  0  0  0
  2  8  2  0  0  0  0
  2  7  1  0  0  0  0
  3 10  1  0  0  0  0
  3  5  2  0  0  0  0
  4  1  2  0  0  0  0
  4  5  1  0  0  0  0
  5  6  1  0  0  0  0
  6  7  1  0  0  0  0
  7 38  1  1  0  0  0
 10  9  2  0  0  0  0
 11 17  1  0  0  0  0
 12 18  1  0  0  0  0
 13 14  1  0  0  0  0
 14 22  1  0  0  0  0
 14 19  1  0  0  0  0
 15 11  1  0  0  0  0
 16 13  1  0  0  0  0
 16 15  1  0  0  0  0
 17 18  1  0  0  0  0
 17 10  1  1  0  0  0
 19 12  1  0  0  0  0
 20 28  1  0  0  0  0
 22 20  1  0  0  0  0
 22 25  2  0  0  0  0
 23 25  1  0  0  0  0
 24 23  2  0  0  0  0
 24 30  1  0  0  0  0
 25 29  1  0  0  0  0
 26 27  1  0  0  0  0
 27 31  1  0  0  0  0
 28 27  1  0  0  0  0
 28 21  2  0  0  0  0
 30 20  2  0  0  0  0
 30 26  1  0  0  0  0
 31 37  1  0  0  0  0
 32 34  1  0  0  0  0
 33 35  2  0  0  0  0
 35 36  1  0  0  0  0
 36 34  1  0  0  0  0
 37 33  1  0  0  0  0
 37 32  2  0  0  0  0
 38 41  1  0  0  0  0
 39 42  1  0  0  0  0
 41 40  2  0  0  0  0
 42 41  1  0  0  0  0
 43 58  1  6  0  0  0
 43 44  1  0  0  0  0
 45 51  1  6  0  0  0
 45 47  1  0  0  0  0
 45 44  1  0  0  0  0
 46 50  1  0  0  0  0
 48 47  1  0  0  0  0
 49 60  1  6  0  0  0
 49 52  1  0  0  0  0
 49 48  1  0  0  0  0
 50 42  1  1  0  0  0
 50 43  1  0  0  0  0
 51 46  1  0  0  0  0
 52 54  1  6  0  0  0
 52 45  1  0  0  0  0
 54 55  1  0  0  0  0
 54 53  1  1  0  0  0
 55 53  1  0  0  0  0
 57 58  1  0  0  0  0
 58 56  1  0  0  0  0
 59 60  1  0  0  0  0
M  END
>  <MODEL>
1

>  <REMARK>
 VINA RESULT:      -7.4      0.000      0.000
  Name = 
  11 active torsions:
  status: ('A' for Active; 'I' for Inactive)
    1  A    between atoms: C_3  and  C_35
    2  A    between atoms: C_11  and  C_54
    3  A    between atoms: C_12  and  N_39
    4  A    between atoms: C_12  and  C_49
    5  A    between atoms: O_19  and  C_33
    6  A    between atoms: O_19  and  C_58
    7  A    between atoms: C_21  and  C_28
    8  A    between atoms: C_22  and  N_38
    9  A    between atoms: C_34  and  N_56
   10  A    between atoms: N_36  and  C_59
   11  A    between atoms: C_45  and  C_59
                            x       y       z     vdW  Elec       q    Type
                         _______ _______ _______ _____ _____    ______ ____

>  <TORSDO>
F 11

$$$$
=
 OpenBabel11072408543D

 60 67  0  0  1  0  0  0  0  0999 V2000
  187.1770  177.8690  141.3350 N   0  0  0  0  0  0  0  0  0  0  0  0
  186.8240  177.9610  142.6560 C   0  0  0  0  0  0  0  0  0  0  0  0
  187.9620  174.4990  141.0160 N   0  0  0  0  0  0  0  0  0  0  0  0
  187.6660  176.7730  140.8300 C   0  0  0  0  0  3  0  0  0  0  0  0
  187.8170  175.6130  141.6800 C   0  0  0  0  0  0  0  0  0  0  0  0
  188.0370  175.7810  143.1480 C   0  0  0  0  0  2  0  0  0  0  0  0
  187.3640  177.0870  143.7440 C   0  0  1  0  0  3  0  0  0  0  0  0
  185.9930  178.9120  143.0130 O   0  0  0  0  0  0  0  0  0  0  0  0
  187.8650  172.5240  142.3220 O   0  0  0  0  0  0  0  0  0  0  0  0
  188.3280  173.1720  141.3340 C   0  0  0  0  0  0  0  0  0  0  0  0
  188.8610  171.6970  139.3720 C   0  0  0  0  0  2  0  0  0  0  0  0
  191.4940  173.5580  139.2850 C   0  0  0  0  0  2  0  0  0  0  0  0
  192.0620  171.1380  137.6040 C   0  0  0  0  0  2  0  0  0  0  0  0
  192.8530  171.6760  138.7340 N   0  0  0  0  0  0  0  0  0  0  0  0
  189.6390  171.6090  138.0480 C   0  0  0  0  0  2  0  0  0  0  0  0
  190.7220  170.5280  138.0350 C   0  0  0  0  0  2  0  0  0  0  0  0
  189.4400  172.6050  140.5060 C   0  0  1  0  0  3  0  0  0  0  0  0
  190.1940  173.8320  140.0040 C   0  0  0  0  0  2  0  0  0  0  0  0
  192.1310  172.3180  139.8370 C   0  0  0  0  0  2  0  0  0  0  0  0
  195.0390  171.2520  139.8720 C   0  0  0  0  0  0  0  0  0  0  0  0
  193.8140  169.3520  140.7910 O   0  0  0  0  0  0  0  0  0  0  0  0
  194.2620  171.8000  138.7950 C   0  0  0  0  0  0  0  0  0  0  0  0
  196.2180  173.2210  138.3090 C   0  0  0  0  0  3  0  0  0  0  0  0
  196.8680  172.7330  139.3960 N   0  0  0  0  0  0  0  0  0  0  0  0
  194.9530  172.7320  137.9630 C   0  0  0  0  0  0  0  0  0  0  0  0
  196.9910  170.9460  141.2000 C   0  0  0  0  0  2  0  0  0  0  0  0
  196.0410  169.8500  141.4580 N   0  0  0  0  0  0  0  0  0  0  0  0
  194.8520  170.1030  140.7170 C   0  0  0  0  0  0  0  0  0  0  0  0
  194.3720  173.1620  136.8010 F   0  0  0  0  0  0  0  0  0  0  0  0
  196.2720  171.7250  140.1460 C   0  0  0  0  0  0  0  0  0  0  0  0
  196.3700  168.8330  142.4650 C   0  0  0  0  0  2  0  0  0  0  0  0
  195.3640  170.2320  144.1650 C   0  0  0  0  0  3  0  0  0  0  0  0
  197.2860  168.9260  144.8690 C   0  0  0  0  0  3  0  0  0  0  0  0
  195.2600  170.7550  145.5540 C   0  0  0  0  0  2  0  0  0  0  0  0
  197.4330  169.6400  145.9340 N   0  0  0  0  0  0  0  0  0  0  0  0
  196.6560  170.8700  146.1710 C   0  0  0  0  0  2  0  0  0  0  0  0
  196.2980  169.3150  143.8610 C   0  0  0  0  0  0  0  0  0  0  0  0
  188.2470  177.8990  144.4960 O   0  0  0  0  0  0  0  0  0  0  0  0
  190.8360  178.4320  143.6010 C   0  0  0  0  0  1  0  0  0  0  0  0
  189.3210  177.4480  146.5070 O   0  0  0  0  0  0  0  0  0  0  0  0
  189.3550  177.4630  145.2260 C   0  0  0  0  0  0  0  0  0  0  0  0
  190.6640  177.4140  144.6050 N   0  0  0  0  0  0  0  0  0  0  0  0
  191.9810  175.2760  145.6380 C   0  0  2  0  0  3  0  0  0  0  0  0
  193.0880  174.4360  144.8400 C   0  0  0  0  0  2  0  0  0  0  0  0
  194.4600  175.1800  144.5110 C   0  0  2  0  0  0  0  0  0  0  0  0
  192.9980  177.0340  144.1280 N   0  0  0  0  0  2  0  0  0  0  0  0
  195.5200  174.5740  145.4090 C   0  0  0  0  0  2  0  0  0  0  0  0
  196.6640  174.0510  144.5400 C   0  0  0  0  0  2  0  0  0  0  0  0
  196.5930  174.7440  143.2210 C   0  0  1  0  0  3  0  0  0  0  0  0
  191.8210  176.6560  144.9700 C   0  0  1  0  0  3  0  0  0  0  0  0
  194.2230  176.6160  144.8140 C   0  0  0  0  0  2  0  0  0  0  0  0
  195.1280  175.1330  143.1010 C   0  0  2  0  0  3  0  0  0  0  0  0
  194.1890  175.2280  140.6440 C   0  0  0  0  0  2  0  0  0  0  0  0
  194.6580  175.9480  141.8770 C   0  0  2  0  0  3  0  0  0  0  0  0
  195.5040  175.7410  140.7380 O   0  0  0  0  0  0  0  0  0  0  0  0
  191.5590  174.8450  148.0370 O   0  0  0  0  0  1  0  0  0  0  0  0
  192.4670  176.8490  147.4480 O   0  0  0  0  0  1  0  0  0  0  0  0
  192.3940  175.4750  147.1230 C   0  0  0  0  0  3  0  0  0  0  0  0
  197.2130  177.1330  143.3070 O   0  0  0  0  0  1  0  0  0  0  0  0
  197.6850  175.8290  143.2860 C   0  0  0  0  0  2  0  0  0  0  0  0
  1  2  1  0  0  0  0
  2  8  2  0  0  0  0
  2  7  1  0  0  0  0
  3 10  1  0  0  0  0
  3  5  2  0  0  0  0
  4  1  2  0  0  0  0
  4  5  1  0  0  0  0
  5  6  1  0  0  0  0
  6  7  1  0  0  0  0
  7 38  1  6  0  0  0
 10  9  2  0  0  0  0
 11 17  1  0  0  0  0
 12 19  1  0  0  0  0
 12 18  1  0  0  0  0
 13 16  1  0  0  0  0
 13 14  1  0  0  0  0
 14 22  1  0  0  0  0
 14 19  1  0  0  0  0
 15 11  1  0  0  0  0
 16 15  1  0  0  0  0
 17 10  1  1  0  0  0
 18 17  1  0  0  0  0
 20 30  1  0  0  0  0
 20 28  1  0  0  0  0
 22 20  2  0  0  0  0
 23 24  1  0  0  0  0
 24 30  2  0  0  0  0
 25 23  2  0  0  0  0
 25 22  1  0  0  0  0
 26 27  1  0  0  0  0
 27 31  1  0  0  0  0
 28 21  2  0  0  0  0
 28 27  1  0  0  0  0
 29 25  1  0  0  0  0
 30 26  1  0  0  0  0
 31 37  1  0  0  0  0
 32 34  1  0  0  0  0
 33 35  2  0  0  0  0
 34 36  1  0  0  0  0
 35 36  1  0  0  0  0
 37 32  2  0  0  0  0
 37 33  1  0  0  0  0
 38 41  1  0  0  0  0
 39 42  1  0  0  0  0
 41 40  2  0  0  0  0
 42 41  1  0  0  0  0
 43 58  1  1  0  0  0
 44 43  1  0  0  0  0
 45 51  1  1  0  0  0
 45 44  1  0  0  0  0
 45 47  1  0  0  0  0
 46 51  1  0  0  0  0
 46 50  1  0  0  0  0
 48 47  1  0  0  0  0
 49 60  1  1  0  0  0
 49 48  1  0  0  0  0
 50 42  1  6  0  0  0
 50 43  1  0  0  0  0
 52 54  1  1  0  0  0
 52 49  1  0  0  0  0
 52 45  1  0  0  0  0
 53 55  1  0  0  0  0
 54 53  1  6  0  0  0
 55 54  1  0  0  0  0
 58 57  1  0  0  0  0
 58 56  1  0  0  0  0
 60 59  1  0  0  0  0
M  END
>  <MODEL>
2

>  <REMARK>
 VINA RESULT:      -6.8      2.020      3.529
  Name = 
  11 active torsions:
  status: ('A' for Active; 'I' for Inactive)
    1  A    between atoms: C_3  and  C_35
    2  A    between atoms: C_11  and  C_54
    3  A    between atoms: C_12  and  N_39
    4  A    between atoms: C_12  and  C_49
    5  A    between atoms: O_19  and  C_33
    6  A    between atoms: O_19  and  C_58
    7  A    between atoms: C_21  and  C_28
    8  A    between atoms: C_22  and  N_38
    9  A    between atoms: C_34  and  N_56
   10  A    between atoms: N_36  and  C_59
   11  A    between atoms: C_45  and  C_59
                            x       y       z     vdW  Elec       q    Type
                         _______ _______ _______ _____ _____    ______ ____

>  <TORSDO>
F 11

$$$$
=
 OpenBabel11072408543D

 60 67  0  0  1  0  0  0  0  0999 V2000
  194.9680  175.4080  144.0150 N   0  0  0  0  0  0  0  0  0  0  0  0
  195.5500  174.4500  144.8020 C   0  0  0  0  0  0  0  0  0  0  0  0
  191.8260  175.7400  145.4630 N   0  0  0  0  0  0  0  0  0  0  0  0
  193.7160  175.7390  144.1500 C   0  0  0  0  0  3  0  0  0  0  0  0
  192.9250  175.0970  145.1760 C   0  0  0  0  0  0  0  0  0  0  0  0
  193.2600  173.7120  145.6250 C   0  0  0  0  0  2  0  0  0  0  0  0
  194.8050  173.3680  145.5190 C   0  0  1  0  0  3  0  0  0  0  0  0
  196.8590  174.4370  144.9020 O   0  0  0  0  0  0  0  0  0  0  0  0
  190.6030  174.6360  147.1670 O   0  0  0  0  0  0  0  0  0  0  0  0
  190.6570  175.4630  146.2060 C   0  0  0  0  0  0  0  0  0  0  0  0
  188.5100  176.5820  146.8760 C   0  0  0  0  0  2  0  0  0  0  0  0
  188.8640  177.9510  143.9760 C   0  0  0  0  0  2  0  0  0  0  0  0
  186.0210  178.3950  144.8260 C   0  0  0  0  0  2  0  0  0  0  0  0
  186.5190  177.7880  143.5700 N   0  0  0  0  0  0  0  0  0  0  0  0
  187.6280  177.8240  146.6650 C   0  0  0  0  0  2  0  0  0  0  0  0
  186.2560  177.5160  146.0610 C   0  0  0  0  0  2  0  0  0  0  0  0
  189.4080  176.1080  145.6870 C   0  0  1  0  0  3  0  0  0  0  0  0
  189.9140  177.2350  144.7930 C   0  0  0  0  0  2  0  0  0  0  0  0
  187.7560  177.0030  143.6280 C   0  0  0  0  0  2  0  0  0  0  0  0
  184.6210  178.1060  141.9730 C   0  0  0  0  0  0  0  0  0  0  0  0
  183.4750  178.8430  143.9960 O   0  0  0  0  0  0  0  0  0  0  0  0
  186.0250  178.0240  142.2650 C   0  0  0  0  0  0  0  0  0  0  0  0
  186.3500  177.6390  139.8500 C   0  0  0  0  0  3  0  0  0  0  0  0
  185.0080  177.6340  139.6500 N   0  0  0  0  0  0  0  0  0  0  0  0
  186.8740  177.8860  141.1240 C   0  0  0  0  0  0  0  0  0  0  0  0
  182.6990  178.1660  140.5700 C   0  0  0  0  0  2  0  0  0  0  0  0
  182.3490  178.6710  141.9090 N   0  0  0  0  0  0  0  0  0  0  0  0
  183.4920  178.5440  142.7490 C   0  0  0  0  0  0  0  0  0  0  0  0
  188.2300  177.9960  141.2730 F   0  0  0  0  0  0  0  0  0  0  0  0
  184.1620  177.9010  140.7210 C   0  0  0  0  0  0  0  0  0  0  0  0
  180.9610  179.0520  142.1960 C   0  0  0  0  0  2  0  0  0  0  0  0
  180.0790  180.5610  140.5210 C   0  0  0  0  0  3  0  0  0  0  0  0
  179.2980  178.2660  140.3960 C   0  0  0  0  0  3  0  0  0  0  0  0
  179.2570  180.8650  139.3190 C   0  0  0  0  0  2  0  0  0  0  0  0
  178.3220  178.5970  139.6190 N   0  0  0  0  0  0  0  0  0  0  0  0
  177.9910  180.0030  139.3240 C   0  0  0  0  0  2  0  0  0  0  0  0
  180.1390  179.3050  140.9930 C   0  0  0  0  0  0  0  0  0  0  0  0
  195.0810  172.1710  144.8160 O   0  0  0  0  0  0  0  0  0  0  0  0
  195.9460  172.1090  142.1640 C   0  0  0  0  0  1  0  0  0  0  0  0
  193.5790  170.5560  144.0850 O   0  0  0  0  0  0  0  0  0  0  0  0
  194.2880  171.5900  143.8230 C   0  0  0  0  0  0  0  0  0  0  0  0
  194.5510  171.8690  142.4250 N   0  0  0  0  0  0  0  0  0  0  0  0
  193.3540  170.5640  140.3670 C   0  0  2  0  0  3  0  0  0  0  0  0
  191.7670  170.4990  140.1500 C   0  0  0  0  0  2  0  0  0  0  0  0
  191.0340  171.8630  139.7720 C   0  0  2  0  0  0  0  0  0  0  0  0
  192.5910  172.7700  141.3460 N   0  0  0  0  0  2  0  0  0  0  0  0
  190.6280  171.7590  138.3150 C   0  0  0  0  0  2  0  0  0  0  0  0
  189.1200  171.9930  138.2050 C   0  0  0  0  0  2  0  0  0  0  0  0
  188.6760  172.7190  139.4300 C   0  0  1  0  0  3  0  0  0  0  0  0
  193.6850  171.7510  141.2920 C   0  0  1  0  0  3  0  0  0  0  0  0
  192.0360  172.9370  140.0000 C   0  0  0  0  0  2  0  0  0  0  0  0
  189.7190  172.3350  140.4690 C   0  0  2  0  0  3  0  0  0  0  0  0
  189.3550  172.0700  143.0620 C   0  0  0  0  0  2  0  0  0  0  0  0
  189.6440  172.9530  141.8820 C   0  0  2  0  0  3  0  0  0  0  0  0
  188.3340  172.8340  142.4510 O   0  0  0  0  0  0  0  0  0  0  0  0
  193.7880  169.7950  138.0560 O   0  0  0  0  0  1  0  0  0  0  0  0
  195.4960  170.7740  139.2010 O   0  0  0  0  0  1  0  0  0  0  0  0
  194.0950  170.7530  139.0140 C   0  0  0  0  0  3  0  0  0  0  0  0
  187.7220  174.3770  137.8700 O   0  0  0  0  0  1  0  0  0  0  0  0
  188.5210  174.1860  138.9870 C   0  0  0  0  0  2  0  0  0  0  0  0
  1  4  2  0  0  0  0
  1  2  1  0  0  0  0
  2  8  2  0  0  0  0
  2  7  1  0  0  0  0
  3 10  1  0  0  0  0
  4  5  1  0  0  0  0
  5  3  2  0  0  0  0
  5  6  1  0  0  0  0
  7 38  1  6  0  0  0
  7  6  1  0  0  0  0
 10  9  2  0  0  0  0
 12 18  1  0  0  0  0
 13 16  1  0  0  0  0
 14 19  1  0  0  0  0
 14 13  1  0  0  0  0
 15 11  1  0  0  0  0
 16 15  1  0  0  0  0
 17 10  1  1  0  0  0
 17 11  1  0  0  0  0
 18 17  1  0  0  0  0
 19 12  1  0  0  0  0
 20 22  1  0  0  0  0
 20 28  1  0  0  0  0
 22 14  1  0  0  0  0
 23 25  1  0  0  0  0
 24 23  2  0  0  0  0
 24 30  1  0  0  0  0
 25 29  1  0  0  0  0
 25 22  2  0  0  0  0
 26 30  1  0  0  0  0
 26 27  1  0  0  0  0
 27 31  1  0  0  0  0
 27 28  1  0  0  0  0
 28 21  2  0  0  0  0
 30 20  2  0  0  0  0
 32 37  2  0  0  0  0
 33 37  1  0  0  0  0
 34 36  1  0  0  0  0
 34 32  1  0  0  0  0
 35 33  2  0  0  0  0
 36 35  1  0  0  0  0
 37 31  1  0  0  0  0
 39 42  1  0  0  0  0
 41 40  2  0  0  0  0
 41 38  1  0  0  0  0
 42 41  1  0  0  0  0
 43 58  1  6  0  0  0
 43 50  1  0  0  0  0
 44 43  1  0  0  0  0
 45 47  1  6  0  0  0
 45 51  1  0  0  0  0
 45 44  1  0  0  0  0
 45 52  1  0  0  0  0
 48 47  1  0  0  0  0
 48 49  1  0  0  0  0
 49 60  1  6  0  0  0
 49 52  1  0  0  0  0
 50 46  1  0  0  0  0
 50 42  1  1  0  0  0
 51 46  1  0  0  0  0
 52 54  1  1  0  0  0
 54 55  1  0  0  0  0
 54 53  1  1  0  0  0
 55 53  1  0  0  0  0
 56 58  1  0  0  0  0
 58 57  1  0  0  0  0
 59 60  1  0  0  0  0
M  END
>  <MODEL>
3

>  <REMARK>
 VINA RESULT:      -6.8      3.730     10.722
  Name = 
  11 active torsions:
  status: ('A' for Active; 'I' for Inactive)
    1  A    between atoms: C_3  and  C_35
    2  A    between atoms: C_11  and  C_54
    3  A    between atoms: C_12  and  N_39
    4  A    between atoms: C_12  and  C_49
    5  A    between atoms: O_19  and  C_33
    6  A    between atoms: O_19  and  C_58
    7  A    between atoms: C_21  and  C_28
    8  A    between atoms: C_22  and  N_38
    9  A    between atoms: C_34  and  N_56
   10  A    between atoms: N_36  and  C_59
   11  A    between atoms: C_45  and  C_59
                            x       y       z     vdW  Elec       q    Type
                         _______ _______ _______ _____ _____    ______ ____

>  <TORSDO>
F 11

$$$$
=
 OpenBabel11072408543D

 60 67  0  0  1  0  0  0  0  0999 V2000
  188.1910  175.6690  146.8960 N   0  0  0  0  0  0  0  0  0  0  0  0
  187.8840  176.9450  146.5050 C   0  0  0  0  0  0  0  0  0  0  0  0
  191.6610  175.7660  147.0680 N   0  0  0  0  0  0  0  0  0  0  0  0
  189.4210  175.2470  146.9590 C   0  0  0  0  0  3  0  0  0  0  0  0
  190.4940  176.1590  146.6320 C   0  0  0  0  0  0  0  0  0  0  0  0
  190.2620  177.2790  145.6700 C   0  0  0  0  0  2  0  0  0  0  0  0
  188.7710  177.8180  145.6740 C   0  0  1  0  0  3  0  0  0  0  0  0
  186.7100  177.4320  146.8330 O   0  0  0  0  0  0  0  0  0  0  0  0
  193.5330  177.1820  147.3920 O   0  0  0  0  0  0  0  0  0  0  0  0
  193.0010  176.1580  146.8620 C   0  0  0  0  0  0  0  0  0  0  0  0
  195.2760  175.3580  146.1560 C   0  0  0  0  0  2  0  0  0  0  0  0
  193.5170  173.0110  144.8110 C   0  0  0  0  0  2  0  0  0  0  0  0
  196.2450  172.9010  143.5660 C   0  0  0  0  0  2  0  0  0  0  0  0
  194.9310  173.0000  142.8890 N   0  0  0  0  0  0  0  0  0  0  0  0
  196.0960  174.1210  145.7520 C   0  0  0  0  0  2  0  0  0  0  0  0
  196.6380  174.1760  144.3210 C   0  0  0  0  0  2  0  0  0  0  0  0
  193.7450  175.3610  145.8350 C   0  0  1  0  0  3  0  0  0  0  0  0
  193.0900  173.9850  145.8850 C   0  0  0  0  0  2  0  0  0  0  0  0
  193.8680  173.7560  143.5580 C   0  0  0  0  0  2  0  0  0  0  0  0
  194.1320  172.9570  140.5200 C   0  0  0  0  0  0  0  0  0  0  0  0
  195.2740  175.1120  140.4440 O   0  0  0  0  0  0  0  0  0  0  0  0
  194.5210  172.2940  141.7330 C   0  0  0  0  0  0  0  0  0  0  0  0
  193.3380  170.3170  140.8510 C   0  0  0  0  0  3  0  0  0  0  0  0
  192.9230  171.0240  139.7700 N   0  0  0  0  0  0  0  0  0  0  0  0
  194.1740  170.9100  141.8040 C   0  0  0  0  0  0  0  0  0  0  0  0
  193.1720  173.1150  138.3470 C   0  0  0  0  0  2  0  0  0  0  0  0
  194.0450  174.2780  138.5880 N   0  0  0  0  0  0  0  0  0  0  0  0
  194.5370  174.2010  139.9210 C   0  0  0  0  0  0  0  0  0  0  0  0
  194.6670  170.1400  142.8230 F   0  0  0  0  0  0  0  0  0  0  0  0
  193.3580  172.3340  139.6080 C   0  0  0  0  0  0  0  0  0  0  0  0
  194.1480  175.3260  137.5650 C   0  0  0  0  0  2  0  0  0  0  0  0
  196.5430  175.1530  137.2570 C   0  0  0  0  0  3  0  0  0  0  0  0
  195.2190  175.2600  135.2250 C   0  0  0  0  0  3  0  0  0  0  0  0
  197.7620  175.0370  136.4110 C   0  0  0  0  0  2  0  0  0  0  0  0
  196.2600  175.5370  134.5130 N   0  0  0  0  0  0  0  0  0  0  0  0
  197.5720  175.8320  135.1160 C   0  0  0  0  0  2  0  0  0  0  0  0
  195.3290  175.1990  136.6830 C   0  0  0  0  0  0  0  0  0  0  0  0
  188.1750  177.8740  144.3910 O   0  0  0  0  0  0  0  0  0  0  0  0
  186.4920  176.0120  143.1710 C   0  0  0  0  0  1  0  0  0  0  0  0
  189.3290  177.7540  142.3770 O   0  0  0  0  0  0  0  0  0  0  0  0
  188.5910  177.1790  143.2530 C   0  0  0  0  0  0  0  0  0  0  0  0
  187.8930  175.9790  142.8360 N   0  0  0  0  0  0  0  0  0  0  0  0
  188.0210  173.3970  142.0080 C   0  0  2  0  0  3  0  0  0  0  0  0
  187.7250  172.9230  140.5050 C   0  0  0  0  0  2  0  0  0  0  0  0
  188.7630  173.3810  139.3860 C   0  0  2  0  0  0  0  0  0  0  0  0
  188.7600  175.4070  140.6590 N   0  0  0  0  0  2  0  0  0  0  0  0
  189.5470  172.1500  138.9760 C   0  0  0  0  0  2  0  0  0  0  0  0
  189.4140  171.9600  137.4650 C   0  0  0  0  0  2  0  0  0  0  0  0
  189.0160  173.2690  136.8700 C   0  0  1  0  0  3  0  0  0  0  0  0
  188.3400  174.9040  142.0040 C   0  0  1  0  0  3  0  0  0  0  0  0
  189.6260  174.4060  140.0310 C   0  0  0  0  0  2  0  0  0  0  0  0
  188.3170  173.9840  138.0160 C   0  0  2  0  0  3  0  0  0  0  0  0
  186.3780  175.6610  137.4260 C   0  0  0  0  0  2  0  0  0  0  0  0
  187.8110  175.4270  137.8130 C   0  0  2  0  0  3  0  0  0  0  0  0
  187.4090  175.6690  136.4580 O   0  0  0  0  0  0  0  0  0  0  0  0
  188.8730  171.5760  143.4490 O   0  0  0  0  0  1  0  0  0  0  0  0
  190.0880  173.4970  143.3130 O   0  0  0  0  0  1  0  0  0  0  0  0
  189.2280  172.6240  142.6090 C   0  0  0  0  0  3  0  0  0  0  0  0
  190.4730  173.6260  134.9090 O   0  0  0  0  0  1  0  0  0  0  0  0
  190.3140  173.8410  136.2700 C   0  0  0  0  0  2  0  0  0  0  0  0
  1  4  2  0  0  0  0
  2  8  2  0  0  0  0
  2  1  1  0  0  0  0
  5  4  1  0  0  0  0
  5  3  2  0  0  0  0
  6  7  1  0  0  0  0
  6  5  1  0  0  0  0
  7 38  1  6  0  0  0
  7  2  1  0  0  0  0
 10  3  1  0  0  0  0
 10  9  2  0  0  0  0
 12 18  1  0  0  0  0
 13 16  1  0  0  0  0
 14 19  1  0  0  0  0
 14 13  1  0  0  0  0
 15 11  1  0  0  0  0
 16 15  1  0  0  0  0
 17 18  1  0  0  0  0
 17 11  1  0  0  0  0
 17 10  1  1  0  0  0
 19 12  1  0  0  0  0
 20 22  1  0  0  0  0
 22 25  2  0  0  0  0
 22 14  1  0  0  0  0
 23 25  1  0  0  0  0
 24 23  2  0  0  0  0
 25 29  1  0  0  0  0
 26 27  1  0  0  0  0
 26 30  1  0  0  0  0
 27 28  1  0  0  0  0
 28 21  2  0  0  0  0
 28 20  1  0  0  0  0
 30 24  1  0  0  0  0
 30 20  2  0  0  0  0
 31 27  1  0  0  0  0
 33 37  1  0  0  0  0
 34 32  1  0  0  0  0
 35 36  1  0  0  0  0
 35 33  2  0  0  0  0
 36 34  1  0  0  0  0
 37 32  2  0  0  0  0
 37 31  1  0  0  0  0
 40 41  2  0  0  0  0
 41 38  1  0  0  0  0
 42 39  1  0  0  0  0
 42 41  1  0  0  0  0
 43 58  1  6  0  0  0
 44 43  1  0  0  0  0
 45 47  1  6  0  0  0
 45 51  1  0  0  0  0
 45 44  1  0  0  0  0
 46 50  1  0  0  0  0
 48 47  1  0  0  0  0
 49 60  1  1  0  0  0
 49 48  1  0  0  0  0
 49 52  1  0  0  0  0
 50 43  1  0  0  0  0
 50 42  1  6  0  0  0
 51 46  1  0  0  0  0
 52 54  1  1  0  0  0
 52 45  1  0  0  0  0
 54 53  1  1  0  0  0
 55 53  1  0  0  0  0
 55 54  1  0  0  0  0
 58 57  1  0  0  0  0
 58 56  1  0  0  0  0
 59 60  1  0  0  0  0
M  END
>  <MODEL>
4

>  <REMARK>
 VINA RESULT:      -6.5      2.574      6.299
  Name = 
  11 active torsions:
  status: ('A' for Active; 'I' for Inactive)
    1  A    between atoms: C_3  and  C_35
    2  A    between atoms: C_11  and  C_54
    3  A    between atoms: C_12  and  N_39
    4  A    between atoms: C_12  and  C_49
    5  A    between atoms: O_19  and  C_33
    6  A    between atoms: O_19  and  C_58
    7  A    between atoms: C_21  and  C_28
    8  A    between atoms: C_22  and  N_38
    9  A    between atoms: C_34  and  N_56
   10  A    between atoms: N_36  and  C_59
   11  A    between atoms: C_45  and  C_59
                            x       y       z     vdW  Elec       q    Type
                         _______ _______ _______ _____ _____    ______ ____

>  <TORSDO>
F 11

$$$$
=
 OpenBabel11072408543D

 60 67  0  0  1  0  0  0  0  0999 V2000
  190.0640  174.1500  136.6120 N   0  0  0  0  0  0  0  0  0  0  0  0
  188.8180  174.4000  137.1250 C   0  0  0  0  0  0  0  0  0  0  0  0
  190.7570  170.9870  137.8730 N   0  0  0  0  0  0  0  0  0  0  0  0
  190.7480  173.0960  136.9540 C   0  0  0  0  0  3  0  0  0  0  0  0
  190.1670  172.1510  137.8810 C   0  0  0  0  0  0  0  0  0  0  0  0
  189.1710  172.6090  138.8960 C   0  0  0  0  0  2  0  0  0  0  0  0
  188.3030  173.8470  138.4170 C   0  0  1  0  0  3  0  0  0  0  0  0
  188.0300  175.2230  136.4740 O   0  0  0  0  0  0  0  0  0  0  0  0
  189.7340  169.0370  138.7480 O   0  0  0  0  0  0  0  0  0  0  0  0
  190.7220  169.8300  138.6820 C   0  0  0  0  0  0  0  0  0  0  0  0
  193.0370  168.8740  138.8840 C   0  0  0  0  0  2  0  0  0  0  0  0
  193.3100  171.2240  141.0770 C   0  0  0  0  0  2  0  0  0  0  0  0
  195.5810  169.3170  141.5330 C   0  0  0  0  0  2  0  0  0  0  0  0
  194.5740  169.7940  142.5080 N   0  0  0  0  0  0  0  0  0  0  0  0
  194.4900  169.1900  139.2780 C   0  0  0  0  0  2  0  0  0  0  0  0
  195.0000  168.3760  140.4700 C   0  0  0  0  0  2  0  0  0  0  0  0
  191.8930  169.6630  139.6010 C   0  0  1  0  0  3  0  0  0  0  0  0
  192.2640  171.0890  139.9940 C   0  0  0  0  0  2  0  0  0  0  0  0
  193.2170  170.0640  142.0210 C   0  0  0  0  0  2  0  0  0  0  0  0
  195.7610  171.2190  144.1860 C   0  0  0  0  0  0  0  0  0  0  0  0
  195.9520  172.7280  142.2780 O   0  0  0  0  0  0  0  0  0  0  0  0
  194.8160  170.1930  143.8450 C   0  0  0  0  0  0  0  0  0  0  0  0
  194.9730  169.4780  146.2000 C   0  0  0  0  0  3  0  0  0  0  0  0
  195.9320  170.4080  146.4390 N   0  0  0  0  0  0  0  0  0  0  0  0
  194.3690  169.3920  144.9400 C   0  0  0  0  0  0  0  0  0  0  0  0
  197.1380  172.5000  145.6450 C   0  0  0  0  0  2  0  0  0  0  0  0
  196.9650  173.2200  144.3720 N   0  0  0  0  0  0  0  0  0  0  0  0
  196.2100  172.3960  143.4900 C   0  0  0  0  0  0  0  0  0  0  0  0
  193.3290  168.5210  144.7620 F   0  0  0  0  0  0  0  0  0  0  0  0
  196.2880  171.2900  145.4250 C   0  0  0  0  0  0  0  0  0  0  0  0
  197.6590  174.4970  144.1650 C   0  0  0  0  0  2  0  0  0  0  0  0
  195.9380  175.8160  143.0900 C   0  0  0  0  0  3  0  0  0  0  0  0
  197.9110  175.3560  141.7510 C   0  0  0  0  0  3  0  0  0  0  0  0
  195.3930  176.5990  141.9480 C   0  0  0  0  0  2  0  0  0  0  0  0
  197.3020  175.6950  140.6640 N   0  0  0  0  0  0  0  0  0  0  0  0
  195.8570  175.9800  140.6260 C   0  0  0  0  0  2  0  0  0  0  0  0
  197.1650  175.2760  143.0090 C   0  0  0  0  0  0  0  0  0  0  0  0
  188.2900  174.9290  139.3290 O   0  0  0  0  0  0  0  0  0  0  0  0
  187.3270  177.0070  140.9240 C   0  0  0  0  0  1  0  0  0  0  0  0
  188.1710  173.7130  141.3050 O   0  0  0  0  0  0  0  0  0  0  0  0
  188.3450  174.8400  140.7220 C   0  0  0  0  0  0  0  0  0  0  0  0
  188.1910  176.0300  141.5350 N   0  0  0  0  0  0  0  0  0  0  0  0
  187.8550  176.1510  144.2260 C   0  0  2  0  0  3  0  0  0  0  0  0
  188.8010  175.4000  145.2810 C   0  0  0  0  0  2  0  0  0  0  0  0
  190.3040  175.9180  145.3990 C   0  0  2  0  0  0  0  0  0  0  0  0
  190.0840  176.1330  143.0270 N   0  0  0  0  0  2  0  0  0  0  0  0
  190.4210  176.6420  146.7260 C   0  0  0  0  0  2  0  0  0  0  0  0
  191.5520  176.0070  147.5360 C   0  0  0  0  0  2  0  0  0  0  0  0
  192.4440  175.2780  146.5890 C   0  0  1  0  0  3  0  0  0  0  0  0
  188.6010  176.2740  142.8840 C   0  0  1  0  0  3  0  0  0  0  0  0
  190.5090  176.8300  144.2430 C   0  0  0  0  0  2  0  0  0  0  0  0
  191.5300  174.9520  145.4180 C   0  0  2  0  0  3  0  0  0  0  0  0
  191.5360  172.9300  143.7330 C   0  0  0  0  0  2  0  0  0  0  0  0
  192.1130  174.2450  144.1760 C   0  0  2  0  0  3  0  0  0  0  0  0
  192.7170  172.9880  144.5080 O   0  0  0  0  0  0  0  0  0  0  0  0
  187.1060  177.6250  146.0670 O   0  0  0  0  0  1  0  0  0  0  0  0
  186.4370  178.1260  143.9480 O   0  0  0  0  0  1  0  0  0  0  0  0
  187.4770  177.5730  144.7290 C   0  0  0  0  0  3  0  0  0  0  0  0
  194.8890  175.5690  146.4060 O   0  0  0  0  0  1  0  0  0  0  0  0
  193.6580  176.2060  146.3960 C   0  0  0  0  0  2  0  0  0  0  0  0
  1  4  2  0  0  0  0
  1  2  1  0  0  0  0
  2  7  1  0  0  0  0
  3  5  2  0  0  0  0
  3 10  1  0  0  0  0
  4  5  1  0  0  0  0
  5  6  1  0  0  0  0
  7  6  1  0  0  0  0
  7 38  1  1  0  0  0
  8  2  2  0  0  0  0
 10  9  2  0  0  0  0
 11 15  1  0  0  0  0
 11 17  1  0  0  0  0
 12 19  1  0  0  0  0
 13 14  1  0  0  0  0
 14 22  1  0  0  0  0
 15 16  1  0  0  0  0
 16 13  1  0  0  0  0
 17 10  1  6  0  0  0
 17 18  1  0  0  0  0
 18 12  1  0  0  0  0
 19 14  1  0  0  0  0
 20 30  1  0  0  0  0
 21 28  2  0  0  0  0
 22 20  2  0  0  0  0
 22 25  1  0  0  0  0
 23 24  1  0  0  0  0
 25 23  2  0  0  0  0
 27 26  1  0  0  0  0
 28 20  1  0  0  0  0
 28 27  1  0  0  0  0
 29 25  1  0  0  0  0
 30 26  1  0  0  0  0
 30 24  2  0  0  0  0
 31 27  1  0  0  0  0
 33 37  1  0  0  0  0
 34 32  1  0  0  0  0
 35 33  2  0  0  0  0
 36 35  1  0  0  0  0
 36 34  1  0  0  0  0
 37 32  2  0  0  0  0
 37 31  1  0  0  0  0
 38 41  1  0  0  0  0
 39 42  1  0  0  0  0
 41 40  2  0  0  0  0
 41 42  1  0  0  0  0
 43 58  1  1  0  0  0
 43 44  1  0  0  0  0
 44 45  1  0  0  0  0
 45 51  1  6  0  0  0
 45 52  1  0  0  0  0
 45 47  1  0  0  0  0
 46 51  1  0  0  0  0
 47 48  1  0  0  0  0
 49 60  1  6  0  0  0
 49 48  1  0  0  0  0
 50 42  1  6  0  0  0
 50 46  1  0  0  0  0
 50 43  1  0  0  0  0
 52 54  1  6  0  0  0
 52 49  1  0  0  0  0
 53 55  1  0  0  0  0
 54 53  1  6  0  0  0
 54 55  1  0  0  0  0
 57 58  1  0  0  0  0
 58 56  1  0  0  0  0
 60 59  1  0  0  0  0
M  END
>  <MODEL>
5

>  <REMARK>
 VINA RESULT:      -6.4      2.365      5.213
  Name = 
  11 active torsions:
  status: ('A' for Active; 'I' for Inactive)
    1  A    between atoms: C_3  and  C_35
    2  A    between atoms: C_11  and  C_54
    3  A    between atoms: C_12  and  N_39
    4  A    between atoms: C_12  and  C_49
    5  A    between atoms: O_19  and  C_33
    6  A    between atoms: O_19  and  C_58
    7  A    between atoms: C_21  and  C_28
    8  A    between atoms: C_22  and  N_38
    9  A    between atoms: C_34  and  N_56
   10  A    between atoms: N_36  and  C_59
   11  A    between atoms: C_45  and  C_59
                            x       y       z     vdW  Elec       q    Type
                         _______ _______ _______ _____ _____    ______ ____

>  <TORSDO>
F 11

$$$$
=
 OpenBabel11072408543D

 60 67  0  0  1  0  0  0  0  0999 V2000
  193.7980  176.5940  146.5450 N   0  0  0  0  0  0  0  0  0  0  0  0
  194.3060  175.3920  146.1260 C   0  0  0  0  0  0  0  0  0  0  0  0
  190.4170  175.8770  146.9110 N   0  0  0  0  0  0  0  0  0  0  0  0
  192.5180  176.7880  146.6810 C   0  0  0  0  0  3  0  0  0  0  0  0
  191.6080  175.6980  146.4070 C   0  0  0  0  0  0  0  0  0  0  0  0
  191.9810  174.6370  145.4230 C   0  0  0  0  0  2  0  0  0  0  0  0
  193.5430  174.3730  145.3380 C   0  0  1  0  0  3  0  0  0  0  0  0
  195.5650  175.1240  146.3820 O   0  0  0  0  0  0  0  0  0  0  0  0
  188.9480  174.0190  147.0050 O   0  0  0  0  0  0  0  0  0  0  0  0
  189.1590  175.2500  146.7780 C   0  0  0  0  0  0  0  0  0  0  0  0
  187.3680  176.9270  147.3180 C   0  0  0  0  0  2  0  0  0  0  0  0
  187.9280  177.8100  144.2670 C   0  0  0  0  0  2  0  0  0  0  0  0
  185.3080  179.0280  145.0760 C   0  0  0  0  0  2  0  0  0  0  0  0
  185.5980  178.1720  143.9030 N   0  0  0  0  0  0  0  0  0  0  0  0
  186.8020  178.3110  146.9590 C   0  0  0  0  0  2  0  0  0  0  0  0
  185.3730  178.2740  146.4100 C   0  0  0  0  0  2  0  0  0  0  0  0
  188.0810  176.1100  146.1920 C   0  0  1  0  0  3  0  0  0  0  0  0
  188.8070  176.9650  145.1590 C   0  0  0  0  0  2  0  0  0  0  0  0
  186.6130  177.1240  144.0500 C   0  0  0  0  0  2  0  0  0  0  0  0
  183.7260  178.3960  142.2600 C   0  0  0  0  0  0  0  0  0  0  0  0
  182.5180  179.1520  144.2400 O   0  0  0  0  0  0  0  0  0  0  0  0
  185.1260  178.3610  142.5820 C   0  0  0  0  0  0  0  0  0  0  0  0
  185.5110  177.9240  140.1860 C   0  0  0  0  0  3  0  0  0  0  0  0
  184.1740  177.8760  139.9590 N   0  0  0  0  0  0  0  0  0  0  0  0
  186.0020  178.2170  141.4630 C   0  0  0  0  0  0  0  0  0  0  0  0
  181.8330  178.3680  140.8180 C   0  0  0  0  0  2  0  0  0  0  0  0
  181.4420  178.8960  142.1360 N   0  0  0  0  0  0  0  0  0  0  0  0
  182.5700  178.8230  143.0010 C   0  0  0  0  0  0  0  0  0  0  0  0
  187.3510  178.3690  141.6360 F   0  0  0  0  0  0  0  0  0  0  0  0
  183.2990  178.1470  141.0050 C   0  0  0  0  0  0  0  0  0  0  0  0
  180.0380  179.2460  142.3850 C   0  0  0  0  0  2  0  0  0  0  0  0
  178.8050  177.5130  141.2290 C   0  0  0  0  0  3  0  0  0  0  0  0
  178.6220  179.7470  140.2940 C   0  0  0  0  0  3  0  0  0  0  0  0
  177.8820  177.0350  140.1640 C   0  0  0  0  0  2  0  0  0  0  0  0
  178.1480  179.2880  139.1840 N   0  0  0  0  0  0  0  0  0  0  0  0
  178.1010  177.8460  138.8840 C   0  0  0  0  0  2  0  0  0  0  0  0
  179.1070  178.8190  141.3180 C   0  0  0  0  0  0  0  0  0  0  0  0
  194.0650  174.4230  144.0240 O   0  0  0  0  0  0  0  0  0  0  0  0
  193.0640  174.6110  141.4250 C   0  0  0  0  0  1  0  0  0  0  0  0
  195.2240  172.6030  143.1600 O   0  0  0  0  0  0  0  0  0  0  0  0
  194.1830  173.3500  143.1370 C   0  0  0  0  0  0  0  0  0  0  0  0
  193.3670  173.3010  141.9400 N   0  0  0  0  0  0  0  0  0  0  0  0
  192.6630  170.7200  141.4790 C   0  0  2  0  0  3  0  0  0  0  0  0
  191.3520  170.2810  140.6670 C   0  0  0  0  0  2  0  0  0  0  0  0
  191.3230  170.6150  139.1090 C   0  0  2  0  0  0  0  0  0  0  0  0
  192.3850  172.6290  139.8410 N   0  0  0  0  0  2  0  0  0  0  0  0
  191.4830  169.3010  138.3700 C   0  0  0  0  0  2  0  0  0  0  0  0
  190.3030  169.1260  137.4130 C   0  0  0  0  0  2  0  0  0  0  0  0
  189.7060  170.4710  137.1660 C   0  0  1  0  0  3  0  0  0  0  0  0
  193.0050  172.1800  141.1270 C   0  0  1  0  0  3  0  0  0  0  0  0
  192.4670  171.5340  138.8710 C   0  0  0  0  0  2  0  0  0  0  0  0
  190.0870  171.2630  138.4070 C   0  0  2  0  0  3  0  0  0  0  0  0
  188.7050  173.1990  139.5320 C   0  0  0  0  0  2  0  0  0  0  0  0
  189.7040  172.7550  138.5010 C   0  0  2  0  0  3  0  0  0  0  0  0
  188.3220  172.9740  138.1890 O   0  0  0  0  0  0  0  0  0  0  0  0
  193.5680  168.4610  141.0320 O   0  0  0  0  0  1  0  0  0  0  0  0
  194.9270  169.9830  142.0430 O   0  0  0  0  0  1  0  0  0  0  0  0
  193.8730  169.8140  141.1170 C   0  0  0  0  0  3  0  0  0  0  0  0
  191.4110  171.6240  135.8030 O   0  0  0  0  0  1  0  0  0  0  0  0
  190.2360  170.8890  135.7810 C   0  0  0  0  0  2  0  0  0  0  0  0
  1  4  2  0  0  0  0
  2  8  2  0  0  0  0
  2  1  1  0  0  0  0
  5  4  1  0  0  0  0
  5  3  2  0  0  0  0
  6  5  1  0  0  0  0
  7 38  1  6  0  0  0
  7  6  1  0  0  0  0
  7  2  1  0  0  0  0
 10  3  1  0  0  0  0
 10  9  2  0  0  0  0
 12 18  1  0  0  0  0
 13 16  1  0  0  0  0
 14 19  1  0  0  0  0
 14 13  1  0  0  0  0
 15 11  1  0  0  0  0
 16 15  1  0  0  0  0
 17 10  1  1  0  0  0
 17 11  1  0  0  0  0
 18 17  1  0  0  0  0
 19 12  1  0  0  0  0
 20 22  1  0  0  0  0
 20 28  1  0  0  0  0
 22 14  1  0  0  0  0
 23 25  1  0  0  0  0
 24 23  2  0  0  0  0
 24 30  1  0  0  0  0
 25 29  1  0  0  0  0
 25 22  2  0  0  0  0
 26 30  1  0  0  0  0
 26 27  1  0  0  0  0
 27 31  1  0  0  0  0
 27 28  1  0  0  0  0
 28 21  2  0  0  0  0
 30 20  2  0  0  0  0
 32 37  2  0  0  0  0
 33 37  1  0  0  0  0
 34 32  1  0  0  0  0
 35 33  2  0  0  0  0
 36 35  1  0  0  0  0
 36 34  1  0  0  0  0
 37 31  1  0  0  0  0
 39 42  1  0  0  0  0
 41 40  2  0  0  0  0
 41 38  1  0  0  0  0
 42 41  1  0  0  0  0
 43 58  1  6  0  0  0
 44 43  1  0  0  0  0
 45 47  1  6  0  0  0
 45 44  1  0  0  0  0
 46 50  1  0  0  0  0
 48 47  1  0  0  0  0
 49 60  1  6  0  0  0
 49 48  1  0  0  0  0
 49 52  1  0  0  0  0
 50 43  1  0  0  0  0
 50 42  1  1  0  0  0
 51 45  1  0  0  0  0
 51 46  1  0  0  0  0
 52 54  1  6  0  0  0
 52 45  1  0  0  0  0
 54 53  1  1  0  0  0
 55 54  1  0  0  0  0
 55 53  1  0  0  0  0
 56 58  1  0  0  0  0
 58 57  1  0  0  0  0
 60 59  1  0  0  0  0
M  END
>  <MODEL>
6

>  <REMARK>
 VINA RESULT:      -6.1      4.142     11.030
  Name = 
  11 active torsions:
  status: ('A' for Active; 'I' for Inactive)
    1  A    between atoms: C_3  and  C_35
    2  A    between atoms: C_11  and  C_54
    3  A    between atoms: C_12  and  N_39
    4  A    between atoms: C_12  and  C_49
    5  A    between atoms: O_19  and  C_33
    6  A    between atoms: O_19  and  C_58
    7  A    between atoms: C_21  and  C_28
    8  A    between atoms: C_22  and  N_38
    9  A    between atoms: C_34  and  N_56
   10  A    between atoms: N_36  and  C_59
   11  A    between atoms: C_45  and  C_59
                            x       y       z     vdW  Elec       q    Type
                         _______ _______ _______ _____ _____    ______ ____

>  <TORSDO>
F 11

$$$$
=
 OpenBabel11072408543D

 60 67  0  0  1  0  0  0  0  0999 V2000
  194.7640  175.9690  144.2730 N   0  0  0  0  0  0  0  0  0  0  0  0
  195.3340  174.8690  144.8570 C   0  0  0  0  0  0  0  0  0  0  0  0
  191.5610  175.9430  145.6200 N   0  0  0  0  0  0  0  0  0  0  0  0
  193.5020  176.2490  144.4220 C   0  0  0  0  0  3  0  0  0  0  0  0
  192.6840  175.3900  145.2480 C   0  0  0  0  0  0  0  0  0  0  0  0
  193.0280  173.9440  145.4010 C   0  0  0  0  0  2  0  0  0  0  0  0
  194.5820  173.6480  145.2890 C   0  0  1  0  0  3  0  0  0  0  0  0
  196.6370  174.8480  145.0090 O   0  0  0  0  0  0  0  0  0  0  0  0
  190.3100  174.5390  147.0610 O   0  0  0  0  0  0  0  0  0  0  0  0
  190.3700  175.4990  146.2340 C   0  0  0  0  0  0  0  0  0  0  0  0
  188.2430  176.6460  146.9230 C   0  0  0  0  0  2  0  0  0  0  0  0
  188.5540  177.9610  143.9940 C   0  0  0  0  0  2  0  0  0  0  0  0
  185.7300  178.4420  144.8880 C   0  0  0  0  0  2  0  0  0  0  0  0
  186.2000  177.8100  143.6340 N   0  0  0  0  0  0  0  0  0  0  0  0
  187.3670  177.8910  146.7060 C   0  0  0  0  0  2  0  0  0  0  0  0
  185.9820  177.5830  146.1330 C   0  0  0  0  0  2  0  0  0  0  0  0
  189.1160  176.1440  145.7270 C   0  0  1  0  0  3  0  0  0  0  0  0
  189.6140  177.2520  144.8040 C   0  0  0  0  0  2  0  0  0  0  0  0
  187.4330  177.0160  143.6830 C   0  0  0  0  0  2  0  0  0  0  0  0
  184.2800  178.1740  142.0750 C   0  0  0  0  0  0  0  0  0  0  0  0
  183.2300  179.0420  144.0990 O   0  0  0  0  0  0  0  0  0  0  0  0
  185.6850  178.0270  142.3340 C   0  0  0  0  0  0  0  0  0  0  0  0
  185.9220  177.5410  139.9270 C   0  0  0  0  0  3  0  0  0  0  0  0
  184.5770  177.6020  139.7620 N   0  0  0  0  0  0  0  0  0  0  0  0
  186.4940  177.8030  141.1780 C   0  0  0  0  0  0  0  0  0  0  0  0
  182.3260  178.2900  140.7200 C   0  0  0  0  0  2  0  0  0  0  0  0
  182.0400  178.8590  142.0480 N   0  0  0  0  0  0  0  0  0  0  0  0
  183.1970  178.7000  142.8630 C   0  0  0  0  0  0  0  0  0  0  0  0
  187.8570  177.8450  141.2870 F   0  0  0  0  0  0  0  0  0  0  0  0
  183.7760  177.9520  140.8430 C   0  0  0  0  0  0  0  0  0  0  0  0
  180.6830  179.3250  142.3570 C   0  0  0  0  0  2  0  0  0  0  0  0
  179.0970  177.5520  141.9070 C   0  0  0  0  0  3  0  0  0  0  0  0
  179.2500  179.2900  140.2190 C   0  0  0  0  0  3  0  0  0  0  0  0
  178.0410  176.9010  141.0850 C   0  0  0  0  0  2  0  0  0  0  0  0
  178.6360  178.5580  139.3510 N   0  0  0  0  0  0  0  0  0  0  0  0
  178.3180  177.1400  139.5990 C   0  0  0  0  0  2  0  0  0  0  0  0
  179.6270  178.7220  141.5140 C   0  0  0  0  0  0  0  0  0  0  0  0
  194.9110  172.6360  144.3560 O   0  0  0  0  0  0  0  0  0  0  0  0
  194.7270  173.3280  141.6590 C   0  0  0  0  0  1  0  0  0  0  0  0
  193.7980  170.7160  143.6650 O   0  0  0  0  0  0  0  0  0  0  0  0
  194.0220  171.9690  143.5090 C   0  0  0  0  0  0  0  0  0  0  0  0
  193.6610  172.5450  142.2300 N   0  0  0  0  0  0  0  0  0  0  0  0
  191.1330  172.9650  141.3330 C   0  0  2  0  0  3  0  0  0  0  0  0
  190.7620  173.2300  139.7960 C   0  0  0  0  0  2  0  0  0  0  0  0
  190.9690  172.0170  138.7830 C   0  0  2  0  0  0  0  0  0  0  0  0
  192.9210  171.6490  140.1160 N   0  0  0  0  0  2  0  0  0  0  0  0
  189.5890  171.5170  138.4010 C   0  0  0  0  0  2  0  0  0  0  0  0
  189.4540  171.5560  136.8790 C   0  0  0  0  0  2  0  0  0  0  0  0
  190.8260  171.5760  136.2950 C   0  0  1  0  0  3  0  0  0  0  0  0
  192.5200  172.2960  141.4040 C   0  0  1  0  0  3  0  0  0  0  0  0
  191.7480  170.9950  139.5310 C   0  0  0  0  0  2  0  0  0  0  0  0
  191.6760  172.1820  137.4010 C   0  0  2  0  0  3  0  0  0  0  0  0
  193.8170  173.6710  137.0490 C   0  0  0  0  0  2  0  0  0  0  0  0
  193.2010  172.3090  137.2030 C   0  0  2  0  0  3  0  0  0  0  0  0
  193.5310  172.8640  135.9230 O   0  0  0  0  0  0  0  0  0  0  0  0
  188.8460  172.6280  142.2130 O   0  0  0  0  0  1  0  0  0  0  0  0
  190.5650  171.5480  143.2450 O   0  0  0  0  0  1  0  0  0  0  0  0
  190.0860  172.0360  142.0080 C   0  0  0  0  0  3  0  0  0  0  0  0
  192.1220  169.4800  136.4620 O   0  0  0  0  0  1  0  0  0  0  0  0
  191.0760  170.1300  135.8240 C   0  0  0  0  0  2  0  0  0  0  0  0
  1  4  2  0  0  0  0
  1  2  1  0  0  0  0
  2  8  2  0  0  0  0
  2  7  1  0  0  0  0
  3 10  1  0  0  0  0
  4  5  1  0  0  0  0
  5  6  1  0  0  0  0
  5  3  2  0  0  0  0
  7 38  1  6  0  0  0
  7  6  1  0  0  0  0
 10  9  2  0  0  0  0
 12 18  1  0  0  0  0
 13 16  1  0  0  0  0
 14 19  1  0  0  0  0
 14 13  1  0  0  0  0
 15 11  1  0  0  0  0
 16 15  1  0  0  0  0
 17 10  1  1  0  0  0
 17 11  1  0  0  0  0
 18 17  1  0  0  0  0
 19 12  1  0  0  0  0
 20 22  1  0  0  0  0
 20 28  1  0  0  0  0
 22 14  1  0  0  0  0
 23 25  1  0  0  0  0
 24 23  2  0  0  0  0
 24 30  1  0  0  0  0
 25 29  1  0  0  0  0
 25 22  2  0  0  0  0
 26 30  1  0  0  0  0
 26 27  1  0  0  0  0
 27 31  1  0  0  0  0
 27 28  1  0  0  0  0
 28 21  2  0  0  0  0
 30 20  2  0  0  0  0
 33 37  1  0  0  0  0
 34 32  1  0  0  0  0
 35 36  1  0  0  0  0
 35 33  2  0  0  0  0
 36 34  1  0  0  0  0
 37 32  2  0  0  0  0
 37 31  1  0  0  0  0
 39 42  1  0  0  0  0
 41 40  2  0  0  0  0
 41 38  1  0  0  0  0
 42 41  1  0  0  0  0
 43 50  1  0  0  0  0
 43 58  1  6  0  0  0
 44 43  1  0  0  0  0
 45 47  1  6  0  0  0
 45 51  1  0  0  0  0
 45 44  1  0  0  0  0
 46 50  1  0  0  0  0
 48 47  1  0  0  0  0
 49 60  1  1  0  0  0
 49 48  1  0  0  0  0
 49 52  1  0  0  0  0
 50 42  1  6  0  0  0
 51 46  1  0  0  0  0
 52 54  1  1  0  0  0
 52 45  1  0  0  0  0
 54 53  1  1  0  0  0
 55 53  1  0  0  0  0
 55 54  1  0  0  0  0
 58 56  1  0  0  0  0
 58 57  1  0  0  0  0
 60 59  1  0  0  0  0
M  END
>  <MODEL>
7

>  <REMARK>
 VINA RESULT:      -6.1      3.815     10.821
  Name = 
  11 active torsions:
  status: ('A' for Active; 'I' for Inactive)
    1  A    between atoms: C_3  and  C_35
    2  A    between atoms: C_11  and  C_54
    3  A    between atoms: C_12  and  N_39
    4  A    between atoms: C_12  and  C_49
    5  A    between atoms: O_19  and  C_33
    6  A    between atoms: O_19  and  C_58
    7  A    between atoms: C_21  and  C_28
    8  A    between atoms: C_22  and  N_38
    9  A    between atoms: C_34  and  N_56
   10  A    between atoms: N_36  and  C_59
   11  A    between atoms: C_45  and  C_59
                            x       y       z     vdW  Elec       q    Type
                         _______ _______ _______ _____ _____    ______ ____

>  <TORSDO>
F 11

$$$$
=
 OpenBabel11072408543D

 60 67  0  0  1  0  0  0  0  0999 V2000
  187.6730  177.2460  143.4570 N   0  0  0  0  0  0  0  0  0  0  0  0
  188.4030  176.9690  142.3300 C   0  0  0  0  0  0  0  0  0  0  0  0
  189.8200  176.2320  145.9940 N   0  0  0  0  0  0  0  0  0  0  0  0
  188.0790  176.8930  144.6420 C   0  0  0  0  0  3  0  0  0  0  0  0
  189.3470  176.2130  144.7770 C   0  0  0  0  0  0  0  0  0  0  0  0
  189.8740  175.3740  143.6580 C   0  0  0  0  0  2  0  0  0  0  0  0
  189.4220  175.8770  142.2230 C   0  0  1  0  0  3  0  0  0  0  0  0
  188.1660  177.6700  141.2460 O   0  0  0  0  0  0  0  0  0  0  0  0
  190.8320  175.2850  147.9160 O   0  0  0  0  0  0  0  0  0  0  0  0
  190.8660  175.5810  146.6830 C   0  0  0  0  0  0  0  0  0  0  0  0
  193.1570  176.5070  146.2290 C   0  0  0  0  0  2  0  0  0  0  0  0
  193.7370  173.4300  145.4520 C   0  0  0  0  0  2  0  0  0  0  0  0
  195.9800  175.0690  144.3190 C   0  0  0  0  0  2  0  0  0  0  0  0
  195.0990  174.1100  143.6150 N   0  0  0  0  0  0  0  0  0  0  0  0
  194.6530  176.1590  146.1470 C   0  0  0  0  0  2  0  0  0  0  0  0
  195.2590  176.3510  144.7550 C   0  0  0  0  0  2  0  0  0  0  0  0
  192.1220  175.3850  145.8890 C   0  0  1  0  0  3  0  0  0  0  0  0
  192.5790  173.9770  146.2550 C   0  0  0  0  0  2  0  0  0  0  0  0
  193.7070  173.9960  144.0650 C   0  0  0  0  0  2  0  0  0  0  0  0
  195.4700  173.4130  141.2430 C   0  0  0  0  0  0  0  0  0  0  0  0
  195.7320  175.8170  140.9240 O   0  0  0  0  0  0  0  0  0  0  0  0
  195.4930  173.1480  142.6550 C   0  0  0  0  0  0  0  0  0  0  0  0
  195.5510  170.7580  142.0520 C   0  0  0  0  0  3  0  0  0  0  0  0
  195.4340  171.0660  140.7360 N   0  0  0  0  0  0  0  0  0  0  0  0
  195.6390  171.7730  143.0110 C   0  0  0  0  0  0  0  0  0  0  0  0
  195.5540  172.8520  138.9310 C   0  0  0  0  0  2  0  0  0  0  0  0
  195.7880  174.2960  139.0970 N   0  0  0  0  0  0  0  0  0  0  0  0
  195.6490  174.6170  140.4770 C   0  0  0  0  0  0  0  0  0  0  0  0
  195.8690  171.4330  144.3160 F   0  0  0  0  0  0  0  0  0  0  0  0
  195.4270  172.4020  140.3510 C   0  0  0  0  0  0  0  0  0  0  0  0
  195.9640  175.1400  137.9090 C   0  0  0  0  0  2  0  0  0  0  0  0
  195.0160  175.4910  135.7100 C   0  0  0  0  0  3  0  0  0  0  0  0
  193.4380  174.9210  137.4650 C   0  0  0  0  0  3  0  0  0  0  0  0
  193.8780  175.5220  134.7510 C   0  0  0  0  0  2  0  0  0  0  0  0
  192.4370  175.3080  136.7480 N   0  0  0  0  0  0  0  0  0  0  0  0
  192.6130  176.0090  135.4630 C   0  0  0  0  0  2  0  0  0  0  0  0
  194.8050  175.1460  136.9900 C   0  0  0  0  0  0  0  0  0  0  0  0
  188.8350  174.8720  141.4190 O   0  0  0  0  0  0  0  0  0  0  0  0
  191.4610  174.2530  140.7060 C   0  0  0  0  0  1  0  0  0  0  0  0
  188.7860  172.6570  142.1230 O   0  0  0  0  0  0  0  0  0  0  0  0
  189.2500  173.5420  141.3190 C   0  0  0  0  0  0  0  0  0  0  0  0
  190.4720  173.2100  140.6150 N   0  0  0  0  0  0  0  0  0  0  0  0
  190.4200  170.5180  140.2660 C   0  0  2  0  0  3  0  0  0  0  0  0
  190.2160  169.8030  138.8460 C   0  0  0  0  0  2  0  0  0  0  0  0
  191.3910  169.9640  137.7820 C   0  0  2  0  0  0  0  0  0  0  0  0
  191.4720  172.1820  138.6750 N   0  0  0  0  0  2  0  0  0  0  0  0
  192.0830  168.6200  137.6780 C   0  0  0  0  0  2  0  0  0  0  0  0
  192.0690  168.1680  136.2170 C   0  0  0  0  0  2  0  0  0  0  0  0
  191.8570  169.3730  135.3650 C   0  0  1  0  0  3  0  0  0  0  0  0
  190.8850  171.9690  140.0350 C   0  0  1  0  0  3  0  0  0  0  0  0
  192.2890  171.0160  138.3270 C   0  0  0  0  0  2  0  0  0  0  0  0
  191.1310  170.3400  136.2880 C   0  0  2  0  0  3  0  0  0  0  0  0
  189.3510  172.1570  135.6150 C   0  0  0  0  0  2  0  0  0  0  0  0
  190.7900  171.7580  135.7840 C   0  0  2  0  0  3  0  0  0  0  0  0
  190.1280  171.7300  134.5130 O   0  0  0  0  0  0  0  0  0  0  0  0
  191.0910  168.5150  141.5540 O   0  0  0  0  0  1  0  0  0  0  0  0
  191.8660  170.5440  142.2410 O   0  0  0  0  0  1  0  0  0  0  0  0
  191.4860  169.7730  141.1180 C   0  0  0  0  0  3  0  0  0  0  0  0
  194.1440  168.6580  134.7710 O   0  0  0  0  0  1  0  0  0  0  0  0
  193.2540  169.7200  134.8160 C   0  0  0  0  0  2  0  0  0  0  0  0
  1  4  2  0  0  0  0
  2  1  1  0  0  0  0
  3 10  1  0  0  0  0
  4  5  1  0  0  0  0
  5  3  2  0  0  0  0
  6  5  1  0  0  0  0
  7 38  1  6  0  0  0
  7  2  1  0  0  0  0
  7  6  1  0  0  0  0
  8  2  2  0  0  0  0
 10  9  2  0  0  0  0
 12 18  1  0  0  0  0
 13 16  1  0  0  0  0
 14 19  1  0  0  0  0
 14 13  1  0  0  0  0
 15 11  1  0  0  0  0
 16 15  1  0  0  0  0
 17 11  1  0  0  0  0
 17 18  1  0  0  0  0
 17 10  1  1  0  0  0
 19 12  1  0  0  0  0
 20 22  1  0  0  0  0
 22 25  2  0  0  0  0
 22 14  1  0  0  0  0
 23 25  1  0  0  0  0
 24 23  2  0  0  0  0
 25 29  1  0  0  0  0
 26 27  1  0  0  0  0
 26 30  1  0  0  0  0
 27 28  1  0  0  0  0
 28 21  2  0  0  0  0
 28 20  1  0  0  0  0
 30 24  1  0  0  0  0
 30 20  2  0  0  0  0
 31 27  1  0  0  0  0
 32 37  2  0  0  0  0
 34 36  1  0  0  0  0
 34 32  1  0  0  0  0
 35 33  2  0  0  0  0
 36 35  1  0  0  0  0
 37 33  1  0  0  0  0
 37 31  1  0  0  0  0
 41 38  1  0  0  0  0
 41 40  2  0  0  0  0
 42 39  1  0  0  0  0
 42 41  1  0  0  0  0
 43 58  1  1  0  0  0
 44 43  1  0  0  0  0
 45 47  1  1  0  0  0
 45 51  1  0  0  0  0
 45 44  1  0  0  0  0
 46 50  1  0  0  0  0
 48 47  1  0  0  0  0
 49 60  1  1  0  0  0
 49 48  1  0  0  0  0
 49 52  1  0  0  0  0
 50 43  1  0  0  0  0
 50 42  1  6  0  0  0
 51 46  1  0  0  0  0
 52 54  1  1  0  0  0
 52 45  1  0  0  0  0
 54 53  1  1  0  0  0
 55 53  1  0  0  0  0
 55 54  1  0  0  0  0
 58 56  1  0  0  0  0
 58 57  1  0  0  0  0
 59 60  1  0  0  0  0
M  END
>  <MODEL>
8

>  <REMARK>
 VINA RESULT:      -5.9      2.834      6.666
  Name = 
  11 active torsions:
  status: ('A' for Active; 'I' for Inactive)
    1  A    between atoms: C_3  and  C_35
    2  A    between atoms: C_11  and  C_54
    3  A    between atoms: C_12  and  N_39
    4  A    between atoms: C_12  and  C_49
    5  A    between atoms: O_19  and  C_33
    6  A    between atoms: O_19  and  C_58
    7  A    between atoms: C_21  and  C_28
    8  A    between atoms: C_22  and  N_38
    9  A    between atoms: C_34  and  N_56
   10  A    between atoms: N_36  and  C_59
   11  A    between atoms: C_45  and  C_59
                            x       y       z     vdW  Elec       q    Type
                         _______ _______ _______ _____ _____    ______ ____

>  <TORSDO>
F 11

$$$$
=
 OpenBabel11072408543D

 60 67  0  0  1  0  0  0  0  0999 V2000
  186.3650  177.3390  143.2020 N   0  0  0  0  0  0  0  0  0  0  0  0
  187.3180  177.2840  142.2200 C   0  0  0  0  0  0  0  0  0  0  0  0
  188.0880  176.1330  145.9690 N   0  0  0  0  0  0  0  0  0  0  0  0
  186.5740  176.8490  144.3900 C   0  0  0  0  0  3  0  0  0  0  0  0
  187.8580  176.2550  144.6900 C   0  0  0  0  0  0  0  0  0  0  0  0
  188.6690  175.6300  143.6010 C   0  0  0  0  0  2  0  0  0  0  0  0
  188.4460  176.3000  142.1810 C   0  0  1  0  0  3  0  0  0  0  0  0
  187.2200  178.1140  141.2080 O   0  0  0  0  0  0  0  0  0  0  0  0
  188.7730  174.8270  147.8240 O   0  0  0  0  0  0  0  0  0  0  0  0
  189.0470  175.4700  146.7650 C   0  0  0  0  0  0  0  0  0  0  0  0
  191.1850  176.6290  147.3990 C   0  0  0  0  0  2  0  0  0  0  0  0
  192.4580  174.2070  145.6910 C   0  0  0  0  0  2  0  0  0  0  0  0
  194.5910  176.2940  145.9960 C   0  0  0  0  0  2  0  0  0  0  0  0
  194.0850  175.6750  144.7500 N   0  0  0  0  0  0  0  0  0  0  0  0
  192.6930  176.4330  147.6300 C   0  0  0  0  0  2  0  0  0  0  0  0
  193.5760  177.2290  146.6660 C   0  0  0  0  0  2  0  0  0  0  0  0
  190.4720  175.7000  146.3630 C   0  0  1  0  0  3  0  0  0  0  0  0
  191.0630  174.2970  146.2670 C   0  0  0  0  0  2  0  0  0  0  0  0
  192.6680  175.3030  144.6910 C   0  0  0  0  0  2  0  0  0  0  0  0
  195.9430  174.2990  143.7960 C   0  0  0  0  0  0  0  0  0  0  0  0
  195.4930  172.9260  145.7620 O   0  0  0  0  0  0  0  0  0  0  0  0
  194.8610  175.2330  143.6510 C   0  0  0  0  0  0  0  0  0  0  0  0
  195.8690  175.8310  141.4810 C   0  0  0  0  0  3  0  0  0  0  0  0
  196.9150  175.0000  141.7150 N   0  0  0  0  0  0  0  0  0  0  0  0
  194.8160  175.9190  142.3990 C   0  0  0  0  0  0  0  0  0  0  0  0
  197.8790  173.1000  143.1010 C   0  0  0  0  0  2  0  0  0  0  0  0
  197.2790  172.4360  144.2710 N   0  0  0  0  0  0  0  0  0  0  0  0
  196.1770  173.2180  144.7160 C   0  0  0  0  0  0  0  0  0  0  0  0
  193.7230  176.6790  142.0830 F   0  0  0  0  0  0  0  0  0  0  0  0
  196.9160  174.2190  142.8650 C   0  0  0  0  0  0  0  0  0  0  0  0
  197.9370  171.2550  144.8460 C   0  0  0  0  0  2  0  0  0  0  0  0
  196.3030  169.5890  144.2050 C   0  0  0  0  0  3  0  0  0  0  0  0
  196.7570  169.7660  146.5830 C   0  0  0  0  0  3  0  0  0  0  0  0
  195.3520  168.4850  144.5080 C   0  0  0  0  0  2  0  0  0  0  0  0
  195.6910  169.1000  146.8780 N   0  0  0  0  0  0  0  0  0  0  0  0
  194.6860  168.7330  145.8640 C   0  0  0  0  0  2  0  0  0  0  0  0
  197.0130  170.1550  145.1950 C   0  0  0  0  0  0  0  0  0  0  0  0
  188.1270  175.3800  141.1540 O   0  0  0  0  0  0  0  0  0  0  0  0
  190.8330  174.7110  141.2930 C   0  0  0  0  0  1  0  0  0  0  0  0
  187.8190  173.1210  141.6050 O   0  0  0  0  0  0  0  0  0  0  0  0
  188.5350  174.0450  141.0800 C   0  0  0  0  0  0  0  0  0  0  0  0
  189.9170  173.7200  140.7900 N   0  0  0  0  0  0  0  0  0  0  0  0
  190.1190  171.0300  140.4830 C   0  0  2  0  0  3  0  0  0  0  0  0
  190.1060  170.2880  139.0630 C   0  0  0  0  0  2  0  0  0  0  0  0
  191.3570  170.5370  138.1070 C   0  0  2  0  0  0  0  0  0  0  0  0
  191.1720  172.7620  138.9670 N   0  0  0  0  0  2  0  0  0  0  0  0
  192.1650  169.2540  138.0890 C   0  0  0  0  0  2  0  0  0  0  0  0
  192.3220  168.7900  136.6410 C   0  0  0  0  0  2  0  0  0  0  0  0
  192.0900  169.9650  135.7520 C   0  0  1  0  0  3  0  0  0  0  0  0
  190.4820  172.5130  140.2710 C   0  0  1  0  0  3  0  0  0  0  0  0
  192.1110  171.6660  138.7140 C   0  0  0  0  0  2  0  0  0  0  0  0
  191.2060  170.8760  136.5900 C   0  0  2  0  0  3  0  0  0  0  0  0
  189.3480  172.6570  136.0400 C   0  0  0  0  0  2  0  0  0  0  0  0
  190.7960  172.2560  136.0330 C   0  0  2  0  0  3  0  0  0  0  0  0
  189.9590  172.1400  134.8750 O   0  0  0  0  0  0  0  0  0  0  0  0
  190.8210  169.1120  141.8790 O   0  0  0  0  0  1  0  0  0  0  0  0
  191.3880  171.2060  142.5680 O   0  0  0  0  0  1  0  0  0  0  0  0
  191.1600  170.3850  141.4410 C   0  0  0  0  0  3  0  0  0  0  0  0
  194.5380  169.6520  135.8240 O   0  0  0  0  0  1  0  0  0  0  0  0
  193.4980  170.4230  135.3270 C   0  0  0  0  0  2  0  0  0  0  0  0
  1  4  2  0  0  0  0
  2  1  1  0  0  0  0
  3 10  1  0  0  0  0
  4  5  1  0  0  0  0
  5  3  2  0  0  0  0
  6  5  1  0  0  0  0
  7 38  1  6  0  0  0
  7  2  1  0  0  0  0
  7  6  1  0  0  0  0
  8  2  2  0  0  0  0
 10  9  2  0  0  0  0
 11 15  1  0  0  0  0
 12 18  1  0  0  0  0
 13 16  1  0  0  0  0
 14 13  1  0  0  0  0
 16 15  1  0  0  0  0
 17 10  1  1  0  0  0
 17 11  1  0  0  0  0
 18 17  1  0  0  0  0
 19 14  1  0  0  0  0
 19 12  1  0  0  0  0
 20 28  1  0  0  0  0
 22 20  1  0  0  0  0
 22 14  1  0  0  0  0
 23 24  2  0  0  0  0
 23 25  1  0  0  0  0
 24 30  1  0  0  0  0
 25 22  2  0  0  0  0
 26 27  1  0  0  0  0
 27 28  1  0  0  0  0
 27 31  1  0  0  0  0
 28 21  2  0  0  0  0
 29 25  1  0  0  0  0
 30 26  1  0  0  0  0
 30 20  2  0  0  0  0
 31 37  1  0  0  0  0
 32 34  1  0  0  0  0
 32 37  2  0  0  0  0
 33 35  2  0  0  0  0
 34 36  1  0  0  0  0
 36 35  1  0  0  0  0
 37 33  1  0  0  0  0
 41 38  1  0  0  0  0
 41 40  2  0  0  0  0
 42 41  1  0  0  0  0
 42 39  1  0  0  0  0
 43 58  1  1  0  0  0
 44 43  1  0  0  0  0
 45 47  1  1  0  0  0
 45 51  1  0  0  0  0
 45 44  1  0  0  0  0
 46 50  1  0  0  0  0
 48 47  1  0  0  0  0
 49 60  1  1  0  0  0
 49 52  1  0  0  0  0
 49 48  1  0  0  0  0
 50 43  1  0  0  0  0
 50 42  1  6  0  0  0
 51 46  1  0  0  0  0
 52 54  1  1  0  0  0
 52 45  1  0  0  0  0
 54 53  1  1  0  0  0
 55 54  1  0  0  0  0
 55 53  1  0  0  0  0
 58 56  1  0  0  0  0
 58 57  1  0  0  0  0
 60 59  1  0  0  0  0
M  END
>  <MODEL>
9

>  <REMARK>
 VINA RESULT:      -5.8      2.843      6.877
  Name = 
  11 active torsions:
  status: ('A' for Active; 'I' for Inactive)
    1  A    between atoms: C_3  and  C_35
    2  A    between atoms: C_11  and  C_54
    3  A    between atoms: C_12  and  N_39
    4  A    between atoms: C_12  and  C_49
    5  A    between atoms: O_19  and  C_33
    6  A    between atoms: O_19  and  C_58
    7  A    between atoms: C_21  and  C_28
    8  A    between atoms: C_22  and  N_38
    9  A    between atoms: C_34  and  N_56
   10  A    between atoms: N_36  and  C_59
   11  A    between atoms: C_45  and  C_59
                            x       y       z     vdW  Elec       q    Type
                         _______ _______ _______ _____ _____    ______ ____

>  <TORSDO>
F 11

$$$$
