=
 OpenBabel11072409173D

 39 42  0  0  1  0  0  0  0  0999 V2000
  188.8330  176.9510  143.9410 C   0  0  1  0  0  3  0  0  0  0  0  0
  189.4670  174.6210  143.4130 N   0  0  0  0  0  0  0  0  0  0  0  0
  188.4070  174.1980  140.1530 C   0  0  0  0  0  2  0  0  0  0  0  0
  187.7830  175.4570  142.1350 N   0  0  0  0  0  2  0  0  0  0  0  0
  189.0880  173.5270  142.5300 C   0  0  1  0  0  3  0  0  0  0  0  0
  187.9840  174.1170  141.6200 C   0  0  2  0  0  3  0  0  0  0  0  0
  188.7040  175.6380  143.1980 C   0  0  0  0  0  0  0  0  0  0  0  0
  189.8120  172.1020  140.6070 C   0  0  0  0  0  2  0  0  0  0  0  0
  188.8750  172.8360  139.6380 C   0  0  0  0  0  2  0  0  0  0  0  0
  190.2990  172.9930  141.7550 C   0  0  2  0  0  3  0  0  0  0  0  0
  191.1590  172.2290  142.6480 N   0  0  0  0  0  2  0  0  0  0  0  0
  192.5390  172.4760  142.2540 C   0  0  0  0  0  2  0  0  0  0  0  0
  194.7730  171.7090  143.0520 N   0  0  0  0  0  0  0  0  0  0  0  0
  196.7930  170.9640  144.1940 N   0  0  0  0  0  1  0  0  0  0  0  0
  193.4690  171.9960  143.3140 C   0  0  0  0  0  0  0  0  0  0  0  0
  194.4100  171.3200  145.5040 S   0  0  0  0  0  0  0  0  0  0  0  0
  195.4150  171.3130  144.1660 C   0  0  0  0  0  0  0  0  0  0  0  0
  193.0630  171.8500  144.6410 C   0  0  0  0  0  3  0  0  0  0  0  0
  183.8900  178.2570  146.3740 F   0  0  0  0  0  0  0  0  0  0  0  0
  185.0720  177.9500  145.7870 C   0  0  0  0  0  0  0  0  0  0  0  0
  186.9340  176.4300  145.4920 C   0  0  0  0  0  3  0  0  0  0  0  0
  186.8700  178.5220  144.2700 C   0  0  0  0  0  3  0  0  0  0  0  0
  185.6490  178.8370  144.8740 C   0  0  0  0  0  3  0  0  0  0  0  0
  187.5170  177.3150  144.5770 C   0  0  0  0  0  0  0  0  0  0  0  0
  185.7130  176.7480  146.0960 C   0  0  0  0  0  3  0  0  0  0  0  0
  190.0090  176.9760  144.9440 C   0  0  1  0  0  3  0  0  0  0  0  0
  191.1460  177.8320  144.3980 C   0  0  0  0  0  2  0  0  0  0  0  0
  193.4200  176.6890  144.4540 N   0  0  0  0  0  0  0  0  0  0  0  0
  193.6100  177.1260  145.8290 C   0  0  0  0  0  1  0  0  0  0  0  0
  192.2070  176.9950  143.7500 C   0  0  0  0  0  0  0  0  0  0  0  0
  192.0120  176.5240  142.5960 O   0  0  0  0  0  0  0  0  0  0  0  0
  194.5300  176.0270  143.7850 C   0  0  0  0  0  2  0  0  0  0  0  0
  195.1440  174.9800  144.6950 C   0  0  0  0  0  2  0  0  0  0  0  0
  196.6310  174.8890  144.4220 C   0  0  0  0  0  1  0  0  0  0  0  0
  189.6000  177.5510  146.2980 C   0  0  0  0  0  2  0  0  0  0  0  0
  190.4090  177.0270  147.3070 O   0  0  0  0  0  0  0  0  0  0  0  0
  189.0430  174.6260  147.5600 O   0  0  0  0  0  0  0  0  0  0  0  0
  190.2940  175.3520  147.1170 P   0  0  0  0  0  0  0  0  0  0  0  0
  191.4390  174.5780  146.5080 O   0  0  0  0  0  0  0  0  0  0  0  0
  1 24  1  0  0  0  0
  1 26  1  1  0  0  0
  4  7  1  0  0  0  0
  5  2  1  1  0  0  0
  6  3  1  6  0  0  0
  6  4  1  0  0  0  0
  6  5  1  0  0  0  0
  7  2  2  0  0  0  0
  7  1  1  0  0  0  0
  8 10  1  0  0  0  0
  9  3  1  0  0  0  0
  9  8  1  0  0  0  0
 10  5  1  0  0  0  0
 10 11  1  1  0  0  0
 12 11  1  0  0  0  0
 12 15  1  0  0  0  0
 13 15  1  0  0  0  0
 13 17  2  0  0  0  0
 15 18  2  0  0  0  0
 17 14  1  0  0  0  0
 17 16  1  0  0  0  0
 18 16  1  0  0  0  0
 20 25  1  0  0  0  0
 20 19  1  0  0  0  0
 21 25  2  0  0  0  0
 22 24  2  0  0  0  0
 22 23  1  0  0  0  0
 23 20  2  0  0  0  0
 24 21  1  0  0  0  0
 26 27  1  6  0  0  0
 26 35  1  0  0  0  0
 28 29  1  0  0  0  0
 30 27  1  0  0  0  0
 30 28  1  0  0  0  0
 31 30  2  0  0  0  0
 32 28  1  0  0  0  0
 32 33  1  0  0  0  0
 34 33  1  0  0  0  0
 35 36  1  0  0  0  0
 38 36  1  0  0  0  0
 38 37  2  0  0  0  0
 39 38  2  0  0  0  0
M  END
>  <MODEL>
1

>  <REMARK>
 VINA RESULT:      -6.4      0.000      0.000
  Name = 
  13 active torsions:
  status: ('A' for Active; 'I' for Inactive)
    1  A    between atoms: C_2  and  C_12
    2  A    between atoms: C_2  and  C_18
    3  A    between atoms: C_2  and  C_28
    4  A    between atoms: P_5  and  O_10
    5  A    between atoms: C_6  and  C_26
    6  A    between atoms: O_10  and  C_28
    7  A    between atoms: C_12  and  C_24
    8  A    between atoms: N_15  and  C_26
    9  A    between atoms: C_17  and  C_31
   10  A    between atoms: C_17  and  N_38
   11  A    between atoms: C_18  and  C_21
   12  A    between atoms: C_18  and  C_35
   13  A    between atoms: C_30  and  N_38
                            x       y       z     vdW  Elec       q    Type
                         _______ _______ _______ _____ _____    ______ ____

>  <TORSDO>
F 13

$$$$
=
 OpenBabel11072409173D

 39 42  0  0  1  0  0  0  0  0999 V2000
  187.8390  175.9950  144.3730 C   0  0  1  0  0  3  0  0  0  0  0  0
  190.2020  176.5700  143.9230 N   0  0  0  0  0  0  0  0  0  0  0  0
  191.8340  175.6730  146.8320 C   0  0  0  0  0  2  0  0  0  0  0  0
  189.6520  176.4760  146.1270 N   0  0  0  0  0  2  0  0  0  0  0  0
  191.4250  176.9180  144.6300 C   0  0  1  0  0  3  0  0  0  0  0  0
  191.0660  176.7940  146.1300 C   0  0  2  0  0  3  0  0  0  0  0  0
  189.2480  176.3810  144.7710 C   0  0  0  0  0  0  0  0  0  0  0  0
  193.7450  176.1750  145.1970 C   0  0  0  0  0  2  0  0  0  0  0  0
  193.3430  175.8340  146.6390 C   0  0  0  0  0  2  0  0  0  0  0  0
  192.5900  176.0160  144.2020 C   0  0  2  0  0  3  0  0  0  0  0  0
  193.0310  176.3810  142.8640 N   0  0  0  0  0  2  0  0  0  0  0  0
  194.4580  176.1000  142.7760 C   0  0  0  0  0  2  0  0  0  0  0  0
  194.4420  175.6840  140.3170 N   0  0  0  0  0  0  0  0  0  0  0  0
  194.6300  174.9470  138.0020 N   0  0  0  0  0  1  0  0  0  0  0  0
  194.7430  175.2640  141.5760 C   0  0  0  0  0  0  0  0  0  0  0  0
  195.5280  173.4320  140.1050 S   0  0  0  0  0  0  0  0  0  0  0  0
  194.8090  174.7690  139.4020 C   0  0  0  0  0  0  0  0  0  0  0  0
  195.3710  174.0210  141.6760 C   0  0  0  0  0  3  0  0  0  0  0  0
  184.0740  179.3550  146.9400 F   0  0  0  0  0  0  0  0  0  0  0  0
  184.9770  178.5570  146.3210 C   0  0  0  0  0  0  0  0  0  0  0  0
  185.8440  176.3460  145.8490 C   0  0  0  0  0  3  0  0  0  0  0  0
  186.9100  178.2970  144.8860 C   0  0  0  0  0  3  0  0  0  0  0  0
  185.9760  179.1210  145.5230 C   0  0  0  0  0  3  0  0  0  0  0  0
  186.8450  176.9040  145.0470 C   0  0  0  0  0  0  0  0  0  0  0  0
  184.9110  177.1710  146.4850 C   0  0  0  0  0  3  0  0  0  0  0  0
  187.6340  175.9170  142.8420 C   0  0  1  0  0  3  0  0  0  0  0  0
  187.8000  174.4790  142.3640 C   0  0  0  0  0  2  0  0  0  0  0  0
  190.1430  173.7740  141.6590 N   0  0  0  0  0  0  0  0  0  0  0  0
  190.3800  173.2220  142.9850 C   0  0  0  0  0  1  0  0  0  0  0  0
  188.8760  174.3620  141.3270 C   0  0  0  0  0  0  0  0  0  0  0  0
  188.6490  174.7450  140.1460 O   0  0  0  0  0  0  0  0  0  0  0  0
  191.2550  173.8070  140.7210 C   0  0  0  0  0  2  0  0  0  0  0  0
  191.9910  172.4810  140.7300 C   0  0  0  0  0  2  0  0  0  0  0  0
  191.8200  171.8040  139.3870 C   0  0  0  0  0  1  0  0  0  0  0  0
  186.2450  176.3910  142.4210 C   0  0  0  0  0  2  0  0  0  0  0  0
  186.3490  177.5290  141.6200 O   0  0  0  0  0  0  0  0  0  0  0  0
  183.9530  178.2180  142.8380 O   0  0  0  0  0  0  0  0  0  0  0  0
  184.7810  178.1610  141.5750 P   0  0  0  0  0  0  0  0  0  0  0  0
  184.2070  178.6670  140.2720 O   0  0  0  0  0  0  0  0  0  0  0  0
  1 26  1  6  0  0  0
  1  7  1  0  0  0  0
  1 24  1  0  0  0  0
  2  7  2  0  0  0  0
  4  6  1  0  0  0  0
  5  2  1  6  0  0  0
  5  6  1  0  0  0  0
  6  3  1  6  0  0  0
  7  4  1  0  0  0  0
  8  9  1  0  0  0  0
  9  3  1  0  0  0  0
 10 11  1  6  0  0  0
 10  5  1  0  0  0  0
 10  8  1  0  0  0  0
 12 11  1  0  0  0  0
 13 15  1  0  0  0  0
 14 17  1  0  0  0  0
 15 18  2  0  0  0  0
 15 12  1  0  0  0  0
 16 18  1  0  0  0  0
 17 16  1  0  0  0  0
 17 13  2  0  0  0  0
 20 25  1  0  0  0  0
 20 19  1  0  0  0  0
 21 25  2  0  0  0  0
 22 24  2  0  0  0  0
 22 23  1  0  0  0  0
 23 20  2  0  0  0  0
 24 21  1  0  0  0  0
 26 27  1  1  0  0  0
 28 29  1  0  0  0  0
 30 28  1  0  0  0  0
 30 27  1  0  0  0  0
 31 30  2  0  0  0  0
 32 33  1  0  0  0  0
 32 28  1  0  0  0  0
 34 33  1  0  0  0  0
 35 26  1  0  0  0  0
 36 35  1  0  0  0  0
 38 36  1  0  0  0  0
 38 37  2  0  0  0  0
 39 38  2  0  0  0  0
M  END
>  <MODEL>
2

>  <REMARK>
 VINA RESULT:      -6.4      3.387      5.316
  Name = 
  13 active torsions:
  status: ('A' for Active; 'I' for Inactive)
    1  A    between atoms: C_2  and  C_12
    2  A    between atoms: C_2  and  C_18
    3  A    between atoms: C_2  and  C_28
    4  A    between atoms: P_5  and  O_10
    5  A    between atoms: C_6  and  C_26
    6  A    between atoms: O_10  and  C_28
    7  A    between atoms: C_12  and  C_24
    8  A    between atoms: N_15  and  C_26
    9  A    between atoms: C_17  and  C_31
   10  A    between atoms: C_17  and  N_38
   11  A    between atoms: C_18  and  C_21
   12  A    between atoms: C_18  and  C_35
   13  A    between atoms: C_30  and  N_38
                            x       y       z     vdW  Elec       q    Type
                         _______ _______ _______ _____ _____    ______ ____

>  <TORSDO>
F 13

$$$$
=
 OpenBabel11072409173D

 39 42  0  0  1  0  0  0  0  0999 V2000
  188.1630  177.3420  144.8540 C   0  0  1  0  0  3  0  0  0  0  0  0
  189.4700  175.8060  143.4230 N   0  0  0  0  0  0  0  0  0  0  0  0
  192.6810  177.0680  143.5810 C   0  0  0  0  0  2  0  0  0  0  0  0
  190.3890  177.8690  143.6870 N   0  0  0  0  0  2  0  0  0  0  0  0
  190.6840  175.7810  142.6220 C   0  0  1  0  0  3  0  0  0  0  0  0
  191.3410  177.1630  142.8520 C   0  0  2  0  0  3  0  0  0  0  0  0
  189.3210  176.9730  143.9510 C   0  0  0  0  0  0  0  0  0  0  0  0
  192.9780  174.8060  142.4090 C   0  0  0  0  0  2  0  0  0  0  0  0
  193.6370  176.1190  142.8560 C   0  0  0  0  0  2  0  0  0  0  0  0
  191.5840  174.6020  143.0150 C   0  0  2  0  0  3  0  0  0  0  0  0
  191.0080  173.3570  142.5290 N   0  0  0  0  0  2  0  0  0  0  0  0
  191.6780  173.0150  141.2820 C   0  0  0  0  0  2  0  0  0  0  0  0
  190.7520  171.4080  139.6160 N   0  0  0  0  0  0  0  0  0  0  0  0
  189.5450  170.0950  137.9550 N   0  0  0  0  0  1  0  0  0  0  0  0
  190.6780  172.6060  140.2570 C   0  0  0  0  0  0  0  0  0  0  0  0
  188.7020  172.5770  138.7620 S   0  0  0  0  0  0  0  0  0  0  0  0
  189.7310  171.2570  138.7520 C   0  0  0  0  0  0  0  0  0  0  0  0
  189.5890  173.4130  139.9250 C   0  0  0  0  0  3  0  0  0  0  0  0
  183.6550  178.7040  141.7110 F   0  0  0  0  0  0  0  0  0  0  0  0
  184.7340  178.3850  142.4660 C   0  0  0  0  0  0  0  0  0  0  0  0
  186.4590  176.8070  143.0950 C   0  0  0  0  0  3  0  0  0  0  0  0
  186.3450  178.9730  144.1750 C   0  0  0  0  0  3  0  0  0  0  0  0
  185.2320  179.3030  143.3950 C   0  0  0  0  0  3  0  0  0  0  0  0
  186.9630  177.7220  144.0260 C   0  0  0  0  0  0  0  0  0  0  0  0
  185.3460  177.1380  142.3160 C   0  0  0  0  0  3  0  0  0  0  0  0
  187.8410  176.2600  145.9100 C   0  0  1  0  0  3  0  0  0  0  0  0
  188.8830  176.2870  147.0230 C   0  0  0  0  0  2  0  0  0  0  0  0
  191.3630  175.7110  147.0710 N   0  0  0  0  0  0  0  0  0  0  0  0
  191.6460  176.9720  147.7410 C   0  0  0  0  0  1  0  0  0  0  0  0
  190.0150  175.3440  146.7430 C   0  0  0  0  0  0  0  0  0  0  0  0
  189.7720  174.2060  146.2550 O   0  0  0  0  0  0  0  0  0  0  0  0
  192.4880  174.8890  146.6530 C   0  0  0  0  0  2  0  0  0  0  0  0
  193.7590  175.7160  146.6120 C   0  0  0  0  0  2  0  0  0  0  0  0
  194.8800  174.8840  146.0260 C   0  0  0  0  0  1  0  0  0  0  0  0
  186.4700  176.4680  146.5500 C   0  0  0  0  0  2  0  0  0  0  0  0
  186.6020  177.1580  147.7560 O   0  0  0  0  0  0  0  0  0  0  0  0
  186.1200  179.8810  147.9850 O   0  0  0  0  0  0  0  0  0  0  0  0
  185.6110  178.5160  147.5800 P   0  0  0  0  0  0  0  0  0  0  0  0
  184.2160  178.3660  147.0200 O   0  0  0  0  0  0  0  0  0  0  0  0
  1 26  1  1  0  0  0
  2  7  2  0  0  0  0
  4  7  1  0  0  0  0
  5  6  1  0  0  0  0
  5 10  1  0  0  0  0
  5  2  1  1  0  0  0
  6  3  1  1  0  0  0
  6  4  1  0  0  0  0
  7  1  1  0  0  0  0
  8  9  1  0  0  0  0
  8 10  1  0  0  0  0
  9  3  1  0  0  0  0
 10 11  1  6  0  0  0
 12 11  1  0  0  0  0
 13 15  1  0  0  0  0
 14 17  1  0  0  0  0
 15 12  1  0  0  0  0
 16 18  1  0  0  0  0
 17 16  1  0  0  0  0
 17 13  2  0  0  0  0
 18 15  2  0  0  0  0
 19 20  1  0  0  0  0
 20 23  1  0  0  0  0
 21 24  2  0  0  0  0
 23 22  2  0  0  0  0
 24 22  1  0  0  0  0
 24  1  1  0  0  0  0
 25 20  2  0  0  0  0
 25 21  1  0  0  0  0
 26 35  1  1  0  0  0
 26 27  1  0  0  0  0
 28 29  1  0  0  0  0
 30 27  1  0  0  0  0
 30 28  1  0  0  0  0
 31 30  2  0  0  0  0
 32 28  1  0  0  0  0
 33 32  1  0  0  0  0
 34 33  1  0  0  0  0
 35 36  1  0  0  0  0
 38 36  1  0  0  0  0
 38 37  2  0  0  0  0
 39 38  2  0  0  0  0
M  END
>  <MODEL>
3

>  <REMARK>
 VINA RESULT:      -6.4      3.023      4.536
  Name = 
  13 active torsions:
  status: ('A' for Active; 'I' for Inactive)
    1  A    between atoms: C_2  and  C_12
    2  A    between atoms: C_2  and  C_18
    3  A    between atoms: C_2  and  C_28
    4  A    between atoms: P_5  and  O_10
    5  A    between atoms: C_6  and  C_26
    6  A    between atoms: O_10  and  C_28
    7  A    between atoms: C_12  and  C_24
    8  A    between atoms: N_15  and  C_26
    9  A    between atoms: C_17  and  C_31
   10  A    between atoms: C_17  and  N_38
   11  A    between atoms: C_18  and  C_21
   12  A    between atoms: C_18  and  C_35
   13  A    between atoms: C_30  and  N_38
                            x       y       z     vdW  Elec       q    Type
                         _______ _______ _______ _____ _____    ______ ____

>  <TORSDO>
F 13

$$$$
=
 OpenBabel11072409173D

 39 42  0  0  1  0  0  0  0  0999 V2000
  189.8460  174.9530  142.0880 C   0  0  1  0  0  3  0  0  0  0  0  0
  191.2720  176.0720  143.7700 N   0  0  0  0  0  0  0  0  0  0  0  0
  190.0250  174.9420  146.7870 C   0  0  0  0  0  2  0  0  0  0  0  0
  189.2350  175.4180  144.5390 N   0  0  0  0  0  2  0  0  0  0  0  0
  191.2380  176.5050  145.1590 C   0  0  1  0  0  3  0  0  0  0  0  0
  189.8770  176.0050  145.6980 C   0  0  2  0  0  3  0  0  0  0  0  0
  190.1470  175.5240  143.4580 C   0  0  0  0  0  0  0  0  0  0  0  0
  192.1950  176.1430  147.4420 C   0  0  0  0  0  2  0  0  0  0  0  0
  190.9190  175.4390  147.9250 C   0  0  0  0  0  2  0  0  0  0  0  0
  192.4430  175.9630  145.9400 C   0  0  2  0  0  3  0  0  0  0  0  0
  193.6490  176.6770  145.5460 N   0  0  0  0  0  2  0  0  0  0  0  0
  194.7860  175.8090  145.8180 C   0  0  0  0  0  2  0  0  0  0  0  0
  195.3950  176.3960  143.4730 N   0  0  0  0  0  0  0  0  0  0  0  0
  196.3020  176.7300  141.2360 N   0  0  0  0  0  1  0  0  0  0  0  0
  195.6270  175.6650  144.5970 C   0  0  0  0  0  0  0  0  0  0  0  0
  197.4040  174.9630  143.0210 S   0  0  0  0  0  0  0  0  0  0  0  0
  196.2930  176.1060  142.5130 C   0  0  0  0  0  0  0  0  0  0  0  0
  196.7220  174.8020  144.5530 C   0  0  0  0  0  3  0  0  0  0  0  0
  192.4860  169.9830  141.4650 F   0  0  0  0  0  0  0  0  0  0  0  0
  191.8590  171.1760  141.6100 C   0  0  0  0  0  0  0  0  0  0  0  0
  190.1860  172.5460  142.6990 C   0  0  0  0  0  3  0  0  0  0  0  0
  191.5890  173.4940  140.9660 C   0  0  0  0  0  3  0  0  0  0  0  0
  192.2370  172.2640  140.8180 C   0  0  0  0  0  3  0  0  0  0  0  0
  190.5600  173.6390  141.9100 C   0  0  0  0  0  0  0  0  0  0  0  0
  190.8350  171.3160  142.5500 C   0  0  0  0  0  3  0  0  0  0  0  0
  188.3340  174.8580  141.7820 C   0  0  1  0  0  3  0  0  0  0  0  0
  187.7790  176.2370  141.4440 C   0  0  0  0  0  2  0  0  0  0  0  0
  185.5970  177.5090  141.7630 N   0  0  0  0  0  0  0  0  0  0  0  0
  185.7680  178.1370  140.4610 C   0  0  0  0  0  1  0  0  0  0  0  0
  186.5520  176.5520  142.2450 C   0  0  0  0  0  0  0  0  0  0  0  0
  186.3400  175.9400  143.3280 O   0  0  0  0  0  0  0  0  0  0  0  0
  184.4930  177.9550  142.6000 C   0  0  0  0  0  2  0  0  0  0  0  0
  184.9520  179.0620  143.5300 C   0  0  0  0  0  2  0  0  0  0  0  0
  184.2840  178.8910  144.8790 C   0  0  0  0  0  1  0  0  0  0  0  0
  188.0410  173.9350  140.6020 C   0  0  0  0  0  2  0  0  0  0  0  0
  188.2390  174.6140  139.3990 O   0  0  0  0  0  0  0  0  0  0  0  0
  189.0830  172.0350  138.8240 O   0  0  0  0  0  0  0  0  0  0  0  0
  188.7660  173.4250  138.3200 P   0  0  0  0  0  0  0  0  0  0  0  0
  188.9230  173.7500  136.8530 O   0  0  0  0  0  0  0  0  0  0  0  0
  1 26  1  1  0  0  0
  1  7  1  0  0  0  0
  3  9  1  0  0  0  0
  4  6  1  0  0  0  0
  5  2  1  6  0  0  0
  5  6  1  0  0  0  0
  5 10  1  0  0  0  0
  6  3  1  1  0  0  0
  7  2  2  0  0  0  0
  7  4  1  0  0  0  0
  8  9  1  0  0  0  0
 10 11  1  6  0  0  0
 10  8  1  0  0  0  0
 11 12  1  0  0  0  0
 13 15  1  0  0  0  0
 14 17  1  0  0  0  0
 15 12  1  0  0  0  0
 16 18  1  0  0  0  0
 17 16  1  0  0  0  0
 17 13  2  0  0  0  0
 18 15  2  0  0  0  0
 19 20  1  0  0  0  0
 20 25  1  0  0  0  0
 22 24  2  0  0  0  0
 23 22  1  0  0  0  0
 23 20  2  0  0  0  0
 24  1  1  0  0  0  0
 24 21  1  0  0  0  0
 25 21  2  0  0  0  0
 26 35  1  6  0  0  0
 27 26  1  0  0  0  0
 27 30  1  0  0  0  0
 28 30  1  0  0  0  0
 28 32  1  0  0  0  0
 29 28  1  0  0  0  0
 30 31  2  0  0  0  0
 32 33  1  0  0  0  0
 33 34  1  0  0  0  0
 36 35  1  0  0  0  0
 38 37  2  0  0  0  0
 38 36  1  0  0  0  0
 39 38  2  0  0  0  0
M  END
>  <MODEL>
4

>  <REMARK>
 VINA RESULT:      -6.3      3.870      7.408
  Name = 
  13 active torsions:
  status: ('A' for Active; 'I' for Inactive)
    1  A    between atoms: C_2  and  C_12
    2  A    between atoms: C_2  and  C_18
    3  A    between atoms: C_2  and  C_28
    4  A    between atoms: P_5  and  O_10
    5  A    between atoms: C_6  and  C_26
    6  A    between atoms: O_10  and  C_28
    7  A    between atoms: C_12  and  C_24
    8  A    between atoms: N_15  and  C_26
    9  A    between atoms: C_17  and  C_31
   10  A    between atoms: C_17  and  N_38
   11  A    between atoms: C_18  and  C_21
   12  A    between atoms: C_18  and  C_35
   13  A    between atoms: C_30  and  N_38
                            x       y       z     vdW  Elec       q    Type
                         _______ _______ _______ _____ _____    ______ ____

>  <TORSDO>
F 13

$$$$
=
 OpenBabel11072409173D

 39 42  0  0  1  0  0  0  0  0999 V2000
  188.0490  175.0680  143.0060 C   0  0  1  0  0  3  0  0  0  0  0  0
  190.0790  176.1270  143.9390 N   0  0  0  0  0  0  0  0  0  0  0  0
  189.9550  175.3260  147.2960 C   0  0  0  0  0  2  0  0  0  0  0  0
  188.4270  175.7450  145.4540 N   0  0  0  0  0  2  0  0  0  0  0  0
  190.5960  176.6470  145.1960 C   0  0  1  0  0  3  0  0  0  0  0  0
  189.4970  176.3300  146.2380 C   0  0  2  0  0  3  0  0  0  0  0  0
  188.8790  175.6860  144.1110 C   0  0  0  0  0  0  0  0  0  0  0  0
  192.2980  176.3250  147.0000 C   0  0  0  0  0  2  0  0  0  0  0  0
  191.2420  175.7930  147.9790 C   0  0  0  0  0  2  0  0  0  0  0  0
  191.9570  176.0270  145.5350 C   0  0  2  0  0  3  0  0  0  0  0  0
  192.9830  176.5810  144.6630 N   0  0  0  0  0  2  0  0  0  0  0  0
  194.1760  176.8040  145.4680 C   0  0  0  0  0  2  0  0  0  0  0  0
  196.0010  176.3880  143.8200 N   0  0  0  0  0  0  0  0  0  0  0  0
  197.8830  175.6770  142.4450 N   0  0  0  0  0  1  0  0  0  0  0  0
  195.3140  176.0060  144.9310 C   0  0  0  0  0  0  0  0  0  0  0  0
  197.0660  174.2760  144.6570 S   0  0  0  0  0  0  0  0  0  0  0  0
  196.9920  175.5210  143.5420 C   0  0  0  0  0  0  0  0  0  0  0  0
  195.7620  174.8440  145.5610 C   0  0  0  0  0  3  0  0  0  0  0  0
  184.8690  179.0440  140.5280 F   0  0  0  0  0  0  0  0  0  0  0  0
  185.6340  178.0920  141.1150 C   0  0  0  0  0  0  0  0  0  0  0  0
  185.9840  176.4850  142.8920 C   0  0  0  0  0  3  0  0  0  0  0  0
  187.6540  176.7580  141.1590 C   0  0  0  0  0  3  0  0  0  0  0  0
  186.8640  177.7390  140.5520 C   0  0  0  0  0  3  0  0  0  0  0  0
  187.2160  176.1270  142.3320 C   0  0  0  0  0  0  0  0  0  0  0  0
  185.1940  177.4660  142.2840 C   0  0  0  0  0  3  0  0  0  0  0  0
  188.8830  174.2370  142.0040 C   0  0  1  0  0  3  0  0  0  0  0  0
  188.7480  172.7510  142.3140 C   0  0  0  0  0  2  0  0  0  0  0  0
  190.5920  171.9220  143.8600 N   0  0  0  0  0  0  0  0  0  0  0  0
  189.7920  172.2900  145.0190 C   0  0  0  0  0  1  0  0  0  0  0  0
  190.0840  172.1080  142.5310 C   0  0  0  0  0  0  0  0  0  0  0  0
  190.7450  171.6920  141.5390 O   0  0  0  0  0  0  0  0  0  0  0  0
  191.9540  171.4600  144.0860 C   0  0  0  0  0  2  0  0  0  0  0  0
  192.8430  172.6200  144.4910 C   0  0  0  0  0  2  0  0  0  0  0  0
  193.3960  173.2850  143.2480 C   0  0  0  0  0  1  0  0  0  0  0  0
  188.4350  174.4560  140.5600 C   0  0  0  0  0  2  0  0  0  0  0  0
  188.1700  173.2300  139.9490 O   0  0  0  0  0  0  0  0  0  0  0  0
  187.9700  174.6320  137.5630 O   0  0  0  0  0  0  0  0  0  0  0  0
  188.5690  173.4700  138.3230 P   0  0  0  0  0  0  0  0  0  0  0  0
  189.5210  172.5250  137.6300 O   0  0  0  0  0  0  0  0  0  0  0  0
  1 26  1  6  0  0  0
  1  7  1  0  0  0  0
  2  7  2  0  0  0  0
  3  9  1  0  0  0  0
  4  6  1  0  0  0  0
  5  2  1  6  0  0  0
  5 10  1  0  0  0  0
  5  6  1  0  0  0  0
  6  3  1  1  0  0  0
  7  4  1  0  0  0  0
  8  9  1  0  0  0  0
 10 11  1  6  0  0  0
 10  8  1  0  0  0  0
 11 12  1  0  0  0  0
 13 15  1  0  0  0  0
 14 17  1  0  0  0  0
 15 12  1  0  0  0  0
 15 18  2  0  0  0  0
 16 18  1  0  0  0  0
 17 13  2  0  0  0  0
 17 16  1  0  0  0  0
 19 20  1  0  0  0  0
 20 25  1  0  0  0  0
 22 24  2  0  0  0  0
 23 20  2  0  0  0  0
 23 22  1  0  0  0  0
 24 21  1  0  0  0  0
 24  1  1  0  0  0  0
 25 21  2  0  0  0  0
 26 35  1  6  0  0  0
 26 27  1  0  0  0  0
 27 30  1  0  0  0  0
 28 32  1  0  0  0  0
 28 29  1  0  0  0  0
 30 28  1  0  0  0  0
 31 30  2  0  0  0  0
 32 33  1  0  0  0  0
 34 33  1  0  0  0  0
 36 35  1  0  0  0  0
 37 38  2  0  0  0  0
 38 36  1  0  0  0  0
 39 38  2  0  0  0  0
M  END
>  <MODEL>
5

>  <REMARK>
 VINA RESULT:      -6.2      3.405      5.606
  Name = 
  13 active torsions:
  status: ('A' for Active; 'I' for Inactive)
    1  A    between atoms: C_2  and  C_12
    2  A    between atoms: C_2  and  C_18
    3  A    between atoms: C_2  and  C_28
    4  A    between atoms: P_5  and  O_10
    5  A    between atoms: C_6  and  C_26
    6  A    between atoms: O_10  and  C_28
    7  A    between atoms: C_12  and  C_24
    8  A    between atoms: N_15  and  C_26
    9  A    between atoms: C_17  and  C_31
   10  A    between atoms: C_17  and  N_38
   11  A    between atoms: C_18  and  C_21
   12  A    between atoms: C_18  and  C_35
   13  A    between atoms: C_30  and  N_38
                            x       y       z     vdW  Elec       q    Type
                         _______ _______ _______ _____ _____    ______ ____

>  <TORSDO>
F 13

$$$$
=
 OpenBabel11072409173D

 39 42  0  0  1  0  0  0  0  0999 V2000
  190.3230  176.5220  143.0150 C   0  0  1  0  0  3  0  0  0  0  0  0
  190.6020  174.7840  141.2790 N   0  0  0  0  0  0  0  0  0  0  0  0
  190.4400  171.8220  143.0480 C   0  0  0  0  0  2  0  0  0  0  0  0
  191.1540  174.1200  143.3830 N   0  0  0  0  0  2  0  0  0  0  0  0
  191.0540  173.4080  141.1320 C   0  0  1  0  0  3  0  0  0  0  0  0
  191.3690  172.9380  142.5720 C   0  0  2  0  0  3  0  0  0  0  0  0
  190.7150  175.1490  142.5110 C   0  0  0  0  0  0  0  0  0  0  0  0
  190.3500  171.0680  140.5990 C   0  0  0  0  0  2  0  0  0  0  0  0
  190.4460  170.6450  142.0720 C   0  0  0  0  0  2  0  0  0  0  0  0
  189.9970  172.5490  140.4260 C   0  0  2  0  0  3  0  0  0  0  0  0
  189.9500  172.8880  139.0110 N   0  0  0  0  0  2  0  0  0  0  0  0
  188.5860  173.2870  138.6950 C   0  0  0  0  0  2  0  0  0  0  0  0
  187.6230  175.0690  137.2410 N   0  0  0  0  0  0  0  0  0  0  0  0
  186.9980  176.7460  135.5880 N   0  0  0  0  0  1  0  0  0  0  0  0
  188.5660  174.1120  137.4550 C   0  0  0  0  0  0  0  0  0  0  0  0
  189.1660  175.0980  135.2630 S   0  0  0  0  0  0  0  0  0  0  0  0
  187.8220  175.6900  136.0650 C   0  0  0  0  0  0  0  0  0  0  0  0
  189.5360  173.9730  136.4610 C   0  0  0  0  0  3  0  0  0  0  0  0
  184.8470  177.4580  141.9190 F   0  0  0  0  0  0  0  0  0  0  0  0
  186.1600  177.2400  142.1770 C   0  0  0  0  0  0  0  0  0  0  0  0
  187.9140  175.8310  143.0720 C   0  0  0  0  0  3  0  0  0  0  0  0
  188.4650  177.9750  142.0870 C   0  0  0  0  0  3  0  0  0  0  0  0
  187.1100  178.1990  141.8190 C   0  0  0  0  0  3  0  0  0  0  0  0
  188.8710  176.7880  142.7150 C   0  0  0  0  0  0  0  0  0  0  0  0
  186.5610  176.0560  142.8030 C   0  0  0  0  0  3  0  0  0  0  0  0
  190.6780  176.7540  144.5010 C   0  0  1  0  0  3  0  0  0  0  0  0
  192.1040  177.2790  144.6250 C   0  0  0  0  0  2  0  0  0  0  0  0
  193.9930  175.5930  144.8830 N   0  0  0  0  0  0  0  0  0  0  0  0
  194.2880  175.7000  143.4620 C   0  0  0  0  0  1  0  0  0  0  0  0
  192.9520  176.3830  145.4760 C   0  0  0  0  0  0  0  0  0  0  0  0
  192.7730  176.3560  146.7250 O   0  0  0  0  0  0  0  0  0  0  0  0
  194.7100  174.5910  145.6590 C   0  0  0  0  0  2  0  0  0  0  0  0
  193.9010  173.3110  145.7410 C   0  0  0  0  0  2  0  0  0  0  0  0
  194.5460  172.2540  144.8700 C   0  0  0  0  0  1  0  0  0  0  0  0
  189.7480  177.7680  145.1650 C   0  0  0  0  0  2  0  0  0  0  0  0
  189.6710  177.5230  146.5370 O   0  0  0  0  0  0  0  0  0  0  0  0
  187.1260  176.4210  146.4810 O   0  0  0  0  0  0  0  0  0  0  0  0
  188.6110  176.2140  146.6760 P   0  0  0  0  0  0  0  0  0  0  0  0
  189.1450  174.8380  146.9970 O   0  0  0  0  0  0  0  0  0  0  0  0
  1 26  1  1  0  0  0
  2  7  2  0  0  0  0
  5  2  1  1  0  0  0
  5  6  1  0  0  0  0
  6  3  1  1  0  0  0
  6  4  1  0  0  0  0
  7  1  1  0  0  0  0
  7  4  1  0  0  0  0
  8  9  1  0  0  0  0
  9  3  1  0  0  0  0
 10 11  1  6  0  0  0
 10  8  1  0  0  0  0
 10  5  1  0  0  0  0
 12 11  1  0  0  0  0
 13 15  1  0  0  0  0
 14 17  1  0  0  0  0
 15 12  1  0  0  0  0
 16 17  1  0  0  0  0
 16 18  1  0  0  0  0
 17 13  2  0  0  0  0
 18 15  2  0  0  0  0
 19 20  1  0  0  0  0
 20 25  1  0  0  0  0
 22 24  2  0  0  0  0
 23 22  1  0  0  0  0
 23 20  2  0  0  0  0
 24  1  1  0  0  0  0
 24 21  1  0  0  0  0
 25 21  2  0  0  0  0
 26 27  1  6  0  0  0
 26 35  1  0  0  0  0
 27 30  1  0  0  0  0
 28 30  1  0  0  0  0
 28 32  1  0  0  0  0
 29 28  1  0  0  0  0
 30 31  2  0  0  0  0
 32 33  1  0  0  0  0
 34 33  1  0  0  0  0
 35 36  1  0  0  0  0
 36 38  1  0  0  0  0
 37 38  2  0  0  0  0
 38 39  2  0  0  0  0
M  END
>  <MODEL>
6

>  <REMARK>
 VINA RESULT:      -6.1      3.106      5.111
  Name = 
  13 active torsions:
  status: ('A' for Active; 'I' for Inactive)
    1  A    between atoms: C_2  and  C_12
    2  A    between atoms: C_2  and  C_18
    3  A    between atoms: C_2  and  C_28
    4  A    between atoms: P_5  and  O_10
    5  A    between atoms: C_6  and  C_26
    6  A    between atoms: O_10  and  C_28
    7  A    between atoms: C_12  and  C_24
    8  A    between atoms: N_15  and  C_26
    9  A    between atoms: C_17  and  C_31
   10  A    between atoms: C_17  and  N_38
   11  A    between atoms: C_18  and  C_21
   12  A    between atoms: C_18  and  C_35
   13  A    between atoms: C_30  and  N_38
                            x       y       z     vdW  Elec       q    Type
                         _______ _______ _______ _____ _____    ______ ____

>  <TORSDO>
F 13

$$$$
=
 OpenBabel11072409173D

 39 42  0  0  1  0  0  0  0  0999 V2000
  189.0880  177.2520  142.6590 C   0  0  1  0  0  3  0  0  0  0  0  0
  190.5400  175.2960  142.2330 N   0  0  0  0  0  0  0  0  0  0  0  0
  188.5250  173.1570  140.4180 C   0  0  0  0  0  2  0  0  0  0  0  0
  188.3100  174.8610  142.1370 N   0  0  0  0  0  2  0  0  0  0  0  0
  190.4470  173.8710  141.9540 C   0  0  1  0  0  3  0  0  0  0  0  0
  188.9310  173.5880  141.8270 C   0  0  2  0  0  3  0  0  0  0  0  0
  189.3560  175.7900  142.3700 C   0  0  0  0  0  0  0  0  0  0  0  0
  190.8500  172.0870  140.2470 C   0  0  0  0  0  2  0  0  0  0  0  0
  189.3500  171.9560  139.9500 C   0  0  0  0  0  2  0  0  0  0  0  0
  191.2470  173.4970  140.6990 C   0  0  2  0  0  3  0  0  0  0  0  0
  192.6730  173.5440  140.9900 N   0  0  0  0  0  2  0  0  0  0  0  0
  193.0010  172.3700  141.7870 C   0  0  0  0  0  2  0  0  0  0  0  0
  194.8930  173.4770  142.9750 N   0  0  0  0  0  0  0  0  0  0  0  0
  196.5410  174.4750  144.4670 N   0  0  0  0  0  1  0  0  0  0  0  0
  193.7280  172.7760  143.0220 C   0  0  0  0  0  0  0  0  0  0  0  0
  194.3330  173.1400  145.3970 S   0  0  0  0  0  0  0  0  0  0  0  0
  195.3500  173.7420  144.2120 C   0  0  0  0  0  0  0  0  0  0  0  0
  193.2350  172.4900  144.2960 C   0  0  0  0  0  3  0  0  0  0  0  0
  183.9360  178.6420  140.7660 F   0  0  0  0  0  0  0  0  0  0  0  0
  185.1680  178.3130  141.2250 C   0  0  0  0  0  0  0  0  0  0  0  0
  187.3460  177.3200  140.8580 C   0  0  0  0  0  3  0  0  0  0  0  0
  186.8000  178.2840  143.0130 C   0  0  0  0  0  3  0  0  0  0  0  0
  185.5290  178.6240  142.5390 C   0  0  0  0  0  3  0  0  0  0  0  0
  187.7140  177.6300  142.1720 C   0  0  0  0  0  0  0  0  0  0  0  0
  186.0750  177.6620  140.3850 C   0  0  0  0  0  3  0  0  0  0  0  0
  189.3260  177.6390  144.1360 C   0  0  1  0  0  3  0  0  0  0  0  0
  188.8660  176.5120  145.0540 C   0  0  0  0  0  2  0  0  0  0  0  0
  186.6810  176.8670  146.3110 N   0  0  0  0  0  0  0  0  0  0  0  0
  185.9650  176.1260  145.2830 C   0  0  0  0  0  1  0  0  0  0  0  0
  188.1040  177.0360  146.2340 C   0  0  0  0  0  0  0  0  0  0  0  0
  188.7250  177.5920  147.1810 O   0  0  0  0  0  0  0  0  0  0  0  0
  185.9030  177.5150  147.3560 C   0  0  0  0  0  2  0  0  0  0  0  0
  185.4140  178.8720  146.8850 C   0  0  0  0  0  2  0  0  0  0  0  0
  184.0940  178.7050  146.1640 C   0  0  0  0  0  1  0  0  0  0  0  0
  190.8000  177.9100  144.4320 C   0  0  0  0  0  2  0  0  0  0  0  0
  191.3360  176.8710  145.1940 O   0  0  0  0  0  0  0  0  0  0  0  0
  193.3060  176.4590  143.2850 O   0  0  0  0  0  0  0  0  0  0  0  0
  192.9560  176.7870  144.7190 P   0  0  0  0  0  0  0  0  0  0  0  0
  194.0530  177.0370  145.7260 O   0  0  0  0  0  0  0  0  0  0  0  0
  1 26  1  1  0  0  0
  2  7  2  0  0  0  0
  4  7  1  0  0  0  0
  5  2  1  6  0  0  0
  6  3  1  6  0  0  0
  6  5  1  0  0  0  0
  6  4  1  0  0  0  0
  7  1  1  0  0  0  0
  8 10  1  0  0  0  0
  9  8  1  0  0  0  0
  9  3  1  0  0  0  0
 10 11  1  1  0  0  0
 10  5  1  0  0  0  0
 11 12  1  0  0  0  0
 12 15  1  0  0  0  0
 13 15  1  0  0  0  0
 13 17  2  0  0  0  0
 15 18  2  0  0  0  0
 17 14  1  0  0  0  0
 17 16  1  0  0  0  0
 18 16  1  0  0  0  0
 19 20  1  0  0  0  0
 20 23  1  0  0  0  0
 21 24  2  0  0  0  0
 23 22  2  0  0  0  0
 24  1  1  0  0  0  0
 24 22  1  0  0  0  0
 25 21  1  0  0  0  0
 25 20  2  0  0  0  0
 26 35  1  6  0  0  0
 26 27  1  0  0  0  0
 27 30  1  0  0  0  0
 28 32  1  0  0  0  0
 29 28  1  0  0  0  0
 30 28  1  0  0  0  0
 30 31  2  0  0  0  0
 33 32  1  0  0  0  0
 34 33  1  0  0  0  0
 35 36  1  0  0  0  0
 37 38  2  0  0  0  0
 38 36  1  0  0  0  0
 38 39  2  0  0  0  0
M  END
>  <MODEL>
7

>  <REMARK>
 VINA RESULT:      -6.1      2.238      4.534
  Name = 
  13 active torsions:
  status: ('A' for Active; 'I' for Inactive)
    1  A    between atoms: C_2  and  C_12
    2  A    between atoms: C_2  and  C_18
    3  A    between atoms: C_2  and  C_28
    4  A    between atoms: P_5  and  O_10
    5  A    between atoms: C_6  and  C_26
    6  A    between atoms: O_10  and  C_28
    7  A    between atoms: C_12  and  C_24
    8  A    between atoms: N_15  and  C_26
    9  A    between atoms: C_17  and  C_31
   10  A    between atoms: C_17  and  N_38
   11  A    between atoms: C_18  and  C_21
   12  A    between atoms: C_18  and  C_35
   13  A    between atoms: C_30  and  N_38
                            x       y       z     vdW  Elec       q    Type
                         _______ _______ _______ _____ _____    ______ ____

>  <TORSDO>
F 13

$$$$
=
 OpenBabel11072409173D

 39 42  0  0  1  0  0  0  0  0999 V2000
  191.9720  173.7400  144.9430 C   0  0  1  0  0  3  0  0  0  0  0  0
  190.2060  174.5080  143.3920 N   0  0  0  0  0  0  0  0  0  0  0  0
  190.9600  172.9020  140.4290 C   0  0  0  0  0  2  0  0  0  0  0  0
  192.1090  173.7840  142.3790 N   0  0  0  0  0  2  0  0  0  0  0  0
  189.9670  174.6930  141.9690 C   0  0  1  0  0  3  0  0  0  0  0  0
  191.2380  174.1420  141.2780 C   0  0  2  0  0  3  0  0  0  0  0  0
  191.3990  174.0540  143.5770 C   0  0  0  0  0  0  0  0  0  0  0  0
  188.6430  173.9110  139.9960 C   0  0  0  0  0  2  0  0  0  0  0  0
  189.8510  173.1680  139.4090 C   0  0  0  0  0  2  0  0  0  0  0  0
  188.6770  173.9900  141.5260 C   0  0  2  0  0  3  0  0  0  0  0  0
  187.5210  174.7290  142.0130 N   0  0  0  0  0  2  0  0  0  0  0  0
  187.6280  176.0950  141.5190 C   0  0  0  0  0  2  0  0  0  0  0  0
  187.1130  177.2410  143.6720 N   0  0  0  0  0  0  0  0  0  0  0  0
  186.3290  178.5530  145.5700 N   0  0  0  0  0  1  0  0  0  0  0  0
  186.8140  177.0120  142.3650 C   0  0  0  0  0  0  0  0  0  0  0  0
  185.1100  178.6460  143.1150 S   0  0  0  0  0  0  0  0  0  0  0  0
  186.2500  178.1160  144.2200 C   0  0  0  0  0  0  0  0  0  0  0  0
  185.7240  177.7160  141.8510 C   0  0  0  0  0  3  0  0  0  0  0  0
  195.4990  169.3200  144.6430 F   0  0  0  0  0  0  0  0  0  0  0  0
  194.6500  170.3740  144.7110 C   0  0  0  0  0  0  0  0  0  0  0  0
  194.2090  172.6740  145.3260 C   0  0  0  0  0  3  0  0  0  0  0  0
  192.4640  171.3350  144.3110 C   0  0  0  0  0  3  0  0  0  0  0  0
  193.3400  170.2480  144.2390 C   0  0  0  0  0  3  0  0  0  0  0  0
  192.8970  172.5540  144.8550 C   0  0  0  0  0  0  0  0  0  0  0  0
  195.0840  171.5860  145.2540 C   0  0  0  0  0  3  0  0  0  0  0  0
  192.6290  174.9600  145.6280 C   0  0  1  0  0  3  0  0  0  0  0  0
  192.9750  176.0210  144.5900 C   0  0  0  0  0  2  0  0  0  0  0  0
  195.2090  176.4670  143.4520 N   0  0  0  0  0  0  0  0  0  0  0  0
  194.5980  176.2290  142.1520 C   0  0  0  0  0  1  0  0  0  0  0  0
  194.4230  176.4040  144.6520 C   0  0  0  0  0  0  0  0  0  0  0  0
  194.9410  176.7110  145.7610 O   0  0  0  0  0  0  0  0  0  0  0  0
  196.6490  176.6670  143.5070 C   0  0  0  0  0  2  0  0  0  0  0  0
  197.3720  175.3960  143.1030 C   0  0  0  0  0  2  0  0  0  0  0  0
  197.4250  174.4520  144.2850 C   0  0  0  0  0  1  0  0  0  0  0  0
  191.7110  175.6030  146.6650 C   0  0  0  0  0  2  0  0  0  0  0  0
  190.4960  174.9190  146.7220 O   0  0  0  0  0  0  0  0  0  0  0  0
  187.9260  175.8680  147.1590 O   0  0  0  0  0  0  0  0  0  0  0  0
  189.3210  176.1300  146.6360 P   0  0  0  0  0  0  0  0  0  0  0  0
  189.6610  177.4740  146.0360 O   0  0  0  0  0  0  0  0  0  0  0  0
  1 26  1  6  0  0  0
  2  7  2  0  0  0  0
  4  7  1  0  0  0  0
  5  2  1  1  0  0  0
  6  3  1  1  0  0  0
  6  5  1  0  0  0  0
  6  4  1  0  0  0  0
  7  1  1  0  0  0  0
  8 10  1  0  0  0  0
  9  8  1  0  0  0  0
  9  3  1  0  0  0  0
 10  5  1  0  0  0  0
 10 11  1  6  0  0  0
 12 11  1  0  0  0  0
 12 15  1  0  0  0  0
 13 17  2  0  0  0  0
 15 13  1  0  0  0  0
 16 17  1  0  0  0  0
 17 14  1  0  0  0  0
 18 15  2  0  0  0  0
 18 16  1  0  0  0  0
 19 20  1  0  0  0  0
 20 25  1  0  0  0  0
 22 24  2  0  0  0  0
 23 22  1  0  0  0  0
 23 20  2  0  0  0  0
 24  1  1  0  0  0  0
 24 21  1  0  0  0  0
 25 21  2  0  0  0  0
 26 27  1  6  0  0  0
 26 35  1  0  0  0  0
 27 30  1  0  0  0  0
 28 32  1  0  0  0  0
 28 30  1  0  0  0  0
 29 28  1  0  0  0  0
 30 31  2  0  0  0  0
 33 32  1  0  0  0  0
 33 34  1  0  0  0  0
 35 36  1  0  0  0  0
 38 36  1  0  0  0  0
 38 37  2  0  0  0  0
 39 38  2  0  0  0  0
M  END
>  <MODEL>
8

>  <REMARK>
 VINA RESULT:      -6.0      3.659      6.731
  Name = 
  13 active torsions:
  status: ('A' for Active; 'I' for Inactive)
    1  A    between atoms: C_2  and  C_12
    2  A    between atoms: C_2  and  C_18
    3  A    between atoms: C_2  and  C_28
    4  A    between atoms: P_5  and  O_10
    5  A    between atoms: C_6  and  C_26
    6  A    between atoms: O_10  and  C_28
    7  A    between atoms: C_12  and  C_24
    8  A    between atoms: N_15  and  C_26
    9  A    between atoms: C_17  and  C_31
   10  A    between atoms: C_17  and  N_38
   11  A    between atoms: C_18  and  C_21
   12  A    between atoms: C_18  and  C_35
   13  A    between atoms: C_30  and  N_38
                            x       y       z     vdW  Elec       q    Type
                         _______ _______ _______ _____ _____    ______ ____

>  <TORSDO>
F 13

$$$$
=
 OpenBabel11072409173D

 39 42  0  0  1  0  0  0  0  0999 V2000
  189.6460  174.4850  144.5450 C   0  0  1  0  0  3  0  0  0  0  0  0
  191.3720  173.2680  143.2590 N   0  0  0  0  0  0  0  0  0  0  0  0
  189.6480  172.0340  140.5320 C   0  0  0  0  0  2  0  0  0  0  0  0
  189.2390  172.5880  142.8620 N   0  0  0  0  0  2  0  0  0  0  0  0
  191.4970  172.1810  142.3000 C   0  0  1  0  0  3  0  0  0  0  0  0
  190.0420  171.7600  141.9840 C   0  0  2  0  0  3  0  0  0  0  0  0
  190.1320  173.4290  143.5740 C   0  0  0  0  0  0  0  0  0  0  0  0
  192.1040  171.5840  139.9480 C   0  0  0  0  0  2  0  0  0  0  0  0
  190.6330  171.3800  139.5610 C   0  0  0  0  0  2  0  0  0  0  0  0
  192.2900  172.6210  141.0620 C   0  0  2  0  0  3  0  0  0  0  0  0
  193.7010  172.7440  141.3970 N   0  0  0  0  0  2  0  0  0  0  0  0
  194.1280  174.0870  141.0310 C   0  0  0  0  0  2  0  0  0  0  0  0
  195.0650  174.0750  143.3410 N   0  0  0  0  0  0  0  0  0  0  0  0
  196.1100  174.4290  145.5140 N   0  0  0  0  0  1  0  0  0  0  0  0
  194.8110  174.7410  142.1820 C   0  0  0  0  0  0  0  0  0  0  0  0
  195.9900  176.3930  143.6030 S   0  0  0  0  0  0  0  0  0  0  0  0
  195.7040  174.8650  144.2230 C   0  0  0  0  0  0  0  0  0  0  0  0
  195.2600  176.0610  142.1210 C   0  0  0  0  0  3  0  0  0  0  0  0
  194.0690  177.0810  146.9430 F   0  0  0  0  0  0  0  0  0  0  0  0
  193.0110  176.4550  146.3750 C   0  0  0  0  0  0  0  0  0  0  0  0
  191.5280  176.1410  144.4860 C   0  0  0  0  0  3  0  0  0  0  0  0
  191.2140  174.8370  146.5050 C   0  0  0  0  0  3  0  0  0  0  0  0
  192.3080  175.4820  147.0910 C   0  0  0  0  0  3  0  0  0  0  0  0
  190.8210  175.1650  145.1980 C   0  0  0  0  0  0  0  0  0  0  0  0
  192.6210  176.7840  145.0740 C   0  0  0  0  0  3  0  0  0  0  0  0
  188.6520  175.4870  143.9140 C   0  0  1  0  0  3  0  0  0  0  0  0
  188.4870  176.7030  144.8180 C   0  0  0  0  0  2  0  0  0  0  0  0
  186.0300  176.8120  145.4760 N   0  0  0  0  0  0  0  0  0  0  0  0
  185.6870  177.2560  144.1330 C   0  0  0  0  0  1  0  0  0  0  0  0
  187.3900  176.5040  145.8190 C   0  0  0  0  0  0  0  0  0  0  0  0
  187.6600  176.0240  146.9540 O   0  0  0  0  0  0  0  0  0  0  0  0
  184.9790  176.7900  146.4820 C   0  0  0  0  0  2  0  0  0  0  0  0
  184.4090  178.1830  146.6780 C   0  0  0  0  0  2  0  0  0  0  0  0
  185.4810  179.0860  147.2500 C   0  0  0  0  0  1  0  0  0  0  0  0
  189.1200  175.9810  142.5470 C   0  0  0  0  0  2  0  0  0  0  0  0
  188.1700  175.6740  141.5730 O   0  0  0  0  0  0  0  0  0  0  0  0
  186.5580  177.2470  139.9530 O   0  0  0  0  0  0  0  0  0  0  0  0
  187.6500  177.1760  140.9970 P   0  0  0  0  0  0  0  0  0  0  0  0
  188.2760  178.4450  141.5230 O   0  0  0  0  0  0  0  0  0  0  0  0
  1 26  1  6  0  0  0
  1 24  1  0  0  0  0
  2  7  2  0  0  0  0
  4  7  1  0  0  0  0
  5  2  1  1  0  0  0
  6  3  1  6  0  0  0
  6  5  1  0  0  0  0
  6  4  1  0  0  0  0
  7  1  1  0  0  0  0
  8 10  1  0  0  0  0
  9  8  1  0  0  0  0
  9  3  1  0  0  0  0
 10 11  1  1  0  0  0
 10  5  1  0  0  0  0
 12 11  1  0  0  0  0
 12 15  1  0  0  0  0
 13 17  2  0  0  0  0
 15 13  1  0  0  0  0
 16 17  1  0  0  0  0
 17 14  1  0  0  0  0
 18 15  2  0  0  0  0
 18 16  1  0  0  0  0
 20 19  1  0  0  0  0
 20 23  1  0  0  0  0
 21 25  1  0  0  0  0
 21 24  2  0  0  0  0
 22 23  2  0  0  0  0
 24 22  1  0  0  0  0
 25 20  2  0  0  0  0
 26 35  1  6  0  0  0
 26 27  1  0  0  0  0
 27 30  1  0  0  0  0
 28 30  1  0  0  0  0
 28 32  1  0  0  0  0
 29 28  1  0  0  0  0
 30 31  2  0  0  0  0
 32 33  1  0  0  0  0
 33 34  1  0  0  0  0
 36 35  1  0  0  0  0
 37 38  2  0  0  0  0
 38 39  2  0  0  0  0
 38 36  1  0  0  0  0
M  END
>  <MODEL>
9

>  <REMARK>
 VINA RESULT:      -6.0      3.101      5.882
  Name = 
  13 active torsions:
  status: ('A' for Active; 'I' for Inactive)
    1  A    between atoms: C_2  and  C_12
    2  A    between atoms: C_2  and  C_18
    3  A    between atoms: C_2  and  C_28
    4  A    between atoms: P_5  and  O_10
    5  A    between atoms: C_6  and  C_26
    6  A    between atoms: O_10  and  C_28
    7  A    between atoms: C_12  and  C_24
    8  A    between atoms: N_15  and  C_26
    9  A    between atoms: C_17  and  C_31
   10  A    between atoms: C_17  and  N_38
   11  A    between atoms: C_18  and  C_21
   12  A    between atoms: C_18  and  C_35
   13  A    between atoms: C_30  and  N_38
                            x       y       z     vdW  Elec       q    Type
                         _______ _______ _______ _____ _____    ______ ____

>  <TORSDO>
F 13

$$$$
