=
 OpenBabel11062419393D

 42 48  0  0  1  0  0  0  0  0999 V2000
  190.1830  177.1550  145.2720 C   0  0  1  0  0  3  0  0  0  0  0  0
  190.2430  175.2700  147.5070 C   0  0  1  0  0  3  0  0  0  0  0  0
  190.6360  176.7360  147.5400 C   0  0  1  0  0  3  0  0  0  0  0  0
  190.3580  174.6680  146.1210 C   0  0  1  0  0  3  0  0  0  0  0  0
  192.0400  176.3830  147.0640 C   0  0  0  0  0  2  0  0  0  0  0  0
  189.8570  177.4810  146.6110 O   0  0  0  0  0  0  0  0  0  0  0  0
  190.0030  175.6530  144.9780 C   0  0  2  0  0  3  0  0  0  0  0  0
  191.6230  174.9230  146.9500 C   0  0  1  0  0  3  0  0  0  0  0  0
  191.9790  174.5200  141.3190 C   0  0  0  0  0  0  0  0  0  0  0  0
  192.6080  175.3880  142.2240 C   0  0  0  0  0  0  0  0  0  0  0  0
  190.6690  175.2600  143.6920 C   0  0  0  0  0  0  0  0  0  0  0  0
  190.0520  174.3900  142.7930 C   0  0  0  0  0  3  0  0  0  0  0  0
  191.9500  175.7380  143.4140 C   0  0  0  0  0  3  0  0  0  0  0  0
  190.7020  174.0250  141.6110 C   0  0  0  0  0  3  0  0  0  0  0  0
  192.1190  173.1790  139.3080 N   0  0  0  0  0  1  0  0  0  0  0  0
  192.6300  174.1520  140.1360 O   0  0  0  0  0  0  0  0  0  0  0  0
  194.0210  175.8290  141.9760 C   0  0  0  0  0  2  0  0  0  0  0  0
  197.1100  173.8240  141.1550 O   0  0  0  0  0  0  0  0  0  0  0  0
  196.9460  175.6390  143.2250 C   0  0  1  0  0  0  0  0  0  0  0  0
  197.9180  174.7320  143.9450 C   0  0  0  0  0  2  0  0  0  0  0  0
  196.4810  175.1030  141.6250 S   0  0  0  0  0  0  0  0  0  0  0  0
  195.5340  175.3510  143.7260 C   0  0  1  0  0  3  0  0  0  0  0  0
  194.9830  174.8430  142.4550 N   0  0  0  0  0  0  0  0  0  0  0  0
  196.4350  176.1810  140.5770 O   0  0  0  0  0  0  0  0  0  0  0  0
  197.2750  176.9920  143.2800 O   0  0  0  0  0  1  0  0  0  0  0  0
  195.6700  174.2110  144.7210 C   0  0  0  0  0  2  0  0  0  0  0  0
  197.1360  174.1380  145.1040 C   0  0  0  0  0  2  0  0  0  0  0  0
  189.3260  177.9740  144.3150 C   0  0  0  0  0  2  0  0  0  0  0  0
  187.9890  177.2960  144.0470 C   0  0  0  0  0  2  0  0  0  0  0  0
  186.9170  177.7600  145.0280 C   0  0  2  0  0  3  0  0  0  0  0  0
  186.5020  176.6600  145.9800 C   0  0  0  0  0  2  0  0  0  0  0  0
  185.7750  179.7460  144.0530 C   0  0  0  0  0  1  0  0  0  0  0  0
  185.6200  178.2770  144.4040 C   0  0  2  0  0  0  0  0  0  0  0  0
  185.1080  177.0300  146.4460 C   0  0  0  0  0  2  0  0  0  0  0  0
  184.6130  178.1430  145.5350 C   0  0  0  0  0  2  0  0  0  0  0  0
  185.1670  177.4450  143.1790 C   0  0  2  0  0  3  0  0  0  0  0  0
  185.9200  176.2730  143.0370 O   0  0  0  0  0  1  0  0  0  0  0  0
  186.1360  177.7460  140.8390 C   0  0  0  0  0  1  0  0  0  0  0  0
  185.1120  178.2270  141.8590 C   0  0  1  0  0  3  0  0  0  0  0  0
  183.7280  178.2120  141.2930 C   0  0  0  0  0  0  0  0  0  0  0  0
  183.5270  177.9270  140.0850 O   0  0  0  0  0  0  0  0  0  0  0  0
  182.6480  178.4180  142.1370 O   0  0  0  0  0  1  0  0  0  0  0  0
  1 28  1  6  0  0  0
  1  6  1  0  0  0  0
  2  3  1  0  0  0  0
  4  8  1  0  0  0  0
  4  2  1  0  0  0  0
  5  3  1  0  0  0  0
  6  3  1  0  0  0  0
  7  1  1  0  0  0  0
  7  4  1  0  0  0  0
  8  5  1  0  0  0  0
  8  2  1  0  0  0  0
  9 14  2  0  0  0  0
  9 10  1  0  0  0  0
 10 13  2  0  0  0  0
 11  7  1  0  0  0  0
 12 11  2  0  0  0  0
 13 11  1  0  0  0  0
 14 12  1  0  0  0  0
 15 16  1  0  0  0  0
 16  9  1  0  0  0  0
 17 10  1  0  0  0  0
 17 23  1  0  0  0  0
 18 21  2  0  0  0  0
 19 25  1  0  0  0  0
 19 22  1  0  0  0  0
 19 20  1  0  0  0  0
 20 27  1  0  0  0  0
 21 23  1  0  0  0  0
 21 19  1  0  0  0  0
 22 26  1  0  0  0  0
 23 22  1  0  0  0  0
 24 21  2  0  0  0  0
 26 27  1  0  0  0  0
 29 28  1  0  0  0  0
 29 30  1  0  0  0  0
 30 31  1  0  0  0  0
 31 34  1  0  0  0  0
 32 33  1  0  0  0  0
 33 30  1  0  0  0  0
 33 35  1  0  0  0  0
 35 34  1  0  0  0  0
 36 33  1  0  0  0  0
 37 36  1  0  0  0  0
 38 39  1  0  0  0  0
 39 36  1  0  0  0  0
 40 39  1  0  0  0  0
 40 42  1  0  0  0  0
 41 40  2  0  0  0  0
M  END
>  <MODEL>
1

>  <REMARK>
 VINA RESULT:      -8.8      0.000      0.000
  Name = 
  10 active torsions:
  status: ('A' for Active; 'I' for Inactive)
    1  A    between atoms: C_1  and  C_6
    2  A    between atoms: C_2  and  O_12
    3  A    between atoms: C_4  and  C_42
    4  A    between atoms: C_5  and  C_21
    5  A    between atoms: C_6  and  C_21
    6  A    between atoms: C_10  and  C_37
    7  A    between atoms: C_13  and  C_36
    8  A    between atoms: C_19  and  C_20
    9  A    between atoms: C_19  and  C_37
   10  A    between atoms: N_22  and  C_42
                            x       y       z     vdW  Elec       q    Type
                         _______ _______ _______ _____ _____    ______ ____

>  <TORSDO>
F 10

$$$$
=
 OpenBabel11062419393D

 42 48  0  0  1  0  0  0  0  0999 V2000
  188.7770  173.0180  140.9310 C   0  0  1  0  0  3  0  0  0  0  0  0
  189.9100  173.5600  138.2910 C   0  0  1  0  0  3  0  0  0  0  0  0
  188.6340  172.7960  138.5960 C   0  0  1  0  0  3  0  0  0  0  0  0
  190.8890  173.5440  139.4480 C   0  0  1  0  0  3  0  0  0  0  0  0
  189.4340  171.5140  138.7950 C   0  0  0  0  0  2  0  0  0  0  0  0
  188.0180  173.3080  139.7710 O   0  0  0  0  0  0  0  0  0  0  0  0
  190.2110  173.5740  140.8420 C   0  0  2  0  0  3  0  0  0  0  0  0
  190.7220  172.2960  138.5720 C   0  0  1  0  0  3  0  0  0  0  0  0
  192.7420  171.9080  143.9070 C   0  0  0  0  0  0  0  0  0  0  0  0
  192.6070  173.2980  143.7770 C   0  0  0  0  0  0  0  0  0  0  0  0
  191.0990  172.9760  141.8930 C   0  0  0  0  0  0  0  0  0  0  0  0
  191.2300  171.5940  142.0310 C   0  0  0  0  0  3  0  0  0  0  0  0
  191.7710  173.8200  142.7780 C   0  0  0  0  0  3  0  0  0  0  0  0
  192.0500  171.0630  143.0300 C   0  0  0  0  0  3  0  0  0  0  0  0
  193.9190  170.0460  144.9120 N   0  0  0  0  0  1  0  0  0  0  0  0
  193.5610  171.3750  144.9080 O   0  0  0  0  0  0  0  0  0  0  0  0
  193.2510  174.2070  144.7840 C   0  0  0  0  0  2  0  0  0  0  0  0
  194.6220  177.6760  145.3520 O   0  0  0  0  0  0  0  0  0  0  0  0
  196.0150  175.6430  144.1150 C   0  0  1  0  0  0  0  0  0  0  0  0
  196.6650  176.7390  143.3010 C   0  0  0  0  0  2  0  0  0  0  0  0
  194.8360  176.1920  145.2850 S   0  0  0  0  0  0  0  0  0  0  0  0
  194.8980  175.0100  143.2920 C   0  0  1  0  0  3  0  0  0  0  0  0
  193.7740  175.4160  144.1580 N   0  0  0  0  0  0  0  0  0  0  0  0
  194.9110  175.5260  146.6320 O   0  0  0  0  0  0  0  0  0  0  0  0
  196.9080  174.7050  144.6300 O   0  0  0  0  0  1  0  0  0  0  0  0
  194.8500  175.7870  141.9880 C   0  0  0  0  0  2  0  0  0  0  0  0
  196.1610  176.5440  141.8820 C   0  0  0  0  0  2  0  0  0  0  0  0
  188.0800  173.5850  142.1620 C   0  0  0  0  0  2  0  0  0  0  0  0
  187.7750  175.0660  141.9960 C   0  0  0  0  0  2  0  0  0  0  0  0
  188.6540  175.9260  142.8990 C   0  0  2  0  0  3  0  0  0  0  0  0
  188.7710  175.3510  144.2930 C   0  0  0  0  0  2  0  0  0  0  0  0
  188.7360  178.2260  141.9480 C   0  0  0  0  0  1  0  0  0  0  0  0
  188.2020  177.3750  143.0870 C   0  0  2  0  0  0  0  0  0  0  0  0
  189.1200  176.5230  145.1880 C   0  0  0  0  0  2  0  0  0  0  0  0
  188.8900  177.7890  144.3780 C   0  0  0  0  0  2  0  0  0  0  0  0
  186.6660  177.5140  143.2280 C   0  0  2  0  0  3  0  0  0  0  0  0
  186.0640  177.9080  142.0270 O   0  0  0  0  0  1  0  0  0  0  0  0
  185.5680  179.7070  143.9270 C   0  0  0  0  0  1  0  0  0  0  0  0
  186.2090  178.4060  144.3910 C   0  0  1  0  0  3  0  0  0  0  0  0
  185.3060  177.6500  145.3130 C   0  0  0  0  0  0  0  0  0  0  0  0
  185.6080  176.4970  145.7120 O   0  0  0  0  0  0  0  0  0  0  0  0
  184.1700  178.2700  145.8110 O   0  0  0  0  0  1  0  0  0  0  0  0
  1 28  1  1  0  0  0
  2  8  1  0  0  0  0
  2  3  1  0  0  0  0
  2  4  1  0  0  0  0
  3  5  1  0  0  0  0
  3  6  1  0  0  0  0
  4  7  1  0  0  0  0
  6  1  1  0  0  0  0
  7  1  1  0  0  0  0
  7 11  1  0  0  0  0
  8  5  1  0  0  0  0
  8  4  1  0  0  0  0
  9 16  1  0  0  0  0
 10  9  1  0  0  0  0
 10 17  1  0  0  0  0
 11 12  2  0  0  0  0
 11 13  1  0  0  0  0
 12 14  1  0  0  0  0
 13 10  2  0  0  0  0
 14  9  2  0  0  0  0
 16 15  1  0  0  0  0
 19 25  1  0  0  0  0
 19 21  1  0  0  0  0
 20 19  1  0  0  0  0
 21 18  2  0  0  0  0
 21 24  2  0  0  0  0
 22 19  1  0  0  0  0
 22 23  1  0  0  0  0
 23 17  1  0  0  0  0
 23 21  1  0  0  0  0
 26 22  1  0  0  0  0
 27 26  1  0  0  0  0
 27 20  1  0  0  0  0
 29 28  1  0  0  0  0
 29 30  1  0  0  0  0
 30 33  1  0  0  0  0
 30 31  1  0  0  0  0
 31 34  1  0  0  0  0
 32 33  1  0  0  0  0
 33 36  1  0  0  0  0
 33 35  1  0  0  0  0
 35 34  1  0  0  0  0
 36 39  1  0  0  0  0
 37 36  1  0  0  0  0
 38 39  1  0  0  0  0
 39 40  1  0  0  0  0
 40 41  2  0  0  0  0
 40 42  1  0  0  0  0
M  END
>  <MODEL>
2

>  <REMARK>
 VINA RESULT:      -8.6      2.760      4.980
  Name = 
  10 active torsions:
  status: ('A' for Active; 'I' for Inactive)
    1  A    between atoms: C_1  and  C_6
    2  A    between atoms: C_2  and  O_12
    3  A    between atoms: C_4  and  C_42
    4  A    between atoms: C_5  and  C_21
    5  A    between atoms: C_6  and  C_21
    6  A    between atoms: C_10  and  C_37
    7  A    between atoms: C_13  and  C_36
    8  A    between atoms: C_19  and  C_20
    9  A    between atoms: C_19  and  C_37
   10  A    between atoms: N_22  and  C_42
                            x       y       z     vdW  Elec       q    Type
                         _______ _______ _______ _____ _____    ______ ____

>  <TORSDO>
F 10

$$$$
=
 OpenBabel11062419393D

 42 48  0  0  1  0  0  0  0  0999 V2000
  195.2700  175.5300  144.7640 C   0  0  1  0  0  3  0  0  0  0  0  0
  197.6880  175.8950  143.1600 C   0  0  1  0  0  3  0  0  0  0  0  0
  196.3400  176.5590  142.9420 C   0  0  1  0  0  3  0  0  0  0  0  0
  197.5760  174.5830  143.9120 C   0  0  1  0  0  3  0  0  0  0  0  0
  195.8620  175.3530  142.1420 C   0  0  0  0  0  2  0  0  0  0  0  0
  195.6760  176.7560  144.1840 O   0  0  0  0  0  0  0  0  0  0  0  0
  196.4550  174.5690  144.9830 C   0  0  2  0  0  3  0  0  0  0  0  0
  197.1820  174.6510  142.4310 C   0  0  1  0  0  3  0  0  0  0  0  0
  195.0810  170.5510  145.7210 C   0  0  0  0  0  0  0  0  0  0  0  0
  194.2950  171.4440  144.9780 C   0  0  0  0  0  0  0  0  0  0  0  0
  195.9860  173.1720  145.2620 C   0  0  0  0  0  0  0  0  0  0  0  0
  196.7690  172.2780  145.9940 C   0  0  0  0  0  3  0  0  0  0  0  0
  194.7640  172.7450  144.7420 C   0  0  0  0  0  3  0  0  0  0  0  0
  196.3170  170.9760  146.2250 C   0  0  0  0  0  3  0  0  0  0  0  0
  194.5580  168.7260  147.2230 N   0  0  0  0  0  1  0  0  0  0  0  0
  194.6310  169.2470  145.9510 O   0  0  0  0  0  0  0  0  0  0  0  0
  193.0250  170.9630  144.3360 C   0  0  0  0  0  2  0  0  0  0  0  0
  194.2920  170.3520  140.8340 O   0  0  0  0  0  0  0  0  0  0  0  0
  191.6540  170.0970  141.5940 C   0  0  1  0  0  0  0  0  0  0  0  0
  191.3250  170.5470  140.1880 C   0  0  0  0  0  2  0  0  0  0  0  0
  193.3620  169.9960  141.9570 S   0  0  0  0  0  0  0  0  0  0  0  0
  191.5270  171.2880  142.5380 C   0  0  1  0  0  3  0  0  0  0  0  0
  192.9470  171.3640  142.9360 N   0  0  0  0  0  0  0  0  0  0  0  0
  193.7810  168.7780  142.7340 O   0  0  0  0  0  0  0  0  0  0  0  0
  190.9310  168.9860  142.0230 O   0  0  0  0  0  1  0  0  0  0  0  0
  191.1730  172.4780  141.6620 C   0  0  0  0  0  2  0  0  0  0  0  0
  190.6870  171.9170  140.3390 C   0  0  0  0  0  2  0  0  0  0  0  0
  194.5660  175.7900  146.0900 C   0  0  0  0  0  2  0  0  0  0  0  0
  193.1360  176.2660  145.8760 C   0  0  0  0  0  2  0  0  0  0  0  0
  192.1370  175.1210  146.0160 C   0  0  2  0  0  3  0  0  0  0  0  0
  191.6540  174.6190  144.6730 C   0  0  0  0  0  2  0  0  0  0  0  0
  191.1440  175.2270  148.2980 C   0  0  0  0  0  1  0  0  0  0  0  0
  190.8720  175.4340  146.8180 C   0  0  2  0  0  0  0  0  0  0  0  0
  190.3120  173.9700  144.9400 C   0  0  0  0  0  2  0  0  0  0  0  0
  189.8900  174.3750  146.3430 C   0  0  0  0  0  2  0  0  0  0  0  0
  190.3140  176.8510  146.5350 C   0  0  2  0  0  3  0  0  0  0  0  0
  190.3280  177.6560  147.6810 O   0  0  0  0  0  1  0  0  0  0  0  0
  187.8400  177.4220  146.7710 C   0  0  0  0  0  1  0  0  0  0  0  0
  188.9330  176.8720  145.8650 C   0  0  1  0  0  3  0  0  0  0  0  0
  188.9890  177.6100  144.5650 C   0  0  0  0  0  0  0  0  0  0  0  0
  187.9360  177.9790  143.9860 O   0  0  0  0  0  0  0  0  0  0  0  0
  190.2210  177.9770  144.0450 O   0  0  0  0  0  1  0  0  0  0  0  0
  1  7  1  0  0  0  0
  1 28  1  1  0  0  0
  2  4  1  0  0  0  0
  3  2  1  0  0  0  0
  3  6  1  0  0  0  0
  4  7  1  0  0  0  0
  5  8  1  0  0  0  0
  5  3  1  0  0  0  0
  6  1  1  0  0  0  0
  7 11  1  0  0  0  0
  8  2  1  0  0  0  0
  8  4  1  0  0  0  0
  9 16  1  0  0  0  0
  9 14  1  0  0  0  0
 10  9  2  0  0  0  0
 11 12  1  0  0  0  0
 12 14  2  0  0  0  0
 13 10  1  0  0  0  0
 13 11  2  0  0  0  0
 16 15  1  0  0  0  0
 17 10  1  0  0  0  0
 18 21  2  0  0  0  0
 19 21  1  0  0  0  0
 19 25  1  0  0  0  0
 19 22  1  0  0  0  0
 20 27  1  0  0  0  0
 20 19  1  0  0  0  0
 21 24  2  0  0  0  0
 21 23  1  0  0  0  0
 22 23  1  0  0  0  0
 23 17  1  0  0  0  0
 26 22  1  0  0  0  0
 27 26  1  0  0  0  0
 29 30  1  0  0  0  0
 29 28  1  0  0  0  0
 30 33  1  0  0  0  0
 31 34  1  0  0  0  0
 31 30  1  0  0  0  0
 33 32  1  0  0  0  0
 34 35  1  0  0  0  0
 35 33  1  0  0  0  0
 36 33  1  0  0  0  0
 36 37  1  0  0  0  0
 39 36  1  0  0  0  0
 39 38  1  0  0  0  0
 40 39  1  0  0  0  0
 41 40  2  0  0  0  0
 42 40  1  0  0  0  0
M  END
>  <MODEL>
3

>  <REMARK>
 VINA RESULT:      -8.3      3.133      6.802
  Name = 
  10 active torsions:
  status: ('A' for Active; 'I' for Inactive)
    1  A    between atoms: C_1  and  C_6
    2  A    between atoms: C_2  and  O_12
    3  A    between atoms: C_4  and  C_42
    4  A    between atoms: C_5  and  C_21
    5  A    between atoms: C_6  and  C_21
    6  A    between atoms: C_10  and  C_37
    7  A    between atoms: C_13  and  C_36
    8  A    between atoms: C_19  and  C_20
    9  A    between atoms: C_19  and  C_37
   10  A    between atoms: N_22  and  C_42
                            x       y       z     vdW  Elec       q    Type
                         _______ _______ _______ _____ _____    ______ ____

>  <TORSDO>
F 10

$$$$
=
 OpenBabel11062419393D

 42 48  0  0  1  0  0  0  0  0999 V2000
  192.0820  177.0600  144.3710 C   0  0  1  0  0  3  0  0  0  0  0  0
  191.8090  174.8910  146.3140 C   0  0  1  0  0  3  0  0  0  0  0  0
  192.0170  176.3650  146.6150 C   0  0  1  0  0  3  0  0  0  0  0  0
  192.3230  174.5000  144.9420 C   0  0  1  0  0  3  0  0  0  0  0  0
  193.5240  176.1940  146.4750 C   0  0  0  0  0  2  0  0  0  0  0  0
  191.4080  177.1680  145.6120 O   0  0  0  0  0  0  0  0  0  0  0  0
  192.1470  175.6050  143.8690 C   0  0  2  0  0  3  0  0  0  0  0  0
  193.3130  174.7350  146.0900 C   0  0  1  0  0  3  0  0  0  0  0  0
  194.9600  175.1720  140.6320 C   0  0  0  0  0  0  0  0  0  0  0  0
  193.6480  174.6930  140.5000 C   0  0  0  0  0  0  0  0  0  0  0  0
  193.1440  175.4490  142.7590 C   0  0  0  0  0  0  0  0  0  0  0  0
  194.4480  175.9310  142.8830 C   0  0  0  0  0  3  0  0  0  0  0  0
  192.7450  174.8520  141.5630 C   0  0  0  0  0  3  0  0  0  0  0  0
  195.3510  175.7900  141.8270 C   0  0  0  0  0  3  0  0  0  0  0  0
  197.1140  175.6120  139.6170 N   0  0  0  0  0  1  0  0  0  0  0  0
  195.8660  175.0330  139.5750 O   0  0  0  0  0  0  0  0  0  0  0  0
  193.1870  174.1360  139.1840 C   0  0  0  0  0  2  0  0  0  0  0  0
  189.5690  173.9830  138.1230 O   0  0  0  0  0  0  0  0  0  0  0  0
  191.4010  171.9710  137.6780 C   0  0  1  0  0  0  0  0  0  0  0  0
  190.2290  171.0280  137.8240 C   0  0  0  0  0  2  0  0  0  0  0  0
  191.0120  173.6670  137.8590 S   0  0  0  0  0  0  0  0  0  0  0  0
  192.1730  172.0110  138.9920 C   0  0  1  0  0  3  0  0  0  0  0  0
  191.9190  173.4290  139.3160 N   0  0  0  0  0  0  0  0  0  0  0  0
  191.6650  174.5840  136.8620 O   0  0  0  0  0  0  0  0  0  0  0  0
  192.2150  171.7060  136.5780 O   0  0  0  0  0  1  0  0  0  0  0  0
  191.4070  171.1180  139.9520 C   0  0  0  0  0  2  0  0  0  0  0  0
  190.4850  170.2570  139.1080 C   0  0  0  0  0  2  0  0  0  0  0  0
  191.3950  177.9340  143.3290 C   0  0  0  0  0  2  0  0  0  0  0  0
  189.9450  178.2060  143.7010 C   0  0  0  0  0  2  0  0  0  0  0  0
  188.9920  177.2560  142.9820 C   0  0  2  0  0  3  0  0  0  0  0  0
  188.2000  177.9560  141.8990 C   0  0  0  0  0  2  0  0  0  0  0  0
  188.5690  175.3030  144.4670 C   0  0  0  0  0  1  0  0  0  0  0  0
  187.9570  176.5550  143.8630 C   0  0  2  0  0  0  0  0  0  0  0  0
  186.9510  177.1210  141.7060 C   0  0  0  0  0  2  0  0  0  0  0  0
  186.8770  176.1490  142.8730 C   0  0  0  0  0  2  0  0  0  0  0  0
  187.3660  177.4830  144.9530 C   0  0  2  0  0  3  0  0  0  0  0  0
  187.9870  177.2940  146.1930 O   0  0  0  0  0  1  0  0  0  0  0  0
  185.3820  176.7890  146.3970 C   0  0  0  0  0  1  0  0  0  0  0  0
  185.8380  177.4190  145.0870 C   0  0  1  0  0  3  0  0  0  0  0  0
  185.2340  178.7730  144.8910 C   0  0  0  0  0  0  0  0  0  0  0  0
  184.2560  179.1510  145.5860 O   0  0  0  0  0  1  0  0  0  0  0  0
  185.8230  179.6570  144.0000 O   0  0  0  0  0  0  0  0  0  0  0  0
  1 28  1  6  0  0  0
  1  6  1  0  0  0  0
  2  3  1  0  0  0  0
  4  8  1  0  0  0  0
  4  2  1  0  0  0  0
  5  3  1  0  0  0  0
  6  3  1  0  0  0  0
  7  1  1  0  0  0  0
  7  4  1  0  0  0  0
  8  2  1  0  0  0  0
  8  5  1  0  0  0  0
  9 14  1  0  0  0  0
 10  9  2  0  0  0  0
 10 13  1  0  0  0  0
 11 12  1  0  0  0  0
 11  7  1  0  0  0  0
 13 11  2  0  0  0  0
 14 12  2  0  0  0  0
 16 15  1  0  0  0  0
 16  9  1  0  0  0  0
 17 23  1  0  0  0  0
 17 10  1  0  0  0  0
 19 20  1  0  0  0  0
 19 21  1  0  0  0  0
 19 22  1  0  0  0  0
 20 27  1  0  0  0  0
 21 18  2  0  0  0  0
 21 23  1  0  0  0  0
 22 23  1  0  0  0  0
 22 26  1  0  0  0  0
 24 21  2  0  0  0  0
 25 19  1  0  0  0  0
 27 26  1  0  0  0  0
 28 29  1  0  0  0  0
 30 29  1  0  0  0  0
 30 33  1  0  0  0  0
 31 30  1  0  0  0  0
 33 32  1  0  0  0  0
 33 36  1  0  0  0  0
 34 31  1  0  0  0  0
 34 35  1  0  0  0  0
 35 33  1  0  0  0  0
 36 39  1  0  0  0  0
 36 37  1  0  0  0  0
 39 38  1  0  0  0  0
 40 39  1  0  0  0  0
 40 41  1  0  0  0  0
 42 40  2  0  0  0  0
M  END
>  <MODEL>
4

>  <REMARK>
 VINA RESULT:      -8.3      2.597      5.010
  Name = 
  10 active torsions:
  status: ('A' for Active; 'I' for Inactive)
    1  A    between atoms: C_1  and  C_6
    2  A    between atoms: C_2  and  O_12
    3  A    between atoms: C_4  and  C_42
    4  A    between atoms: C_5  and  C_21
    5  A    between atoms: C_6  and  C_21
    6  A    between atoms: C_10  and  C_37
    7  A    between atoms: C_13  and  C_36
    8  A    between atoms: C_19  and  C_20
    9  A    between atoms: C_19  and  C_37
   10  A    between atoms: N_22  and  C_42
                            x       y       z     vdW  Elec       q    Type
                         _______ _______ _______ _____ _____    ______ ____

>  <TORSDO>
F 10

$$$$
=
 OpenBabel11062419393D

 42 48  0  0  1  0  0  0  0  0999 V2000
  189.3850  174.2300  141.1700 C   0  0  1  0  0  3  0  0  0  0  0  0
  189.5770  173.6350  138.3130 C   0  0  1  0  0  3  0  0  0  0  0  0
  188.3090  173.8900  139.1080 C   0  0  1  0  0  3  0  0  0  0  0  0
  190.7150  173.1320  139.1800 C   0  0  1  0  0  3  0  0  0  0  0  0
  188.2570  172.4240  139.5200 C   0  0  0  0  0  2  0  0  0  0  0  0
  188.5630  174.8030  140.1690 O   0  0  0  0  0  0  0  0  0  0  0  0
  190.7320  173.7390  140.6060 C   0  0  2  0  0  3  0  0  0  0  0  0
  189.5740  172.1830  138.7930 C   0  0  1  0  0  3  0  0  0  0  0  0
  192.7900  171.2020  143.4180 C   0  0  0  0  0  0  0  0  0  0  0  0
  193.4150  172.3500  142.9090 C   0  0  0  0  0  0  0  0  0  0  0  0
  191.4380  172.8360  141.5740 C   0  0  0  0  0  0  0  0  0  0  0  0
  190.8170  171.6990  142.0890 C   0  0  0  0  0  3  0  0  0  0  0  0
  192.7250  173.1670  142.0010 C   0  0  0  0  0  3  0  0  0  0  0  0
  191.4900  170.8840  143.0030 C   0  0  0  0  0  3  0  0  0  0  0  0
  193.0660  169.0900  144.5690 N   0  0  0  0  0  1  0  0  0  0  0  0
  193.4620  170.3870  144.3350 O   0  0  0  0  0  0  0  0  0  0  0  0
  194.7600  172.7620  143.4360 C   0  0  0  0  0  2  0  0  0  0  0  0
  196.6490  174.1340  146.4000 O   0  0  0  0  0  0  0  0  0  0  0  0
  194.8750  175.6000  144.8800 C   0  0  1  0  0  0  0  0  0  0  0  0
  194.5660  176.3400  146.1620 C   0  0  0  0  0  2  0  0  0  0  0  0
  196.0680  174.3280  145.0300 S   0  0  0  0  0  0  0  0  0  0  0  0
  193.7940  174.5510  144.6390 C   0  0  1  0  0  3  0  0  0  0  0  0
  194.6560  173.3600  144.7620 N   0  0  0  0  0  0  0  0  0  0  0  0
  197.0840  174.2690  143.9230 O   0  0  0  0  0  0  0  0  0  0  0  0
  195.0850  176.4260  143.7780 O   0  0  0  0  0  1  0  0  0  0  0  0
  192.8590  174.6360  145.8330 C   0  0  0  0  0  2  0  0  0  0  0  0
  193.1370  175.9640  146.5130 C   0  0  0  0  0  2  0  0  0  0  0  0
  189.6300  175.2420  142.2830 C   0  0  0  0  0  2  0  0  0  0  0  0
  188.8930  174.8560  143.5570 C   0  0  0  0  0  2  0  0  0  0  0  0
  189.4740  175.5630  144.7780 C   0  0  2  0  0  3  0  0  0  0  0  0
  189.2230  174.7910  146.0550 C   0  0  0  0  0  2  0  0  0  0  0  0
  189.7550  177.9740  144.2240 C   0  0  0  0  0  1  0  0  0  0  0  0
  188.9530  176.9770  145.0410 C   0  0  2  0  0  0  0  0  0  0  0  0
  189.2880  175.8170  147.1690 C   0  0  0  0  0  2  0  0  0  0  0  0
  189.2570  177.1890  146.5160 C   0  0  0  0  0  2  0  0  0  0  0  0
  187.4330  177.1180  144.7790 C   0  0  2  0  0  3  0  0  0  0  0  0
  187.1650  177.5170  143.4640 O   0  0  0  0  0  1  0  0  0  0  0  0
  185.9410  179.1570  145.1260 C   0  0  0  0  0  1  0  0  0  0  0  0
  186.6910  178.0070  145.7870 C   0  0  1  0  0  3  0  0  0  0  0  0
  185.7840  177.1860  146.6480 C   0  0  0  0  0  0  0  0  0  0  0  0
  184.9300  176.4170  146.1380 O   0  0  0  0  0  0  0  0  0  0  0  0
  185.9580  177.2010  148.0230 O   0  0  0  0  0  1  0  0  0  0  0  0
  1 28  1  1  0  0  0
  2  8  1  0  0  0  0
  2  3  1  0  0  0  0
  2  4  1  0  0  0  0
  3  5  1  0  0  0  0
  3  6  1  0  0  0  0
  4  7  1  0  0  0  0
  6  1  1  0  0  0  0
  7  1  1  0  0  0  0
  7 11  1  0  0  0  0
  8  4  1  0  0  0  0
  8  5  1  0  0  0  0
  9 16  1  0  0  0  0
 10  9  2  0  0  0  0
 10 17  1  0  0  0  0
 11 13  2  0  0  0  0
 11 12  1  0  0  0  0
 12 14  2  0  0  0  0
 13 10  1  0  0  0  0
 14  9  1  0  0  0  0
 16 15  1  0  0  0  0
 17 23  1  0  0  0  0
 19 21  1  0  0  0  0
 19 20  1  0  0  0  0
 20 27  1  0  0  0  0
 21 18  2  0  0  0  0
 22 23  1  0  0  0  0
 22 19  1  0  0  0  0
 22 26  1  0  0  0  0
 23 21  1  0  0  0  0
 24 21  2  0  0  0  0
 25 19  1  0  0  0  0
 26 27  1  0  0  0  0
 28 29  1  0  0  0  0
 29 30  1  0  0  0  0
 30 33  1  0  0  0  0
 30 31  1  0  0  0  0
 31 34  1  0  0  0  0
 32 33  1  0  0  0  0
 33 35  1  0  0  0  0
 35 34  1  0  0  0  0
 36 33  1  0  0  0  0
 36 39  1  0  0  0  0
 37 36  1  0  0  0  0
 38 39  1  0  0  0  0
 39 40  1  0  0  0  0
 40 42  1  0  0  0  0
 41 40  2  0  0  0  0
M  END
>  <MODEL>
5

>  <REMARK>
 VINA RESULT:      -8.3      2.745      5.028
  Name = 
  10 active torsions:
  status: ('A' for Active; 'I' for Inactive)
    1  A    between atoms: C_1  and  C_6
    2  A    between atoms: C_2  and  O_12
    3  A    between atoms: C_4  and  C_42
    4  A    between atoms: C_5  and  C_21
    5  A    between atoms: C_6  and  C_21
    6  A    between atoms: C_10  and  C_37
    7  A    between atoms: C_13  and  C_36
    8  A    between atoms: C_19  and  C_20
    9  A    between atoms: C_19  and  C_37
   10  A    between atoms: N_22  and  C_42
                            x       y       z     vdW  Elec       q    Type
                         _______ _______ _______ _____ _____    ______ ____

>  <TORSDO>
F 10

$$$$
=
 OpenBabel11062419393D

 42 48  0  0  1  0  0  0  0  0999 V2000
  194.9410  175.6050  144.5650 C   0  0  1  0  0  3  0  0  0  0  0  0
  197.5730  175.7550  143.2980 C   0  0  1  0  0  3  0  0  0  0  0  0
  196.4090  176.7100  143.0990 C   0  0  1  0  0  3  0  0  0  0  0  0
  197.1260  174.3790  143.7510 C   0  0  1  0  0  3  0  0  0  0  0  0
  195.8270  175.7950  142.0280 C   0  0  0  0  0  2  0  0  0  0  0  0
  195.6370  176.8080  144.2890 O   0  0  0  0  0  0  0  0  0  0  0  0
  195.8910  174.3990  144.6890 C   0  0  2  0  0  3  0  0  0  0  0  0
  196.9470  174.7960  142.2860 C   0  0  1  0  0  3  0  0  0  0  0  0
  193.7400  170.6710  144.4520 C   0  0  0  0  0  0  0  0  0  0  0  0
  193.4530  171.7140  143.5590 C   0  0  0  0  0  0  0  0  0  0  0  0
  195.1430  173.1000  144.6310 C   0  0  0  0  0  0  0  0  0  0  0  0
  195.4320  172.0570  145.5120 C   0  0  0  0  0  3  0  0  0  0  0  0
  194.1700  172.9170  143.6480 C   0  0  0  0  0  3  0  0  0  0  0  0
  194.7320  170.8520  145.4250 C   0  0  0  0  0  3  0  0  0  0  0  0
  193.1690  168.4880  145.3290 N   0  0  0  0  0  1  0  0  0  0  0  0
  193.0420  169.4630  144.3650 O   0  0  0  0  0  0  0  0  0  0  0  0
  192.4760  171.4890  142.4400 C   0  0  0  0  0  2  0  0  0  0  0  0
  191.1790  174.9280  141.5870 O   0  0  0  0  0  0  0  0  0  0  0  0
  190.0520  172.5800  140.6850 C   0  0  1  0  0  0  0  0  0  0  0  0
  188.7380  173.3260  140.7330 C   0  0  0  0  0  2  0  0  0  0  0  0
  191.4480  173.5070  141.1860 S   0  0  0  0  0  0  0  0  0  0  0  0
  190.1800  171.7180  141.9380 C   0  0  1  0  0  3  0  0  0  0  0  0
  191.3470  172.4080  142.5210 N   0  0  0  0  0  0  0  0  0  0  0  0
  192.6720  173.3370  140.3290 O   0  0  0  0  0  0  0  0  0  0  0  0
  190.2590  171.8600  139.5100 O   0  0  0  0  0  1  0  0  0  0  0  0
  188.9420  172.0080  142.7690 C   0  0  0  0  0  2  0  0  0  0  0  0
  187.9370  172.6670  141.8430 C   0  0  0  0  0  2  0  0  0  0  0  0
  194.1300  175.7570  145.8460 C   0  0  0  0  0  2  0  0  0  0  0  0
  192.6850  176.1270  145.5480 C   0  0  0  0  0  2  0  0  0  0  0  0
  191.7130  175.0870  146.0970 C   0  0  2  0  0  3  0  0  0  0  0  0
  190.9660  174.3680  144.9950 C   0  0  0  0  0  2  0  0  0  0  0  0
  191.1930  175.6750  148.4600 C   0  0  0  0  0  1  0  0  0  0  0  0
  190.6380  175.6140  147.0480 C   0  0  2  0  0  0  0  0  0  0  0  0
  189.6920  173.8560  145.6350 C   0  0  0  0  0  2  0  0  0  0  0  0
  189.5620  174.5410  146.9860 C   0  0  0  0  0  2  0  0  0  0  0  0
  190.0590  176.9810  146.6060 C   0  0  2  0  0  3  0  0  0  0  0  0
  190.1150  177.9300  147.6340 O   0  0  0  0  0  1  0  0  0  0  0  0
  187.5870  177.5420  146.8870 C   0  0  0  0  0  1  0  0  0  0  0  0
  188.6510  176.9130  145.9970 C   0  0  1  0  0  3  0  0  0  0  0  0
  188.6400  177.5090  144.6250 C   0  0  0  0  0  0  0  0  0  0  0  0
  187.5900  178.0080  144.1470 O   0  0  0  0  0  1  0  0  0  0  0  0
  189.8260  177.5990  143.9140 O   0  0  0  0  0  0  0  0  0  0  0  0
  1  7  1  0  0  0  0
  1 28  1  1  0  0  0
  2  4  1  0  0  0  0
  3  2  1  0  0  0  0
  3  6  1  0  0  0  0
  4  7  1  0  0  0  0
  5  8  1  0  0  0  0
  5  3  1  0  0  0  0
  6  1  1  0  0  0  0
  8  2  1  0  0  0  0
  8  4  1  0  0  0  0
  9 14  1  0  0  0  0
 10 13  1  0  0  0  0
 10  9  2  0  0  0  0
 11  7  1  0  0  0  0
 11 12  1  0  0  0  0
 13 11  2  0  0  0  0
 14 12  2  0  0  0  0
 16  9  1  0  0  0  0
 16 15  1  0  0  0  0
 17 23  1  0  0  0  0
 17 10  1  0  0  0  0
 19 20  1  0  0  0  0
 19 21  1  0  0  0  0
 19 22  1  0  0  0  0
 20 27  1  0  0  0  0
 21 18  2  0  0  0  0
 21 23  1  0  0  0  0
 22 23  1  0  0  0  0
 22 26  1  0  0  0  0
 24 21  2  0  0  0  0
 25 19  1  0  0  0  0
 27 26  1  0  0  0  0
 29 28  1  0  0  0  0
 29 30  1  0  0  0  0
 30 33  1  0  0  0  0
 31 34  1  0  0  0  0
 31 30  1  0  0  0  0
 33 32  1  0  0  0  0
 34 35  1  0  0  0  0
 35 33  1  0  0  0  0
 36 33  1  0  0  0  0
 36 37  1  0  0  0  0
 39 36  1  0  0  0  0
 39 38  1  0  0  0  0
 40 39  1  0  0  0  0
 41 40  1  0  0  0  0
 42 40  2  0  0  0  0
M  END
>  <MODEL>
6

>  <REMARK>
 VINA RESULT:      -8.2      2.935      6.485
  Name = 
  10 active torsions:
  status: ('A' for Active; 'I' for Inactive)
    1  A    between atoms: C_1  and  C_6
    2  A    between atoms: C_2  and  O_12
    3  A    between atoms: C_4  and  C_42
    4  A    between atoms: C_5  and  C_21
    5  A    between atoms: C_6  and  C_21
    6  A    between atoms: C_10  and  C_37
    7  A    between atoms: C_13  and  C_36
    8  A    between atoms: C_19  and  C_20
    9  A    between atoms: C_19  and  C_37
   10  A    between atoms: N_22  and  C_42
                            x       y       z     vdW  Elec       q    Type
                         _______ _______ _______ _____ _____    ______ ____

>  <TORSDO>
F 10

$$$$
=
 OpenBabel11062419393D

 42 48  0  0  1  0  0  0  0  0999 V2000
  192.2240  176.6010  145.4050 C   0  0  1  0  0  3  0  0  0  0  0  0
  194.8230  175.3990  145.9950 C   0  0  1  0  0  3  0  0  0  0  0  0
  194.5650  176.7990  145.4660 C   0  0  1  0  0  3  0  0  0  0  0  0
  193.7000  174.4360  145.6640 C   0  0  1  0  0  3  0  0  0  0  0  0
  194.5220  176.2650  144.0400 C   0  0  0  0  0  2  0  0  0  0  0  0
  193.3260  177.2950  145.9590 O   0  0  0  0  0  0  0  0  0  0  0  0
  192.2930  175.0860  145.6770 C   0  0  2  0  0  3  0  0  0  0  0  0
  194.6970  174.8500  144.5740 C   0  0  1  0  0  3  0  0  0  0  0  0
  189.5890  172.8950  143.1340 C   0  0  0  0  0  0  0  0  0  0  0  0
  190.5170  173.7890  142.5790 C   0  0  0  0  0  0  0  0  0  0  0  0
  191.3340  174.3260  144.8080 C   0  0  0  0  0  0  0  0  0  0  0  0
  190.4160  173.4290  145.3560 C   0  0  0  0  0  3  0  0  0  0  0  0
  191.3940  174.4870  143.4240 C   0  0  0  0  0  3  0  0  0  0  0  0
  189.5460  172.7210  144.5230 C   0  0  0  0  0  3  0  0  0  0  0  0
  187.4660  172.6630  141.9940 N   0  0  0  0  0  1  0  0  0  0  0  0
  188.7190  172.1840  142.3010 O   0  0  0  0  0  0  0  0  0  0  0  0
  190.6500  173.8950  141.0870 C   0  0  0  0  0  2  0  0  0  0  0  0
  191.7910  170.7540  139.3340 O   0  0  0  0  0  0  0  0  0  0  0  0
  192.2480  173.3060  138.3950 C   0  0  1  0  0  0  0  0  0  0  0  0
  193.5300  172.7430  137.8250 C   0  0  0  0  0  2  0  0  0  0  0  0
  191.2590  172.1560  139.2680 S   0  0  0  0  0  0  0  0  0  0  0  0
  192.5600  174.0250  139.7030 C   0  0  1  0  0  3  0  0  0  0  0  0
  191.7920  173.1340  140.5950 N   0  0  0  0  0  0  0  0  0  0  0  0
  189.7840  172.2370  138.9870 O   0  0  0  0  0  0  0  0  0  0  0  0
  191.5220  174.0940  137.5030 O   0  0  0  0  0  1  0  0  0  0  0  0
  194.0480  173.8320  139.9390 C   0  0  0  0  0  2  0  0  0  0  0  0
  194.6480  173.4020  138.6140 C   0  0  0  0  0  2  0  0  0  0  0  0
  190.9220  177.1650  145.9610 C   0  0  0  0  0  2  0  0  0  0  0  0
  190.0810  177.8060  144.8660 C   0  0  0  0  0  2  0  0  0  0  0  0
  189.1620  176.7900  144.1950 C   0  0  2  0  0  3  0  0  0  0  0  0
  188.9400  177.1030  142.7320 C   0  0  0  0  0  2  0  0  0  0  0  0
  187.8140  175.6700  145.9640 C   0  0  0  0  0  1  0  0  0  0  0  0
  187.7660  176.6480  144.8040 C   0  0  2  0  0  0  0  0  0  0  0  0
  187.6250  176.4410  142.3710 C   0  0  0  0  0  2  0  0  0  0  0  0
  186.9550  176.0350  143.6740 C   0  0  0  0  0  2  0  0  0  0  0  0
  187.1540  178.0060  145.2300 C   0  0  2  0  0  3  0  0  0  0  0  0
  187.3550  178.2650  146.5910 O   0  0  0  0  0  1  0  0  0  0  0  0
  184.7670  178.3640  146.0540 C   0  0  0  0  0  1  0  0  0  0  0  0
  185.6790  178.1910  144.8460 C   0  0  1  0  0  3  0  0  0  0  0  0
  185.5230  179.3190  143.8770 C   0  0  0  0  0  0  0  0  0  0  0  0
  185.5660  180.5140  144.2640 O   0  0  0  0  0  1  0  0  0  0  0  0
  185.4300  179.0410  142.5210 O   0  0  0  0  0  0  0  0  0  0  0  0
  1  7  1  0  0  0  0
  1  6  1  0  0  0  0
  1 28  1  1  0  0  0
  3  6  1  0  0  0  0
  3  2  1  0  0  0  0
  4  7  1  0  0  0  0
  4  2  1  0  0  0  0
  5  8  1  0  0  0  0
  5  3  1  0  0  0  0
  8  4  1  0  0  0  0
  8  2  1  0  0  0  0
  9 14  1  0  0  0  0
 10  9  2  0  0  0  0
 10 13  1  0  0  0  0
 11 12  1  0  0  0  0
 11  7  1  0  0  0  0
 13 11  2  0  0  0  0
 14 12  2  0  0  0  0
 15 16  1  0  0  0  0
 16  9  1  0  0  0  0
 17 10  1  0  0  0  0
 19 21  1  0  0  0  0
 19 22  1  0  0  0  0
 20 19  1  0  0  0  0
 20 27  1  0  0  0  0
 21 18  2  0  0  0  0
 21 23  1  0  0  0  0
 22 26  1  0  0  0  0
 22 23  1  0  0  0  0
 23 17  1  0  0  0  0
 24 21  2  0  0  0  0
 25 19  1  0  0  0  0
 27 26  1  0  0  0  0
 29 28  1  0  0  0  0
 30 33  1  0  0  0  0
 30 29  1  0  0  0  0
 31 30  1  0  0  0  0
 33 36  1  0  0  0  0
 33 32  1  0  0  0  0
 34 31  1  0  0  0  0
 34 35  1  0  0  0  0
 35 33  1  0  0  0  0
 36 37  1  0  0  0  0
 39 36  1  0  0  0  0
 39 38  1  0  0  0  0
 40 41  1  0  0  0  0
 40 39  1  0  0  0  0
 42 40  2  0  0  0  0
M  END
>  <MODEL>
7

>  <REMARK>
 VINA RESULT:      -8.1      2.671      4.590
  Name = 
  10 active torsions:
  status: ('A' for Active; 'I' for Inactive)
    1  A    between atoms: C_1  and  C_6
    2  A    between atoms: C_2  and  O_12
    3  A    between atoms: C_4  and  C_42
    4  A    between atoms: C_5  and  C_21
    5  A    between atoms: C_6  and  C_21
    6  A    between atoms: C_10  and  C_37
    7  A    between atoms: C_13  and  C_36
    8  A    between atoms: C_19  and  C_20
    9  A    between atoms: C_19  and  C_37
   10  A    between atoms: N_22  and  C_42
                            x       y       z     vdW  Elec       q    Type
                         _______ _______ _______ _____ _____    ______ ____

>  <TORSDO>
F 10

$$$$
=
 OpenBabel11062419393D

 42 48  0  0  1  0  0  0  0  0999 V2000
  191.1590  174.5410  141.7310 C   0  0  1  0  0  3  0  0  0  0  0  0
  189.3330  172.2790  141.4110 C   0  0  1  0  0  3  0  0  0  0  0  0
  189.6250  173.3660  140.3920 C   0  0  1  0  0  3  0  0  0  0  0  0
  189.5970  172.7300  142.8350 C   0  0  1  0  0  3  0  0  0  0  0  0
  188.5720  174.2640  141.0290 C   0  0  0  0  0  2  0  0  0  0  0  0
  190.9650  173.8240  140.5250 O   0  0  0  0  0  0  0  0  0  0  0  0
  190.7970  173.7010  142.9710 C   0  0  2  0  0  3  0  0  0  0  0  0
  188.3370  173.2100  142.1030 C   0  0  1  0  0  3  0  0  0  0  0  0
  190.3580  176.1670  146.4790 C   0  0  0  0  0  0  0  0  0  0  0  0
  189.6240  176.4490  145.3180 C   0  0  0  0  0  0  0  0  0  0  0  0
  190.6680  174.5570  144.1970 C   0  0  0  0  0  0  0  0  0  0  0  0
  191.3900  174.2750  145.3570 C   0  0  0  0  0  3  0  0  0  0  0  0
  189.7750  175.6290  144.1890 C   0  0  0  0  0  3  0  0  0  0  0  0
  191.2390  175.0770  146.4900 C   0  0  0  0  0  3  0  0  0  0  0  0
  191.2720  177.2650  148.4340 N   0  0  0  0  0  1  0  0  0  0  0  0
  190.2060  176.9680  147.6160 O   0  0  0  0  0  0  0  0  0  0  0  0
  188.5930  177.5410  145.3350 C   0  0  0  0  0  2  0  0  0  0  0  0
  185.0450  176.6320  146.2440 O   0  0  0  0  0  0  0  0  0  0  0  0
  185.7270  178.6370  144.4780 C   0  0  1  0  0  0  0  0  0  0  0  0
  184.4410  178.2880  143.7640 C   0  0  0  0  0  2  0  0  0  0  0  0
  186.0690  177.6730  145.8980 S   0  0  0  0  0  0  0  0  0  0  0  0
  186.8940  177.9740  143.7520 C   0  0  1  0  0  3  0  0  0  0  0  0
  187.3040  177.0690  144.8430 N   0  0  0  0  0  0  0  0  0  0  0  0
  186.5840  178.4410  147.0840 O   0  0  0  0  0  0  0  0  0  0  0  0
  185.9190  180.0030  144.6780 O   0  0  0  0  0  1  0  0  0  0  0  0
  186.2770  177.1700  142.6200 C   0  0  0  0  0  2  0  0  0  0  0  0
  184.8650  177.6930  142.4320 C   0  0  0  0  0  2  0  0  0  0  0  0
  192.6050  175.0100  141.8290 C   0  0  0  0  0  2  0  0  0  0  0  0
  193.5370  173.8630  142.1950 C   0  0  0  0  0  2  0  0  0  0  0  0
  194.9930  174.2010  141.8840 C   0  0  2  0  0  3  0  0  0  0  0  0
  195.7150  173.0480  141.2230 C   0  0  0  0  0  2  0  0  0  0  0  0
  195.6900  176.0810  143.3600 C   0  0  0  0  0  1  0  0  0  0  0  0
  195.8560  174.5970  143.0820 C   0  0  2  0  0  0  0  0  0  0  0  0
  197.1860  173.2690  141.5160 C   0  0  0  0  0  2  0  0  0  0  0  0
  197.2720  174.3430  142.5890 C   0  0  0  0  0  2  0  0  0  0  0  0
  195.5650  173.7460  144.3430 C   0  0  2  0  0  3  0  0  0  0  0  0
  194.8380  174.4630  145.3010 O   0  0  0  0  0  1  0  0  0  0  0  0
  197.1910  173.7060  146.3080 C   0  0  0  0  0  1  0  0  0  0  0  0
  196.8030  173.0890  144.9710 C   0  0  1  0  0  3  0  0  0  0  0  0
  196.6140  171.6090  145.0850 C   0  0  0  0  0  0  0  0  0  0  0  0
  196.8160  171.0150  146.1740 O   0  0  0  0  0  1  0  0  0  0  0  0
  196.1150  170.9030  144.0020 O   0  0  0  0  0  0  0  0  0  0  0  0
  1 28  1  1  0  0  0
  1  7  1  0  0  0  0
  2  8  1  0  0  0  0
  2  4  1  0  0  0  0
  3  6  1  0  0  0  0
  3  5  1  0  0  0  0
  3  2  1  0  0  0  0
  4  7  1  0  0  0  0
  5  8  1  0  0  0  0
  6  1  1  0  0  0  0
  7 11  1  0  0  0  0
  8  4  1  0  0  0  0
  9 14  1  0  0  0  0
  9 16  1  0  0  0  0
 10 17  1  0  0  0  0
 10  9  2  0  0  0  0
 11 12  1  0  0  0  0
 12 14  2  0  0  0  0
 13 11  2  0  0  0  0
 13 10  1  0  0  0  0
 16 15  1  0  0  0  0
 19 25  1  0  0  0  0
 19 21  1  0  0  0  0
 20 19  1  0  0  0  0
 21 18  2  0  0  0  0
 21 24  2  0  0  0  0
 22 19  1  0  0  0  0
 22 23  1  0  0  0  0
 23 17  1  0  0  0  0
 23 21  1  0  0  0  0
 26 22  1  0  0  0  0
 27 26  1  0  0  0  0
 27 20  1  0  0  0  0
 28 29  1  0  0  0  0
 30 29  1  0  0  0  0
 30 33  1  0  0  0  0
 31 34  1  0  0  0  0
 31 30  1  0  0  0  0
 33 32  1  0  0  0  0
 33 36  1  0  0  0  0
 34 35  1  0  0  0  0
 35 33  1  0  0  0  0
 36 39  1  0  0  0  0
 36 37  1  0  0  0  0
 39 40  1  0  0  0  0
 39 38  1  0  0  0  0
 40 41  1  0  0  0  0
 42 40  2  0  0  0  0
M  END
>  <MODEL>
8

>  <REMARK>
 VINA RESULT:      -8.0      3.256      9.894
  Name = 
  10 active torsions:
  status: ('A' for Active; 'I' for Inactive)
    1  A    between atoms: C_1  and  C_6
    2  A    between atoms: C_2  and  O_12
    3  A    between atoms: C_4  and  C_42
    4  A    between atoms: C_5  and  C_21
    5  A    between atoms: C_6  and  C_21
    6  A    between atoms: C_10  and  C_37
    7  A    between atoms: C_13  and  C_36
    8  A    between atoms: C_19  and  C_20
    9  A    between atoms: C_19  and  C_37
   10  A    between atoms: N_22  and  C_42
                            x       y       z     vdW  Elec       q    Type
                         _______ _______ _______ _____ _____    ______ ____

>  <TORSDO>
F 10

$$$$
=
 OpenBabel11062419393D

 42 48  0  0  1  0  0  0  0  0999 V2000
  194.9150  175.8470  144.2860 C   0  0  1  0  0  3  0  0  0  0  0  0
  197.6470  175.6860  143.2540 C   0  0  1  0  0  3  0  0  0  0  0  0
  196.6510  176.8100  143.0270 C   0  0  1  0  0  3  0  0  0  0  0  0
  196.9720  174.3660  143.5700 C   0  0  1  0  0  3  0  0  0  0  0  0
  196.0470  176.0540  141.8500 C   0  0  0  0  0  2  0  0  0  0  0  0
  195.7940  176.9500  144.1540 O   0  0  0  0  0  0  0  0  0  0  0  0
  195.6720  174.5100  144.4020 C   0  0  2  0  0  3  0  0  0  0  0  0
  196.9880  174.8890  142.1280 C   0  0  1  0  0  3  0  0  0  0  0  0
  193.0720  171.1390  143.7320 C   0  0  0  0  0  0  0  0  0  0  0  0
  193.3480  172.0390  142.6920 C   0  0  0  0  0  0  0  0  0  0  0  0
  194.7580  173.3400  144.1920 C   0  0  0  0  0  0  0  0  0  0  0  0
  194.4870  172.4370  145.2210 C   0  0  0  0  0  3  0  0  0  0  0  0
  194.2040  173.1250  142.9290 C   0  0  0  0  0  3  0  0  0  0  0  0
  193.6460  171.3460  144.9930 C   0  0  0  0  0  3  0  0  0  0  0  0
  192.7000  168.7520  143.5760 N   0  0  0  0  0  1  0  0  0  0  0  0
  192.2310  170.0440  143.5050 O   0  0  0  0  0  0  0  0  0  0  0  0
  192.8330  171.7610  141.3100 C   0  0  0  0  0  2  0  0  0  0  0  0
  192.2390  174.1530  138.4520 O   0  0  0  0  0  0  0  0  0  0  0  0
  190.3780  172.3330  139.3620 C   0  0  1  0  0  0  0  0  0  0  0  0
  189.3450  173.3590  138.9550 C   0  0  0  0  0  2  0  0  0  0  0  0
  192.0390  172.8030  139.0760 S   0  0  0  0  0  0  0  0  0  0  0  0
  190.6120  172.4340  140.8650 C   0  0  1  0  0  3  0  0  0  0  0  0
  192.0230  172.8640  140.8070 N   0  0  0  0  0  0  0  0  0  0  0  0
  192.9180  171.7270  138.4980 O   0  0  0  0  0  0  0  0  0  0  0  0
  190.0910  171.0350  138.9440 O   0  0  0  0  0  1  0  0  0  0  0  0
  189.7430  173.5830  141.3460 C   0  0  0  0  0  2  0  0  0  0  0  0
  188.7240  173.8470  140.2530 C   0  0  0  0  0  2  0  0  0  0  0  0
  194.0200  176.0400  145.5040 C   0  0  0  0  0  2  0  0  0  0  0  0
  192.5560  176.1620  145.1040 C   0  0  0  0  0  2  0  0  0  0  0  0
  191.7280  174.9990  145.6410 C   0  0  2  0  0  3  0  0  0  0  0  0
  191.0860  174.1970  144.5300 C   0  0  0  0  0  2  0  0  0  0  0  0
  191.1270  175.4950  148.0060 C   0  0  0  0  0  1  0  0  0  0  0  0
  190.5890  175.3730  146.5910 C   0  0  2  0  0  0  0  0  0  0  0  0
  189.8880  173.5160  145.1610 C   0  0  0  0  0  2  0  0  0  0  0  0
  189.6650  174.1680  146.5160 C   0  0  0  0  0  2  0  0  0  0  0  0
  189.8370  176.6550  146.1550 C   0  0  2  0  0  3  0  0  0  0  0  0
  190.0460  177.7120  147.0500 O   0  0  0  0  0  1  0  0  0  0  0  0
  187.4490  177.1860  146.8740 C   0  0  0  0  0  1  0  0  0  0  0  0
  188.3410  176.4560  145.8780 C   0  0  1  0  0  3  0  0  0  0  0  0
  188.0100  176.8320  144.4690 C   0  0  0  0  0  0  0  0  0  0  0  0
  188.8810  176.7780  143.5650 O   0  0  0  0  0  0  0  0  0  0  0  0
  186.7000  177.1490  144.1410 O   0  0  0  0  0  1  0  0  0  0  0  0
  1  7  1  0  0  0  0
  1 28  1  1  0  0  0
  2  4  1  0  0  0  0
  3  2  1  0  0  0  0
  3  6  1  0  0  0  0
  4  7  1  0  0  0  0
  5  8  1  0  0  0  0
  5  3  1  0  0  0  0
  6  1  1  0  0  0  0
  8  2  1  0  0  0  0
  8  4  1  0  0  0  0
  9 14  1  0  0  0  0
 10 13  1  0  0  0  0
 10  9  2  0  0  0  0
 11  7  1  0  0  0  0
 11 12  1  0  0  0  0
 13 11  2  0  0  0  0
 14 12  2  0  0  0  0
 16 15  1  0  0  0  0
 16  9  1  0  0  0  0
 17 10  1  0  0  0  0
 18 21  2  0  0  0  0
 19 22  1  0  0  0  0
 20 19  1  0  0  0  0
 20 27  1  0  0  0  0
 21 19  1  0  0  0  0
 21 23  1  0  0  0  0
 22 26  1  0  0  0  0
 23 22  1  0  0  0  0
 23 17  1  0  0  0  0
 24 21  2  0  0  0  0
 25 19  1  0  0  0  0
 27 26  1  0  0  0  0
 29 28  1  0  0  0  0
 29 30  1  0  0  0  0
 30 33  1  0  0  0  0
 31 34  1  0  0  0  0
 31 30  1  0  0  0  0
 33 32  1  0  0  0  0
 34 35  1  0  0  0  0
 35 33  1  0  0  0  0
 36 33  1  0  0  0  0
 36 37  1  0  0  0  0
 39 36  1  0  0  0  0
 39 38  1  0  0  0  0
 40 39  1  0  0  0  0
 41 40  2  0  0  0  0
 42 40  1  0  0  0  0
M  END
>  <MODEL>
9

>  <REMARK>
 VINA RESULT:      -8.0      2.701      6.309
  Name = 
  10 active torsions:
  status: ('A' for Active; 'I' for Inactive)
    1  A    between atoms: C_1  and  C_6
    2  A    between atoms: C_2  and  O_12
    3  A    between atoms: C_4  and  C_42
    4  A    between atoms: C_5  and  C_21
    5  A    between atoms: C_6  and  C_21
    6  A    between atoms: C_10  and  C_37
    7  A    between atoms: C_13  and  C_36
    8  A    between atoms: C_19  and  C_20
    9  A    between atoms: C_19  and  C_37
   10  A    between atoms: N_22  and  C_42
                            x       y       z     vdW  Elec       q    Type
                         _______ _______ _______ _____ _____    ______ ____

>  <TORSDO>
F 10

$$$$
