=
 OpenBabel11062420303D

 53 59  0  0  1  0  0  0  0  0999 V2000
  190.2090  175.0400  143.5820 O   0  0  0  0  0  0  0  0  0  0  0  0
  196.4880  175.5560  143.0830 O   0  0  0  0  0  1  0  0  0  0  0  0
  192.4160  174.2260  142.8320 C   0  0  2  0  0  3  0  0  0  0  0  0
  190.3990  173.7700  140.1190 C   0  0  2  0  0  3  0  0  0  0  0  0
  191.8190  173.4790  139.6360 C   0  0  2  0  0  0  0  0  0  0  0  0
  190.9950  174.7040  142.4710 C   0  0  1  0  0  3  0  0  0  0  0  0
  194.0880  172.4040  139.9690 C   0  0  0  0  0  1  0  0  0  0  0  0
  190.8920  177.5470  143.8710 O   0  0  0  0  0  1  0  0  0  0  0  0
  189.7080  174.7910  147.6750 O   0  0  0  0  0  0  0  0  0  0  0  0
  189.5870  172.8290  142.1470 O   0  0  0  0  0  0  0  0  0  0  0  0
  189.5120  177.0170  141.7260 O   0  0  0  0  0  0  0  0  0  0  0  0
  194.7790  174.6540  141.6530 C   0  0  2  0  0  3  0  0  0  0  0  0
  189.7690  176.6710  143.3650 P   0  0  1  0  0  0  0  0  0  0  0  0
  190.2810  173.6860  141.6240 C   0  0  0  0  0  0  0  0  0  0  0  0
  194.5100  174.8130  144.1130 C   0  0  0  0  0  2  0  0  0  0  0  0
  190.7280  172.4540  139.3740 C   0  0  1  0  0  3  0  0  0  0  0  0
  191.4540  176.3890  147.9370 C   0  0  0  0  0  2  0  0  0  0  0  0
  189.4400  176.7790  146.4810 N   0  0  0  0  0  2  0  0  0  0  0  0
  192.9970  174.9500  144.0670 C   0  0  2  0  0  3  0  0  0  0  0  0
  193.2680  174.3250  141.5390 C   0  0  1  0  0  3  0  0  0  0  0  0
  188.3300  176.2840  145.6910 C   0  0  0  0  0  2  0  0  0  0  0  0
  192.9230  173.1190  140.6410 C   0  0  1  0  0  3  0  0  0  0  0  0
  195.1060  175.4810  142.9000 C   0  0  1  0  0  3  0  0  0  0  0  0
  190.1500  175.9350  147.3830 C   0  0  0  0  0  0  0  0  0  0  0  0
  192.1830  174.2160  138.5100 O   0  0  0  0  0  1  0  0  0  0  0  0
  192.5320  176.3450  146.8620 C   0  0  0  0  0  2  0  0  0  0  0  0
  193.0010  174.9190  146.6230 C   0  0  0  0  0  2  0  0  0  0  0  0
  192.4070  174.3320  145.3410 C   0  0  0  0  0  2  0  0  0  0  0  0
  188.2600  177.0270  144.3600 C   0  0  2  0  0  3  0  0  0  0  0  0
  195.1730  175.4150  140.3810 C   0  0  2  0  0  3  0  0  0  0  0  0
  196.3550  174.7720  139.7550 C   0  0  2  0  0  3  0  0  0  0  0  0
  196.4680  175.9680  140.4870 O   0  0  0  0  0  0  0  0  0  0  0  0
  197.8020  175.3880  137.8410 C   0  0  0  0  0  1  0  0  0  0  0  0
  196.3780  175.0840  138.2730 C   0  0  0  0  0  2  0  0  0  0  0  0
  187.1520  175.9750  142.5340 O   0  0  0  0  0  1  0  0  0  0  0  0
  186.9060  176.7820  143.6510 C   0  0  1  0  0  0  0  0  0  0  0  0
  185.9650  176.0050  144.5630 C   0  0  0  0  0  1  0  0  0  0  0  0
  187.0120  178.7430  142.2300 F   0  0  0  0  0  0  0  0  0  0  0  0
  186.2450  178.1000  143.1880 C   0  0  2  0  0  3  0  0  0  0  0  0
  184.6770  178.6500  145.0170 C   0  0  2  0  0  3  0  0  0  0  0  0
  185.9780  179.0550  144.3490 C   0  0  2  0  0  3  0  0  0  0  0  0
  184.7100  179.8510  144.0930 C   0  0  0  0  0  2  0  0  0  0  0  0
  183.7900  178.2980  147.2610 F   0  0  0  0  0  0  0  0  0  0  0  0
  184.6640  179.0520  146.4960 C   0  0  1  0  0  3  0  0  0  0  0  0
  186.0060  178.9510  147.0460 N   0  0  0  0  0  2  0  0  0  0  0  0
  186.0180  177.8190  147.9580 C   0  0  0  0  0  1  0  0  0  0  0  0
  190.8300  171.3580  140.2390 O   0  0  0  0  0  0  0  0  0  0  0  0
  190.6280  170.2390  139.4170 C   0  0  0  0  0  2  0  0  0  0  0  0
  189.5150  170.9080  136.0730 O   0  0  0  0  0  1  0  0  0  0  0  0
  189.6180  170.0920  137.1520 N   0  0  0  0  0  0  0  0  0  0  0  0
  190.9010  169.3350  137.1230 C   0  0  2  0  0  3  0  0  0  0  0  0
  190.7850  170.5520  137.9210 C   0  0  2  0  0  3  0  0  0  0  0  0
  191.7620  169.6060  135.8950 C   0  0  0  0  0  1  0  0  0  0  0  0
  3 19  1  0  0  0  0
  4 14  1  0  0  0  0
  5  4  1  0  0  0  0
  5 22  1  0  0  0  0
  6  3  1  0  0  0  0
  6  1  1  0  0  0  0
  7 22  1  0  0  0  0
 11 13  2  0  0  0  0
 12 23  1  0  0  0  0
 13  1  1  0  0  0  0
 13  8  1  0  0  0  0
 13 29  1  0  0  0  0
 14 10  2  0  0  0  0
 14  6  1  0  0  0  0
 16  5  1  0  0  0  0
 16  4  1  0  0  0  0
 16 47  1  0  0  0  0
 18 24  1  0  0  0  0
 19 15  1  0  0  0  0
 19 28  1  0  0  0  0
 20 12  1  0  0  0  0
 20  3  1  0  0  0  0
 21 18  1  0  0  0  0
 22 20  1  0  0  0  0
 23  2  1  0  0  0  0
 23 15  1  0  0  0  0
 24  9  2  0  0  0  0
 24 17  1  0  0  0  0
 25  5  1  0  0  0  0
 26 17  1  0  0  0  0
 27 26  1  0  0  0  0
 28 27  1  0  0  0  0
 29 21  1  0  0  0  0
 30 32  1  0  0  0  0
 30 12  1  0  0  0  0
 31 30  1  0  0  0  0
 31 32  1  0  0  0  0
 33 34  1  0  0  0  0
 34 31  1  0  0  0  0
 35 36  1  0  0  0  0
 36 29  1  0  0  0  0
 36 37  1  0  0  0  0
 38 39  1  0  0  0  0
 39 36  1  0  0  0  0
 39 41  1  0  0  0  0
 40 44  1  0  0  0  0
 41 40  1  0  0  0  0
 42 41  1  0  0  0  0
 42 40  1  0  0  0  0
 44 45  1  0  0  0  0
 44 43  1  0  0  0  0
 45 46  1  0  0  0  0
 48 47  1  0  0  0  0
 49 50  1  0  0  0  0
 50 52  1  0  0  0  0
 51 50  1  0  0  0  0
 51 52  1  0  0  0  0
 52 48  1  0  0  0  0
 53 51  1  0  0  0  0
M  END
>  <MODEL>
1

>  <REMARK>
 VINA RESULT:      -8.2      0.000      0.000
  Name = 
  10 active torsions:
  status: ('A' for Active; 'I' for Inactive)
    1  A    between atoms: C_1  and  C_41
    2  A    between atoms: C_9  and  C_48
    3  A    between atoms: C_17  and  C_25
    4  A    between atoms: N_19  and  C_41
    5  A    between atoms: C_21  and  C_26
    6  A    between atoms: C_23  and  O_35
    7  A    between atoms: C_26  and  O_35
    8  A    between atoms: C_34  and  C_47
    9  A    between atoms: C_38  and  C_48
   10  A    between atoms: C_38  and  C_51
                            x       y       z     vdW  Elec       q    Type
                         _______ _______ _______ _____ _____    ______ ____

>  <TORSDO>
F 10

$$$$
=
 OpenBabel11062420303D

 53 59  0  0  1  0  0  0  0  0999 V2000
  191.3020  174.8250  143.5050 O   0  0  0  0  0  0  0  0  0  0  0  0
  193.3190  168.8440  143.8210 O   0  0  0  0  0  1  0  0  0  0  0  0
  193.0490  173.0930  143.2910 C   0  0  2  0  0  3  0  0  0  0  0  0
  194.5990  175.6360  144.9560 C   0  0  2  0  0  3  0  0  0  0  0  0
  195.5760  174.4600  144.9870 C   0  0  2  0  0  0  0  0  0  0  0  0
  192.5440  174.3810  143.9760 C   0  0  1  0  0  3  0  0  0  0  0  0
  196.7500  172.5340  143.8370 C   0  0  0  0  0  1  0  0  0  0  0  0
  189.7150  173.4640  145.0750 O   0  0  0  0  0  0  0  0  0  0  0  0
  188.4320  174.5890  140.5420 O   0  0  0  0  0  0  0  0  0  0  0  0
  193.5210  176.2680  142.9330 O   0  0  0  0  0  0  0  0  0  0  0  0
  191.1180  175.3150  146.2560 O   0  0  0  0  0  1  0  0  0  0  0  0
  194.3530  170.9690  144.2610 C   0  0  2  0  0  3  0  0  0  0  0  0
  190.2720  174.8530  144.8610 P   0  0  1  0  0  0  0  0  0  0  0  0
  193.5610  175.4840  143.8680 C   0  0  0  0  0  0  0  0  0  0  0  0
  192.4420  170.7160  142.7020 C   0  0  0  0  0  2  0  0  0  0  0  0
  196.0670  175.8120  144.4960 C   0  0  1  0  0  3  0  0  0  0  0  0
  187.7840  172.4670  141.4050 C   0  0  0  0  0  2  0  0  0  0  0  0
  187.9150  174.5450  142.8170 N   0  0  0  0  0  2  0  0  0  0  0  0
  191.9060  172.1200  142.9290 C   0  0  2  0  0  3  0  0  0  0  0  0
  194.1630  172.5070  144.1980 C   0  0  1  0  0  3  0  0  0  0  0  0
  188.4310  175.8760  143.0730 C   0  0  0  0  0  2  0  0  0  0  0  0
  195.4520  173.3210  143.9660 C   0  0  1  0  0  3  0  0  0  0  0  0
  193.0550  170.2060  143.9810 C   0  0  1  0  0  3  0  0  0  0  0  0
  188.0470  173.9260  141.5410 C   0  0  0  0  0  0  0  0  0  0  0  0
  196.0100  174.1350  146.2720 O   0  0  0  0  0  1  0  0  0  0  0  0
  188.9080  171.6640  142.0440 C   0  0  0  0  0  2  0  0  0  0  0  0
  190.1360  171.6410  141.1480 C   0  0  0  0  0  2  0  0  0  0  0  0
  191.2200  172.5990  141.6430 C   0  0  0  0  0  2  0  0  0  0  0  0
  188.8680  175.9980  144.5310 C   0  0  2  0  0  3  0  0  0  0  0  0
  194.8840  170.6370  145.6620 C   0  0  2  0  0  3  0  0  0  0  0  0
  196.0300  169.7000  145.5570 C   0  0  2  0  0  3  0  0  0  0  0  0
  194.7530  169.2610  145.9530 O   0  0  0  0  0  0  0  0  0  0  0  0
  197.5290  168.4950  147.1180 C   0  0  0  0  0  1  0  0  0  0  0  0
  196.9160  169.8410  146.7770 C   0  0  0  0  0  2  0  0  0  0  0  0
  190.4710  177.7070  144.9550 O   0  0  0  0  0  1  0  0  0  0  0  0
  189.0900  177.4780  144.9270 C   0  0  1  0  0  0  0  0  0  0  0  0
  188.5070  178.4020  143.8670 C   0  0  0  0  0  1  0  0  0  0  0  0
  189.2920  177.3150  147.3380 F   0  0  0  0  0  0  0  0  0  0  0  0
  188.4940  177.8030  146.3160 C   0  0  2  0  0  3  0  0  0  0  0  0
  186.0970  178.3990  146.2320 C   0  0  2  0  0  3  0  0  0  0  0  0
  187.0750  177.2650  146.4790 C   0  0  2  0  0  3  0  0  0  0  0  0
  186.3870  177.9470  147.6490 C   0  0  0  0  0  2  0  0  0  0  0  0
  183.8150  177.6900  146.7130 F   0  0  0  0  0  0  0  0  0  0  0  0
  184.7550  177.8710  145.7130 C   0  0  1  0  0  3  0  0  0  0  0  0
  184.2270  178.7760  144.7040 N   0  0  0  0  0  2  0  0  0  0  0  0
  184.5490  178.2110  143.4040 C   0  0  0  0  0  1  0  0  0  0  0  0
  196.1930  175.8410  143.1020 O   0  0  0  0  0  0  0  0  0  0  0  0
  197.5760  175.8050  142.8710 C   0  0  0  0  0  2  0  0  0  0  0  0
  197.8750  175.9400  139.2990 O   0  0  0  0  0  1  0  0  0  0  0  0
  197.1270  175.9330  140.4310 N   0  0  0  0  0  0  0  0  0  0  0  0
  196.8410  174.5390  140.8680 C   0  0  2  0  0  3  0  0  0  0  0  0
  197.9410  175.2850  141.4710 C   0  0  2  0  0  3  0  0  0  0  0  0
  197.3980  173.4630  139.9420 C   0  0  0  0  0  1  0  0  0  0  0  0
  1  6  1  0  0  0  0
  1 13  1  0  0  0  0
  2 23  1  0  0  0  0
  3  6  1  0  0  0  0
  3 20  1  0  0  0  0
  4  5  1  0  0  0  0
  5 25  1  0  0  0  0
  7 22  1  0  0  0  0
  9 24  2  0  0  0  0
 10 14  2  0  0  0  0
 12 30  1  0  0  0  0
 13  8  2  0  0  0  0
 13 11  1  0  0  0  0
 14  6  1  0  0  0  0
 14  4  1  0  0  0  0
 15 19  1  0  0  0  0
 15 23  1  0  0  0  0
 16  4  1  0  0  0  0
 16  5  1  0  0  0  0
 17 24  1  0  0  0  0
 17 26  1  0  0  0  0
 18 21  1  0  0  0  0
 19  3  1  0  0  0  0
 20 12  1  0  0  0  0
 21 29  1  0  0  0  0
 22 20  1  0  0  0  0
 22  5  1  0  0  0  0
 23 12  1  0  0  0  0
 24 18  1  0  0  0  0
 27 28  1  0  0  0  0
 27 26  1  0  0  0  0
 28 19  1  0  0  0  0
 29 13  1  0  0  0  0
 29 36  1  0  0  0  0
 30 32  1  0  0  0  0
 31 30  1  0  0  0  0
 31 32  1  0  0  0  0
 31 34  1  0  0  0  0
 34 33  1  0  0  0  0
 36 35  1  0  0  0  0
 36 39  1  0  0  0  0
 37 36  1  0  0  0  0
 39 41  1  0  0  0  0
 39 38  1  0  0  0  0
 40 41  1  0  0  0  0
 40 42  1  0  0  0  0
 41 42  1  0  0  0  0
 44 40  1  0  0  0  0
 44 43  1  0  0  0  0
 45 44  1  0  0  0  0
 46 45  1  0  0  0  0
 47 16  1  0  0  0  0
 48 47  1  0  0  0  0
 49 50  1  0  0  0  0
 50 51  1  0  0  0  0
 50 52  1  0  0  0  0
 51 52  1  0  0  0  0
 52 48  1  0  0  0  0
 53 51  1  0  0  0  0
M  END
>  <MODEL>
2

>  <REMARK>
 VINA RESULT:      -8.1      3.275      6.153
  Name = 
  10 active torsions:
  status: ('A' for Active; 'I' for Inactive)
    1  A    between atoms: C_1  and  C_41
    2  A    between atoms: C_9  and  C_48
    3  A    between atoms: C_17  and  C_25
    4  A    between atoms: N_19  and  C_41
    5  A    between atoms: C_21  and  C_26
    6  A    between atoms: C_23  and  O_35
    7  A    between atoms: C_26  and  O_35
    8  A    between atoms: C_34  and  C_47
    9  A    between atoms: C_38  and  C_48
   10  A    between atoms: C_38  and  C_51
                            x       y       z     vdW  Elec       q    Type
                         _______ _______ _______ _____ _____    ______ ____

>  <TORSDO>
F 10

$$$$
=
 OpenBabel11062420303D

 53 59  0  0  1  0  0  0  0  0999 V2000
  191.9080  173.9570  144.0230 O   0  0  0  0  0  0  0  0  0  0  0  0
  187.7950  173.6680  139.2340 O   0  0  0  0  0  1  0  0  0  0  0  0
  189.6260  174.1000  143.0900 C   0  0  2  0  0  3  0  0  0  0  0  0
  189.8570  176.8180  145.1400 C   0  0  2  0  0  3  0  0  0  0  0  0
  188.5420  176.9810  144.3780 C   0  0  2  0  0  0  0  0  0  0  0  0
  190.8010  174.7900  143.8140 C   0  0  1  0  0  3  0  0  0  0  0  0
  186.3860  176.0170  143.4630 C   0  0  0  0  0  1  0  0  0  0  0  0
  193.1820  174.3300  141.7720 O   0  0  0  0  0  0  0  0  0  0  0  0
  193.3690  170.0930  144.1120 O   0  0  0  0  0  0  0  0  0  0  0  0
  190.4280  174.7420  146.1520 O   0  0  0  0  0  0  0  0  0  0  0  0
  193.1060  176.3980  143.3560 O   0  0  0  0  0  1  0  0  0  0  0  0
  187.9230  174.9970  141.2330 C   0  0  2  0  0  3  0  0  0  0  0  0
  193.2150  174.7100  143.2340 P   0  0  1  0  0  0  0  0  0  0  0  0
  190.3540  175.3900  145.1190 C   0  0  0  0  0  0  0  0  0  0  0  0
  188.9820  172.7620  141.0500 C   0  0  0  0  0  2  0  0  0  0  0  0
  188.5310  177.0810  145.8950 C   0  0  1  0  0  3  0  0  0  0  0  0
  193.3090  170.0680  141.7320 C   0  0  0  0  0  2  0  0  0  0  0  0
  194.4870  171.8500  143.0590 N   0  0  0  0  0  2  0  0  0  0  0  0
  190.0930  173.0670  142.0410 C   0  0  2  0  0  3  0  0  0  0  0  0
  188.7040  175.2270  142.5520 C   0  0  1  0  0  3  0  0  0  0  0  0
  194.6740  172.6100  144.2800 C   0  0  0  0  0  2  0  0  0  0  0  0
  187.8650  175.7650  143.7300 C   0  0  1  0  0  3  0  0  0  0  0  0
  188.6340  174.0190  140.2930 C   0  0  1  0  0  3  0  0  0  0  0  0
  193.7290  170.6450  143.0370 C   0  0  0  0  0  0  0  0  0  0  0  0
  188.4260  178.2100  143.7300 O   0  0  0  0  0  1  0  0  0  0  0  0
  192.2060  170.9120  141.1080 C   0  0  0  0  0  2  0  0  0  0  0  0
  190.8710  170.6450  141.7840 C   0  0  0  0  0  2  0  0  0  0  0  0
  190.4890  171.7660  142.7520 C   0  0  0  0  0  2  0  0  0  0  0  0
  194.7930  174.0970  143.9590 C   0  0  2  0  0  3  0  0  0  0  0  0
  187.7560  176.3670  140.5630 C   0  0  2  0  0  3  0  0  0  0  0  0
  186.3170  176.6380  140.3230 C   0  0  2  0  0  3  0  0  0  0  0  0
  187.1780  176.2490  139.2800 O   0  0  0  0  0  0  0  0  0  0  0  0
  185.0240  178.5300  141.2660 C   0  0  0  0  0  1  0  0  0  0  0  0
  186.0860  178.1340  140.2550 C   0  0  0  0  0  2  0  0  0  0  0  0
  194.2430  175.2520  145.9680 O   0  0  0  0  0  1  0  0  0  0  0  0
  195.3370  174.8900  145.1730 C   0  0  1  0  0  0  0  0  0  0  0  0
  196.2320  174.0010  146.0260 C   0  0  0  0  0  1  0  0  0  0  0  0
  195.3620  177.3090  145.0200 F   0  0  0  0  0  0  0  0  0  0  0  0
  196.0940  176.1660  144.7420 C   0  0  2  0  0  3  0  0  0  0  0  0
  197.8060  175.4570  143.1080 C   0  0  2  0  0  3  0  0  0  0  0  0
  196.4650  176.1500  143.2610 C   0  0  2  0  0  3  0  0  0  0  0  0
  197.7220  176.9690  143.0260 C   0  0  0  0  0  2  0  0  0  0  0  0
  197.5250  173.4840  141.7040 F   0  0  0  0  0  0  0  0  0  0  0  0
  197.9390  174.8040  141.7270 C   0  0  1  0  0  3  0  0  0  0  0  0
  197.1870  175.5700  140.7460 N   0  0  0  0  0  2  0  0  0  0  0  0
  197.2360  174.8350  139.4920 C   0  0  0  0  0  1  0  0  0  0  0  0
  188.0110  175.9240  146.4860 O   0  0  0  0  0  0  0  0  0  0  0  0
  186.8670  176.3610  147.1690 C   0  0  0  0  0  2  0  0  0  0  0  0
  185.8820  179.7800  147.6240 O   0  0  0  0  0  1  0  0  0  0  0  0
  185.6930  178.4510  147.8210 N   0  0  0  0  0  0  0  0  0  0  0  0
  184.9410  177.8480  146.6860 C   0  0  2  0  0  3  0  0  0  0  0  0
  186.3970  177.7570  146.7320 C   0  0  2  0  0  3  0  0  0  0  0  0
  184.5220  178.8440  145.6100 C   0  0  0  0  0  1  0  0  0  0  0  0
  2 23  1  0  0  0  0
  3  6  1  0  0  0  0
  4 16  1  0  0  0  0
  5  4  1  0  0  0  0
  5 16  1  0  0  0  0
  6  1  1  0  0  0  0
  6 14  1  0  0  0  0
  7 22  1  0  0  0  0
  8 13  2  0  0  0  0
 12 20  1  0  0  0  0
 13 11  1  0  0  0  0
 13 29  1  0  0  0  0
 13  1  1  0  0  0  0
 14  4  1  0  0  0  0
 14 10  2  0  0  0  0
 15 19  1  0  0  0  0
 16 47  1  0  0  0  0
 17 24  1  0  0  0  0
 18 21  1  0  0  0  0
 19 28  1  0  0  0  0
 19  3  1  0  0  0  0
 20  3  1  0  0  0  0
 20 22  1  0  0  0  0
 22  5  1  0  0  0  0
 23 15  1  0  0  0  0
 23 12  1  0  0  0  0
 24 18  1  0  0  0  0
 24  9  2  0  0  0  0
 25  5  1  0  0  0  0
 26 17  1  0  0  0  0
 26 27  1  0  0  0  0
 27 28  1  0  0  0  0
 29 21  1  0  0  0  0
 29 36  1  0  0  0  0
 30 12  1  0  0  0  0
 31 30  1  0  0  0  0
 32 31  1  0  0  0  0
 32 30  1  0  0  0  0
 34 31  1  0  0  0  0
 34 33  1  0  0  0  0
 36 35  1  0  0  0  0
 36 37  1  0  0  0  0
 39 38  1  0  0  0  0
 39 36  1  0  0  0  0
 40 41  1  0  0  0  0
 41 39  1  0  0  0  0
 42 40  1  0  0  0  0
 42 41  1  0  0  0  0
 43 44  1  0  0  0  0
 44 40  1  0  0  0  0
 45 44  1  0  0  0  0
 46 45  1  0  0  0  0
 47 48  1  0  0  0  0
 49 50  1  0  0  0  0
 51 52  1  0  0  0  0
 51 50  1  0  0  0  0
 52 48  1  0  0  0  0
 52 50  1  0  0  0  0
 53 51  1  0  0  0  0
M  END
>  <MODEL>
3

>  <REMARK>
 VINA RESULT:      -8.0      3.604      9.408
  Name = 
  10 active torsions:
  status: ('A' for Active; 'I' for Inactive)
    1  A    between atoms: C_1  and  C_41
    2  A    between atoms: C_9  and  C_48
    3  A    between atoms: C_17  and  C_25
    4  A    between atoms: N_19  and  C_41
    5  A    between atoms: C_21  and  C_26
    6  A    between atoms: C_23  and  O_35
    7  A    between atoms: C_26  and  O_35
    8  A    between atoms: C_34  and  C_47
    9  A    between atoms: C_38  and  C_48
   10  A    between atoms: C_38  and  C_51
                            x       y       z     vdW  Elec       q    Type
                         _______ _______ _______ _____ _____    ______ ____

>  <TORSDO>
F 10

$$$$
=
 OpenBabel11062420303D

 53 59  0  0  1  0  0  0  0  0999 V2000
  191.4400  174.4320  143.1930 O   0  0  0  0  0  0  0  0  0  0  0  0
  189.9890  178.0830  148.1440 O   0  0  0  0  0  1  0  0  0  0  0  0
  190.2990  176.3630  144.2240 C   0  0  2  0  0  3  0  0  0  0  0  0
  187.9160  174.9600  142.2270 C   0  0  2  0  0  3  0  0  0  0  0  0
  187.1950  176.0300  143.0460 C   0  0  2  0  0  0  0  0  0  0  0  0
  190.2000  175.0230  143.4670 C   0  0  1  0  0  3  0  0  0  0  0  0
  187.0930  178.3620  144.0300 C   0  0  0  0  0  1  0  0  0  0  0  0
  191.7830  173.0690  145.3970 O   0  0  0  0  0  1  0  0  0  0  0  0
  195.5360  174.9220  142.9590 O   0  0  0  0  0  0  0  0  0  0  0  0
  189.9800  175.4380  141.1470 O   0  0  0  0  0  0  0  0  0  0  0  0
  189.8530  172.2250  143.8640 O   0  0  0  0  0  0  0  0  0  0  0  0
  188.7910  177.4100  146.1700 C   0  0  2  0  0  3  0  0  0  0  0  0
  191.4050  172.9030  143.9430 P   0  0  1  0  0  0  0  0  0  0  0  0
  189.4110  175.1770  142.1960 C   0  0  0  0  0  0  0  0  0  0  0  0
  191.2680  177.4970  146.2600 C   0  0  0  0  0  2  0  0  0  0  0  0
  187.0420  176.0340  141.5340 C   0  0  1  0  0  3  0  0  0  0  0  0
  195.6240  174.9230  145.3390 C   0  0  0  0  0  2  0  0  0  0  0  0
  194.5330  173.0910  144.0030 N   0  0  0  0  0  2  0  0  0  0  0  0
  191.4710  176.3980  145.2290 C   0  0  2  0  0  3  0  0  0  0  0  0
  188.8960  176.6470  144.8250 C   0  0  1  0  0  3  0  0  0  0  0  0
  193.8980  172.6080  142.7920 C   0  0  0  0  0  2  0  0  0  0  0  0
  187.9870  177.1740  143.6960 C   0  0  1  0  0  3  0  0  0  0  0  0
  190.0230  177.2050  147.0580 C   0  0  1  0  0  3  0  0  0  0  0  0
  195.2540  174.3190  144.0290 C   0  0  0  0  0  0  0  0  0  0  0  0
  186.0770  175.5480  143.7260 O   0  0  0  0  0  1  0  0  0  0  0  0
  194.3910  175.4940  146.0260 C   0  0  0  0  0  2  0  0  0  0  0  0
  193.9870  176.8190  145.4010 C   0  0  0  0  0  2  0  0  0  0  0  0
  192.7790  176.6670  144.4740 C   0  0  0  0  0  2  0  0  0  0  0  0
  192.6470  171.8070  143.1400 C   0  0  2  0  0  3  0  0  0  0  0  0
  187.5260  176.9070  146.8770 C   0  0  2  0  0  3  0  0  0  0  0  0
  186.4960  177.9760  146.8860 C   0  0  2  0  0  3  0  0  0  0  0  0
  187.2440  177.6640  148.0360 O   0  0  0  0  0  0  0  0  0  0  0  0
  184.0980  178.2620  146.3320 C   0  0  0  0  0  1  0  0  0  0  0  0
  185.1190  177.3540  146.9960 C   0  0  0  0  0  2  0  0  0  0  0  0
  193.2720  170.5650  141.2060 O   0  0  0  0  0  1  0  0  0  0  0  0
  192.1470  170.9920  141.9220 C   0  0  1  0  0  0  0  0  0  0  0  0
  191.4140  169.7410  142.3880 C   0  0  0  0  0  1  0  0  0  0  0  0
  190.0180  171.2200  140.7840 F   0  0  0  0  0  0  0  0  0  0  0  0
  191.2440  171.8330  140.9910 C   0  0  2  0  0  3  0  0  0  0  0  0
  192.3680  173.5630  139.6320 C   0  0  2  0  0  3  0  0  0  0  0  0
  191.9020  172.1180  139.6450 C   0  0  2  0  0  3  0  0  0  0  0  0
  191.1090  173.1680  138.8840 C   0  0  0  0  0  2  0  0  0  0  0  0
  193.5300  174.9420  137.9910 F   0  0  0  0  0  0  0  0  0  0  0  0
  193.5670  173.7510  138.6960 C   0  0  1  0  0  3  0  0  0  0  0  0
  194.8030  173.6740  139.4580 N   0  0  0  0  0  2  0  0  0  0  0  0
  195.5280  174.9140  139.2370 C   0  0  0  0  0  1  0  0  0  0  0  0
  187.8060  177.0450  140.9400 O   0  0  0  0  0  0  0  0  0  0  0  0
  186.8670  177.8690  140.3030 C   0  0  0  0  0  2  0  0  0  0  0  0
  183.2900  177.9160  140.0360 O   0  0  0  0  0  1  0  0  0  0  0  0
  184.4840  178.5510  140.1410 N   0  0  0  0  0  0  0  0  0  0  0  0
  184.8920  178.6780  141.5670 C   0  0  2  0  0  3  0  0  0  0  0  0
  185.4210  177.5930  140.7470 C   0  0  2  0  0  3  0  0  0  0  0  0
  183.8790  178.1230  142.5630 C   0  0  0  0  0  1  0  0  0  0  0  0
  1  6  1  0  0  0  0
  1 13  1  0  0  0  0
  3 20  1  0  0  0  0
  3 19  1  0  0  0  0
  4  5  1  0  0  0  0
  5 22  1  0  0  0  0
  5 25  1  0  0  0  0
  6  3  1  0  0  0  0
  9 24  2  0  0  0  0
 10 14  2  0  0  0  0
 11 13  2  0  0  0  0
 12 30  1  0  0  0  0
 12 23  1  0  0  0  0
 13  8  1  0  0  0  0
 14  4  1  0  0  0  0
 14  6  1  0  0  0  0
 15 23  1  0  0  0  0
 16  4  1  0  0  0  0
 16  5  1  0  0  0  0
 17 26  1  0  0  0  0
 18 24  1  0  0  0  0
 19 15  1  0  0  0  0
 20 12  1  0  0  0  0
 21 29  1  0  0  0  0
 21 18  1  0  0  0  0
 22  7  1  0  0  0  0
 22 20  1  0  0  0  0
 23  2  1  0  0  0  0
 24 17  1  0  0  0  0
 27 26  1  0  0  0  0
 28 19  1  0  0  0  0
 28 27  1  0  0  0  0
 29 13  1  0  0  0  0
 30 31  1  0  0  0  0
 30 32  1  0  0  0  0
 31 34  1  0  0  0  0
 31 32  1  0  0  0  0
 33 34  1  0  0  0  0
 35 36  1  0  0  0  0
 36 37  1  0  0  0  0
 36 29  1  0  0  0  0
 38 39  1  0  0  0  0
 39 36  1  0  0  0  0
 40 41  1  0  0  0  0
 41 39  1  0  0  0  0
 42 40  1  0  0  0  0
 42 41  1  0  0  0  0
 43 44  1  0  0  0  0
 44 45  1  0  0  0  0
 44 40  1  0  0  0  0
 46 45  1  0  0  0  0
 47 16  1  0  0  0  0
 48 52  1  0  0  0  0
 48 47  1  0  0  0  0
 49 50  1  0  0  0  0
 50 52  1  0  0  0  0
 50 51  1  0  0  0  0
 51 53  1  0  0  0  0
 52 51  1  0  0  0  0
M  END
>  <MODEL>
4

>  <REMARK>
 VINA RESULT:      -7.7      3.343      8.597
  Name = 
  10 active torsions:
  status: ('A' for Active; 'I' for Inactive)
    1  A    between atoms: C_1  and  C_41
    2  A    between atoms: C_9  and  C_48
    3  A    between atoms: C_17  and  C_25
    4  A    between atoms: N_19  and  C_41
    5  A    between atoms: C_21  and  C_26
    6  A    between atoms: C_23  and  O_35
    7  A    between atoms: C_26  and  O_35
    8  A    between atoms: C_34  and  C_47
    9  A    between atoms: C_38  and  C_48
   10  A    between atoms: C_38  and  C_51
                            x       y       z     vdW  Elec       q    Type
                         _______ _______ _______ _____ _____    ______ ____

>  <TORSDO>
F 10

$$$$
=
 OpenBabel11062420303D

 53 59  0  0  1  0  0  0  0  0999 V2000
  190.6350  175.2120  144.0840 O   0  0  0  0  0  0  0  0  0  0  0  0
  196.5740  175.6470  141.9660 O   0  0  0  0  0  1  0  0  0  0  0  0
  192.5920  174.3260  142.8670 C   0  0  2  0  0  3  0  0  0  0  0  0
  189.9580  173.6630  140.8010 C   0  0  2  0  0  3  0  0  0  0  0  0
  191.2140  173.3240  139.9980 C   0  0  2  0  0  0  0  0  0  0  0  0
  191.1180  174.7820  142.8410 C   0  0  1  0  0  3  0  0  0  0  0  0
  193.5090  172.2660  139.8280 C   0  0  0  0  0  1  0  0  0  0  0  0
  191.3320  177.7300  143.9880 O   0  0  0  0  0  1  0  0  0  0  0  0
  191.1930  175.3020  148.1770 O   0  0  0  0  0  0  0  0  0  0  0  0
  189.7020  172.8950  143.0380 O   0  0  0  0  0  0  0  0  0  0  0  0
  189.4600  177.0350  142.3140 O   0  0  0  0  0  0  0  0  0  0  0  0
  194.5710  174.6420  141.0950 C   0  0  2  0  0  3  0  0  0  0  0  0
  190.1300  176.8230  143.8560 P   0  0  1  0  0  0  0  0  0  0  0  0
  190.2280  173.7030  142.2880 C   0  0  0  0  0  0  0  0  0  0  0  0
  194.9330  175.0030  143.5220 C   0  0  0  0  0  2  0  0  0  0  0  0
  190.1070  172.2880  140.1050 C   0  0  1  0  0  3  0  0  0  0  0  0
  192.9250  176.9050  147.8570 C   0  0  0  0  0  2  0  0  0  0  0  0
  190.6020  177.1870  146.9340 N   0  0  0  0  0  2  0  0  0  0  0  0
  193.4550  175.1450  143.8510 C   0  0  2  0  0  3  0  0  0  0  0  0
  193.0860  174.3140  141.3950 C   0  0  1  0  0  3  0  0  0  0  0  0
  189.3340  176.6360  146.4950 C   0  0  0  0  0  2  0  0  0  0  0  0
  192.5410  173.0410  140.7150 C   0  0  1  0  0  3  0  0  0  0  0  0
  195.1910  175.5660  142.1470 C   0  0  1  0  0  3  0  0  0  0  0  0
  191.5290  176.4150  147.6910 C   0  0  0  0  0  0  0  0  0  0  0  0
  191.2690  173.9650  138.7610 O   0  0  0  0  0  1  0  0  0  0  0  0
  193.6940  176.7660  146.5510 C   0  0  0  0  0  2  0  0  0  0  0  0
  194.1080  175.3230  146.3160 C   0  0  0  0  0  2  0  0  0  0  0  0
  193.2180  174.6370  145.2780 C   0  0  0  0  0  2  0  0  0  0  0  0
  188.9180  177.2680  145.1690 C   0  0  2  0  0  3  0  0  0  0  0  0
  194.6180  175.2940  139.7080 C   0  0  2  0  0  3  0  0  0  0  0  0
  195.4460  174.4710  138.7920 C   0  0  2  0  0  3  0  0  0  0  0  0
  195.9330  175.6660  139.3530 O   0  0  0  0  0  0  0  0  0  0  0  0
  196.0190  174.0710  136.4150 C   0  0  0  0  0  1  0  0  0  0  0  0
  195.0240  174.7230  137.3590 C   0  0  0  0  0  2  0  0  0  0  0  0
  187.3980  175.9760  143.8700 O   0  0  0  0  0  1  0  0  0  0  0  0
  187.4320  176.9740  144.8500 C   0  0  1  0  0  0  0  0  0  0  0  0
  186.7280  176.4150  146.0800 C   0  0  0  0  0  1  0  0  0  0  0  0
  186.4370  179.1290  145.3450 F   0  0  0  0  0  0  0  0  0  0  0  0
  186.6920  178.2250  144.3260 C   0  0  2  0  0  3  0  0  0  0  0  0
  185.3060  178.6660  142.3280 C   0  0  2  0  0  3  0  0  0  0  0  0
  185.3850  177.8740  143.6210 C   0  0  2  0  0  3  0  0  0  0  0  0
  184.4920  179.1000  143.5300 C   0  0  0  0  0  2  0  0  0  0  0  0
  183.2100  178.5040  141.0940 F   0  0  0  0  0  0  0  0  0  0  0  0
  184.4580  177.9360  141.2810 C   0  0  1  0  0  3  0  0  0  0  0  0
  185.1690  177.8930  140.0130 N   0  0  0  0  0  2  0  0  0  0  0  0
  186.5500  177.5430  140.3020 C   0  0  0  0  0  1  0  0  0  0  0  0
  190.4410  171.2660  141.0010 O   0  0  0  0  0  0  0  0  0  0  0  0
  190.4370  170.0980  140.2240 C   0  0  0  0  0  2  0  0  0  0  0  0
  189.5620  170.4010  136.7580 O   0  0  0  0  0  1  0  0  0  0  0  0
  189.7000  169.6670  137.8910 N   0  0  0  0  0  0  0  0  0  0  0  0
  191.0920  169.1560  138.0240 C   0  0  2  0  0  3  0  0  0  0  0  0
  190.6850  170.3660  138.7300 C   0  0  2  0  0  3  0  0  0  0  0  0
  192.0100  169.5220  136.8630 C   0  0  0  0  0  1  0  0  0  0  0  0
  2 23  1  0  0  0  0
  3 19  1  0  0  0  0
  4 14  1  0  0  0  0
  5 16  1  0  0  0  0
  5 22  1  0  0  0  0
  5  4  1  0  0  0  0
  6  3  1  0  0  0  0
  6  1  1  0  0  0  0
  7 22  1  0  0  0  0
 11 13  2  0  0  0  0
 12 20  1  0  0  0  0
 12 23  1  0  0  0  0
 13  8  1  0  0  0  0
 13  1  1  0  0  0  0
 13 29  1  0  0  0  0
 14  6  1  0  0  0  0
 14 10  2  0  0  0  0
 15 19  1  0  0  0  0
 16  4  1  0  0  0  0
 16 47  1  0  0  0  0
 18 24  1  0  0  0  0
 19 28  1  0  0  0  0
 20  3  1  0  0  0  0
 21 18  1  0  0  0  0
 22 20  1  0  0  0  0
 23 15  1  0  0  0  0
 24 17  1  0  0  0  0
 24  9  2  0  0  0  0
 25  5  1  0  0  0  0
 26 17  1  0  0  0  0
 27 26  1  0  0  0  0
 28 27  1  0  0  0  0
 29 21  1  0  0  0  0
 30 12  1  0  0  0  0
 31 32  1  0  0  0  0
 31 30  1  0  0  0  0
 32 30  1  0  0  0  0
 33 34  1  0  0  0  0
 34 31  1  0  0  0  0
 35 36  1  0  0  0  0
 36 29  1  0  0  0  0
 36 37  1  0  0  0  0
 39 36  1  0  0  0  0
 39 38  1  0  0  0  0
 40 42  1  0  0  0  0
 40 41  1  0  0  0  0
 41 39  1  0  0  0  0
 42 41  1  0  0  0  0
 43 44  1  0  0  0  0
 44 40  1  0  0  0  0
 45 46  1  0  0  0  0
 45 44  1  0  0  0  0
 48 47  1  0  0  0  0
 49 50  1  0  0  0  0
 50 51  1  0  0  0  0
 50 52  1  0  0  0  0
 51 52  1  0  0  0  0
 52 48  1  0  0  0  0
 53 51  1  0  0  0  0
M  END
>  <MODEL>
5

>  <REMARK>
 VINA RESULT:      -7.7      1.640      2.178
  Name = 
  10 active torsions:
  status: ('A' for Active; 'I' for Inactive)
    1  A    between atoms: C_1  and  C_41
    2  A    between atoms: C_9  and  C_48
    3  A    between atoms: C_17  and  C_25
    4  A    between atoms: N_19  and  C_41
    5  A    between atoms: C_21  and  C_26
    6  A    between atoms: C_23  and  O_35
    7  A    between atoms: C_26  and  O_35
    8  A    between atoms: C_34  and  C_47
    9  A    between atoms: C_38  and  C_48
   10  A    between atoms: C_38  and  C_51
                            x       y       z     vdW  Elec       q    Type
                         _______ _______ _______ _____ _____    ______ ____

>  <TORSDO>
F 10

$$$$
=
 OpenBabel11062420303D

 53 59  0  0  1  0  0  0  0  0999 V2000
  191.3700  175.0120  143.4400 O   0  0  0  0  0  0  0  0  0  0  0  0
  196.6410  175.7230  140.0260 O   0  0  0  0  0  1  0  0  0  0  0  0
  193.0410  174.2130  141.8070 C   0  0  2  0  0  3  0  0  0  0  0  0
  190.0440  173.4000  140.3940 C   0  0  2  0  0  3  0  0  0  0  0  0
  191.0990  173.1170  139.3250 C   0  0  2  0  0  0  0  0  0  0  0  0
  191.5790  174.5950  142.1190 C   0  0  1  0  0  3  0  0  0  0  0  0
  193.3460  172.1740  138.6350 C   0  0  0  0  0  1  0  0  0  0  0  0
  191.8980  177.5610  143.1930 O   0  0  0  0  0  1  0  0  0  0  0  0
  192.8400  175.1680  147.2980 O   0  0  0  0  0  0  0  0  0  0  0  0
  190.3420  172.6420  142.6290 O   0  0  0  0  0  0  0  0  0  0  0  0
  189.7320  176.7580  141.9880 O   0  0  0  0  0  0  0  0  0  0  0  0
  194.5460  174.6110  139.6310 C   0  0  2  0  0  3  0  0  0  0  0  0
  190.7460  176.5930  143.3370 P   0  0  1  0  0  0  0  0  0  0  0  0
  190.6420  173.4680  141.7800 C   0  0  0  0  0  0  0  0  0  0  0  0
  195.4320  175.0130  141.9130 C   0  0  0  0  0  2  0  0  0  0  0  0
  190.1000  172.0280  139.6790 C   0  0  1  0  0  3  0  0  0  0  0  0
  194.3690  176.8520  146.5960 C   0  0  0  0  0  2  0  0  0  0  0  0
  191.8860  177.0090  146.2270 N   0  0  0  0  0  2  0  0  0  0  0  0
  194.0630  175.0840  142.5700 C   0  0  2  0  0  3  0  0  0  0  0  0
  193.1870  174.2120  140.2610 C   0  0  1  0  0  3  0  0  0  0  0  0
  190.5810  176.3920  146.0870 C   0  0  0  0  0  2  0  0  0  0  0  0
  192.5670  172.9080  139.7200 C   0  0  1  0  0  3  0  0  0  0  0  0
  195.3420  175.5750  140.5170 C   0  0  1  0  0  3  0  0  0  0  0  0
  193.0000  176.2920  146.7510 C   0  0  0  0  0  0  0  0  0  0  0  0
  190.8390  173.7490  138.1090 O   0  0  0  0  0  1  0  0  0  0  0  0
  194.8280  176.7400  145.1480 C   0  0  0  0  0  2  0  0  0  0  0  0
  195.2500  175.3170  144.8220 C   0  0  0  0  0  2  0  0  0  0  0  0
  194.1830  174.5780  144.0130 C   0  0  0  0  0  2  0  0  0  0  0  0
  189.8430  176.9900  144.8920 C   0  0  2  0  0  3  0  0  0  0  0  0
  194.2430  175.2520  138.2710 C   0  0  2  0  0  3  0  0  0  0  0  0
  194.7370  174.3760  137.1800 C   0  0  2  0  0  3  0  0  0  0  0  0
  195.4270  175.5420  137.5590 O   0  0  0  0  0  0  0  0  0  0  0  0
  194.0210  173.4320  135.0040 C   0  0  0  0  0  1  0  0  0  0  0  0
  193.9480  174.6450  135.9150 C   0  0  0  0  0  2  0  0  0  0  0  0
  187.6630  177.5350  144.1070 O   0  0  0  0  0  1  0  0  0  0  0  0
  188.3400  176.6190  144.9200 C   0  0  1  0  0  0  0  0  0  0  0  0
  188.1250  175.2400  144.3110 C   0  0  0  0  0  1  0  0  0  0  0  0
  188.1350  175.5760  147.0990 F   0  0  0  0  0  0  0  0  0  0  0  0
  187.7540  176.6770  146.3490 C   0  0  2  0  0  3  0  0  0  0  0  0
  185.8540  178.2390  146.1150 C   0  0  2  0  0  3  0  0  0  0  0  0
  186.2310  176.7880  146.3470 C   0  0  2  0  0  3  0  0  0  0  0  0
  185.7670  177.6490  147.5090 C   0  0  0  0  0  2  0  0  0  0  0  0
  183.5490  179.0290  146.2150 F   0  0  0  0  0  0  0  0  0  0  0  0
  184.4800  178.3550  145.4440 C   0  0  1  0  0  3  0  0  0  0  0  0
  184.6160  179.0130  144.1550 N   0  0  0  0  0  2  0  0  0  0  0  0
  185.4910  180.1590  144.3420 C   0  0  0  0  0  1  0  0  0  0  0  0
  190.6800  171.0330  140.4730 O   0  0  0  0  0  0  0  0  0  0  0  0
  190.4400  169.8390  139.7760 C   0  0  0  0  0  2  0  0  0  0  0  0
  190.0240  170.4640  136.2680 O   0  0  0  0  0  1  0  0  0  0  0  0
  189.7060  169.7920  137.4040 N   0  0  0  0  0  0  0  0  0  0  0  0
  190.6270  168.6400  137.6120 C   0  0  2  0  0  3  0  0  0  0  0  0
  190.8660  169.9050  138.3010 C   0  0  2  0  0  3  0  0  0  0  0  0
  191.6600  168.4530  136.5070 C   0  0  0  0  0  1  0  0  0  0  0  0
  2 23  1  0  0  0  0
  3  6  1  0  0  0  0
  3 19  1  0  0  0  0
  4 14  1  0  0  0  0
  5 16  1  0  0  0  0
  5 22  1  0  0  0  0
  5  4  1  0  0  0  0
  6  1  1  0  0  0  0
  7 22  1  0  0  0  0
  8 13  1  0  0  0  0
 11 13  2  0  0  0  0
 12 20  1  0  0  0  0
 12 23  1  0  0  0  0
 13  1  1  0  0  0  0
 13 29  1  0  0  0  0
 14  6  1  0  0  0  0
 14 10  2  0  0  0  0
 15 19  1  0  0  0  0
 16  4  1  0  0  0  0
 16 47  1  0  0  0  0
 17 24  1  0  0  0  0
 18 24  1  0  0  0  0
 19 28  1  0  0  0  0
 20  3  1  0  0  0  0
 21 18  1  0  0  0  0
 22 20  1  0  0  0  0
 23 15  1  0  0  0  0
 24  9  2  0  0  0  0
 25  5  1  0  0  0  0
 26 17  1  0  0  0  0
 27 26  1  0  0  0  0
 28 27  1  0  0  0  0
 29 36  1  0  0  0  0
 29 21  1  0  0  0  0
 30 12  1  0  0  0  0
 31 32  1  0  0  0  0
 31 30  1  0  0  0  0
 32 30  1  0  0  0  0
 33 34  1  0  0  0  0
 34 31  1  0  0  0  0
 35 36  1  0  0  0  0
 36 39  1  0  0  0  0
 37 36  1  0  0  0  0
 39 38  1  0  0  0  0
 40 41  1  0  0  0  0
 40 42  1  0  0  0  0
 41 39  1  0  0  0  0
 41 42  1  0  0  0  0
 44 40  1  0  0  0  0
 44 43  1  0  0  0  0
 45 46  1  0  0  0  0
 45 44  1  0  0  0  0
 48 47  1  0  0  0  0
 49 50  1  0  0  0  0
 50 51  1  0  0  0  0
 50 52  1  0  0  0  0
 51 52  1  0  0  0  0
 52 48  1  0  0  0  0
 53 51  1  0  0  0  0
M  END
>  <MODEL>
6

>  <REMARK>
 VINA RESULT:      -7.4      1.728      2.386
  Name = 
  10 active torsions:
  status: ('A' for Active; 'I' for Inactive)
    1  A    between atoms: C_1  and  C_41
    2  A    between atoms: C_9  and  C_48
    3  A    between atoms: C_17  and  C_25
    4  A    between atoms: N_19  and  C_41
    5  A    between atoms: C_21  and  C_26
    6  A    between atoms: C_23  and  O_35
    7  A    between atoms: C_26  and  O_35
    8  A    between atoms: C_34  and  C_47
    9  A    between atoms: C_38  and  C_48
   10  A    between atoms: C_38  and  C_51
                            x       y       z     vdW  Elec       q    Type
                         _______ _______ _______ _____ _____    ______ ____

>  <TORSDO>
F 10

$$$$
=
 OpenBabel11062420303D

 53 59  0  0  1  0  0  0  0  0999 V2000
  192.7420  173.2870  141.0390 O   0  0  0  0  0  0  0  0  0  0  0  0
  195.3320  177.0910  145.3710 O   0  0  0  0  0  1  0  0  0  0  0  0
  192.7090  175.2770  142.5000 C   0  0  2  0  0  3  0  0  0  0  0  0
  189.6070  173.9110  142.8880 C   0  0  2  0  0  3  0  0  0  0  0  0
  189.7060  175.0220  143.9320 C   0  0  2  0  0  0  0  0  0  0  0  0
  192.0840  173.9250  142.0990 C   0  0  1  0  0  3  0  0  0  0  0  0
  190.3610  177.3770  144.5960 C   0  0  0  0  0  1  0  0  0  0  0  0
  194.5590  171.9620  142.3720 O   0  0  0  0  0  0  0  0  0  0  0  0
  195.4150  173.6360  137.9080 O   0  0  0  0  0  0  0  0  0  0  0  0
  190.2620  174.2970  140.6340 O   0  0  0  0  0  0  0  0  0  0  0  0
  192.1090  171.1490  142.7320 O   0  0  0  0  0  1  0  0  0  0  0  0
  193.0740  176.4160  144.8930 C   0  0  2  0  0  3  0  0  0  0  0  0
  193.2470  171.7780  141.6440 P   0  0  1  0  0  0  0  0  0  0  0  0
  190.6220  174.0780  141.7800 C   0  0  0  0  0  0  0  0  0  0  0  0
  194.8560  176.4220  143.1680 C   0  0  0  0  0  2  0  0  0  0  0  0
  188.5100  174.9980  142.9950 C   0  0  1  0  0  3  0  0  0  0  0  0
  197.1910  173.6850  139.4930 C   0  0  0  0  0  2  0  0  0  0  0  0
  195.4590  171.8620  139.4240 N   0  0  0  0  0  2  0  0  0  0  0  0
  194.2460  175.2950  142.3510 C   0  0  2  0  0  3  0  0  0  0  0  0
  192.1710  175.6200  143.9150 C   0  0  1  0  0  3  0  0  0  0  0  0
  194.1430  171.3740  139.0620 C   0  0  0  0  0  2  0  0  0  0  0  0
  190.7310  176.1530  143.7680 C   0  0  1  0  0  3  0  0  0  0  0  0
  194.5660  176.1890  144.6290 C   0  0  1  0  0  3  0  0  0  0  0  0
  195.9870  173.0660  138.8760 C   0  0  0  0  0  0  0  0  0  0  0  0
  189.4180  174.5930  145.2270 O   0  0  0  0  0  1  0  0  0  0  0  0
  196.8360  174.3120  140.8350 C   0  0  0  0  0  2  0  0  0  0  0  0
  196.1150  175.6360  140.6410 C   0  0  0  0  0  2  0  0  0  0  0  0
  194.6100  175.5040  140.8750 C   0  0  0  0  0  2  0  0  0  0  0  0
  193.5200  170.6230  140.2350 C   0  0  2  0  0  3  0  0  0  0  0  0
  192.7040  175.9710  146.3130 C   0  0  2  0  0  3  0  0  0  0  0  0
  192.4700  177.1610  147.1690 C   0  0  2  0  0  3  0  0  0  0  0  0
  193.6560  176.4090  147.2590 O   0  0  0  0  0  0  0  0  0  0  0  0
  191.5650  177.8980  149.3540 C   0  0  0  0  0  1  0  0  0  0  0  0
  191.5500  176.7910  148.3140 C   0  0  0  0  0  2  0  0  0  0  0  0
  192.5280  169.3630  138.4750 O   0  0  0  0  0  1  0  0  0  0  0  0
  192.2900  169.7990  139.7830 C   0  0  1  0  0  0  0  0  0  0  0  0
  192.1410  168.5540  140.6480 C   0  0  0  0  0  1  0  0  0  0  0  0
  190.0670  170.1100  140.7000 F   0  0  0  0  0  0  0  0  0  0  0  0
  190.9890  170.6350  139.8100 C   0  0  2  0  0  3  0  0  0  0  0  0
  190.6300  172.1470  137.8890 C   0  0  2  0  0  3  0  0  0  0  0  0
  190.3490  170.7570  138.4300 C   0  0  2  0  0  3  0  0  0  0  0  0
  189.2600  171.8160  138.4480 C   0  0  0  0  0  2  0  0  0  0  0  0
  189.3910  172.0320  135.7930 F   0  0  0  0  0  0  0  0  0  0  0  0
  190.6490  172.1540  136.3570 C   0  0  1  0  0  3  0  0  0  0  0  0
  191.2830  173.3720  135.8770 N   0  0  0  0  0  2  0  0  0  0  0  0
  191.6690  174.1490  137.0440 C   0  0  0  0  0  1  0  0  0  0  0  0
  188.6180  175.9700  141.9940 O   0  0  0  0  0  0  0  0  0  0  0  0
  187.2920  176.2940  141.6710 C   0  0  0  0  0  2  0  0  0  0  0  0
  184.5230  177.8260  143.3600 O   0  0  0  0  0  1  0  0  0  0  0  0
  185.5930  177.8900  142.5280 N   0  0  0  0  0  0  0  0  0  0  0  0
  186.8480  178.1160  143.2960 C   0  0  2  0  0  3  0  0  0  0  0  0
  186.4730  176.7670  142.8830 C   0  0  2  0  0  3  0  0  0  0  0  0
  186.6470  178.2670  144.8000 C   0  0  0  0  0  1  0  0  0  0  0  0
  1 13  1  0  0  0  0
  1  6  1  0  0  0  0
  3 20  1  0  0  0  0
  4 16  1  0  0  0  0
  4  5  1  0  0  0  0
  5 25  1  0  0  0  0
  6  3  1  0  0  0  0
  9 24  2  0  0  0  0
 10 14  2  0  0  0  0
 12 30  1  0  0  0  0
 13  8  2  0  0  0  0
 13 11  1  0  0  0  0
 14  6  1  0  0  0  0
 14  4  1  0  0  0  0
 15 23  1  0  0  0  0
 16  5  1  0  0  0  0
 17 26  1  0  0  0  0
 19  3  1  0  0  0  0
 19 15  1  0  0  0  0
 20 12  1  0  0  0  0
 21 18  1  0  0  0  0
 21 29  1  0  0  0  0
 22 20  1  0  0  0  0
 22  5  1  0  0  0  0
 22  7  1  0  0  0  0
 23 12  1  0  0  0  0
 23  2  1  0  0  0  0
 24 18  1  0  0  0  0
 24 17  1  0  0  0  0
 27 26  1  0  0  0  0
 27 28  1  0  0  0  0
 28 19  1  0  0  0  0
 29 13  1  0  0  0  0
 30 31  1  0  0  0  0
 30 32  1  0  0  0  0
 31 32  1  0  0  0  0
 31 34  1  0  0  0  0
 34 33  1  0  0  0  0
 35 36  1  0  0  0  0
 36 39  1  0  0  0  0
 36 29  1  0  0  0  0
 36 37  1  0  0  0  0
 39 38  1  0  0  0  0
 40 41  1  0  0  0  0
 40 42  1  0  0  0  0
 41 42  1  0  0  0  0
 41 39  1  0  0  0  0
 43 44  1  0  0  0  0
 44 40  1  0  0  0  0
 45 44  1  0  0  0  0
 45 46  1  0  0  0  0
 47 16  1  0  0  0  0
 48 47  1  0  0  0  0
 48 52  1  0  0  0  0
 50 52  1  0  0  0  0
 50 51  1  0  0  0  0
 50 49  1  0  0  0  0
 51 53  1  0  0  0  0
 52 51  1  0  0  0  0
M  END
>  <MODEL>
7

>  <REMARK>
 VINA RESULT:      -7.3      3.176      8.615
  Name = 
  10 active torsions:
  status: ('A' for Active; 'I' for Inactive)
    1  A    between atoms: C_1  and  C_41
    2  A    between atoms: C_9  and  C_48
    3  A    between atoms: C_17  and  C_25
    4  A    between atoms: N_19  and  C_41
    5  A    between atoms: C_21  and  C_26
    6  A    between atoms: C_23  and  O_35
    7  A    between atoms: C_26  and  O_35
    8  A    between atoms: C_34  and  C_47
    9  A    between atoms: C_38  and  C_48
   10  A    between atoms: C_38  and  C_51
                            x       y       z     vdW  Elec       q    Type
                         _______ _______ _______ _____ _____    ______ ____

>  <TORSDO>
F 10

$$$$
=
 OpenBabel11062420303D

 53 59  0  0  1  0  0  0  0  0999 V2000
  193.0520  173.9960  142.3200 O   0  0  0  0  0  0  0  0  0  0  0  0
  187.8900  173.2360  138.7540 O   0  0  0  0  0  1  0  0  0  0  0  0
  190.6050  174.0000  141.9880 C   0  0  2  0  0  3  0  0  0  0  0  0
  191.2090  176.8610  143.7440 C   0  0  2  0  0  3  0  0  0  0  0  0
  189.7380  176.9280  143.3320 C   0  0  2  0  0  0  0  0  0  0  0  0
  191.8890  174.7760  142.3480 C   0  0  1  0  0  3  0  0  0  0  0  0
  187.4720  175.8330  143.0530 C   0  0  0  0  0  1  0  0  0  0  0  0
  193.7020  174.2490  139.8010 O   0  0  0  0  0  0  0  0  0  0  0  0
  194.6760  170.1970  142.2690 O   0  0  0  0  0  0  0  0  0  0  0  0
  192.1160  174.8820  144.7020 O   0  0  0  0  0  0  0  0  0  0  0  0
  193.9240  176.4200  141.2250 O   0  0  0  0  0  1  0  0  0  0  0  0
  188.4490  174.7080  140.5720 C   0  0  2  0  0  3  0  0  0  0  0  0
  194.0810  174.7330  141.1820 P   0  0  1  0  0  0  0  0  0  0  0  0
  191.7540  175.4530  143.6850 C   0  0  0  0  0  0  0  0  0  0  0  0
  189.5370  172.5010  140.2620 C   0  0  0  0  0  2  0  0  0  0  0  0
  190.1030  177.1350  144.7930 C   0  0  1  0  0  3  0  0  0  0  0  0
  194.0230  170.0010  139.9880 C   0  0  0  0  0  2  0  0  0  0  0  0
  195.4070  171.9100  140.8630 N   0  0  0  0  0  2  0  0  0  0  0  0
  190.8450  172.9100  140.9200 C   0  0  2  0  0  3  0  0  0  0  0  0
  189.5230  175.0550  141.6340 C   0  0  1  0  0  3  0  0  0  0  0  0
  195.8560  172.7600  141.9490 C   0  0  0  0  0  2  0  0  0  0  0  0
  188.9810  175.6480  142.9510 C   0  0  1  0  0  3  0  0  0  0  0  0
  188.9490  173.6880  139.5440 C   0  0  1  0  0  3  0  0  0  0  0  0
  194.7270  170.6820  141.1080 C   0  0  0  0  0  0  0  0  0  0  0  0
  189.4040  178.1030  142.6610 O   0  0  0  0  0  1  0  0  0  0  0  0
  192.7590  170.7630  139.6140 C   0  0  0  0  0  2  0  0  0  0  0  0
  191.6500  170.5030  140.6210 C   0  0  0  0  0  2  0  0  0  0  0  0
  191.4680  171.6760  141.5850 C   0  0  0  0  0  2  0  0  0  0  0  0
  195.8190  174.2240  141.5190 C   0  0  2  0  0  3  0  0  0  0  0  0
  188.0530  176.0200  139.8840 C   0  0  2  0  0  3  0  0  0  0  0  0
  186.6030  176.2710  140.0760 C   0  0  2  0  0  3  0  0  0  0  0  0
  187.1140  175.8020  138.8520 O   0  0  0  0  0  0  0  0  0  0  0  0
  185.3720  178.1750  141.0750 C   0  0  0  0  0  1  0  0  0  0  0  0
  186.3260  177.7570  139.9700 C   0  0  0  0  0  2  0  0  0  0  0  0
  197.8060  174.4580  142.8110 O   0  0  0  0  0  1  0  0  0  0  0  0
  196.6090  175.1180  142.5060 C   0  0  1  0  0  0  0  0  0  0  0  0
  196.9840  176.4350  141.8410 C   0  0  0  0  0  1  0  0  0  0  0  0
  195.7290  176.7290  144.0890 F   0  0  0  0  0  0  0  0  0  0  0  0
  195.8250  175.3750  143.8130 C   0  0  2  0  0  3  0  0  0  0  0  0
  195.6520  173.3830  145.2650 C   0  0  2  0  0  3  0  0  0  0  0  0
  196.4400  174.6550  145.0110 C   0  0  2  0  0  3  0  0  0  0  0  0
  195.4410  174.5930  146.1540 C   0  0  0  0  0  2  0  0  0  0  0  0
  195.8160  171.1880  146.3120 F   0  0  0  0  0  0  0  0  0  0  0  0
  196.5250  172.3140  145.9320 C   0  0  1  0  0  3  0  0  0  0  0  0
  197.6050  171.9310  145.0370 N   0  0  0  0  0  2  0  0  0  0  0  0
  197.3470  170.5690  144.6020 C   0  0  0  0  0  1  0  0  0  0  0  0
  189.8050  176.0070  145.5650 O   0  0  0  0  0  0  0  0  0  0  0  0
  189.1760  176.5180  146.7100 C   0  0  0  0  0  2  0  0  0  0  0  0
  186.5230  178.8460  147.3500 O   0  0  0  0  0  1  0  0  0  0  0  0
  187.1880  177.6950  147.6220 N   0  0  0  0  0  0  0  0  0  0  0  0
  186.6960  176.5840  146.7610 C   0  0  2  0  0  3  0  0  0  0  0  0
  187.9030  177.3190  146.3930 C   0  0  2  0  0  3  0  0  0  0  0  0
  185.5550  176.9700  145.8270 C   0  0  0  0  0  1  0  0  0  0  0  0
  1  6  1  0  0  0  0
  2 23  1  0  0  0  0
  3  6  1  0  0  0  0
  4 16  1  0  0  0  0
  5  4  1  0  0  0  0
  5 16  1  0  0  0  0
  6 14  1  0  0  0  0
  8 13  2  0  0  0  0
 12 20  1  0  0  0  0
 13 11  1  0  0  0  0
 13 29  1  0  0  0  0
 13  1  1  0  0  0  0
 14  4  1  0  0  0  0
 14 10  2  0  0  0  0
 15 19  1  0  0  0  0
 16 47  1  0  0  0  0
 17 24  1  0  0  0  0
 18 24  1  0  0  0  0
 18 21  1  0  0  0  0
 19 28  1  0  0  0  0
 19  3  1  0  0  0  0
 20  3  1  0  0  0  0
 20 22  1  0  0  0  0
 22  7  1  0  0  0  0
 22  5  1  0  0  0  0
 23 15  1  0  0  0  0
 23 12  1  0  0  0  0
 24  9  2  0  0  0  0
 25  5  1  0  0  0  0
 26 17  1  0  0  0  0
 26 27  1  0  0  0  0
 27 28  1  0  0  0  0
 29 21  1  0  0  0  0
 29 36  1  0  0  0  0
 30 31  1  0  0  0  0
 30 12  1  0  0  0  0
 32 30  1  0  0  0  0
 32 31  1  0  0  0  0
 34 31  1  0  0  0  0
 34 33  1  0  0  0  0
 36 35  1  0  0  0  0
 36 39  1  0  0  0  0
 37 36  1  0  0  0  0
 39 38  1  0  0  0  0
 39 41  1  0  0  0  0
 40 44  1  0  0  0  0
 40 42  1  0  0  0  0
 41 40  1  0  0  0  0
 41 42  1  0  0  0  0
 44 43  1  0  0  0  0
 45 44  1  0  0  0  0
 46 45  1  0  0  0  0
 47 48  1  0  0  0  0
 49 50  1  0  0  0  0
 51 50  1  0  0  0  0
 52 48  1  0  0  0  0
 52 51  1  0  0  0  0
 52 50  1  0  0  0  0
 53 51  1  0  0  0  0
M  END
>  <MODEL>
8

>  <REMARK>
 VINA RESULT:      -7.2      3.627      9.266
  Name = 
  10 active torsions:
  status: ('A' for Active; 'I' for Inactive)
    1  A    between atoms: C_1  and  C_41
    2  A    between atoms: C_9  and  C_48
    3  A    between atoms: C_17  and  C_25
    4  A    between atoms: N_19  and  C_41
    5  A    between atoms: C_21  and  C_26
    6  A    between atoms: C_23  and  O_35
    7  A    between atoms: C_26  and  O_35
    8  A    between atoms: C_34  and  C_47
    9  A    between atoms: C_38  and  C_48
   10  A    between atoms: C_38  and  C_51
                            x       y       z     vdW  Elec       q    Type
                         _______ _______ _______ _____ _____    ______ ____

>  <TORSDO>
F 10

$$$$
=
 OpenBabel11062420303D

 53 59  0  0  1  0  0  0  0  0999 V2000
  192.6620  173.0630  142.4650 O   0  0  0  0  0  0  0  0  0  0  0  0
  190.1800  177.9480  145.6140 O   0  0  0  0  0  1  0  0  0  0  0  0
  191.1920  175.0410  142.6250 C   0  0  2  0  0  3  0  0  0  0  0  0
  189.2610  172.6940  141.0740 C   0  0  2  0  0  3  0  0  0  0  0  0
  188.3270  173.8640  141.3850 C   0  0  2  0  0  0  0  0  0  0  0  0
  191.3400  173.5220  142.3980 C   0  0  1  0  0  3  0  0  0  0  0  0
  187.8440  176.3490  141.4450 C   0  0  0  0  0  1  0  0  0  0  0  0
  192.8530  172.6170  145.0340 O   0  0  0  0  0  1  0  0  0  0  0  0
  196.6760  174.0420  142.4230 O   0  0  0  0  0  0  0  0  0  0  0  0
  191.3870  173.0680  140.0750 O   0  0  0  0  0  0  0  0  0  0  0  0
  191.2460  171.0170  143.7490 O   0  0  0  0  0  0  0  0  0  0  0  0
  189.3350  176.4620  143.9220 C   0  0  2  0  0  3  0  0  0  0  0  0
  192.6910  171.9030  143.7110 P   0  0  1  0  0  0  0  0  0  0  0  0
  190.7150  173.1070  141.0940 C   0  0  0  0  0  0  0  0  0  0  0  0
  191.7540  176.9410  144.1870 C   0  0  0  0  0  2  0  0  0  0  0  0
  188.3770  173.3190  139.9670 C   0  0  1  0  0  3  0  0  0  0  0  0
  196.4450  174.8820  144.6380 C   0  0  0  0  0  2  0  0  0  0  0  0
  195.7460  172.5610  143.9680 N   0  0  0  0  0  2  0  0  0  0  0  0
  192.2090  175.5960  143.6460 C   0  0  2  0  0  3  0  0  0  0  0  0
  189.6990  175.3040  142.9590 C   0  0  1  0  0  3  0  0  0  0  0  0
  195.3330  171.5990  142.9640 C   0  0  0  0  0  2  0  0  0  0  0  0
  188.8970  175.2660  141.6420 C   0  0  1  0  0  3  0  0  0  0  0  0
  190.4520  176.7640  144.9270 C   0  0  1  0  0  3  0  0  0  0  0  0
  196.3200  173.8140  143.6100 C   0  0  0  0  0  0  0  0  0  0  0  0
  187.1870  173.4880  142.0940 O   0  0  0  0  0  1  0  0  0  0  0  0
  195.0770  175.4680  144.9630 C   0  0  0  0  0  2  0  0  0  0  0  0
  194.6190  176.4180  143.8690 C   0  0  0  0  0  2  0  0  0  0  0  0
  193.5690  175.7760  142.9600 C   0  0  0  0  0  2  0  0  0  0  0  0
  194.1400  170.7920  143.4690 C   0  0  2  0  0  3  0  0  0  0  0  0
  188.0480  176.0550  144.6520 C   0  0  2  0  0  3  0  0  0  0  0  0
  187.1690  177.2390  144.8210 C   0  0  2  0  0  3  0  0  0  0  0  0
  187.9210  176.7210  145.8910 O   0  0  0  0  0  0  0  0  0  0  0  0
  185.0970  177.4530  146.1630 C   0  0  0  0  0  1  0  0  0  0  0  0
  185.7290  176.7890  144.9520 C   0  0  0  0  0  2  0  0  0  0  0  0
  195.1440  169.0880  142.1440 O   0  0  0  0  0  1  0  0  0  0  0  0
  193.8970  169.5410  142.5910 C   0  0  1  0  0  0  0  0  0  0  0  0
  193.2880  168.4210  143.4230 C   0  0  0  0  0  1  0  0  0  0  0  0
  191.8850  169.0380  141.3360 F   0  0  0  0  0  0  0  0  0  0  0  0
  193.0040  169.8540  141.3680 C   0  0  2  0  0  3  0  0  0  0  0  0
  193.9150  171.1140  139.4480 C   0  0  2  0  0  3  0  0  0  0  0  0
  193.7610  169.7290  140.0490 C   0  0  2  0  0  3  0  0  0  0  0  0
  192.8750  170.1610  138.8930 C   0  0  0  0  0  2  0  0  0  0  0  0
  194.8700  171.2130  137.2070 F   0  0  0  0  0  0  0  0  0  0  0  0
  195.1610  171.1990  138.5600 C   0  0  1  0  0  3  0  0  0  0  0  0
  195.9320  172.3830  138.9060 N   0  0  0  0  0  2  0  0  0  0  0  0
  194.9950  173.3870  139.3840 C   0  0  0  0  0  1  0  0  0  0  0  0
  189.1000  174.1620  139.1150 O   0  0  0  0  0  0  0  0  0  0  0  0
  188.5550  173.9310  137.8430 C   0  0  0  0  0  2  0  0  0  0  0  0
  189.8580  172.8880  134.6680 O   0  0  0  0  0  1  0  0  0  0  0  0
  189.3180  172.6120  135.8820 N   0  0  0  0  0  0  0  0  0  0  0  0
  190.3780  172.5200  136.9240 C   0  0  2  0  0  3  0  0  0  0  0  0
  189.6240  173.7580  136.7510 C   0  0  2  0  0  3  0  0  0  0  0  0
  191.7960  172.7050  136.3970 C   0  0  0  0  0  1  0  0  0  0  0  0
  1 13  1  0  0  0  0
  3 20  1  0  0  0  0
  3 19  1  0  0  0  0
  4 14  1  0  0  0  0
  4  5  1  0  0  0  0
  5 22  1  0  0  0  0
  5 25  1  0  0  0  0
  6  1  1  0  0  0  0
  6  3  1  0  0  0  0
  7 22  1  0  0  0  0
  9 24  2  0  0  0  0
 10 14  2  0  0  0  0
 12 30  1  0  0  0  0
 12 23  1  0  0  0  0
 13 11  2  0  0  0  0
 13  8  1  0  0  0  0
 14  6  1  0  0  0  0
 15 23  1  0  0  0  0
 16  4  1  0  0  0  0
 16  5  1  0  0  0  0
 17 26  1  0  0  0  0
 19 15  1  0  0  0  0
 20 12  1  0  0  0  0
 21 29  1  0  0  0  0
 21 18  1  0  0  0  0
 22 20  1  0  0  0  0
 23  2  1  0  0  0  0
 24 18  1  0  0  0  0
 24 17  1  0  0  0  0
 27 26  1  0  0  0  0
 28 19  1  0  0  0  0
 28 27  1  0  0  0  0
 29 13  1  0  0  0  0
 30 31  1  0  0  0  0
 30 32  1  0  0  0  0
 31 34  1  0  0  0  0
 31 32  1  0  0  0  0
 34 33  1  0  0  0  0
 35 36  1  0  0  0  0
 36 37  1  0  0  0  0
 36 29  1  0  0  0  0
 38 39  1  0  0  0  0
 39 36  1  0  0  0  0
 40 41  1  0  0  0  0
 41 39  1  0  0  0  0
 42 40  1  0  0  0  0
 42 41  1  0  0  0  0
 43 44  1  0  0  0  0
 44 45  1  0  0  0  0
 44 40  1  0  0  0  0
 45 46  1  0  0  0  0
 47 16  1  0  0  0  0
 48 47  1  0  0  0  0
 49 50  1  0  0  0  0
 50 52  1  0  0  0  0
 50 51  1  0  0  0  0
 52 51  1  0  0  0  0
 52 48  1  0  0  0  0
 53 51  1  0  0  0  0
M  END
>  <MODEL>
9

>  <REMARK>
 VINA RESULT:      -7.1      3.861      8.219
  Name = 
  10 active torsions:
  status: ('A' for Active; 'I' for Inactive)
    1  A    between atoms: C_1  and  C_41
    2  A    between atoms: C_9  and  C_48
    3  A    between atoms: C_17  and  C_25
    4  A    between atoms: N_19  and  C_41
    5  A    between atoms: C_21  and  C_26
    6  A    between atoms: C_23  and  O_35
    7  A    between atoms: C_26  and  O_35
    8  A    between atoms: C_34  and  C_47
    9  A    between atoms: C_38  and  C_48
   10  A    between atoms: C_38  and  C_51
                            x       y       z     vdW  Elec       q    Type
                         _______ _______ _______ _____ _____    ______ ____

>  <TORSDO>
F 10

$$$$
