=
 OpenBabel11062422303D

 43 48  0  0  1  0  0  0  0  0999 V2000
  195.3360  175.2860  146.3760 O   0  0  0  0  0  1  0  0  0  0  0  0
  192.9800  173.4000  144.5070 C   0  0  1  0  0  3  0  0  0  0  0  0
  192.6190  169.8720  142.0170 C   0  0  0  0  0  0  0  0  0  0  0  0
  190.0400  175.1870  142.9400 C   0  0  0  0  0  3  0  0  0  0  0  0
  192.8030  172.1560  143.6500 C   0  0  0  0  0  0  0  0  0  0  0  0
  189.1190  175.0470  141.7970 C   0  0  0  0  0  0  0  0  0  0  0  0
  192.5490  168.7670  141.1790 O   0  0  0  0  0  1  0  0  0  0  0  0
  194.4280  173.8130  144.7490 C   0  0  0  0  0  0  0  0  0  0  0  0
  190.7410  173.4980  140.7370 C   0  0  0  0  0  2  0  0  0  0  0  0
  189.4250  174.2310  140.7800 C   0  0  0  0  0  0  0  0  0  0  0  0
  192.1100  172.2170  142.4220 C   0  0  0  0  0  0  0  0  0  0  0  0
  188.5460  174.1230  139.6620 N   0  0  0  0  0  1  0  0  0  0  0  0
  191.3590  173.3880  142.0660 N   0  0  0  0  0  0  0  0  0  0  0  0
  192.0450  171.0750  141.6120 C   0  0  0  0  0  3  0  0  0  0  0  0
  193.5180  176.0980  145.0700 C   0  0  0  0  0  2  0  0  0  0  0  0
  193.3030  170.9140  144.0970 C   0  0  0  0  0  0  0  0  0  0  0  0
  191.1040  174.3930  143.0590 C   0  0  0  0  0  0  0  0  0  0  0  0
  192.7950  175.7990  143.9090 O   0  0  0  0  0  0  0  0  0  0  0  0
  193.8000  168.4790  143.7300 C   0  0  0  0  0  1  0  0  0  0  0  0
  192.0620  174.6230  144.1830 C   0  0  2  0  0  3  0  0  0  0  0  0
  195.3280  172.9890  144.7040 O   0  0  0  0  0  0  0  0  0  0  0  0
  193.2320  169.7820  143.2710 C   0  0  0  0  0  0  0  0  0  0  0  0
  193.8610  170.7980  145.3650 O   0  0  0  0  0  1  0  0  0  0  0  0
  194.7720  175.2350  145.1010 C   0  0  1  0  0  3  0  0  0  0  0  0
  187.9320  175.7800  141.7630 O   0  0  0  0  0  0  0  0  0  0  0  0
  186.7670  175.2380  142.1420 O   0  0  0  0  0  0  0  0  0  0  0  0
  186.3220  176.0620  143.1720 C   0  0  0  0  0  2  0  0  0  0  0  0
  186.1980  178.8270  144.8470 C   0  0  2  0  0  3  0  0  0  0  0  0
  185.2210  178.8730  143.7580 N   0  0  0  0  0  2  0  0  0  0  0  0
  186.9000  177.4650  143.0100 C   0  0  1  0  0  3  0  0  0  0  0  0
  185.8350  178.3660  142.5900 N   0  0  0  0  0  2  0  0  0  0  0  0
  187.3860  178.0610  144.3070 C   0  0  2  0  0  3  0  0  0  0  0  0
  190.3620  177.3030  146.5440 C   0  0  0  0  0  3  0  0  0  0  0  0
  191.1770  175.1920  148.0680 Cl  0  0  0  0  0  0  0  0  0  0  0  0
  188.0240  176.0200  145.6980 C   0  0  0  0  0  3  0  0  0  0  0  0
  189.4810  177.9530  145.6720 C   0  0  0  0  0  3  0  0  0  0  0  0
  188.9030  175.3700  146.5690 C   0  0  0  0  0  3  0  0  0  0  0  0
  188.3080  177.3160  145.2400 C   0  0  0  0  0  0  0  0  0  0  0  0
  190.0720  176.0110  146.9900 C   0  0  0  0  0  0  0  0  0  0  0  0
  185.4310  178.1300  146.3130 S   0  0  0  0  0  0  0  0  0  0  0  0
  184.0730  178.7470  146.5050 O   0  0  0  0  0  0  0  0  0  0  0  0
  186.4050  178.4000  147.7790 C   0  0  0  0  0  1  0  0  0  0  0  0
  185.2690  176.6480  146.1150 O   0  0  0  0  0  0  0  0  0  0  0  0
  2  5  1  6  0  0  0
  2  8  1  0  0  0  0
  3 22  1  0  0  0  0
  4 17  2  0  0  0  0
  5 16  1  0  0  0  0
  6  4  1  0  0  0  0
  7  3  1  0  0  0  0
  8 24  1  0  0  0  0
  9 10  1  0  0  0  0
  9 13  1  0  0  0  0
 10  6  2  0  0  0  0
 11  5  2  0  0  0  0
 12 10  1  0  0  0  0
 13 11  1  0  0  0  0
 13 17  1  0  0  0  0
 14  3  2  0  0  0  0
 14 11  1  0  0  0  0
 15 24  1  0  0  0  0
 16 23  1  0  0  0  0
 18 20  1  0  0  0  0
 18 15  1  0  0  0  0
 20 17  1  6  0  0  0
 20  2  1  0  0  0  0
 21  8  2  0  0  0  0
 22 19  1  0  0  0  0
 22 16  2  0  0  0  0
 24  1  1  1  0  0  0
 25  6  1  0  0  0  0
 25 26  1  0  0  0  0
 26 27  1  0  0  0  0
 28 40  1  1  0  0  0
 29 28  1  0  0  0  0
 30 27  1  1  0  0  0
 30 32  1  0  0  0  0
 31 30  1  0  0  0  0
 31 29  1  0  0  0  0
 32 28  1  0  0  0  0
 32 38  1  1  0  0  0
 33 39  1  0  0  0  0
 35 37  1  0  0  0  0
 36 33  2  0  0  0  0
 37 39  2  0  0  0  0
 38 36  1  0  0  0  0
 38 35  2  0  0  0  0
 39 34  1  0  0  0  0
 40 41  2  0  0  0  0
 40 42  1  0  0  0  0
 43 40  2  0  0  0  0
M  END
>  <MODEL>
1

>  <REMARK>
 VINA RESULT:      -8.5      0.000      0.000
  Name = 
  6 active torsions:
  status: ('A' for Active; 'I' for Inactive)
    1  A    between atoms: C_8  and  O_16
    2  A    between atoms: C_12  and  C_33
    3  A    between atoms: C_12  and  O_42
    4  A    between atoms: O_16  and  O_42
    5  A    between atoms: S_18  and  C_23
    6  A    between atoms: C_25  and  C_41
                            x       y       z     vdW  Elec       q    Type
                         _______ _______ _______ _____ _____    ______ ____

>  <TORSDO>
F 6

$$$$
=
 OpenBabel11062422303D

 43 48  0  0  1  0  0  0  0  0999 V2000
  197.0700  176.6080  143.1600 O   0  0  0  0  0  1  0  0  0  0  0  0
  194.3330  174.4230  143.7400 C   0  0  1  0  0  3  0  0  0  0  0  0
  193.3640  170.2550  144.4190 C   0  0  0  0  0  0  0  0  0  0  0  0
  190.9580  175.2910  142.2750 C   0  0  0  0  0  3  0  0  0  0  0  0
  193.9510  172.9760  144.0080 C   0  0  0  0  0  0  0  0  0  0  0  0
  189.7260  174.6230  141.8190 C   0  0  0  0  0  0  0  0  0  0  0  0
  193.0820  168.9040  144.5790 O   0  0  0  0  0  1  0  0  0  0  0  0
  195.7590  174.6290  143.2400 C   0  0  0  0  0  0  0  0  0  0  0  0
  190.9920  172.4980  141.6510 C   0  0  0  0  0  2  0  0  0  0  0  0
  189.7260  173.3090  141.5610 C   0  0  0  0  0  0  0  0  0  0  0  0
  192.8960  172.3630  143.2990 C   0  0  0  0  0  0  0  0  0  0  0  0
  188.5390  172.6730  141.0900 N   0  0  0  0  0  1  0  0  0  0  0  0
  192.0120  173.1500  142.4850 N   0  0  0  0  0  0  0  0  0  0  0  0
  192.6290  171.0020  143.5010 C   0  0  0  0  0  3  0  0  0  0  0  0
  194.8880  176.7110  142.2110 C   0  0  0  0  0  2  0  0  0  0  0  0
  194.6310  172.2370  145.0020 C   0  0  0  0  0  0  0  0  0  0  0  0
  192.0420  174.5820  142.5880 C   0  0  0  0  0  0  0  0  0  0  0  0
  193.8440  175.8770  141.7930 O   0  0  0  0  0  0  0  0  0  0  0  0
  195.1040  170.0880  146.2110 C   0  0  0  0  0  1  0  0  0  0  0  0
  193.3000  175.2980  142.9610 C   0  0  2  0  0  3  0  0  0  0  0  0
  196.6360  173.8220  143.5030 O   0  0  0  0  0  0  0  0  0  0  0  0
  194.3530  170.8750  145.1880 C   0  0  0  0  0  0  0  0  0  0  0  0
  195.5740  172.8570  145.8130 O   0  0  0  0  0  1  0  0  0  0  0  0
  196.1260  175.8590  142.4550 C   0  0  1  0  0  3  0  0  0  0  0  0
  188.5560  175.3630  141.6400 O   0  0  0  0  0  0  0  0  0  0  0  0
  187.3520  174.8410  141.9080 O   0  0  0  0  0  0  0  0  0  0  0  0
  186.7650  175.7560  142.7780 C   0  0  0  0  0  2  0  0  0  0  0  0
  186.5580  178.6210  144.2660 C   0  0  2  0  0  3  0  0  0  0  0  0
  185.6610  178.6070  143.1100 N   0  0  0  0  0  2  0  0  0  0  0  0
  187.3710  177.1410  142.5720 C   0  0  1  0  0  3  0  0  0  0  0  0
  186.3490  178.0230  142.0220 N   0  0  0  0  0  2  0  0  0  0  0  0
  187.7710  177.8130  143.8610 C   0  0  2  0  0  3  0  0  0  0  0  0
  190.3470  177.2820  146.6020 C   0  0  0  0  0  3  0  0  0  0  0  0
  191.2230  175.1620  148.0810 Cl  0  0  0  0  0  0  0  0  0  0  0  0
  188.4890  175.7500  145.1780 C   0  0  0  0  0  3  0  0  0  0  0  0
  189.5480  177.8810  145.6220 C   0  0  0  0  0  3  0  0  0  0  0  0
  189.2870  175.1500  146.1570 C   0  0  0  0  0  3  0  0  0  0  0  0
  188.6160  177.1200  144.9000 C   0  0  0  0  0  0  0  0  0  0  0  0
  190.2160  175.9160  146.8670 C   0  0  0  0  0  0  0  0  0  0  0  0
  185.6810  178.0230  145.7140 S   0  0  0  0  0  0  0  0  0  0  0  0
  185.5030  176.5330  145.6080 O   0  0  0  0  0  0  0  0  0  0  0  0
  184.0830  178.7880  145.9000 C   0  0  0  0  0  1  0  0  0  0  0  0
  186.5010  178.3290  146.9360 O   0  0  0  0  0  0  0  0  0  0  0  0
  2  8  1  6  0  0  0
  2  5  1  0  0  0  0
  3  7  1  0  0  0  0
  3 22  1  0  0  0  0
  4 17  2  0  0  0  0
  5 16  1  0  0  0  0
  6  4  1  0  0  0  0
  8 21  2  0  0  0  0
  9 13  1  0  0  0  0
 10  9  1  0  0  0  0
 10  6  2  0  0  0  0
 11 14  1  0  0  0  0
 11  5  2  0  0  0  0
 12 10  1  0  0  0  0
 13 17  1  0  0  0  0
 13 11  1  0  0  0  0
 14  3  2  0  0  0  0
 15 24  1  0  0  0  0
 16 22  2  0  0  0  0
 16 23  1  0  0  0  0
 17 20  1  0  0  0  0
 18 15  1  0  0  0  0
 20 18  1  6  0  0  0
 20  2  1  0  0  0  0
 22 19  1  0  0  0  0
 24  1  1  1  0  0  0
 24  8  1  0  0  0  0
 25  6  1  0  0  0  0
 25 26  1  0  0  0  0
 26 27  1  0  0  0  0
 28 40  1  1  0  0  0
 29 28  1  0  0  0  0
 30 27  1  1  0  0  0
 30 32  1  0  0  0  0
 31 30  1  0  0  0  0
 31 29  1  0  0  0  0
 32 28  1  0  0  0  0
 32 38  1  1  0  0  0
 33 39  1  0  0  0  0
 35 37  1  0  0  0  0
 36 33  2  0  0  0  0
 37 39  2  0  0  0  0
 38 35  2  0  0  0  0
 38 36  1  0  0  0  0
 39 34  1  0  0  0  0
 40 42  1  0  0  0  0
 40 43  2  0  0  0  0
 41 40  2  0  0  0  0
M  END
>  <MODEL>
2

>  <REMARK>
 VINA RESULT:      -8.0      1.555      1.862
  Name = 
  6 active torsions:
  status: ('A' for Active; 'I' for Inactive)
    1  A    between atoms: C_8  and  O_16
    2  A    between atoms: C_12  and  C_33
    3  A    between atoms: C_12  and  O_42
    4  A    between atoms: O_16  and  O_42
    5  A    between atoms: S_18  and  C_23
    6  A    between atoms: C_25  and  C_41
                            x       y       z     vdW  Elec       q    Type
                         _______ _______ _______ _____ _____    ______ ____

>  <TORSDO>
F 6

$$$$
=
 OpenBabel11062422303D

 43 48  0  0  1  0  0  0  0  0999 V2000
  185.4700  177.6590  139.8790 O   0  0  0  0  0  1  0  0  0  0  0  0
  186.6220  176.7130  143.1010 C   0  0  1  0  0  3  0  0  0  0  0  0
  186.9520  178.1450  147.1770 C   0  0  0  0  0  0  0  0  0  0  0  0
  189.5520  174.3380  143.3690 C   0  0  0  0  0  3  0  0  0  0  0  0
  186.7330  177.1650  144.5480 C   0  0  0  0  0  0  0  0  0  0  0  0
  190.6470  174.0050  144.2980 C   0  0  0  0  0  0  0  0  0  0  0  0
  187.0920  178.6560  148.4600 O   0  0  0  0  0  1  0  0  0  0  0  0
  186.2770  177.8170  142.1070 C   0  0  0  0  0  0  0  0  0  0  0  0
  190.3250  176.2060  145.3950 C   0  0  0  0  0  2  0  0  0  0  0  0
  190.9900  174.8600  145.2710 C   0  0  0  0  0  0  0  0  0  0  0  0
  187.9450  177.0270  145.2580 C   0  0  0  0  0  0  0  0  0  0  0  0
  192.0700  174.5480  146.1480 N   0  0  0  0  0  1  0  0  0  0  0  0
  189.0230  176.2490  144.7140 N   0  0  0  0  0  0  0  0  0  0  0  0
  188.0430  177.5380  146.5590 C   0  0  0  0  0  3  0  0  0  0  0  0
  187.4090  176.3880  140.4250 C   0  0  0  0  0  2  0  0  0  0  0  0
  185.6060  177.6980  145.2100 C   0  0  0  0  0  0  0  0  0  0  0  0
  188.7840  175.4090  143.5750 C   0  0  0  0  0  0  0  0  0  0  0  0
  188.3890  176.2720  141.4170 O   0  0  0  0  0  0  0  0  0  0  0  0
  184.5370  178.8100  147.1930 C   0  0  0  0  0  1  0  0  0  0  0  0
  187.7420  175.7630  142.5650 C   0  0  2  0  0  3  0  0  0  0  0  0
  185.6710  178.8140  142.4660 O   0  0  0  0  0  0  0  0  0  0  0  0
  185.7230  178.2080  146.5120 C   0  0  0  0  0  0  0  0  0  0  0  0
  184.3660  177.7130  144.5820 O   0  0  0  0  0  1  0  0  0  0  0  0
  186.6330  177.6780  140.6510 C   0  0  1  0  0  3  0  0  0  0  0  0
  191.3420  172.8040  144.1560 O   0  0  0  0  0  0  0  0  0  0  0  0
  191.9570  172.4850  143.0100 O   0  0  0  0  0  0  0  0  0  0  0  0
  193.0720  173.3210  142.9720 C   0  0  0  0  0  2  0  0  0  0  0  0
  196.1330  173.9860  142.1670 C   0  0  2  0  0  3  0  0  0  0  0  0
  195.2270  174.7510  141.3090 N   0  0  0  0  0  2  0  0  0  0  0  0
  194.0470  172.8470  141.8980 C   0  0  1  0  0  3  0  0  0  0  0  0
  194.1820  173.8940  140.8930 N   0  0  0  0  0  2  0  0  0  0  0  0
  195.4520  172.6580  142.4130 C   0  0  2  0  0  3  0  0  0  0  0  0
  197.2880  170.4040  144.8580 C   0  0  0  0  0  3  0  0  0  0  0  0
  196.7980  169.4130  147.3530 Cl  0  0  0  0  0  0  0  0  0  0  0  0
  194.8710  171.8090  144.7470 C   0  0  0  0  0  3  0  0  0  0  0  0
  196.9630  171.1530  143.7220 C   0  0  0  0  0  3  0  0  0  0  0  0
  195.1940  171.0620  145.8830 C   0  0  0  0  0  3  0  0  0  0  0  0
  195.7520  171.8580  143.6550 C   0  0  0  0  0  0  0  0  0  0  0  0
  196.4010  170.3580  145.9370 C   0  0  0  0  0  0  0  0  0  0  0  0
  196.5150  174.9420  143.6390 S   0  0  0  0  0  0  0  0  0  0  0  0
  195.3060  174.9860  144.5310 O   0  0  0  0  0  0  0  0  0  0  0  0
  197.0150  176.6070  143.2520 C   0  0  0  0  0  1  0  0  0  0  0  0
  197.6390  174.2660  144.3750 O   0  0  0  0  0  0  0  0  0  0  0  0
  2  8  1  6  0  0  0
  2  5  1  0  0  0  0
  3  7  1  0  0  0  0
  4 17  2  0  0  0  0
  4  6  1  0  0  0  0
  5 16  2  0  0  0  0
  5 11  1  0  0  0  0
  6 10  2  0  0  0  0
  8 21  2  0  0  0  0
 10  9  1  0  0  0  0
 10 12  1  0  0  0  0
 11 14  2  0  0  0  0
 13 11  1  0  0  0  0
 13  9  1  0  0  0  0
 14  3  1  0  0  0  0
 15 24  1  0  0  0  0
 15 18  1  0  0  0  0
 16 22  1  0  0  0  0
 17 13  1  0  0  0  0
 20 18  1  6  0  0  0
 20  2  1  0  0  0  0
 20 17  1  0  0  0  0
 22  3  2  0  0  0  0
 22 19  1  0  0  0  0
 23 16  1  0  0  0  0
 24  1  1  6  0  0  0
 24  8  1  0  0  0  0
 25  6  1  0  0  0  0
 26 25  1  0  0  0  0
 27 26  1  0  0  0  0
 28 32  1  0  0  0  0
 28 40  1  1  0  0  0
 29 28  1  0  0  0  0
 30 32  1  0  0  0  0
 30 27  1  1  0  0  0
 31 29  1  0  0  0  0
 31 30  1  0  0  0  0
 32 38  1  1  0  0  0
 33 39  1  0  0  0  0
 35 37  1  0  0  0  0
 36 33  2  0  0  0  0
 37 39  2  0  0  0  0
 38 36  1  0  0  0  0
 38 35  2  0  0  0  0
 39 34  1  0  0  0  0
 40 43  2  0  0  0  0
 40 41  2  0  0  0  0
 42 40  1  0  0  0  0
M  END
>  <MODEL>
3

>  <REMARK>
 VINA RESULT:      -7.8      3.348      9.178
  Name = 
  6 active torsions:
  status: ('A' for Active; 'I' for Inactive)
    1  A    between atoms: C_8  and  O_16
    2  A    between atoms: C_12  and  C_33
    3  A    between atoms: C_12  and  O_42
    4  A    between atoms: O_16  and  O_42
    5  A    between atoms: S_18  and  C_23
    6  A    between atoms: C_25  and  C_41
                            x       y       z     vdW  Elec       q    Type
                         _______ _______ _______ _____ _____    ______ ____

>  <TORSDO>
F 6

$$$$
=
 OpenBabel11062422303D

 43 48  0  0  1  0  0  0  0  0999 V2000
  185.5300  177.5520  139.8040 O   0  0  0  0  0  1  0  0  0  0  0  0
  186.6780  176.6110  143.0290 C   0  0  1  0  0  3  0  0  0  0  0  0
  187.0960  178.0870  147.0810 C   0  0  0  0  0  0  0  0  0  0  0  0
  189.5240  174.1370  143.3050 C   0  0  0  0  0  3  0  0  0  0  0  0
  186.8180  177.0790  144.4690 C   0  0  0  0  0  0  0  0  0  0  0  0
  190.6150  173.7790  144.2290 C   0  0  0  0  0  0  0  0  0  0  0  0
  187.2660  178.6100  148.3560 O   0  0  0  0  0  1  0  0  0  0  0  0
  186.3630  177.7130  142.0220 C   0  0  0  0  0  0  0  0  0  0  0  0
  190.3820  176.0050  145.2970 C   0  0  0  0  0  2  0  0  0  0  0  0
  190.9970  174.6340  145.1870 C   0  0  0  0  0  0  0  0  0  0  0  0
  188.0310  176.9080  145.1700 C   0  0  0  0  0  0  0  0  0  0  0  0
  192.0740  174.2960  146.0580 N   0  0  0  0  0  1  0  0  0  0  0  0
  189.0760  176.0840  144.6280 N   0  0  0  0  0  0  0  0  0  0  0  0
  188.1590  177.4330  146.4630 C   0  0  0  0  0  3  0  0  0  0  0  0
  187.4270  176.2210  140.3510 C   0  0  0  0  0  2  0  0  0  0  0  0
  185.7170  177.6610  145.1330 C   0  0  0  0  0  0  0  0  0  0  0  0
  188.7970  175.2370  143.5030 C   0  0  0  0  0  0  0  0  0  0  0  0
  188.4120  176.0840  141.3370 O   0  0  0  0  0  0  0  0  0  0  0  0
  184.7070  178.8380  147.1090 C   0  0  0  0  0  1  0  0  0  0  0  0
  187.7580  175.6140  142.4970 C   0  0  2  0  0  3  0  0  0  0  0  0
  185.7960  178.7350  142.3730 O   0  0  0  0  0  0  0  0  0  0  0  0
  185.8640  178.1850  146.4260 C   0  0  0  0  0  0  0  0  0  0  0  0
  184.4720  177.7110  144.5160 O   0  0  0  0  0  1  0  0  0  0  0  0
  186.7000  177.5400  140.5660 C   0  0  1  0  0  3  0  0  0  0  0  0
  191.2660  172.5520  144.0980 O   0  0  0  0  0  0  0  0  0  0  0  0
  191.3300  171.9180  142.9200 O   0  0  0  0  0  0  0  0  0  0  0  0
  192.5830  171.3090  142.9230 C   0  0  0  0  0  2  0  0  0  0  0  0
  195.2540  170.1710  144.3500 C   0  0  2  0  0  3  0  0  0  0  0  0
  194.3070  169.0740  144.1440 N   0  0  0  0  0  2  0  0  0  0  0  0
  193.0020  170.9760  144.3530 C   0  0  1  0  0  3  0  0  0  0  0  0
  193.0190  169.5270  144.5100 N   0  0  0  0  0  2  0  0  0  0  0  0
  194.4160  171.3900  144.6690 C   0  0  2  0  0  3  0  0  0  0  0  0
  196.3970  174.6130  145.0110 C   0  0  0  0  0  3  0  0  0  0  0  0
  196.5930  176.9480  143.6120 Cl  0  0  0  0  0  0  0  0  0  0  0  0
  194.5080  173.5160  143.2630 C   0  0  0  0  0  3  0  0  0  0  0  0
  195.8830  173.3330  145.2470 C   0  0  0  0  0  3  0  0  0  0  0  0
  195.0210  174.7940  143.0270 C   0  0  0  0  0  3  0  0  0  0  0  0
  194.9330  172.7760  144.3780 C   0  0  0  0  0  0  0  0  0  0  0  0
  195.9630  175.3430  143.9020 C   0  0  0  0  0  0  0  0  0  0  0  0
  196.3190  170.3220  142.9120 S   0  0  0  0  0  0  0  0  0  0  0  0
  195.5140  170.8300  141.7480 O   0  0  0  0  0  0  0  0  0  0  0  0
  197.0750  168.7720  142.4650 C   0  0  0  0  0  1  0  0  0  0  0  0
  197.4080  171.3120  143.2190 O   0  0  0  0  0  0  0  0  0  0  0  0
  2  8  1  6  0  0  0
  2  5  1  0  0  0  0
  3  7  1  0  0  0  0
  4 17  2  0  0  0  0
  4  6  1  0  0  0  0
  5 16  2  0  0  0  0
  5 11  1  0  0  0  0
  6 10  2  0  0  0  0
  8 21  2  0  0  0  0
 10  9  1  0  0  0  0
 10 12  1  0  0  0  0
 11 14  2  0  0  0  0
 13 11  1  0  0  0  0
 13  9  1  0  0  0  0
 14  3  1  0  0  0  0
 15 24  1  0  0  0  0
 15 18  1  0  0  0  0
 16 22  1  0  0  0  0
 17 13  1  0  0  0  0
 20 18  1  6  0  0  0
 20  2  1  0  0  0  0
 20 17  1  0  0  0  0
 22  3  2  0  0  0  0
 22 19  1  0  0  0  0
 23 16  1  0  0  0  0
 24  1  1  6  0  0  0
 24  8  1  0  0  0  0
 25  6  1  0  0  0  0
 26 27  1  0  0  0  0
 26 25  1  0  0  0  0
 28 40  1  6  0  0  0
 28 32  1  0  0  0  0
 29 28  1  0  0  0  0
 29 31  1  0  0  0  0
 30 27  1  6  0  0  0
 30 31  1  0  0  0  0
 30 32  1  0  0  0  0
 32 38  1  6  0  0  0
 33 36  1  0  0  0  0
 34 39  1  0  0  0  0
 35 38  1  0  0  0  0
 37 35  2  0  0  0  0
 37 39  1  0  0  0  0
 38 36  2  0  0  0  0
 39 33  2  0  0  0  0
 40 43  2  0  0  0  0
 41 40  2  0  0  0  0
 42 40  1  0  0  0  0
M  END
>  <MODEL>
4

>  <REMARK>
 VINA RESULT:      -7.7      3.415      9.378
  Name = 
  6 active torsions:
  status: ('A' for Active; 'I' for Inactive)
    1  A    between atoms: C_8  and  O_16
    2  A    between atoms: C_12  and  C_33
    3  A    between atoms: C_12  and  O_42
    4  A    between atoms: O_16  and  O_42
    5  A    between atoms: S_18  and  C_23
    6  A    between atoms: C_25  and  C_41
                            x       y       z     vdW  Elec       q    Type
                         _______ _______ _______ _____ _____    ______ ____

>  <TORSDO>
F 6

$$$$
=
 OpenBabel11062422303D

 43 48  0  0  1  0  0  0  0  0999 V2000
  185.3750  178.1930  147.6400 O   0  0  0  0  0  1  0  0  0  0  0  0
  187.1300  177.9360  144.5650 C   0  0  1  0  0  3  0  0  0  0  0  0
  186.5530  177.1130  140.3510 C   0  0  0  0  0  0  0  0  0  0  0  0
  190.7380  176.8070  144.6100 C   0  0  0  0  0  3  0  0  0  0  0  0
  186.9690  177.6800  143.0750 C   0  0  0  0  0  0  0  0  0  0  0  0
  191.7140  176.1290  143.7380 C   0  0  0  0  0  0  0  0  0  0  0  0
  186.3420  176.7910  139.0160 O   0  0  0  0  0  1  0  0  0  0  0  0
  185.9220  177.5610  145.4170 C   0  0  0  0  0  0  0  0  0  0  0  0
  189.8300  175.2560  142.3830 C   0  0  0  0  0  2  0  0  0  0  0  0
  191.2980  175.4310  142.6730 C   0  0  0  0  0  0  0  0  0  0  0  0
  187.8250  176.7860  142.3980 C   0  0  0  0  0  0  0  0  0  0  0  0
  192.2430  174.7510  141.8500 N   0  0  0  0  0  1  0  0  0  0  0  0
  189.0060  176.2800  143.0410 N   0  0  0  0  0  0  0  0  0  0  0  0
  187.5920  176.4990  141.0470 C   0  0  0  0  0  3  0  0  0  0  0  0
  187.5520  177.3030  147.2680 C   0  0  0  0  0  2  0  0  0  0  0  0
  185.9760  178.3670  142.3430 C   0  0  0  0  0  0  0  0  0  0  0  0
  189.4510  176.8730  144.2700 C   0  0  0  0  0  0  0  0  0  0  0  0
  188.2910  176.6050  146.3060 O   0  0  0  0  0  0  0  0  0  0  0  0
  184.6750  178.7650  140.2320 C   0  0  0  0  0  1  0  0  0  0  0  0
  188.4770  177.4910  145.2210 C   0  0  2  0  0  3  0  0  0  0  0  0
  184.8010  177.5430  144.9350 O   0  0  0  0  0  0  0  0  0  0  0  0
  185.7550  178.0650  140.9910 C   0  0  0  0  0  0  0  0  0  0  0  0
  185.2150  179.3580  142.9540 O   0  0  0  0  0  1  0  0  0  0  0  0
  186.0800  177.2570  146.8820 C   0  0  1  0  0  3  0  0  0  0  0  0
  193.0770  176.1980  144.0290 O   0  0  0  0  0  0  0  0  0  0  0  0
  193.6110  175.5010  145.0400 O   0  0  0  0  0  0  0  0  0  0  0  0
  194.5470  174.6700  144.4290 C   0  0  0  0  0  2  0  0  0  0  0  0
  197.4990  173.3480  144.3730 C   0  0  2  0  0  3  0  0  0  0  0  0
  196.9680  173.2950  145.7360 N   0  0  0  0  0  2  0  0  0  0  0  0
  195.9610  175.1380  144.7610 C   0  0  1  0  0  3  0  0  0  0  0  0
  196.3690  174.5420  146.0260 N   0  0  0  0  0  2  0  0  0  0  0  0
  196.9960  174.6460  143.7800 C   0  0  2  0  0  3  0  0  0  0  0  0
  197.8190  175.3620  140.1410 C   0  0  0  0  0  3  0  0  0  0  0  0
  196.4640  175.2770  137.7740 Cl  0  0  0  0  0  0  0  0  0  0  0  0
  195.6140  174.5130  141.6400 C   0  0  0  0  0  3  0  0  0  0  0  0
  197.9270  175.2170  141.5290 C   0  0  0  0  0  3  0  0  0  0  0  0
  195.5040  174.6580  140.2540 C   0  0  0  0  0  3  0  0  0  0  0  0
  196.8270  174.7960  142.2890 C   0  0  0  0  0  0  0  0  0  0  0  0
  196.6060  175.0840  139.5060 C   0  0  0  0  0  0  0  0  0  0  0  0
  197.0260  171.8600  143.4860 S   0  0  0  0  0  0  0  0  0  0  0  0
  195.5380  171.8610  143.2710 O   0  0  0  0  0  0  0  0  0  0  0  0
  197.4870  170.3770  144.3590 C   0  0  0  0  0  1  0  0  0  0  0  0
  197.7120  171.8560  142.1480 O   0  0  0  0  0  0  0  0  0  0  0  0
  2  5  1  6  0  0  0
  2 20  1  0  0  0  0
  2  8  1  0  0  0  0
  3 22  2  0  0  0  0
  3 14  1  0  0  0  0
  6 25  1  0  0  0  0
  6  4  1  0  0  0  0
  7  3  1  0  0  0  0
  8 24  1  0  0  0  0
  9 10  1  0  0  0  0
  9 13  1  0  0  0  0
 10  6  2  0  0  0  0
 11 13  1  0  0  0  0
 11  5  1  0  0  0  0
 12 10  1  0  0  0  0
 13 17  1  0  0  0  0
 14 11  2  0  0  0  0
 16 23  1  0  0  0  0
 16  5  2  0  0  0  0
 17  4  2  0  0  0  0
 18 15  1  0  0  0  0
 19 22  1  0  0  0  0
 20 17  1  6  0  0  0
 20 18  1  0  0  0  0
 21  8  2  0  0  0  0
 22 16  1  0  0  0  0
 24 15  1  0  0  0  0
 24  1  1  1  0  0  0
 25 26  1  0  0  0  0
 27 26  1  0  0  0  0
 28 40  1  6  0  0  0
 28 29  1  0  0  0  0
 29 31  1  0  0  0  0
 30 27  1  6  0  0  0
 30 31  1  0  0  0  0
 32 38  1  6  0  0  0
 32 28  1  0  0  0  0
 32 30  1  0  0  0  0
 33 36  1  0  0  0  0
 34 39  1  0  0  0  0
 35 38  1  0  0  0  0
 36 38  2  0  0  0  0
 37 35  2  0  0  0  0
 39 33  2  0  0  0  0
 39 37  1  0  0  0  0
 40 42  1  0  0  0  0
 41 40  2  0  0  0  0
 43 40  2  0  0  0  0
M  END
>  <MODEL>
5

>  <REMARK>
 VINA RESULT:      -7.6      4.054      9.457
  Name = 
  6 active torsions:
  status: ('A' for Active; 'I' for Inactive)
    1  A    between atoms: C_8  and  O_16
    2  A    between atoms: C_12  and  C_33
    3  A    between atoms: C_12  and  O_42
    4  A    between atoms: O_16  and  O_42
    5  A    between atoms: S_18  and  C_23
    6  A    between atoms: C_25  and  C_41
                            x       y       z     vdW  Elec       q    Type
                         _______ _______ _______ _____ _____    ______ ____

>  <TORSDO>
F 6

$$$$
=
 OpenBabel11062422303D

 43 48  0  0  1  0  0  0  0  0999 V2000
  185.8890  177.6420  147.8120 O   0  0  0  0  0  1  0  0  0  0  0  0
  187.4720  177.6920  144.6360 C   0  0  1  0  0  3  0  0  0  0  0  0
  186.6890  177.1420  140.4100 C   0  0  0  0  0  0  0  0  0  0  0  0
  191.1250  176.7450  144.3990 C   0  0  0  0  0  3  0  0  0  0  0  0
  187.2360  177.5340  143.1420 C   0  0  0  0  0  0  0  0  0  0  0  0
  192.0780  176.1800  143.4270 C   0  0  0  0  0  0  0  0  0  0  0  0
  186.4150  176.9050  139.0690 O   0  0  0  0  0  1  0  0  0  0  0  0
  186.3340  177.1980  145.5220 C   0  0  0  0  0  0  0  0  0  0  0  0
  190.1600  175.3120  142.1170 C   0  0  0  0  0  2  0  0  0  0  0  0
  191.6330  175.5400  142.3390 C   0  0  0  0  0  0  0  0  0  0  0  0
  188.0910  176.7340  142.3550 C   0  0  0  0  0  0  0  0  0  0  0  0
  192.5590  174.9670  141.4170 N   0  0  0  0  0  1  0  0  0  0  0  0
  189.3300  176.2440  142.8940 N   0  0  0  0  0  0  0  0  0  0  0  0
  187.7940  176.5330  141.0010 C   0  0  0  0  0  3  0  0  0  0  0  0
  188.0790  176.8910  147.2570 C   0  0  0  0  0  2  0  0  0  0  0  0
  186.1720  178.2210  142.5180 C   0  0  0  0  0  0  0  0  0  0  0  0
  189.8180  176.7700  144.1370 C   0  0  0  0  0  0  0  0  0  0  0  0
  188.7930  176.3010  146.2070 O   0  0  0  0  0  0  0  0  0  0  0  0
  184.7330  178.7010  140.5170 C   0  0  0  0  0  1  0  0  0  0  0  0
  188.8740  177.2700  145.1820 C   0  0  2  0  0  3  0  0  0  0  0  0
  185.1890  177.1570  145.1030 O   0  0  0  0  0  0  0  0  0  0  0  0
  185.8860  178.0050  141.1620 C   0  0  0  0  0  0  0  0  0  0  0  0
  185.4030  179.1270  143.2410 O   0  0  0  0  0  1  0  0  0  0  0  0
  186.5920  176.7990  146.9500 C   0  0  1  0  0  3  0  0  0  0  0  0
  193.4510  176.2970  143.6470 O   0  0  0  0  0  0  0  0  0  0  0  0
  193.9770  176.1480  144.8700 O   0  0  0  0  0  0  0  0  0  0  0  0
  194.4230  174.8280  144.8960 C   0  0  0  0  0  2  0  0  0  0  0  0
  196.5430  172.4980  144.1620 C   0  0  2  0  0  3  0  0  0  0  0  0
  197.2250  173.5630  144.8980 N   0  0  0  0  0  2  0  0  0  0  0  0
  195.4680  174.6050  143.8070 C   0  0  1  0  0  3  0  0  0  0  0  0
  196.7930  174.8050  144.3810 N   0  0  0  0  0  2  0  0  0  0  0  0
  195.5060  173.1850  143.3010 C   0  0  2  0  0  3  0  0  0  0  0  0
  193.1740  171.0130  141.2330 C   0  0  0  0  0  3  0  0  0  0  0  0
  190.5820  170.1830  141.4310 Cl  0  0  0  0  0  0  0  0  0  0  0  0
  193.0760  172.4770  143.6150 C   0  0  0  0  0  3  0  0  0  0  0  0
  194.3020  171.7150  141.6730 C   0  0  0  0  0  3  0  0  0  0  0  0
  191.9480  171.7770  143.1770 C   0  0  0  0  0  3  0  0  0  0  0  0
  194.2610  172.4540  142.8640 C   0  0  0  0  0  0  0  0  0  0  0  0
  191.9980  171.0470  141.9850 C   0  0  0  0  0  0  0  0  0  0  0  0
  195.9020  171.2840  145.3200 S   0  0  0  0  0  0  0  0  0  0  0  0
  196.9480  170.9890  146.3600 O   0  0  0  0  0  0  0  0  0  0  0  0
  195.4350  169.7650  144.5170 C   0  0  0  0  0  1  0  0  0  0  0  0
  194.6890  171.8570  145.9990 O   0  0  0  0  0  0  0  0  0  0  0  0
  2  5  1  6  0  0  0
  2 20  1  0  0  0  0
  2  8  1  0  0  0  0
  3 14  2  0  0  0  0
  3 22  1  0  0  0  0
  6 25  1  0  0  0  0
  6  4  1  0  0  0  0
  7  3  1  0  0  0  0
  8 24  1  0  0  0  0
  9 10  1  0  0  0  0
  9 13  1  0  0  0  0
 10  6  2  0  0  0  0
 11 13  1  0  0  0  0
 11  5  2  0  0  0  0
 12 10  1  0  0  0  0
 13 17  1  0  0  0  0
 14 11  1  0  0  0  0
 16  5  1  0  0  0  0
 16 23  1  0  0  0  0
 17  4  2  0  0  0  0
 18 15  1  0  0  0  0
 19 22  1  0  0  0  0
 20 17  1  6  0  0  0
 20 18  1  0  0  0  0
 21  8  2  0  0  0  0
 22 16  2  0  0  0  0
 24 15  1  0  0  0  0
 24  1  1  1  0  0  0
 25 26  1  0  0  0  0
 26 27  1  0  0  0  0
 28 29  1  0  0  0  0
 28 40  1  1  0  0  0
 30 31  1  0  0  0  0
 30 27  1  1  0  0  0
 31 29  1  0  0  0  0
 32 38  1  1  0  0  0
 32 30  1  0  0  0  0
 32 28  1  0  0  0  0
 33 36  2  0  0  0  0
 33 39  1  0  0  0  0
 34 39  1  0  0  0  0
 36 38  1  0  0  0  0
 37 35  1  0  0  0  0
 38 35  2  0  0  0  0
 39 37  2  0  0  0  0
 40 43  2  0  0  0  0
 40 41  2  0  0  0  0
 42 40  1  0  0  0  0
M  END
>  <MODEL>
6

>  <REMARK>
 VINA RESULT:      -7.5      3.294      8.838
  Name = 
  6 active torsions:
  status: ('A' for Active; 'I' for Inactive)
    1  A    between atoms: C_8  and  O_16
    2  A    between atoms: C_12  and  C_33
    3  A    between atoms: C_12  and  O_42
    4  A    between atoms: O_16  and  O_42
    5  A    between atoms: S_18  and  C_23
    6  A    between atoms: C_25  and  C_41
                            x       y       z     vdW  Elec       q    Type
                         _______ _______ _______ _____ _____    ______ ____

>  <TORSDO>
F 6

$$$$
=
 OpenBabel11062422303D

 43 48  0  0  1  0  0  0  0  0999 V2000
  195.0710  174.4270  136.3600 O   0  0  0  0  0  1  0  0  0  0  0  0
  194.1510  174.7240  139.7760 C   0  0  1  0  0  3  0  0  0  0  0  0
  195.7960  174.6540  143.7830 C   0  0  0  0  0  0  0  0  0  0  0  0
  190.6950  173.6220  140.8400 C   0  0  0  0  0  3  0  0  0  0  0  0
  194.6900  174.7340  141.1970 C   0  0  0  0  0  0  0  0  0  0  0  0
  189.9960  173.1120  142.0340 C   0  0  0  0  0  0  0  0  0  0  0  0
  196.3470  174.5710  145.0560 O   0  0  0  0  0  1  0  0  0  0  0  0
  195.1230  174.2000  138.7230 C   0  0  0  0  0  0  0  0  0  0  0  0
  192.1930  172.4830  142.9960 C   0  0  0  0  0  2  0  0  0  0  0  0
  190.6930  172.6110  143.0620 C   0  0  0  0  0  0  0  0  0  0  0  0
  194.0670  173.9770  142.2120 C   0  0  0  0  0  0  0  0  0  0  0  0
  190.0120  172.0900  144.2010 N   0  0  0  0  0  1  0  0  0  0  0  0
  192.7840  173.3710  141.9850 N   0  0  0  0  0  0  0  0  0  0  0  0
  194.6410  173.9320  143.4890 C   0  0  0  0  0  3  0  0  0  0  0  0
  193.0940  173.6260  137.4180 C   0  0  0  0  0  2  0  0  0  0  0  0
  195.8060  175.5350  141.5250 C   0  0  0  0  0  0  0  0  0  0  0  0
  192.0230  173.7400  140.8260 C   0  0  0  0  0  0  0  0  0  0  0  0
  192.6460  173.1130  138.6410 O   0  0  0  0  0  0  0  0  0  0  0  0
  197.5760  176.2920  143.1370 C   0  0  0  0  0  1  0  0  0  0  0  0
  192.7020  174.1770  139.5680 C   0  0  2  0  0  3  0  0  0  0  0  0
  196.3280  174.2610  138.9010 O   0  0  0  0  0  0  0  0  0  0  0  0
  196.3700  175.4750  142.8080 C   0  0  0  0  0  0  0  0  0  0  0  0
  196.3490  176.3990  140.5810 O   0  0  0  0  0  1  0  0  0  0  0  0
  194.6150  173.6430  137.4210 C   0  0  1  0  0  3  0  0  0  0  0  0
  188.6020  173.1350  142.0900 O   0  0  0  0  0  0  0  0  0  0  0  0
  187.8840  173.9240  141.2800 O   0  0  0  0  0  0  0  0  0  0  0  0
  187.4930  174.9870  142.0910 C   0  0  0  0  0  2  0  0  0  0  0  0
  187.1680  178.1390  142.7400 C   0  0  2  0  0  3  0  0  0  0  0  0
  186.4650  177.8240  141.4960 N   0  0  0  0  0  2  0  0  0  0  0  0
  188.1790  176.2730  141.6370 C   0  0  1  0  0  3  0  0  0  0  0  0
  187.2930  176.9800  140.7220 N   0  0  0  0  0  2  0  0  0  0  0  0
  188.3970  177.2570  142.7590 C   0  0  2  0  0  3  0  0  0  0  0  0
  190.3580  177.5090  146.0030 C   0  0  0  0  0  3  0  0  0  0  0  0
  191.0140  175.8040  148.0310 Cl  0  0  0  0  0  0  0  0  0  0  0  0
  188.9310  175.5620  144.5890 C   0  0  0  0  0  3  0  0  0  0  0  0
  189.7530  177.8300  144.7830 C   0  0  0  0  0  3  0  0  0  0  0  0
  189.5340  175.2390  145.8070 C   0  0  0  0  0  3  0  0  0  0  0  0
  189.0390  176.8600  144.0650 C   0  0  0  0  0  0  0  0  0  0  0  0
  190.2490  176.2130  146.5130 C   0  0  0  0  0  0  0  0  0  0  0  0
  186.0500  177.9350  144.1300 S   0  0  0  0  0  0  0  0  0  0  0  0
  185.9270  176.4720  144.4590 O   0  0  0  0  0  0  0  0  0  0  0  0
  184.4290  178.5940  143.7970 C   0  0  0  0  0  1  0  0  0  0  0  0
  186.6210  178.6540  145.3200 O   0  0  0  0  0  0  0  0  0  0  0  0
  2  8  1  6  0  0  0
  2  5  1  0  0  0  0
  3  7  1  0  0  0  0
  4  6  1  0  0  0  0
  5 16  2  0  0  0  0
  5 11  1  0  0  0  0
  6 25  1  0  0  0  0
  6 10  2  0  0  0  0
  8 21  2  0  0  0  0
  9 10  1  0  0  0  0
 10 12  1  0  0  0  0
 11 14  2  0  0  0  0
 13 11  1  0  0  0  0
 13  9  1  0  0  0  0
 14  3  1  0  0  0  0
 15 24  1  0  0  0  0
 15 18  1  0  0  0  0
 16 22  1  0  0  0  0
 17  4  2  0  0  0  0
 17 13  1  0  0  0  0
 20 18  1  6  0  0  0
 20  2  1  0  0  0  0
 20 17  1  0  0  0  0
 22 19  1  0  0  0  0
 22  3  2  0  0  0  0
 23 16  1  0  0  0  0
 24  1  1  6  0  0  0
 24  8  1  0  0  0  0
 26 25  1  0  0  0  0
 26 27  1  0  0  0  0
 28 32  1  0  0  0  0
 28 40  1  1  0  0  0
 29 28  1  0  0  0  0
 30 27  1  1  0  0  0
 30 32  1  0  0  0  0
 31 29  1  0  0  0  0
 31 30  1  0  0  0  0
 32 38  1  1  0  0  0
 33 39  1  0  0  0  0
 35 37  1  0  0  0  0
 36 33  2  0  0  0  0
 37 39  2  0  0  0  0
 38 35  2  0  0  0  0
 38 36  1  0  0  0  0
 39 34  1  0  0  0  0
 40 41  2  0  0  0  0
 40 43  2  0  0  0  0
 42 40  1  0  0  0  0
M  END
>  <MODEL>
7

>  <REMARK>
 VINA RESULT:      -7.5      2.928      4.570
  Name = 
  6 active torsions:
  status: ('A' for Active; 'I' for Inactive)
    1  A    between atoms: C_8  and  O_16
    2  A    between atoms: C_12  and  C_33
    3  A    between atoms: C_12  and  O_42
    4  A    between atoms: O_16  and  O_42
    5  A    between atoms: S_18  and  C_23
    6  A    between atoms: C_25  and  C_41
                            x       y       z     vdW  Elec       q    Type
                         _______ _______ _______ _____ _____    ______ ____

>  <TORSDO>
F 6

$$$$
=
 OpenBabel11062422303D

 43 48  0  0  1  0  0  0  0  0999 V2000
  187.3200  177.4440  147.5130 O   0  0  0  0  0  1  0  0  0  0  0  0
  188.7320  176.0140  144.5870 C   0  0  1  0  0  3  0  0  0  0  0  0
  187.8780  175.2020  140.4180 C   0  0  0  0  0  0  0  0  0  0  0  0
  191.2170  173.1880  144.9510 C   0  0  0  0  0  3  0  0  0  0  0  0
  188.4840  175.7340  143.1130 C   0  0  0  0  0  0  0  0  0  0  0  0
  191.7080  172.0210  144.1970 C   0  0  0  0  0  0  0  0  0  0  0  0
  187.5510  174.9070  139.1000 O   0  0  0  0  0  1  0  0  0  0  0  0
  187.4920  176.4060  145.3840 C   0  0  0  0  0  0  0  0  0  0  0  0
  189.6670  172.1240  142.7920 C   0  0  0  0  0  2  0  0  0  0  0  0
  191.0060  171.5400  143.1630 C   0  0  0  0  0  0  0  0  0  0  0  0
  188.7580  174.4650  142.5620 C   0  0  0  0  0  0  0  0  0  0  0  0
  191.4690  170.3910  142.4560 N   0  0  0  0  0  1  0  0  0  0  0  0
  189.4900  173.4850  143.3170 N   0  0  0  0  0  0  0  0  0  0  0  0
  188.4310  174.2100  141.2240 C   0  0  0  0  0  3  0  0  0  0  0  0
  188.7160  175.5220  147.3510 C   0  0  0  0  0  2  0  0  0  0  0  0
  188.0090  176.7610  142.2690 C   0  0  0  0  0  0  0  0  0  0  0  0
  190.1590  173.8790  144.5240 C   0  0  0  0  0  0  0  0  0  0  0  0
  188.9980  174.4520  146.4940 O   0  0  0  0  0  0  0  0  0  0  0  0
  187.1420  177.5670  140.0540 C   0  0  0  0  0  1  0  0  0  0  0  0
  189.6370  175.0020  145.3610 C   0  0  2  0  0  3  0  0  0  0  0  0
  186.5340  176.9250  144.8330 O   0  0  0  0  0  0  0  0  0  0  0  0
  187.6840  176.4880  140.9320 C   0  0  0  0  0  0  0  0  0  0  0  0
  187.8680  178.0570  142.7530 O   0  0  0  0  0  1  0  0  0  0  0  0
  187.4440  176.2090  146.8750 C   0  0  1  0  0  3  0  0  0  0  0  0
  192.9020  171.4010  144.5700 O   0  0  0  0  0  0  0  0  0  0  0  0
  193.7270  171.9570  145.4650 O   0  0  0  0  0  0  0  0  0  0  0  0
  194.8630  172.2890  144.7300 C   0  0  0  0  0  2  0  0  0  0  0  0
  197.1600  174.4920  144.1560 C   0  0  2  0  0  3  0  0  0  0  0  0
  197.7810  173.1820  144.3570 N   0  0  0  0  0  2  0  0  0  0  0  0
  195.8170  173.1190  145.5820 C   0  0  1  0  0  3  0  0  0  0  0  0
  197.1580  172.5620  145.4630 N   0  0  0  0  0  2  0  0  0  0  0  0
  195.9720  174.5370  145.0920 C   0  0  2  0  0  3  0  0  0  0  0  0
  193.5030  177.4160  145.3120 C   0  0  0  0  0  3  0  0  0  0  0  0
  191.2530  178.1720  143.9670 Cl  0  0  0  0  0  0  0  0  0  0  0  0
  193.8890  175.1310  143.7440 C   0  0  0  0  0  3  0  0  0  0  0  0
  194.5850  176.5660  145.5650 C   0  0  0  0  0  3  0  0  0  0  0  0
  192.8070  175.9790  143.4910 C   0  0  0  0  0  3  0  0  0  0  0  0
  194.7850  175.4170  144.7870 C   0  0  0  0  0  0  0  0  0  0  0  0
  192.6140  177.1200  144.2760 C   0  0  0  0  0  0  0  0  0  0  0  0
  196.7810  174.7170  142.4160 S   0  0  0  0  0  0  0  0  0  0  0  0
  197.9320  174.2150  141.5870 O   0  0  0  0  0  0  0  0  0  0  0  0
  196.4680  176.4220  142.0070 C   0  0  0  0  0  1  0  0  0  0  0  0
  195.5540  173.9140  142.0810 O   0  0  0  0  0  0  0  0  0  0  0  0
  2  5  1  6  0  0  0
  2 20  1  0  0  0  0
  2  8  1  0  0  0  0
  3 22  2  0  0  0  0
  3 14  1  0  0  0  0
  6 25  1  0  0  0  0
  6  4  1  0  0  0  0
  7  3  1  0  0  0  0
  8 24  1  0  0  0  0
  9 10  1  0  0  0  0
  9 13  1  0  0  0  0
 10  6  2  0  0  0  0
 11  5  1  0  0  0  0
 11 13  1  0  0  0  0
 12 10  1  0  0  0  0
 13 17  1  0  0  0  0
 14 11  2  0  0  0  0
 16 23  1  0  0  0  0
 16  5  2  0  0  0  0
 17  4  2  0  0  0  0
 18 15  1  0  0  0  0
 19 22  1  0  0  0  0
 20 17  1  6  0  0  0
 20 18  1  0  0  0  0
 21  8  2  0  0  0  0
 22 16  1  0  0  0  0
 24 15  1  0  0  0  0
 24  1  1  1  0  0  0
 25 26  1  0  0  0  0
 27 26  1  0  0  0  0
 28 40  1  6  0  0  0
 28 29  1  0  0  0  0
 28 32  1  0  0  0  0
 29 31  1  0  0  0  0
 30 27  1  6  0  0  0
 31 30  1  0  0  0  0
 32 38  1  6  0  0  0
 32 30  1  0  0  0  0
 33 36  1  0  0  0  0
 34 39  1  0  0  0  0
 35 38  1  0  0  0  0
 37 35  2  0  0  0  0
 37 39  1  0  0  0  0
 38 36  2  0  0  0  0
 39 33  2  0  0  0  0
 41 40  2  0  0  0  0
 42 40  1  0  0  0  0
 43 40  2  0  0  0  0
M  END
>  <MODEL>
8

>  <REMARK>
 VINA RESULT:      -7.3      3.339      8.041
  Name = 
  6 active torsions:
  status: ('A' for Active; 'I' for Inactive)
    1  A    between atoms: C_8  and  O_16
    2  A    between atoms: C_12  and  C_33
    3  A    between atoms: C_12  and  O_42
    4  A    between atoms: O_16  and  O_42
    5  A    between atoms: S_18  and  C_23
    6  A    between atoms: C_25  and  C_41
                            x       y       z     vdW  Elec       q    Type
                         _______ _______ _______ _____ _____    ______ ____

>  <TORSDO>
F 6

$$$$
=
 OpenBabel11062422303D

 43 48  0  0  1  0  0  0  0  0999 V2000
  190.3560  169.8890  139.5540 O   0  0  0  0  0  1  0  0  0  0  0  0
  192.2680  172.7060  140.5590 C   0  0  1  0  0  3  0  0  0  0  0  0
  195.9920  174.7760  139.7680 C   0  0  0  0  0  0  0  0  0  0  0  0
  191.9870  173.9270  144.1260 C   0  0  0  0  0  3  0  0  0  0  0  0
  193.5510  173.4780  140.2950 C   0  0  0  0  0  0  0  0  0  0  0  0
  192.7870  174.6470  145.1330 C   0  0  0  0  0  0  0  0  0  0  0  0
  197.2170  175.3830  139.5280 O   0  0  0  0  0  1  0  0  0  0  0  0
  192.2170  171.3140  139.9380 C   0  0  0  0  0  0  0  0  0  0  0  0
  194.8280  174.1090  143.8320 C   0  0  0  0  0  2  0  0  0  0  0  0
  194.1130  174.7660  144.9830 C   0  0  0  0  0  0  0  0  0  0  0  0
  194.3800  173.8890  141.3600 C   0  0  0  0  0  0  0  0  0  0  0  0
  194.8870  175.4360  145.9760 N   0  0  0  0  0  1  0  0  0  0  0  0
  193.9210  173.7970  142.7180 N   0  0  0  0  0  0  0  0  0  0  0  0
  195.6010  174.5170  141.0800 C   0  0  0  0  0  3  0  0  0  0  0  0
  190.6070  170.7800  141.7480 C   0  0  0  0  0  2  0  0  0  0  0  0
  193.9080  173.8250  138.9730 C   0  0  0  0  0  0  0  0  0  0  0  0
  192.5360  173.5260  142.9790 C   0  0  0  0  0  0  0  0  0  0  0  0
  191.5480  171.4270  142.5570 O   0  0  0  0  0  0  0  0  0  0  0  0
  195.5280  174.7760  137.3070 C   0  0  0  0  0  1  0  0  0  0  0  0
  191.7160  172.7230  142.0210 C   0  0  2  0  0  3  0  0  0  0  0  0
  192.8780  171.0470  138.9480 O   0  0  0  0  0  0  0  0  0  0  0  0
  195.1360  174.4500  138.7110 C   0  0  0  0  0  0  0  0  0  0  0  0
  193.0400  173.5590  137.9210 O   0  0  0  0  0  1  0  0  0  0  0  0
  191.3100  170.2550  140.5050 C   0  0  1  0  0  3  0  0  0  0  0  0
  192.1670  175.1920  146.2580 O   0  0  0  0  0  0  0  0  0  0  0  0
  191.8680  176.4960  146.3270 O   0  0  0  0  0  0  0  0  0  0  0  0
  190.6030  176.5910  145.7510 C   0  0  0  0  0  2  0  0  0  0  0  0
  189.4470  177.0570  142.7660 C   0  0  2  0  0  3  0  0  0  0  0  0
  190.8800  176.7700  142.6940 N   0  0  0  0  0  2  0  0  0  0  0  0
  190.5600  177.7550  144.7650 C   0  0  1  0  0  3  0  0  0  0  0  0
  191.5310  177.5090  143.7070 N   0  0  0  0  0  2  0  0  0  0  0  0
  189.2470  177.8630  144.0310 C   0  0  2  0  0  3  0  0  0  0  0  0
  185.6110  178.6120  144.8370 C   0  0  0  0  0  3  0  0  0  0  0  0
  183.8550  177.9010  146.8000 Cl  0  0  0  0  0  0  0  0  0  0  0  0
  187.7080  177.1120  145.9210 C   0  0  0  0  0  3  0  0  0  0  0  0
  186.8620  178.6000  144.2100 C   0  0  0  0  0  3  0  0  0  0  0  0
  186.4600  177.1240  146.5490 C   0  0  0  0  0  3  0  0  0  0  0  0
  187.9210  177.8530  144.7480 C   0  0  0  0  0  0  0  0  0  0  0  0
  185.4120  177.8760  146.0070 C   0  0  0  0  0  0  0  0  0  0  0  0
  188.5220  175.5210  142.6760 S   0  0  0  0  0  0  0  0  0  0  0  0
  188.8370  174.6790  143.8820 O   0  0  0  0  0  0  0  0  0  0  0  0
  188.8960  174.5920  141.2040 C   0  0  0  0  0  1  0  0  0  0  0  0
  187.0530  175.8410  142.6760 O   0  0  0  0  0  0  0  0  0  0  0  0
  2  8  1  1  0  0  0
  2 20  1  0  0  0  0
  3 14  1  0  0  0  0
  4  6  1  0  0  0  0
  5  2  1  0  0  0  0
  5 11  1  0  0  0  0
  6 25  1  0  0  0  0
  7  3  1  0  0  0  0
  8 24  1  0  0  0  0
  9 10  1  0  0  0  0
 10  6  2  0  0  0  0
 10 12  1  0  0  0  0
 11 13  1  0  0  0  0
 13 17  1  0  0  0  0
 13  9  1  0  0  0  0
 14 11  2  0  0  0  0
 15 18  1  0  0  0  0
 16  5  2  0  0  0  0
 17  4  2  0  0  0  0
 19 22  1  0  0  0  0
 20 18  1  1  0  0  0
 20 17  1  0  0  0  0
 21  8  2  0  0  0  0
 22 16  1  0  0  0  0
 22  3  2  0  0  0  0
 23 16  1  0  0  0  0
 24  1  1  6  0  0  0
 24 15  1  0  0  0  0
 25 26  1  0  0  0  0
 27 26  1  0  0  0  0
 28 40  1  1  0  0  0
 28 32  1  0  0  0  0
 29 28  1  0  0  0  0
 29 31  1  0  0  0  0
 30 27  1  1  0  0  0
 31 30  1  0  0  0  0
 32 38  1  1  0  0  0
 32 30  1  0  0  0  0
 33 39  1  0  0  0  0
 35 37  1  0  0  0  0
 36 38  1  0  0  0  0
 36 33  2  0  0  0  0
 38 35  2  0  0  0  0
 39 37  2  0  0  0  0
 39 34  1  0  0  0  0
 40 41  2  0  0  0  0
 42 40  1  0  0  0  0
 43 40  2  0  0  0  0
M  END
>  <MODEL>
9

>  <REMARK>
 VINA RESULT:      -7.3      3.245      5.740
  Name = 
  6 active torsions:
  status: ('A' for Active; 'I' for Inactive)
    1  A    between atoms: C_8  and  O_16
    2  A    between atoms: C_12  and  C_33
    3  A    between atoms: C_12  and  O_42
    4  A    between atoms: O_16  and  O_42
    5  A    between atoms: S_18  and  C_23
    6  A    between atoms: C_25  and  C_41
                            x       y       z     vdW  Elec       q    Type
                         _______ _______ _______ _____ _____    ______ ____

>  <TORSDO>
F 6

$$$$
