=
 OpenBabel11072408443D

 36 40  0  0  1  0  0  0  0  0999 V2000
  187.2940  177.6650  147.1240 C   0  0  1  0  0  3  0  0  0  0  0  0
  185.3500  179.1610  147.0080 N   0  0  0  0  0  2  0  0  0  0  0  0
  186.3990  178.5040  146.2100 C   0  0  2  0  0  0  0  0  0  0  0  0
  185.8090  177.8120  147.3660 C   0  0  1  0  0  3  0  0  0  0  0  0
  186.3880  177.1170  142.6060 C   0  0  2  0  0  3  0  0  0  0  0  0
  185.1420  177.8760  142.1470 C   0  0  0  0  0  2  0  0  0  0  0  0
  185.8480  177.8310  144.9410 C   0  0  1  0  0  3  0  0  0  0  0  0
  184.1240  177.8530  143.1960 N   0  0  0  0  0  2  0  0  0  0  0  0
  184.6350  178.5690  144.3640 C   0  0  0  0  0  2  0  0  0  0  0  0
  186.9320  177.7820  143.8670 C   0  0  0  0  0  2  0  0  0  0  0  0
  187.6190  177.0910  141.3000 S   0  0  0  0  0  0  0  0  0  0  0  0
  188.8220  177.8950  141.7090 O   0  0  0  0  0  0  0  0  0  0  0  0
  187.0090  177.7590  140.0990 O   0  0  0  0  0  0  0  0  0  0  0  0
  189.6900  175.5220  142.8630 C   0  0  0  0  0  1  0  0  0  0  0  0
  189.0560  174.7800  141.6940 C   0  0  0  0  0  0  0  0  0  0  0  0
  188.0950  175.4760  140.8040 N   0  0  0  0  0  0  0  0  0  0  0  0
  187.6360  174.5090  141.8260 C   0  0  0  0  0  2  0  0  0  0  0  0
  189.8380  173.6860  141.0020 C   0  0  0  0  0  1  0  0  0  0  0  0
  188.7590  175.8100  146.3640 N   0  0  0  0  0  0  0  0  0  0  0  0
  187.5720  176.2740  146.6390 C   0  0  0  0  0  3  0  0  0  0  0  0
  190.3900  177.4700  145.6520 C   0  0  0  0  0  2  0  0  0  0  0  0
  190.0340  176.4710  146.4530 C   0  0  0  0  0  0  0  0  0  0  0  0
  191.0080  176.0040  147.4780 C   0  0  0  0  0  2  0  0  0  0  0  0
  193.7140  176.7060  146.8800 O   0  0  0  0  0  0  0  0  0  0  0  0
  191.9940  175.1270  146.8640 N   0  0  0  0  0  2  0  0  0  0  0  0
  193.3120  175.5660  146.5250 C   0  0  0  0  0  0  0  0  0  0  0  0
  196.2230  173.7960  143.2040 C   0  0  0  0  0  1  0  0  0  0  0  0
  194.3130  172.7680  144.4110 C   0  0  2  0  0  3  0  0  0  0  0  0
  193.7070  173.3310  145.6150 N   0  0  0  0  0  2  0  0  0  0  0  0
  194.4730  175.1840  144.2750 C   0  0  1  0  0  3  0  0  0  0  0  0
  194.2090  174.6940  145.6990 C   0  0  1  0  0  3  0  0  0  0  0  0
  194.7400  173.9120  143.5040 C   0  0  1  0  0  3  0  0  0  0  0  0
  193.3010  175.8750  143.6420 C   0  0  0  0  0  3  0  0  0  0  0  0
  193.3850  176.3210  142.5100 O   0  0  0  0  0  0  0  0  0  0  0  0
  191.8950  172.3370  143.9980 C   0  0  0  0  0  1  0  0  0  0  0  0
  193.3090  171.8890  143.6860 C   0  0  0  0  0  2  0  0  0  0  0  0
  1 20  1  6  0  0  0
  1  4  1  0  0  0  0
  3  2  1  1  0  0  0
  3  1  1  0  0  0  0
  3  4  1  0  0  0  0
  4  2  1  1  0  0  0
  5 11  1  6  0  0  0
  5 10  1  0  0  0  0
  6  5  1  0  0  0  0
  6  8  1  0  0  0  0
  7 10  1  6  0  0  0
  7  3  1  0  0  0  0
  8  9  1  0  0  0  0
  9  7  1  0  0  0  0
 11 12  2  0  0  0  0
 13 11  2  0  0  0  0
 15 17  1  0  0  0  0
 15 14  1  0  0  0  0
 16 11  1  0  0  0  0
 16 15  1  0  0  0  0
 16 17  1  0  0  0  0
 18 15  1  0  0  0  0
 19 22  1  0  0  0  0
 19 20  2  0  0  0  0
 21 22  2  0  0  0  0
 22 23  1  0  0  0  0
 25 23  1  0  0  0  0
 26 25  1  0  0  0  0
 26 24  2  0  0  0  0
 28 36  1  6  0  0  0
 28 29  1  0  0  0  0
 29 31  1  0  0  0  0
 30 33  1  6  0  0  0
 30 31  1  0  0  0  0
 31 26  1  6  0  0  0
 32 27  1  1  0  0  0
 32 30  1  0  0  0  0
 32 28  1  0  0  0  0
 34 33  2  0  0  0  0
 36 35  1  0  0  0  0
M  END
>  <MODEL>
1

>  <REMARK>
 VINA RESULT:      -7.0      0.000      0.000
  Name = 
  10 active torsions:
  status: ('A' for Active; 'I' for Inactive)
    1  A    between atoms: C_1  and  S_25
    2  A    between atoms: C_2  and  C_27
    3  A    between atoms: N_5  and  S_25
    4  A    between atoms: C_6  and  C_19
    5  A    between atoms: C_11  and  C_17
    6  A    between atoms: C_12  and  C_20
    7  A    between atoms: C_14  and  C_29
    8  A    between atoms: C_14  and  N_32
    9  A    between atoms: N_18  and  C_29
   10  A    between atoms: C_33  and  C_34
                            x       y       z     vdW  Elec       q    Type
                         _______ _______ _______ _____ _____    ______ ____

>  <TORSDO>
F 10

$$$$
=
 OpenBabel11072408443D

 36 40  0  0  1  0  0  0  0  0999 V2000
  189.9020  174.6150  143.3980 C   0  0  1  0  0  3  0  0  0  0  0  0
  188.2780  173.7470  141.7750 N   0  0  0  0  0  2  0  0  0  0  0  0
  188.4890  174.7510  142.8300 C   0  0  2  0  0  0  0  0  0  0  0  0
  189.5960  174.3760  141.9370 C   0  0  1  0  0  3  0  0  0  0  0  0
  186.3210  177.9480  142.8140 C   0  0  2  0  0  3  0  0  0  0  0  0
  186.0610  177.9560  141.3070 C   0  0  0  0  0  2  0  0  0  0  0  0
  188.0210  176.1580  142.4160 C   0  0  1  0  0  3  0  0  0  0  0  0
  187.2840  177.6120  140.5830 N   0  0  0  0  0  2  0  0  0  0  0  0
  187.6660  176.2430  140.9270 C   0  0  0  0  0  2  0  0  0  0  0  0
  186.7890  176.5550  143.2250 C   0  0  0  0  0  2  0  0  0  0  0  0
  184.8390  178.4270  143.7050 S   0  0  0  0  0  0  0  0  0  0  0  0
  183.6280  178.2370  142.8330 O   0  0  0  0  0  0  0  0  0  0  0  0
  184.9570  179.8940  144.0110 O   0  0  0  0  0  0  0  0  0  0  0  0
  186.7300  178.9260  146.0230 C   0  0  0  0  0  1  0  0  0  0  0  0
  185.5700  177.9850  146.3180 C   0  0  0  0  0  0  0  0  0  0  0  0
  184.6310  177.5970  145.2370 N   0  0  0  0  0  0  0  0  0  0  0  0
  184.2510  178.5880  146.2680 C   0  0  0  0  0  2  0  0  0  0  0  0
  185.7310  176.9270  147.3880 C   0  0  0  0  0  1  0  0  0  0  0  0
  190.8530  176.5350  144.6540 N   0  0  0  0  0  0  0  0  0  0  0  0
  190.6610  175.9020  143.5310 C   0  0  0  0  0  3  0  0  0  0  0  0
  189.1440  175.9530  146.2860 C   0  0  0  0  0  2  0  0  0  0  0  0
  190.4160  176.1830  145.9800 C   0  0  0  0  0  0  0  0  0  0  0  0
  191.4340  176.0900  147.0630 C   0  0  0  0  0  2  0  0  0  0  0  0
  194.1310  177.0210  146.8840 O   0  0  0  0  0  0  0  0  0  0  0  0
  192.5720  175.3050  146.6100 N   0  0  0  0  0  2  0  0  0  0  0  0
  193.8850  175.8560  146.4750 C   0  0  0  0  0  0  0  0  0  0  0  0
  197.4470  174.3890  143.6830 C   0  0  0  0  0  1  0  0  0  0  0  0
  195.4190  173.2080  144.4920 C   0  0  2  0  0  3  0  0  0  0  0  0
  194.5740  173.6850  145.5820 N   0  0  0  0  0  2  0  0  0  0  0  0
  195.4510  175.6320  144.4620 C   0  0  1  0  0  3  0  0  0  0  0  0
  194.9670  175.0690  145.7980 C   0  0  1  0  0  3  0  0  0  0  0  0
  195.9300  174.4110  143.7130 C   0  0  1  0  0  3  0  0  0  0  0  0
  194.3720  176.2840  143.6490 C   0  0  0  0  0  3  0  0  0  0  0  0
  194.3030  176.0910  142.4470 O   0  0  0  0  0  0  0  0  0  0  0  0
  193.1570  172.7110  143.5750 C   0  0  0  0  0  1  0  0  0  0  0  0
  194.6180  172.3060  143.5690 C   0  0  0  0  0  2  0  0  0  0  0  0
  1 20  1  6  0  0  0
  3  2  1  1  0  0  0
  3  1  1  0  0  0  0
  4  2  1  1  0  0  0
  4  3  1  0  0  0  0
  4  1  1  0  0  0  0
  5 10  1  0  0  0  0
  5 11  1  1  0  0  0
  6  5  1  0  0  0  0
  7  9  1  6  0  0  0
  7  3  1  0  0  0  0
  7 10  1  0  0  0  0
  8  9  1  0  0  0  0
  8  6  1  0  0  0  0
 11 13  2  0  0  0  0
 11 16  1  0  0  0  0
 12 11  2  0  0  0  0
 14 15  1  0  0  0  0
 15 18  1  0  0  0  0
 16 17  1  0  0  0  0
 16 15  1  0  0  0  0
 17 15  1  0  0  0  0
 19 22  1  0  0  0  0
 20 19  2  0  0  0  0
 22 21  2  0  0  0  0
 22 23  1  0  0  0  0
 25 23  1  0  0  0  0
 26 25  1  0  0  0  0
 26 24  2  0  0  0  0
 28 36  1  6  0  0  0
 28 29  1  0  0  0  0
 29 31  1  0  0  0  0
 30 33  1  6  0  0  0
 30 31  1  0  0  0  0
 31 26  1  6  0  0  0
 32 27  1  1  0  0  0
 32 30  1  0  0  0  0
 32 28  1  0  0  0  0
 34 33  2  0  0  0  0
 36 35  1  0  0  0  0
M  END
>  <MODEL>
2

>  <REMARK>
 VINA RESULT:      -6.9      1.804      4.026
  Name = 
  10 active torsions:
  status: ('A' for Active; 'I' for Inactive)
    1  A    between atoms: C_1  and  S_25
    2  A    between atoms: C_2  and  C_27
    3  A    between atoms: N_5  and  S_25
    4  A    between atoms: C_6  and  C_19
    5  A    between atoms: C_11  and  C_17
    6  A    between atoms: C_12  and  C_20
    7  A    between atoms: C_14  and  C_29
    8  A    between atoms: C_14  and  N_32
    9  A    between atoms: N_18  and  C_29
   10  A    between atoms: C_33  and  C_34
                            x       y       z     vdW  Elec       q    Type
                         _______ _______ _______ _____ _____    ______ ____

>  <TORSDO>
F 10

$$$$
=
 OpenBabel11072408443D

 36 40  0  0  1  0  0  0  0  0999 V2000
  187.2590  177.6250  147.2420 C   0  0  1  0  0  3  0  0  0  0  0  0
  185.5060  179.3440  147.2060 N   0  0  0  0  0  2  0  0  0  0  0  0
  186.4520  178.5880  146.3690 C   0  0  2  0  0  0  0  0  0  0  0  0
  185.8070  177.9410  147.5220 C   0  0  1  0  0  3  0  0  0  0  0  0
  186.1870  177.3680  142.7140 C   0  0  2  0  0  3  0  0  0  0  0  0
  184.9890  178.2430  142.3410 C   0  0  0  0  0  2  0  0  0  0  0  0
  185.7990  178.0170  145.0980 C   0  0  1  0  0  3  0  0  0  0  0  0
  184.0150  178.2550  143.4310 N   0  0  0  0  0  2  0  0  0  0  0  0
  184.6280  178.8750  144.6050 C   0  0  0  0  0  2  0  0  0  0  0  0
  186.8320  177.9300  143.9780 C   0  0  0  0  0  2  0  0  0  0  0  0
  187.3590  177.3020  141.3570 S   0  0  0  0  0  0  0  0  0  0  0  0
  188.4930  178.2560  141.6080 O   0  0  0  0  0  0  0  0  0  0  0  0
  186.6370  177.7630  140.1220 O   0  0  0  0  0  0  0  0  0  0  0  0
  189.7480  176.1930  142.8600 C   0  0  0  0  0  1  0  0  0  0  0  0
  189.0910  175.2320  141.8790 C   0  0  0  0  0  0  0  0  0  0  0  0
  187.9700  175.6910  141.0230 N   0  0  0  0  0  0  0  0  0  0  0  0
  187.7340  174.8370  142.2080 C   0  0  0  0  0  2  0  0  0  0  0  0
  189.9230  174.1370  141.2490 C   0  0  0  0  0  1  0  0  0  0  0  0
  188.4770  175.6240  146.4170 N   0  0  0  0  0  0  0  0  0  0  0  0
  187.3590  176.2230  146.7180 C   0  0  0  0  0  3  0  0  0  0  0  0
  190.1470  177.3890  146.2780 C   0  0  0  0  0  2  0  0  0  0  0  0
  189.8250  176.1200  146.5070 C   0  0  0  0  0  0  0  0  0  0  0  0
  190.9130  175.1650  146.8570 C   0  0  0  0  0  2  0  0  0  0  0  0
  190.9250  173.3020  144.6890 O   0  0  0  0  0  0  0  0  0  0  0  0
  191.8970  175.1190  145.7870 N   0  0  0  0  0  2  0  0  0  0  0  0
  191.8860  174.1120  144.7700 C   0  0  0  0  0  0  0  0  0  0  0  0
  195.5920  172.5590  142.2230 C   0  0  0  0  0  1  0  0  0  0  0  0
  195.1750  174.7430  143.3270 C   0  0  2  0  0  3  0  0  0  0  0  0
  193.8690  175.1780  143.8140 N   0  0  0  0  0  2  0  0  0  0  0  0
  193.9600  172.7820  144.0730 C   0  0  1  0  0  3  0  0  0  0  0  0
  193.0430  173.9800  143.8260 C   0  0  1  0  0  3  0  0  0  0  0  0
  195.2980  173.2430  143.5450 C   0  0  1  0  0  3  0  0  0  0  0  0
  194.1250  172.4310  145.5220 C   0  0  0  0  0  3  0  0  0  0  0  0
  194.9220  171.5720  145.8620 O   0  0  0  0  0  0  0  0  0  0  0  0
  196.9430  176.4920  143.1910 C   0  0  0  0  0  1  0  0  0  0  0  0
  196.2780  175.4620  144.0830 C   0  0  0  0  0  2  0  0  0  0  0  0
  1 20  1  6  0  0  0
  1  4  1  0  0  0  0
  3  2  1  1  0  0  0
  3  1  1  0  0  0  0
  3  4  1  0  0  0  0
  4  2  1  1  0  0  0
  5 11  1  6  0  0  0
  5 10  1  0  0  0  0
  6  5  1  0  0  0  0
  6  8  1  0  0  0  0
  7 10  1  6  0  0  0
  7  3  1  0  0  0  0
  8  9  1  0  0  0  0
  9  7  1  0  0  0  0
 11 12  2  0  0  0  0
 13 11  2  0  0  0  0
 15 17  1  0  0  0  0
 15 14  1  0  0  0  0
 16 11  1  0  0  0  0
 16 15  1  0  0  0  0
 16 17  1  0  0  0  0
 18 15  1  0  0  0  0
 19 22  1  0  0  0  0
 19 20  2  0  0  0  0
 21 22  2  0  0  0  0
 22 23  1  0  0  0  0
 24 26  2  0  0  0  0
 25 23  1  0  0  0  0
 26 25  1  0  0  0  0
 28 32  1  0  0  0  0
 28 29  1  0  0  0  0
 28 36  1  1  0  0  0
 29 31  1  0  0  0  0
 30 33  1  1  0  0  0
 31 30  1  0  0  0  0
 31 26  1  1  0  0  0
 32 27  1  6  0  0  0
 32 30  1  0  0  0  0
 33 34  2  0  0  0  0
 35 36  1  0  0  0  0
M  END
>  <MODEL>
3

>  <REMARK>
 VINA RESULT:      -6.6      1.540      2.250
  Name = 
  10 active torsions:
  status: ('A' for Active; 'I' for Inactive)
    1  A    between atoms: C_1  and  S_25
    2  A    between atoms: C_2  and  C_27
    3  A    between atoms: N_5  and  S_25
    4  A    between atoms: C_6  and  C_19
    5  A    between atoms: C_11  and  C_17
    6  A    between atoms: C_12  and  C_20
    7  A    between atoms: C_14  and  C_29
    8  A    between atoms: C_14  and  N_32
    9  A    between atoms: N_18  and  C_29
   10  A    between atoms: C_33  and  C_34
                            x       y       z     vdW  Elec       q    Type
                         _______ _______ _______ _____ _____    ______ ____

>  <TORSDO>
F 10

$$$$
=
 OpenBabel11072408443D

 36 40  0  0  1  0  0  0  0  0999 V2000
  190.7470  175.1970  145.0800 C   0  0  1  0  0  3  0  0  0  0  0  0
  191.8270  175.4820  147.2660 N   0  0  0  0  0  2  0  0  0  0  0  0
  191.8380  174.6910  146.0240 C   0  0  2  0  0  0  0  0  0  0  0  0
  191.5250  176.1280  145.9810 C   0  0  1  0  0  3  0  0  0  0  0  0
  195.1120  172.8850  145.0560 C   0  0  2  0  0  3  0  0  0  0  0  0
  196.0520  173.8850  145.7320 C   0  0  0  0  0  2  0  0  0  0  0  0
  193.2530  174.5120  145.4450 C   0  0  1  0  0  3  0  0  0  0  0  0
  195.5910  175.2520  145.4900 N   0  0  0  0  0  2  0  0  0  0  0  0
  194.2820  175.4270  146.1190 C   0  0  0  0  0  2  0  0  0  0  0  0
  193.7080  173.0660  145.6260 C   0  0  0  0  0  2  0  0  0  0  0  0
  195.7050  171.2090  145.2990 S   0  0  0  0  0  0  0  0  0  0  0  0
  194.6850  170.4070  146.0590 O   0  0  0  0  0  0  0  0  0  0  0  0
  196.9440  171.2930  146.1450 O   0  0  0  0  0  0  0  0  0  0  0  0
  193.5960  170.3300  143.3050 C   0  0  0  0  0  1  0  0  0  0  0  0
  195.0380  170.0820  142.8820 C   0  0  0  0  0  0  0  0  0  0  0  0
  196.1510  170.3900  143.8130 N   0  0  0  0  0  0  0  0  0  0  0  0
  195.8370  171.2740  142.6690 C   0  0  0  0  0  2  0  0  0  0  0  0
  195.3430  168.9480  141.9280 C   0  0  0  0  0  1  0  0  0  0  0  0
  190.6940  174.7850  142.6310 N   0  0  0  0  0  0  0  0  0  0  0  0
  191.1840  175.4150  143.6620 C   0  0  0  0  0  3  0  0  0  0  0  0
  189.7170  172.6590  143.3030 C   0  0  0  0  0  2  0  0  0  0  0  0
  189.6660  173.7780  142.5880 C   0  0  0  0  0  0  0  0  0  0  0  0
  188.4990  173.9910  141.6880 C   0  0  0  0  0  2  0  0  0  0  0  0
  187.5270  176.4600  140.6240 O   0  0  0  0  0  0  0  0  0  0  0  0
  187.5290  174.8650  142.3300 N   0  0  0  0  0  2  0  0  0  0  0  0
  187.1410  176.1250  141.7760 C   0  0  0  0  0  0  0  0  0  0  0  0
  185.4850  179.8800  144.1830 C   0  0  0  0  0  1  0  0  0  0  0  0
  185.3100  177.4460  144.6390 C   0  0  2  0  0  3  0  0  0  0  0  0
  185.6050  176.4060  143.6580 N   0  0  0  0  0  2  0  0  0  0  0  0
  187.0720  178.2610  143.1870 C   0  0  1  0  0  3  0  0  0  0  0  0
  186.3130  177.0810  142.5810 C   0  0  1  0  0  3  0  0  0  0  0  0
  186.2710  178.6040  144.4210 C   0  0  1  0  0  3  0  0  0  0  0  0
  188.4710  177.9270  143.6170 C   0  0  0  0  0  3  0  0  0  0  0  0
  188.7650  177.9120  144.8010 O   0  0  0  0  0  0  0  0  0  0  0  0
  185.9360  177.9970  146.9860 C   0  0  0  0  0  1  0  0  0  0  0  0
  185.4810  176.8980  146.0460 C   0  0  0  0  0  2  0  0  0  0  0  0
  1 20  1  6  0  0  0
  1  4  1  0  0  0  0
  1  3  1  0  0  0  0
  3  2  1  1  0  0  0
  4  3  1  0  0  0  0
  4  2  1  1  0  0  0
  5 11  1  1  0  0  0
  5 10  1  0  0  0  0
  5  6  1  0  0  0  0
  7 10  1  1  0  0  0
  7  3  1  0  0  0  0
  7  9  1  0  0  0  0
  8  6  1  0  0  0  0
  8  9  1  0  0  0  0
 11 12  2  0  0  0  0
 11 13  2  0  0  0  0
 15 14  1  0  0  0  0
 15 16  1  0  0  0  0
 16 11  1  0  0  0  0
 17 15  1  0  0  0  0
 17 16  1  0  0  0  0
 18 15  1  0  0  0  0
 19 20  2  0  0  0  0
 22 19  1  0  0  0  0
 22 21  2  0  0  0  0
 23 25  1  0  0  0  0
 23 22  1  0  0  0  0
 24 26  2  0  0  0  0
 26 25  1  0  0  0  0
 28 36  1  1  0  0  0
 29 28  1  0  0  0  0
 30 33  1  1  0  0  0
 30 32  1  0  0  0  0
 31 26  1  1  0  0  0
 31 30  1  0  0  0  0
 31 29  1  0  0  0  0
 32 27  1  6  0  0  0
 32 28  1  0  0  0  0
 33 34  2  0  0  0  0
 36 35  1  0  0  0  0
M  END
>  <MODEL>
4

>  <REMARK>
 VINA RESULT:      -6.6      3.013      8.570
  Name = 
  10 active torsions:
  status: ('A' for Active; 'I' for Inactive)
    1  A    between atoms: C_1  and  S_25
    2  A    between atoms: C_2  and  C_27
    3  A    between atoms: N_5  and  S_25
    4  A    between atoms: C_6  and  C_19
    5  A    between atoms: C_11  and  C_17
    6  A    between atoms: C_12  and  C_20
    7  A    between atoms: C_14  and  C_29
    8  A    between atoms: C_14  and  N_32
    9  A    between atoms: N_18  and  C_29
   10  A    between atoms: C_33  and  C_34
                            x       y       z     vdW  Elec       q    Type
                         _______ _______ _______ _____ _____    ______ ____

>  <TORSDO>
F 10

$$$$
=
 OpenBabel11072408443D

 36 40  0  0  1  0  0  0  0  0999 V2000
  189.8680  173.2100  141.8040 C   0  0  1  0  0  3  0  0  0  0  0  0
  187.4370  172.9110  141.6380 N   0  0  0  0  0  2  0  0  0  0  0  0
  188.4970  173.7880  142.1610 C   0  0  2  0  0  0  0  0  0  0  0  0
  188.6800  173.0940  140.8770 C   0  0  1  0  0  3  0  0  0  0  0  0
  187.0820  177.3550  142.6000 C   0  0  2  0  0  3  0  0  0  0  0  0
  186.5050  177.4720  141.1890 C   0  0  0  0  0  2  0  0  0  0  0  0
  188.2490  175.2740  141.8490 C   0  0  1  0  0  3  0  0  0  0  0  0
  187.4410  176.9150  140.2130 N   0  0  0  0  0  2  0  0  0  0  0  0
  187.6000  175.4850  140.4760 C   0  0  0  0  0  2  0  0  0  0  0  0
  187.3330  175.8810  142.9090 C   0  0  0  0  0  2  0  0  0  0  0  0
  185.9630  178.0900  143.7950 S   0  0  0  0  0  0  0  0  0  0  0  0
  184.5750  177.5430  143.6060 O   0  0  0  0  0  0  0  0  0  0  0  0
  185.9170  179.5650  143.5130 O   0  0  0  0  0  0  0  0  0  0  0  0
  184.0800  178.6980  146.0930 C   0  0  0  0  0  1  0  0  0  0  0  0
  185.4430  178.1520  146.4940 C   0  0  0  0  0  0  0  0  0  0  0  0
  186.4790  177.9010  145.4620 N   0  0  0  0  0  0  0  0  0  0  0  0
  185.7160  176.7900  146.0730 C   0  0  0  0  0  2  0  0  0  0  0  0
  186.0140  178.5110  147.8480 C   0  0  0  0  0  1  0  0  0  0  0  0
  192.0670  173.9080  140.8840 N   0  0  0  0  0  0  0  0  0  0  0  0
  190.8420  174.1930  141.2260 C   0  0  0  0  0  3  0  0  0  0  0  0
  192.7260  171.7400  139.9980 C   0  0  0  0  0  2  0  0  0  0  0  0
  192.7610  172.6500  140.9650 C   0  0  0  0  0  0  0  0  0  0  0  0
  193.5420  172.3460  142.1960 C   0  0  0  0  0  2  0  0  0  0  0  0
  193.0660  172.2220  145.0120 O   0  0  0  0  0  0  0  0  0  0  0  0
  193.5090  173.4860  143.1000 N   0  0  0  0  0  2  0  0  0  0  0  0
  193.1920  173.3600  144.4890 C   0  0  0  0  0  0  0  0  0  0  0  0
  191.5810  176.5430  147.6370 C   0  0  0  0  0  1  0  0  0  0  0  0
  192.3000  176.8070  145.2760 C   0  0  2  0  0  3  0  0  0  0  0  0
  193.0530  175.8020  144.5320 N   0  0  0  0  0  2  0  0  0  0  0  0
  191.6270  174.6200  146.0770 C   0  0  1  0  0  3  0  0  0  0  0  0
  192.9560  174.5840  145.3220 C   0  0  1  0  0  3  0  0  0  0  0  0
  191.3330  176.0950  146.2090 C   0  0  1  0  0  3  0  0  0  0  0  0
  190.4900  173.9810  145.3360 C   0  0  0  0  0  3  0  0  0  0  0  0
  189.3460  174.3690  145.5090 O   0  0  0  0  0  0  0  0  0  0  0  0
  190.0630  177.7440  144.7110 C   0  0  0  0  0  1  0  0  0  0  0  0
  191.5260  177.6940  144.3160 C   0  0  0  0  0  2  0  0  0  0  0  0
  1 20  1  6  0  0  0
  1  3  1  0  0  0  0
  3  2  1  1  0  0  0
  4  2  1  1  0  0  0
  4  1  1  0  0  0  0
  4  3  1  0  0  0  0
  5 10  1  0  0  0  0
  5 11  1  1  0  0  0
  6  5  1  0  0  0  0
  7  9  1  6  0  0  0
  7  3  1  0  0  0  0
  7 10  1  0  0  0  0
  8  9  1  0  0  0  0
  8  6  1  0  0  0  0
 11 16  1  0  0  0  0
 12 11  2  0  0  0  0
 13 11  2  0  0  0  0
 14 15  1  0  0  0  0
 15 18  1  0  0  0  0
 16 17  1  0  0  0  0
 16 15  1  0  0  0  0
 17 15  1  0  0  0  0
 19 22  1  0  0  0  0
 19 20  2  0  0  0  0
 21 22  2  0  0  0  0
 22 23  1  0  0  0  0
 23 25  1  0  0  0  0
 25 26  1  0  0  0  0
 26 24  2  0  0  0  0
 28 36  1  6  0  0  0
 28 32  1  0  0  0  0
 29 28  1  0  0  0  0
 29 31  1  0  0  0  0
 30 33  1  6  0  0  0
 30 32  1  0  0  0  0
 31 26  1  6  0  0  0
 31 30  1  0  0  0  0
 32 27  1  1  0  0  0
 33 34  2  0  0  0  0
 36 35  1  0  0  0  0
M  END
>  <MODEL>
5

>  <REMARK>
 VINA RESULT:      -6.5      2.414      5.666
  Name = 
  10 active torsions:
  status: ('A' for Active; 'I' for Inactive)
    1  A    between atoms: C_1  and  S_25
    2  A    between atoms: C_2  and  C_27
    3  A    between atoms: N_5  and  S_25
    4  A    between atoms: C_6  and  C_19
    5  A    between atoms: C_11  and  C_17
    6  A    between atoms: C_12  and  C_20
    7  A    between atoms: C_14  and  C_29
    8  A    between atoms: C_14  and  N_32
    9  A    between atoms: N_18  and  C_29
   10  A    between atoms: C_33  and  C_34
                            x       y       z     vdW  Elec       q    Type
                         _______ _______ _______ _____ _____    ______ ____

>  <TORSDO>
F 10

$$$$
=
 OpenBabel11072408443D

 36 40  0  0  1  0  0  0  0  0999 V2000
  185.1420  177.8140  144.0980 C   0  0  1  0  0  3  0  0  0  0  0  0
  184.9220  176.8010  146.3240 N   0  0  0  0  0  2  0  0  0  0  0  0
  185.8440  177.0130  145.1960 C   0  0  2  0  0  0  0  0  0  0  0  0
  184.8780  178.0590  145.5660 C   0  0  1  0  0  3  0  0  0  0  0  0
  189.6850  176.9900  145.6030 C   0  0  2  0  0  3  0  0  0  0  0  0
  189.6840  177.1430  147.1250 C   0  0  0  0  0  2  0  0  0  0  0  0
  187.2350  177.4930  145.6460 C   0  0  1  0  0  3  0  0  0  0  0  0
  188.6730  178.1170  147.5340 N   0  0  0  0  0  2  0  0  0  0  0  0
  187.3520  177.6050  147.1710 C   0  0  0  0  0  2  0  0  0  0  0  0
  188.3040  176.5190  145.1560 C   0  0  0  0  0  2  0  0  0  0  0  0
  190.9640  175.8400  145.0920 S   0  0  0  0  0  0  0  0  0  0  0  0
  191.0470  175.7940  143.5910 O   0  0  0  0  0  0  0  0  0  0  0  0
  190.5530  174.4750  145.5700 O   0  0  0  0  0  0  0  0  0  0  0  0
  193.4310  174.3360  144.1710 C   0  0  0  0  0  1  0  0  0  0  0  0
  193.6810  175.4320  145.1980 C   0  0  0  0  0  0  0  0  0  0  0  0
  192.5400  176.1750  145.7870 N   0  0  0  0  0  0  0  0  0  0  0  0
  193.4000  176.7830  144.7470 C   0  0  0  0  0  2  0  0  0  0  0  0
  194.8720  175.3190  146.1240 C   0  0  0  0  0  1  0  0  0  0  0  0
  186.6440  178.9180  142.4580 N   0  0  0  0  0  0  0  0  0  0  0  0
  185.9300  178.9640  143.5460 C   0  0  0  0  0  3  0  0  0  0  0  0
  186.0620  177.5800  140.5100 C   0  0  0  0  0  2  0  0  0  0  0  0
  186.8490  177.8160  141.5540 C   0  0  0  0  0  0  0  0  0  0  0  0
  187.9860  176.8880  141.8080 C   0  0  0  0  0  2  0  0  0  0  0  0
  188.2530  174.0940  142.3520 O   0  0  0  0  0  0  0  0  0  0  0  0
  187.9960  175.8300  140.8110 N   0  0  0  0  0  2  0  0  0  0  0  0
  188.2080  174.4550  141.1460 C   0  0  0  0  0  0  0  0  0  0  0  0
  189.8280  170.8910  138.4430 C   0  0  0  0  0  1  0  0  0  0  0  0
  188.9810  173.1420  137.8330 C   0  0  2  0  0  3  0  0  0  0  0  0
  188.2380  174.0120  138.7410 N   0  0  0  0  0  2  0  0  0  0  0  0
  189.7910  172.7460  140.0840 C   0  0  1  0  0  3  0  0  0  0  0  0
  188.4290  173.4400  140.0650 C   0  0  1  0  0  3  0  0  0  0  0  0
  190.0250  172.3830  138.6360 C   0  0  1  0  0  3  0  0  0  0  0  0
  190.9180  173.6310  140.5300 C   0  0  0  0  0  3  0  0  0  0  0  0
  192.0750  173.2650  140.4070 O   0  0  0  0  0  0  0  0  0  0  0  0
  188.6590  174.8700  136.0690 C   0  0  0  0  0  1  0  0  0  0  0  0
  189.6650  173.9730  136.7610 C   0  0  0  0  0  2  0  0  0  0  0  0
  1 20  1  1  0  0  0
  1  3  1  0  0  0  0
  1  4  1  0  0  0  0
  3  4  1  0  0  0  0
  3  7  1  0  0  0  0
  3  2  1  1  0  0  0
  4  2  1  6  0  0  0
  5 11  1  1  0  0  0
  5  6  1  0  0  0  0
  6  8  1  0  0  0  0
  7 10  1  1  0  0  0
  7  9  1  0  0  0  0
  9  8  1  0  0  0  0
 10  5  1  0  0  0  0
 11 13  2  0  0  0  0
 11 16  1  0  0  0  0
 12 11  2  0  0  0  0
 14 15  1  0  0  0  0
 15 16  1  0  0  0  0
 15 18  1  0  0  0  0
 17 15  1  0  0  0  0
 17 16  1  0  0  0  0
 19 20  2  0  0  0  0
 21 22  2  0  0  0  0
 22 23  1  0  0  0  0
 22 19  1  0  0  0  0
 25 26  1  0  0  0  0
 25 23  1  0  0  0  0
 26 24  2  0  0  0  0
 28 36  1  6  0  0  0
 28 32  1  0  0  0  0
 28 29  1  0  0  0  0
 29 31  1  0  0  0  0
 30 33  1  6  0  0  0
 31 30  1  0  0  0  0
 31 26  1  1  0  0  0
 32 27  1  1  0  0  0
 32 30  1  0  0  0  0
 34 33  2  0  0  0  0
 35 36  1  0  0  0  0
M  END
>  <MODEL>
6

>  <REMARK>
 VINA RESULT:      -6.5      2.489      6.123
  Name = 
  10 active torsions:
  status: ('A' for Active; 'I' for Inactive)
    1  A    between atoms: C_1  and  S_25
    2  A    between atoms: C_2  and  C_27
    3  A    between atoms: N_5  and  S_25
    4  A    between atoms: C_6  and  C_19
    5  A    between atoms: C_11  and  C_17
    6  A    between atoms: C_12  and  C_20
    7  A    between atoms: C_14  and  C_29
    8  A    between atoms: C_14  and  N_32
    9  A    between atoms: N_18  and  C_29
   10  A    between atoms: C_33  and  C_34
                            x       y       z     vdW  Elec       q    Type
                         _______ _______ _______ _____ _____    ______ ____

>  <TORSDO>
F 10

$$$$
=
 OpenBabel11072408443D

 36 40  0  0  1  0  0  0  0  0999 V2000
  189.0220  173.5910  142.9130 C   0  0  1  0  0  3  0  0  0  0  0  0
  189.0900  174.1110  140.5150 N   0  0  0  0  0  2  0  0  0  0  0  0
  189.8480  174.1920  141.7740 C   0  0  2  0  0  0  0  0  0  0  0  0
  188.9800  173.0350  141.5080 C   0  0  1  0  0  3  0  0  0  0  0  0
  193.6890  174.2390  142.1680 C   0  0  2  0  0  3  0  0  0  0  0  0
  194.0040  174.0740  140.6800 C   0  0  0  0  0  2  0  0  0  0  0  0
  191.3040  173.7190  141.6250 C   0  0  1  0  0  3  0  0  0  0  0  0
  193.1030  173.0890  140.0810 N   0  0  0  0  0  2  0  0  0  0  0  0
  191.7330  173.5950  140.1590 C   0  0  0  0  0  2  0  0  0  0  0  0
  192.2440  174.7030  142.3170 C   0  0  0  0  0  2  0  0  0  0  0  0
  194.8300  175.4010  142.9210 S   0  0  0  0  0  0  0  0  0  0  0  0
  194.0780  176.3720  143.7900 O   0  0  0  0  0  0  0  0  0  0  0  0
  195.4690  176.1830  141.8080 O   0  0  0  0  0  0  0  0  0  0  0  0
  194.2590  173.8350  145.4550 C   0  0  0  0  0  1  0  0  0  0  0  0
  195.7130  173.8360  145.0020 C   0  0  0  0  0  0  0  0  0  0  0  0
  196.1270  174.6400  143.8260 N   0  0  0  0  0  0  0  0  0  0  0  0
  195.9710  173.1720  143.7370 C   0  0  0  0  0  2  0  0  0  0  0  0
  196.8080  173.6630  146.0310 C   0  0  0  0  0  1  0  0  0  0  0  0
  190.1620  172.8950  145.0070 N   0  0  0  0  0  0  0  0  0  0  0  0
  189.7610  172.6300  143.7960 C   0  0  0  0  0  3  0  0  0  0  0  0
  189.1860  174.2110  146.8060 C   0  0  0  0  0  2  0  0  0  0  0  0
  190.0080  174.1080  145.7680 C   0  0  0  0  0  0  0  0  0  0  0  0
  190.7940  175.3060  145.3640 C   0  0  0  0  0  2  0  0  0  0  0  0
  189.6280  177.6790  146.4510 O   0  0  0  0  0  0  0  0  0  0  0  0
  189.9430  176.2380  144.6410 N   0  0  0  0  0  2  0  0  0  0  0  0
  189.3310  177.3700  145.2670 C   0  0  0  0  0  0  0  0  0  0  0  0
  185.4080  179.7330  143.9790 C   0  0  0  0  0  1  0  0  0  0  0  0
  186.8800  178.2000  142.6970 C   0  0  2  0  0  3  0  0  0  0  0  0
  188.2120  177.7890  143.1330 N   0  0  0  0  0  2  0  0  0  0  0  0
  186.8820  178.1020  145.1200 C   0  0  1  0  0  3  0  0  0  0  0  0
  188.2930  178.1660  144.5350 C   0  0  1  0  0  3  0  0  0  0  0  0
  185.9900  178.3330  143.9230 C   0  0  1  0  0  3  0  0  0  0  0  0
  186.5300  176.7700  145.7140 C   0  0  0  0  0  3  0  0  0  0  0  0
  186.2500  176.6770  146.8970 O   0  0  0  0  0  0  0  0  0  0  0  0
  186.0410  177.7750  140.3910 C   0  0  0  0  0  1  0  0  0  0  0  0
  186.2980  177.1620  141.7530 C   0  0  0  0  0  2  0  0  0  0  0  0
  1 20  1  1  0  0  0
  3  2  1  6  0  0  0
  3  1  1  0  0  0  0
  4  2  1  6  0  0  0
  4  3  1  0  0  0  0
  4  1  1  0  0  0  0
  5 10  1  0  0  0  0
  5 11  1  6  0  0  0
  6  5  1  0  0  0  0
  7  9  1  6  0  0  0
  7  3  1  0  0  0  0
  7 10  1  0  0  0  0
  8  9  1  0  0  0  0
  8  6  1  0  0  0  0
 11 12  2  0  0  0  0
 11 16  1  0  0  0  0
 13 11  2  0  0  0  0
 15 14  1  0  0  0  0
 15 18  1  0  0  0  0
 16 15  1  0  0  0  0
 17 16  1  0  0  0  0
 17 15  1  0  0  0  0
 19 22  1  0  0  0  0
 20 19  2  0  0  0  0
 22 21  2  0  0  0  0
 23 22  1  0  0  0  0
 25 26  1  0  0  0  0
 25 23  1  0  0  0  0
 26 24  2  0  0  0  0
 28 36  1  6  0  0  0
 28 29  1  0  0  0  0
 28 32  1  0  0  0  0
 29 31  1  0  0  0  0
 30 33  1  6  0  0  0
 31 30  1  0  0  0  0
 31 26  1  1  0  0  0
 32 27  1  1  0  0  0
 32 30  1  0  0  0  0
 33 34  2  0  0  0  0
 35 36  1  0  0  0  0
M  END
>  <MODEL>
7

>  <REMARK>
 VINA RESULT:      -6.5      2.777      7.591
  Name = 
  10 active torsions:
  status: ('A' for Active; 'I' for Inactive)
    1  A    between atoms: C_1  and  S_25
    2  A    between atoms: C_2  and  C_27
    3  A    between atoms: N_5  and  S_25
    4  A    between atoms: C_6  and  C_19
    5  A    between atoms: C_11  and  C_17
    6  A    between atoms: C_12  and  C_20
    7  A    between atoms: C_14  and  C_29
    8  A    between atoms: C_14  and  N_32
    9  A    between atoms: N_18  and  C_29
   10  A    between atoms: C_33  and  C_34
                            x       y       z     vdW  Elec       q    Type
                         _______ _______ _______ _____ _____    ______ ____

>  <TORSDO>
F 10

$$$$
=
 OpenBabel11072408443D

 36 40  0  0  1  0  0  0  0  0999 V2000
  190.7330  171.1410  141.7220 C   0  0  1  0  0  3  0  0  0  0  0  0
  192.7640  169.8050  141.3770 N   0  0  0  0  0  2  0  0  0  0  0  0
  192.2460  171.0670  141.9310 C   0  0  2  0  0  0  0  0  0  0  0  0
  191.4420  169.8390  142.0170 C   0  0  1  0  0  3  0  0  0  0  0  0
  194.1710  172.9260  144.7160 C   0  0  2  0  0  3  0  0  0  0  0  0
  194.9510  171.7080  145.2120 C   0  0  0  0  0  2  0  0  0  0  0  0
  192.7840  171.3630  143.3420 C   0  0  1  0  0  3  0  0  0  0  0  0
  194.0790  170.5350  145.2550 N   0  0  0  0  0  2  0  0  0  0  0  0
  193.6450  170.2200  143.8940 C   0  0  0  0  0  2  0  0  0  0  0  0
  193.6330  172.6320  143.3190 C   0  0  0  0  0  2  0  0  0  0  0  0
  195.2220  174.3810  144.7170 S   0  0  0  0  0  0  0  0  0  0  0  0
  196.3780  174.1840  143.7760 O   0  0  0  0  0  0  0  0  0  0  0  0
  195.7800  174.5270  146.1050 O   0  0  0  0  0  0  0  0  0  0  0  0
  192.8050  175.2470  146.3320 C   0  0  0  0  0  1  0  0  0  0  0  0
  193.2560  176.2270  145.2570 C   0  0  0  0  0  0  0  0  0  0  0  0
  194.3720  175.8720  144.3460 N   0  0  0  0  0  0  0  0  0  0  0  0
  194.5640  176.8210  145.4650 C   0  0  0  0  0  2  0  0  0  0  0  0
  192.2410  177.1590  144.6340 C   0  0  0  0  0  1  0  0  0  0  0  0
  189.4790  172.7500  143.1390 N   0  0  0  0  0  0  0  0  0  0  0  0
  189.9430  171.5500  142.9300 C   0  0  0  0  0  3  0  0  0  0  0  0
  190.6770  174.6960  142.3020 C   0  0  0  0  0  2  0  0  0  0  0  0
  189.5960  173.9240  142.3150 C   0  0  0  0  0  0  0  0  0  0  0  0
  188.4440  174.3020  141.4480 C   0  0  0  0  0  2  0  0  0  0  0  0
  187.3750  176.8110  140.5940 O   0  0  0  0  0  0  0  0  0  0  0  0
  187.5050  175.1200  142.1990 N   0  0  0  0  0  2  0  0  0  0  0  0
  187.0650  176.4040  141.7450 C   0  0  0  0  0  0  0  0  0  0  0  0
  185.5530  179.9400  144.5460 C   0  0  0  0  0  1  0  0  0  0  0  0
  185.3050  177.4790  144.7520 C   0  0  2  0  0  3  0  0  0  0  0  0
  185.5570  176.5360  143.6660 N   0  0  0  0  0  2  0  0  0  0  0  0
  187.0790  178.3840  143.3690 C   0  0  1  0  0  3  0  0  0  0  0  0
  186.2760  177.2960  142.6540 C   0  0  1  0  0  3  0  0  0  0  0  0
  186.3010  178.6230  144.6410 C   0  0  1  0  0  3  0  0  0  0  0  0
  188.4700  177.9650  143.7440 C   0  0  0  0  0  3  0  0  0  0  0  0
  188.6940  177.4830  144.8420 O   0  0  0  0  0  0  0  0  0  0  0  0
  186.0700  177.7380  147.1080 C   0  0  0  0  0  1  0  0  0  0  0  0
  185.4730  176.7840  146.0920 C   0  0  0  0  0  2  0  0  0  0  0  0
  1  3  1  0  0  0  0
  1  4  1  0  0  0  0
  1 20  1  1  0  0  0
  3  2  1  6  0  0  0
  3  4  1  0  0  0  0
  3  7  1  0  0  0  0
  4  2  1  6  0  0  0
  5 11  1  6  0  0  0
  5  6  1  0  0  0  0
  6  8  1  0  0  0  0
  7 10  1  6  0  0  0
  7  9  1  0  0  0  0
  9  8  1  0  0  0  0
 10  5  1  0  0  0  0
 11 13  2  0  0  0  0
 12 11  2  0  0  0  0
 15 17  1  0  0  0  0
 15 14  1  0  0  0  0
 16 11  1  0  0  0  0
 16 15  1  0  0  0  0
 16 17  1  0  0  0  0
 18 15  1  0  0  0  0
 20 19  2  0  0  0  0
 21 22  2  0  0  0  0
 22 19  1  0  0  0  0
 23 25  1  0  0  0  0
 23 22  1  0  0  0  0
 24 26  2  0  0  0  0
 26 25  1  0  0  0  0
 28 36  1  1  0  0  0
 29 28  1  0  0  0  0
 30 33  1  1  0  0  0
 30 32  1  0  0  0  0
 31 26  1  1  0  0  0
 31 30  1  0  0  0  0
 31 29  1  0  0  0  0
 32 27  1  6  0  0  0
 32 28  1  0  0  0  0
 33 34  2  0  0  0  0
 36 35  1  0  0  0  0
M  END
>  <MODEL>
8

>  <REMARK>
 VINA RESULT:      -6.4      2.600      8.818
  Name = 
  10 active torsions:
  status: ('A' for Active; 'I' for Inactive)
    1  A    between atoms: C_1  and  S_25
    2  A    between atoms: C_2  and  C_27
    3  A    between atoms: N_5  and  S_25
    4  A    between atoms: C_6  and  C_19
    5  A    between atoms: C_11  and  C_17
    6  A    between atoms: C_12  and  C_20
    7  A    between atoms: C_14  and  C_29
    8  A    between atoms: C_14  and  N_32
    9  A    between atoms: N_18  and  C_29
   10  A    between atoms: C_33  and  C_34
                            x       y       z     vdW  Elec       q    Type
                         _______ _______ _______ _____ _____    ______ ____

>  <TORSDO>
F 10

$$$$
=
 OpenBabel11072408443D

 36 40  0  0  1  0  0  0  0  0999 V2000
  188.5650  174.4700  139.7650 C   0  0  1  0  0  3  0  0  0  0  0  0
  189.8600  172.7070  138.6510 N   0  0  0  0  0  2  0  0  0  0  0  0
  189.8780  173.6860  139.7500 C   0  0  2  0  0  0  0  0  0  0  0  0
  188.6250  173.0080  139.3870 C   0  0  1  0  0  3  0  0  0  0  0  0
  192.3260  172.7710  142.5940 C   0  0  2  0  0  3  0  0  0  0  0  0
  192.0200  171.2730  142.5920 C   0  0  0  0  0  2  0  0  0  0  0  0
  190.3600  173.0800  141.0800 C   0  0  1  0  0  3  0  0  0  0  0  0
  190.5820  171.0530  142.4430 N   0  0  0  0  0  2  0  0  0  0  0  0
  190.1590  171.5610  141.1390 C   0  0  0  0  0  2  0  0  0  0  0  0
  191.8450  173.3740  141.2770 C   0  0  0  0  0  2  0  0  0  0  0  0
  194.0830  173.0480  142.8340 S   0  0  0  0  0  0  0  0  0  0  0  0
  194.5730  174.1050  141.8830 O   0  0  0  0  0  0  0  0  0  0  0  0
  194.7870  171.7640  142.4960 O   0  0  0  0  0  0  0  0  0  0  0  0
  193.4520  175.7800  143.9910 C   0  0  0  0  0  1  0  0  0  0  0  0
  194.0860  174.7920  144.9610 C   0  0  0  0  0  0  0  0  0  0  0  0
  194.5190  173.4550  144.4850 N   0  0  0  0  0  0  0  0  0  0  0  0
  193.2800  173.6270  145.2760 C   0  0  0  0  0  2  0  0  0  0  0  0
  194.9050  175.3160  146.1190 C   0  0  0  0  0  1  0  0  0  0  0  0
  187.4320  175.7060  141.5980 N   0  0  0  0  0  0  0  0  0  0  0  0
  187.9160  174.5980  141.1110 C   0  0  0  0  0  3  0  0  0  0  0  0
  186.5550  177.3480  140.0300 C   0  0  0  0  0  2  0  0  0  0  0  0
  187.3960  177.0170  141.0040 C   0  0  0  0  0  0  0  0  0  0  0  0
  188.3570  178.0460  141.4910 C   0  0  0  0  0  2  0  0  0  0  0  0
  190.8520  177.5200  142.7830 O   0  0  0  0  0  0  0  0  0  0  0  0
  188.5530  177.9030  142.9250 N   0  0  0  0  0  2  0  0  0  0  0  0
  189.8180  177.5660  143.5010 C   0  0  0  0  0  0  0  0  0  0  0  0
  190.6240  175.4300  147.6750 C   0  0  0  0  0  1  0  0  0  0  0  0
  188.7030  176.7890  146.8850 C   0  0  2  0  0  3  0  0  0  0  0  0
  188.7300  177.6280  145.6910 N   0  0  0  0  0  2  0  0  0  0  0  0
  190.1660  175.7390  145.2610 C   0  0  1  0  0  3  0  0  0  0  0  0
  189.9160  177.2160  144.9560 C   0  0  1  0  0  3  0  0  0  0  0  0
  189.5390  175.5450  146.6220 C   0  0  1  0  0  3  0  0  0  0  0  0
  189.4980  174.7980  144.3020 C   0  0  0  0  0  3  0  0  0  0  0  0
  189.5670  173.5920  144.4710 O   0  0  0  0  0  0  0  0  0  0  0  0
  186.3230  177.5210  146.8860 C   0  0  0  0  0  1  0  0  0  0  0  0
  187.2740  176.3850  147.2050 C   0  0  0  0  0  2  0  0  0  0  0  0
  1 20  1  1  0  0  0
  3  2  1  6  0  0  0
  3  1  1  0  0  0  0
  3  7  1  0  0  0  0
  4  2  1  6  0  0  0
  4  3  1  0  0  0  0
  4  1  1  0  0  0  0
  5 11  1  6  0  0  0
  6  5  1  0  0  0  0
  7  9  1  6  0  0  0
  7 10  1  0  0  0  0
  8  6  1  0  0  0  0
  9  8  1  0  0  0  0
 10  5  1  0  0  0  0
 11 16  1  0  0  0  0
 12 11  2  0  0  0  0
 13 11  2  0  0  0  0
 14 15  1  0  0  0  0
 15 17  1  0  0  0  0
 15 18  1  0  0  0  0
 16 15  1  0  0  0  0
 16 17  1  0  0  0  0
 20 19  2  0  0  0  0
 21 22  2  0  0  0  0
 22 23  1  0  0  0  0
 22 19  1  0  0  0  0
 23 25  1  0  0  0  0
 24 26  2  0  0  0  0
 25 26  1  0  0  0  0
 28 36  1  6  0  0  0
 29 28  1  0  0  0  0
 30 33  1  6  0  0  0
 30 32  1  0  0  0  0
 31 26  1  6  0  0  0
 31 30  1  0  0  0  0
 31 29  1  0  0  0  0
 32 28  1  0  0  0  0
 32 27  1  1  0  0  0
 33 34  2  0  0  0  0
 35 36  1  0  0  0  0
M  END
>  <MODEL>
9

>  <REMARK>
 VINA RESULT:      -6.4      2.601      7.280
  Name = 
  10 active torsions:
  status: ('A' for Active; 'I' for Inactive)
    1  A    between atoms: C_1  and  S_25
    2  A    between atoms: C_2  and  C_27
    3  A    between atoms: N_5  and  S_25
    4  A    between atoms: C_6  and  C_19
    5  A    between atoms: C_11  and  C_17
    6  A    between atoms: C_12  and  C_20
    7  A    between atoms: C_14  and  C_29
    8  A    between atoms: C_14  and  N_32
    9  A    between atoms: N_18  and  C_29
   10  A    between atoms: C_33  and  C_34
                            x       y       z     vdW  Elec       q    Type
                         _______ _______ _______ _____ _____    ______ ____

>  <TORSDO>
F 10

$$$$
