=
 OpenBabel11072408323D

 26 27  0  0  1  0  0  0  0  0999 V2000
  189.6170  174.7190  146.4040 C   0  0  1  0  0  3  0  0  0  0  0  0
  189.4450  173.2580  140.8460 N   0  0  0  0  0  1  0  0  0  0  0  0
  187.0750  177.6490  146.8990 C   0  0  1  0  0  3  0  0  0  0  0  0
  189.4750  173.6650  142.2090 C   0  0  0  0  0  0  0  0  0  0  0  0
  186.0450  177.5450  140.9360 C   0  0  0  0  0  1  0  0  0  0  0  0
  186.2510  177.4010  144.5350 C   0  0  0  0  0  2  0  0  0  0  0  0
  188.5040  175.5660  146.8340 N   0  0  0  0  0  2  0  0  0  0  0  0
  188.8840  175.9410  141.6850 N   0  0  0  0  0  0  0  0  0  0  0  0
  189.7550  172.7960  143.1370 N   0  0  0  0  0  0  0  0  0  0  0  0
  186.7390  177.2790  142.2550 C   0  0  2  0  0  3  0  0  0  0  0  0
  189.2480  175.4040  143.9720 N   0  0  0  0  0  2  0  0  0  0  0  0
  189.1910  175.0590  142.5850 C   0  0  0  0  0  0  0  0  0  0  0  0
  186.1710  178.1350  143.2830 N   0  0  0  0  0  2  0  0  0  0  0  0
  188.5170  177.6260  142.0840 S   0  0  0  0  0  0  0  0  0  0  0  0
  189.5480  174.3920  144.9420 C   0  0  0  0  0  0  0  0  0  0  0  0
  189.7980  173.1410  144.5350 C   0  0  0  0  0  3  0  0  0  0  0  0
  188.3550  176.9610  146.5370 C   0  0  0  0  0  0  0  0  0  0  0  0
  187.3390  178.6080  148.0500 C   0  0  0  0  0  1  0  0  0  0  0  0
  189.2840  177.6060  145.9800 O   0  0  0  0  0  0  0  0  0  0  0  0
  186.4530  178.3700  145.6920 C   0  0  1  0  0  3  0  0  0  0  0  0
  184.1420  177.9020  146.5020 C   0  0  0  0  0  1  0  0  0  0  0  0
  185.1030  178.9830  146.0480 C   0  0  0  0  0  2  0  0  0  0  0  0
  191.8820  175.4170  146.0120 O   0  0  0  0  0  0  0  0  0  0  0  0
  190.9510  175.2570  146.8450 C   0  0  0  0  0  0  0  0  0  0  0  0
  191.1620  175.6170  148.1750 O   0  0  0  0  0  0  0  0  0  0  0  0
  191.3860  176.8910  148.5190 O   0  0  0  0  0  1  0  0  0  0  0  0
  1  7  1  0  0  0  0
  1 24  1  6  0  0  0
  2  4  1  0  0  0  0
  3 18  1  1  0  0  0
  4 12  1  0  0  0  0
  4  9  2  0  0  0  0
  6 20  1  0  0  0  0
  8 14  1  0  0  0  0
  8 12  2  0  0  0  0
  9 16  1  0  0  0  0
 10  5  1  6  0  0  0
 10 13  1  0  0  0  0
 11 15  1  0  0  0  0
 12 11  1  0  0  0  0
 13  6  1  0  0  0  0
 14 10  1  0  0  0  0
 15  1  1  0  0  0  0
 16 15  2  0  0  0  0
 17  7  1  0  0  0  0
 17  3  1  0  0  0  0
 19 17  2  0  0  0  0
 20 22  1  1  0  0  0
 20  3  1  0  0  0  0
 22 21  1  0  0  0  0
 23 24  2  0  0  0  0
 24 25  1  0  0  0  0
 25 26  1  0  0  0  0
M  END
>  <MODEL>
1

>  <REMARK>
 VINA RESULT:      -7.2      0.000      0.000
  Name = 
  3 active torsions:
  status: ('A' for Active; 'I' for Inactive)
    1  A    between atoms: C_1  and  C_16
    2  A    between atoms: O_4  and  C_16
    3  A    between atoms: C_9  and  C_26
                            x       y       z     vdW  Elec       q    Type
                         _______ _______ _______ _____ _____    ______ ____

>  <TORSDO>
F 3

$$$$
=
 OpenBabel11072408323D

 26 27  0  0  1  0  0  0  0  0999 V2000
  187.6560  177.7980  145.4170 C   0  0  1  0  0  3  0  0  0  0  0  0
  186.9330  176.8580  139.7910 N   0  0  0  0  0  1  0  0  0  0  0  0
  190.9200  175.9270  146.4820 C   0  0  1  0  0  3  0  0  0  0  0  0
  187.1350  177.0480  141.1870 C   0  0  0  0  0  0  0  0  0  0  0  0
  191.3450  173.7940  140.8350 C   0  0  0  0  0  1  0  0  0  0  0  0
  191.4320  175.3510  144.0880 C   0  0  0  0  0  2  0  0  0  0  0  0
  188.9880  177.4530  145.9140 N   0  0  0  0  0  2  0  0  0  0  0  0
  188.2610  174.9340  141.4500 N   0  0  0  0  0  0  0  0  0  0  0  0
  186.7190  178.1410  141.7570 N   0  0  0  0  0  0  0  0  0  0  0  0
  190.7270  174.4250  142.0640 C   0  0  2  0  0  3  0  0  0  0  0  0
  187.9740  176.2720  143.3950 N   0  0  0  0  0  2  0  0  0  0  0  0
  187.8120  176.0220  141.9950 C   0  0  0  0  0  0  0  0  0  0  0  0
  191.5920  174.2040  143.2100 N   0  0  0  0  0  2  0  0  0  0  0  0
  189.0980  173.6770  142.3730 S   0  0  0  0  0  0  0  0  0  0  0  0
  187.5040  177.5060  143.9540 C   0  0  0  0  0  0  0  0  0  0  0  0
  186.8950  178.3980  143.1640 C   0  0  0  0  0  3  0  0  0  0  0  0
  189.4760  176.1240  146.1380 C   0  0  0  0  0  0  0  0  0  0  0  0
  191.0250  175.4900  147.9360 C   0  0  0  0  0  1  0  0  0  0  0  0
  188.7050  175.1290  146.0490 O   0  0  0  0  0  0  0  0  0  0  0  0
  191.6010  174.9220  145.5390 C   0  0  1  0  0  3  0  0  0  0  0  0
  193.7910  176.1120  145.5250 C   0  0  0  0  0  1  0  0  0  0  0  0
  193.0910  174.8040  145.8360 C   0  0  0  0  0  2  0  0  0  0  0  0
  185.6700  176.4900  145.7600 O   0  0  0  0  0  0  0  0  0  0  0  0
  186.5580  177.2230  146.2700 C   0  0  0  0  0  0  0  0  0  0  0  0
  186.5310  177.4670  147.6420 O   0  0  0  0  0  0  0  0  0  0  0  0
  186.7050  178.7030  148.1280 O   0  0  0  0  0  1  0  0  0  0  0  0
  1  7  1  0  0  0  0
  1 24  1  1  0  0  0
  2  4  1  0  0  0  0
  3 18  1  1  0  0  0
  4  9  2  0  0  0  0
  4 12  1  0  0  0  0
  6 20  1  0  0  0  0
  7 17  1  0  0  0  0
  8 12  2  0  0  0  0
  8 14  1  0  0  0  0
  9 16  1  0  0  0  0
 10  5  1  6  0  0  0
 10 14  1  0  0  0  0
 10 13  1  0  0  0  0
 11 15  1  0  0  0  0
 12 11  1  0  0  0  0
 13  6  1  0  0  0  0
 15  1  1  0  0  0  0
 16 15  2  0  0  0  0
 17  3  1  0  0  0  0
 19 17  2  0  0  0  0
 20 22  1  1  0  0  0
 20  3  1  0  0  0  0
 21 22  1  0  0  0  0
 23 24  2  0  0  0  0
 24 25  1  0  0  0  0
 25 26  1  0  0  0  0
M  END
>  <MODEL>
2

>  <REMARK>
 VINA RESULT:      -6.8      2.243      5.174
  Name = 
  3 active torsions:
  status: ('A' for Active; 'I' for Inactive)
    1  A    between atoms: C_1  and  C_16
    2  A    between atoms: O_4  and  C_16
    3  A    between atoms: C_9  and  C_26
                            x       y       z     vdW  Elec       q    Type
                         _______ _______ _______ _____ _____    ______ ____

>  <TORSDO>
F 3

$$$$
=
 OpenBabel11072408323D

 26 27  0  0  1  0  0  0  0  0999 V2000
  185.8990  176.7870  142.9180 C   0  0  1  0  0  3  0  0  0  0  0  0
  186.5810  178.4230  148.3880 N   0  0  0  0  0  1  0  0  0  0  0  0
  188.7990  174.2970  142.0950 C   0  0  1  0  0  3  0  0  0  0  0  0
  186.4610  178.0110  147.0310 C   0  0  0  0  0  0  0  0  0  0  0  0
  191.0060  175.2900  147.6420 C   0  0  0  0  0  1  0  0  0  0  0  0
  189.5460  174.2930  144.4970 C   0  0  0  0  0  2  0  0  0  0  0  0
  186.6910  175.6160  142.5420 N   0  0  0  0  0  2  0  0  0  0  0  0
  188.8340  177.6820  146.7760 N   0  0  0  0  0  0  0  0  0  0  0  0
  185.2840  177.9480  146.4770 N   0  0  0  0  0  0  0  0  0  0  0  0
  190.1820  175.5020  146.3900 C   0  0  2  0  0  3  0  0  0  0  0  0
  187.4610  177.2580  144.8820 N   0  0  0  0  0  2  0  0  0  0  0  0
  187.6520  177.6540  146.2440 C   0  0  0  0  0  0  0  0  0  0  0  0
  190.6840  174.6480  145.3280 N   0  0  0  0  0  2  0  0  0  0  0  0
  190.2970  177.2450  145.8810 S   0  0  0  0  0  0  0  0  0  0  0  0
  186.1340  177.1960  144.3420 C   0  0  0  0  0  0  0  0  0  0  0  0
  185.0920  177.5360  145.1100 C   0  0  0  0  0  3  0  0  0  0  0  0
  188.1040  175.6070  142.3010 C   0  0  0  0  0  0  0  0  0  0  0  0
  189.2280  174.1900  140.6400 C   0  0  0  0  0  1  0  0  0  0  0  0
  188.7590  176.6840  142.2620 O   0  0  0  0  0  0  0  0  0  0  0  0
  189.9920  174.1260  143.0510 C   0  0  1  0  0  3  0  0  0  0  0  0
  189.6630  171.6730  143.3500 C   0  0  0  0  0  1  0  0  0  0  0  0
  190.6300  172.7500  142.9000 C   0  0  0  0  0  2  0  0  0  0  0  0
  186.4600  179.0410  142.3020 O   0  0  0  0  0  0  0  0  0  0  0  0
  186.0350  177.9140  141.9310 C   0  0  0  0  0  0  0  0  0  0  0  0
  185.7260  177.7150  140.5870 O   0  0  0  0  0  0  0  0  0  0  0  0
  186.6910  177.5400  139.6740 O   0  0  0  0  0  1  0  0  0  0  0  0
  1 24  1  6  0  0  0
  1 15  1  0  0  0  0
  3 18  1  6  0  0  0
  3 17  1  0  0  0  0
  3 20  1  0  0  0  0
  4  2  1  0  0  0  0
  6 13  1  0  0  0  0
  7  1  1  0  0  0  0
  9  4  2  0  0  0  0
 10  5  1  1  0  0  0
 11 12  1  0  0  0  0
 12  8  2  0  0  0  0
 12  4  1  0  0  0  0
 13 10  1  0  0  0  0
 14 10  1  0  0  0  0
 14  8  1  0  0  0  0
 15 11  1  0  0  0  0
 15 16  2  0  0  0  0
 16  9  1  0  0  0  0
 17  7  1  0  0  0  0
 19 17  2  0  0  0  0
 20 22  1  1  0  0  0
 20  6  1  0  0  0  0
 22 21  1  0  0  0  0
 24 23  2  0  0  0  0
 25 24  1  0  0  0  0
 26 25  1  0  0  0  0
M  END
>  <MODEL>
3

>  <REMARK>
 VINA RESULT:      -6.8      2.840      6.808
  Name = 
  3 active torsions:
  status: ('A' for Active; 'I' for Inactive)
    1  A    between atoms: C_1  and  C_16
    2  A    between atoms: O_4  and  C_16
    3  A    between atoms: C_9  and  C_26
                            x       y       z     vdW  Elec       q    Type
                         _______ _______ _______ _____ _____    ______ ____

>  <TORSDO>
F 3

$$$$
=
 OpenBabel11072408323D

 26 27  0  0  1  0  0  0  0  0999 V2000
  188.0080  177.3620  143.3920 C   0  0  1  0  0  3  0  0  0  0  0  0
  188.4390  173.0820  139.5760 N   0  0  0  0  0  1  0  0  0  0  0  0
  190.7150  176.7240  146.1410 C   0  0  1  0  0  3  0  0  0  0  0  0
  188.3490  174.1110  140.5560 C   0  0  0  0  0  0  0  0  0  0  0  0
  192.1230  171.5560  143.3250 C   0  0  0  0  0  1  0  0  0  0  0  0
  191.6720  174.8050  144.8260 C   0  0  0  0  0  2  0  0  0  0  0  0
  189.1490  177.4670  144.3030 N   0  0  0  0  0  2  0  0  0  0  0  0
  189.1340  172.6810  142.3290 N   0  0  0  0  0  0  0  0  0  0  0  0
  187.9480  175.3000  140.2080 N   0  0  0  0  0  0  0  0  0  0  0  0
  191.3280  172.7860  143.7060 C   0  0  2  0  0  3  0  0  0  0  0  0
  188.5840  174.9250  142.8940 N   0  0  0  0  0  2  0  0  0  0  0  0
  188.7070  173.8480  141.9590 C   0  0  0  0  0  0  0  0  0  0  0  0
  191.8870  173.3700  144.9130 N   0  0  0  0  0  2  0  0  0  0  0  0
  189.5940  172.3170  143.9990 S   0  0  0  0  0  0  0  0  0  0  0  0
  188.1500  176.2130  142.4380 C   0  0  0  0  0  0  0  0  0  0  0  0
  187.8380  176.3860  141.1480 C   0  0  0  0  0  3  0  0  0  0  0  0
  189.4160  176.5930  145.4080 C   0  0  0  0  0  0  0  0  0  0  0  0
  190.4460  177.2960  147.5250 C   0  0  0  0  0  1  0  0  0  0  0  0
  188.5730  175.7260  145.7640 O   0  0  0  0  0  0  0  0  0  0  0  0
  191.4650  175.3840  146.2190 C   0  0  1  0  0  3  0  0  0  0  0  0
  193.7350  176.3910  146.0030 C   0  0  0  0  0  1  0  0  0  0  0  0
  192.8280  175.5490  146.8790 C   0  0  0  0  0  2  0  0  0  0  0  0
  185.8490  176.4710  143.9510 O   0  0  0  0  0  0  0  0  0  0  0  0
  186.6900  177.3930  144.1160 C   0  0  0  0  0  0  0  0  0  0  0  0
  186.3990  178.4260  145.0050 O   0  0  0  0  0  0  0  0  0  0  0  0
  185.8990  179.5910  144.5720 O   0  0  0  0  0  1  0  0  0  0  0  0
  1 24  1  1  0  0  0
  1  7  1  0  0  0  0
  2  4  1  0  0  0  0
  3 20  1  0  0  0  0
  3 18  1  1  0  0  0
  4 12  1  0  0  0  0
  6 13  1  0  0  0  0
  6 20  1  0  0  0  0
  7 17  1  0  0  0  0
  8 14  1  0  0  0  0
  9  4  2  0  0  0  0
  9 16  1  0  0  0  0
 10  5  1  1  0  0  0
 10 14  1  0  0  0  0
 10 13  1  0  0  0  0
 12  8  2  0  0  0  0
 12 11  1  0  0  0  0
 15 11  1  0  0  0  0
 15  1  1  0  0  0  0
 16 15  2  0  0  0  0
 17 19  2  0  0  0  0
 17  3  1  0  0  0  0
 20 22  1  6  0  0  0
 21 22  1  0  0  0  0
 23 24  2  0  0  0  0
 24 25  1  0  0  0  0
 26 25  1  0  0  0  0
M  END
>  <MODEL>
4

>  <REMARK>
 VINA RESULT:      -6.3      2.605      5.389
  Name = 
  3 active torsions:
  status: ('A' for Active; 'I' for Inactive)
    1  A    between atoms: C_1  and  C_16
    2  A    between atoms: O_4  and  C_16
    3  A    between atoms: C_9  and  C_26
                            x       y       z     vdW  Elec       q    Type
                         _______ _______ _______ _____ _____    ______ ____

>  <TORSDO>
F 3

$$$$
=
 OpenBabel11072408323D

 26 27  0  0  1  0  0  0  0  0999 V2000
  190.8120  174.1240  144.2500 C   0  0  1  0  0  3  0  0  0  0  0  0
  187.9800  173.5020  139.2840 N   0  0  0  0  0  1  0  0  0  0  0  0
  188.8590  176.7750  146.3590 C   0  0  1  0  0  3  0  0  0  0  0  0
  188.6640  173.7020  140.5160 C   0  0  0  0  0  0  0  0  0  0  0  0
  185.1000  177.4970  141.6710 C   0  0  0  0  0  1  0  0  0  0  0  0
  187.0010  176.8310  144.6640 C   0  0  0  0  0  2  0  0  0  0  0  0
  190.0520  174.8230  145.2870 N   0  0  0  0  0  2  0  0  0  0  0  0
  187.9270  175.9880  140.7120 N   0  0  0  0  0  0  0  0  0  0  0  0
  189.3410  172.7240  141.0450 N   0  0  0  0  0  0  0  0  0  0  0  0
  186.3360  177.0830  142.4400 C   0  0  2  0  0  3  0  0  0  0  0  0
  189.3340  175.1390  142.4320 N   0  0  0  0  0  2  0  0  0  0  0  0
  188.6150  175.0030  141.2020 C   0  0  0  0  0  0  0  0  0  0  0  0
  186.3420  177.7360  143.7380 N   0  0  0  0  0  2  0  0  0  0  0  0
  187.8200  177.5660  141.5050 S   0  0  0  0  0  0  0  0  0  0  0  0
  190.0470  174.0150  142.9650 C   0  0  0  0  0  0  0  0  0  0  0  0
  190.0530  172.8580  142.2900 C   0  0  0  0  0  3  0  0  0  0  0  0
  189.8000  176.2340  145.3270 C   0  0  0  0  0  0  0  0  0  0  0  0
  189.6560  177.5670  147.3850 C   0  0  0  0  0  1  0  0  0  0  0  0
  190.3590  177.0140  144.5090 O   0  0  0  0  0  0  0  0  0  0  0  0
  187.7460  177.6270  145.7270 C   0  0  1  0  0  3  0  0  0  0  0  0
  185.9620  176.9060  147.3120 C   0  0  0  0  0  1  0  0  0  0  0  0
  186.7400  178.0910  146.7740 C   0  0  0  0  0  2  0  0  0  0  0  0
  192.9470  174.8400  145.0870 O   0  0  0  0  0  0  0  0  0  0  0  0
  192.2020  174.6760  144.0850 C   0  0  0  0  0  0  0  0  0  0  0  0
  192.6930  174.9800  142.8170 O   0  0  0  0  0  0  0  0  0  0  0  0
  192.8270  176.2510  142.4140 O   0  0  0  0  0  1  0  0  0  0  0  0
  1 24  1  6  0  0  0
  1  7  1  0  0  0  0
  2  4  1  0  0  0  0
  3 18  1  1  0  0  0
  4  9  2  0  0  0  0
  4 12  1  0  0  0  0
  6 20  1  0  0  0  0
  7 17  1  0  0  0  0
  8 12  2  0  0  0  0
  8 14  1  0  0  0  0
  9 16  1  0  0  0  0
 10  5  1  6  0  0  0
 10 13  1  0  0  0  0
 11 15  1  0  0  0  0
 12 11  1  0  0  0  0
 13  6  1  0  0  0  0
 14 10  1  0  0  0  0
 15  1  1  0  0  0  0
 16 15  2  0  0  0  0
 17  3  1  0  0  0  0
 19 17  2  0  0  0  0
 20  3  1  0  0  0  0
 20 22  1  1  0  0  0
 22 21  1  0  0  0  0
 24 23  2  0  0  0  0
 25 24  1  0  0  0  0
 26 25  1  0  0  0  0
M  END
>  <MODEL>
5

>  <REMARK>
 VINA RESULT:      -6.2      1.784      2.461
  Name = 
  3 active torsions:
  status: ('A' for Active; 'I' for Inactive)
    1  A    between atoms: C_1  and  C_16
    2  A    between atoms: O_4  and  C_16
    3  A    between atoms: C_9  and  C_26
                            x       y       z     vdW  Elec       q    Type
                         _______ _______ _______ _____ _____    ______ ____

>  <TORSDO>
F 3

$$$$
=
 OpenBabel11072408323D

 26 27  0  0  1  0  0  0  0  0999 V2000
  186.3580  176.4950  143.2920 C   0  0  1  0  0  3  0  0  0  0  0  0
  189.7260  177.7910  147.7680 N   0  0  0  0  0  1  0  0  0  0  0  0
  188.5040  174.3520  140.8230 C   0  0  1  0  0  3  0  0  0  0  0  0
  188.9320  177.4680  146.6310 C   0  0  0  0  0  0  0  0  0  0  0  0
  193.2390  175.1470  144.5090 C   0  0  0  0  0  1  0  0  0  0  0  0
  190.3950  174.2460  142.4790 C   0  0  0  0  0  2  0  0  0  0  0  0
  186.8860  175.4330  142.4350 N   0  0  0  0  0  2  0  0  0  0  0  0
  190.8350  177.3820  145.1560 N   0  0  0  0  0  0  0  0  0  0  0  0
  187.6440  177.3350  146.7600 N   0  0  0  0  0  0  0  0  0  0  0  0
  191.8740  175.3710  143.8930 C   0  0  2  0  0  3  0  0  0  0  0  0
  188.6940  176.9680  144.2070 N   0  0  0  0  0  2  0  0  0  0  0  0
  189.5510  177.2810  145.3100 C   0  0  0  0  0  0  0  0  0  0  0  0
  191.7840  174.6460  142.6370 N   0  0  0  0  0  2  0  0  0  0  0  0
  191.6310  177.1490  143.5920 S   0  0  0  0  0  0  0  0  0  0  0  0
  187.2840  176.8210  144.4250 C   0  0  0  0  0  0  0  0  0  0  0  0
  186.7840  177.0060  145.6530 C   0  0  0  0  0  3  0  0  0  0  0  0
  187.9640  175.5740  141.5010 C   0  0  0  0  0  0  0  0  0  0  0  0
  188.1150  174.3910  139.3540 C   0  0  0  0  0  1  0  0  0  0  0  0
  188.4560  176.7070  141.2480 O   0  0  0  0  0  0  0  0  0  0  0  0
  190.0270  174.2250  141.0020 C   0  0  1  0  0  3  0  0  0  0  0  0
  190.0710  171.7410  141.2040 C   0  0  0  0  0  1  0  0  0  0  0  0
  190.5500  172.9300  140.3940 C   0  0  0  0  0  2  0  0  0  0  0  0
  185.1160  177.5690  141.5380 O   0  0  0  0  0  0  0  0  0  0  0  0
  185.9110  177.6970  142.5060 C   0  0  0  0  0  0  0  0  0  0  0  0
  186.3450  178.9730  142.8630 O   0  0  0  0  0  0  0  0  0  0  0  0
  185.5960  179.7660  143.6410 O   0  0  0  0  0  1  0  0  0  0  0  0
  1 24  1  6  0  0  0
  1 15  1  0  0  0  0
  3 18  1  6  0  0  0
  3 20  1  0  0  0  0
  3 17  1  0  0  0  0
  4  9  2  0  0  0  0
  4  2  1  0  0  0  0
  6 13  1  0  0  0  0
  7  1  1  0  0  0  0
  8 12  2  0  0  0  0
 10  5  1  6  0  0  0
 11 15  1  0  0  0  0
 11 12  1  0  0  0  0
 12  4  1  0  0  0  0
 13 10  1  0  0  0  0
 14 10  1  0  0  0  0
 14  8  1  0  0  0  0
 15 16  2  0  0  0  0
 16  9  1  0  0  0  0
 17  7  1  0  0  0  0
 19 17  2  0  0  0  0
 20 22  1  1  0  0  0
 20  6  1  0  0  0  0
 22 21  1  0  0  0  0
 23 24  2  0  0  0  0
 24 25  1  0  0  0  0
 25 26  1  0  0  0  0
M  END
>  <MODEL>
6

>  <REMARK>
 VINA RESULT:      -6.2      3.327      6.629
  Name = 
  3 active torsions:
  status: ('A' for Active; 'I' for Inactive)
    1  A    between atoms: C_1  and  C_16
    2  A    between atoms: O_4  and  C_16
    3  A    between atoms: C_9  and  C_26
                            x       y       z     vdW  Elec       q    Type
                         _______ _______ _______ _____ _____    ______ ____

>  <TORSDO>
F 3

$$$$
=
 OpenBabel11072408323D

 26 27  0  0  1  0  0  0  0  0999 V2000
  187.0430  175.5350  142.3130 C   0  0  1  0  0  3  0  0  0  0  0  0
  186.6830  178.2430  147.3730 N   0  0  0  0  0  1  0  0  0  0  0  0
  190.0770  173.0790  142.5400 C   0  0  1  0  0  3  0  0  0  0  0  0
  186.8210  177.5680  146.1270 C   0  0  0  0  0  0  0  0  0  0  0  0
  191.2100  175.2470  148.0750 C   0  0  0  0  0  1  0  0  0  0  0  0
  190.3680  173.5830  144.9870 C   0  0  0  0  0  2  0  0  0  0  0  0
  187.9060  174.3540  142.3280 N   0  0  0  0  0  2  0  0  0  0  0  0
  189.2040  177.3130  146.3710 N   0  0  0  0  0  0  0  0  0  0  0  0
  185.7680  177.3390  145.3970 N   0  0  0  0  0  0  0  0  0  0  0  0
  190.6280  175.1700  146.6800 C   0  0  2  0  0  3  0  0  0  0  0  0
  188.2090  176.4590  144.3880 N   0  0  0  0  0  2  0  0  0  0  0  0
  188.1410  177.1220  145.6540 C   0  0  0  0  0  0  0  0  0  0  0  0
  191.3290  174.1500  145.9180 N   0  0  0  0  0  2  0  0  0  0  0  0
  190.8130  176.7820  145.8570 S   0  0  0  0  0  0  0  0  0  0  0  0
  187.0060  176.2260  143.6430 C   0  0  0  0  0  0  0  0  0  0  0  0
  185.8360  176.6580  144.1300 C   0  0  0  0  0  3  0  0  0  0  0  0
  189.3390  174.3680  142.3500 C   0  0  0  0  0  0  0  0  0  0  0  0
  190.7690  172.7100  141.2360 C   0  0  0  0  0  1  0  0  0  0  0  0
  189.9770  175.4470  142.2120 O   0  0  0  0  0  0  0  0  0  0  0  0
  191.0750  173.1570  143.7070 C   0  0  1  0  0  3  0  0  0  0  0  0
  193.2550  171.9610  143.8860 C   0  0  0  0  0  1  0  0  0  0  0  0
  191.7470  171.8120  143.9530 C   0  0  0  0  0  2  0  0  0  0  0  0
  187.4500  175.9950  139.9900 O   0  0  0  0  0  0  0  0  0  0  0  0
  187.3450  176.4520  141.1590 C   0  0  0  0  0  0  0  0  0  0  0  0
  187.4780  177.8240  141.3660 O   0  0  0  0  0  0  0  0  0  0  0  0
  188.6710  178.3700  141.6340 O   0  0  0  0  0  1  0  0  0  0  0  0
  1 24  1  6  0  0  0
  1  7  1  0  0  0  0
  1 15  1  0  0  0  0
  3 18  1  6  0  0  0
  3 20  1  0  0  0  0
  4  2  1  0  0  0  0
  6 13  1  0  0  0  0
  7 17  1  0  0  0  0
  9  4  2  0  0  0  0
 10  5  1  1  0  0  0
 11 12  1  0  0  0  0
 12  4  1  0  0  0  0
 12  8  2  0  0  0  0
 13 10  1  0  0  0  0
 14  8  1  0  0  0  0
 14 10  1  0  0  0  0
 15 16  2  0  0  0  0
 15 11  1  0  0  0  0
 16  9  1  0  0  0  0
 17  3  1  0  0  0  0
 19 17  2  0  0  0  0
 20 22  1  1  0  0  0
 20  6  1  0  0  0  0
 21 22  1  0  0  0  0
 23 24  2  0  0  0  0
 24 25  1  0  0  0  0
 25 26  1  0  0  0  0
M  END
>  <MODEL>
7

>  <REMARK>
 VINA RESULT:      -6.0      2.775      6.776
  Name = 
  3 active torsions:
  status: ('A' for Active; 'I' for Inactive)
    1  A    between atoms: C_1  and  C_16
    2  A    between atoms: O_4  and  C_16
    3  A    between atoms: C_9  and  C_26
                            x       y       z     vdW  Elec       q    Type
                         _______ _______ _______ _____ _____    ______ ____

>  <TORSDO>
F 3

$$$$
=
 OpenBabel11072408323D

 26 27  0  0  1  0  0  0  0  0999 V2000
  189.7650  177.0190  144.9990 C   0  0  1  0  0  3  0  0  0  0  0  0
  187.8030  172.9650  141.4250 N   0  0  0  0  0  1  0  0  0  0  0  0
  193.5630  176.2940  145.5810 C   0  0  1  0  0  3  0  0  0  0  0  0
  188.3220  173.9370  142.3260 C   0  0  0  0  0  0  0  0  0  0  0  0
  192.9670  171.3210  142.1840 C   0  0  0  0  0  1  0  0  0  0  0  0
  193.5340  174.4720  143.8470 C   0  0  0  0  0  2  0  0  0  0  0  0
  191.2240  177.1000  145.0670 N   0  0  0  0  0  2  0  0  0  0  0  0
  189.9830  172.4300  143.2090 N   0  0  0  0  0  0  0  0  0  0  0  0
  187.8100  175.1330  142.3510 N   0  0  0  0  0  0  0  0  0  0  0  0
  192.5670  172.5100  143.0310 C   0  0  2  0  0  3  0  0  0  0  0  0
  189.9020  174.6260  144.1180 N   0  0  0  0  0  2  0  0  0  0  0  0
  189.4350  173.6060  143.2300 C   0  0  0  0  0  0  0  0  0  0  0  0
  193.7380  173.0400  143.7080 N   0  0  0  0  0  2  0  0  0  0  0  0
  191.3340  171.9870  144.2630 S   0  0  0  0  0  0  0  0  0  0  0  0
  189.3000  175.9270  144.0820 C   0  0  0  0  0  0  0  0  0  0  0  0
  188.2900  176.1630  143.2360 C   0  0  0  0  0  3  0  0  0  0  0  0
  192.0800  176.1740  145.7490 C   0  0  0  0  0  0  0  0  0  0  0  0
  194.1700  176.7840  146.8870 C   0  0  0  0  0  1  0  0  0  0  0  0
  191.5980  175.2690  146.4830 O   0  0  0  0  0  0  0  0  0  0  0  0
  194.1960  174.9690  145.1240 C   0  0  1  0  0  3  0  0  0  0  0  0
  196.4780  174.1660  145.7270 C   0  0  0  0  0  1  0  0  0  0  0  0
  195.6890  175.1300  144.8620 C   0  0  0  0  0  2  0  0  0  0  0  0
  189.3950  177.8650  147.2170 O   0  0  0  0  0  0  0  0  0  0  0  0
  189.1280  176.9800  146.3620 C   0  0  0  0  0  0  0  0  0  0  0  0
  188.2090  175.9830  146.6810 O   0  0  0  0  0  0  0  0  0  0  0  0
  188.5680  174.9200  147.4140 O   0  0  0  0  0  1  0  0  0  0  0  0
  1  7  1  0  0  0  0
  1 24  1  1  0  0  0
  2  4  1  0  0  0  0
  3 17  1  0  0  0  0
  3 18  1  1  0  0  0
  4  9  2  0  0  0  0
  4 12  1  0  0  0  0
  6 20  1  0  0  0  0
  7 17  1  0  0  0  0
  8 12  2  0  0  0  0
  8 14  1  0  0  0  0
  9 16  1  0  0  0  0
 10  5  1  1  0  0  0
 10 13  1  0  0  0  0
 10 14  1  0  0  0  0
 12 11  1  0  0  0  0
 13  6  1  0  0  0  0
 15 11  1  0  0  0  0
 15  1  1  0  0  0  0
 16 15  2  0  0  0  0
 17 19  2  0  0  0  0
 20 22  1  6  0  0  0
 20  3  1  0  0  0  0
 22 21  1  0  0  0  0
 24 25  1  0  0  0  0
 24 23  2  0  0  0  0
 25 26  1  0  0  0  0
M  END
>  <MODEL>
8

>  <REMARK>
 VINA RESULT:      -6.0      3.069      6.013
  Name = 
  3 active torsions:
  status: ('A' for Active; 'I' for Inactive)
    1  A    between atoms: C_1  and  C_16
    2  A    between atoms: O_4  and  C_16
    3  A    between atoms: C_9  and  C_26
                            x       y       z     vdW  Elec       q    Type
                         _______ _______ _______ _____ _____    ______ ____

>  <TORSDO>
F 3

$$$$
=
 OpenBabel11072408323D

 26 27  0  0  1  0  0  0  0  0999 V2000
  190.8380  175.3230  142.0290 C   0  0  1  0  0  3  0  0  0  0  0  0
  195.2940  175.8050  145.6310 N   0  0  0  0  0  1  0  0  0  0  0  0
  187.7060  176.7590  143.8790 C   0  0  1  0  0  3  0  0  0  0  0  0
  194.1610  175.6820  144.7780 C   0  0  0  0  0  0  0  0  0  0  0  0
  191.1770  177.5850  148.7680 C   0  0  0  0  0  1  0  0  0  0  0  0
  189.1350  177.5470  145.7940 C   0  0  0  0  0  2  0  0  0  0  0  0
  189.6640  176.1030  142.4230 N   0  0  0  0  0  2  0  0  0  0  0  0
  192.6240  175.4660  146.6220 N   0  0  0  0  0  0  0  0  0  0  0  0
  194.3160  175.7360  143.4870 N   0  0  0  0  0  0  0  0  0  0  0  0
  190.7410  177.0600  147.4170 C   0  0  2  0  0  3  0  0  0  0  0  0
  191.7190  175.3700  144.4250 N   0  0  0  0  0  2  0  0  0  0  0  0
  192.8130  175.4970  145.3390 C   0  0  0  0  0  0  0  0  0  0  0  0
  189.3300  177.3410  147.2190 N   0  0  0  0  0  2  0  0  0  0  0  0
  191.0230  175.2630  147.3480 S   0  0  0  0  0  0  0  0  0  0  0  0
  191.9610  175.4540  143.0140 C   0  0  0  0  0  0  0  0  0  0  0  0
  193.2120  175.6220  142.5680 C   0  0  0  0  0  3  0  0  0  0  0  0
  188.7600  175.7710  143.4850 C   0  0  0  0  0  0  0  0  0  0  0  0
  186.3460  176.2260  143.4560 C   0  0  0  0  0  1  0  0  0  0  0  0
  188.8440  174.6630  144.0820 O   0  0  0  0  0  0  0  0  0  0  0  0
  187.7490  177.0690  145.3850 C   0  0  1  0  0  3  0  0  0  0  0  0
  185.7550  177.6120  146.7800 C   0  0  0  0  0  1  0  0  0  0  0  0
  186.7390  178.1480  145.7570 C   0  0  0  0  0  2  0  0  0  0  0  0
  191.0850  172.9440  142.2510 O   0  0  0  0  0  0  0  0  0  0  0  0
  190.4920  173.9000  141.6850 C   0  0  0  0  0  0  0  0  0  0  0  0
  189.4870  173.6230  140.7610 O   0  0  0  0  0  0  0  0  0  0  0  0
  188.3520  173.0170  141.1340 O   0  0  0  0  0  1  0  0  0  0  0  0
  1 24  1  1  0  0  0
  1  7  1  0  0  0  0
  1 15  1  0  0  0  0
  3 18  1  1  0  0  0
  3 20  1  0  0  0  0
  4 12  1  0  0  0  0
  4  2  1  0  0  0  0
  6 13  1  0  0  0  0
  7 17  1  0  0  0  0
  8 14  1  0  0  0  0
  9  4  2  0  0  0  0
 10  5  1  1  0  0  0
 11 12  1  0  0  0  0
 12  8  2  0  0  0  0
 13 10  1  0  0  0  0
 14 10  1  0  0  0  0
 15 11  1  0  0  0  0
 16 15  2  0  0  0  0
 16  9  1  0  0  0  0
 17  3  1  0  0  0  0
 17 19  2  0  0  0  0
 20 22  1  6  0  0  0
 20  6  1  0  0  0  0
 22 21  1  0  0  0  0
 24 23  2  0  0  0  0
 25 26  1  0  0  0  0
 25 24  1  0  0  0  0
M  END
>  <MODEL>
9

>  <REMARK>
 VINA RESULT:      -6.0      3.508      5.310
  Name = 
  3 active torsions:
  status: ('A' for Active; 'I' for Inactive)
    1  A    between atoms: C_1  and  C_16
    2  A    between atoms: O_4  and  C_16
    3  A    between atoms: C_9  and  C_26
                            x       y       z     vdW  Elec       q    Type
                         _______ _______ _______ _____ _____    ______ ____

>  <TORSDO>
F 3

$$$$
