=
 OpenBabel11072408273D

 34 37  0  0  1  0  0  0  0  0999 V2000
  192.9430  175.2360  145.9650 N   0  0  0  0  0  0  0  0  0  0  0  0
  195.0790  175.8240  145.2020 O   0  0  0  0  0  0  0  0  0  0  0  0
  194.5340  177.0240  145.6910 C   0  0  0  0  0  2  0  0  0  0  0  0
  194.2650  175.7240  146.3480 C   0  0  1  0  0  3  0  0  0  0  0  0
  193.0570  173.9380  145.2850 C   0  0  0  0  0  2  0  0  0  0  0  0
  191.5030  173.5860  140.8750 O   0  0  0  0  0  0  0  0  0  0  0  0
  191.8580  172.0920  144.0480 C   0  0  0  0  0  3  0  0  0  0  0  0
  191.6280  173.3430  142.1030 C   0  0  0  0  0  0  0  0  0  0  0  0
  191.6030  172.0320  142.6210 N   0  0  0  0  0  0  0  0  0  0  0  0
  191.8500  174.3810  143.1350 C   0  0  2  0  0  3  0  0  0  0  0  0
  191.8360  173.5780  144.4350 C   0  0  2  0  0  3  0  0  0  0  0  0
  188.3920  175.3840  142.4330 C   0  0  0  0  0  3  0  0  0  0  0  0
  188.1810  176.6290  142.0120 C   0  0  0  0  0  3  0  0  0  0  0  0
  190.7670  175.4170  143.1390 C   0  0  0  0  0  0  0  0  0  0  0  0
  191.1220  176.6890  142.9420 C   0  0  0  0  0  3  0  0  0  0  0  0
  190.2020  177.8420  142.8780 C   0  0  0  0  0  3  0  0  0  0  0  0
  188.9260  177.8170  142.4720 C   0  0  0  0  0  3  0  0  0  0  0  0
  189.3640  175.0420  143.5120 C   0  0  0  0  0  2  0  0  0  0  0  0
  192.1400  175.0800  147.1760 C   0  0  0  0  0  2  0  0  0  0  0  0
  188.3770  175.4550  147.0070 C   0  0  0  0  0  3  0  0  0  0  0  0
  188.2360  176.7970  146.6180 C   0  0  0  0  0  0  0  0  0  0  0  0
  190.7890  175.6750  146.9770 C   0  0  0  0  0  0  0  0  0  0  0  0
  190.6600  177.0170  146.6070 C   0  0  0  0  0  3  0  0  0  0  0  0
  189.3890  177.5740  146.4300 C   0  0  0  0  0  3  0  0  0  0  0  0
  189.6460  174.8960  147.1840 C   0  0  0  0  0  3  0  0  0  0  0  0
  186.0100  177.1120  147.3420 O   0  0  0  0  0  0  0  0  0  0  0  0
  186.8760  177.3730  146.4660 C   0  0  0  0  0  0  0  0  0  0  0  0
  186.5010  178.2020  145.4000 O   0  0  0  0  0  0  0  0  0  0  0  0
  185.3910  179.0890  145.4290 C   0  0  0  0  0  2  0  0  0  0  0  0
  185.3250  179.8700  144.1320 C   0  0  0  0  0  2  0  0  0  0  0  0
  185.7710  179.0540  143.0590 O   0  0  0  0  0  0  0  0  0  0  0  0
  185.2010  178.3550  140.8120 O   0  0  0  0  0  0  0  0  0  0  0  0
  184.8760  178.4770  142.1600 C   0  0  0  0  0  0  0  0  0  0  0  0
  183.7650  178.0560  142.5750 O   0  0  0  0  0  1  0  0  0  0  0  0
  1 19  1  0  0  0  0
  2  3  1  0  0  0  0
  2  4  1  0  0  0  0
  3  4  1  0  0  0  0
  4  1  1  6  0  0  0
  5  1  1  0  0  0  0
  6  8  2  0  0  0  0
  7 11  1  0  0  0  0
  8  9  1  0  0  0  0
  8 10  1  0  0  0  0
  9  7  2  0  0  0  0
 10 14  1  1  0  0  0
 10 11  1  0  0  0  0
 11  5  1  1  0  0  0
 12 18  1  0  0  0  0
 13 12  2  0  0  0  0
 13 17  1  0  0  0  0
 14 18  1  0  0  0  0
 15 14  2  0  0  0  0
 16 15  1  0  0  0  0
 17 16  2  0  0  0  0
 20 25  1  0  0  0  0
 21 20  2  0  0  0  0
 22 19  1  0  0  0  0
 22 25  2  0  0  0  0
 23 22  1  0  0  0  0
 24 23  2  0  0  0  0
 24 21  1  0  0  0  0
 27 21  1  0  0  0  0
 27 26  2  0  0  0  0
 28 29  1  0  0  0  0
 28 27  1  0  0  0  0
 30 29  1  0  0  0  0
 31 30  1  0  0  0  0
 32 33  2  0  0  0  0
 33 34  1  0  0  0  0
 33 31  1  0  0  0  0
M  END
>  <MODEL>
1

>  <REMARK>
 VINA RESULT:      -6.7      0.000      0.000
  Name = 
  12 active torsions:
  status: ('A' for Active; 'I' for Inactive)
    1  A    between atoms: C_6  and  C_32
    2  A    between atoms: O_8  and  C_11
    3  A    between atoms: O_8  and  C_15
    4  A    between atoms: C_10  and  C_15
    5  A    between atoms: C_11  and  C_18
    6  A    between atoms: C_13  and  C_33
    7  A    between atoms: C_17  and  N_27
    8  A    between atoms: C_17  and  C_34
    9  A    between atoms: C_18  and  O_23
   10  A    between atoms: C_21  and  N_27
   11  A    between atoms: O_23  and  C_28
   12  A    between atoms: N_27  and  C_33
                            x       y       z     vdW  Elec       q    Type
                         _______ _______ _______ _____ _____    ______ ____

>  <TORSDO>
F 12

$$$$
=
 OpenBabel11072408273D

 34 37  0  0  1  0  0  0  0  0999 V2000
  192.4790  176.0140  146.2010 N   0  0  0  0  0  0  0  0  0  0  0  0
  194.8060  175.9890  145.9250 O   0  0  0  0  0  0  0  0  0  0  0  0
  194.3850  177.1680  145.2860 C   0  0  0  0  0  2  0  0  0  0  0  0
  193.7370  176.6820  146.5260 C   0  0  1  0  0  3  0  0  0  0  0  0
  192.5610  174.5850  146.5370 C   0  0  0  0  0  2  0  0  0  0  0  0
  193.2500  174.3360  141.9050 O   0  0  0  0  0  0  0  0  0  0  0  0
  193.7630  172.9040  145.0860 C   0  0  0  0  0  3  0  0  0  0  0  0
  193.1720  173.9690  143.1060 C   0  0  0  0  0  0  0  0  0  0  0  0
  194.0720  173.0450  143.6750 N   0  0  0  0  0  0  0  0  0  0  0  0
  192.1660  174.4790  144.0650 C   0  0  2  0  0  3  0  0  0  0  0  0
  192.4470  173.6590  145.3230 C   0  0  2  0  0  3  0  0  0  0  0  0
  189.3180  172.2470  143.4630 C   0  0  0  0  0  3  0  0  0  0  0  0
  188.5660  172.4780  142.3890 C   0  0  0  0  0  3  0  0  0  0  0  0
  190.7640  174.2560  143.5870 C   0  0  0  0  0  0  0  0  0  0  0  0
  190.3250  175.0060  142.5730 C   0  0  0  0  0  3  0  0  0  0  0  0
  188.9930  174.9120  141.9420 C   0  0  0  0  0  3  0  0  0  0  0  0
  188.2300  173.8140  141.8600 C   0  0  0  0  0  3  0  0  0  0  0  0
  189.8480  173.3350  144.3350 C   0  0  0  0  0  2  0  0  0  0  0  0
  191.4120  176.6350  146.9820 C   0  0  0  0  0  2  0  0  0  0  0  0
  189.1390  177.9100  144.2370 C   0  0  0  0  0  3  0  0  0  0  0  0
  187.9410  177.2310  144.5120 C   0  0  0  0  0  0  0  0  0  0  0  0
  190.2070  176.8440  146.1310 C   0  0  0  0  0  0  0  0  0  0  0  0
  189.0260  176.1490  146.4040 C   0  0  0  0  0  3  0  0  0  0  0  0
  187.8990  176.3420  145.5970 C   0  0  0  0  0  3  0  0  0  0  0  0
  190.2650  177.7190  145.0410 C   0  0  0  0  0  3  0  0  0  0  0  0
  186.1230  176.4170  143.2420 O   0  0  0  0  0  0  0  0  0  0  0  0
  186.7680  177.4290  143.6230 C   0  0  0  0  0  0  0  0  0  0  0  0
  186.3320  178.6870  143.1860 O   0  0  0  0  0  0  0  0  0  0  0  0
  185.5660  179.5870  143.9760 C   0  0  0  0  0  2  0  0  0  0  0  0
  184.2510  178.9390  144.3600 C   0  0  0  0  0  2  0  0  0  0  0  0
  184.0600  179.0390  145.7640 O   0  0  0  0  0  0  0  0  0  0  0  0
  185.4830  178.7470  147.7000 O   0  0  0  0  0  1  0  0  0  0  0  0
  184.7400  178.2100  146.6530 C   0  0  0  0  0  0  0  0  0  0  0  0
  184.6750  176.9610  146.5110 O   0  0  0  0  0  0  0  0  0  0  0  0
  1  5  1  0  0  0  0
  1 19  1  0  0  0  0
  2  4  1  0  0  0  0
  3  2  1  0  0  0  0
  3  4  1  0  0  0  0
  4  1  1  6  0  0  0
  6  8  2  0  0  0  0
  7 11  1  0  0  0  0
  8  9  1  0  0  0  0
  8 10  1  0  0  0  0
  9  7  2  0  0  0  0
 10 14  1  6  0  0  0
 10 11  1  0  0  0  0
 11  5  1  1  0  0  0
 12 18  1  0  0  0  0
 13 12  2  0  0  0  0
 14 18  1  0  0  0  0
 15 14  2  0  0  0  0
 16 15  1  0  0  0  0
 17 16  2  0  0  0  0
 17 13  1  0  0  0  0
 20 21  2  0  0  0  0
 20 25  1  0  0  0  0
 21 24  1  0  0  0  0
 22 23  1  0  0  0  0
 22 19  1  0  0  0  0
 24 23  2  0  0  0  0
 25 22  2  0  0  0  0
 26 27  2  0  0  0  0
 27 21  1  0  0  0  0
 28 27  1  0  0  0  0
 28 29  1  0  0  0  0
 29 30  1  0  0  0  0
 30 31  1  0  0  0  0
 31 33  1  0  0  0  0
 33 32  1  0  0  0  0
 34 33  2  0  0  0  0
M  END
>  <MODEL>
2

>  <REMARK>
 VINA RESULT:      -6.7      1.634      2.825
  Name = 
  12 active torsions:
  status: ('A' for Active; 'I' for Inactive)
    1  A    between atoms: C_6  and  C_32
    2  A    between atoms: O_8  and  C_11
    3  A    between atoms: O_8  and  C_15
    4  A    between atoms: C_10  and  C_15
    5  A    between atoms: C_11  and  C_18
    6  A    between atoms: C_13  and  C_33
    7  A    between atoms: C_17  and  N_27
    8  A    between atoms: C_17  and  C_34
    9  A    between atoms: C_18  and  O_23
   10  A    between atoms: C_21  and  N_27
   11  A    between atoms: O_23  and  C_28
   12  A    between atoms: N_27  and  C_33
                            x       y       z     vdW  Elec       q    Type
                         _______ _______ _______ _____ _____    ______ ____

>  <TORSDO>
F 12

$$$$
=
 OpenBabel11072408273D

 34 37  0  0  1  0  0  0  0  0999 V2000
  190.0210  174.1950  141.9440 N   0  0  0  0  0  0  0  0  0  0  0  0
  190.4580  171.9530  141.4230 O   0  0  0  0  0  0  0  0  0  0  0  0
  189.3430  171.9080  142.2770 C   0  0  0  0  0  2  0  0  0  0  0  0
  189.5180  172.9930  141.2840 C   0  0  1  0  0  3  0  0  0  0  0  0
  191.4230  174.4330  141.5690 C   0  0  0  0  0  2  0  0  0  0  0  0
  193.8760  172.8780  145.2500 O   0  0  0  0  0  0  0  0  0  0  0  0
  193.7890  174.8630  142.3380 C   0  0  0  0  0  3  0  0  0  0  0  0
  193.5470  173.6000  144.2740 C   0  0  0  0  0  0  0  0  0  0  0  0
  194.4940  174.1640  143.3960 N   0  0  0  0  0  0  0  0  0  0  0  0
  192.1460  173.9140  143.9110 C   0  0  2  0  0  3  0  0  0  0  0  0
  192.3060  174.8790  142.7370 C   0  0  2  0  0  3  0  0  0  0  0  0
  192.1300  175.7450  147.0890 C   0  0  0  0  0  3  0  0  0  0  0  0
  191.1660  175.4610  147.9640 C   0  0  0  0  0  3  0  0  0  0  0  0
  191.4000  174.5650  145.0360 C   0  0  0  0  0  0  0  0  0  0  0  0
  190.2270  174.0370  145.3930 C   0  0  0  0  0  3  0  0  0  0  0  0
  189.3650  174.5120  146.4930 C   0  0  0  0  0  3  0  0  0  0  0  0
  189.7720  175.1280  147.6100 C   0  0  0  0  0  3  0  0  0  0  0  0
  191.8910  175.8550  145.6210 C   0  0  0  0  0  2  0  0  0  0  0  0
  189.2060  175.3310  141.5170 C   0  0  0  0  0  2  0  0  0  0  0  0
  188.6650  177.6800  144.4350 C   0  0  0  0  0  3  0  0  0  0  0  0
  187.4180  177.2560  144.9220 C   0  0  0  0  0  0  0  0  0  0  0  0
  188.5880  175.9930  142.6990 C   0  0  0  0  0  0  0  0  0  0  0  0
  187.3380  175.5750  143.1640 C   0  0  0  0  0  3  0  0  0  0  0  0
  186.7560  176.2050  144.2690 C   0  0  0  0  0  3  0  0  0  0  0  0
  189.2480  177.0520  143.3320 C   0  0  0  0  0  3  0  0  0  0  0  0
  187.2000  177.6690  147.2380 O   0  0  0  0  0  0  0  0  0  0  0  0
  186.8080  177.9610  146.0780 C   0  0  0  0  0  0  0  0  0  0  0  0
  185.8180  178.9450  145.9500 O   0  0  0  0  0  0  0  0  0  0  0  0
  184.4530  178.6740  145.6650 C   0  0  0  0  0  2  0  0  0  0  0  0
  184.0950  179.2230  144.2980 C   0  0  0  0  0  2  0  0  0  0  0  0
  184.1070  178.1720  143.3430 O   0  0  0  0  0  0  0  0  0  0  0  0
  186.0260  178.7080  141.9670 O   0  0  0  0  0  1  0  0  0  0  0  0
  184.6910  178.3350  142.0880 C   0  0  0  0  0  0  0  0  0  0  0  0
  184.0030  178.1330  141.0530 O   0  0  0  0  0  0  0  0  0  0  0  0
  2  3  1  0  0  0  0
  4  2  1  0  0  0  0
  4  1  1  1  0  0  0
  4  3  1  0  0  0  0
  5  1  1  0  0  0  0
  7 11  1  0  0  0  0
  7  9  2  0  0  0  0
  8  6  2  0  0  0  0
  9  8  1  0  0  0  0
 10  8  1  0  0  0  0
 10 14  1  1  0  0  0
 11  5  1  6  0  0  0
 11 10  1  0  0  0  0
 12 13  2  0  0  0  0
 14 15  2  0  0  0  0
 14 18  1  0  0  0  0
 15 16  1  0  0  0  0
 16 17  2  0  0  0  0
 17 13  1  0  0  0  0
 18 12  1  0  0  0  0
 19  1  1  0  0  0  0
 19 22  1  0  0  0  0
 20 21  1  0  0  0  0
 21 27  1  0  0  0  0
 22 23  2  0  0  0  0
 22 25  1  0  0  0  0
 23 24  1  0  0  0  0
 24 21  2  0  0  0  0
 25 20  2  0  0  0  0
 27 26  2  0  0  0  0
 28 27  1  0  0  0  0
 29 28  1  0  0  0  0
 30 29  1  0  0  0  0
 31 30  1  0  0  0  0
 32 33  1  0  0  0  0
 33 31  1  0  0  0  0
 34 33  2  0  0  0  0
M  END
>  <MODEL>
3

>  <REMARK>
 VINA RESULT:      -6.4      1.651      4.214
  Name = 
  12 active torsions:
  status: ('A' for Active; 'I' for Inactive)
    1  A    between atoms: C_6  and  C_32
    2  A    between atoms: O_8  and  C_11
    3  A    between atoms: O_8  and  C_15
    4  A    between atoms: C_10  and  C_15
    5  A    between atoms: C_11  and  C_18
    6  A    between atoms: C_13  and  C_33
    7  A    between atoms: C_17  and  N_27
    8  A    between atoms: C_17  and  C_34
    9  A    between atoms: C_18  and  O_23
   10  A    between atoms: C_21  and  N_27
   11  A    between atoms: O_23  and  C_28
   12  A    between atoms: N_27  and  C_33
                            x       y       z     vdW  Elec       q    Type
                         _______ _______ _______ _____ _____    ______ ____

>  <TORSDO>
F 12

$$$$
=
 OpenBabel11072408273D

 34 37  0  0  1  0  0  0  0  0999 V2000
  186.5250  178.0350  143.4280 N   0  0  0  0  0  0  0  0  0  0  0  0
  184.5940  179.0850  144.2400 O   0  0  0  0  0  0  0  0  0  0  0  0
  185.5820  180.0850  144.2700 C   0  0  0  0  0  2  0  0  0  0  0  0
  185.5300  179.0760  143.1870 C   0  0  1  0  0  3  0  0  0  0  0  0
  185.8800  176.8310  143.9740 C   0  0  0  0  0  2  0  0  0  0  0  0
  187.3870  178.8270  147.9400 O   0  0  0  0  0  0  0  0  0  0  0  0
  185.0180  176.7600  146.3450 C   0  0  0  0  0  2  0  0  0  0  0  0
  186.7720  178.0360  147.1790 C   0  0  0  0  0  0  0  0  0  0  0  0
  185.4660  177.5830  147.4530 N   0  0  0  0  0  2  0  0  0  0  0  0
  187.3210  177.5190  145.9050 C   0  0  2  0  0  3  0  0  0  0  0  0
  186.2370  176.5490  145.4360 C   0  0  2  0  0  3  0  0  0  0  0  0
  189.2660  174.7590  147.3380 C   0  0  0  0  0  3  0  0  0  0  0  0
  190.5140  175.0170  147.7270 C   0  0  0  0  0  3  0  0  0  0  0  0
  188.6250  176.8050  146.0960 C   0  0  0  0  0  0  0  0  0  0  0  0
  189.7380  177.5420  146.1340 C   0  0  0  0  0  3  0  0  0  0  0  0
  191.1060  177.0300  146.3480 C   0  0  0  0  0  3  0  0  0  0  0  0
  191.4430  175.9350  147.0410 C   0  0  0  0  0  3  0  0  0  0  0  0
  188.6750  175.3070  146.0830 C   0  0  0  0  0  2  0  0  0  0  0  0
  187.1670  177.7070  142.1580 C   0  0  0  0  0  2  0  0  0  0  0  0
  190.8750  177.3500  142.8310 C   0  0  0  0  0  3  0  0  0  0  0  0
  191.0300  175.9550  142.8720 C   0  0  0  0  0  0  0  0  0  0  0  0
  188.5050  177.0980  142.4000 C   0  0  0  0  0  0  0  0  0  0  0  0
  188.6450  175.7090  142.4560 C   0  0  0  0  0  3  0  0  0  0  0  0
  189.9010  175.1410  142.6930 C   0  0  0  0  0  3  0  0  0  0  0  0
  189.6210  177.9190  142.5950 C   0  0  0  0  0  3  0  0  0  0  0  0
  192.5240  174.1320  143.0430 O   0  0  0  0  0  0  0  0  0  0  0  0
  192.3690  175.3770  143.1550 C   0  0  0  0  0  0  0  0  0  0  0  0
  193.4780  176.1440  143.5350 O   0  0  0  0  0  0  0  0  0  0  0  0
  194.6240  175.6220  144.1940 C   0  0  0  0  0  2  0  0  0  0  0  0
  195.7230  176.6650  144.2150 C   0  0  0  0  0  2  0  0  0  0  0  0
  196.8490  176.1890  143.4930 O   0  0  0  0  0  0  0  0  0  0  0  0
  196.1140  177.0480  141.3520 O   0  0  0  0  0  0  0  0  0  0  0  0
  196.8520  176.1350  142.1000 C   0  0  0  0  0  0  0  0  0  0  0  0
  197.5350  175.2560  141.5150 O   0  0  0  0  0  1  0  0  0  0  0  0
  1  5  1  0  0  0  0
  2  3  1  0  0  0  0
  4  1  1  1  0  0  0
  4  2  1  0  0  0  0
  4  3  1  0  0  0  0
  7  9  1  0  0  0  0
  8  9  1  0  0  0  0
  8  6  2  0  0  0  0
 10 14  1  1  0  0  0
 10  8  1  0  0  0  0
 11  5  1  6  0  0  0
 11 10  1  0  0  0  0
 11  7  1  0  0  0  0
 12 13  2  0  0  0  0
 14 15  2  0  0  0  0
 15 16  1  0  0  0  0
 16 17  2  0  0  0  0
 17 13  1  0  0  0  0
 18 14  1  0  0  0  0
 18 12  1  0  0  0  0
 19 22  1  0  0  0  0
 19  1  1  0  0  0  0
 20 21  1  0  0  0  0
 21 27  1  0  0  0  0
 22 23  2  0  0  0  0
 22 25  1  0  0  0  0
 23 24  1  0  0  0  0
 24 21  2  0  0  0  0
 25 20  2  0  0  0  0
 26 27  2  0  0  0  0
 27 28  1  0  0  0  0
 28 29  1  0  0  0  0
 29 30  1  0  0  0  0
 31 30  1  0  0  0  0
 32 33  2  0  0  0  0
 33 31  1  0  0  0  0
 34 33  1  0  0  0  0
M  END
>  <MODEL>
4

>  <REMARK>
 VINA RESULT:      -6.4      2.631      8.007
  Name = 
  12 active torsions:
  status: ('A' for Active; 'I' for Inactive)
    1  A    between atoms: C_6  and  C_32
    2  A    between atoms: O_8  and  C_11
    3  A    between atoms: O_8  and  C_15
    4  A    between atoms: C_10  and  C_15
    5  A    between atoms: C_11  and  C_18
    6  A    between atoms: C_13  and  C_33
    7  A    between atoms: C_17  and  N_27
    8  A    between atoms: C_17  and  C_34
    9  A    between atoms: C_18  and  O_23
   10  A    between atoms: C_21  and  N_27
   11  A    between atoms: O_23  and  C_28
   12  A    between atoms: N_27  and  C_33
                            x       y       z     vdW  Elec       q    Type
                         _______ _______ _______ _____ _____    ______ ____

>  <TORSDO>
F 12

$$$$
=
 OpenBabel11072408273D

 34 37  0  0  1  0  0  0  0  0999 V2000
  192.9040  175.1770  146.1040 N   0  0  0  0  0  0  0  0  0  0  0  0
  194.8340  175.9360  145.0130 O   0  0  0  0  0  0  0  0  0  0  0  0
  194.2890  177.0850  145.6120 C   0  0  0  0  0  2  0  0  0  0  0  0
  194.2310  175.7620  146.2740 C   0  0  1  0  0  3  0  0  0  0  0  0
  193.0130  173.7330  145.8500 C   0  0  0  0  0  2  0  0  0  0  0  0
  192.6890  175.2040  141.4090 O   0  0  0  0  0  0  0  0  0  0  0  0
  193.7360  172.7020  143.6620 C   0  0  0  0  0  3  0  0  0  0  0  0
  192.8350  174.4210  142.3840 C   0  0  0  0  0  0  0  0  0  0  0  0
  193.7520  173.3520  142.3640 N   0  0  0  0  0  0  0  0  0  0  0  0
  192.0990  174.5450  143.6630 C   0  0  2  0  0  3  0  0  0  0  0  0
  192.5680  173.3180  144.4450 C   0  0  2  0  0  3  0  0  0  0  0  0
  189.0500  172.7770  142.6470 C   0  0  0  0  0  3  0  0  0  0  0  0
  188.0920  173.4850  142.0500 C   0  0  0  0  0  3  0  0  0  0  0  0
  190.6140  174.5150  143.4680 C   0  0  0  0  0  0  0  0  0  0  0  0
  190.0080  175.6530  143.1210 C   0  0  0  0  0  3  0  0  0  0  0  0
  188.5660  175.8170  142.8510 C   0  0  0  0  0  3  0  0  0  0  0  0
  187.7340  174.8770  142.3850 C   0  0  0  0  0  3  0  0  0  0  0  0
  189.8310  173.2830  143.8120 C   0  0  0  0  0  2  0  0  0  0  0  0
  192.1410  175.3980  147.3300 C   0  0  0  0  0  2  0  0  0  0  0  0
  189.2270  177.5260  146.1880 C   0  0  0  0  0  3  0  0  0  0  0  0
  188.1410  176.6540  146.3690 C   0  0  0  0  0  0  0  0  0  0  0  0
  190.7550  175.8330  147.0030 C   0  0  0  0  0  0  0  0  0  0  0  0
  189.6840  174.9500  147.1700 C   0  0  0  0  0  3  0  0  0  0  0  0
  188.3840  175.3590  146.8520 C   0  0  0  0  0  3  0  0  0  0  0  0
  190.5250  177.1190  146.5050 C   0  0  0  0  0  3  0  0  0  0  0  0
  185.7880  176.5430  146.5430 O   0  0  0  0  0  0  0  0  0  0  0  0
  186.7750  177.1010  145.9960 C   0  0  0  0  0  0  0  0  0  0  0  0
  186.5210  178.1200  145.0690 O   0  0  0  0  0  0  0  0  0  0  0  0
  185.7170  179.2620  145.3350 C   0  0  0  0  0  2  0  0  0  0  0  0
  184.7360  179.4750  144.2000 C   0  0  0  0  0  2  0  0  0  0  0  0
  184.6410  178.2910  143.4210 O   0  0  0  0  0  0  0  0  0  0  0  0
  186.3150  178.4890  141.6840 O   0  0  0  0  0  1  0  0  0  0  0  0
  184.9970  178.2740  142.0740 C   0  0  0  0  0  0  0  0  0  0  0  0
  184.1160  178.0530  141.2030 O   0  0  0  0  0  0  0  0  0  0  0  0
  1 19  1  0  0  0  0
  2  3  1  0  0  0  0
  2  4  1  0  0  0  0
  3  4  1  0  0  0  0
  4  1  1  6  0  0  0
  5  1  1  0  0  0  0
  6  8  2  0  0  0  0
  7 11  1  0  0  0  0
  8 10  1  0  0  0  0
  9  8  1  0  0  0  0
  9  7  2  0  0  0  0
 10 14  1  6  0  0  0
 10 11  1  0  0  0  0
 11  5  1  1  0  0  0
 12 18  1  0  0  0  0
 13 17  1  0  0  0  0
 13 12  2  0  0  0  0
 14 18  1  0  0  0  0
 15 14  2  0  0  0  0
 16 15  1  0  0  0  0
 17 16  2  0  0  0  0
 20 21  2  0  0  0  0
 20 25  1  0  0  0  0
 21 24  1  0  0  0  0
 22 23  1  0  0  0  0
 22 19  1  0  0  0  0
 24 23  2  0  0  0  0
 25 22  2  0  0  0  0
 27 21  1  0  0  0  0
 27 26  2  0  0  0  0
 28 29  1  0  0  0  0
 28 27  1  0  0  0  0
 30 29  1  0  0  0  0
 31 30  1  0  0  0  0
 32 33  1  0  0  0  0
 33 31  1  0  0  0  0
 34 33  2  0  0  0  0
M  END
>  <MODEL>
5

>  <REMARK>
 VINA RESULT:      -6.2      1.102      1.642
  Name = 
  12 active torsions:
  status: ('A' for Active; 'I' for Inactive)
    1  A    between atoms: C_6  and  C_32
    2  A    between atoms: O_8  and  C_11
    3  A    between atoms: O_8  and  C_15
    4  A    between atoms: C_10  and  C_15
    5  A    between atoms: C_11  and  C_18
    6  A    between atoms: C_13  and  C_33
    7  A    between atoms: C_17  and  N_27
    8  A    between atoms: C_17  and  C_34
    9  A    between atoms: C_18  and  O_23
   10  A    between atoms: C_21  and  N_27
   11  A    between atoms: O_23  and  C_28
   12  A    between atoms: N_27  and  C_33
                            x       y       z     vdW  Elec       q    Type
                         _______ _______ _______ _____ _____    ______ ____

>  <TORSDO>
F 12

$$$$
=
 OpenBabel11072408273D

 34 37  0  0  1  0  0  0  0  0999 V2000
  187.2710  177.1140  142.5420 N   0  0  0  0  0  0  0  0  0  0  0  0
  186.0360  178.3960  141.0180 O   0  0  0  0  0  0  0  0  0  0  0  0
  186.8140  177.5430  140.2160 C   0  0  0  0  0  2  0  0  0  0  0  0
  186.2420  177.0900  141.5060 C   0  0  1  0  0  3  0  0  0  0  0  0
  186.8860  178.0370  143.6200 C   0  0  0  0  0  2  0  0  0  0  0  0
  186.6040  178.6800  148.2570 O   0  0  0  0  0  0  0  0  0  0  0  0
  185.0780  177.5090  145.3020 C   0  0  0  0  0  3  0  0  0  0  0  0
  186.3480  178.2220  147.1130 C   0  0  0  0  0  0  0  0  0  0  0  0
  185.0350  177.9380  146.6880 N   0  0  0  0  0  0  0  0  0  0  0  0
  187.3730  177.9620  146.0770 C   0  0  2  0  0  3  0  0  0  0  0  0
  186.5610  177.3380  144.9430 C   0  0  2  0  0  3  0  0  0  0  0  0
  190.8650  176.8380  146.1030 C   0  0  0  0  0  3  0  0  0  0  0  0
  191.0940  175.5280  146.1810 C   0  0  0  0  0  3  0  0  0  0  0  0
  188.4350  177.0180  146.5530 C   0  0  0  0  0  0  0  0  0  0  0  0
  188.0800  175.7540  146.7970 C   0  0  0  0  0  3  0  0  0  0  0  0
  188.9830  174.6720  147.2370 C   0  0  0  0  0  3  0  0  0  0  0  0
  190.2910  174.5730  146.9670 C   0  0  0  0  0  3  0  0  0  0  0  0
  189.8040  177.5270  146.8920 C   0  0  0  0  0  2  0  0  0  0  0  0
  187.4110  175.7650  143.0850 C   0  0  0  0  0  2  0  0  0  0  0  0
  190.4990  173.5830  143.2530 C   0  0  0  0  0  3  0  0  0  0  0  0
  191.4950  174.4510  142.7770 C   0  0  0  0  0  0  0  0  0  0  0  0
  188.8260  175.3130  142.9830 C   0  0  0  0  0  0  0  0  0  0  0  0
  189.8060  176.1800  142.4900 C   0  0  0  0  0  3  0  0  0  0  0  0
  191.1330  175.7490  142.3860 C   0  0  0  0  0  3  0  0  0  0  0  0
  189.1730  174.0120  143.3580 C   0  0  0  0  0  3  0  0  0  0  0  0
  193.3790  173.8310  141.4940 O   0  0  0  0  0  0  0  0  0  0  0  0
  192.8900  173.9600  142.6480 C   0  0  0  0  0  0  0  0  0  0  0  0
  193.7020  173.6380  143.7430 O   0  0  0  0  0  0  0  0  0  0  0  0
  194.1460  174.5770  144.7130 C   0  0  0  0  0  2  0  0  0  0  0  0
  195.6610  174.6300  144.7190 C   0  0  0  0  0  2  0  0  0  0  0  0
  196.1380  174.8160  143.3950 O   0  0  0  0  0  0  0  0  0  0  0  0
  197.3180  176.9200  143.1880 O   0  0  0  0  0  1  0  0  0  0  0  0
  196.2600  176.0870  142.8360 C   0  0  0  0  0  0  0  0  0  0  0  0
  195.4080  176.4800  141.9990 O   0  0  0  0  0  0  0  0  0  0  0  0
  1 19  1  0  0  0  0
  1  5  1  0  0  0  0
  2  4  1  0  0  0  0
  3  2  1  0  0  0  0
  3  4  1  0  0  0  0
  4  1  1  1  0  0  0
  7  9  2  0  0  0  0
  8  6  2  0  0  0  0
  9  8  1  0  0  0  0
 10 14  1  1  0  0  0
 10  8  1  0  0  0  0
 11  5  1  6  0  0  0
 11  7  1  0  0  0  0
 11 10  1  0  0  0  0
 12 13  2  0  0  0  0
 12 18  1  0  0  0  0
 13 17  1  0  0  0  0
 14 15  2  0  0  0  0
 14 18  1  0  0  0  0
 15 16  1  0  0  0  0
 17 16  2  0  0  0  0
 20 25  1  0  0  0  0
 21 20  2  0  0  0  0
 22 19  1  0  0  0  0
 22 25  2  0  0  0  0
 23 22  1  0  0  0  0
 24 23  2  0  0  0  0
 24 21  1  0  0  0  0
 26 27  2  0  0  0  0
 27 21  1  0  0  0  0
 27 28  1  0  0  0  0
 28 29  1  0  0  0  0
 29 30  1  0  0  0  0
 31 30  1  0  0  0  0
 33 32  1  0  0  0  0
 33 31  1  0  0  0  0
 34 33  2  0  0  0  0
M  END
>  <MODEL>
6

>  <REMARK>
 VINA RESULT:      -6.1      2.510      8.033
  Name = 
  12 active torsions:
  status: ('A' for Active; 'I' for Inactive)
    1  A    between atoms: C_6  and  C_32
    2  A    between atoms: O_8  and  C_11
    3  A    between atoms: O_8  and  C_15
    4  A    between atoms: C_10  and  C_15
    5  A    between atoms: C_11  and  C_18
    6  A    between atoms: C_13  and  C_33
    7  A    between atoms: C_17  and  N_27
    8  A    between atoms: C_17  and  C_34
    9  A    between atoms: C_18  and  O_23
   10  A    between atoms: C_21  and  N_27
   11  A    between atoms: O_23  and  C_28
   12  A    between atoms: N_27  and  C_33
                            x       y       z     vdW  Elec       q    Type
                         _______ _______ _______ _____ _____    ______ ____

>  <TORSDO>
F 12

$$$$
=
 OpenBabel11072408273D

 34 37  0  0  1  0  0  0  0  0999 V2000
  190.1080  174.1530  142.6220 N   0  0  0  0  0  0  0  0  0  0  0  0
  190.8160  172.0570  143.3930 O   0  0  0  0  0  0  0  0  0  0  0  0
  189.4720  172.1470  143.7940 C   0  0  0  0  0  2  0  0  0  0  0  0
  189.9370  172.7080  142.5040 C   0  0  1  0  0  3  0  0  0  0  0  0
  191.5290  174.5100  142.5000 C   0  0  0  0  0  2  0  0  0  0  0  0
  193.7460  175.7050  146.4550 O   0  0  0  0  0  0  0  0  0  0  0  0
  193.3460  176.1940  142.9870 C   0  0  0  0  0  3  0  0  0  0  0  0
  193.3190  175.7820  145.2740 C   0  0  0  0  0  0  0  0  0  0  0  0
  194.0870  176.3320  144.2270 N   0  0  0  0  0  0  0  0  0  0  0  0
  191.9960  175.2830  144.8370 C   0  0  2  0  0  3  0  0  0  0  0  0
  191.9420  175.7010  143.3680 C   0  0  2  0  0  3  0  0  0  0  0  0
  188.9930  174.9620  146.9180 C   0  0  0  0  0  3  0  0  0  0  0  0
  188.0210  175.8560  146.7470 C   0  0  0  0  0  3  0  0  0  0  0  0
  190.8720  175.9060  145.6080 C   0  0  0  0  0  0  0  0  0  0  0  0
  190.3760  177.0620  145.1600 C   0  0  0  0  0  3  0  0  0  0  0  0
  189.2510  177.8090  145.7590 C   0  0  0  0  0  3  0  0  0  0  0  0
  188.2280  177.2850  146.4460 C   0  0  0  0  0  3  0  0  0  0  0  0
  190.4400  175.3220  146.9190 C   0  0  0  0  0  2  0  0  0  0  0  0
  189.3530  174.7960  141.5490 C   0  0  0  0  0  2  0  0  0  0  0  0
  187.6140  178.0390  142.4380 C   0  0  0  0  0  3  0  0  0  0  0  0
  186.5090  177.5830  143.1760 C   0  0  0  0  0  0  0  0  0  0  0  0
  188.3700  175.7600  142.1170 C   0  0  0  0  0  0  0  0  0  0  0  0
  187.2640  175.2950  142.8350 C   0  0  0  0  0  3  0  0  0  0  0  0
  186.3390  176.2030  143.3600 C   0  0  0  0  0  3  0  0  0  0  0  0
  188.5400  177.1330  141.9130 C   0  0  0  0  0  3  0  0  0  0  0  0
  185.9430  179.5270  144.3940 O   0  0  0  0  0  0  0  0  0  0  0  0
  185.5250  178.5650  143.6970 C   0  0  0  0  0  0  0  0  0  0  0  0
  184.1480  178.4860  143.4490 O   0  0  0  0  0  0  0  0  0  0  0  0
  183.5780  178.2360  142.1720 C   0  0  0  0  0  2  0  0  0  0  0  0
  182.1290  178.6820  142.1600 C   0  0  0  0  0  2  0  0  0  0  0  0
  181.4280  178.0050  141.1280 O   0  0  0  0  0  0  0  0  0  0  0  0
  179.2300  178.2830  142.1030 O   0  0  0  0  0  1  0  0  0  0  0  0
  180.0470  178.1200  140.9880 C   0  0  0  0  0  0  0  0  0  0  0  0
  179.5340  178.0850  139.8390 O   0  0  0  0  0  0  0  0  0  0  0  0
  2  3  1  0  0  0  0
  4  1  1  1  0  0  0
  4  2  1  0  0  0  0
  4  3  1  0  0  0  0
  5  1  1  0  0  0  0
  7 11  1  0  0  0  0
  7  9  2  0  0  0  0
  8  6  2  0  0  0  0
  9  8  1  0  0  0  0
 10  8  1  0  0  0  0
 10 14  1  1  0  0  0
 11  5  1  6  0  0  0
 11 10  1  0  0  0  0
 12 18  1  0  0  0  0
 13 12  2  0  0  0  0
 14 18  1  0  0  0  0
 15 14  2  0  0  0  0
 15 16  1  0  0  0  0
 16 17  2  0  0  0  0
 17 13  1  0  0  0  0
 19 22  1  0  0  0  0
 19  1  1  0  0  0  0
 20 21  1  0  0  0  0
 21 24  2  0  0  0  0
 21 27  1  0  0  0  0
 22 23  2  0  0  0  0
 23 24  1  0  0  0  0
 25 22  1  0  0  0  0
 25 20  2  0  0  0  0
 27 26  2  0  0  0  0
 28 27  1  0  0  0  0
 29 28  1  0  0  0  0
 30 29  1  0  0  0  0
 31 30  1  0  0  0  0
 33 31  1  0  0  0  0
 33 32  1  0  0  0  0
 34 33  2  0  0  0  0
M  END
>  <MODEL>
7

>  <REMARK>
 VINA RESULT:      -6.1      2.177      4.680
  Name = 
  12 active torsions:
  status: ('A' for Active; 'I' for Inactive)
    1  A    between atoms: C_6  and  C_32
    2  A    between atoms: O_8  and  C_11
    3  A    between atoms: O_8  and  C_15
    4  A    between atoms: C_10  and  C_15
    5  A    between atoms: C_11  and  C_18
    6  A    between atoms: C_13  and  C_33
    7  A    between atoms: C_17  and  N_27
    8  A    between atoms: C_17  and  C_34
    9  A    between atoms: C_18  and  O_23
   10  A    between atoms: C_21  and  N_27
   11  A    between atoms: O_23  and  C_28
   12  A    between atoms: N_27  and  C_33
                            x       y       z     vdW  Elec       q    Type
                         _______ _______ _______ _____ _____    ______ ____

>  <TORSDO>
F 12

$$$$
=
 OpenBabel11072408273D

 34 37  0  0  1  0  0  0  0  0999 V2000
  191.2910  173.4340  142.6770 N   0  0  0  0  0  0  0  0  0  0  0  0
  191.5580  171.1190  142.9260 O   0  0  0  0  0  0  0  0  0  0  0  0
  190.2430  171.2770  142.4580 C   0  0  0  0  0  2  0  0  0  0  0  0
  191.3440  172.1480  141.9870 C   0  0  1  0  0  3  0  0  0  0  0  0
  192.5900  173.7330  143.2970 C   0  0  0  0  0  2  0  0  0  0  0  0
  194.2100  176.4050  146.7930 O   0  0  0  0  0  0  0  0  0  0  0  0
  194.0580  175.7870  143.3250 C   0  0  0  0  0  3  0  0  0  0  0  0
  193.8880  176.0580  145.6270 C   0  0  0  0  0  0  0  0  0  0  0  0
  194.6500  176.4110  144.4950 N   0  0  0  0  0  0  0  0  0  0  0  0
  192.7090  175.2220  145.3090 C   0  0  2  0  0  3  0  0  0  0  0  0
  192.7240  175.1790  143.7810 C   0  0  2  0  0  3  0  0  0  0  0  0
  189.3240  174.8500  146.6740 C   0  0  0  0  0  3  0  0  0  0  0  0
  188.4010  175.7300  146.2900 C   0  0  0  0  0  3  0  0  0  0  0  0
  191.4320  175.8260  145.8110 C   0  0  0  0  0  0  0  0  0  0  0  0
  191.0300  176.9750  145.2630 C   0  0  0  0  0  3  0  0  0  0  0  0
  189.7900  177.7040  145.5970 C   0  0  0  0  0  3  0  0  0  0  0  0
  188.6480  177.1630  146.0410 C   0  0  0  0  0  3  0  0  0  0  0  0
  190.7300  175.2320  146.9950 C   0  0  0  0  0  2  0  0  0  0  0  0
  190.9710  174.4700  141.6970 C   0  0  0  0  0  2  0  0  0  0  0  0
  188.3940  177.1640  142.3500 C   0  0  0  0  0  3  0  0  0  0  0  0
  187.2700  176.4070  142.7200 C   0  0  0  0  0  0  0  0  0  0  0  0
  189.6900  175.1400  142.0570 C   0  0  0  0  0  0  0  0  0  0  0  0
  188.5730  174.3760  142.4050 C   0  0  0  0  0  3  0  0  0  0  0  0
  187.3680  175.0080  142.7330 C   0  0  0  0  0  3  0  0  0  0  0  0
  189.5970  176.5340  142.0230 C   0  0  0  0  0  3  0  0  0  0  0  0
  185.2830  177.5150  142.0810 O   0  0  0  0  0  0  0  0  0  0  0  0
  185.9950  177.1000  143.0340 C   0  0  0  0  0  0  0  0  0  0  0  0
  185.5310  177.3140  144.3390 O   0  0  0  0  0  0  0  0  0  0  0  0
  185.3850  178.5950  144.9360 C   0  0  0  0  0  2  0  0  0  0  0  0
  184.0670  178.6660  145.6810 C   0  0  0  0  0  2  0  0  0  0  0  0
  184.3100  178.7560  147.0770 O   0  0  0  0  0  0  0  0  0  0  0  0
  186.4960  179.2020  148.0180 O   0  0  0  0  0  1  0  0  0  0  0  0
  185.5020  178.3030  147.6400 C   0  0  0  0  0  0  0  0  0  0  0  0
  185.6770  177.0700  147.8150 O   0  0  0  0  0  0  0  0  0  0  0  0
  1  5  1  0  0  0  0
  3  2  1  0  0  0  0
  4  3  1  0  0  0  0
  4  1  1  1  0  0  0
  4  2  1  0  0  0  0
  7 11  1  0  0  0  0
  7  9  2  0  0  0  0
  8  6  2  0  0  0  0
  9  8  1  0  0  0  0
 10  8  1  0  0  0  0
 10 14  1  6  0  0  0
 11  5  1  1  0  0  0
 11 10  1  0  0  0  0
 12 18  1  0  0  0  0
 13 12  2  0  0  0  0
 14 18  1  0  0  0  0
 15 16  1  0  0  0  0
 15 14  2  0  0  0  0
 16 17  2  0  0  0  0
 17 13  1  0  0  0  0
 19 22  1  0  0  0  0
 19  1  1  0  0  0  0
 20 21  1  0  0  0  0
 21 24  2  0  0  0  0
 21 27  1  0  0  0  0
 22 23  2  0  0  0  0
 23 24  1  0  0  0  0
 25 22  1  0  0  0  0
 25 20  2  0  0  0  0
 26 27  2  0  0  0  0
 27 28  1  0  0  0  0
 28 29  1  0  0  0  0
 29 30  1  0  0  0  0
 30 31  1  0  0  0  0
 31 33  1  0  0  0  0
 33 34  2  0  0  0  0
 33 32  1  0  0  0  0
M  END
>  <MODEL>
8

>  <REMARK>
 VINA RESULT:      -5.9      1.582      4.701
  Name = 
  12 active torsions:
  status: ('A' for Active; 'I' for Inactive)
    1  A    between atoms: C_6  and  C_32
    2  A    between atoms: O_8  and  C_11
    3  A    between atoms: O_8  and  C_15
    4  A    between atoms: C_10  and  C_15
    5  A    between atoms: C_11  and  C_18
    6  A    between atoms: C_13  and  C_33
    7  A    between atoms: C_17  and  N_27
    8  A    between atoms: C_17  and  C_34
    9  A    between atoms: C_18  and  O_23
   10  A    between atoms: C_21  and  N_27
   11  A    between atoms: O_23  and  C_28
   12  A    between atoms: N_27  and  C_33
                            x       y       z     vdW  Elec       q    Type
                         _______ _______ _______ _____ _____    ______ ____

>  <TORSDO>
F 12

$$$$
=
 OpenBabel11072408273D

 34 37  0  0  1  0  0  0  0  0999 V2000
  187.2680  176.5880  142.8540 N   0  0  0  0  0  0  0  0  0  0  0  0
  186.7170  178.6570  141.9030 O   0  0  0  0  0  0  0  0  0  0  0  0
  188.0090  178.3800  141.4250 C   0  0  0  0  0  2  0  0  0  0  0  0
  187.0030  177.3090  141.6120 C   0  0  1  0  0  3  0  0  0  0  0  0
  186.1560  176.7740  143.7970 C   0  0  0  0  0  2  0  0  0  0  0  0
  187.6530  178.6420  147.8290 O   0  0  0  0  0  0  0  0  0  0  0  0
  185.2970  176.6140  146.1660 C   0  0  0  0  0  3  0  0  0  0  0  0
  187.0430  177.8730  147.0410 C   0  0  0  0  0  0  0  0  0  0  0  0
  185.7410  177.4020  147.3010 N   0  0  0  0  0  0  0  0  0  0  0  0
  187.5940  177.4050  145.7500 C   0  0  2  0  0  3  0  0  0  0  0  0
  186.5160  176.4440  145.2480 C   0  0  2  0  0  3  0  0  0  0  0  0
  189.7720  175.1240  147.6240 C   0  0  0  0  0  3  0  0  0  0  0  0
  191.0750  175.3980  147.6550 C   0  0  0  0  0  3  0  0  0  0  0  0
  188.9030  176.6940  145.9150 C   0  0  0  0  0  0  0  0  0  0  0  0
  190.0060  177.3140  145.4870 C   0  0  0  0  0  3  0  0  0  0  0  0
  191.3840  176.7950  145.5930 C   0  0  0  0  0  3  0  0  0  0  0  0
  191.8490  175.9650  146.5350 C   0  0  0  0  0  3  0  0  0  0  0  0
  188.9370  175.2750  146.3970 C   0  0  0  0  0  2  0  0  0  0  0  0
  187.4070  175.1670  142.5420 C   0  0  0  0  0  2  0  0  0  0  0  0
  190.3290  173.0840  143.7460 C   0  0  0  0  0  3  0  0  0  0  0  0
  191.4260  173.8480  143.3190 C   0  0  0  0  0  0  0  0  0  0  0  0
  188.7990  174.7140  142.8150 C   0  0  0  0  0  0  0  0  0  0  0  0
  189.8840  175.4740  142.3690 C   0  0  0  0  0  3  0  0  0  0  0  0
  191.1910  175.0410  142.6190 C   0  0  0  0  0  3  0  0  0  0  0  0
  189.0230  173.5150  143.4970 C   0  0  0  0  0  3  0  0  0  0  0  0
  193.0790  172.8890  144.7080 O   0  0  0  0  0  0  0  0  0  0  0  0
  192.8030  173.3520  143.5690 C   0  0  0  0  0  0  0  0  0  0  0  0
  193.8180  173.3620  142.6030 O   0  0  0  0  0  0  0  0  0  0  0  0
  194.8100  174.3740  142.4960 C   0  0  0  0  0  2  0  0  0  0  0  0
  196.0630  173.9430  143.2320 C   0  0  0  0  0  2  0  0  0  0  0  0
  196.5140  174.9990  144.0680 O   0  0  0  0  0  0  0  0  0  0  0  0
  195.2610  175.0660  146.1380 O   0  0  0  0  0  1  0  0  0  0  0  0
  195.6500  175.6580  144.9400 C   0  0  0  0  0  0  0  0  0  0  0  0
  195.2240  176.8040  144.6430 O   0  0  0  0  0  0  0  0  0  0  0  0
  1  5  1  0  0  0  0
  3  4  1  0  0  0  0
  3  2  1  0  0  0  0
  4  2  1  0  0  0  0
  4  1  1  1  0  0  0
  7  9  2  0  0  0  0
  8  9  1  0  0  0  0
  8  6  2  0  0  0  0
 10 14  1  1  0  0  0
 10  8  1  0  0  0  0
 11  5  1  6  0  0  0
 11 10  1  0  0  0  0
 11  7  1  0  0  0  0
 12 13  2  0  0  0  0
 14 18  1  0  0  0  0
 15 16  1  0  0  0  0
 15 14  2  0  0  0  0
 16 17  2  0  0  0  0
 17 13  1  0  0  0  0
 18 12  1  0  0  0  0
 19 22  1  0  0  0  0
 19  1  1  0  0  0  0
 21 27  1  0  0  0  0
 21 20  2  0  0  0  0
 22 25  2  0  0  0  0
 23 24  2  0  0  0  0
 23 22  1  0  0  0  0
 24 21  1  0  0  0  0
 25 20  1  0  0  0  0
 27 26  2  0  0  0  0
 28 27  1  0  0  0  0
 29 28  1  0  0  0  0
 29 30  1  0  0  0  0
 30 31  1  0  0  0  0
 31 33  1  0  0  0  0
 33 32  1  0  0  0  0
 34 33  2  0  0  0  0
M  END
>  <MODEL>
9

>  <REMARK>
 VINA RESULT:      -5.9      2.405      7.779
  Name = 
  12 active torsions:
  status: ('A' for Active; 'I' for Inactive)
    1  A    between atoms: C_6  and  C_32
    2  A    between atoms: O_8  and  C_11
    3  A    between atoms: O_8  and  C_15
    4  A    between atoms: C_10  and  C_15
    5  A    between atoms: C_11  and  C_18
    6  A    between atoms: C_13  and  C_33
    7  A    between atoms: C_17  and  N_27
    8  A    between atoms: C_17  and  C_34
    9  A    between atoms: C_18  and  O_23
   10  A    between atoms: C_21  and  N_27
   11  A    between atoms: O_23  and  C_28
   12  A    between atoms: N_27  and  C_33
                            x       y       z     vdW  Elec       q    Type
                         _______ _______ _______ _____ _____    ______ ____

>  <TORSDO>
F 12

$$$$
