=
 OpenBabel11062421363D

 55 60  0  0  1  0  0  0  0  0999 V2000
  192.2510  175.7550  143.1810 C   0  0  0  0  0  2  0  0  0  0  0  0
  194.6300  175.2980  142.5380 C   0  0  1  0  0  3  0  0  0  0  0  0
  196.2510  176.5040  141.1970 O   0  0  0  0  0  1  0  0  0  0  0  0
  195.0720  174.7260  140.0570 C   0  0  2  0  0  0  0  0  0  0  0  0
  193.2220  175.6030  142.0190 C   0  0  1  0  0  3  0  0  0  0  0  0
  195.6520  175.2540  141.3870 C   0  0  2  0  0  3  0  0  0  0  0  0
  192.7430  174.4920  141.0700 C   0  0  0  0  0  2  0  0  0  0  0  0
  195.0240  176.2140  143.5200 O   0  0  0  0  0  1  0  0  0  0  0  0
  194.6400  175.7800  139.2670 F   0  0  0  0  0  0  0  0  0  0  0  0
  193.8850  173.7900  140.3190 C   0  0  0  0  0  2  0  0  0  0  0  0
  196.3700  173.8170  139.1620 P   0  0  1  0  0  0  0  0  0  0  0  0
  197.3220  174.8020  138.5200 O   0  0  0  0  0  0  0  0  0  0  0  0
  197.2250  172.8460  140.2510 O   0  0  0  0  0  1  0  0  0  0  0  0
  195.6330  172.8240  137.9070 N   0  0  0  0  0  2  0  0  0  0  0  0
  195.9670  171.4300  138.1750 C   0  0  0  0  0  2  0  0  0  0  0  0
  194.7990  170.5100  137.8460 C   0  0  0  0  0  2  0  0  0  0  0  0
  193.9110  170.3170  139.0660 C   0  0  0  0  0  2  0  0  0  0  0  0
  190.5850  173.5440  138.0980 C   0  0  0  0  0  1  0  0  0  0  0  0
  190.5910  171.8830  136.4380 C   0  0  0  0  0  2  0  0  0  0  0  0
  192.1290  169.6200  137.3590 C   0  0  0  0  0  2  0  0  0  0  0  0
  191.3940  170.5930  139.3740 C   0  0  0  0  0  0  0  0  0  0  0  0
  192.5260  170.1400  138.6530 N   0  0  0  0  0  0  0  0  0  0  0  0
  190.1780  170.5550  136.2070 O   0  0  0  0  0  0  0  0  0  0  0  0
  191.4700  171.1520  140.5010 O   0  0  0  0  0  0  0  0  0  0  0  0
  190.5930  169.7670  137.3060 C   0  0  2  0  0  3  0  0  0  0  0  0
  190.1200  170.3350  138.6670 C   0  0  2  0  0  3  0  0  0  0  0  0
  189.2790  171.6110  138.5020 C   0  0  0  0  0  2  0  0  0  0  0  0
  189.7580  172.5330  137.4560 N   0  0  0  0  0  0  0  0  0  0  0  0
  189.9850  176.2540  142.6210 O   0  0  0  0  0  1  0  0  0  0  0  0
  190.8630  175.1960  142.8770 C   0  0  2  0  0  3  0  0  0  0  0  0
  190.3720  174.4090  144.0920 C   0  0  1  0  0  3  0  0  0  0  0  0
  190.2080  172.9500  143.8070 C   0  0  0  0  0  0  0  0  0  0  0  0
  189.4480  172.5910  142.8630 O   0  0  0  0  0  0  0  0  0  0  0  0
  190.8960  171.9930  144.5650 O   0  0  0  0  0  0  0  0  0  0  0  0
  191.9090  171.1700  143.9950 C   0  0  0  0  0  2  0  0  0  0  0  0
  193.1430  171.9900  143.6460 C   0  0  0  0  0  2  0  0  0  0  0  0
  194.5660  172.9570  145.4230 C   0  0  0  0  0  1  0  0  0  0  0  0
  194.2770  171.7130  144.6140 C   0  0  0  0  0  2  0  0  0  0  0  0
  191.2630  174.6170  145.3190 C   0  0  0  0  0  2  0  0  0  0  0  0
  190.5000  175.3260  146.4270 C   0  0  0  0  0  2  0  0  0  0  0  0
  190.4680  176.8350  146.1800 C   0  0  2  0  0  3  0  0  0  0  0  0
  189.7210  177.5060  147.3140 C   0  0  0  0  0  2  0  0  0  0  0  0
  189.0750  177.4370  145.9420 C   0  0  2  0  0  3  0  0  0  0  0  0
  185.5100  176.7170  146.7730 C   0  0  0  0  0  2  0  0  0  0  0  0
  185.1990  179.6340  143.6520 C   0  0  0  0  0  2  0  0  0  0  0  0
  187.2190  176.4420  144.5740 C   0  0  0  0  0  2  0  0  0  0  0  0
  185.2930  177.5940  145.5720 C   0  0  0  0  0  0  0  0  0  0  0  0
  186.1360  177.4860  144.5230 C   0  0  0  0  0  0  0  0  0  0  0  0
  186.9950  176.7070  147.1440 C   0  0  0  0  0  2  0  0  0  0  0  0
  186.0130  178.3820  143.3120 C   0  0  1  0  0  3  0  0  0  0  0  0
  184.3020  178.7280  145.6540 C   0  0  0  0  0  2  0  0  0  0  0  0
  187.9290  176.4250  145.9430 C   0  0  2  0  0  3  0  0  0  0  0  0
  183.9640  179.2500  144.3330 N   0  0  0  0  0  2  0  0  0  0  0  0
  185.1890  178.4780  141.0660 O   0  0  0  0  0  1  0  0  0  0  0  0
  185.3400  177.6320  142.1670 C   0  0  0  0  0  2  0  0  0  0  0  0
  2  8  1  1  0  0  0
  4  9  1  6  0  0  0
  4 10  1  0  0  0  0
  4  6  1  0  0  0  0
  5  2  1  0  0  0  0
  5  1  1  1  0  0  0
  6  3  1  6  0  0  0
  6  2  1  0  0  0  0
  7  5  1  0  0  0  0
 10  7  1  0  0  0  0
 11 12  2  6  0  0  0
 11  4  1  0  0  0  0
 11 13  1  0  0  0  0
 14 15  1  0  0  0  0
 14 11  1  0  0  0  0
 16 15  1  0  0  0  0
 16 17  1  0  0  0  0
 19 28  1  0  0  0  0
 20 22  1  0  0  0  0
 21 24  2  0  0  0  0
 22 17  1  0  0  0  0
 22 21  1  0  0  0  0
 23 19  1  0  0  0  0
 23 25  1  0  0  0  0
 25 20  1  1  0  0  0
 25 26  1  0  0  0  0
 26 27  1  6  0  0  0
 26 21  1  0  0  0  0
 28 18  1  0  0  0  0
 28 27  1  0  0  0  0
 30 29  1  1  0  0  0
 30  1  1  0  0  0  0
 30 31  1  0  0  0  0
 31 39  1  1  0  0  0
 32 31  1  0  0  0  0
 32 34  1  0  0  0  0
 33 32  2  0  0  0  0
 35 34  1  0  0  0  0
 36 35  1  0  0  0  0
 36 38  1  0  0  0  0
 38 37  1  0  0  0  0
 39 40  1  0  0  0  0
 41 40  1  1  0  0  0
 41 42  1  0  0  0  0
 43 52  1  0  0  0  0
 43 41  1  0  0  0  0
 43 42  1  1  0  0  0
 44 49  1  0  0  0  0
 45 53  1  0  0  0  0
 47 51  1  0  0  0  0
 47 44  1  0  0  0  0
 48 46  1  0  0  0  0
 48 47  2  0  0  0  0
 50 55  1  6  0  0  0
 50 45  1  0  0  0  0
 50 48  1  0  0  0  0
 52 46  1  6  0  0  0
 52 49  1  0  0  0  0
 53 51  1  0  0  0  0
 54 55  1  0  0  0  0
M  END
>  <MODEL>
1

>  <REMARK>
 VINA RESULT:      -6.3      0.000      0.000
  Name = 
  19 active torsions:
  status: ('A' for Active; 'I' for Inactive)
    1  A    between atoms: C_2  and  N_33
    2  A    between atoms: C_2  and  C_54
    3  A    between atoms: C_3  and  C_14
    4  A    between atoms: C_3  and  C_44
    5  A    between atoms: P_4  and  N_15
    6  A    between atoms: P_4  and  C_23
    7  A    between atoms: C_8  and  C_14
    8  A    between atoms: C_9  and  O_32
    9  A    between atoms: C_9  and  C_44
   10  A    between atoms: N_15  and  C_35
   11  A    between atoms: C_24  and  C_40
   12  A    between atoms: C_25  and  C_51
   13  A    between atoms: C_28  and  C_39
   14  A    between atoms: C_30  and  C_40
   15  A    between atoms: C_30  and  C_44
   16  A    between atoms: C_31  and  O_32
   17  A    between atoms: C_31  and  C_49
   18  A    between atoms: C_35  and  C_54
   19  A    between atoms: C_48  and  C_49
                            x       y       z     vdW  Elec       q    Type
                         _______ _______ _______ _____ _____    ______ ____

>  <TORSDO>
F 19

$$$$
=
 OpenBabel11062421363D

 55 60  0  0  1  0  0  0  0  0999 V2000
  192.0130  176.4190  143.9390 C   0  0  0  0  0  2  0  0  0  0  0  0
  194.3060  175.4120  144.0340 C   0  0  1  0  0  3  0  0  0  0  0  0
  196.5320  176.3090  143.6900 O   0  0  0  0  0  1  0  0  0  0  0  0
  195.5620  175.1750  141.7870 C   0  0  2  0  0  0  0  0  0  0  0  0
  193.3100  176.1960  143.1750 C   0  0  1  0  0  3  0  0  0  0  0  0
  195.6660  175.2730  143.3250 C   0  0  2  0  0  3  0  0  0  0  0  0
  193.0280  175.4540  141.8590 C   0  0  0  0  0  2  0  0  0  0  0  0
  194.4590  175.9890  145.2980 O   0  0  0  0  0  1  0  0  0  0  0  0
  195.7000  176.4280  141.2120 F   0  0  0  0  0  0  0  0  0  0  0  0
  194.2050  174.5910  141.3740 C   0  0  0  0  0  2  0  0  0  0  0  0
  196.8930  174.0970  141.1690 P   0  0  1  0  0  0  0  0  0  0  0  0
  197.6650  174.8220  140.0880 O   0  0  0  0  0  0  0  0  0  0  0  0
  197.9410  173.7180  142.4410 O   0  0  0  0  0  1  0  0  0  0  0  0
  196.1940  172.6280  140.4950 N   0  0  0  0  0  2  0  0  0  0  0  0
  197.2850  171.7350  140.1220 C   0  0  0  0  0  2  0  0  0  0  0  0
  197.3480  170.5260  141.0460 C   0  0  0  0  0  2  0  0  0  0  0  0
  196.0860  169.6870  140.9140 C   0  0  0  0  0  2  0  0  0  0  0  0
  197.4760  171.0760  145.2210 C   0  0  0  0  0  1  0  0  0  0  0  0
  195.3020  171.8540  144.7960 C   0  0  0  0  0  2  0  0  0  0  0  0
  194.2290  170.4790  142.4960 C   0  0  0  0  0  2  0  0  0  0  0  0
  195.7960  168.9310  143.3330 C   0  0  0  0  0  0  0  0  0  0  0  0
  195.3760  169.6480  142.1860 N   0  0  0  0  0  0  0  0  0  0  0  0
  193.9640  171.4130  144.7460 O   0  0  0  0  0  0  0  0  0  0  0  0
  196.8130  168.1880  143.3510 O   0  0  0  0  0  0  0  0  0  0  0  0
  193.9220  170.2200  143.9860 C   0  0  2  0  0  3  0  0  0  0  0  0
  194.9100  169.1450  144.4990 C   0  0  2  0  0  3  0  0  0  0  0  0
  195.6880  169.6140  145.7400 C   0  0  0  0  0  2  0  0  0  0  0  0
  196.1050  171.0280  145.7050 N   0  0  0  0  0  0  0  0  0  0  0  0
  189.8160  176.3030  143.0130 O   0  0  0  0  0  1  0  0  0  0  0  0
  190.8780  175.5140  143.4680 C   0  0  2  0  0  3  0  0  0  0  0  0
  190.4090  174.6570  144.6450 C   0  0  1  0  0  3  0  0  0  0  0  0
  190.4310  173.1940  144.3380 C   0  0  0  0  0  0  0  0  0  0  0  0
  189.7140  172.4120  145.0250 O   0  0  0  0  0  0  0  0  0  0  0  0
  191.2250  172.6960  143.2960 O   0  0  0  0  0  0  0  0  0  0  0  0
  190.7350  171.7270  142.3750 C   0  0  0  0  0  2  0  0  0  0  0  0
  190.9000  172.2090  140.9400 C   0  0  0  0  0  2  0  0  0  0  0  0
  188.5670  172.9420  140.5690 C   0  0  0  0  0  1  0  0  0  0  0  0
  190.0050  173.4000  140.6550 C   0  0  0  0  0  2  0  0  0  0  0  0
  191.1960  174.9480  145.9250 C   0  0  0  0  0  2  0  0  0  0  0  0
  190.3120  175.6260  146.9600 C   0  0  0  0  0  2  0  0  0  0  0  0
  190.2310  177.1300  146.7000 C   0  0  2  0  0  3  0  0  0  0  0  0
  189.3490  177.7690  147.7520 C   0  0  0  0  0  2  0  0  0  0  0  0
  188.8400  177.6650  146.3270 C   0  0  2  0  0  3  0  0  0  0  0  0
  185.2550  176.7710  146.8400 C   0  0  0  0  0  2  0  0  0  0  0  0
  185.0800  179.6810  143.7020 C   0  0  0  0  0  2  0  0  0  0  0  0
  187.1620  176.5860  144.8000 C   0  0  0  0  0  2  0  0  0  0  0  0
  185.1030  177.6410  145.6240 C   0  0  0  0  0  0  0  0  0  0  0  0
  186.0390  177.5770  144.6540 C   0  0  0  0  0  0  0  0  0  0  0  0
  186.7000  176.8310  147.3400 C   0  0  0  0  0  2  0  0  0  0  0  0
  185.9800  178.4710  143.4360 C   0  0  1  0  0  3  0  0  0  0  0  0
  184.0550  178.7260  145.6180 C   0  0  0  0  0  2  0  0  0  0  0  0
  187.7490  176.5980  146.2270 C   0  0  2  0  0  3  0  0  0  0  0  0
  183.8100  179.2360  144.2720 N   0  0  0  0  0  2  0  0  0  0  0  0
  185.6040  178.4480  141.0720 O   0  0  0  0  0  1  0  0  0  0  0  0
  185.4480  177.6940  142.2370 C   0  0  0  0  0  2  0  0  0  0  0  0
  2  8  1  1  0  0  0
  4  9  1  6  0  0  0
  4  6  1  0  0  0  0
  5  1  1  1  0  0  0
  5  2  1  0  0  0  0
  6  3  1  6  0  0  0
  6  2  1  0  0  0  0
  7  5  1  0  0  0  0
 10  4  1  0  0  0  0
 10  7  1  0  0  0  0
 11 12  2  6  0  0  0
 11  4  1  0  0  0  0
 11 13  1  0  0  0  0
 14 11  1  0  0  0  0
 15 14  1  0  0  0  0
 15 16  1  0  0  0  0
 17 16  1  0  0  0  0
 17 22  1  0  0  0  0
 18 28  1  0  0  0  0
 19 28  1  0  0  0  0
 21 24  2  0  0  0  0
 21 26  1  0  0  0  0
 22 20  1  0  0  0  0
 22 21  1  0  0  0  0
 23 19  1  0  0  0  0
 25 20  1  6  0  0  0
 25 26  1  0  0  0  0
 25 23  1  0  0  0  0
 26 27  1  1  0  0  0
 28 27  1  0  0  0  0
 30 29  1  1  0  0  0
 30  1  1  0  0  0  0
 30 31  1  0  0  0  0
 31 39  1  1  0  0  0
 32 31  1  0  0  0  0
 32 33  2  0  0  0  0
 34 32  1  0  0  0  0
 35 34  1  0  0  0  0
 36 35  1  0  0  0  0
 37 38  1  0  0  0  0
 38 36  1  0  0  0  0
 39 40  1  0  0  0  0
 41 40  1  1  0  0  0
 41 42  1  0  0  0  0
 43 41  1  0  0  0  0
 43 42  1  1  0  0  0
 44 49  1  0  0  0  0
 45 53  1  0  0  0  0
 47 44  1  0  0  0  0
 48 46  1  0  0  0  0
 48 47  2  0  0  0  0
 50 55  1  6  0  0  0
 50 45  1  0  0  0  0
 50 48  1  0  0  0  0
 51 47  1  0  0  0  0
 52 46  1  6  0  0  0
 52 43  1  0  0  0  0
 52 49  1  0  0  0  0
 53 51  1  0  0  0  0
 54 55  1  0  0  0  0
M  END
>  <MODEL>
2

>  <REMARK>
 VINA RESULT:      -6.1      2.388      4.153
  Name = 
  19 active torsions:
  status: ('A' for Active; 'I' for Inactive)
    1  A    between atoms: C_2  and  N_33
    2  A    between atoms: C_2  and  C_54
    3  A    between atoms: C_3  and  C_14
    4  A    between atoms: C_3  and  C_44
    5  A    between atoms: P_4  and  N_15
    6  A    between atoms: P_4  and  C_23
    7  A    between atoms: C_8  and  C_14
    8  A    between atoms: C_9  and  O_32
    9  A    between atoms: C_9  and  C_44
   10  A    between atoms: N_15  and  C_35
   11  A    between atoms: C_24  and  C_40
   12  A    between atoms: C_25  and  C_51
   13  A    between atoms: C_28  and  C_39
   14  A    between atoms: C_30  and  C_40
   15  A    between atoms: C_30  and  C_44
   16  A    between atoms: C_31  and  O_32
   17  A    between atoms: C_31  and  C_49
   18  A    between atoms: C_35  and  C_54
   19  A    between atoms: C_48  and  C_49
                            x       y       z     vdW  Elec       q    Type
                         _______ _______ _______ _____ _____    ______ ____

>  <TORSDO>
F 19

$$$$
=
 OpenBabel11062421363D

 55 60  0  0  1  0  0  0  0  0999 V2000
  192.3780  176.8620  144.7130 C   0  0  0  0  0  2  0  0  0  0  0  0
  194.6980  176.0090  144.3010 C   0  0  1  0  0  3  0  0  0  0  0  0
  196.7250  177.0430  143.4640 O   0  0  0  0  0  1  0  0  0  0  0  0
  195.4380  175.8060  141.8330 C   0  0  2  0  0  0  0  0  0  0  0  0
  193.4850  176.7070  143.6810 C   0  0  1  0  0  3  0  0  0  0  0  0
  195.8740  175.9440  143.3090 C   0  0  2  0  0  3  0  0  0  0  0  0
  192.9690  175.9190  142.4660 C   0  0  0  0  0  2  0  0  0  0  0  0
  195.0880  176.6230  145.4960 O   0  0  0  0  0  1  0  0  0  0  0  0
  195.3580  177.0530  141.2340 F   0  0  0  0  0  0  0  0  0  0  0  0
  194.0660  175.1260  141.7370 C   0  0  0  0  0  2  0  0  0  0  0  0
  196.6700  174.8050  140.9420 P   0  0  1  0  0  0  0  0  0  0  0  0
  197.9410  175.6080  140.7720 O   0  0  0  0  0  0  0  0  0  0  0  0
  197.0080  173.4090  141.8340 O   0  0  0  0  0  1  0  0  0  0  0  0
  196.0400  174.3770  139.3530 N   0  0  0  0  0  2  0  0  0  0  0  0
  195.9700  172.9220  139.2690 C   0  0  0  0  0  2  0  0  0  0  0  0
  194.5250  172.4400  139.2590 C   0  0  0  0  0  2  0  0  0  0  0  0
  193.6300  173.4530  138.5590 C   0  0  0  0  0  2  0  0  0  0  0  0
  191.8110  169.1010  138.9680 C   0  0  0  0  0  1  0  0  0  0  0  0
  190.7270  170.5620  140.4530 C   0  0  0  0  0  2  0  0  0  0  0  0
  191.3630  173.2870  139.7470 C   0  0  0  0  0  2  0  0  0  0  0  0
  191.6100  172.1560  137.6960 C   0  0  0  0  0  0  0  0  0  0  0  0
  192.2410  173.0200  138.6240 N   0  0  0  0  0  0  0  0  0  0  0  0
  189.7590  171.5860  140.4810 O   0  0  0  0  0  0  0  0  0  0  0  0
  192.1820  171.7140  136.6630 O   0  0  0  0  0  0  0  0  0  0  0  0
  190.0640  172.5080  139.4520 C   0  0  2  0  0  3  0  0  0  0  0  0
  190.2140  171.8350  138.0660 C   0  0  2  0  0  3  0  0  0  0  0  0
  189.9640  170.3190  138.1260 C   0  0  0  0  0  2  0  0  0  0  0  0
  190.5110  169.6520  139.3210 N   0  0  0  0  0  0  0  0  0  0  0  0
  190.6340  178.3260  143.9970 O   0  0  0  0  0  1  0  0  0  0  0  0
  190.9890  176.9760  144.0890 C   0  0  2  0  0  3  0  0  0  0  0  0
  189.9850  176.2440  144.9800 C   0  0  1  0  0  3  0  0  0  0  0  0
  189.2340  177.1680  145.8830 C   0  0  0  0  0  0  0  0  0  0  0  0
  189.7490  177.5000  146.9880 O   0  0  0  0  0  0  0  0  0  0  0  0
  187.9820  177.6720  145.5050 O   0  0  0  0  0  0  0  0  0  0  0  0
  186.7950  177.3500  146.2230 C   0  0  0  0  0  2  0  0  0  0  0  0
  186.0900  178.6120  146.7020 C   0  0  0  0  0  2  0  0  0  0  0  0
  184.8060  178.0060  144.6770 C   0  0  0  0  0  1  0  0  0  0  0  0
  185.0900  179.1050  145.6760 C   0  0  0  0  0  2  0  0  0  0  0  0
  189.0150  175.3780  144.1720 C   0  0  0  0  0  2  0  0  0  0  0  0
  189.7720  174.4260  143.2590 C   0  0  0  0  0  2  0  0  0  0  0  0
  189.4380  172.9730  143.5970 C   0  0  2  0  0  3  0  0  0  0  0  0
  189.8330  172.6940  145.0320 C   0  0  0  0  0  2  0  0  0  0  0  0
  190.6430  172.0720  143.9100 C   0  0  2  0  0  3  0  0  0  0  0  0
  193.9980  172.6910  145.4190 C   0  0  0  0  0  2  0  0  0  0  0  0
  194.1150  168.5090  144.5010 C   0  0  0  0  0  2  0  0  0  0  0  0
  192.9560  171.8820  142.9510 C   0  0  0  0  0  2  0  0  0  0  0  0
  194.2040  171.2710  144.9760 C   0  0  0  0  0  0  0  0  0  0  0  0
  193.6750  170.8690  143.8010 C   0  0  0  0  0  0  0  0  0  0  0  0
  192.5360  173.0920  145.2060 C   0  0  0  0  0  2  0  0  0  0  0  0
  193.7910  169.4380  143.3270 C   0  0  1  0  0  3  0  0  0  0  0  0
  194.7820  170.2700  145.9460 C   0  0  0  0  0  2  0  0  0  0  0  0
  192.0040  172.7580  143.7920 C   0  0  2  0  0  3  0  0  0  0  0  0
  195.2310  169.0560  145.2700 N   0  0  0  0  0  2  0  0  0  0  0  0
  195.7710  170.3910  142.3780 O   0  0  0  0  0  1  0  0  0  0  0  0
  194.8810  169.3200  142.2680 C   0  0  0  0  0  2  0  0  0  0  0  0
  2  8  1  1  0  0  0
  4  9  1  6  0  0  0
  4  6  1  0  0  0  0
  5  2  1  0  0  0  0
  5  1  1  1  0  0  0
  6  3  1  6  0  0  0
  6  2  1  0  0  0  0
  7  5  1  0  0  0  0
 10  4  1  0  0  0  0
 10  7  1  0  0  0  0
 11 12  2  6  0  0  0
 11  4  1  0  0  0  0
 11 13  1  0  0  0  0
 14 11  1  0  0  0  0
 15 14  1  0  0  0  0
 16 15  1  0  0  0  0
 17 22  1  0  0  0  0
 17 16  1  0  0  0  0
 18 28  1  0  0  0  0
 19 23  1  0  0  0  0
 21 26  1  0  0  0  0
 21 22  1  0  0  0  0
 22 20  1  0  0  0  0
 24 21  2  0  0  0  0
 25 20  1  1  0  0  0
 25 23  1  0  0  0  0
 26 27  1  1  0  0  0
 26 25  1  0  0  0  0
 27 28  1  0  0  0  0
 28 19  1  0  0  0  0
 30 29  1  1  0  0  0
 30  1  1  0  0  0  0
 30 31  1  0  0  0  0
 31 39  1  6  0  0  0
 31 32  1  0  0  0  0
 32 33  2  0  0  0  0
 34 32  1  0  0  0  0
 34 35  1  0  0  0  0
 35 36  1  0  0  0  0
 37 38  1  0  0  0  0
 38 36  1  0  0  0  0
 40 39  1  0  0  0  0
 41 40  1  6  0  0  0
 41 43  1  0  0  0  0
 41 42  1  0  0  0  0
 43 42  1  1  0  0  0
 45 53  1  0  0  0  0
 46 48  1  0  0  0  0
 47 44  1  0  0  0  0
 47 51  1  0  0  0  0
 48 47  2  0  0  0  0
 49 44  1  0  0  0  0
 50 55  1  6  0  0  0
 50 48  1  0  0  0  0
 50 45  1  0  0  0  0
 52 46  1  1  0  0  0
 52 43  1  0  0  0  0
 52 49  1  0  0  0  0
 53 51  1  0  0  0  0
 55 54  1  0  0  0  0
M  END
>  <MODEL>
3

>  <REMARK>
 VINA RESULT:      -6.0      2.481      6.640
  Name = 
  19 active torsions:
  status: ('A' for Active; 'I' for Inactive)
    1  A    between atoms: C_2  and  N_33
    2  A    between atoms: C_2  and  C_54
    3  A    between atoms: C_3  and  C_14
    4  A    between atoms: C_3  and  C_44
    5  A    between atoms: P_4  and  N_15
    6  A    between atoms: P_4  and  C_23
    7  A    between atoms: C_8  and  C_14
    8  A    between atoms: C_9  and  O_32
    9  A    between atoms: C_9  and  C_44
   10  A    between atoms: N_15  and  C_35
   11  A    between atoms: C_24  and  C_40
   12  A    between atoms: C_25  and  C_51
   13  A    between atoms: C_28  and  C_39
   14  A    between atoms: C_30  and  C_40
   15  A    between atoms: C_30  and  C_44
   16  A    between atoms: C_31  and  O_32
   17  A    between atoms: C_31  and  C_49
   18  A    between atoms: C_35  and  C_54
   19  A    between atoms: C_48  and  C_49
                            x       y       z     vdW  Elec       q    Type
                         _______ _______ _______ _____ _____    ______ ____

>  <TORSDO>
F 19

$$$$
=
 OpenBabel11062421363D

 55 60  0  0  1  0  0  0  0  0999 V2000
  193.8340  176.4520  144.5370 C   0  0  0  0  0  2  0  0  0  0  0  0
  195.5240  174.9690  143.4270 C   0  0  1  0  0  3  0  0  0  0  0  0
  197.6850  175.3810  142.4100 O   0  0  0  0  0  1  0  0  0  0  0  0
  195.8200  175.2540  140.8760 C   0  0  2  0  0  0  0  0  0  0  0  0
  194.6490  176.2160  143.2730 C   0  0  1  0  0  3  0  0  0  0  0  0
  196.4410  174.7750  142.2060 C   0  0  2  0  0  3  0  0  0  0  0  0
  193.7150  176.0750  142.0600 C   0  0  0  0  0  2  0  0  0  0  0  0
  196.2690  175.0090  144.6110 O   0  0  0  0  0  1  0  0  0  0  0  0
  196.1990  176.5600  140.6090 F   0  0  0  0  0  0  0  0  0  0  0  0
  194.2890  175.1900  140.9410 C   0  0  0  0  0  2  0  0  0  0  0  0
  196.4100  174.1850  139.5260 P   0  0  1  0  0  0  0  0  0  0  0  0
  197.5250  174.8870  138.7800 O   0  0  0  0  0  0  0  0  0  0  0  0
  196.9990  172.7390  140.1740 O   0  0  0  0  0  1  0  0  0  0  0  0
  195.0850  173.8610  138.4120 N   0  0  0  0  0  2  0  0  0  0  0  0
  194.9570  175.0020  137.5130 C   0  0  0  0  0  2  0  0  0  0  0  0
  193.6170  174.9850  136.7900 C   0  0  0  0  0  2  0  0  0  0  0  0
  193.4970  173.7450  135.9160 C   0  0  0  0  0  2  0  0  0  0  0  0
  191.4670  172.6860  140.0600 C   0  0  0  0  0  1  0  0  0  0  0  0
  189.8670  173.5840  138.5950 C   0  0  0  0  0  2  0  0  0  0  0  0
  190.9360  173.6100  135.9130 C   0  0  0  0  0  2  0  0  0  0  0  0
  192.1250  171.8440  136.9220 C   0  0  0  0  0  0  0  0  0  0  0  0
  192.2450  173.0550  136.1970 N   0  0  0  0  0  0  0  0  0  0  0  0
  189.0830  173.2400  137.4740 O   0  0  0  0  0  0  0  0  0  0  0  0
  193.1150  171.1940  137.3510 O   0  0  0  0  0  0  0  0  0  0  0  0
  189.9240  172.6160  136.5230 C   0  0  2  0  0  3  0  0  0  0  0  0
  190.7190  171.4250  137.1120 C   0  0  2  0  0  3  0  0  0  0  0  0
  190.3830  171.1780  138.5920 C   0  0  0  0  0  2  0  0  0  0  0  0
  190.2040  172.4010  139.3950 N   0  0  0  0  0  0  0  0  0  0  0  0
  191.5830  177.0650  145.0390 O   0  0  0  0  0  1  0  0  0  0  0  0
  192.3550  176.1120  144.3670 C   0  0  2  0  0  3  0  0  0  0  0  0
  192.0950  174.7300  144.9650 C   0  0  1  0  0  3  0  0  0  0  0  0
  191.3570  174.7930  146.2650 C   0  0  0  0  0  0  0  0  0  0  0  0
  191.9480  175.2510  147.2830 O   0  0  0  0  0  0  0  0  0  0  0  0
  190.0260  174.3640  146.3510 O   0  0  0  0  0  0  0  0  0  0  0  0
  189.0810  175.0110  147.1970 C   0  0  0  0  0  2  0  0  0  0  0  0
  188.6190  176.3280  146.5880 C   0  0  0  0  0  2  0  0  0  0  0  0
  186.6530  177.7250  147.1390 C   0  0  0  0  0  1  0  0  0  0  0  0
  187.1060  176.4110  146.5440 C   0  0  0  0  0  2  0  0  0  0  0  0
  191.3750  173.7990  143.9860 C   0  0  0  0  0  2  0  0  0  0  0  0
  190.3640  174.5700  143.1530 C   0  0  0  0  0  2  0  0  0  0  0  0
  188.9440  174.0780  143.4340 C   0  0  2  0  0  3  0  0  0  0  0  0
  188.2800  173.7040  142.1250 C   0  0  0  0  0  2  0  0  0  0  0  0
  187.8150  174.9480  142.8590 C   0  0  2  0  0  3  0  0  0  0  0  0
  187.2260  177.3880  140.1000 C   0  0  0  0  0  2  0  0  0  0  0  0
  183.9120  178.0850  142.7230 C   0  0  0  0  0  2  0  0  0  0  0  0
  187.7470  177.4590  142.8490 C   0  0  0  0  0  2  0  0  0  0  0  0
  186.1350  177.8300  141.0340 C   0  0  0  0  0  0  0  0  0  0  0  0
  186.3740  177.8340  142.3630 C   0  0  0  0  0  0  0  0  0  0  0  0
  187.8800  176.1120  140.6360 C   0  0  0  0  0  2  0  0  0  0  0  0
  185.2990  178.2050  143.3600 C   0  0  1  0  0  3  0  0  0  0  0  0
  184.7390  178.0280  140.4990 C   0  0  0  0  0  2  0  0  0  0  0  0
  188.2840  176.2050  142.1270 C   0  0  2  0  0  3  0  0  0  0  0  0
  183.9000  178.7730  141.4330 N   0  0  0  0  0  2  0  0  0  0  0  0
  184.9850  179.7720  145.1420 O   0  0  0  0  0  1  0  0  0  0  0  0
  185.5110  179.6310  143.8560 C   0  0  0  0  0  2  0  0  0  0  0  0
  2  8  1  1  0  0  0
  4  9  1  6  0  0  0
  4 10  1  0  0  0  0
  4  6  1  0  0  0  0
  5  2  1  0  0  0  0
  5  1  1  1  0  0  0
  6  3  1  1  0  0  0
  6  2  1  0  0  0  0
  7  5  1  0  0  0  0
 10  7  1  0  0  0  0
 11 12  2  6  0  0  0
 11 13  1  0  0  0  0
 11  4  1  0  0  0  0
 14 11  1  0  0  0  0
 15 14  1  0  0  0  0
 16 15  1  0  0  0  0
 17 22  1  0  0  0  0
 17 16  1  0  0  0  0
 19 28  1  0  0  0  0
 20 22  1  0  0  0  0
 21 26  1  0  0  0  0
 21 24  2  0  0  0  0
 22 21  1  0  0  0  0
 23 19  1  0  0  0  0
 25 20  1  1  0  0  0
 25 26  1  0  0  0  0
 25 23  1  0  0  0  0
 26 27  1  1  0  0  0
 27 28  1  0  0  0  0
 28 18  1  0  0  0  0
 30  1  1  0  0  0  0
 30 31  1  0  0  0  0
 30 29  1  1  0  0  0
 31 39  1  6  0  0  0
 31 32  1  0  0  0  0
 32 34  1  0  0  0  0
 32 33  2  0  0  0  0
 34 35  1  0  0  0  0
 36 35  1  0  0  0  0
 38 36  1  0  0  0  0
 38 37  1  0  0  0  0
 40 39  1  0  0  0  0
 41 40  1  6  0  0  0
 42 41  1  0  0  0  0
 43 42  1  6  0  0  0
 43 41  1  0  0  0  0
 44 49  1  0  0  0  0
 44 47  1  0  0  0  0
 45 50  1  0  0  0  0
 47 48  2  0  0  0  0
 48 46  1  0  0  0  0
 48 50  1  0  0  0  0
 50 55  1  6  0  0  0
 51 47  1  0  0  0  0
 51 53  1  0  0  0  0
 52 49  1  6  0  0  0
 52 46  1  0  0  0  0
 52 43  1  0  0  0  0
 53 45  1  0  0  0  0
 55 54  1  0  0  0  0
M  END
>  <MODEL>
4

>  <REMARK>
 VINA RESULT:      -5.7      2.112      3.825
  Name = 
  19 active torsions:
  status: ('A' for Active; 'I' for Inactive)
    1  A    between atoms: C_2  and  N_33
    2  A    between atoms: C_2  and  C_54
    3  A    between atoms: C_3  and  C_14
    4  A    between atoms: C_3  and  C_44
    5  A    between atoms: P_4  and  N_15
    6  A    between atoms: P_4  and  C_23
    7  A    between atoms: C_8  and  C_14
    8  A    between atoms: C_9  and  O_32
    9  A    between atoms: C_9  and  C_44
   10  A    between atoms: N_15  and  C_35
   11  A    between atoms: C_24  and  C_40
   12  A    between atoms: C_25  and  C_51
   13  A    between atoms: C_28  and  C_39
   14  A    between atoms: C_30  and  C_40
   15  A    between atoms: C_30  and  C_44
   16  A    between atoms: C_31  and  O_32
   17  A    between atoms: C_31  and  C_49
   18  A    between atoms: C_35  and  C_54
   19  A    between atoms: C_48  and  C_49
                            x       y       z     vdW  Elec       q    Type
                         _______ _______ _______ _____ _____    ______ ____

>  <TORSDO>
F 19

$$$$
=
 OpenBabel11062421363D

 55 60  0  0  1  0  0  0  0  0999 V2000
  192.0620  174.6680  143.3850 C   0  0  0  0  0  2  0  0  0  0  0  0
  192.2850  172.1840  143.1330 C   0  0  1  0  0  3  0  0  0  0  0  0
  193.6860  170.5230  144.2080 O   0  0  0  0  0  1  0  0  0  0  0  0
  194.4730  171.3190  142.0640 C   0  0  2  0  0  0  0  0  0  0  0  0
  193.0250  173.5240  143.1040 C   0  0  1  0  0  3  0  0  0  0  0  0
  193.2590  171.0030  142.9650 C   0  0  2  0  0  3  0  0  0  0  0  0
  193.7140  173.7330  141.7460 C   0  0  0  0  0  2  0  0  0  0  0  0
  191.5250  172.0430  144.2990 O   0  0  0  0  0  1  0  0  0  0  0  0
  195.5480  171.7410  142.8310 F   0  0  0  0  0  0  0  0  0  0  0  0
  194.1250  172.4220  141.0560 C   0  0  0  0  0  2  0  0  0  0  0  0
  194.9520  169.8100  141.1640 P   0  0  1  0  0  0  0  0  0  0  0  0
  195.9910  169.0560  141.9650 O   0  0  0  0  0  1  0  0  0  0  0  0
  193.5910  168.8290  140.9540 O   0  0  0  0  0  0  0  0  0  0  0  0
  195.6350  170.2510  139.6020 N   0  0  0  0  0  2  0  0  0  0  0  0
  194.8950  169.5400  138.5650 C   0  0  0  0  0  2  0  0  0  0  0  0
  193.9200  170.4680  137.8510 C   0  0  0  0  0  2  0  0  0  0  0  0
  192.7320  169.6820  137.3140 C   0  0  0  0  0  2  0  0  0  0  0  0
  190.5130  173.1230  139.6900 C   0  0  0  0  0  1  0  0  0  0  0  0
  191.1450  173.9000  137.5660 C   0  0  0  0  0  2  0  0  0  0  0  0
  191.8880  171.6550  135.9110 C   0  0  0  0  0  2  0  0  0  0  0  0
  190.3900  170.6840  137.4480 C   0  0  0  0  0  0  0  0  0  0  0  0
  191.6850  170.5960  136.8790 N   0  0  0  0  0  0  0  0  0  0  0  0
  190.7750  173.8190  136.2090 O   0  0  0  0  0  0  0  0  0  0  0  0
  189.9850  169.9220  138.3660 O   0  0  0  0  0  0  0  0  0  0  0  0
  190.5680  172.4560  135.8900 C   0  0  2  0  0  3  0  0  0  0  0  0
  189.5710  171.7590  136.8470 C   0  0  2  0  0  3  0  0  0  0  0  0
  189.0100  172.7230  137.9050 C   0  0  0  0  0  2  0  0  0  0  0  0
  189.9940  173.6770  138.4490 N   0  0  0  0  0  0  0  0  0  0  0  0
  193.4050  176.6080  143.7470 O   0  0  0  0  0  1  0  0  0  0  0  0
  192.6020  175.6690  144.4030 C   0  0  2  0  0  3  0  0  0  0  0  0
  193.4400  174.9160  145.4380 C   0  0  1  0  0  3  0  0  0  0  0  0
  194.6530  175.6790  145.8640 C   0  0  0  0  0  0  0  0  0  0  0  0
  194.5050  176.7530  146.5140 O   0  0  0  0  0  0  0  0  0  0  0  0
  195.9360  175.2070  145.5590 O   0  0  0  0  0  0  0  0  0  0  0  0
  196.2860  174.7720  144.2490 C   0  0  0  0  0  2  0  0  0  0  0  0
  196.9460  175.8960  143.4620 C   0  0  0  0  0  2  0  0  0  0  0  0
  195.9880  176.6490  141.3090 C   0  0  0  0  0  1  0  0  0  0  0  0
  196.8860  175.6290  141.9710 C   0  0  0  0  0  2  0  0  0  0  0  0
  192.6160  174.4950  146.6570 C   0  0  0  0  0  2  0  0  0  0  0  0
  191.4790  175.4730  146.9040 C   0  0  0  0  0  2  0  0  0  0  0  0
  190.1860  174.7260  147.2370 C   0  0  2  0  0  3  0  0  0  0  0  0
  189.6080  174.1450  145.9640 C   0  0  0  0  0  2  0  0  0  0  0  0
  188.9050  175.3150  146.6270 C   0  0  2  0  0  3  0  0  0  0  0  0
  187.7930  177.4400  143.7690 C   0  0  0  0  0  2  0  0  0  0  0  0
  184.4850  177.6690  146.4800 C   0  0  0  0  0  2  0  0  0  0  0  0
  188.3720  177.7660  146.4870 C   0  0  0  0  0  2  0  0  0  0  0  0
  186.6670  177.7280  144.7200 C   0  0  0  0  0  0  0  0  0  0  0  0
  186.9390  177.8530  146.0370 C   0  0  0  0  0  0  0  0  0  0  0  0
  188.6880  176.3390  144.3450 C   0  0  0  0  0  2  0  0  0  0  0  0
  185.8440  178.0790  147.0550 C   0  0  1  0  0  3  0  0  0  0  0  0
  185.2430  177.6340  144.2310 C   0  0  0  0  0  2  0  0  0  0  0  0
  189.1110  176.5920  145.8110 C   0  0  2  0  0  3  0  0  0  0  0  0
  184.3080  178.2650  145.1570 N   0  0  0  0  0  2  0  0  0  0  0  0
  186.6540  179.7620  148.5520 O   0  0  0  0  0  1  0  0  0  0  0  0
  185.8020  179.5460  147.4660 C   0  0  0  0  0  2  0  0  0  0  0  0
  1 30  1  0  0  0  0
  2  8  1  1  0  0  0
  4  9  1  1  0  0  0
  4  6  1  0  0  0  0
  5  2  1  0  0  0  0
  5  1  1  6  0  0  0
  6  2  1  0  0  0  0
  6  3  1  1  0  0  0
  7  5  1  0  0  0  0
 10  7  1  0  0  0  0
 10  4  1  0  0  0  0
 11 13  2  6  0  0  0
 11 12  1  0  0  0  0
 11  4  1  0  0  0  0
 14 11  1  0  0  0  0
 15 14  1  0  0  0  0
 16 15  1  0  0  0  0
 17 16  1  0  0  0  0
 19 28  1  0  0  0  0
 20 22  1  0  0  0  0
 21 24  2  0  0  0  0
 22 17  1  0  0  0  0
 22 21  1  0  0  0  0
 23 19  1  0  0  0  0
 25 20  1  1  0  0  0
 25 23  1  0  0  0  0
 25 26  1  0  0  0  0
 26 21  1  0  0  0  0
 26 27  1  1  0  0  0
 27 28  1  0  0  0  0
 28 18  1  0  0  0  0
 30 29  1  6  0  0  0
 30 31  1  0  0  0  0
 31 32  1  0  0  0  0
 31 39  1  1  0  0  0
 32 33  2  0  0  0  0
 34 32  1  0  0  0  0
 35 34  1  0  0  0  0
 36 35  1  0  0  0  0
 37 38  1  0  0  0  0
 38 36  1  0  0  0  0
 39 40  1  0  0  0  0
 41 40  1  6  0  0  0
 42 41  1  0  0  0  0
 43 42  1  6  0  0  0
 43 41  1  0  0  0  0
 44 49  1  0  0  0  0
 44 47  1  0  0  0  0
 45 50  1  0  0  0  0
 47 48  2  0  0  0  0
 48 46  1  0  0  0  0
 48 50  1  0  0  0  0
 50 55  1  6  0  0  0
 51 47  1  0  0  0  0
 51 53  1  0  0  0  0
 52 49  1  6  0  0  0
 52 46  1  0  0  0  0
 52 43  1  0  0  0  0
 53 45  1  0  0  0  0
 55 54  1  0  0  0  0
M  END
>  <MODEL>
5

>  <REMARK>
 VINA RESULT:      -5.7      2.482      3.888
  Name = 
  19 active torsions:
  status: ('A' for Active; 'I' for Inactive)
    1  A    between atoms: C_2  and  N_33
    2  A    between atoms: C_2  and  C_54
    3  A    between atoms: C_3  and  C_14
    4  A    between atoms: C_3  and  C_44
    5  A    between atoms: P_4  and  N_15
    6  A    between atoms: P_4  and  C_23
    7  A    between atoms: C_8  and  C_14
    8  A    between atoms: C_9  and  O_32
    9  A    between atoms: C_9  and  C_44
   10  A    between atoms: N_15  and  C_35
   11  A    between atoms: C_24  and  C_40
   12  A    between atoms: C_25  and  C_51
   13  A    between atoms: C_28  and  C_39
   14  A    between atoms: C_30  and  C_40
   15  A    between atoms: C_30  and  C_44
   16  A    between atoms: C_31  and  O_32
   17  A    between atoms: C_31  and  C_49
   18  A    between atoms: C_35  and  C_54
   19  A    between atoms: C_48  and  C_49
                            x       y       z     vdW  Elec       q    Type
                         _______ _______ _______ _____ _____    ______ ____

>  <TORSDO>
F 19

$$$$
=
 OpenBabel11062421363D

 55 60  0  0  1  0  0  0  0  0999 V2000
  188.5900  172.6220  140.2870 C   0  0  0  0  0  2  0  0  0  0  0  0
  190.5200  172.4450  141.8750 C   0  0  1  0  0  3  0  0  0  0  0  0
  190.6800  172.0250  144.2580 O   0  0  0  0  0  1  0  0  0  0  0  0
  190.7800  174.3510  143.6020 C   0  0  2  0  0  0  0  0  0  0  0  0
  189.1960  173.1540  141.5770 C   0  0  1  0  0  3  0  0  0  0  0  0
  191.0960  172.8840  143.2340 C   0  0  2  0  0  3  0  0  0  0  0  0
  189.4050  174.6740  141.4780 C   0  0  0  0  0  2  0  0  0  0  0  0
  190.3820  171.0550  141.8170 O   0  0  0  0  0  1  0  0  0  0  0  0
  189.6320  174.4200  144.3750 F   0  0  0  0  0  0  0  0  0  0  0  0
  190.5710  175.1910  142.3350 C   0  0  0  0  0  2  0  0  0  0  0  0
  192.1710  175.0360  144.5560 P   0  0  1  0  0  0  0  0  0  0  0  0
  193.4230  174.2400  144.2610 O   0  0  0  0  0  1  0  0  0  0  0  0
  192.4170  176.6470  144.1070 O   0  0  0  0  0  0  0  0  0  0  0  0
  191.8100  174.9300  146.2770 N   0  0  0  0  0  2  0  0  0  0  0  0
  191.7890  176.2840  146.8210 C   0  0  0  0  0  2  0  0  0  0  0  0
  190.5330  176.5240  147.6480 C   0  0  0  0  0  2  0  0  0  0  0  0
  189.7620  177.7210  147.1120 C   0  0  0  0  0  2  0  0  0  0  0  0
  185.2410  178.8370  146.2570 C   0  0  0  0  0  1  0  0  0  0  0  0
  186.4930  179.0100  144.2780 C   0  0  0  0  0  2  0  0  0  0  0  0
  189.0480  177.7190  144.6480 C   0  0  0  0  0  2  0  0  0  0  0  0
  187.6730  176.5850  146.1890 C   0  0  0  0  0  0  0  0  0  0  0  0
  188.8820  177.3040  146.0280 N   0  0  0  0  0  0  0  0  0  0  0  0
  187.0810  178.2150  143.2730 O   0  0  0  0  0  0  0  0  0  0  0  0
  187.2580  176.1690  147.3040 O   0  0  0  0  0  0  0  0  0  0  0  0
  187.8100  177.1780  143.9020 C   0  0  2  0  0  3  0  0  0  0  0  0
  186.9570  176.3710  144.9110 C   0  0  2  0  0  3  0  0  0  0  0  0
  185.5030  176.8660  144.9710 C   0  0  0  0  0  2  0  0  0  0  0  0
  185.3490  178.3300  144.8970 N   0  0  0  0  0  0  0  0  0  0  0  0
  188.0680  173.3450  138.0720 O   0  0  0  0  0  1  0  0  0  0  0  0
  189.0710  173.3720  139.0470 C   0  0  2  0  0  3  0  0  0  0  0  0
  190.3250  172.6810  138.5090 C   0  0  1  0  0  3  0  0  0  0  0  0
  190.0100  171.5930  137.5330 C   0  0  0  0  0  0  0  0  0  0  0  0
  190.2440  171.7830  136.3060 O   0  0  0  0  0  0  0  0  0  0  0  0
  189.4740  170.3750  137.9710 O   0  0  0  0  0  0  0  0  0  0  0  0
  190.2070  169.1570  137.8830 C   0  0  0  0  0  2  0  0  0  0  0  0
  191.1950  169.0330  139.0340 C   0  0  0  0  0  2  0  0  0  0  0  0
  193.2370  169.8820  137.9270 C   0  0  0  0  0  1  0  0  0  0  0  0
  192.5770  168.6640  138.5320 C   0  0  0  0  0  2  0  0  0  0  0  0
  191.3200  173.6730  137.9020 C   0  0  0  0  0  2  0  0  0  0  0  0
  192.7110  173.4640  138.4780 C   0  0  0  0  0  2  0  0  0  0  0  0
  192.8740  174.2330  139.7890 C   0  0  2  0  0  3  0  0  0  0  0  0
  194.2990  174.7350  139.8950 C   0  0  0  0  0  2  0  0  0  0  0  0
  193.8430  173.6110  140.8060 C   0  0  2  0  0  3  0  0  0  0  0  0
  196.7970  171.3350  140.9130 C   0  0  0  0  0  2  0  0  0  0  0  0
  195.4190  171.3120  144.9690 C   0  0  0  0  0  2  0  0  0  0  0  0
  194.0360  171.1640  141.3380 C   0  0  0  0  0  2  0  0  0  0  0  0
  196.2900  171.1190  142.3110 C   0  0  0  0  0  0  0  0  0  0  0  0
  194.9580  171.0690  142.5230 C   0  0  0  0  0  0  0  0  0  0  0  0
  196.0000  172.4560  140.2420 C   0  0  0  0  0  2  0  0  0  0  0  0
  194.3820  170.9190  143.9130 C   0  0  1  0  0  3  0  0  0  0  0  0
  197.2550  171.2020  143.4680 C   0  0  0  0  0  2  0  0  0  0  0  0
  194.4670  172.2850  140.3700 C   0  0  2  0  0  3  0  0  0  0  0  0
  196.6860  170.6400  144.6900 N   0  0  0  0  0  2  0  0  0  0  0  0
  192.5530  169.3760  143.9890 O   0  0  0  0  0  1  0  0  0  0  0  0
  193.9370  169.4790  144.1460 C   0  0  0  0  0  2  0  0  0  0  0  0
  2  8  1  1  0  0  0
  2  6  1  0  0  0  0
  4  9  1  1  0  0  0
  4 11  1  0  0  0  0
  5  1  1  6  0  0  0
  5  2  1  0  0  0  0
  6  4  1  0  0  0  0
  6  3  1  1  0  0  0
  7  5  1  0  0  0  0
  7 10  1  0  0  0  0
 10  4  1  0  0  0  0
 11 13  2  6  0  0  0
 11 14  1  0  0  0  0
 12 11  1  0  0  0  0
 14 15  1  0  0  0  0
 15 16  1  0  0  0  0
 17 16  1  0  0  0  0
 19 28  1  0  0  0  0
 20 22  1  0  0  0  0
 21 24  2  0  0  0  0
 22 21  1  0  0  0  0
 22 17  1  0  0  0  0
 23 25  1  0  0  0  0
 23 19  1  0  0  0  0
 25 20  1  1  0  0  0
 25 26  1  0  0  0  0
 26 27  1  1  0  0  0
 26 21  1  0  0  0  0
 28 27  1  0  0  0  0
 28 18  1  0  0  0  0
 30 29  1  6  0  0  0
 30  1  1  0  0  0  0
 31 39  1  6  0  0  0
 31 30  1  0  0  0  0
 32 34  1  0  0  0  0
 32 31  1  0  0  0  0
 33 32  2  0  0  0  0
 35 34  1  0  0  0  0
 35 36  1  0  0  0  0
 37 38  1  0  0  0  0
 38 36  1  0  0  0  0
 39 40  1  0  0  0  0
 41 40  1  6  0  0  0
 41 42  1  0  0  0  0
 41 43  1  0  0  0  0
 43 42  1  6  0  0  0
 44 47  1  0  0  0  0
 46 48  1  0  0  0  0
 47 48  2  0  0  0  0
 47 51  1  0  0  0  0
 48 50  1  0  0  0  0
 49 44  1  0  0  0  0
 50 55  1  1  0  0  0
 50 45  1  0  0  0  0
 51 53  1  0  0  0  0
 52 49  1  1  0  0  0
 52 43  1  0  0  0  0
 52 46  1  0  0  0  0
 53 45  1  0  0  0  0
 54 55  1  0  0  0  0
M  END
>  <MODEL>
6

>  <REMARK>
 VINA RESULT:      -5.6      3.078      9.315
  Name = 
  19 active torsions:
  status: ('A' for Active; 'I' for Inactive)
    1  A    between atoms: C_2  and  N_33
    2  A    between atoms: C_2  and  C_54
    3  A    between atoms: C_3  and  C_14
    4  A    between atoms: C_3  and  C_44
    5  A    between atoms: P_4  and  N_15
    6  A    between atoms: P_4  and  C_23
    7  A    between atoms: C_8  and  C_14
    8  A    between atoms: C_9  and  O_32
    9  A    between atoms: C_9  and  C_44
   10  A    between atoms: N_15  and  C_35
   11  A    between atoms: C_24  and  C_40
   12  A    between atoms: C_25  and  C_51
   13  A    between atoms: C_28  and  C_39
   14  A    between atoms: C_30  and  C_40
   15  A    between atoms: C_30  and  C_44
   16  A    between atoms: C_31  and  O_32
   17  A    between atoms: C_31  and  C_49
   18  A    between atoms: C_35  and  C_54
   19  A    between atoms: C_48  and  C_49
                            x       y       z     vdW  Elec       q    Type
                         _______ _______ _______ _____ _____    ______ ____

>  <TORSDO>
F 19

$$$$
=
 OpenBabel11062421363D

 55 60  0  0  1  0  0  0  0  0999 V2000
  195.0080  174.2750  142.6410 C   0  0  0  0  0  2  0  0  0  0  0  0
  195.8440  173.1710  140.5510 C   0  0  1  0  0  3  0  0  0  0  0  0
  197.8560  173.4320  139.2240 O   0  0  0  0  0  1  0  0  0  0  0  0
  195.9150  174.6290  138.4190 C   0  0  2  0  0  0  0  0  0  0  0  0
  195.5070  174.5060  141.2220 C   0  0  1  0  0  3  0  0  0  0  0  0
  196.4590  173.3860  139.1570 C   0  0  2  0  0  3  0  0  0  0  0  0
  194.4520  175.2710  140.4070 C   0  0  0  0  0  2  0  0  0  0  0  0
  196.6840  172.3920  141.3530 O   0  0  0  0  0  1  0  0  0  0  0  0
  196.7330  175.7240  138.6470 F   0  0  0  0  0  0  0  0  0  0  0  0
  194.4980  174.9660  138.9010 C   0  0  0  0  0  2  0  0  0  0  0  0
  195.8770  174.2890  136.6310 P   0  0  1  0  0  0  0  0  0  0  0  0
  197.1880  174.7200  136.0090 O   0  0  0  0  0  0  0  0  0  0  0  0
  195.6630  172.6300  136.3820 O   0  0  0  0  0  1  0  0  0  0  0  0
  194.5600  175.1930  135.8890 N   0  0  0  0  0  2  0  0  0  0  0  0
  193.9490  174.3510  134.8670 C   0  0  0  0  0  2  0  0  0  0  0  0
  192.4300  174.4570  134.9020 C   0  0  0  0  0  2  0  0  0  0  0  0
  191.9550  174.8590  136.2900 C   0  0  0  0  0  2  0  0  0  0  0  0
  191.2500  173.2390  140.6830 C   0  0  0  0  0  1  0  0  0  0  0  0
  189.1910  173.7820  139.6930 C   0  0  0  0  0  2  0  0  0  0  0  0
  189.5610  174.1320  136.8510 C   0  0  0  0  0  2  0  0  0  0  0  0
  191.3130  172.6630  137.4190 C   0  0  0  0  0  0  0  0  0  0  0  0
  190.9890  173.8890  136.7880 N   0  0  0  0  0  0  0  0  0  0  0  0
  188.2590  173.2980  138.7530 O   0  0  0  0  0  0  0  0  0  0  0  0
  192.4950  172.2490  137.5600 O   0  0  0  0  0  0  0  0  0  0  0  0
  188.9660  172.9130  137.5890 C   0  0  2  0  0  3  0  0  0  0  0  0
  190.1190  171.9240  137.8850 C   0  0  2  0  0  3  0  0  0  0  0  0
  190.2070  171.5630  139.3770 C   0  0  0  0  0  2  0  0  0  0  0  0
  189.9600  172.6880  140.2970 N   0  0  0  0  0  0  0  0  0  0  0  0
  195.2560  176.4660  143.5560 O   0  0  0  0  0  1  0  0  0  0  0  0
  194.3030  175.4940  143.2330 C   0  0  2  0  0  3  0  0  0  0  0  0
  193.5600  175.0670  144.4990 C   0  0  1  0  0  3  0  0  0  0  0  0
  194.4430  175.0420  145.7060 C   0  0  0  0  0  0  0  0  0  0  0  0
  194.3600  175.9820  146.5460 O   0  0  0  0  0  0  0  0  0  0  0  0
  195.3410  173.9860  145.9100 O   0  0  0  0  0  0  0  0  0  0  0  0
  196.7470  174.1540  145.7540 C   0  0  0  0  0  2  0  0  0  0  0  0
  197.3860  172.8910  145.1940 C   0  0  0  0  0  2  0  0  0  0  0  0
  196.4230  170.6640  144.7120 C   0  0  0  0  0  1  0  0  0  0  0  0
  196.7710  171.6480  145.8060 C   0  0  0  0  0  2  0  0  0  0  0  0
  192.3200  175.9240  144.7620 C   0  0  0  0  0  2  0  0  0  0  0  0
  191.2370  175.6370  143.7340 C   0  0  0  0  0  2  0  0  0  0  0  0
  190.1030  174.8220  144.3560 C   0  0  2  0  0  3  0  0  0  0  0  0
  189.0070  174.6310  143.3290 C   0  0  0  0  0  2  0  0  0  0  0  0
  188.7630  175.5570  144.5050 C   0  0  2  0  0  3  0  0  0  0  0  0
  186.9650  178.3330  142.7790 C   0  0  0  0  0  2  0  0  0  0  0  0
  184.5820  177.6740  146.2760 C   0  0  0  0  0  2  0  0  0  0  0  0
  188.3100  177.9290  145.1990 C   0  0  0  0  0  2  0  0  0  0  0  0
  186.1700  178.3030  144.0530 C   0  0  0  0  0  0  0  0  0  0  0  0
  186.8120  178.0760  145.2190 C   0  0  0  0  0  0  0  0  0  0  0  0
  187.9420  177.1560  142.7510 C   0  0  0  0  0  2  0  0  0  0  0  0
  186.0640  177.9680  146.5280 C   0  0  1  0  0  3  0  0  0  0  0  0
  184.6630  178.2870  143.9850 C   0  0  0  0  0  2  0  0  0  0  0  0
  188.7770  177.0160  144.0470 C   0  0  2  0  0  3  0  0  0  0  0  0
  184.0580  178.6020  145.2760 N   0  0  0  0  0  2  0  0  0  0  0  0
  187.0610  179.0750  148.4020 O   0  0  0  0  0  1  0  0  0  0  0  0
  186.1990  179.2640  147.3200 C   0  0  0  0  0  2  0  0  0  0  0  0
  1 30  1  0  0  0  0
  2  5  1  0  0  0  0
  2  8  1  1  0  0  0
  4  9  1  1  0  0  0
  4 10  1  0  0  0  0
  4  6  1  0  0  0  0
  5  1  1  1  0  0  0
  6  3  1  1  0  0  0
  6  2  1  0  0  0  0
  7  5  1  0  0  0  0
 10  7  1  0  0  0  0
 11 12  2  6  0  0  0
 11  4  1  0  0  0  0
 13 11  1  0  0  0  0
 14 11  1  0  0  0  0
 15 16  1  0  0  0  0
 15 14  1  0  0  0  0
 16 17  1  0  0  0  0
 17 22  1  0  0  0  0
 19 28  1  0  0  0  0
 21 24  2  0  0  0  0
 21 26  1  0  0  0  0
 22 20  1  0  0  0  0
 22 21  1  0  0  0  0
 23 19  1  0  0  0  0
 25 20  1  1  0  0  0
 25 26  1  0  0  0  0
 25 23  1  0  0  0  0
 26 27  1  1  0  0  0
 27 28  1  0  0  0  0
 28 18  1  0  0  0  0
 30 29  1  1  0  0  0
 30 31  1  0  0  0  0
 31 39  1  1  0  0  0
 31 32  1  0  0  0  0
 32 34  1  0  0  0  0
 32 33  2  0  0  0  0
 35 34  1  0  0  0  0
 36 35  1  0  0  0  0
 36 38  1  0  0  0  0
 37 38  1  0  0  0  0
 40 39  1  0  0  0  0
 41 40  1  6  0  0  0
 41 43  1  0  0  0  0
 42 41  1  0  0  0  0
 43 42  1  6  0  0  0
 44 47  1  0  0  0  0
 45 50  1  0  0  0  0
 46 48  1  0  0  0  0
 47 48  2  0  0  0  0
 48 50  1  0  0  0  0
 49 44  1  0  0  0  0
 50 55  1  6  0  0  0
 51 47  1  0  0  0  0
 51 53  1  0  0  0  0
 52 49  1  6  0  0  0
 52 43  1  0  0  0  0
 52 46  1  0  0  0  0
 53 45  1  0  0  0  0
 55 54  1  0  0  0  0
M  END
>  <MODEL>
7

>  <REMARK>
 VINA RESULT:      -5.6      2.484      3.796
  Name = 
  19 active torsions:
  status: ('A' for Active; 'I' for Inactive)
    1  A    between atoms: C_2  and  N_33
    2  A    between atoms: C_2  and  C_54
    3  A    between atoms: C_3  and  C_14
    4  A    between atoms: C_3  and  C_44
    5  A    between atoms: P_4  and  N_15
    6  A    between atoms: P_4  and  C_23
    7  A    between atoms: C_8  and  C_14
    8  A    between atoms: C_9  and  O_32
    9  A    between atoms: C_9  and  C_44
   10  A    between atoms: N_15  and  C_35
   11  A    between atoms: C_24  and  C_40
   12  A    between atoms: C_25  and  C_51
   13  A    between atoms: C_28  and  C_39
   14  A    between atoms: C_30  and  C_40
   15  A    between atoms: C_30  and  C_44
   16  A    between atoms: C_31  and  O_32
   17  A    between atoms: C_31  and  C_49
   18  A    between atoms: C_35  and  C_54
   19  A    between atoms: C_48  and  C_49
                            x       y       z     vdW  Elec       q    Type
                         _______ _______ _______ _____ _____    ______ ____

>  <TORSDO>
F 19

$$$$
=
 OpenBabel11062421363D

 55 60  0  0  1  0  0  0  0  0999 V2000
  193.2120  173.9680  143.1330 C   0  0  0  0  0  2  0  0  0  0  0  0
  195.1710  173.1810  141.7820 C   0  0  1  0  0  3  0  0  0  0  0  0
  197.4550  173.9620  141.5550 O   0  0  0  0  0  1  0  0  0  0  0  0
  195.9250  174.7070  139.8360 C   0  0  2  0  0  0  0  0  0  0  0  0
  194.2640  174.3700  142.1090 C   0  0  1  0  0  3  0  0  0  0  0  0
  196.3130  173.5940  140.8350 C   0  0  2  0  0  3  0  0  0  0  0  0
  193.5860  174.9020  140.8360 C   0  0  0  0  0  2  0  0  0  0  0  0
  195.6760  172.5860  142.9430 O   0  0  0  0  0  1  0  0  0  0  0  0
  196.2630  175.9520  140.3430 F   0  0  0  0  0  0  0  0  0  0  0  0
  194.4160  174.6820  139.5610 C   0  0  0  0  0  2  0  0  0  0  0  0
  196.8260  174.4450  138.2760 P   0  0  1  0  0  0  0  0  0  0  0  0
  197.7340  175.6270  138.0160 O   0  0  0  0  0  0  0  0  0  0  0  0
  197.7620  173.0420  138.4000 O   0  0  0  0  0  1  0  0  0  0  0  0
  195.6750  174.2970  136.9510 N   0  0  0  0  0  2  0  0  0  0  0  0
  195.9100  173.0210  136.2850 C   0  0  0  0  0  2  0  0  0  0  0  0
  194.6090  172.2530  136.0920 C   0  0  0  0  0  2  0  0  0  0  0  0
  194.0820  171.7510  137.4280 C   0  0  0  0  0  2  0  0  0  0  0  0
  189.9730  173.7880  138.6050 C   0  0  0  0  0  1  0  0  0  0  0  0
  189.8250  172.8840  136.4430 C   0  0  0  0  0  2  0  0  0  0  0  0
  192.0540  171.1050  135.9970 C   0  0  0  0  0  2  0  0  0  0  0  0
  191.8080  171.0400  138.3390 C   0  0  0  0  0  0  0  0  0  0  0  0
  192.7170  171.2650  137.2770 N   0  0  0  0  0  0  0  0  0  0  0  0
  189.6760  171.6530  135.7720 O   0  0  0  0  0  0  0  0  0  0  0  0
  192.1130  171.1800  139.5530 O   0  0  0  0  0  0  0  0  0  0  0  0
  190.5940  170.7330  136.3310 C   0  0  2  0  0  3  0  0  0  0  0  0
  190.4690  170.6180  137.8700 C   0  0  2  0  0  3  0  0  0  0  0  0
  189.3500  171.5110  138.4300 C   0  0  0  0  0  2  0  0  0  0  0  0
  189.2390  172.8330  137.7880 N   0  0  0  0  0  0  0  0  0  0  0  0
  193.4990  173.9680  145.5030 O   0  0  0  0  0  1  0  0  0  0  0  0
  193.2680  174.8060  144.4080 C   0  0  2  0  0  3  0  0  0  0  0  0
  191.9280  175.5210  144.5880 C   0  0  1  0  0  3  0  0  0  0  0  0
  191.3250  175.9510  143.2890 C   0  0  0  0  0  0  0  0  0  0  0  0
  191.4680  177.1490  142.9130 O   0  0  0  0  0  0  0  0  0  0  0  0
  190.6230  175.0370  142.4910 O   0  0  0  0  0  0  0  0  0  0  0  0
  189.2360  175.1950  142.2120 C   0  0  0  0  0  2  0  0  0  0  0  0
  188.5420  173.8420  142.1250 C   0  0  0  0  0  2  0  0  0  0  0  0
  189.3080  171.9370  143.5040 C   0  0  0  0  0  1  0  0  0  0  0  0
  189.5420  172.7060  142.2240 C   0  0  0  0  0  2  0  0  0  0  0  0
  190.9270  174.6860  145.3910 C   0  0  0  0  0  2  0  0  0  0  0  0
  190.5500  175.3930  146.6840 C   0  0  0  0  0  2  0  0  0  0  0  0
  190.5050  176.9070  146.4790 C   0  0  2  0  0  3  0  0  0  0  0  0
  189.7710  177.5430  147.6410 C   0  0  0  0  0  2  0  0  0  0  0  0
  189.1050  177.5070  146.2780 C   0  0  2  0  0  3  0  0  0  0  0  0
  185.4970  176.8120  146.9220 C   0  0  0  0  0  2  0  0  0  0  0  0
  185.3760  179.5280  143.6120 C   0  0  0  0  0  2  0  0  0  0  0  0
  187.3440  176.4150  144.8580 C   0  0  0  0  0  2  0  0  0  0  0  0
  185.3540  177.6110  145.6580 C   0  0  0  0  0  0  0  0  0  0  0  0
  186.2630  177.4450  144.6730 C   0  0  0  0  0  0  0  0  0  0  0  0
  186.9550  176.8360  147.3870 C   0  0  0  0  0  2  0  0  0  0  0  0
  186.2140  178.2640  143.4030 C   0  0  1  0  0  3  0  0  0  0  0  0
  184.3560  178.7410  145.6050 C   0  0  0  0  0  2  0  0  0  0  0  0
  187.9650  176.4880  146.2680 C   0  0  2  0  0  3  0  0  0  0  0  0
  184.1010  179.1770  144.2360 N   0  0  0  0  0  2  0  0  0  0  0  0
  184.9560  178.2760  141.3670 O   0  0  0  0  0  1  0  0  0  0  0  0
  185.6200  177.4390  142.2670 C   0  0  0  0  0  2  0  0  0  0  0  0
  1 30  1  0  0  0  0
  2  5  1  0  0  0  0
  2  8  1  1  0  0  0
  4  9  1  1  0  0  0
  4  6  1  0  0  0  0
  5  1  1  1  0  0  0
  6  3  1  1  0  0  0
  6  2  1  0  0  0  0
  7  5  1  0  0  0  0
 10  4  1  0  0  0  0
 10  7  1  0  0  0  0
 11 12  2  6  0  0  0
 11 13  1  0  0  0  0
 11  4  1  0  0  0  0
 14 11  1  0  0  0  0
 15 14  1  0  0  0  0
 16 15  1  0  0  0  0
 16 17  1  0  0  0  0
 19 28  1  0  0  0  0
 20 22  1  0  0  0  0
 21 24  2  0  0  0  0
 22 17  1  0  0  0  0
 22 21  1  0  0  0  0
 23 25  1  0  0  0  0
 23 19  1  0  0  0  0
 25 20  1  1  0  0  0
 25 26  1  0  0  0  0
 26 21  1  0  0  0  0
 26 27  1  1  0  0  0
 28 27  1  0  0  0  0
 28 18  1  0  0  0  0
 30 31  1  0  0  0  0
 30 29  1  1  0  0  0
 31 39  1  6  0  0  0
 32 31  1  0  0  0  0
 33 32  2  0  0  0  0
 34 32  1  0  0  0  0
 35 34  1  0  0  0  0
 36 35  1  0  0  0  0
 36 38  1  0  0  0  0
 38 37  1  0  0  0  0
 39 40  1  0  0  0  0
 41 40  1  1  0  0  0
 41 42  1  0  0  0  0
 43 41  1  0  0  0  0
 43 42  1  1  0  0  0
 44 49  1  0  0  0  0
 45 53  1  0  0  0  0
 47 44  1  0  0  0  0
 48 46  1  0  0  0  0
 48 47  2  0  0  0  0
 50 55  1  6  0  0  0
 50 45  1  0  0  0  0
 50 48  1  0  0  0  0
 51 47  1  0  0  0  0
 52 46  1  6  0  0  0
 52 43  1  0  0  0  0
 52 49  1  0  0  0  0
 53 51  1  0  0  0  0
 54 55  1  0  0  0  0
M  END
>  <MODEL>
8

>  <REMARK>
 VINA RESULT:      -5.5      1.488      2.303
  Name = 
  19 active torsions:
  status: ('A' for Active; 'I' for Inactive)
    1  A    between atoms: C_2  and  N_33
    2  A    between atoms: C_2  and  C_54
    3  A    between atoms: C_3  and  C_14
    4  A    between atoms: C_3  and  C_44
    5  A    between atoms: P_4  and  N_15
    6  A    between atoms: P_4  and  C_23
    7  A    between atoms: C_8  and  C_14
    8  A    between atoms: C_9  and  O_32
    9  A    between atoms: C_9  and  C_44
   10  A    between atoms: N_15  and  C_35
   11  A    between atoms: C_24  and  C_40
   12  A    between atoms: C_25  and  C_51
   13  A    between atoms: C_28  and  C_39
   14  A    between atoms: C_30  and  C_40
   15  A    between atoms: C_30  and  C_44
   16  A    between atoms: C_31  and  O_32
   17  A    between atoms: C_31  and  C_49
   18  A    between atoms: C_35  and  C_54
   19  A    between atoms: C_48  and  C_49
                            x       y       z     vdW  Elec       q    Type
                         _______ _______ _______ _____ _____    ______ ____

>  <TORSDO>
F 19

$$$$
=
 OpenBabel11062421363D

 55 60  0  0  1  0  0  0  0  0999 V2000
  191.3200  174.6930  143.2720 C   0  0  0  0  0  2  0  0  0  0  0  0
  191.0310  172.2040  143.3190 C   0  0  1  0  0  3  0  0  0  0  0  0
  192.3110  170.4000  144.3100 O   0  0  0  0  0  1  0  0  0  0  0  0
  192.7370  170.8120  141.9660 C   0  0  2  0  0  0  0  0  0  0  0  0
  191.9760  173.3550  142.9630 C   0  0  1  0  0  3  0  0  0  0  0  0
  191.7150  170.8380  143.1230 C   0  0  2  0  0  3  0  0  0  0  0  0
  192.3750  173.2900  141.4800 C   0  0  0  0  0  2  0  0  0  0  0  0
  190.5340  172.3320  144.6200 O   0  0  0  0  0  1  0  0  0  0  0  0
  194.0120  171.0750  142.4410 F   0  0  0  0  0  0  0  0  0  0  0  0
  192.3800  171.8630  140.9070 C   0  0  0  0  0  2  0  0  0  0  0  0
  192.7250  169.1600  141.2010 P   0  0  1  0  0  0  0  0  0  0  0  0
  194.1120  168.5590  141.2830 O   0  0  0  0  0  0  0  0  0  0  0  0
  191.6390  168.1670  142.0330 O   0  0  0  0  0  1  0  0  0  0  0  0
  192.2540  169.2990  139.5090 N   0  0  0  0  0  2  0  0  0  0  0  0
  190.8990  168.7780  139.3710 C   0  0  0  0  0  2  0  0  0  0  0  0
  190.2090  169.3590  138.1440 C   0  0  0  0  0  2  0  0  0  0  0  0
  191.2120  169.5780  137.0210 C   0  0  0  0  0  2  0  0  0  0  0  0
  188.3160  173.1310  138.2080 C   0  0  0  0  0  1  0  0  0  0  0  0
  190.5510  173.7970  138.4840 C   0  0  0  0  0  2  0  0  0  0  0  0
  192.2820  171.9040  137.1600 C   0  0  0  0  0  2  0  0  0  0  0  0
  190.2720  171.6940  135.9500 C   0  0  0  0  0  0  0  0  0  0  0  0
  191.2690  170.9900  136.6700 N   0  0  0  0  0  0  0  0  0  0  0  0
  191.6780  174.2060  137.7430 O   0  0  0  0  0  0  0  0  0  0  0  0
  189.2430  171.1430  135.4750 O   0  0  0  0  0  0  0  0  0  0  0  0
  191.8510  173.3030  136.6690 C   0  0  2  0  0  3  0  0  0  0  0  0
  190.5730  173.1360  135.8110 C   0  0  2  0  0  3  0  0  0  0  0  0
  189.4180  174.0200  136.3110 C   0  0  0  0  0  2  0  0  0  0  0  0
  189.3030  174.1090  137.7780 N   0  0  0  0  0  0  0  0  0  0  0  0
  193.2060  176.1340  143.0110 O   0  0  0  0  0  1  0  0  0  0  0  0
  192.2690  175.6820  143.9460 C   0  0  2  0  0  3  0  0  0  0  0  0
  192.9920  174.9710  145.0890 C   0  0  1  0  0  3  0  0  0  0  0  0
  194.3680  175.5070  145.3230 C   0  0  0  0  0  0  0  0  0  0  0  0
  194.5050  176.5940  145.9530 O   0  0  0  0  0  0  0  0  0  0  0  0
  195.4930  174.8080  144.8640 O   0  0  0  0  0  0  0  0  0  0  0  0
  196.3320  174.0710  145.7470 C   0  0  0  0  0  2  0  0  0  0  0  0
  197.2790  173.1670  144.9680 C   0  0  0  0  0  2  0  0  0  0  0  0
  195.4360  171.6570  145.6310 C   0  0  0  0  0  1  0  0  0  0  0  0
  196.7070  171.7710  144.8200 C   0  0  0  0  0  2  0  0  0  0  0  0
  192.1830  174.9870  146.3890 C   0  0  0  0  0  2  0  0  0  0  0  0
  190.7570  175.4460  146.1310 C   0  0  0  0  0  2  0  0  0  0  0  0
  190.6450  176.9650  146.2650 C   0  0  2  0  0  3  0  0  0  0  0  0
  189.8840  177.2960  147.5320 C   0  0  0  0  0  2  0  0  0  0  0  0
  189.2200  177.5340  146.1890 C   0  0  2  0  0  3  0  0  0  0  0  0
  185.6350  176.5790  146.5880 C   0  0  0  0  0  2  0  0  0  0  0  0
  185.4490  179.9080  143.8990 C   0  0  0  0  0  2  0  0  0  0  0  0
  187.5320  176.6860  144.5320 C   0  0  0  0  0  2  0  0  0  0  0  0
  185.4790  177.6130  145.5100 C   0  0  0  0  0  0  0  0  0  0  0  0
  186.4100  177.6880  144.5350 C   0  0  0  0  0  0  0  0  0  0  0  0
  187.0830  176.5650  147.0840 C   0  0  0  0  0  2  0  0  0  0  0  0
  186.3460  178.7470  143.4580 C   0  0  1  0  0  3  0  0  0  0  0  0
  184.4330  178.6890  145.6640 C   0  0  0  0  0  2  0  0  0  0  0  0
  188.1260  176.4930  145.9430 C   0  0  2  0  0  3  0  0  0  0  0  0
  184.1810  179.3860  144.4060 N   0  0  0  0  0  2  0  0  0  0  0  0
  186.8610  177.8650  141.2930 O   0  0  0  0  0  1  0  0  0  0  0  0
  185.8060  178.1500  142.1630 C   0  0  0  0  0  2  0  0  0  0  0  0
  1 30  1  0  0  0  0
  2  8  1  1  0  0  0
  4  9  1  1  0  0  0
  4  6  1  0  0  0  0
  5  1  1  6  0  0  0
  5  2  1  0  0  0  0
  6  2  1  0  0  0  0
  6  3  1  1  0  0  0
  7  5  1  0  0  0  0
 10  7  1  0  0  0  0
 10  4  1  0  0  0  0
 11 12  2  1  0  0  0
 11  4  1  0  0  0  0
 11 13  1  0  0  0  0
 14 11  1  0  0  0  0
 15 14  1  0  0  0  0
 16 15  1  0  0  0  0
 17 16  1  0  0  0  0
 21 22  1  0  0  0  0
 22 17  1  0  0  0  0
 22 20  1  0  0  0  0
 23 19  1  0  0  0  0
 24 21  2  0  0  0  0
 25 20  1  1  0  0  0
 25 23  1  0  0  0  0
 26 21  1  0  0  0  0
 26 27  1  1  0  0  0
 26 25  1  0  0  0  0
 27 28  1  0  0  0  0
 28 18  1  0  0  0  0
 28 19  1  0  0  0  0
 30 29  1  6  0  0  0
 30 31  1  0  0  0  0
 31 32  1  0  0  0  0
 31 39  1  1  0  0  0
 32 33  2  0  0  0  0
 34 32  1  0  0  0  0
 34 35  1  0  0  0  0
 36 35  1  0  0  0  0
 38 36  1  0  0  0  0
 38 37  1  0  0  0  0
 40 39  1  0  0  0  0
 41 40  1  1  0  0  0
 41 42  1  0  0  0  0
 43 41  1  0  0  0  0
 43 42  1  1  0  0  0
 44 49  1  0  0  0  0
 45 53  1  0  0  0  0
 46 48  1  0  0  0  0
 47 51  1  0  0  0  0
 47 44  1  0  0  0  0
 48 47  2  0  0  0  0
 50 55  1  6  0  0  0
 50 45  1  0  0  0  0
 50 48  1  0  0  0  0
 52 46  1  6  0  0  0
 52 43  1  0  0  0  0
 52 49  1  0  0  0  0
 53 51  1  0  0  0  0
 54 55  1  0  0  0  0
M  END
>  <MODEL>
9

>  <REMARK>
 VINA RESULT:      -5.3      2.380      3.835
  Name = 
  19 active torsions:
  status: ('A' for Active; 'I' for Inactive)
    1  A    between atoms: C_2  and  N_33
    2  A    between atoms: C_2  and  C_54
    3  A    between atoms: C_3  and  C_14
    4  A    between atoms: C_3  and  C_44
    5  A    between atoms: P_4  and  N_15
    6  A    between atoms: P_4  and  C_23
    7  A    between atoms: C_8  and  C_14
    8  A    between atoms: C_9  and  O_32
    9  A    between atoms: C_9  and  C_44
   10  A    between atoms: N_15  and  C_35
   11  A    between atoms: C_24  and  C_40
   12  A    between atoms: C_25  and  C_51
   13  A    between atoms: C_28  and  C_39
   14  A    between atoms: C_30  and  C_40
   15  A    between atoms: C_30  and  C_44
   16  A    between atoms: C_31  and  O_32
   17  A    between atoms: C_31  and  C_49
   18  A    between atoms: C_35  and  C_54
   19  A    between atoms: C_48  and  C_49
                            x       y       z     vdW  Elec       q    Type
                         _______ _______ _______ _____ _____    ______ ____

>  <TORSDO>
F 19

$$$$
