=
 OpenBabel11062420363D

 32 33  0  0  1  0  0  0  0  0999 V2000
  190.7180  176.7650  145.7360 C   0  0  1  0  0  3  0  0  0  0  0  0
  190.1330  175.7690  144.7660 C   0  0  0  0  0  0  0  0  0  0  0  0
  187.2300  176.8740  144.6670 C   0  0  1  0  0  3  0  0  0  0  0  0
  188.5960  177.0390  146.8390 C   0  0  2  0  0  3  0  0  0  0  0  0
  189.6280  177.7910  146.0800 C   0  0  1  0  0  3  0  0  0  0  0  0
  188.8370  175.2760  144.9770 O   0  0  0  0  0  0  0  0  0  0  0  0
  190.8170  175.3820  143.7410 N   0  0  0  0  0  2  0  0  0  0  0  0
  187.7890  175.6400  144.2100 O   0  0  0  0  0  0  0  0  0  0  0  0
  187.2890  177.3740  146.1480 C   0  0  2  0  0  3  0  0  0  0  0  0
  189.3310  178.0850  147.4250 O   0  0  0  0  0  0  0  0  0  0  0  0
  191.8790  176.9900  148.1750 O   0  0  0  0  0  0  0  0  0  0  0  0
  191.5370  175.9700  147.1250 S   0  0  0  0  0  0  0  0  0  0  0  0
  190.6220  174.9420  147.7280 O   0  0  0  0  0  0  0  0  0  0  0  0
  194.4960  173.0780  145.7540 O   0  0  0  0  0  0  0  0  0  0  0  0
  195.4740  173.8730  145.7180 C   0  0  0  0  0  0  0  0  0  0  0  0
  195.3110  175.2520  146.0750 N   0  0  0  0  0  2  0  0  0  0  0  0
  194.0920  175.8680  146.5060 C   0  0  0  0  0  3  0  0  0  0  0  0
  192.9890  175.2000  146.5920 N   0  0  0  0  0  0  0  0  0  0  0  0
  197.7480  174.3740  145.4080 F   0  0  0  0  0  0  0  0  0  0  0  0
  196.8060  173.3750  145.2560 C   0  0  0  0  0  0  0  0  0  0  0  0
  196.7330  173.0160  143.9220 F   0  0  0  0  0  0  0  0  0  0  0  0
  197.1920  172.2710  145.9950 F   0  0  0  0  0  0  0  0  0  0  0  0
  187.0990  177.9490  143.5950 C   0  0  0  0  0  2  0  0  0  0  0  0
  187.4810  177.4420  142.2130 C   0  0  2  0  0  3  0  0  0  0  0  0
  189.7430  178.2400  142.4480 O   0  0  0  0  0  1  0  0  0  0  0  0
  188.6080  178.2920  141.6340 C   0  0  0  0  0  2  0  0  0  0  0  0
  184.8610  178.2540  142.0960 S   0  0  0  0  0  1  0  0  0  0  0  0
  186.2690  177.4310  141.2950 C   0  0  0  0  0  2  0  0  0  0  0  0
  186.2200  176.8170  146.8740 O   0  0  0  0  0  0  0  0  0  0  0  0
  185.9950  179.1320  147.6630 C   0  0  0  0  0  1  0  0  0  0  0  0
  184.2270  178.0810  146.1930 C   0  0  0  0  0  1  0  0  0  0  0  0
  185.3120  177.8390  147.2340 C   0  0  0  0  0  3  0  0  0  0  0  0
  1  5  1  0  0  0  0
  1 12  1  1  0  0  0
  2  6  1  0  0  0  0
  2  1  1  0  0  0  0
  3 23  1  6  0  0  0
  3  9  1  0  0  0  0
  4 10  1  1  0  0  0
  5  4  1  0  0  0  0
  5 10  1  1  0  0  0
  7  2  2  0  0  0  0
  8  3  1  0  0  0  0
  8  6  1  0  0  0  0
  9  4  1  0  0  0  0
  9 29  1  1  0  0  0
 12 13  2  0  0  0  0
 12 11  2  0  0  0  0
 15 14  2  0  0  0  0
 15 16  1  0  0  0  0
 16 17  1  0  0  0  0
 17 18  2  0  0  0  0
 18 12  1  0  0  0  0
 20 19  1  0  0  0  0
 20 15  1  0  0  0  0
 20 22  1  0  0  0  0
 21 20  1  0  0  0  0
 24 28  1  6  0  0  0
 24 23  1  0  0  0  0
 26 24  1  0  0  0  0
 26 25  1  0  0  0  0
 28 27  1  0  0  0  0
 29 32  1  0  0  0  0
 31 32  1  0  0  0  0
 32 30  1  0  0  0  0
M  END
>  <MODEL>
1

>  <REMARK>
 VINA RESULT:      -6.7      0.000      0.000
  Name = 
  9 active torsions:
  status: ('A' for Active; 'I' for Inactive)
    1  A    between atoms: C_1  and  S_3
    2  A    between atoms: S_3  and  N_31
    3  A    between atoms: C_8  and  C_16
    4  A    between atoms: C_9  and  C_21
    5  A    between atoms: C_13  and  C_20
    6  A    between atoms: C_15  and  O_27
    7  A    between atoms: C_16  and  C_21
    8  A    between atoms: C_16  and  C_30
    9  A    between atoms: C_24  and  O_27
                            x       y       z     vdW  Elec       q    Type
                         _______ _______ _______ _____ _____    ______ ____

>  <TORSDO>
F 9

$$$$
=
 OpenBabel11062420363D

 32 33  0  0  1  0  0  0  0  0999 V2000
  185.8210  177.1860  143.3740 C   0  0  1  0  0  3  0  0  0  0  0  0
  186.9250  177.6220  142.4430 C   0  0  0  0  0  0  0  0  0  0  0  0
  189.3160  176.2750  143.9030 C   0  0  1  0  0  3  0  0  0  0  0  0
  187.3210  177.1700  145.2560 C   0  0  2  0  0  3  0  0  0  0  0  0
  186.4380  176.2850  144.4540 C   0  0  1  0  0  3  0  0  0  0  0  0
  188.1620  178.0180  142.9740 O   0  0  0  0  0  0  0  0  0  0  0  0
  186.7380  177.6200  141.1660 N   0  0  0  0  0  2  0  0  0  0  0  0
  189.2720  177.2600  142.8680 O   0  0  0  0  0  0  0  0  0  0  0  0
  188.6510  176.4420  145.3080 C   0  0  2  0  0  3  0  0  0  0  0  0
  186.1930  176.5440  145.8170 O   0  0  0  0  0  0  0  0  0  0  0  0
  184.4520  178.3640  145.3940 O   0  0  0  0  0  0  0  0  0  0  0  0
  184.8260  178.5660  143.9520 S   0  0  0  0  0  0  0  0  0  0  0  0
  185.6130  179.8400  143.8300 O   0  0  0  0  0  0  0  0  0  0  0  0
  180.7830  179.3970  142.5500 O   0  0  0  0  0  0  0  0  0  0  0  0
  180.9130  178.8740  141.4100 C   0  0  0  0  0  0  0  0  0  0  0  0
  182.1550  178.2800  141.0120 N   0  0  0  0  0  2  0  0  0  0  0  0
  183.3390  178.1970  141.8140 C   0  0  0  0  0  3  0  0  0  0  0  0
  183.3850  178.6920  143.0070 N   0  0  0  0  0  0  0  0  0  0  0  0
  178.5770  178.9130  141.1580 F   0  0  0  0  0  0  0  0  0  0  0  0
  179.7650  178.9150  140.4520 C   0  0  0  0  0  0  0  0  0  0  0  0
  179.8070  177.8060  139.6270 F   0  0  0  0  0  0  0  0  0  0  0  0
  179.8270  180.0560  139.6720 F   0  0  0  0  0  0  0  0  0  0  0  0
  189.5100  174.8450  143.4130 C   0  0  0  0  0  2  0  0  0  0  0  0
  189.2050  174.6920  141.9310 C   0  0  2  0  0  3  0  0  0  0  0  0
  187.9310  172.6520  142.0830 O   0  0  0  0  0  1  0  0  0  0  0  0
  187.8560  174.0040  141.7400 C   0  0  0  0  0  2  0  0  0  0  0  0
  191.5890  173.4270  142.4310 S   0  0  0  0  0  1  0  0  0  0  0  0
  190.3190  173.9290  141.2320 C   0  0  0  0  0  2  0  0  0  0  0  0
  189.5290  177.1330  146.1640 O   0  0  0  0  0  0  0  0  0  0  0  0
  191.1580  176.8340  147.9770 C   0  0  0  0  0  1  0  0  0  0  0  0
  189.5860  174.9660  147.3190 C   0  0  0  0  0  1  0  0  0  0  0  0
  190.3420  176.2050  146.8540 C   0  0  0  0  0  3  0  0  0  0  0  0
  1 12  1  1  0  0  0
  1  5  1  0  0  0  0
  2  6  1  0  0  0  0
  2  1  1  0  0  0  0
  3 23  1  6  0  0  0
  3  9  1  0  0  0  0
  4  9  1  0  0  0  0
  4 10  1  1  0  0  0
  5  4  1  0  0  0  0
  5 10  1  1  0  0  0
  7  2  2  0  0  0  0
  8  6  1  0  0  0  0
  8  3  1  0  0  0  0
  9 29  1  1  0  0  0
 12 11  2  0  0  0  0
 13 12  2  0  0  0  0
 15 14  2  0  0  0  0
 16 15  1  0  0  0  0
 16 17  1  0  0  0  0
 17 18  2  0  0  0  0
 18 12  1  0  0  0  0
 20 19  1  0  0  0  0
 20 15  1  0  0  0  0
 21 20  1  0  0  0  0
 22 20  1  0  0  0  0
 24 28  1  6  0  0  0
 24 23  1  0  0  0  0
 26 24  1  0  0  0  0
 26 25  1  0  0  0  0
 28 27  1  0  0  0  0
 29 32  1  0  0  0  0
 32 31  1  0  0  0  0
 32 30  1  0  0  0  0
M  END
>  <MODEL>
2

>  <REMARK>
 VINA RESULT:      -6.6      6.907      9.779
  Name = 
  9 active torsions:
  status: ('A' for Active; 'I' for Inactive)
    1  A    between atoms: C_1  and  S_3
    2  A    between atoms: S_3  and  N_31
    3  A    between atoms: C_8  and  C_16
    4  A    between atoms: C_9  and  C_21
    5  A    between atoms: C_13  and  C_20
    6  A    between atoms: C_15  and  O_27
    7  A    between atoms: C_16  and  C_21
    8  A    between atoms: C_16  and  C_30
    9  A    between atoms: C_24  and  O_27
                            x       y       z     vdW  Elec       q    Type
                         _______ _______ _______ _____ _____    ______ ____

>  <TORSDO>
F 9

$$$$
=
 OpenBabel11062420363D

 32 33  0  0  1  0  0  0  0  0999 V2000
  191.6510  174.4130  143.7890 C   0  0  1  0  0  3  0  0  0  0  0  0
  191.0360  173.0670  144.0820 C   0  0  0  0  0  0  0  0  0  0  0  0
  188.8480  173.0720  141.8750 C   0  0  1  0  0  3  0  0  0  0  0  0
  189.5500  175.2770  142.9950 C   0  0  2  0  0  3  0  0  0  0  0  0
  190.9430  175.0030  142.5610 C   0  0  1  0  0  3  0  0  0  0  0  0
  189.6430  172.9130  144.0140 O   0  0  0  0  0  0  0  0  0  0  0  0
  191.7870  172.0610  144.3830 N   0  0  0  0  0  2  0  0  0  0  0  0
  189.0380  172.2340  143.0170 O   0  0  0  0  0  0  0  0  0  0  0  0
  188.6800  174.6250  141.9370 C   0  0  2  0  0  3  0  0  0  0  0  0
  190.4200  176.3100  142.6030 O   0  0  0  0  0  0  0  0  0  0  0  0
  192.3810  174.7180  146.3820 O   0  0  0  0  0  0  0  0  0  0  0  0
  191.7340  175.4610  145.2470 S   0  0  0  0  0  0  0  0  0  0  0  0
  192.5510  176.6850  144.9410 O   0  0  0  0  0  0  0  0  0  0  0  0
  187.9160  177.5260  145.6500 O   0  0  0  0  0  0  0  0  0  0  0  0
  187.4440  176.7860  146.5540 C   0  0  0  0  0  0  0  0  0  0  0  0
  188.1970  175.6780  147.0650 N   0  0  0  0  0  2  0  0  0  0  0  0
  189.5130  175.2970  146.6470 C   0  0  0  0  0  3  0  0  0  0  0  0
  190.1440  175.9410  145.7200 N   0  0  0  0  0  0  0  0  0  0  0  0
  185.9490  176.5550  148.3520 F   0  0  0  0  0  0  0  0  0  0  0  0
  186.0630  177.0480  147.0670 C   0  0  0  0  0  0  0  0  0  0  0  0
  185.1370  176.4200  146.2530 F   0  0  0  0  0  0  0  0  0  0  0  0
  185.8010  178.4070  147.0770 F   0  0  0  0  0  0  0  0  0  0  0  0
  189.3970  172.5030  140.5710 C   0  0  0  0  0  2  0  0  0  0  0  0
  189.4350  173.5380  139.4570 C   0  0  2  0  0  3  0  0  0  0  0  0
  187.8950  174.5600  137.9100 O   0  0  0  0  0  1  0  0  0  0  0  0
  188.2400  173.3540  138.5260 C   0  0  0  0  0  2  0  0  0  0  0  0
  192.0240  172.6590  139.7180 S   0  0  0  0  0  1  0  0  0  0  0  0
  190.7480  173.4510  138.6940 C   0  0  0  0  0  2  0  0  0  0  0  0
  187.3310  174.9420  142.1800 O   0  0  0  0  0  0  0  0  0  0  0  0
  187.1530  176.8400  140.6310 C   0  0  0  0  0  1  0  0  0  0  0  0
  185.9480  176.8560  142.8530 C   0  0  0  0  0  1  0  0  0  0  0  0
  187.1480  176.3400  142.0700 C   0  0  0  0  0  3  0  0  0  0  0  0
  1  2  1  0  0  0  0
  1 12  1  1  0  0  0
  2  7  2  0  0  0  0
  3 23  1  6  0  0  0
  3  9  1  0  0  0  0
  3  8  1  0  0  0  0
  4 10  1  6  0  0  0
  5 10  1  1  0  0  0
  5  4  1  0  0  0  0
  5  1  1  0  0  0  0
  6  2  1  0  0  0  0
  8  6  1  0  0  0  0
  9 29  1  1  0  0  0
  9  4  1  0  0  0  0
 12 18  1  0  0  0  0
 12 11  2  0  0  0  0
 13 12  2  0  0  0  0
 14 15  2  0  0  0  0
 15 16  1  0  0  0  0
 15 20  1  0  0  0  0
 17 16  1  0  0  0  0
 18 17  2  0  0  0  0
 20 22  1  0  0  0  0
 20 19  1  0  0  0  0
 21 20  1  0  0  0  0
 24 26  1  6  0  0  0
 24 23  1  0  0  0  0
 25 26  1  0  0  0  0
 28 24  1  0  0  0  0
 28 27  1  0  0  0  0
 30 32  1  0  0  0  0
 32 29  1  0  0  0  0
 32 31  1  0  0  0  0
M  END
>  <MODEL>
3

>  <REMARK>
 VINA RESULT:      -6.5      5.102      6.681
  Name = 
  9 active torsions:
  status: ('A' for Active; 'I' for Inactive)
    1  A    between atoms: C_1  and  S_3
    2  A    between atoms: S_3  and  N_31
    3  A    between atoms: C_8  and  C_16
    4  A    between atoms: C_9  and  C_21
    5  A    between atoms: C_13  and  C_20
    6  A    between atoms: C_15  and  O_27
    7  A    between atoms: C_16  and  C_21
    8  A    between atoms: C_16  and  C_30
    9  A    between atoms: C_24  and  O_27
                            x       y       z     vdW  Elec       q    Type
                         _______ _______ _______ _____ _____    ______ ____

>  <TORSDO>
F 9

$$$$
=
 OpenBabel11062420363D

 32 33  0  0  1  0  0  0  0  0999 V2000
  191.0740  175.0380  143.9090 C   0  0  1  0  0  3  0  0  0  0  0  0
  190.3390  173.7210  143.8930 C   0  0  0  0  0  0  0  0  0  0  0  0
  188.6490  174.1690  141.3240 C   0  0  1  0  0  3  0  0  0  0  0  0
  189.2290  176.1590  142.8450 C   0  0  2  0  0  3  0  0  0  0  0  0
  190.6640  175.8270  142.6570 C   0  0  1  0  0  3  0  0  0  0  0  0
  188.9820  173.6900  143.5350 O   0  0  0  0  0  0  0  0  0  0  0  0
  190.9560  172.6290  144.1970 N   0  0  0  0  0  2  0  0  0  0  0  0
  188.5560  173.1880  142.3580 O   0  0  0  0  0  0  0  0  0  0  0  0
  188.5580  175.7120  141.5600 C   0  0  2  0  0  3  0  0  0  0  0  0
  190.2170  177.1580  142.7720 O   0  0  0  0  0  0  0  0  0  0  0  0
  191.2760  174.9680  146.6110 O   0  0  0  0  0  0  0  0  0  0  0  0
  190.9160  175.8940  145.4820 S   0  0  0  0  0  0  0  0  0  0  0  0
  191.8470  177.0740  145.5080 O   0  0  0  0  0  0  0  0  0  0  0  0
  187.1490  178.0690  145.2110 O   0  0  0  0  0  0  0  0  0  0  0  0
  186.5330  177.4050  146.0880 C   0  0  0  0  0  0  0  0  0  0  0  0
  187.1720  176.3180  146.7700 N   0  0  0  0  0  2  0  0  0  0  0  0
  188.5200  175.8780  146.5660 C   0  0  0  0  0  3  0  0  0  0  0  0
  189.2930  176.4420  145.6960 N   0  0  0  0  0  0  0  0  0  0  0  0
  185.0480  178.6580  147.4100 F   0  0  0  0  0  0  0  0  0  0  0  0
  185.1040  177.7340  146.3840 C   0  0  0  0  0  0  0  0  0  0  0  0
  184.4310  176.5880  146.7660 F   0  0  0  0  0  0  0  0  0  0  0  0
  184.4870  178.2630  145.2640 F   0  0  0  0  0  0  0  0  0  0  0  0
  189.4190  173.7190  140.0870 C   0  0  0  0  0  2  0  0  0  0  0  0
  188.5150  173.0920  139.0370 C   0  0  2  0  0  3  0  0  0  0  0  0
  190.1810  171.3750  139.3310 O   0  0  0  0  0  1  0  0  0  0  0  0
  189.1420  171.8070  138.5040 C   0  0  0  0  0  2  0  0  0  0  0  0
  189.5470  173.9900  136.6560 S   0  0  0  0  0  1  0  0  0  0  0  0
  188.2370  174.0790  137.9140 C   0  0  0  0  0  2  0  0  0  0  0  0
  187.2080  176.1060  141.5760 O   0  0  0  0  0  0  0  0  0  0  0  0
  186.5820  177.3160  139.5320 C   0  0  0  0  0  1  0  0  0  0  0  0
  186.2860  178.3700  141.8100 C   0  0  0  0  0  1  0  0  0  0  0  0
  187.0800  177.3770  140.9710 C   0  0  0  0  0  3  0  0  0  0  0  0
  1 12  1  1  0  0  0
  2  1  1  0  0  0  0
  2  7  2  0  0  0  0
  3 23  1  1  0  0  0
  3  9  1  0  0  0  0
  3  8  1  0  0  0  0
  4 10  1  6  0  0  0
  5 10  1  1  0  0  0
  5  4  1  0  0  0  0
  5  1  1  0  0  0  0
  6  2  1  0  0  0  0
  8  6  1  0  0  0  0
  9 29  1  1  0  0  0
  9  4  1  0  0  0  0
 12 13  2  0  0  0  0
 12 18  1  0  0  0  0
 12 11  2  0  0  0  0
 14 15  2  0  0  0  0
 15 20  1  0  0  0  0
 15 16  1  0  0  0  0
 17 16  1  0  0  0  0
 18 17  2  0  0  0  0
 20 21  1  0  0  0  0
 20 19  1  0  0  0  0
 22 20  1  0  0  0  0
 24 28  1  6  0  0  0
 24 23  1  0  0  0  0
 26 24  1  0  0  0  0
 26 25  1  0  0  0  0
 27 28  1  0  0  0  0
 30 32  1  0  0  0  0
 32 29  1  0  0  0  0
 32 31  1  0  0  0  0
M  END
>  <MODEL>
4

>  <REMARK>
 VINA RESULT:      -6.4      5.291      7.053
  Name = 
  9 active torsions:
  status: ('A' for Active; 'I' for Inactive)
    1  A    between atoms: C_1  and  S_3
    2  A    between atoms: S_3  and  N_31
    3  A    between atoms: C_8  and  C_16
    4  A    between atoms: C_9  and  C_21
    5  A    between atoms: C_13  and  C_20
    6  A    between atoms: C_15  and  O_27
    7  A    between atoms: C_16  and  C_21
    8  A    between atoms: C_16  and  C_30
    9  A    between atoms: C_24  and  O_27
                            x       y       z     vdW  Elec       q    Type
                         _______ _______ _______ _____ _____    ______ ____

>  <TORSDO>
F 9

$$$$
=
 OpenBabel11062420363D

 32 33  0  0  1  0  0  0  0  0999 V2000
  190.9510  173.5630  142.8360 C   0  0  1  0  0  3  0  0  0  0  0  0
  191.6450  174.6350  142.0340 C   0  0  0  0  0  0  0  0  0  0  0  0
  192.1970  176.6470  144.3370 C   0  0  1  0  0  3  0  0  0  0  0  0
  190.0810  175.1890  144.3830 C   0  0  2  0  0  3  0  0  0  0  0  0
  190.9580  173.9920  144.3110 C   0  0  1  0  0  3  0  0  0  0  0  0
  191.3790  175.9860  142.3060 O   0  0  0  0  0  0  0  0  0  0  0  0
  192.4870  174.3130  141.1100 N   0  0  0  0  0  2  0  0  0  0  0  0
  192.2720  176.7910  142.9170 O   0  0  0  0  0  0  0  0  0  0  0  0
  190.9070  176.2290  145.1150 C   0  0  2  0  0  3  0  0  0  0  0  0
  189.7610  173.9940  145.0540 O   0  0  0  0  0  0  0  0  0  0  0  0
  189.5330  172.5890  140.7420 O   0  0  0  0  0  0  0  0  0  0  0  0
  189.3560  173.1100  142.1410 S   0  0  0  0  0  0  0  0  0  0  0  0
  188.7280  172.0350  142.9820 O   0  0  0  0  0  0  0  0  0  0  0  0
  186.4460  176.2010  143.1270 O   0  0  0  0  0  0  0  0  0  0  0  0
  186.5070  176.8170  142.0290 C   0  0  0  0  0  0  0  0  0  0  0  0
  187.3850  176.3720  140.9860 N   0  0  0  0  0  2  0  0  0  0  0  0
  188.2450  175.2290  141.0460 C   0  0  0  0  0  3  0  0  0  0  0  0
  188.3150  174.4870  142.1040 N   0  0  0  0  0  0  0  0  0  0  0  0
  185.6510  178.3740  140.4920 F   0  0  0  0  0  0  0  0  0  0  0  0
  185.6840  178.0510  141.8350 C   0  0  0  0  0  0  0  0  0  0  0  0
  186.2420  179.0990  142.5430 F   0  0  0  0  0  0  0  0  0  0  0  0
  184.3920  177.8450  142.2830 F   0  0  0  0  0  0  0  0  0  0  0  0
  193.5270  176.3380  145.0160 C   0  0  0  0  0  2  0  0  0  0  0  0
  194.4980  175.6220  144.0910 C   0  0  2  0  0  3  0  0  0  0  0  0
  194.4800  173.2430  143.6980 O   0  0  0  0  0  1  0  0  0  0  0  0
  194.8100  174.2290  144.6320 C   0  0  0  0  0  2  0  0  0  0  0  0
  196.3030  176.4030  142.1740 S   0  0  0  0  0  1  0  0  0  0  0  0
  195.7670  176.4420  143.9110 C   0  0  0  0  0  2  0  0  0  0  0  0
  190.1170  177.3670  145.3600 O   0  0  0  0  0  0  0  0  0  0  0  0
  188.2210  176.9340  146.8600 C   0  0  0  0  0  1  0  0  0  0  0  0
  190.6010  176.5830  147.6360 C   0  0  0  0  0  1  0  0  0  0  0  0
  189.6770  177.3550  146.7040 C   0  0  0  0  0  3  0  0  0  0  0  0
  1 12  1  6  0  0  0
  1  5  1  0  0  0  0
  2  6  1  0  0  0  0
  2  1  1  0  0  0  0
  3 23  1  6  0  0  0
  3  9  1  0  0  0  0
  4 10  1  1  0  0  0
  4  9  1  0  0  0  0
  5  4  1  0  0  0  0
  5 10  1  1  0  0  0
  6  8  1  0  0  0  0
  7  2  2  0  0  0  0
  8  3  1  0  0  0  0
  9 29  1  6  0  0  0
 11 12  2  0  0  0  0
 12 13  2  0  0  0  0
 15 14  2  0  0  0  0
 16 17  1  0  0  0  0
 16 15  1  0  0  0  0
 17 18  2  0  0  0  0
 18 12  1  0  0  0  0
 19 20  1  0  0  0  0
 20 15  1  0  0  0  0
 20 22  1  0  0  0  0
 20 21  1  0  0  0  0
 24 28  1  1  0  0  0
 24 26  1  0  0  0  0
 24 23  1  0  0  0  0
 25 26  1  0  0  0  0
 27 28  1  0  0  0  0
 29 32  1  0  0  0  0
 32 30  1  0  0  0  0
 32 31  1  0  0  0  0
M  END
>  <MODEL>
5

>  <REMARK>
 VINA RESULT:      -6.4      4.926      7.799
  Name = 
  9 active torsions:
  status: ('A' for Active; 'I' for Inactive)
    1  A    between atoms: C_1  and  S_3
    2  A    between atoms: S_3  and  N_31
    3  A    between atoms: C_8  and  C_16
    4  A    between atoms: C_9  and  C_21
    5  A    between atoms: C_13  and  C_20
    6  A    between atoms: C_15  and  O_27
    7  A    between atoms: C_16  and  C_21
    8  A    between atoms: C_16  and  C_30
    9  A    between atoms: C_24  and  O_27
                            x       y       z     vdW  Elec       q    Type
                         _______ _______ _______ _____ _____    ______ ____

>  <TORSDO>
F 9

$$$$
=
 OpenBabel11062420363D

 32 33  0  0  1  0  0  0  0  0999 V2000
  190.6680  174.3030  143.1380 C   0  0  1  0  0  3  0  0  0  0  0  0
  191.3550  175.6400  143.2620 C   0  0  0  0  0  0  0  0  0  0  0  0
  191.7710  175.6590  146.3410 C   0  0  1  0  0  3  0  0  0  0  0  0
  189.7000  174.5210  145.3310 C   0  0  2  0  0  3  0  0  0  0  0  0
  190.6150  173.6640  144.5340 C   0  0  1  0  0  3  0  0  0  0  0  0
  191.0390  176.4840  144.3370 O   0  0  0  0  0  0  0  0  0  0  0  0
  192.2360  176.0010  142.3900 N   0  0  0  0  0  2  0  0  0  0  0  0
  191.8870  176.6960  145.3640 O   0  0  0  0  0  0  0  0  0  0  0  0
  190.4700  174.8320  146.5990 C   0  0  2  0  0  3  0  0  0  0  0  0
  189.3950  173.1770  145.0440 O   0  0  0  0  0  0  0  0  0  0  0  0
  189.3700  174.6110  140.7790 O   0  0  0  0  0  0  0  0  0  0  0  0
  189.1110  174.4110  142.2460 S   0  0  0  0  0  0  0  0  0  0  0  0
  188.3360  173.1370  142.4320 O   0  0  0  0  0  0  0  0  0  0  0  0
  187.8320  178.2160  143.9430 O   0  0  0  0  0  0  0  0  0  0  0  0
  186.5930  177.9900  143.8930 C   0  0  0  0  0  0  0  0  0  0  0  0
  186.0930  176.7530  143.3680 N   0  0  0  0  0  2  0  0  0  0  0  0
  186.8890  175.6710  142.8720 C   0  0  0  0  0  3  0  0  0  0  0  0
  188.1800  175.7380  142.8410 N   0  0  0  0  0  0  0  0  0  0  0  0
  184.3500  178.5450  144.3210 F   0  0  0  0  0  0  0  0  0  0  0  0
  185.6370  179.0460  144.3510 C   0  0  0  0  0  0  0  0  0  0  0  0
  185.7190  180.1430  143.5120 F   0  0  0  0  0  0  0  0  0  0  0  0
  185.9400  179.4460  145.6400 F   0  0  0  0  0  0  0  0  0  0  0  0
  193.0860  174.9840  146.7120 C   0  0  0  0  0  2  0  0  0  0  0  0
  193.9460  174.6800  145.4950 C   0  0  2  0  0  3  0  0  0  0  0  0
  195.5450  172.8770  145.5550 O   0  0  0  0  0  1  0  0  0  0  0  0
  194.1910  173.1780  145.3860 C   0  0  0  0  0  2  0  0  0  0  0  0
  195.6380  176.1870  143.9430 S   0  0  0  0  0  1  0  0  0  0  0  0
  195.2560  175.4500  145.5610 C   0  0  0  0  0  2  0  0  0  0  0  0
  189.6380  175.5320  147.4920 O   0  0  0  0  0  0  0  0  0  0  0  0
  187.3530  176.2020  146.8890 C   0  0  0  0  0  1  0  0  0  0  0  0
  189.2060  177.9120  147.0690 C   0  0  0  0  0  1  0  0  0  0  0  0
  188.8500  176.4610  146.7740 C   0  0  0  0  0  3  0  0  0  0  0  0
  1 12  1  1  0  0  0
  1  2  1  0  0  0  0
  1  5  1  0  0  0  0
  2  6  1  0  0  0  0
  3  9  1  0  0  0  0
  3 23  1  6  0  0  0
  4 10  1  1  0  0  0
  4  9  1  0  0  0  0
  5 10  1  6  0  0  0
  5  4  1  0  0  0  0
  6  8  1  0  0  0  0
  7  2  2  0  0  0  0
  8  3  1  0  0  0  0
  9 29  1  1  0  0  0
 11 12  2  0  0  0  0
 12 13  2  0  0  0  0
 12 18  1  0  0  0  0
 15 14  2  0  0  0  0
 15 20  1  0  0  0  0
 16 15  1  0  0  0  0
 17 16  1  0  0  0  0
 18 17  2  0  0  0  0
 19 20  1  0  0  0  0
 20 22  1  0  0  0  0
 21 20  1  0  0  0  0
 24 26  1  1  0  0  0
 24 28  1  0  0  0  0
 24 23  1  0  0  0  0
 26 25  1  0  0  0  0
 27 28  1  0  0  0  0
 32 30  1  0  0  0  0
 32 31  1  0  0  0  0
 32 29  1  0  0  0  0
M  END
>  <MODEL>
6

>  <REMARK>
 VINA RESULT:      -6.3      4.754      7.726
  Name = 
  9 active torsions:
  status: ('A' for Active; 'I' for Inactive)
    1  A    between atoms: C_1  and  S_3
    2  A    between atoms: S_3  and  N_31
    3  A    between atoms: C_8  and  C_16
    4  A    between atoms: C_9  and  C_21
    5  A    between atoms: C_13  and  C_20
    6  A    between atoms: C_15  and  O_27
    7  A    between atoms: C_16  and  C_21
    8  A    between atoms: C_16  and  C_30
    9  A    between atoms: C_24  and  O_27
                            x       y       z     vdW  Elec       q    Type
                         _______ _______ _______ _____ _____    ______ ____

>  <TORSDO>
F 9

$$$$
=
 OpenBabel11062420363D

 32 33  0  0  1  0  0  0  0  0999 V2000
  190.7820  173.2330  142.4370 C   0  0  1  0  0  3  0  0  0  0  0  0
  191.5750  174.2880  141.7060 C   0  0  0  0  0  0  0  0  0  0  0  0
  192.8070  175.7260  144.1700 C   0  0  1  0  0  3  0  0  0  0  0  0
  190.4610  174.6870  144.3280 C   0  0  2  0  0  3  0  0  0  0  0  0
  191.0600  173.3850  143.9400 C   0  0  1  0  0  3  0  0  0  0  0  0
  191.6240  175.5940  142.2170 O   0  0  0  0  0  0  0  0  0  0  0  0
  192.2120  173.9890  140.6240 N   0  0  0  0  0  2  0  0  0  0  0  0
  192.7320  176.1040  142.7940 O   0  0  0  0  0  0  0  0  0  0  0  0
  191.5660  175.4150  145.0690 C   0  0  2  0  0  3  0  0  0  0  0  0
  189.9910  173.4700  144.8530 O   0  0  0  0  0  0  0  0  0  0  0  0
  188.9490  173.0340  140.4500 O   0  0  0  0  0  0  0  0  0  0  0  0
  189.0550  173.2050  141.9400 S   0  0  0  0  0  0  0  0  0  0  0  0
  188.3570  172.0550  142.6100 O   0  0  0  0  0  0  0  0  0  0  0  0
  187.1020  176.4160  144.1490 O   0  0  0  0  0  0  0  0  0  0  0  0
  186.9360  177.1890  143.1670 C   0  0  0  0  0  0  0  0  0  0  0  0
  187.3830  176.8180  141.8560 N   0  0  0  0  0  2  0  0  0  0  0  0
  188.0270  175.5880  141.5080 C   0  0  0  0  0  3  0  0  0  0  0  0
  188.2850  174.6830  142.3950 N   0  0  0  0  0  0  0  0  0  0  0  0
  184.9270  178.3920  143.3660 F   0  0  0  0  0  0  0  0  0  0  0  0
  186.3020  178.5260  143.3880 C   0  0  0  0  0  0  0  0  0  0  0  0
  186.6920  179.3980  142.3880 F   0  0  0  0  0  0  0  0  0  0  0  0
  186.6870  179.0470  144.6110 F   0  0  0  0  0  0  0  0  0  0  0  0
  194.1190  175.0670  144.5780 C   0  0  0  0  0  2  0  0  0  0  0  0
  195.1900  176.0830  144.9460 C   0  0  2  0  0  3  0  0  0  0  0  0
  194.2620  177.1650  146.8900 O   0  0  0  0  0  1  0  0  0  0  0  0
  194.5460  177.3360  145.5320 C   0  0  0  0  0  2  0  0  0  0  0  0
  197.2310  175.0750  143.4100 S   0  0  0  0  0  1  0  0  0  0  0  0
  196.0470  176.4160  143.7350 C   0  0  0  0  0  2  0  0  0  0  0  0
  191.0600  176.6140  145.6020 O   0  0  0  0  0  0  0  0  0  0  0  0
  189.1450  176.2340  147.0930 C   0  0  0  0  0  1  0  0  0  0  0  0
  191.4260  175.2910  147.6380 C   0  0  0  0  0  1  0  0  0  0  0  0
  190.6520  176.4010  146.9390 C   0  0  0  0  0  3  0  0  0  0  0  0
  1 12  1  1  0  0  0
  1  5  1  0  0  0  0
  2  6  1  0  0  0  0
  2  1  1  0  0  0  0
  3 23  1  6  0  0  0
  3  9  1  0  0  0  0
  4 10  1  1  0  0  0
  4  9  1  0  0  0  0
  5  4  1  0  0  0  0
  5 10  1  1  0  0  0
  6  8  1  0  0  0  0
  7  2  2  0  0  0  0
  8  3  1  0  0  0  0
  9 29  1  6  0  0  0
 11 12  2  0  0  0  0
 12 18  1  0  0  0  0
 12 13  2  0  0  0  0
 15 20  1  0  0  0  0
 15 14  2  0  0  0  0
 16 15  1  0  0  0  0
 17 16  1  0  0  0  0
 17 18  2  0  0  0  0
 19 20  1  0  0  0  0
 20 22  1  0  0  0  0
 21 20  1  0  0  0  0
 23 24  1  0  0  0  0
 24 28  1  6  0  0  0
 24 26  1  0  0  0  0
 26 25  1  0  0  0  0
 27 28  1  0  0  0  0
 29 32  1  0  0  0  0
 32 30  1  0  0  0  0
 32 31  1  0  0  0  0
M  END
>  <MODEL>
7

>  <REMARK>
 VINA RESULT:      -6.2      4.910      7.860
  Name = 
  9 active torsions:
  status: ('A' for Active; 'I' for Inactive)
    1  A    between atoms: C_1  and  S_3
    2  A    between atoms: S_3  and  N_31
    3  A    between atoms: C_8  and  C_16
    4  A    between atoms: C_9  and  C_21
    5  A    between atoms: C_13  and  C_20
    6  A    between atoms: C_15  and  O_27
    7  A    between atoms: C_16  and  C_21
    8  A    between atoms: C_16  and  C_30
    9  A    between atoms: C_24  and  O_27
                            x       y       z     vdW  Elec       q    Type
                         _______ _______ _______ _____ _____    ______ ____

>  <TORSDO>
F 9

$$$$
=
 OpenBabel11062420363D

 32 33  0  0  1  0  0  0  0  0999 V2000
  191.0980  175.3090  144.4170 C   0  0  1  0  0  3  0  0  0  0  0  0
  191.8690  176.5850  144.6430 C   0  0  0  0  0  0  0  0  0  0  0  0
  194.7080  175.5410  143.9290 C   0  0  1  0  0  3  0  0  0  0  0  0
  193.0000  173.9700  145.0370 C   0  0  2  0  0  3  0  0  0  0  0  0
  192.0800  174.2440  143.9040 C   0  0  1  0  0  3  0  0  0  0  0  0
  193.1300  176.5330  145.2550 O   0  0  0  0  0  0  0  0  0  0  0  0
  191.3770  177.7180  144.2650 N   0  0  0  0  0  2  0  0  0  0  0  0
  194.2760  176.7410  144.5730 O   0  0  0  0  0  0  0  0  0  0  0  0
  194.3900  174.0990  144.4450 C   0  0  2  0  0  3  0  0  0  0  0  0
  192.1420  172.9810  144.5230 O   0  0  0  0  0  0  0  0  0  0  0  0
  189.6250  173.4310  145.7020 O   0  0  0  0  0  0  0  0  0  0  0  0
  190.0920  174.8540  145.8350 S   0  0  0  0  0  0  0  0  0  0  0  0
  190.9070  174.9810  147.0910 O   0  0  0  0  0  0  0  0  0  0  0  0
  186.2340  176.7870  145.2210 O   0  0  0  0  0  0  0  0  0  0  0  0
  186.3810  177.6880  146.0910 C   0  0  0  0  0  0  0  0  0  0  0  0
  187.5780  177.7610  146.8770 N   0  0  0  0  0  2  0  0  0  0  0  0
  188.7020  176.8800  146.7750 C   0  0  0  0  0  3  0  0  0  0  0  0
  188.7160  175.8930  145.9400 N   0  0  0  0  0  0  0  0  0  0  0  0
  185.4250  179.7470  145.4850 F   0  0  0  0  0  0  0  0  0  0  0  0
  185.2720  178.6640  146.3280 C   0  0  0  0  0  0  0  0  0  0  0  0
  185.3080  179.0990  147.6410 F   0  0  0  0  0  0  0  0  0  0  0  0
  184.0460  178.0700  146.0870 F   0  0  0  0  0  0  0  0  0  0  0  0
  194.9740  175.6810  142.4350 C   0  0  0  0  0  2  0  0  0  0  0  0
  196.4050  175.3240  142.0640 C   0  0  2  0  0  3  0  0  0  0  0  0
  197.4960  177.1840  143.1410 O   0  0  0  0  0  1  0  0  0  0  0  0
  197.3640  175.7930  143.1540 C   0  0  0  0  0  2  0  0  0  0  0  0
  196.1010  174.8940  139.3690 S   0  0  0  0  0  1  0  0  0  0  0  0
  196.7710  175.9180  140.7130 C   0  0  0  0  0  2  0  0  0  0  0  0
  195.3460  173.7240  145.4070 O   0  0  0  0  0  0  0  0  0  0  0  0
  195.9280  171.9860  143.7720 C   0  0  0  0  0  1  0  0  0  0  0  0
  196.8160  171.8970  146.1370 C   0  0  0  0  0  1  0  0  0  0  0  0
  195.6860  172.3630  145.2280 C   0  0  0  0  0  3  0  0  0  0  0  0
  1  2  1  0  0  0  0
  1 12  1  1  0  0  0
  2  6  1  0  0  0  0
  3 23  1  6  0  0  0
  3  9  1  0  0  0  0
  3  8  1  0  0  0  0
  4 10  1  6  0  0  0
  5  1  1  0  0  0  0
  5 10  1  1  0  0  0
  5  4  1  0  0  0  0
  7  2  2  0  0  0  0
  8  6  1  0  0  0  0
  9  4  1  0  0  0  0
  9 29  1  1  0  0  0
 11 12  2  0  0  0  0
 12 18  1  0  0  0  0
 12 13  2  0  0  0  0
 14 15  2  0  0  0  0
 15 20  1  0  0  0  0
 15 16  1  0  0  0  0
 17 16  1  0  0  0  0
 18 17  2  0  0  0  0
 19 20  1  0  0  0  0
 20 21  1  0  0  0  0
 22 20  1  0  0  0  0
 24 28  1  6  0  0  0
 24 23  1  0  0  0  0
 24 26  1  0  0  0  0
 25 26  1  0  0  0  0
 27 28  1  0  0  0  0
 30 32  1  0  0  0  0
 32 29  1  0  0  0  0
 32 31  1  0  0  0  0
M  END
>  <MODEL>
8

>  <REMARK>
 VINA RESULT:      -6.2      5.172      8.855
  Name = 
  9 active torsions:
  status: ('A' for Active; 'I' for Inactive)
    1  A    between atoms: C_1  and  S_3
    2  A    between atoms: S_3  and  N_31
    3  A    between atoms: C_8  and  C_16
    4  A    between atoms: C_9  and  C_21
    5  A    between atoms: C_13  and  C_20
    6  A    between atoms: C_15  and  O_27
    7  A    between atoms: C_16  and  C_21
    8  A    between atoms: C_16  and  C_30
    9  A    between atoms: C_24  and  O_27
                            x       y       z     vdW  Elec       q    Type
                         _______ _______ _______ _____ _____    ______ ____

>  <TORSDO>
F 9

$$$$
=
 OpenBabel11062420363D

 32 33  0  0  1  0  0  0  0  0999 V2000
  191.3830  176.2130  145.5830 C   0  0  1  0  0  3  0  0  0  0  0  0
  192.6010  175.4640  146.0620 C   0  0  0  0  0  0  0  0  0  0  0  0
  192.7240  173.3080  143.8280 C   0  0  1  0  0  3  0  0  0  0  0  0
  190.4520  174.2150  144.6160 C   0  0  2  0  0  3  0  0  0  0  0  0
  190.9230  175.5780  144.2620 C   0  0  1  0  0  3  0  0  0  0  0  0
  192.6280  174.0640  145.9850 O   0  0  0  0  0  0  0  0  0  0  0  0
  193.6180  176.1090  146.5310 N   0  0  0  0  0  2  0  0  0  0  0  0
  193.3900  173.4030  145.0890 O   0  0  0  0  0  0  0  0  0  0  0  0
  191.1710  173.2950  143.6490 C   0  0  2  0  0  3  0  0  0  0  0  0
  189.5800  175.1880  144.0930 O   0  0  0  0  0  0  0  0  0  0  0  0
  189.7890  175.0390  147.4340 O   0  0  0  0  0  0  0  0  0  0  0  0
  190.1360  176.3870  146.8660 S   0  0  0  0  0  0  0  0  0  0  0  0
  190.6680  177.2560  147.9700 O   0  0  0  0  0  0  0  0  0  0  0  0
  187.2150  178.2860  144.2460 O   0  0  0  0  0  0  0  0  0  0  0  0
  186.2890  178.3720  145.0970 C   0  0  0  0  0  0  0  0  0  0  0  0
  186.4710  177.8850  146.4330 N   0  0  0  0  0  2  0  0  0  0  0  0
  187.6640  177.2830  146.9490 C   0  0  0  0  0  3  0  0  0  0  0  0
  188.7100  177.1070  146.2090 N   0  0  0  0  0  0  0  0  0  0  0  0
  185.1710  180.2160  144.1630 F   0  0  0  0  0  0  0  0  0  0  0  0
  184.9720  178.9540  144.6880 C   0  0  0  0  0  0  0  0  0  0  0  0
  184.1410  179.0430  145.7900 F   0  0  0  0  0  0  0  0  0  0  0  0
  184.3670  178.1550  143.7340 F   0  0  0  0  0  0  0  0  0  0  0  0
  193.5370  173.8090  142.6400 C   0  0  0  0  0  2  0  0  0  0  0  0
  194.5790  174.8410  143.0420 C   0  0  2  0  0  3  0  0  0  0  0  0
  194.8360  176.4440  141.2600 O   0  0  0  0  0  1  0  0  0  0  0  0
  194.2050  176.2110  142.4850 C   0  0  0  0  0  2  0  0  0  0  0  0
  197.2210  174.9080  143.7900 S   0  0  0  0  0  1  0  0  0  0  0  0
  195.9620  174.4130  142.5750 C   0  0  0  0  0  2  0  0  0  0  0  0
  190.6910  171.9820  143.8080 O   0  0  0  0  0  0  0  0  0  0  0  0
  189.9610  172.6450  141.5590 C   0  0  0  0  0  1  0  0  0  0  0  0
  190.8140  170.3090  142.0140 C   0  0  0  0  0  1  0  0  0  0  0  0
  190.1230  171.5370  142.5930 C   0  0  0  0  0  3  0  0  0  0  0  0
  1  2  1  0  0  0  0
  1 12  1  1  0  0  0
  2  7  2  0  0  0  0
  3 23  1  6  0  0  0
  3  8  1  0  0  0  0
  4 10  1  6  0  0  0
  5 10  1  1  0  0  0
  5  4  1  0  0  0  0
  5  1  1  0  0  0  0
  6  2  1  0  0  0  0
  8  6  1  0  0  0  0
  9 29  1  1  0  0  0
  9  3  1  0  0  0  0
  9  4  1  0  0  0  0
 12 11  2  0  0  0  0
 12 13  2  0  0  0  0
 14 15  2  0  0  0  0
 15 16  1  0  0  0  0
 16 17  1  0  0  0  0
 18 12  1  0  0  0  0
 18 17  2  0  0  0  0
 19 20  1  0  0  0  0
 20 15  1  0  0  0  0
 20 21  1  0  0  0  0
 22 20  1  0  0  0  0
 23 24  1  0  0  0  0
 24 26  1  6  0  0  0
 25 26  1  0  0  0  0
 28 24  1  0  0  0  0
 28 27  1  0  0  0  0
 30 32  1  0  0  0  0
 31 32  1  0  0  0  0
 32 29  1  0  0  0  0
M  END
>  <MODEL>
9

>  <REMARK>
 VINA RESULT:      -6.0      5.252      8.174
  Name = 
  9 active torsions:
  status: ('A' for Active; 'I' for Inactive)
    1  A    between atoms: C_1  and  S_3
    2  A    between atoms: S_3  and  N_31
    3  A    between atoms: C_8  and  C_16
    4  A    between atoms: C_9  and  C_21
    5  A    between atoms: C_13  and  C_20
    6  A    between atoms: C_15  and  O_27
    7  A    between atoms: C_16  and  C_21
    8  A    between atoms: C_16  and  C_30
    9  A    between atoms: C_24  and  O_27
                            x       y       z     vdW  Elec       q    Type
                         _______ _______ _______ _____ _____    ______ ____

>  <TORSDO>
F 9

$$$$
