=
 OpenBabel11062420593D

 38 42  0  0  1  0  0  0  0  0999 V2000
  192.2810  174.7920  141.7160 N   0  0  0  0  0  2  0  0  0  0  0  0
  190.7480  173.0550  140.9920 C   0  0  0  0  0  3  0  0  0  0  0  0
  189.8080  175.0120  142.0400 C   0  0  0  0  0  0  0  0  0  0  0  0
  189.4930  172.5600  140.8410 N   0  0  0  0  0  0  0  0  0  0  0  0
  190.9390  174.3010  141.5870 C   0  0  0  0  0  0  0  0  0  0  0  0
  188.4230  173.2390  141.2560 N   0  0  0  0  0  0  0  0  0  0  0  0
  188.5440  174.4500  141.8550 C   0  0  0  0  0  3  0  0  0  0  0  0
  189.9000  176.3210  142.7570 C   0  0  0  0  0  2  0  0  0  0  0  0
  188.7240  177.2260  142.4050 C   0  0  0  0  0  2  0  0  0  0  0  0
  186.3060  177.2630  143.2430 C   0  0  2  0  0  3  0  0  0  0  0  0
  187.5260  177.7430  146.0660 C   0  0  0  0  0  2  0  0  0  0  0  0
  186.3360  176.8020  146.1670 C   0  0  0  0  0  2  0  0  0  0  0  0
  188.2980  177.5360  144.7910 C   0  0  0  0  0  3  0  0  0  0  0  0
  185.1010  177.4020  145.4940 C   0  0  0  0  0  2  0  0  0  0  0  0
  185.4050  178.0950  144.1600 C   0  0  2  0  0  3  0  0  0  0  0  0
  185.9110  175.9360  143.2040 F   0  0  0  0  0  0  0  0  0  0  0  0
  187.7800  177.3720  143.5560 C   0  0  0  0  0  0  0  0  0  0  0  0
  184.1360  178.4590  143.4660 C   0  0  0  0  0  0  0  0  0  0  0  0
  183.8670  177.9820  142.1880 O   0  0  0  0  0  0  0  0  0  0  0  0
  183.2990  179.1950  144.0470 O   0  0  0  0  0  1  0  0  0  0  0  0
  193.3810  174.0120  141.5730 O   0  0  0  0  0  0  0  0  0  0  0  0
  194.4230  174.7500  142.1420 C   0  0  0  0  0  2  0  0  0  0  0  0
  194.0350  173.3560  144.0410 O   0  0  0  0  0  0  0  0  0  0  0  0
  195.0580  173.9730  143.2950 C   0  0  2  0  0  3  0  0  0  0  0  0
  194.9640  175.1400  145.3530 C   0  0  0  0  0  2  0  0  0  0  0  0
  193.9940  173.9790  145.3100 C   0  0  1  0  0  3  0  0  0  0  0  0
  195.9050  174.8120  144.2460 C   0  0  2  0  0  3  0  0  0  0  0  0
  192.5800  174.4420  145.6310 C   0  0  2  0  0  0  0  0  0  0  0  0
  192.4980  175.3100  146.8780 C   0  0  1  0  0  3  0  0  0  0  0  0
  191.4040  173.4790  145.3860 C   0  0  0  0  0  2  0  0  0  0  0  0
  189.9120  175.0720  146.7550 C   0  0  2  0  0  3  0  0  0  0  0  0
  192.3470  175.9350  145.4880 C   0  0  0  0  0  2  0  0  0  0  0  0
  190.0230  174.1200  145.5580 C   0  0  0  0  0  2  0  0  0  0  0  0
  191.1670  175.1270  147.6340 C   0  0  0  0  0  2  0  0  0  0  0  0
  188.8070  174.7260  147.5320 O   0  0  0  0  0  1  0  0  0  0  0  0
  196.1290  177.1710  143.9730 O   0  0  0  0  0  1  0  0  0  0  0  0
  197.6490  175.9140  142.8100 O   0  0  0  0  0  0  0  0  0  0  0  0
  196.5590  176.0300  143.6660 C   0  0  0  0  0  0  0  0  0  0  0  0
  2  5  1  0  0  0  0
  3  8  1  0  0  0  0
  4  2  2  0  0  0  0
  4  6  1  0  0  0  0
  5  1  1  0  0  0  0
  5  3  2  0  0  0  0
  6  7  2  0  0  0  0
  7  3  1  0  0  0  0
  9  8  1  0  0  0  0
  9 17  1  0  0  0  0
 10 16  1  1  0  0  0
 10 17  1  0  0  0  0
 10 15  1  0  0  0  0
 11 12  1  0  0  0  0
 13 11  1  0  0  0  0
 14 12  1  0  0  0  0
 15 18  1  6  0  0  0
 15 14  1  0  0  0  0
 17 13  2  0  0  0  0
 18 20  1  0  0  0  0
 19 18  2  0  0  0  0
 21  1  1  0  0  0  0
 21 22  1  0  0  0  0
 23 26  1  0  0  0  0
 24 22  1  6  0  0  0
 24 23  1  0  0  0  0
 24 27  1  0  0  0  0
 26 25  1  6  0  0  0
 26 28  1  0  0  0  0
 27 38  1  6  0  0  0
 27 25  1  0  0  0  0
 28 30  1  6  0  0  0
 28 29  1  0  0  0  0
 29 32  1  6  0  0  0
 29 34  1  0  0  0  0
 30 33  1  0  0  0  0
 31 35  1  1  0  0  0
 31 34  1  0  0  0  0
 32 28  1  0  0  0  0
 33 31  1  0  0  0  0
 37 38  2  0  0  0  0
 38 36  1  0  0  0  0
M  END
>  <MODEL>
1

>  <REMARK>
 VINA RESULT:      -7.5      0.000      0.000
  Name = 
  10 active torsions:
  status: ('A' for Active; 'I' for Inactive)
    1  A    between atoms: C_2  and  C_28
    2  A    between atoms: C_3  and  C_21
    3  A    between atoms: C_5  and  C_33
    4  A    between atoms: C_9  and  C_19
    5  A    between atoms: C_10  and  C_27
    6  A    between atoms: C_10  and  C_28
    7  A    between atoms: O_15  and  N_17
    8  A    between atoms: O_15  and  C_19
    9  A    between atoms: N_17  and  C_29
   10  A    between atoms: C_34  and  C_35
                            x       y       z     vdW  Elec       q    Type
                         _______ _______ _______ _____ _____    ______ ____

>  <TORSDO>
F 10

$$$$
=
 OpenBabel11062420593D

 38 42  0  0  1  0  0  0  0  0999 V2000
  188.6560  173.4710  141.6150 N   0  0  0  0  0  2  0  0  0  0  0  0
  190.8090  172.9030  140.6500 C   0  0  0  0  0  3  0  0  0  0  0  0
  190.5480  172.6460  143.0320 C   0  0  0  0  0  0  0  0  0  0  0  0
  192.0850  172.4530  140.7620 N   0  0  0  0  0  0  0  0  0  0  0  0
  190.0020  173.0020  141.7820 C   0  0  0  0  0  0  0  0  0  0  0  0
  192.5960  172.1020  141.9430 N   0  0  0  0  0  0  0  0  0  0  0  0
  191.8660  172.1890  143.0830 C   0  0  0  0  0  3  0  0  0  0  0  0
  189.7990  172.7830  144.3190 C   0  0  0  0  0  2  0  0  0  0  0  0
  189.4950  174.2450  144.6280 C   0  0  0  0  0  2  0  0  0  0  0  0
  191.7410  175.4260  144.9720 C   0  0  2  0  0  3  0  0  0  0  0  0
  191.0830  175.3090  148.0120 C   0  0  0  0  0  2  0  0  0  0  0  0
  191.7410  176.6370  147.6730 C   0  0  0  0  0  2  0  0  0  0  0  0
  190.2010  174.8190  146.8960 C   0  0  0  0  0  3  0  0  0  0  0  0
  193.0580  176.4230  146.9240 C   0  0  0  0  0  2  0  0  0  0  0  0
  192.9840  175.3220  145.8580 C   0  0  2  0  0  3  0  0  0  0  0  0
  191.5060  176.7280  144.5670 F   0  0  0  0  0  0  0  0  0  0  0  0
  190.4940  174.8230  145.5790 C   0  0  0  0  0  0  0  0  0  0  0  0
  194.2250  175.3220  145.0300 C   0  0  0  0  0  0  0  0  0  0  0  0
  194.1610  175.0990  143.6590 O   0  0  0  0  0  0  0  0  0  0  0  0
  195.3370  175.5360  145.5760 O   0  0  0  0  0  1  0  0  0  0  0  0
  188.3090  174.4620  140.7590 O   0  0  0  0  0  0  0  0  0  0  0  0
  187.5510  175.3530  141.5250 C   0  0  0  0  0  2  0  0  0  0  0  0
  188.5490  177.0600  142.8620 O   0  0  0  0  0  0  0  0  0  0  0  0
  188.2020  176.7350  141.5360 C   0  0  2  0  0  3  0  0  0  0  0  0
  186.7090  178.4500  142.1940 C   0  0  0  0  0  2  0  0  0  0  0  0
  187.7250  178.1340  143.2700 C   0  0  1  0  0  3  0  0  0  0  0  0
  187.3350  177.8590  140.9790 C   0  0  2  0  0  3  0  0  0  0  0  0
  187.0350  177.8060  144.5870 C   0  0  2  0  0  0  0  0  0  0  0  0
  185.8660  178.7280  144.9020 C   0  0  1  0  0  3  0  0  0  0  0  0
  187.8880  177.3450  145.7830 C   0  0  0  0  0  2  0  0  0  0  0  0
  185.8320  177.7060  147.2930 C   0  0  2  0  0  3  0  0  0  0  0  0
  185.6160  177.2850  144.4540 C   0  0  0  0  0  2  0  0  0  0  0  0
  187.0710  176.8570  146.9840 C   0  0  0  0  0  2  0  0  0  0  0  0
  185.6910  178.9570  146.4170 C   0  0  0  0  0  2  0  0  0  0  0  0
  185.8330  178.0710  148.6380 O   0  0  0  0  0  1  0  0  0  0  0  0
  186.7110  176.9630  138.8570 O   0  0  0  0  0  0  0  0  0  0  0  0
  184.9650  177.6560  140.1670 O   0  0  0  0  0  1  0  0  0  0  0  0
  186.3250  177.4750  139.9400 C   0  0  0  0  0  0  0  0  0  0  0  0
  1  5  1  0  0  0  0
  2  4  2  0  0  0  0
  2  5  1  0  0  0  0
  3  7  1  0  0  0  0
  3  8  1  0  0  0  0
  4  6  1  0  0  0  0
  5  3  2  0  0  0  0
  6  7  2  0  0  0  0
  8  9  1  0  0  0  0
  9 17  1  0  0  0  0
 10 16  1  1  0  0  0
 10 17  1  0  0  0  0
 10 15  1  0  0  0  0
 12 11  1  0  0  0  0
 13 11  1  0  0  0  0
 14 12  1  0  0  0  0
 15 18  1  6  0  0  0
 15 14  1  0  0  0  0
 17 13  2  0  0  0  0
 18 20  1  0  0  0  0
 19 18  2  0  0  0  0
 21 22  1  0  0  0  0
 21  1  1  0  0  0  0
 23 26  1  0  0  0  0
 24 22  1  1  0  0  0
 24 23  1  0  0  0  0
 26 25  1  6  0  0  0
 26 28  1  0  0  0  0
 27 38  1  6  0  0  0
 27 24  1  0  0  0  0
 27 25  1  0  0  0  0
 28 32  1  6  0  0  0
 28 29  1  0  0  0  0
 28 30  1  0  0  0  0
 29 32  1  1  0  0  0
 29 34  1  0  0  0  0
 30 33  1  0  0  0  0
 31 35  1  1  0  0  0
 33 31  1  0  0  0  0
 34 31  1  0  0  0  0
 36 38  2  0  0  0  0
 38 37  1  0  0  0  0
M  END
>  <MODEL>
2

>  <REMARK>
 VINA RESULT:      -7.5      2.356      7.062
  Name = 
  10 active torsions:
  status: ('A' for Active; 'I' for Inactive)
    1  A    between atoms: C_2  and  C_28
    2  A    between atoms: C_3  and  C_21
    3  A    between atoms: C_5  and  C_33
    4  A    between atoms: C_9  and  C_19
    5  A    between atoms: C_10  and  C_27
    6  A    between atoms: C_10  and  C_28
    7  A    between atoms: O_15  and  N_17
    8  A    between atoms: O_15  and  C_19
    9  A    between atoms: N_17  and  C_29
   10  A    between atoms: C_34  and  C_35
                            x       y       z     vdW  Elec       q    Type
                         _______ _______ _______ _____ _____    ______ ____

>  <TORSDO>
F 10

$$$$
=
 OpenBabel11062420593D

 38 42  0  0  1  0  0  0  0  0999 V2000
  189.9630  177.9440  144.7250 N   0  0  0  0  0  2  0  0  0  0  0  0
  189.0560  176.4330  146.3940 C   0  0  0  0  0  3  0  0  0  0  0  0
  191.4440  176.4280  146.0590 C   0  0  0  0  0  0  0  0  0  0  0  0
  189.2110  175.4880  147.3560 N   0  0  0  0  0  0  0  0  0  0  0  0
  190.1710  176.9370  145.7260 C   0  0  0  0  0  0  0  0  0  0  0  0
  190.4160  175.0180  147.6820 N   0  0  0  0  0  0  0  0  0  0  0  0
  191.5380  175.4580  147.0590 C   0  0  0  0  0  3  0  0  0  0  0  0
  192.6980  176.8420  145.3580 C   0  0  0  0  0  2  0  0  0  0  0  0
  193.9320  176.4960  146.1850 C   0  0  0  0  0  2  0  0  0  0  0  0
  195.2290  176.2180  143.9950 C   0  0  2  0  0  3  0  0  0  0  0  0
  196.5050  173.7120  145.3290 C   0  0  0  0  0  2  0  0  0  0  0  0
  197.5510  174.4580  144.5160 C   0  0  0  0  0  2  0  0  0  0  0  0
  195.5190  174.6500  145.9700 C   0  0  0  0  0  3  0  0  0  0  0  0
  197.0690  174.6960  143.0840 C   0  0  0  0  0  2  0  0  0  0  0  0
  195.5980  175.1210  142.9950 C   0  0  2  0  0  3  0  0  0  0  0  0
  196.1850  177.2180  144.0370 F   0  0  0  0  0  0  0  0  0  0  0  0
  194.9250  175.7130  145.3870 C   0  0  0  0  0  0  0  0  0  0  0  0
  195.2660  175.5410  141.6020 C   0  0  0  0  0  0  0  0  0  0  0  0
  193.9440  175.5960  141.1760 O   0  0  0  0  0  1  0  0  0  0  0  0
  196.1900  175.8580  140.8110 O   0  0  0  0  0  0  0  0  0  0  0  0
  188.9510  177.9060  143.8240 O   0  0  0  0  0  0  0  0  0  0  0  0
  189.5300  177.4100  142.6520 C   0  0  0  0  0  2  0  0  0  0  0  0
  187.3090  177.8420  141.8910 O   0  0  0  0  0  0  0  0  0  0  0  0
  188.4490  177.0570  141.6310 C   0  0  2  0  0  3  0  0  0  0  0  0
  186.8200  175.5690  142.4930 C   0  0  0  0  0  2  0  0  0  0  0  0
  186.2860  176.9770  142.3420 C   0  0  1  0  0  3  0  0  0  0  0  0
  188.0280  175.5910  141.6210 C   0  0  2  0  0  3  0  0  0  0  0  0
  185.7030  177.4790  143.6550 C   0  0  2  0  0  0  0  0  0  0  0  0
  185.7080  178.9960  143.7770 C   0  0  1  0  0  3  0  0  0  0  0  0
  185.9750  176.6860  144.9460 C   0  0  0  0  0  2  0  0  0  0  0  0
  185.0830  178.6990  146.2840 C   0  0  2  0  0  3  0  0  0  0  0  0
  184.3980  178.2440  143.5260 C   0  0  0  0  0  2  0  0  0  0  0  0
  185.1800  177.1740  146.1610 C   0  0  0  0  0  2  0  0  0  0  0  0
  185.8940  179.4680  145.2330 C   0  0  0  0  0  2  0  0  0  0  0  0
  185.4730  179.0960  147.5620 O   0  0  0  0  0  1  0  0  0  0  0  0
  188.9610  174.0310  143.1660 O   0  0  0  0  0  1  0  0  0  0  0  0
  190.1220  174.2640  141.2060 O   0  0  0  0  0  0  0  0  0  0  0  0
  189.0630  174.5930  142.0450 C   0  0  0  0  0  0  0  0  0  0  0  0
  1  5  1  0  0  0  0
  2  4  1  0  0  0  0
  3  7  2  0  0  0  0
  4  6  2  0  0  0  0
  5  3  1  0  0  0  0
  5  2  2  0  0  0  0
  7  6  1  0  0  0  0
  8  3  1  0  0  0  0
  8  9  1  0  0  0  0
 10 16  1  1  0  0  0
 10 17  1  0  0  0  0
 11 13  1  0  0  0  0
 12 11  1  0  0  0  0
 14 12  1  0  0  0  0
 15 18  1  6  0  0  0
 15 14  1  0  0  0  0
 15 10  1  0  0  0  0
 17 13  2  0  0  0  0
 17  9  1  0  0  0  0
 19 18  1  0  0  0  0
 20 18  2  0  0  0  0
 21  1  1  0  0  0  0
 22 21  1  0  0  0  0
 23 26  1  0  0  0  0
 24 23  1  0  0  0  0
 24 22  1  1  0  0  0
 26 25  1  1  0  0  0
 26 28  1  0  0  0  0
 27 24  1  0  0  0  0
 27 38  1  1  0  0  0
 27 25  1  0  0  0  0
 28 32  1  6  0  0  0
 28 29  1  0  0  0  0
 28 30  1  0  0  0  0
 29 32  1  1  0  0  0
 29 34  1  0  0  0  0
 30 33  1  0  0  0  0
 31 35  1  1  0  0  0
 33 31  1  0  0  0  0
 34 31  1  0  0  0  0
 37 38  2  0  0  0  0
 38 36  1  0  0  0  0
M  END
>  <MODEL>
3

>  <REMARK>
 VINA RESULT:      -7.5      3.068      8.186
  Name = 
  10 active torsions:
  status: ('A' for Active; 'I' for Inactive)
    1  A    between atoms: C_2  and  C_28
    2  A    between atoms: C_3  and  C_21
    3  A    between atoms: C_5  and  C_33
    4  A    between atoms: C_9  and  C_19
    5  A    between atoms: C_10  and  C_27
    6  A    between atoms: C_10  and  C_28
    7  A    between atoms: O_15  and  N_17
    8  A    between atoms: O_15  and  C_19
    9  A    between atoms: N_17  and  C_29
   10  A    between atoms: C_34  and  C_35
                            x       y       z     vdW  Elec       q    Type
                         _______ _______ _______ _____ _____    ______ ____

>  <TORSDO>
F 10

$$$$
=
 OpenBabel11062420593D

 38 42  0  0  1  0  0  0  0  0999 V2000
  188.1860  173.8540  141.4830 N   0  0  0  0  0  2  0  0  0  0  0  0
  189.0690  173.7850  139.2230 C   0  0  0  0  0  3  0  0  0  0  0  0
  190.6420  173.6330  141.0430 C   0  0  0  0  0  0  0  0  0  0  0  0
  190.1020  173.6810  138.3490 N   0  0  0  0  0  0  0  0  0  0  0  0
  189.3100  173.7530  140.5960 C   0  0  0  0  0  0  0  0  0  0  0  0
  191.3600  173.5510  138.7730 N   0  0  0  0  0  0  0  0  0  0  0  0
  191.6610  173.5280  140.0960 C   0  0  0  0  0  3  0  0  0  0  0  0
  191.0220  173.6610  142.4890 C   0  0  0  0  0  2  0  0  0  0  0  0
  192.4920  173.3010  142.6790 C   0  0  0  0  0  2  0  0  0  0  0  0
  193.8490  175.4340  143.0830 C   0  0  2  0  0  3  0  0  0  0  0  0
  193.6890  174.6970  146.1030 C   0  0  0  0  0  2  0  0  0  0  0  0
  193.5390  176.1990  145.9260 C   0  0  0  0  0  2  0  0  0  0  0  0
  193.0590  173.9330  144.9710 C   0  0  0  0  0  3  0  0  0  0  0  0
  194.6870  176.7740  145.0940 C   0  0  0  0  0  2  0  0  0  0  0  0
  195.0640  175.9040  143.8880 C   0  0  2  0  0  3  0  0  0  0  0  0
  192.9420  176.4590  142.8780 F   0  0  0  0  0  0  0  0  0  0  0  0
  193.1590  174.2170  143.6560 C   0  0  0  0  0  0  0  0  0  0  0  0
  196.0300  176.6280  143.0110 C   0  0  0  0  0  0  0  0  0  0  0  0
  195.7760  176.7810  141.6530 O   0  0  0  0  0  0  0  0  0  0  0  0
  197.0780  177.1130  143.5090 O   0  0  0  0  0  1  0  0  0  0  0  0
  187.9430  174.9350  142.2630 O   0  0  0  0  0  0  0  0  0  0  0  0
  187.1730  175.7890  141.4680 C   0  0  0  0  0  2  0  0  0  0  0  0
  188.8690  177.2230  142.3430 O   0  0  0  0  0  0  0  0  0  0  0  0
  187.7610  177.1990  141.4730 C   0  0  2  0  0  3  0  0  0  0  0  0
  187.0830  178.4730  143.3500 C   0  0  0  0  0  2  0  0  0  0  0  0
  188.5290  178.0360  143.4480 C   0  0  1  0  0  3  0  0  0  0  0  0
  186.7950  178.2980  141.8990 C   0  0  2  0  0  3  0  0  0  0  0  0
  188.7840  177.2950  144.7530 C   0  0  2  0  0  0  0  0  0  0  0  0
  189.9880  176.3660  144.6950 C   0  0  1  0  0  3  0  0  0  0  0  0
  187.5830  176.8090  145.5850 C   0  0  0  0  0  2  0  0  0  0  0  0
  189.2150  175.3810  146.9740 C   0  0  2  0  0  3  0  0  0  0  0  0
  190.0630  177.6840  145.4710 C   0  0  0  0  0  2  0  0  0  0  0  0
  187.9570  176.2570  146.9640 C   0  0  0  0  0  2  0  0  0  0  0  0
  189.8120  175.1200  145.5860 C   0  0  0  0  0  2  0  0  0  0  0  0
  188.9410  174.1680  147.6040 O   0  0  0  0  0  1  0  0  0  0  0  0
  184.9010  178.1650  140.4530 O   0  0  0  0  0  0  0  0  0  0  0  0
  184.4750  177.6880  142.6520 O   0  0  0  0  0  1  0  0  0  0  0  0
  185.3400  178.0550  141.6260 C   0  0  0  0  0  0  0  0  0  0  0  0
  1 21  1  0  0  0  0
  2  5  1  0  0  0  0
  3  8  1  0  0  0  0
  4  6  1  0  0  0  0
  4  2  2  0  0  0  0
  5  3  2  0  0  0  0
  5  1  1  0  0  0  0
  6  7  2  0  0  0  0
  7  3  1  0  0  0  0
  8  9  1  0  0  0  0
  9 17  1  0  0  0  0
 10 16  1  1  0  0  0
 10 17  1  0  0  0  0
 10 15  1  0  0  0  0
 12 11  1  0  0  0  0
 13 11  1  0  0  0  0
 14 12  1  0  0  0  0
 15 18  1  6  0  0  0
 15 14  1  0  0  0  0
 17 13  2  0  0  0  0
 18 20  1  0  0  0  0
 19 18  2  0  0  0  0
 22 21  1  0  0  0  0
 23 26  1  0  0  0  0
 24 22  1  1  0  0  0
 24 27  1  0  0  0  0
 24 23  1  0  0  0  0
 26 25  1  6  0  0  0
 26 28  1  0  0  0  0
 27 38  1  1  0  0  0
 27 25  1  0  0  0  0
 28 32  1  1  0  0  0
 28 30  1  0  0  0  0
 29 28  1  0  0  0  0
 29 32  1  1  0  0  0
 29 34  1  0  0  0  0
 30 33  1  0  0  0  0
 31 35  1  6  0  0  0
 33 31  1  0  0  0  0
 34 31  1  0  0  0  0
 36 38  2  0  0  0  0
 38 37  1  0  0  0  0
M  END
>  <MODEL>
4

>  <REMARK>
 VINA RESULT:      -7.5      2.246      7.302
  Name = 
  10 active torsions:
  status: ('A' for Active; 'I' for Inactive)
    1  A    between atoms: C_2  and  C_28
    2  A    between atoms: C_3  and  C_21
    3  A    between atoms: C_5  and  C_33
    4  A    between atoms: C_9  and  C_19
    5  A    between atoms: C_10  and  C_27
    6  A    between atoms: C_10  and  C_28
    7  A    between atoms: O_15  and  N_17
    8  A    between atoms: O_15  and  C_19
    9  A    between atoms: N_17  and  C_29
   10  A    between atoms: C_34  and  C_35
                            x       y       z     vdW  Elec       q    Type
                         _______ _______ _______ _____ _____    ______ ____

>  <TORSDO>
F 10

$$$$
=
 OpenBabel11062420593D

 38 42  0  0  1  0  0  0  0  0999 V2000
  191.0340  175.7310  142.5030 N   0  0  0  0  0  2  0  0  0  0  0  0
  190.0560  173.5090  142.5030 C   0  0  0  0  0  3  0  0  0  0  0  0
  188.6460  175.3530  141.8520 C   0  0  0  0  0  0  0  0  0  0  0  0
  189.0140  172.6650  142.2920 N   0  0  0  0  0  0  0  0  0  0  0  0
  189.9030  174.8770  142.2780 C   0  0  0  0  0  0  0  0  0  0  0  0
  187.8300  173.1140  141.8730 N   0  0  0  0  0  0  0  0  0  0  0  0
  187.6140  174.4350  141.6500 C   0  0  0  0  0  3  0  0  0  0  0  0
  188.3480  176.8040  141.6500 C   0  0  0  0  0  2  0  0  0  0  0  0
  188.2250  177.5310  142.9860 C   0  0  0  0  0  2  0  0  0  0  0  0
  185.7440  177.4870  142.3520 C   0  0  2  0  0  3  0  0  0  0  0  0
  185.4080  179.8020  144.4050 C   0  0  0  0  0  2  0  0  0  0  0  0
  184.2220  178.8550  144.4900 C   0  0  0  0  0  2  0  0  0  0  0  0
  186.6870  179.0740  144.0950 C   0  0  0  0  0  3  0  0  0  0  0  0
  183.5910  178.6360  143.1150 C   0  0  0  0  0  2  0  0  0  0  0  0
  184.6200  178.4600  141.9900 C   0  0  2  0  0  3  0  0  0  0  0  0
  185.2570  176.3440  142.9620 F   0  0  0  0  0  0  0  0  0  0  0  0
  186.8540  178.1000  143.1750 C   0  0  0  0  0  0  0  0  0  0  0  0
  183.9400  178.0380  140.7310 C   0  0  0  0  0  0  0  0  0  0  0  0
  182.5550  178.0810  140.6260 O   0  0  0  0  0  1  0  0  0  0  0  0
  184.6290  177.6490  139.7530 O   0  0  0  0  0  0  0  0  0  0  0  0
  192.2630  175.2720  142.8440 O   0  0  0  0  0  0  0  0  0  0  0  0
  192.5410  175.8680  144.0780 C   0  0  0  0  0  2  0  0  0  0  0  0
  191.0460  174.6440  145.4800 O   0  0  0  0  0  0  0  0  0  0  0  0
  192.4130  174.8450  145.2060 C   0  0  2  0  0  3  0  0  0  0  0  0
  192.0220  175.8450  147.3160 C   0  0  0  0  0  2  0  0  0  0  0  0
  190.7860  175.1660  146.7680 C   0  0  1  0  0  3  0  0  0  0  0  0
  193.1110  175.2300  146.5060 C   0  0  2  0  0  3  0  0  0  0  0  0
  189.6100  176.1320  146.7240 C   0  0  2  0  0  0  0  0  0  0  0  0
  189.9350  177.5030  147.2980 C   0  0  1  0  0  3  0  0  0  0  0  0
  188.1910  175.5960  146.9870 C   0  0  0  0  0  2  0  0  0  0  0  0
  187.3910  178.0340  147.2090 C   0  0  2  0  0  3  0  0  0  0  0  0
  189.7860  177.3120  145.7860 C   0  0  0  0  0  2  0  0  0  0  0  0
  187.0780  176.6140  146.7240 C   0  0  0  0  0  2  0  0  0  0  0  0
  188.7150  178.1610  147.9730 C   0  0  0  0  0  2  0  0  0  0  0  0
  186.3440  178.5050  147.9990 O   0  0  0  0  0  1  0  0  0  0  0  0
  194.2730  177.2830  146.8630 O   0  0  0  0  0  1  0  0  0  0  0  0
  195.4740  175.6670  145.7710 O   0  0  0  0  0  0  0  0  0  0  0  0
  194.3110  176.1200  146.3850 C   0  0  0  0  0  0  0  0  0  0  0  0
  1 21  1  0  0  0  0
  3  5  1  0  0  0  0
  4  2  1  0  0  0  0
  5  2  2  0  0  0  0
  5  1  1  0  0  0  0
  6  4  2  0  0  0  0
  7  3  2  0  0  0  0
  7  6  1  0  0  0  0
  8  3  1  0  0  0  0
  8  9  1  0  0  0  0
  9 17  1  0  0  0  0
 10 16  1  1  0  0  0
 10 17  1  0  0  0  0
 11 12  1  0  0  0  0
 13 11  1  0  0  0  0
 14 12  1  0  0  0  0
 15 18  1  6  0  0  0
 15 10  1  0  0  0  0
 15 14  1  0  0  0  0
 17 13  2  0  0  0  0
 19 18  1  0  0  0  0
 20 18  2  0  0  0  0
 21 22  1  0  0  0  0
 23 26  1  0  0  0  0
 24 22  1  6  0  0  0
 24 23  1  0  0  0  0
 24 27  1  0  0  0  0
 26 25  1  6  0  0  0
 27 38  1  6  0  0  0
 27 25  1  0  0  0  0
 28 32  1  6  0  0  0
 28 26  1  0  0  0  0
 28 30  1  0  0  0  0
 28 29  1  0  0  0  0
 29 32  1  6  0  0  0
 29 34  1  0  0  0  0
 31 34  1  0  0  0  0
 31 35  1  1  0  0  0
 33 30  1  0  0  0  0
 33 31  1  0  0  0  0
 37 38  2  0  0  0  0
 38 36  1  0  0  0  0
M  END
>  <MODEL>
5

>  <REMARK>
 VINA RESULT:      -7.4      1.948      2.955
  Name = 
  10 active torsions:
  status: ('A' for Active; 'I' for Inactive)
    1  A    between atoms: C_2  and  C_28
    2  A    between atoms: C_3  and  C_21
    3  A    between atoms: C_5  and  C_33
    4  A    between atoms: C_9  and  C_19
    5  A    between atoms: C_10  and  C_27
    6  A    between atoms: C_10  and  C_28
    7  A    between atoms: O_15  and  N_17
    8  A    between atoms: O_15  and  C_19
    9  A    between atoms: N_17  and  C_29
   10  A    between atoms: C_34  and  C_35
                            x       y       z     vdW  Elec       q    Type
                         _______ _______ _______ _____ _____    ______ ____

>  <TORSDO>
F 10

$$$$
=
 OpenBabel11062420593D

 38 42  0  0  1  0  0  0  0  0999 V2000
  190.3450  174.0230  142.8760 N   0  0  0  0  0  2  0  0  0  0  0  0
  190.1070  172.6690  140.8760 C   0  0  0  0  0  3  0  0  0  0  0  0
  188.7330  174.6400  141.0620 C   0  0  0  0  0  0  0  0  0  0  0  0
  189.5490  172.4210  139.6640 N   0  0  0  0  0  0  0  0  0  0  0  0
  189.7210  173.7930  141.6050 C   0  0  0  0  0  0  0  0  0  0  0  0
  188.6260  173.2310  139.1440 N   0  0  0  0  0  0  0  0  0  0  0  0
  188.1980  174.3330  139.8100 C   0  0  0  0  0  3  0  0  0  0  0  0
  188.1910  175.8310  141.7880 C   0  0  0  0  0  2  0  0  0  0  0  0
  187.0890  175.4270  142.7630 C   0  0  0  0  0  2  0  0  0  0  0  0
  186.9740  177.0530  144.7370 C   0  0  2  0  0  3  0  0  0  0  0  0
  184.6880  178.4580  143.1610 C   0  0  0  0  0  2  0  0  0  0  0  0
  185.5660  179.4970  143.8400 C   0  0  0  0  0  2  0  0  0  0  0  0
  185.4840  177.2690  142.6950 C   0  0  0  0  0  3  0  0  0  0  0  0
  185.7180  179.1990  145.3330 C   0  0  0  0  0  2  0  0  0  0  0  0
  185.9300  177.7110  145.6420 C   0  0  2  0  0  3  0  0  0  0  0  0
  188.1000  177.8450  144.5920 F   0  0  0  0  0  0  0  0  0  0  0  0
  186.4450  176.6240  143.3880 C   0  0  0  0  0  0  0  0  0  0  0  0
  186.2850  177.5290  147.0790 C   0  0  0  0  0  0  0  0  0  0  0  0
  186.1340  178.5740  147.9830 O   0  0  0  0  0  1  0  0  0  0  0  0
  186.7140  176.4160  147.4770 O   0  0  0  0  0  0  0  0  0  0  0  0
  191.2490  175.0080  143.1000 O   0  0  0  0  0  0  0  0  0  0  0  0
  191.0030  175.4330  144.4080 C   0  0  0  0  0  2  0  0  0  0  0  0
  193.2800  176.1460  144.3230 O   0  0  0  0  0  0  0  0  0  0  0  0
  192.0110  176.5060  144.8190 C   0  0  2  0  0  3  0  0  0  0  0  0
  193.2940  175.8870  146.7100 C   0  0  0  0  0  2  0  0  0  0  0  0
  194.1010  175.8370  145.4310 C   0  0  1  0  0  3  0  0  0  0  0  0
  192.1320  176.7340  146.3220 C   0  0  2  0  0  3  0  0  0  0  0  0
  194.7480  174.4710  145.2510 C   0  0  2  0  0  0  0  0  0  0  0  0
  193.7410  173.3330  145.1670 C   0  0  1  0  0  3  0  0  0  0  0  0
  196.0690  174.1660  145.9800 C   0  0  0  0  0  2  0  0  0  0  0  0
  195.7360  171.6810  145.3890 C   0  0  2  0  0  3  0  0  0  0  0  0
  194.4800  173.8070  143.9120 C   0  0  0  0  0  2  0  0  0  0  0  0
  196.7210  172.8420  145.5700 C   0  0  0  0  0  2  0  0  0  0  0  0
  194.2880  172.0200  145.7610 C   0  0  0  0  0  2  0  0  0  0  0  0
  196.1660  170.5790  146.1260 O   0  0  0  0  0  1  0  0  0  0  0  0
  189.9450  177.2530  147.1230 O   0  0  0  0  0  0  0  0  0  0  0  0
  190.8250  175.2910  147.9120 O   0  0  0  0  0  1  0  0  0  0  0  0
  190.9110  176.4480  147.1440 C   0  0  0  0  0  0  0  0  0  0  0  0
  1 21  1  0  0  0  0
  2  5  1  0  0  0  0
  3  5  2  0  0  0  0
  3  8  1  0  0  0  0
  4  2  2  0  0  0  0
  5  1  1  0  0  0  0
  6  4  1  0  0  0  0
  6  7  2  0  0  0  0
  7  3  1  0  0  0  0
  8  9  1  0  0  0  0
  9 17  1  0  0  0  0
 10 16  1  6  0  0  0
 10 15  1  0  0  0  0
 11 12  1  0  0  0  0
 12 14  1  0  0  0  0
 13 11  1  0  0  0  0
 13 17  2  0  0  0  0
 14 15  1  0  0  0  0
 15 18  1  1  0  0  0
 17 10  1  0  0  0  0
 18 20  2  0  0  0  0
 18 19  1  0  0  0  0
 21 22  1  0  0  0  0
 23 24  1  0  0  0  0
 23 26  1  0  0  0  0
 24 22  1  1  0  0  0
 24 27  1  0  0  0  0
 26 25  1  1  0  0  0
 27 25  1  0  0  0  0
 27 38  1  1  0  0  0
 28 32  1  6  0  0  0
 28 26  1  0  0  0  0
 28 30  1  0  0  0  0
 29 32  1  6  0  0  0
 29 28  1  0  0  0  0
 29 34  1  0  0  0  0
 31 33  1  0  0  0  0
 31 34  1  0  0  0  0
 31 35  1  1  0  0  0
 33 30  1  0  0  0  0
 36 38  2  0  0  0  0
 38 37  1  0  0  0  0
M  END
>  <MODEL>
6

>  <REMARK>
 VINA RESULT:      -7.3      2.258      4.196
  Name = 
  10 active torsions:
  status: ('A' for Active; 'I' for Inactive)
    1  A    between atoms: C_2  and  C_28
    2  A    between atoms: C_3  and  C_21
    3  A    between atoms: C_5  and  C_33
    4  A    between atoms: C_9  and  C_19
    5  A    between atoms: C_10  and  C_27
    6  A    between atoms: C_10  and  C_28
    7  A    between atoms: O_15  and  N_17
    8  A    between atoms: O_15  and  C_19
    9  A    between atoms: N_17  and  C_29
   10  A    between atoms: C_34  and  C_35
                            x       y       z     vdW  Elec       q    Type
                         _______ _______ _______ _____ _____    ______ ____

>  <TORSDO>
F 10

$$$$
=
 OpenBabel11062420593D

 38 42  0  0  1  0  0  0  0  0999 V2000
  192.1830  174.4720  141.7130 N   0  0  0  0  0  2  0  0  0  0  0  0
  190.4770  173.0920  140.6760 C   0  0  0  0  0  3  0  0  0  0  0  0
  189.7450  174.8950  142.0990 C   0  0  0  0  0  0  0  0  0  0  0  0
  189.1770  172.7770  140.4430 N   0  0  0  0  0  0  0  0  0  0  0  0
  190.7970  174.1680  141.5040 C   0  0  0  0  0  0  0  0  0  0  0  0
  188.1830  173.4760  140.9940 N   0  0  0  0  0  0  0  0  0  0  0  0
  188.4290  174.5240  141.8190 C   0  0  0  0  0  3  0  0  0  0  0  0
  189.9720  176.0190  143.0600 C   0  0  0  0  0  2  0  0  0  0  0  0
  188.9090  177.1010  142.9020 C   0  0  0  0  0  2  0  0  0  0  0  0
  186.6080  177.2960  144.0070 C   0  0  2  0  0  3  0  0  0  0  0  0
  188.1650  177.5560  146.6900 C   0  0  0  0  0  2  0  0  0  0  0  0
  186.9180  176.7110  146.8920 C   0  0  0  0  0  2  0  0  0  0  0  0
  188.7740  177.3420  145.3310 C   0  0  0  0  0  3  0  0  0  0  0  0
  185.6720  177.4360  146.3830 C   0  0  0  0  0  2  0  0  0  0  0  0
  185.8870  178.1580  145.0460 C   0  0  2  0  0  3  0  0  0  0  0  0
  186.1010  176.0090  143.9680 F   0  0  0  0  0  0  0  0  0  0  0  0
  188.1120  177.2730  144.1560 C   0  0  0  0  0  0  0  0  0  0  0  0
  184.5850  178.6520  144.5110 C   0  0  0  0  0  0  0  0  0  0  0  0
  184.3480  178.6820  143.1420 O   0  0  0  0  0  0  0  0  0  0  0  0
  183.6910  179.0360  145.3080 O   0  0  0  0  0  1  0  0  0  0  0  0
  193.1640  173.5370  141.7090 O   0  0  0  0  0  0  0  0  0  0  0  0
  194.3150  174.2230  141.3120 C   0  0  0  0  0  2  0  0  0  0  0  0
  194.8990  173.6890  143.5640 O   0  0  0  0  0  0  0  0  0  0  0  0
  195.4540  173.9740  142.3010 C   0  0  2  0  0  3  0  0  0  0  0  0
  195.9250  175.8580  143.6550 C   0  0  0  0  0  2  0  0  0  0  0  0
  195.2220  174.7620  144.4260 C   0  0  1  0  0  3  0  0  0  0  0  0
  196.4340  175.1310  142.4580 C   0  0  2  0  0  3  0  0  0  0  0  0
  193.9680  175.2960  145.1050 C   0  0  2  0  0  0  0  0  0  0  0  0
  194.1820  176.6340  145.8000 C   0  0  1  0  0  3  0  0  0  0  0  0
  193.0140  174.3070  145.7980 C   0  0  0  0  0  2  0  0  0  0  0  0
  191.8480  176.3210  146.9040 C   0  0  2  0  0  3  0  0  0  0  0  0
  193.3950  176.5590  144.4880 C   0  0  0  0  0  2  0  0  0  0  0  0
  191.6980  174.9330  146.2710 C   0  0  0  0  0  2  0  0  0  0  0  0
  193.3000  176.7900  147.0550 C   0  0  0  0  0  2  0  0  0  0  0  0
  191.2140  176.3460  148.1440 O   0  0  0  0  0  1  0  0  0  0  0  0
  196.0670  177.1630  141.2640 O   0  0  0  0  0  1  0  0  0  0  0  0
  197.3820  175.6310  140.1850 O   0  0  0  0  0  0  0  0  0  0  0  0
  196.6090  176.0290  141.2700 C   0  0  0  0  0  0  0  0  0  0  0  0
  2  5  1  0  0  0  0
  3  8  1  0  0  0  0
  4  2  2  0  0  0  0
  4  6  1  0  0  0  0
  5  1  1  0  0  0  0
  5  3  2  0  0  0  0
  6  7  2  0  0  0  0
  7  3  1  0  0  0  0
  9  8  1  0  0  0  0
  9 17  1  0  0  0  0
 10 16  1  1  0  0  0
 10 17  1  0  0  0  0
 10 15  1  0  0  0  0
 11 12  1  0  0  0  0
 13 11  1  0  0  0  0
 14 12  1  0  0  0  0
 15 18  1  6  0  0  0
 15 14  1  0  0  0  0
 17 13  2  0  0  0  0
 18 20  1  0  0  0  0
 19 18  2  0  0  0  0
 21  1  1  0  0  0  0
 22 21  1  0  0  0  0
 23 26  1  0  0  0  0
 24 22  1  6  0  0  0
 24 27  1  0  0  0  0
 24 23  1  0  0  0  0
 26 25  1  6  0  0  0
 26 28  1  0  0  0  0
 27 38  1  6  0  0  0
 27 25  1  0  0  0  0
 28 32  1  6  0  0  0
 28 30  1  0  0  0  0
 28 29  1  0  0  0  0
 29 32  1  6  0  0  0
 29 34  1  0  0  0  0
 30 33  1  0  0  0  0
 31 34  1  0  0  0  0
 31 35  1  1  0  0  0
 33 31  1  0  0  0  0
 36 38  1  0  0  0  0
 37 38  2  0  0  0  0
M  END
>  <MODEL>
7

>  <REMARK>
 VINA RESULT:      -7.3      1.244      1.514
  Name = 
  10 active torsions:
  status: ('A' for Active; 'I' for Inactive)
    1  A    between atoms: C_2  and  C_28
    2  A    between atoms: C_3  and  C_21
    3  A    between atoms: C_5  and  C_33
    4  A    between atoms: C_9  and  C_19
    5  A    between atoms: C_10  and  C_27
    6  A    between atoms: C_10  and  C_28
    7  A    between atoms: O_15  and  N_17
    8  A    between atoms: O_15  and  C_19
    9  A    between atoms: N_17  and  C_29
   10  A    between atoms: C_34  and  C_35
                            x       y       z     vdW  Elec       q    Type
                         _______ _______ _______ _____ _____    ______ ____

>  <TORSDO>
F 10

$$$$
=
 OpenBabel11062420593D

 38 42  0  0  1  0  0  0  0  0999 V2000
  191.9530  174.6870  141.5610 N   0  0  0  0  0  2  0  0  0  0  0  0
  190.8320  172.9220  140.3290 C   0  0  0  0  0  3  0  0  0  0  0  0
  189.4550  174.5670  141.4300 C   0  0  0  0  0  0  0  0  0  0  0  0
  189.7060  172.3150  139.8750 N   0  0  0  0  0  0  0  0  0  0  0  0
  190.7370  174.0720  141.1120 C   0  0  0  0  0  0  0  0  0  0  0  0
  188.4940  172.7920  140.1630 N   0  0  0  0  0  0  0  0  0  0  0  0
  188.3350  173.9000  140.9310 C   0  0  0  0  0  3  0  0  0  0  0  0
  189.2340  175.7480  142.3200 C   0  0  0  0  0  2  0  0  0  0  0  0
  188.2480  175.4190  143.4360 C   0  0  0  0  0  2  0  0  0  0  0  0
  187.1450  177.2360  144.8630 C   0  0  2  0  0  3  0  0  0  0  0  0
  185.2480  177.6790  142.4350 C   0  0  0  0  0  2  0  0  0  0  0  0
  185.6080  179.0150  143.0640 C   0  0  0  0  0  2  0  0  0  0  0  0
  186.3910  176.7030  142.4990 C   0  0  0  0  0  3  0  0  0  0  0  0
  185.3270  179.0100  144.5680 C   0  0  0  0  0  2  0  0  0  0  0  0
  185.7460  177.7090  145.2650 C   0  0  2  0  0  3  0  0  0  0  0  0
  188.0550  178.2790  144.8490 F   0  0  0  0  0  0  0  0  0  0  0  0
  187.1910  176.4700  143.5610 C   0  0  0  0  0  0  0  0  0  0  0  0
  185.6440  177.8620  146.7460 C   0  0  0  0  0  0  0  0  0  0  0  0
  184.9790  178.9490  147.3010 O   0  0  0  0  0  0  0  0  0  0  0  0
  186.1570  176.9940  147.4970 O   0  0  0  0  0  1  0  0  0  0  0  0
  193.1580  174.0680  141.5410 O   0  0  0  0  0  0  0  0  0  0  0  0
  193.9980  174.8880  142.3000 C   0  0  0  0  0  2  0  0  0  0  0  0
  193.6770  173.5840  144.2730 O   0  0  0  0  0  0  0  0  0  0  0  0
  194.6720  174.0810  143.4090 C   0  0  2  0  0  3  0  0  0  0  0  0
  194.8990  175.2990  145.4260 C   0  0  0  0  0  2  0  0  0  0  0  0
  193.8250  174.2370  145.5180 C   0  0  1  0  0  3  0  0  0  0  0  0
  195.6870  174.8550  144.2420 C   0  0  2  0  0  3  0  0  0  0  0  0
  192.5010  174.8430  145.9620 C   0  0  2  0  0  0  0  0  0  0  0  0
  191.8480  175.7130  144.8980 C   0  0  1  0  0  3  0  0  0  0  0  0
  192.3440  175.3100  147.4210 C   0  0  0  0  0  2  0  0  0  0  0  0
  190.1820  176.5240  146.7230 C   0  0  2  0  0  3  0  0  0  0  0  0
  191.2800  174.3280  145.2220 C   0  0  0  0  0  2  0  0  0  0  0  0
  190.9160  175.7160  147.7990 C   0  0  0  0  0  2  0  0  0  0  0  0
  191.0440  176.8800  145.5050 C   0  0  0  0  0  2  0  0  0  0  0  0
  189.6550  177.6870  147.2820 O   0  0  0  0  0  1  0  0  0  0  0  0
  196.1320  177.1730  143.8970 O   0  0  0  0  0  1  0  0  0  0  0  0
  197.3410  175.7490  142.5740 O   0  0  0  0  0  0  0  0  0  0  0  0
  196.3900  175.9900  143.5590 C   0  0  0  0  0  0  0  0  0  0  0  0
  2  5  1  0  0  0  0
  3  8  1  0  0  0  0
  4  6  1  0  0  0  0
  4  2  2  0  0  0  0
  5  3  2  0  0  0  0
  5  1  1  0  0  0  0
  6  7  2  0  0  0  0
  7  3  1  0  0  0  0
  8  9  1  0  0  0  0
  9 17  1  0  0  0  0
 10 16  1  6  0  0  0
 10 15  1  0  0  0  0
 11 13  1  0  0  0  0
 11 12  1  0  0  0  0
 12 14  1  0  0  0  0
 13 17  2  0  0  0  0
 14 15  1  0  0  0  0
 15 18  1  1  0  0  0
 17 10  1  0  0  0  0
 18 19  2  0  0  0  0
 18 20  1  0  0  0  0
 21  1  1  0  0  0  0
 21 22  1  0  0  0  0
 23 26  1  0  0  0  0
 24 22  1  6  0  0  0
 24 27  1  0  0  0  0
 24 23  1  0  0  0  0
 26 25  1  6  0  0  0
 26 28  1  0  0  0  0
 27 38  1  6  0  0  0
 27 25  1  0  0  0  0
 28 32  1  6  0  0  0
 28 30  1  0  0  0  0
 29 32  1  1  0  0  0
 29 34  1  0  0  0  0
 29 28  1  0  0  0  0
 30 33  1  0  0  0  0
 31 35  1  1  0  0  0
 31 33  1  0  0  0  0
 34 31  1  0  0  0  0
 37 38  2  0  0  0  0
 38 36  1  0  0  0  0
M  END
>  <MODEL>
8

>  <REMARK>
 VINA RESULT:      -7.3      1.552      2.227
  Name = 
  10 active torsions:
  status: ('A' for Active; 'I' for Inactive)
    1  A    between atoms: C_2  and  C_28
    2  A    between atoms: C_3  and  C_21
    3  A    between atoms: C_5  and  C_33
    4  A    between atoms: C_9  and  C_19
    5  A    between atoms: C_10  and  C_27
    6  A    between atoms: C_10  and  C_28
    7  A    between atoms: O_15  and  N_17
    8  A    between atoms: O_15  and  C_19
    9  A    between atoms: N_17  and  C_29
   10  A    between atoms: C_34  and  C_35
                            x       y       z     vdW  Elec       q    Type
                         _______ _______ _______ _____ _____    ______ ____

>  <TORSDO>
F 10

$$$$
=
 OpenBabel11062420593D

 38 42  0  0  1  0  0  0  0  0999 V2000
  187.8030  175.7590  142.9580 N   0  0  0  0  0  2  0  0  0  0  0  0
  186.6130  177.2280  141.4340 C   0  0  0  0  0  3  0  0  0  0  0  0
  185.9560  177.2510  143.7540 C   0  0  0  0  0  0  0  0  0  0  0  0
  185.6720  178.1720  141.1800 N   0  0  0  0  0  0  0  0  0  0  0  0
  186.7880  176.7480  142.7320 C   0  0  0  0  0  0  0  0  0  0  0  0
  184.8950  178.6580  142.1490 N   0  0  0  0  0  0  0  0  0  0  0  0
  185.0070  178.2220  143.4300 C   0  0  0  0  0  3  0  0  0  0  0  0
  186.0060  176.7570  145.1640 C   0  0  0  0  0  2  0  0  0  0  0  0
  187.0180  177.5460  145.9890 C   0  0  0  0  0  2  0  0  0  0  0  0
  189.5570  177.3770  145.7050 C   0  0  2  0  0  3  0  0  0  0  0  0
  189.3160  174.6470  147.1810 C   0  0  0  0  0  2  0  0  0  0  0  0
  190.5690  175.3770  147.6380 C   0  0  0  0  0  2  0  0  0  0  0  0
  188.1880  175.5980  146.8910 C   0  0  0  0  0  3  0  0  0  0  0  0
  191.4280  175.7980  146.4440 C   0  0  0  0  0  2  0  0  0  0  0  0
  190.6130  176.3570  145.2710 C   0  0  2  0  0  3  0  0  0  0  0  0
  190.0630  178.2800  146.6240 F   0  0  0  0  0  0  0  0  0  0  0  0
  188.2720  176.7620  146.2120 C   0  0  0  0  0  0  0  0  0  0  0  0
  191.5220  176.9430  144.2440 C   0  0  0  0  0  0  0  0  0  0  0  0
  192.8280  177.2890  144.5700 O   0  0  0  0  0  1  0  0  0  0  0  0
  191.1060  177.1150  143.0700 O   0  0  0  0  0  0  0  0  0  0  0  0
  187.7770  174.5210  142.4090 O   0  0  0  0  0  0  0  0  0  0  0  0
  189.1180  174.1330  142.3300 C   0  0  0  0  0  2  0  0  0  0  0  0
  190.1500  172.2400  143.3560 O   0  0  0  0  0  0  0  0  0  0  0  0
  189.2350  172.6090  142.3500 C   0  0  2  0  0  3  0  0  0  0  0  0
  191.1580  171.8180  141.2170 C   0  0  0  0  0  2  0  0  0  0  0  0
  191.2880  171.6940  142.7200 C   0  0  1  0  0  3  0  0  0  0  0  0
  189.6880  171.9810  141.0370 C   0  0  2  0  0  3  0  0  0  0  0  0
  192.5550  172.3810  143.2120 C   0  0  2  0  0  0  0  0  0  0  0  0
  192.9350  171.9970  144.6350 C   0  0  1  0  0  3  0  0  0  0  0  0
  192.8240  173.8390  142.8000 C   0  0  0  0  0  2  0  0  0  0  0  0
  194.6790  173.9240  144.5840 C   0  0  2  0  0  3  0  0  0  0  0  0
  193.7350  171.4550  143.4470 C   0  0  0  0  0  2  0  0  0  0  0  0
  194.2130  174.3550  143.1890 C   0  0  0  0  0  2  0  0  0  0  0  0
  193.6290  173.1490  145.3890 C   0  0  0  0  0  2  0  0  0  0  0  0
  195.0970  175.0400  145.3080 O   0  0  0  0  0  1  0  0  0  0  0  0
  188.1650  172.6780  139.3370 O   0  0  0  0  0  1  0  0  0  0  0  0
  190.2970  173.4840  139.1170 O   0  0  0  0  0  0  0  0  0  0  0  0
  189.3410  172.7250  139.7820 C   0  0  0  0  0  0  0  0  0  0  0  0
  2  5  1  0  0  0  0
  3  8  1  0  0  0  0
  4  2  2  0  0  0  0
  4  6  1  0  0  0  0
  5  1  1  0  0  0  0
  5  3  2  0  0  0  0
  6  7  2  0  0  0  0
  7  3  1  0  0  0  0
  8  9  1  0  0  0  0
  9 17  1  0  0  0  0
 10 17  1  0  0  0  0
 10 16  1  1  0  0  0
 11 12  1  0  0  0  0
 13 11  1  0  0  0  0
 14 12  1  0  0  0  0
 15 18  1  6  0  0  0
 15 10  1  0  0  0  0
 15 14  1  0  0  0  0
 17 13  2  0  0  0  0
 18 19  1  0  0  0  0
 20 18  2  0  0  0  0
 21  1  1  0  0  0  0
 22 21  1  0  0  0  0
 24 22  1  6  0  0  0
 24 23  1  0  0  0  0
 26 25  1  6  0  0  0
 26 28  1  0  0  0  0
 26 23  1  0  0  0  0
 27 38  1  6  0  0  0
 27 25  1  0  0  0  0
 27 24  1  0  0  0  0
 28 30  1  6  0  0  0
 28 32  1  0  0  0  0
 28 29  1  0  0  0  0
 29 32  1  6  0  0  0
 29 34  1  0  0  0  0
 30 33  1  0  0  0  0
 31 35  1  1  0  0  0
 31 34  1  0  0  0  0
 33 31  1  0  0  0  0
 36 38  1  0  0  0  0
 37 38  2  0  0  0  0
M  END
>  <MODEL>
9

>  <REMARK>
 VINA RESULT:      -7.1      2.874      5.873
  Name = 
  10 active torsions:
  status: ('A' for Active; 'I' for Inactive)
    1  A    between atoms: C_2  and  C_28
    2  A    between atoms: C_3  and  C_21
    3  A    between atoms: C_5  and  C_33
    4  A    between atoms: C_9  and  C_19
    5  A    between atoms: C_10  and  C_27
    6  A    between atoms: C_10  and  C_28
    7  A    between atoms: O_15  and  N_17
    8  A    between atoms: O_15  and  C_19
    9  A    between atoms: N_17  and  C_29
   10  A    between atoms: C_34  and  C_35
                            x       y       z     vdW  Elec       q    Type
                         _______ _______ _______ _____ _____    ______ ____

>  <TORSDO>
F 10

$$$$
