=
 OpenBabel11062422333D

 59 63  0  0  1  0  0  0  0  0999 V2000
  194.5400  169.3060  143.4520 C   0  0  0  0  0  2  0  0  0  0  0  0
  194.2360  172.8590  144.5200 N   0  0  0  0  0  0  0  0  0  0  0  0
  195.1370  168.9740  141.0620 C   0  0  0  0  0  0  0  0  0  0  0  0
  194.9960  170.7500  143.5530 C   0  0  1  0  0  3  0  0  0  0  0  0
  195.5510  170.2480  140.6560 O   0  0  0  0  0  0  0  0  0  0  0  0
  196.3710  172.8110  139.9800 O   0  0  0  0  0  0  0  0  0  0  0  0
  194.5290  168.2030  140.2720 O   0  0  0  0  0  0  0  0  0  0  0  0
  193.2730  173.2950  139.3820 O   0  0  0  0  0  0  0  0  0  0  0  0
  195.2950  170.7630  139.3560 C   0  0  1  0  0  3  0  0  0  0  0  0
  193.1770  173.0090  142.2750 C   0  0  0  0  0  2  0  0  0  0  0  0
  193.5260  174.4050  140.1990 C   0  0  0  0  0  2  0  0  0  0  0  0
  194.3130  171.4070  144.7420 C   0  0  1  0  0  3  0  0  0  0  0  0
  195.7630  170.9550  144.8380 C   0  0  0  0  0  2  0  0  0  0  0  0
  192.7890  174.2850  141.5340 C   0  0  1  0  0  3  0  0  0  0  0  0
  194.4370  173.0320  138.7630 O   0  0  0  0  0  0  0  0  0  0  0  0
  195.4040  168.5350  142.4650 C   0  0  0  0  0  2  0  0  0  0  0  0
  193.0040  173.2010  143.7760 C   0  0  1  0  0  3  0  0  0  0  0  0
  195.4080  172.2490  139.3840 C   0  0  0  0  0  0  0  0  0  0  0  0
  196.3020  170.1940  138.3680 C   0  0  0  0  0  1  0  0  0  0  0  0
  191.7460  172.5130  144.3010 C   0  0  0  0  0  1  0  0  0  0  0  0
  190.5980  173.6880  140.3880 O   0  0  0  0  0  0  0  0  0  0  0  0
  190.6100  175.1860  142.1350 C   0  0  0  0  0  0  0  0  0  0  0  0
  189.6830  175.8470  142.7550 C   0  0  0  0  0  3  0  0  0  0  0  0
  187.6520  175.3830  140.3410 O   0  0  0  0  0  0  0  0  0  0  0  0
  189.6170  172.6970  140.7030 C   0  0  1  0  0  3  0  0  0  0  0  0
  188.3010  175.2760  142.6370 C   0  0  2  0  0  3  0  0  0  0  0  0
  188.2040  173.1870  141.0900 C   0  0  2  0  0  3  0  0  0  0  0  0
  188.5190  172.7830  139.6630 C   0  0  0  0  0  2  0  0  0  0  0  0
  191.3000  174.4020  141.3710 C   0  0  0  0  0  0  0  0  0  0  0  0
  188.0250  174.6760  141.2700 C   0  0  0  0  0  0  0  0  0  0  0  0
  185.2270  176.8190  146.0880 O   0  0  0  0  0  1  0  0  0  0  0  0
  187.2120  176.2000  143.1190 C   0  0  0  0  0  0  0  0  0  0  0  0
  185.0370  177.8400  143.9670 C   0  0  0  0  0  3  0  0  0  0  0  0
  185.2240  177.5670  142.6670 C   0  0  0  0  0  0  0  0  0  0  0  0
  187.7930  175.8020  145.4560 C   0  0  0  0  0  2  0  0  0  0  0  0
  186.9950  176.4060  144.5740 C   0  0  0  0  0  0  0  0  0  0  0  0
  185.9830  177.4160  145.0730 C   0  0  2  0  0  0  0  0  0  0  0  0
  186.3720  176.7510  142.2360 C   0  0  0  0  0  3  0  0  0  0  0  0
  184.5720  178.1770  140.4740 O   0  0  0  0  0  0  0  0  0  0  0  0
  184.2270  178.0190  141.6830 C   0  0  0  0  0  0  0  0  0  0  0  0
  182.8750  178.2830  142.0970 N   0  0  0  0  0  2  0  0  0  0  0  0
  180.6450  179.3200  142.0640 C   0  0  0  0  0  1  0  0  0  0  0  0
  181.8370  178.8460  141.2370 C   0  0  0  0  0  3  0  0  0  0  0  0
  181.3730  177.8170  140.2070 C   0  0  0  0  0  1  0  0  0  0  0  0
  185.8050  179.4430  146.1750 C   0  0  0  0  0  1  0  0  0  0  0  0
  186.6960  178.5380  145.5670 O   0  0  0  0  0  0  0  0  0  0  0  0
  194.3120  173.5570  145.8250 C   0  0  2  0  0  3  0  0  0  0  0  0
  192.9290  174.0070  146.3480 C   0  0  0  0  0  2  0  0  0  0  0  0
  192.8420  175.4980  146.6290 C   0  0  0  0  0  2  0  0  0  0  0  0
  191.8180  176.1720  145.7370 C   0  0  0  0  0  2  0  0  0  0  0  0
  192.5470  176.9850  144.6880 C   0  0  0  0  0  1  0  0  0  0  0  0
  195.2230  174.7820  145.6860 C   0  0  0  0  0  2  0  0  0  0  0  0
  196.6910  174.3850  145.5730 C   0  0  1  0  0  3  0  0  0  0  0  0
  196.9900  173.3490  146.4620 O   0  0  0  0  0  1  0  0  0  0  0  0
  197.0590  174.0070  144.1420 C   0  0  0  0  0  2  0  0  0  0  0  0
  197.9370  175.0530  143.4680 C   0  0  0  0  0  2  0  0  0  0  0  0
  197.4340  177.3640  143.2370 O   0  0  0  0  0  1  0  0  0  0  0  0
  197.0860  176.1790  142.9970 C   0  0  0  0  0  0  0  0  0  0  0  0
  195.8540  175.9190  142.4150 O   0  0  0  0  0  0  0  0  0  0  0  0
  2 12  1  0  0  0  0
  2 47  1  0  0  0  0
  3 16  1  0  0  0  0
  4  1  1  1  0  0  0
  4 12  1  0  0  0  0
  4 13  1  0  0  0  0
  5  3  1  0  0  0  0
  7  3  2  0  0  0  0
  8 11  1  0  0  0  0
  9 19  1  6  0  0  0
  9 18  1  0  0  0  0
  9  5  1  0  0  0  0
 10 17  1  0  0  0  0
 11 14  1  0  0  0  0
 12 13  1  1  0  0  0
 14 29  1  6  0  0  0
 14 10  1  0  0  0  0
 15  8  1  0  0  0  0
 15 18  1  0  0  0  0
 16  1  1  0  0  0  0
 17 20  1  1  0  0  0
 17  2  1  0  0  0  0
 18  6  2  0  0  0  0
 21 25  1  0  0  0  0
 21 29  1  0  0  0  0
 22 23  2  0  0  0  0
 24 30  2  0  0  0  0
 25 28  1  6  0  0  0
 25 27  1  0  0  0  0
 26 23  1  0  0  0  0
 26 32  1  6  0  0  0
 27 28  1  6  0  0  0
 27 30  1  0  0  0  0
 29 22  2  0  0  0  0
 30 26  1  0  0  0  0
 32 36  1  0  0  0  0
 33 37  1  0  0  0  0
 34 33  2  0  0  0  0
 36 37  1  0  0  0  0
 36 35  2  0  0  0  0
 37 46  1  0  0  0  0
 37 31  1  1  0  0  0
 38 34  1  0  0  0  0
 38 32  2  0  0  0  0
 39 40  2  0  0  0  0
 40 41  1  0  0  0  0
 40 34  1  0  0  0  0
 43 42  1  0  0  0  0
 43 41  1  0  0  0  0
 44 43  1  0  0  0  0
 46 45  1  0  0  0  0
 47 52  1  6  0  0  0
 47 48  1  0  0  0  0
 48 49  1  0  0  0  0
 50 49  1  0  0  0  0
 51 50  1  0  0  0  0
 53 52  1  0  0  0  0
 53 54  1  1  0  0  0
 55 53  1  0  0  0  0
 56 55  1  0  0  0  0
 58 57  1  0  0  0  0
 58 56  1  0  0  0  0
 59 58  2  0  0  0  0
M  END
>  <MODEL>
1

>  <REMARK>
 VINA RESULT:      -7.1      0.000      0.000
  Name = 
  14 active torsions:
  status: ('A' for Active; 'I' for Inactive)
    1  A    between atoms: C_2  and  C_32
    2  A    between atoms: N_10  and  C_27
    3  A    between atoms: C_14  and  C_30
    4  A    between atoms: C_15  and  C_20
    5  A    between atoms: C_15  and  C_39
    6  A    between atoms: C_17  and  C_50
    7  A    between atoms: C_18  and  N_42
    8  A    between atoms: C_19  and  C_38
    9  A    between atoms: C_19  and  C_50
   10  A    between atoms: C_27  and  C_39
   11  A    between atoms: C_27  and  C_58
   12  A    between atoms: C_36  and  C_44
   13  A    between atoms: O_37  and  C_52
   14  A    between atoms: C_38  and  C_58
                            x       y       z     vdW  Elec       q    Type
                         _______ _______ _______ _____ _____    ______ ____

>  <TORSDO>
F 14

$$$$
=
 OpenBabel11062422333D

 59 63  0  0  1  0  0  0  0  0999 V2000
  196.2460  172.9320  140.0190 C   0  0  0  0  0  2  0  0  0  0  0  0
  193.9990  171.1450  142.3880 N   0  0  0  0  0  0  0  0  0  0  0  0
  197.0130  175.1700  140.7830 C   0  0  0  0  0  0  0  0  0  0  0  0
  195.8280  172.4110  141.3820 C   0  0  1  0  0  3  0  0  0  0  0  0
  196.6720  175.1790  142.1400 O   0  0  0  0  0  0  0  0  0  0  0  0
  195.9690  175.0660  144.8220 O   0  0  0  0  0  0  0  0  0  0  0  0
  196.9590  176.2210  140.0900 O   0  0  0  0  0  0  0  0  0  0  0  0
  193.1400  176.1260  143.7920 O   0  0  0  0  0  0  0  0  0  0  0  0
  196.2210  176.3470  142.8130 C   0  0  1  0  0  3  0  0  0  0  0  0
  193.1130  173.4550  142.6400 C   0  0  0  0  0  2  0  0  0  0  0  0
  192.7100  175.0400  144.5660 C   0  0  0  0  0  2  0  0  0  0  0  0
  194.8540  171.2570  141.1970 C   0  0  1  0  0  3  0  0  0  0  0  0
  196.3090  170.9890  141.5540 C   0  0  0  0  0  2  0  0  0  0  0  0
  192.1130  173.9400  143.6860 C   0  0  1  0  0  3  0  0  0  0  0  0
  194.2770  176.5500  144.3680 O   0  0  0  0  0  0  0  0  0  0  0  0
  197.4270  173.8840  140.1460 C   0  0  0  0  0  2  0  0  0  0  0  0
  192.8100  172.0150  142.2510 C   0  0  1  0  0  3  0  0  0  0  0  0
  195.4960  175.9520  144.0550 C   0  0  0  0  0  0  0  0  0  0  0  0
  197.4100  177.2250  143.1750 C   0  0  0  0  0  1  0  0  0  0  0  0
  192.1200  171.9200  140.8920 C   0  0  0  0  0  1  0  0  0  0  0  0
  190.4500  173.9690  141.7630 O   0  0  0  0  0  0  0  0  0  0  0  0
  189.9820  175.1120  143.7040 C   0  0  0  0  0  0  0  0  0  0  0  0
  188.9710  175.8170  144.1070 C   0  0  0  0  0  3  0  0  0  0  0  0
  187.9390  176.1660  141.1110 O   0  0  0  0  0  0  0  0  0  0  0  0
  189.3190  173.1390  141.4910 C   0  0  1  0  0  3  0  0  0  0  0  0
  187.6760  175.5430  143.4010 C   0  0  2  0  0  3  0  0  0  0  0  0
  187.9260  173.8090  141.4780 C   0  0  2  0  0  3  0  0  0  0  0  0
  188.7000  173.6080  140.1890 C   0  0  0  0  0  2  0  0  0  0  0  0
  190.8140  174.3580  143.0600 C   0  0  0  0  0  0  0  0  0  0  0  0
  187.8610  175.2510  141.9220 C   0  0  0  0  0  0  0  0  0  0  0  0
  184.3940  177.5670  146.3780 O   0  0  0  0  0  1  0  0  0  0  0  0
  186.5960  176.5560  143.6830 C   0  0  0  0  0  0  0  0  0  0  0  0
  184.4400  178.3630  144.1560 C   0  0  0  0  0  3  0  0  0  0  0  0
  184.7260  177.9470  142.9140 C   0  0  0  0  0  0  0  0  0  0  0  0
  186.9510  176.3860  146.0930 C   0  0  0  0  0  2  0  0  0  0  0  0
  186.2650  176.9240  145.0840 C   0  0  0  0  0  0  0  0  0  0  0  0
  185.2640  178.0220  145.3810 C   0  0  2  0  0  0  0  0  0  0  0  0
  185.8650  177.0440  142.6760 C   0  0  0  0  0  3  0  0  0  0  0  0
  184.3490  178.6610  140.6880 O   0  0  0  0  0  0  0  0  0  0  0  0
  183.8430  178.3310  141.8010 C   0  0  0  0  0  0  0  0  0  0  0  0
  182.4150  178.3340  141.9830 N   0  0  0  0  0  2  0  0  0  0  0  0
  180.2430  179.4450  141.6730 C   0  0  0  0  0  1  0  0  0  0  0  0
  181.4510  178.8090  140.9930 C   0  0  0  0  0  3  0  0  0  0  0  0
  180.9930  177.6610  140.0940 C   0  0  0  0  0  1  0  0  0  0  0  0
  185.8250  179.3240  147.2100 C   0  0  0  0  0  1  0  0  0  0  0  0
  185.9860  179.1600  145.8210 O   0  0  0  0  0  0  0  0  0  0  0  0
  193.6310  169.7250  142.5930 C   0  0  2  0  0  3  0  0  0  0  0  0
  194.5690  168.9970  143.5830 C   0  0  0  0  0  2  0  0  0  0  0  0
  194.8340  169.7820  144.8570 C   0  0  0  0  0  2  0  0  0  0  0  0
  196.3160  170.0200  145.0640 C   0  0  0  0  0  2  0  0  0  0  0  0
  196.5230  170.6370  146.4320 C   0  0  0  0  0  1  0  0  0  0  0  0
  193.6610  168.9990  141.2430 C   0  0  0  0  0  2  0  0  0  0  0  0
  192.4020  168.1660  141.0210 C   0  0  1  0  0  3  0  0  0  0  0  0
  191.4080  168.5230  141.9360 O   0  0  0  0  0  1  0  0  0  0  0  0
  191.8990  168.2870  139.5860 C   0  0  0  0  0  2  0  0  0  0  0  0
  190.5500  168.9880  139.4960 C   0  0  0  0  0  2  0  0  0  0  0  0
  189.8080  170.8010  138.1510 O   0  0  0  0  0  1  0  0  0  0  0  0
  190.4680  169.7310  138.2100 C   0  0  0  0  0  0  0  0  0  0  0  0
  191.0040  169.1790  137.0560 O   0  0  0  0  0  0  0  0  0  0  0  0
  1 16  1  0  0  0  0
  2 47  1  0  0  0  0
  3  5  1  0  0  0  0
  4  1  1  6  0  0  0
  4 13  1  0  0  0  0
  5  9  1  0  0  0  0
  7  3  2  0  0  0  0
  8 15  1  0  0  0  0
  8 11  1  0  0  0  0
  9 19  1  1  0  0  0
  9 18  1  0  0  0  0
 10 14  1  0  0  0  0
 12  4  1  0  0  0  0
 12 13  1  1  0  0  0
 12  2  1  0  0  0  0
 14 29  1  6  0  0  0
 14 11  1  0  0  0  0
 16  3  1  0  0  0  0
 17 20  1  6  0  0  0
 17  2  1  0  0  0  0
 17 10  1  0  0  0  0
 18 15  1  0  0  0  0
 18  6  2  0  0  0  0
 21 29  1  0  0  0  0
 22 23  2  0  0  0  0
 24 30  2  0  0  0  0
 25 28  1  6  0  0  0
 25 21  1  0  0  0  0
 26 32  1  6  0  0  0
 26 23  1  0  0  0  0
 27 28  1  6  0  0  0
 27 25  1  0  0  0  0
 27 30  1  0  0  0  0
 29 22  2  0  0  0  0
 30 26  1  0  0  0  0
 32 36  1  0  0  0  0
 33 37  1  0  0  0  0
 34 33  2  0  0  0  0
 36 37  1  0  0  0  0
 36 35  2  0  0  0  0
 37 46  1  0  0  0  0
 37 31  1  1  0  0  0
 38 34  1  0  0  0  0
 38 32  2  0  0  0  0
 39 40  2  0  0  0  0
 40 41  1  0  0  0  0
 40 34  1  0  0  0  0
 43 42  1  0  0  0  0
 43 41  1  0  0  0  0
 44 43  1  0  0  0  0
 46 45  1  0  0  0  0
 47 52  1  6  0  0  0
 47 48  1  0  0  0  0
 48 49  1  0  0  0  0
 49 50  1  0  0  0  0
 50 51  1  0  0  0  0
 53 52  1  0  0  0  0
 53 54  1  1  0  0  0
 55 53  1  0  0  0  0
 56 55  1  0  0  0  0
 57 58  1  0  0  0  0
 58 56  1  0  0  0  0
 59 58  2  0  0  0  0
M  END
>  <MODEL>
2

>  <REMARK>
 VINA RESULT:      -6.6      1.928      5.066
  Name = 
  14 active torsions:
  status: ('A' for Active; 'I' for Inactive)
    1  A    between atoms: C_2  and  C_32
    2  A    between atoms: N_10  and  C_27
    3  A    between atoms: C_14  and  C_30
    4  A    between atoms: C_15  and  C_20
    5  A    between atoms: C_15  and  C_39
    6  A    between atoms: C_17  and  C_50
    7  A    between atoms: C_18  and  N_42
    8  A    between atoms: C_19  and  C_38
    9  A    between atoms: C_19  and  C_50
   10  A    between atoms: C_27  and  C_39
   11  A    between atoms: C_27  and  C_58
   12  A    between atoms: C_36  and  C_44
   13  A    between atoms: O_37  and  C_52
   14  A    between atoms: C_38  and  C_58
                            x       y       z     vdW  Elec       q    Type
                         _______ _______ _______ _____ _____    ______ ____

>  <TORSDO>
F 14

$$$$
=
 OpenBabel11062422333D

 59 63  0  0  1  0  0  0  0  0999 V2000
  196.2270  170.8730  145.6470 C   0  0  0  0  0  2  0  0  0  0  0  0
  195.5450  174.3960  144.6580 N   0  0  0  0  0  0  0  0  0  0  0  0
  196.4200  169.2690  143.7580 C   0  0  0  0  0  0  0  0  0  0  0  0
  196.4500  172.1360  144.8340 C   0  0  1  0  0  3  0  0  0  0  0  0
  196.5350  170.1040  142.6400 O   0  0  0  0  0  0  0  0  0  0  0  0
  196.7820  171.8620  140.5080 O   0  0  0  0  0  0  0  0  0  0  0  0
  195.8110  168.1670  143.6890 O   0  0  0  0  0  0  0  0  0  0  0  0
  193.5900  171.8220  140.5250 O   0  0  0  0  0  0  0  0  0  0  0  0
  195.9610  169.7860  141.3790 C   0  0  1  0  0  3  0  0  0  0  0  0
  194.0790  173.2170  143.0310 C   0  0  0  0  0  2  0  0  0  0  0  0
  193.8030  173.2070  140.5200 C   0  0  0  0  0  2  0  0  0  0  0  0
  195.8990  173.3270  145.6030 C   0  0  1  0  0  3  0  0  0  0  0  0
  197.3970  173.0560  145.5680 C   0  0  0  0  0  2  0  0  0  0  0  0
  193.3550  173.8380  141.8390 C   0  0  1  0  0  3  0  0  0  0  0  0
  194.6460  171.2940  139.8850 O   0  0  0  0  0  0  0  0  0  0  0  0
  197.0100  169.7090  145.0580 C   0  0  0  0  0  2  0  0  0  0  0  0
  194.1570  174.2170  144.1760 C   0  0  1  0  0  3  0  0  0  0  0  0
  195.8310  171.0310  140.5690 C   0  0  0  0  0  0  0  0  0  0  0  0
  196.8490  168.7910  140.6450 C   0  0  0  0  0  1  0  0  0  0  0  0
  193.1480  173.9060  145.2800 C   0  0  0  0  0  1  0  0  0  0  0  0
  191.0980  172.6910  141.6060 O   0  0  0  0  0  0  0  0  0  0  0  0
  191.2270  174.7920  142.5330 C   0  0  0  0  0  0  0  0  0  0  0  0
  190.3510  175.6050  143.0370 C   0  0  0  0  0  3  0  0  0  0  0  0
  187.9780  174.0410  141.5930 O   0  0  0  0  0  0  0  0  0  0  0  0
  190.3610  171.8800  142.5250 C   0  0  1  0  0  3  0  0  0  0  0  0
  189.0760  174.9660  143.5010 C   0  0  2  0  0  3  0  0  0  0  0  0
  188.9940  172.4130  143.0110 C   0  0  2  0  0  3  0  0  0  0  0  0
  189.0780  171.4520  141.8410 C   0  0  0  0  0  2  0  0  0  0  0  0
  191.8630  173.7940  142.0110 C   0  0  0  0  0  0  0  0  0  0  0  0
  188.6300  173.8220  142.6080 C   0  0  0  0  0  0  0  0  0  0  0  0
  185.5900  176.6740  146.4440 O   0  0  0  0  0  1  0  0  0  0  0  0
  187.9760  175.9480  143.8150 C   0  0  0  0  0  0  0  0  0  0  0  0
  185.7870  177.7030  144.3280 C   0  0  0  0  0  3  0  0  0  0  0  0
  186.1590  177.4210  143.0710 C   0  0  0  0  0  0  0  0  0  0  0  0
  188.1650  175.5190  146.2110 C   0  0  0  0  0  2  0  0  0  0  0  0
  187.5480  176.1660  145.2210 C   0  0  0  0  0  0  0  0  0  0  0  0
  186.5250  177.2290  145.5640 C   0  0  2  0  0  0  0  0  0  0  0  0
  187.3150  176.5430  142.8170 C   0  0  0  0  0  3  0  0  0  0  0  0
  185.9320  178.4650  140.9580 O   0  0  0  0  0  0  0  0  0  0  0  0
  185.3540  177.9260  141.9470 C   0  0  0  0  0  0  0  0  0  0  0  0
  183.9200  177.8090  141.9800 N   0  0  0  0  0  2  0  0  0  0  0  0
  181.6620  178.7090  141.6040 C   0  0  0  0  0  1  0  0  0  0  0  0
  183.0160  178.3780  140.9830 C   0  0  0  0  0  3  0  0  0  0  0  0
  182.8250  177.4100  139.8150 C   0  0  0  0  0  1  0  0  0  0  0  0
  186.4460  178.8290  147.2340 C   0  0  0  0  0  1  0  0  0  0  0  0
  187.2110  178.3110  146.1720 O   0  0  0  0  0  0  0  0  0  0  0  0
  195.7440  175.7110  145.3100 C   0  0  2  0  0  3  0  0  0  0  0  0
  194.8390  175.9120  146.5480 C   0  0  0  0  0  2  0  0  0  0  0  0
  193.8400  177.0460  146.3910 C   0  0  0  0  0  2  0  0  0  0  0  0
  192.6530  176.8710  147.3180 C   0  0  0  0  0  2  0  0  0  0  0  0
  191.4040  176.6910  146.4790 C   0  0  0  0  0  1  0  0  0  0  0  0
  195.4630  176.8230  144.2940 C   0  0  0  0  0  2  0  0  0  0  0  0
  196.5660  176.9220  143.2450 C   0  0  1  0  0  3  0  0  0  0  0  0
  197.6120  176.0460  143.5460 O   0  0  0  0  0  1  0  0  0  0  0  0
  196.0250  176.6710  141.8410 C   0  0  0  0  0  2  0  0  0  0  0  0
  197.1240  176.6380  140.7870 C   0  0  0  0  0  2  0  0  0  0  0  0
  197.8150  174.5140  139.9770 O   0  0  0  0  0  1  0  0  0  0  0  0
  196.9540  175.4290  139.9370 C   0  0  0  0  0  0  0  0  0  0  0  0
  195.9210  175.3750  139.0110 O   0  0  0  0  0  0  0  0  0  0  0  0
  2 47  1  0  0  0  0
  2 12  1  0  0  0  0
  3 16  1  0  0  0  0
  4 13  1  1  0  0  0
  4 12  1  0  0  0  0
  4  1  1  0  0  0  0
  5  3  1  0  0  0  0
  6 18  2  0  0  0  0
  7  3  2  0  0  0  0
  9 19  1  6  0  0  0
  9  5  1  0  0  0  0
 10 17  1  0  0  0  0
 11  8  1  0  0  0  0
 11 14  1  0  0  0  0
 12 13  1  1  0  0  0
 14 29  1  1  0  0  0
 14 10  1  0  0  0  0
 15  8  1  0  0  0  0
 15 18  1  0  0  0  0
 16  1  1  0  0  0  0
 17  2  1  0  0  0  0
 17 20  1  1  0  0  0
 18  9  1  0  0  0  0
 21 29  1  0  0  0  0
 21 25  1  0  0  0  0
 22 23  2  0  0  0  0
 23 26  1  0  0  0  0
 24 30  2  0  0  0  0
 25 28  1  6  0  0  0
 25 27  1  0  0  0  0
 26 32  1  6  0  0  0
 27 28  1  6  0  0  0
 29 22  2  0  0  0  0
 30 27  1  0  0  0  0
 30 26  1  0  0  0  0
 32 36  1  0  0  0  0
 33 37  1  0  0  0  0
 34 33  2  0  0  0  0
 36 37  1  0  0  0  0
 36 35  2  0  0  0  0
 37 46  1  0  0  0  0
 37 31  1  1  0  0  0
 38 34  1  0  0  0  0
 38 32  2  0  0  0  0
 39 40  2  0  0  0  0
 40 41  1  0  0  0  0
 40 34  1  0  0  0  0
 43 42  1  0  0  0  0
 43 41  1  0  0  0  0
 44 43  1  0  0  0  0
 46 45  1  0  0  0  0
 47 52  1  6  0  0  0
 47 48  1  0  0  0  0
 49 48  1  0  0  0  0
 49 50  1  0  0  0  0
 51 50  1  0  0  0  0
 53 54  1  1  0  0  0
 53 52  1  0  0  0  0
 55 53  1  0  0  0  0
 56 55  1  0  0  0  0
 58 57  1  0  0  0  0
 58 56  1  0  0  0  0
 59 58  2  0  0  0  0
M  END
>  <MODEL>
3

>  <REMARK>
 VINA RESULT:      -6.5      1.604      2.188
  Name = 
  14 active torsions:
  status: ('A' for Active; 'I' for Inactive)
    1  A    between atoms: C_2  and  C_32
    2  A    between atoms: N_10  and  C_27
    3  A    between atoms: C_14  and  C_30
    4  A    between atoms: C_15  and  C_20
    5  A    between atoms: C_15  and  C_39
    6  A    between atoms: C_17  and  C_50
    7  A    between atoms: C_18  and  N_42
    8  A    between atoms: C_19  and  C_38
    9  A    between atoms: C_19  and  C_50
   10  A    between atoms: C_27  and  C_39
   11  A    between atoms: C_27  and  C_58
   12  A    between atoms: C_36  and  C_44
   13  A    between atoms: O_37  and  C_52
   14  A    between atoms: C_38  and  C_58
                            x       y       z     vdW  Elec       q    Type
                         _______ _______ _______ _____ _____    ______ ____

>  <TORSDO>
F 14

$$$$
=
 OpenBabel11062422333D

 59 63  0  0  1  0  0  0  0  0999 V2000
  192.5660  173.8320  135.7700 C   0  0  0  0  0  2  0  0  0  0  0  0
  191.9650  171.6670  138.7380 N   0  0  0  0  0  0  0  0  0  0  0  0
  194.9520  174.0870  135.1200 C   0  0  0  0  0  0  0  0  0  0  0  0
  192.7420  172.5800  136.6110 C   0  0  1  0  0  3  0  0  0  0  0  0
  195.5920  173.0790  135.8520 O   0  0  0  0  0  0  0  0  0  0  0  0
  196.7400  171.0330  137.3320 O   0  0  0  0  0  0  0  0  0  0  0  0
  195.5190  175.1900  134.8940 O   0  0  0  0  0  0  0  0  0  0  0  0
  196.8910  173.2280  139.6450 O   0  0  0  0  0  0  0  0  0  0  0  0
  196.8920  173.2370  136.4050 C   0  0  1  0  0  3  0  0  0  0  0  0
  194.0090  172.8610  139.5020 C   0  0  0  0  0  2  0  0  0  0  0  0
  196.2870  172.1840  140.3580 C   0  0  0  0  0  2  0  0  0  0  0  0
  191.5600  172.4480  137.5600 C   0  0  1  0  0  3  0  0  0  0  0  0
  191.6380  171.5970  136.3000 C   0  0  0  0  0  2  0  0  0  0  0  0
  194.8470  172.5360  140.7350 C   0  0  1  0  0  3  0  0  0  0  0  0
  197.6470  172.6330  138.7070 O   0  0  0  0  0  0  0  0  0  0  0  0
  193.5640  173.8530  134.6210 C   0  0  0  0  0  2  0  0  0  0  0  0
  192.5410  172.5570  139.7700 C   0  0  1  0  0  3  0  0  0  0  0  0
  197.0890  172.2380  137.4930 C   0  0  0  0  0  0  0  0  0  0  0  0
  197.9410  173.0260  135.3230 C   0  0  0  0  0  1  0  0  0  0  0  0
  191.7290  173.8250  140.0260 C   0  0  0  0  0  1  0  0  0  0  0  0
  195.8570  174.5060  141.9860 O   0  0  0  0  0  0  0  0  0  0  0  0
  193.7210  173.8070  142.4770 C   0  0  0  0  0  0  0  0  0  0  0  0
  192.8070  174.2240  143.2980 C   0  0  0  0  0  3  0  0  0  0  0  0
  194.9750  175.8450  144.9840 O   0  0  0  0  0  0  0  0  0  0  0  0
  195.7820  175.9120  141.7350 C   0  0  1  0  0  3  0  0  0  0  0  0
  192.9460  175.6510  143.7390 C   0  0  2  0  0  3  0  0  0  0  0  0
  195.0860  176.7920  142.7970 C   0  0  2  0  0  3  0  0  0  0  0  0
  196.5920  176.6190  142.8030 C   0  0  0  0  0  2  0  0  0  0  0  0
  194.7820  173.6350  141.7570 C   0  0  0  0  0  0  0  0  0  0  0  0
  194.3930  176.0720  143.9300 C   0  0  0  0  0  0  0  0  0  0  0  0
  191.3010  174.9400  148.2690 O   0  0  0  0  0  1  0  0  0  0  0  0
  192.0540  176.0260  144.8940 C   0  0  0  0  0  0  0  0  0  0  0  0
  190.2440  176.6370  147.0130 C   0  0  0  0  0  3  0  0  0  0  0  0
  189.9450  176.9510  145.7440 C   0  0  0  0  0  0  0  0  0  0  0  0
  193.5060  174.8880  146.4930 C   0  0  0  0  0  2  0  0  0  0  0  0
  192.3900  175.5850  146.2720 C   0  0  0  0  0  0  0  0  0  0  0  0
  191.5680  176.0480  147.4570 C   0  0  2  0  0  0  0  0  0  0  0  0
  190.9030  176.6660  144.6620 C   0  0  0  0  0  3  0  0  0  0  0  0
  188.3730  177.9080  144.2540 O   0  0  0  0  0  0  0  0  0  0  0  0
  188.6180  177.5060  145.4300 C   0  0  0  0  0  0  0  0  0  0  0  0
  187.6130  177.5930  146.4550 N   0  0  0  0  0  2  0  0  0  0  0  0
  185.8770  178.9240  147.5790 C   0  0  0  0  0  1  0  0  0  0  0  0
  186.3090  178.2310  146.2900 C   0  0  0  0  0  3  0  0  0  0  0  0
  185.2550  177.2040  145.8780 C   0  0  0  0  0  1  0  0  0  0  0  0
  191.5240  177.6440  149.1320 C   0  0  0  0  0  1  0  0  0  0  0  0
  192.3270  177.0180  148.1600 O   0  0  0  0  0  0  0  0  0  0  0  0
  190.8000  170.9060  139.2440 C   0  0  2  0  0  3  0  0  0  0  0  0
  189.5270  171.7730  139.3780 C   0  0  0  0  0  2  0  0  0  0  0  0
  189.0550  171.9400  140.8130 C   0  0  0  0  0  2  0  0  0  0  0  0
  188.1140  173.1200  140.9530 C   0  0  0  0  0  2  0  0  0  0  0  0
  188.5730  173.9730  142.1180 C   0  0  0  0  0  1  0  0  0  0  0  0
  191.1480  170.3050  140.6100 C   0  0  0  0  0  2  0  0  0  0  0  0
  191.6920  168.8860  140.4820 C   0  0  1  0  0  3  0  0  0  0  0  0
  191.6400  168.4570  139.1530 O   0  0  0  0  0  1  0  0  0  0  0  0
  193.1080  168.7780  141.0400 C   0  0  0  0  0  2  0  0  0  0  0  0
  193.3490  169.7230  142.2100 C   0  0  0  0  0  2  0  0  0  0  0  0
  192.7220  168.3450  144.0410 O   0  0  0  0  0  1  0  0  0  0  0  0
  193.6540  168.9270  143.4300 C   0  0  0  0  0  0  0  0  0  0  0  0
  194.9360  168.9390  143.9600 O   0  0  0  0  0  0  0  0  0  0  0  0
  2 47  1  0  0  0  0
  2 17  1  0  0  0  0
  3  5  1  0  0  0  0
  4  1  1  6  0  0  0
  4 12  1  0  0  0  0
  5  9  1  0  0  0  0
  6 18  2  0  0  0  0
  7  3  2  0  0  0  0
  8 11  1  0  0  0  0
  9 19  1  6  0  0  0
  9 18  1  0  0  0  0
 10 17  1  0  0  0  0
 10 14  1  0  0  0  0
 11 14  1  0  0  0  0
 12 13  1  6  0  0  0
 12  2  1  0  0  0  0
 13  4  1  0  0  0  0
 14 29  1  1  0  0  0
 15  8  1  0  0  0  0
 16  3  1  0  0  0  0
 16  1  1  0  0  0  0
 17 20  1  6  0  0  0
 18 15  1  0  0  0  0
 22 23  2  0  0  0  0
 23 26  1  0  0  0  0
 25 21  1  0  0  0  0
 25 27  1  0  0  0  0
 25 28  1  1  0  0  0
 26 30  1  0  0  0  0
 26 32  1  1  0  0  0
 27 28  1  1  0  0  0
 27 30  1  0  0  0  0
 29 21  1  0  0  0  0
 29 22  2  0  0  0  0
 30 24  2  0  0  0  0
 32 36  1  0  0  0  0
 33 37  1  0  0  0  0
 34 33  2  0  0  0  0
 36 35  2  0  0  0  0
 36 37  1  0  0  0  0
 37 46  1  0  0  0  0
 37 31  1  1  0  0  0
 38 32  2  0  0  0  0
 38 34  1  0  0  0  0
 39 40  2  0  0  0  0
 40 34  1  0  0  0  0
 40 41  1  0  0  0  0
 43 41  1  0  0  0  0
 43 42  1  0  0  0  0
 44 43  1  0  0  0  0
 46 45  1  0  0  0  0
 47 48  1  1  0  0  0
 47 52  1  0  0  0  0
 48 49  1  0  0  0  0
 49 50  1  0  0  0  0
 50 51  1  0  0  0  0
 53 54  1  6  0  0  0
 53 52  1  0  0  0  0
 53 55  1  0  0  0  0
 55 56  1  0  0  0  0
 56 58  1  0  0  0  0
 58 59  2  0  0  0  0
 58 57  1  0  0  0  0
M  END
>  <MODEL>
4

>  <REMARK>
 VINA RESULT:      -5.1      3.055      6.654
  Name = 
  14 active torsions:
  status: ('A' for Active; 'I' for Inactive)
    1  A    between atoms: C_2  and  C_32
    2  A    between atoms: N_10  and  C_27
    3  A    between atoms: C_14  and  C_30
    4  A    between atoms: C_15  and  C_20
    5  A    between atoms: C_15  and  C_39
    6  A    between atoms: C_17  and  C_50
    7  A    between atoms: C_18  and  N_42
    8  A    between atoms: C_19  and  C_38
    9  A    between atoms: C_19  and  C_50
   10  A    between atoms: C_27  and  C_39
   11  A    between atoms: C_27  and  C_58
   12  A    between atoms: C_36  and  C_44
   13  A    between atoms: O_37  and  C_52
   14  A    between atoms: C_38  and  C_58
                            x       y       z     vdW  Elec       q    Type
                         _______ _______ _______ _____ _____    ______ ____

>  <TORSDO>
F 14

$$$$
=
 OpenBabel11062422333D

 59 63  0  0  1  0  0  0  0  0999 V2000
  191.8250  168.3400  139.9600 C   0  0  0  0  0  2  0  0  0  0  0  0
  194.4330  170.2180  141.8380 N   0  0  0  0  0  0  0  0  0  0  0  0
  190.7850  169.5850  138.0760 C   0  0  0  0  0  0  0  0  0  0  0  0
  193.0630  169.2090  140.0870 C   0  0  1  0  0  3  0  0  0  0  0  0
  191.6400  170.6800  137.9060 O   0  0  0  0  0  0  0  0  0  0  0  0
  193.4210  172.7920  137.6520 O   0  0  0  0  0  0  0  0  0  0  0  0
  189.5440  169.6900  137.8850 O   0  0  0  0  0  0  0  0  0  0  0  0
  191.5990  174.1740  139.8790 O   0  0  0  0  0  0  0  0  0  0  0  0
  191.1730  171.9720  137.5400 C   0  0  1  0  0  3  0  0  0  0  0  0
  192.7910  172.0480  141.4670 C   0  0  0  0  0  2  0  0  0  0  0  0
  192.8590  174.3650  140.4620 C   0  0  0  0  0  2  0  0  0  0  0  0
  193.6650  169.0190  141.4710 C   0  0  1  0  0  3  0  0  0  0  0  0
  194.2840  168.3350  140.2600 C   0  0  0  0  0  2  0  0  0  0  0  0
  193.0060  173.5350  141.7380 C   0  0  1  0  0  3  0  0  0  0  0  0
  191.8140  174.1630  138.5530 O   0  0  0  0  0  0  0  0  0  0  0  0
  191.3580  168.2760  138.5130 C   0  0  0  0  0  2  0  0  0  0  0  0
  193.5530  171.2140  142.4880 C   0  0  1  0  0  3  0  0  0  0  0  0
  192.1990  172.9890  137.9070 C   0  0  0  0  0  0  0  0  0  0  0  0
  190.9180  172.0230  136.0410 C   0  0  0  0  0  1  0  0  0  0  0  0
  192.6300  170.6290  143.5550 C   0  0  0  0  0  1  0  0  0  0  0  0
  192.4170  173.8170  144.1960 O   0  0  0  0  0  0  0  0  0  0  0  0
  191.0260  174.6740  142.5760 C   0  0  0  0  0  0  0  0  0  0  0  0
  189.9200  175.3510  142.6100 C   0  0  0  0  0  3  0  0  0  0  0  0
  189.4090  174.4810  145.6350 O   0  0  0  0  0  0  0  0  0  0  0  0
  192.6920  174.8830  145.1080 C   0  0  1  0  0  3  0  0  0  0  0  0
  189.6620  176.0910  143.8890 C   0  0  2  0  0  3  0  0  0  0  0  0
  191.4860  175.6540  145.6910 C   0  0  2  0  0  3  0  0  0  0  0  0
  192.1110  174.5030  146.4550 C   0  0  0  0  0  2  0  0  0  0  0  0
  192.1180  174.0320  142.8430 C   0  0  0  0  0  0  0  0  0  0  0  0
  190.1280  175.3280  145.1170 C   0  0  0  0  0  0  0  0  0  0  0  0
  185.4250  176.4660  146.2640 O   0  0  0  0  0  1  0  0  0  0  0  0
  188.2600  176.6310  144.0130 C   0  0  0  0  0  0  0  0  0  0  0  0
  185.5530  177.5210  144.1560 C   0  0  0  0  0  3  0  0  0  0  0  0
  186.1730  177.3970  142.9730 C   0  0  0  0  0  0  0  0  0  0  0  0
  188.2450  176.2690  146.4270 C   0  0  0  0  0  2  0  0  0  0  0  0
  187.5900  176.6740  145.3380 C   0  0  0  0  0  0  0  0  0  0  0  0
  186.2280  177.3170  145.4980 C   0  0  2  0  0  0  0  0  0  0  0  0
  187.5820  176.9730  142.9120 C   0  0  0  0  0  3  0  0  0  0  0  0
  185.9960  177.5010  140.6140 O   0  0  0  0  0  0  0  0  0  0  0  0
  185.4090  177.6050  141.7320 C   0  0  0  0  0  0  0  0  0  0  0  0
  184.0090  177.9290  141.7940 N   0  0  0  0  0  2  0  0  0  0  0  0
  181.7340  178.5040  141.0580 C   0  0  0  0  0  1  0  0  0  0  0  0
  183.1820  178.2730  140.6390 C   0  0  0  0  0  3  0  0  0  0  0  0
  183.2450  177.1690  139.5840 C   0  0  0  0  0  1  0  0  0  0  0  0
  185.3130  179.4060  145.8920 C   0  0  0  0  0  1  0  0  0  0  0  0
  186.4100  178.5630  146.1510 O   0  0  0  0  0  0  0  0  0  0  0  0
  195.5670  169.8250  142.7060 C   0  0  2  0  0  3  0  0  0  0  0  0
  196.9300  169.8830  141.9790 C   0  0  0  0  0  2  0  0  0  0  0  0
  197.7540  171.1110  142.3290 C   0  0  0  0  0  2  0  0  0  0  0  0
  197.4880  172.2500  141.3650 C   0  0  0  0  0  2  0  0  0  0  0  0
  196.8800  173.4050  142.1340 C   0  0  0  0  0  1  0  0  0  0  0  0
  195.3330  168.4020  143.2250 C   0  0  0  0  0  2  0  0  0  0  0  0
  195.8430  168.2290  144.6520 C   0  0  1  0  0  3  0  0  0  0  0  0
  197.2400  168.2120  144.6760 O   0  0  0  0  0  1  0  0  0  0  0  0
  195.2890  169.3070  145.5780 C   0  0  0  0  0  2  0  0  0  0  0  0
  196.3860  170.1410  146.2260 C   0  0  0  0  0  2  0  0  0  0  0  0
  197.1600  172.3550  145.8440 O   0  0  0  0  0  1  0  0  0  0  0  0
  196.1740  171.5760  145.8940 C   0  0  0  0  0  0  0  0  0  0  0  0
  194.8850  172.0740  145.7710 O   0  0  0  0  0  0  0  0  0  0  0  0
  2 17  1  0  0  0  0
  2 47  1  0  0  0  0
  3 16  1  0  0  0  0
  4  1  1  1  0  0  0
  4 13  1  0  0  0  0
  4 12  1  0  0  0  0
  5  3  1  0  0  0  0
  6 18  2  0  0  0  0
  7  3  2  0  0  0  0
  8 11  1  0  0  0  0
  9 19  1  6  0  0  0
  9  5  1  0  0  0  0
  9 18  1  0  0  0  0
 10 14  1  0  0  0  0
 10 17  1  0  0  0  0
 11 14  1  0  0  0  0
 12 13  1  6  0  0  0
 12  2  1  0  0  0  0
 14 29  1  1  0  0  0
 15  8  1  0  0  0  0
 16  1  1  0  0  0  0
 17 20  1  1  0  0  0
 18 15  1  0  0  0  0
 21 25  1  0  0  0  0
 22 23  2  0  0  0  0
 22 29  2  0  0  0  0
 23 26  1  0  0  0  0
 25 27  1  0  0  0  0
 25 28  1  1  0  0  0
 26 32  1  1  0  0  0
 26 30  1  0  0  0  0
 27 28  1  1  0  0  0
 29 21  1  0  0  0  0
 30 24  2  0  0  0  0
 30 27  1  0  0  0  0
 32 36  1  0  0  0  0
 33 37  1  0  0  0  0
 34 33  2  0  0  0  0
 36 37  1  0  0  0  0
 36 35  2  0  0  0  0
 37 46  1  0  0  0  0
 37 31  1  1  0  0  0
 38 34  1  0  0  0  0
 38 32  2  0  0  0  0
 39 40  2  0  0  0  0
 40 41  1  0  0  0  0
 40 34  1  0  0  0  0
 43 42  1  0  0  0  0
 43 41  1  0  0  0  0
 44 43  1  0  0  0  0
 45 46  1  0  0  0  0
 47 48  1  6  0  0  0
 47 52  1  0  0  0  0
 48 49  1  0  0  0  0
 50 51  1  0  0  0  0
 50 49  1  0  0  0  0
 52 53  1  0  0  0  0
 53 54  1  6  0  0  0
 53 55  1  0  0  0  0
 55 56  1  0  0  0  0
 57 58  1  0  0  0  0
 58 56  1  0  0  0  0
 59 58  2  0  0  0  0
M  END
>  <MODEL>
5

>  <REMARK>
 VINA RESULT:      -4.7      2.307      4.267
  Name = 
  14 active torsions:
  status: ('A' for Active; 'I' for Inactive)
    1  A    between atoms: C_2  and  C_32
    2  A    between atoms: N_10  and  C_27
    3  A    between atoms: C_14  and  C_30
    4  A    between atoms: C_15  and  C_20
    5  A    between atoms: C_15  and  C_39
    6  A    between atoms: C_17  and  C_50
    7  A    between atoms: C_18  and  N_42
    8  A    between atoms: C_19  and  C_38
    9  A    between atoms: C_19  and  C_50
   10  A    between atoms: C_27  and  C_39
   11  A    between atoms: C_27  and  C_58
   12  A    between atoms: C_36  and  C_44
   13  A    between atoms: O_37  and  C_52
   14  A    between atoms: C_38  and  C_58
                            x       y       z     vdW  Elec       q    Type
                         _______ _______ _______ _____ _____    ______ ____

>  <TORSDO>
F 14

$$$$
=
 OpenBabel11062422333D

 59 63  0  0  1  0  0  0  0  0999 V2000
  191.9580  174.5040  135.6710 C   0  0  0  0  0  2  0  0  0  0  0  0
  193.1460  171.7950  137.9310 N   0  0  0  0  0  0  0  0  0  0  0  0
  193.7040  176.1280  134.9690 C   0  0  0  0  0  0  0  0  0  0  0  0
  192.9050  173.4000  136.1070 C   0  0  1  0  0  3  0  0  0  0  0  0
  194.8960  175.4960  135.3400 O   0  0  0  0  0  0  0  0  0  0  0  0
  197.1900  174.1320  136.0990 O   0  0  0  0  0  0  0  0  0  0  0  0
  193.5830  177.3810  135.0300 O   0  0  0  0  0  0  0  0  0  0  0  0
  196.6950  175.5280  138.9260 O   0  0  0  0  0  0  0  0  0  0  0  0
  196.0250  176.2080  135.8300 C   0  0  1  0  0  3  0  0  0  0  0  0
  194.4250  173.7100  138.8710 C   0  0  0  0  0  2  0  0  0  0  0  0
  196.8560  174.2020  139.3500 C   0  0  0  0  0  2  0  0  0  0  0  0
  192.1720  172.4600  137.0530 C   0  0  1  0  0  3  0  0  0  0  0  0
  192.4040  172.0680  135.6010 C   0  0  0  0  0  2  0  0  0  0  0  0
  195.5470  173.6380  139.9040 C   0  0  1  0  0  3  0  0  0  0  0  0
  197.4360  175.6410  137.8110 O   0  0  0  0  0  0  0  0  0  0  0  0
  192.5510  175.2950  134.5140 C   0  0  0  0  0  2  0  0  0  0  0  0
  193.3980  172.6170  139.1350 C   0  0  1  0  0  3  0  0  0  0  0  0
  196.9140  175.2710  136.5740 C   0  0  0  0  0  0  0  0  0  0  0  0
  196.7910  176.8240  134.6680 C   0  0  0  0  0  1  0  0  0  0  0  0
  192.1330  173.1660  139.7930 C   0  0  0  0  0  1  0  0  0  0  0  0
  196.0900  174.9010  142.0430 O   0  0  0  0  0  0  0  0  0  0  0  0
  193.9180  174.2970  141.5860 C   0  0  0  0  0  0  0  0  0  0  0  0
  192.7890  174.4790  142.1980 C   0  0  0  0  0  3  0  0  0  0  0  0
  194.3030  175.1390  144.9250 O   0  0  0  0  0  0  0  0  0  0  0  0
  196.0750  176.3010  142.3320 C   0  0  1  0  0  3  0  0  0  0  0  0
  192.7630  175.6240  143.1660 C   0  0  2  0  0  3  0  0  0  0  0  0
  195.0710  176.8010  143.3960 C   0  0  2  0  0  3  0  0  0  0  0  0
  196.5050  176.4820  143.7750 C   0  0  0  0  0  2  0  0  0  0  0  0
  195.1520  174.2900  141.1980 C   0  0  0  0  0  0  0  0  0  0  0  0
  194.0730  175.7940  143.9160 C   0  0  0  0  0  0  0  0  0  0  0  0
  189.5470  173.3660  146.0460 O   0  0  0  0  0  1  0  0  0  0  0  0
  191.5510  175.6430  144.0630 C   0  0  0  0  0  0  0  0  0  0  0  0
  189.1620  175.6560  145.6210 C   0  0  0  0  0  3  0  0  0  0  0  0
  189.3660  176.5810  144.6720 C   0  0  0  0  0  0  0  0  0  0  0  0
  192.2290  173.5710  145.1610 C   0  0  0  0  0  2  0  0  0  0  0  0
  191.3310  174.5510  145.0450 C   0  0  0  0  0  0  0  0  0  0  0  0
  190.1820  174.6130  146.0300 C   0  0  2  0  0  0  0  0  0  0  0  0
  190.6200  176.5890  143.8980 C   0  0  0  0  0  3  0  0  0  0  0  0
  188.4010  178.2720  143.3240 O   0  0  0  0  0  0  0  0  0  0  0  0
  188.2940  177.5370  144.3500 C   0  0  0  0  0  0  0  0  0  0  0  0
  187.1380  177.6340  145.2000 N   0  0  0  0  0  2  0  0  0  0  0  0
  185.5120  179.0320  146.4060 C   0  0  0  0  0  1  0  0  0  0  0  0
  186.0730  178.6240  145.0470 C   0  0  0  0  0  3  0  0  0  0  0  0
  184.9500  178.0750  144.1680 C   0  0  0  0  0  1  0  0  0  0  0  0
  190.4260  176.2590  147.6380 C   0  0  0  0  0  1  0  0  0  0  0  0
  190.7180  174.9230  147.3050 O   0  0  0  0  0  0  0  0  0  0  0  0
  192.6500  170.4420  138.2730 C   0  0  2  0  0  3  0  0  0  0  0  0
  193.3180  169.3270  137.4360 C   0  0  0  0  0  2  0  0  0  0  0  0
  194.7930  169.1350  137.7480 C   0  0  0  0  0  2  0  0  0  0  0  0
  195.0310  168.9890  139.2380 C   0  0  0  0  0  2  0  0  0  0  0  0
  196.0550  170.0190  139.6690 C   0  0  0  0  0  1  0  0  0  0  0  0
  191.1330  170.3930  138.0590 C   0  0  0  0  0  2  0  0  0  0  0  0
  190.4470  169.4910  139.0790 C   0  0  1  0  0  3  0  0  0  0  0  0
  190.0700  168.2810  138.4910 O   0  0  0  0  0  1  0  0  0  0  0  0
  191.3280  169.2580  140.3020 C   0  0  0  0  0  2  0  0  0  0  0  0
  190.8270  169.9980  141.5340 C   0  0  0  0  0  2  0  0  0  0  0  0
  193.1510  170.3470  141.8860 O   0  0  0  0  0  0  0  0  0  0  0  0
  191.9890  170.4170  142.3630 C   0  0  0  0  0  0  0  0  0  0  0  0
  191.8020  170.7570  143.6950 O   0  0  0  0  0  1  0  0  0  0  0  0
  1  4  1  0  0  0  0
  2 47  1  0  0  0  0
  2 17  1  0  0  0  0
  3  7  2  0  0  0  0
  3  5  1  0  0  0  0
  4 13  1  6  0  0  0
  4 12  1  0  0  0  0
  5  9  1  0  0  0  0
  6 18  2  0  0  0  0
  8 11  1  0  0  0  0
  9 19  1  6  0  0  0
  9 18  1  0  0  0  0
 10 17  1  0  0  0  0
 10 14  1  0  0  0  0
 11 14  1  0  0  0  0
 12 13  1  6  0  0  0
 12  2  1  0  0  0  0
 14 29  1  1  0  0  0
 15  8  1  0  0  0  0
 16  3  1  0  0  0  0
 16  1  1  0  0  0  0
 17 20  1  6  0  0  0
 18 15  1  0  0  0  0
 21 25  1  0  0  0  0
 22 23  2  0  0  0  0
 23 26  1  0  0  0  0
 25 27  1  0  0  0  0
 25 28  1  1  0  0  0
 26 30  1  0  0  0  0
 26 32  1  1  0  0  0
 27 28  1  1  0  0  0
 27 30  1  0  0  0  0
 29 22  2  0  0  0  0
 29 21  1  0  0  0  0
 30 24  2  0  0  0  0
 32 36  1  0  0  0  0
 33 37  1  0  0  0  0
 34 33  2  0  0  0  0
 36 35  2  0  0  0  0
 36 37  1  0  0  0  0
 37 31  1  1  0  0  0
 37 46  1  0  0  0  0
 38 32  2  0  0  0  0
 38 34  1  0  0  0  0
 39 40  2  0  0  0  0
 40 34  1  0  0  0  0
 40 41  1  0  0  0  0
 43 41  1  0  0  0  0
 43 42  1  0  0  0  0
 44 43  1  0  0  0  0
 46 45  1  0  0  0  0
 47 48  1  6  0  0  0
 48 49  1  0  0  0  0
 49 50  1  0  0  0  0
 50 51  1  0  0  0  0
 52 47  1  0  0  0  0
 52 53  1  0  0  0  0
 53 54  1  6  0  0  0
 53 55  1  0  0  0  0
 55 56  1  0  0  0  0
 56 58  1  0  0  0  0
 57 58  2  0  0  0  0
 58 59  1  0  0  0  0
M  END
>  <MODEL>
6

>  <REMARK>
 VINA RESULT:      -4.5      3.429      7.127
  Name = 
  14 active torsions:
  status: ('A' for Active; 'I' for Inactive)
    1  A    between atoms: C_2  and  C_32
    2  A    between atoms: N_10  and  C_27
    3  A    between atoms: C_14  and  C_30
    4  A    between atoms: C_15  and  C_20
    5  A    between atoms: C_15  and  C_39
    6  A    between atoms: C_17  and  C_50
    7  A    between atoms: C_18  and  N_42
    8  A    between atoms: C_19  and  C_38
    9  A    between atoms: C_19  and  C_50
   10  A    between atoms: C_27  and  C_39
   11  A    between atoms: C_27  and  C_58
   12  A    between atoms: C_36  and  C_44
   13  A    between atoms: O_37  and  C_52
   14  A    between atoms: C_38  and  C_58
                            x       y       z     vdW  Elec       q    Type
                         _______ _______ _______ _____ _____    ______ ____

>  <TORSDO>
F 14

$$$$
=
 OpenBabel11062422333D

 59 63  0  0  1  0  0  0  0  0999 V2000
  194.8370  173.1850  140.0690 C   0  0  0  0  0  2  0  0  0  0  0  0
  193.7640  171.1630  143.0040 N   0  0  0  0  0  0  0  0  0  0  0  0
  196.0690  175.2710  140.6230 C   0  0  0  0  0  0  0  0  0  0  0  0
  195.0410  172.4950  141.4060 C   0  0  1  0  0  3  0  0  0  0  0  0
  196.3870  175.1050  141.9760 O   0  0  0  0  0  0  0  0  0  0  0  0
  196.9770  174.6480  144.6490 O   0  0  0  0  0  0  0  0  0  0  0  0
  195.8010  176.4080  140.1510 O   0  0  0  0  0  0  0  0  0  0  0  0
  194.1000  175.9300  145.1690 O   0  0  0  0  0  0  0  0  0  0  0  0
  196.4010  176.1840  142.9020 C   0  0  1  0  0  3  0  0  0  0  0  0
  193.3070  173.4440  143.8830 C   0  0  0  0  0  2  0  0  0  0  0  0
  193.9730  174.7620  145.9320 C   0  0  0  0  0  2  0  0  0  0  0  0
  193.9880  171.4100  141.5730 C   0  0  1  0  0  3  0  0  0  0  0  0
  195.4150  171.0480  141.1830 C   0  0  0  0  0  2  0  0  0  0  0  0
  192.9430  173.8120  145.3190 C   0  0  1  0  0  3  0  0  0  0  0  0
  195.4090  176.2340  145.1920 O   0  0  0  0  0  0  0  0  0  0  0  0
  196.0270  174.0720  139.7340 C   0  0  0  0  0  2  0  0  0  0  0  0
  192.7290  172.0810  143.5280 C   0  0  1  0  0  3  0  0  0  0  0  0
  196.2890  175.6460  144.2880 C   0  0  0  0  0  0  0  0  0  0  0  0
  197.6990  176.9650  142.7620 C   0  0  0  0  0  1  0  0  0  0  0  0
  191.4890  172.1950  142.6430 C   0  0  0  0  0  1  0  0  0  0  0  0
  190.7580  174.1860  146.5640 O   0  0  0  0  0  0  0  0  0  0  0  0
  191.0110  174.9890  144.4230 C   0  0  0  0  0  0  0  0  0  0  0  0
  190.2490  175.6720  143.6260 C   0  0  0  0  0  3  0  0  0  0  0  0
  187.6710  174.9160  145.3420 O   0  0  0  0  0  0  0  0  0  0  0  0
  190.3130  175.2840  147.3650 C   0  0  1  0  0  3  0  0  0  0  0  0
  189.1630  176.4590  144.2960 C   0  0  2  0  0  3  0  0  0  0  0  0
  189.0860  176.0820  146.8680 C   0  0  2  0  0  3  0  0  0  0  0  0
  188.9230  174.9560  147.8720 C   0  0  0  0  0  2  0  0  0  0  0  0
  191.5450  174.3540  145.4160 C   0  0  0  0  0  0  0  0  0  0  0  0
  188.5650  175.7410  145.4920 C   0  0  0  0  0  0  0  0  0  0  0  0
  184.6630  178.0680  143.3490 O   0  0  0  0  0  1  0  0  0  0  0  0
  188.1290  177.0100  143.3470 C   0  0  0  0  0  0  0  0  0  0  0  0
  186.1330  177.8920  141.5100 C   0  0  0  0  0  3  0  0  0  0  0  0
  187.1810  177.1700  141.0880 C   0  0  0  0  0  0  0  0  0  0  0  0
  186.8150  177.9360  145.1840 C   0  0  0  0  0  2  0  0  0  0  0  0
  186.9440  177.7360  143.8720 C   0  0  0  0  0  0  0  0  0  0  0  0
  185.9570  178.3930  142.9290 C   0  0  2  0  0  0  0  0  0  0  0  0
  188.2270  176.7510  142.0380 C   0  0  0  0  0  3  0  0  0  0  0  0
  187.0490  177.5660  138.7580 O   0  0  0  0  0  0  0  0  0  0  0  0
  187.2370  176.7250  139.6860 C   0  0  0  0  0  0  0  0  0  0  0  0
  187.4990  175.3440  139.3780 N   0  0  0  0  0  2  0  0  0  0  0  0
  188.8690  174.4880  137.5240 C   0  0  0  0  0  1  0  0  0  0  0  0
  187.4590  174.7690  138.0360 C   0  0  0  0  0  3  0  0  0  0  0  0
  186.7370  175.7070  137.0690 C   0  0  0  0  0  1  0  0  0  0  0  0
  185.4150  180.3520  144.0360 C   0  0  0  0  0  1  0  0  0  0  0  0
  186.1690  179.7940  142.9860 O   0  0  0  0  0  0  0  0  0  0  0  0
  193.4020  169.7400  143.2040 C   0  0  2  0  0  3  0  0  0  0  0  0
  194.3130  169.0250  144.2270 C   0  0  0  0  0  2  0  0  0  0  0  0
  194.5480  169.8270  145.4960 C   0  0  0  0  0  2  0  0  0  0  0  0
  196.0070  169.8020  145.9070 C   0  0  0  0  0  2  0  0  0  0  0  0
  196.5760  171.1980  145.7630 C   0  0  0  0  0  1  0  0  0  0  0  0
  193.4810  169.0090  141.8600 C   0  0  0  0  0  2  0  0  0  0  0  0
  192.1780  168.2870  141.5310 C   0  0  1  0  0  3  0  0  0  0  0  0
  191.1790  168.6370  142.4420 O   0  0  0  0  0  1  0  0  0  0  0  0
  191.7350  168.5610  140.0970 C   0  0  0  0  0  2  0  0  0  0  0  0
  190.9120  169.8360  139.9710 C   0  0  0  0  0  2  0  0  0  0  0  0
  191.2190  171.1120  137.9900 O   0  0  0  0  0  1  0  0  0  0  0  0
  190.6640  170.1220  138.5320 C   0  0  0  0  0  0  0  0  0  0  0  0
  189.7260  169.3780  137.8310 O   0  0  0  0  0  0  0  0  0  0  0  0
  2 47  1  0  0  0  0
  2 17  1  0  0  0  0
  3  5  1  0  0  0  0
  4  1  1  6  0  0  0
  4 12  1  0  0  0  0
  5  9  1  0  0  0  0
  7  3  2  0  0  0  0
  8 15  1  0  0  0  0
  8 11  1  0  0  0  0
  9 19  1  1  0  0  0
  9 18  1  0  0  0  0
 10 14  1  0  0  0  0
 12 13  1  6  0  0  0
 12  2  1  0  0  0  0
 13  4  1  0  0  0  0
 14 29  1  6  0  0  0
 14 11  1  0  0  0  0
 16  1  1  0  0  0  0
 16  3  1  0  0  0  0
 17 20  1  6  0  0  0
 17 10  1  0  0  0  0
 18  6  2  0  0  0  0
 18 15  1  0  0  0  0
 21 25  1  0  0  0  0
 22 29  2  0  0  0  0
 23 26  1  0  0  0  0
 23 22  2  0  0  0  0
 24 30  2  0  0  0  0
 25 28  1  1  0  0  0
 26 32  1  6  0  0  0
 26 30  1  0  0  0  0
 27 25  1  0  0  0  0
 27 28  1  1  0  0  0
 29 21  1  0  0  0  0
 30 27  1  0  0  0  0
 32 36  1  0  0  0  0
 33 37  1  0  0  0  0
 34 33  2  0  0  0  0
 34 38  1  0  0  0  0
 36 35  2  0  0  0  0
 37 46  1  0  0  0  0
 37 31  1  1  0  0  0
 37 36  1  0  0  0  0
 38 32  2  0  0  0  0
 39 40  2  0  0  0  0
 40 34  1  0  0  0  0
 41 40  1  0  0  0  0
 42 43  1  0  0  0  0
 43 41  1  0  0  0  0
 44 43  1  0  0  0  0
 46 45  1  0  0  0  0
 47 52  1  6  0  0  0
 47 48  1  0  0  0  0
 48 49  1  0  0  0  0
 49 50  1  0  0  0  0
 51 50  1  0  0  0  0
 53 52  1  0  0  0  0
 53 54  1  1  0  0  0
 55 53  1  0  0  0  0
 56 55  1  0  0  0  0
 57 58  1  0  0  0  0
 58 56  1  0  0  0  0
 59 58  2  0  0  0  0
M  END
>  <MODEL>
7

>  <REMARK>
 VINA RESULT:      -4.3      2.563      5.865
  Name = 
  14 active torsions:
  status: ('A' for Active; 'I' for Inactive)
    1  A    between atoms: C_2  and  C_32
    2  A    between atoms: N_10  and  C_27
    3  A    between atoms: C_14  and  C_30
    4  A    between atoms: C_15  and  C_20
    5  A    between atoms: C_15  and  C_39
    6  A    between atoms: C_17  and  C_50
    7  A    between atoms: C_18  and  N_42
    8  A    between atoms: C_19  and  C_38
    9  A    between atoms: C_19  and  C_50
   10  A    between atoms: C_27  and  C_39
   11  A    between atoms: C_27  and  C_58
   12  A    between atoms: C_36  and  C_44
   13  A    between atoms: O_37  and  C_52
   14  A    between atoms: C_38  and  C_58
                            x       y       z     vdW  Elec       q    Type
                         _______ _______ _______ _____ _____    ______ ____

>  <TORSDO>
F 14

$$$$
=
 OpenBabel11062422333D

 59 63  0  0  1  0  0  0  0  0999 V2000
  187.6110  177.1410  137.3920 C   0  0  0  0  0  2  0  0  0  0  0  0
  186.3970  176.6760  140.8800 N   0  0  0  0  0  0  0  0  0  0  0  0
  188.5770  175.1090  136.3350 C   0  0  0  0  0  0  0  0  0  0  0  0
  186.8500  176.4250  138.4940 C   0  0  1  0  0  3  0  0  0  0  0  0
  188.1780  174.0800  137.1960 O   0  0  0  0  0  0  0  0  0  0  0  0
  187.3070  172.1270  138.9650 O   0  0  0  0  0  0  0  0  0  0  0  0
  189.6880  175.0690  135.7420 O   0  0  0  0  0  0  0  0  0  0  0  0
  189.9720  172.8480  140.5680 O   0  0  0  0  0  0  0  0  0  0  0  0
  188.9970  172.9530  137.4800 C   0  0  1  0  0  3  0  0  0  0  0  0
  188.4720  175.3070  140.9760 C   0  0  0  0  0  2  0  0  0  0  0  0
  189.0450  172.9310  141.6150 C   0  0  0  0  0  2  0  0  0  0  0  0
  186.5560  177.4090  139.6160 C   0  0  1  0  0  3  0  0  0  0  0  0
  185.4670  177.0180  138.6270 C   0  0  0  0  0  2  0  0  0  0  0  0
  188.8960  174.3720  142.1060 C   0  0  1  0  0  3  0  0  0  0  0  0
  189.4700  171.9410  139.7130 O   0  0  0  0  0  0  0  0  0  0  0  0
  187.6740  176.2820  136.1370 C   0  0  0  0  0  2  0  0  0  0  0  0
  187.7100  176.4990  141.5400 C   0  0  1  0  0  3  0  0  0  0  0  0
  188.5380  172.3170  138.7480 C   0  0  0  0  0  0  0  0  0  0  0  0
  188.9000  171.9470  136.3420 C   0  0  0  0  0  1  0  0  0  0  0  0
  188.5660  177.7630  141.5760 C   0  0  0  0  0  1  0  0  0  0  0  0
  190.0900  175.8640  143.7820 O   0  0  0  0  0  0  0  0  0  0  0  0
  191.2970  174.3840  142.4990 C   0  0  0  0  0  0  0  0  0  0  0  0
  192.5540  174.0760  142.4290 C   0  0  0  0  0  3  0  0  0  0  0  0
  193.3620  176.7800  143.9140 O   0  0  0  0  0  0  0  0  0  0  0  0
  190.4660  175.6310  145.1420 C   0  0  1  0  0  3  0  0  0  0  0  0
  193.3630  174.4070  143.6480 C   0  0  2  0  0  3  0  0  0  0  0  0
  191.9750  175.6290  145.4770 C   0  0  2  0  0  3  0  0  0  0  0  0
  191.1430  176.8840  145.6590 C   0  0  0  0  0  2  0  0  0  0  0  0
  190.1330  174.8640  142.8000 C   0  0  0  0  0  0  0  0  0  0  0  0
  192.9310  175.7030  144.3110 C   0  0  0  0  0  0  0  0  0  0  0  0
  197.9330  174.6850  145.3160 O   0  0  0  0  0  1  0  0  0  0  0  0
  194.8530  174.3040  143.4430 C   0  0  0  0  0  0  0  0  0  0  0  0
  197.6720  174.2740  143.0060 C   0  0  0  0  0  3  0  0  0  0  0  0
  196.8240  174.5300  141.9980 C   0  0  0  0  0  0  0  0  0  0  0  0
  195.2430  173.9640  145.8290 C   0  0  0  0  0  2  0  0  0  0  0  0
  195.7560  174.0980  144.6050 C   0  0  0  0  0  0  0  0  0  0  0  0
  197.2410  173.8800  144.4040 C   0  0  2  0  0  0  0  0  0  0  0  0
  195.3690  174.5060  142.2260 C   0  0  0  0  0  3  0  0  0  0  0  0
  197.9380  176.0370  140.5510 O   0  0  0  0  0  0  0  0  0  0  0  0
  197.3600  174.9180  140.6830 C   0  0  0  0  0  0  0  0  0  0  0  0
  197.2210  174.0310  139.5590 N   0  0  0  0  0  2  0  0  0  0  0  0
  196.4980  175.1370  137.4850 C   0  0  0  0  0  1  0  0  0  0  0  0
  197.6060  174.3590  138.1880 C   0  0  0  0  0  3  0  0  0  0  0  0
  197.9240  173.0890  137.3990 C   0  0  0  0  0  1  0  0  0  0  0  0
  197.3520  171.7790  143.4410 C   0  0  0  0  0  1  0  0  0  0  0  0
  197.5130  172.5070  144.6340 O   0  0  0  0  0  0  0  0  0  0  0  0
  185.4300  177.3930  141.7430 C   0  0  2  0  0  3  0  0  0  0  0  0
  184.7550  178.5850  141.0280 C   0  0  0  0  0  2  0  0  0  0  0  0
  183.3500  178.2820  140.5340 C   0  0  0  0  0  2  0  0  0  0  0  0
  182.4430  177.8550  141.6710 C   0  0  0  0  0  2  0  0  0  0  0  0
  182.4170  178.9560  142.7110 C   0  0  0  0  0  1  0  0  0  0  0  0
  186.1550  177.8990  142.9950 C   0  0  0  0  0  2  0  0  0  0  0  0
  185.3160  177.6970  144.2530 C   0  0  1  0  0  3  0  0  0  0  0  0
  185.7110  176.5390  144.9270 O   0  0  0  0  0  1  0  0  0  0  0  0
  185.3810  178.9160  145.1690 C   0  0  0  0  0  2  0  0  0  0  0  0
  184.7090  178.6730  146.5140 C   0  0  0  0  0  2  0  0  0  0  0  0
  186.2370  179.8490  147.9030 O   0  0  0  0  0  0  0  0  0  0  0  0
  185.7310  178.7400  147.5930 C   0  0  0  0  0  0  0  0  0  0  0  0
  186.2170  177.5700  148.1590 O   0  0  0  0  0  1  0  0  0  0  0  0
  2 17  1  0  0  0  0
  2 47  1  0  0  0  0
  3  5  1  0  0  0  0
  4  1  1  6  0  0  0
  4 13  1  0  0  0  0
  4 12  1  0  0  0  0
  5  9  1  0  0  0  0
  7  3  2  0  0  0  0
  8 11  1  0  0  0  0
  9 19  1  6  0  0  0
  9 18  1  0  0  0  0
 10 17  1  0  0  0  0
 10 14  1  0  0  0  0
 11 14  1  0  0  0  0
 12 13  1  6  0  0  0
 12  2  1  0  0  0  0
 14 29  1  6  0  0  0
 15  8  1  0  0  0  0
 16  3  1  0  0  0  0
 16  1  1  0  0  0  0
 17 20  1  6  0  0  0
 18  6  2  0  0  0  0
 18 15  1  0  0  0  0
 21 25  1  0  0  0  0
 22 29  2  0  0  0  0
 23 22  2  0  0  0  0
 23 26  1  0  0  0  0
 24 30  2  0  0  0  0
 25 27  1  0  0  0  0
 25 28  1  1  0  0  0
 26 32  1  6  0  0  0
 26 30  1  0  0  0  0
 27 28  1  1  0  0  0
 29 21  1  0  0  0  0
 30 27  1  0  0  0  0
 32 36  1  0  0  0  0
 33 37  1  0  0  0  0
 34 38  1  0  0  0  0
 34 33  2  0  0  0  0
 36 35  2  0  0  0  0
 37 36  1  0  0  0  0
 37 46  1  0  0  0  0
 37 31  1  1  0  0  0
 38 32  2  0  0  0  0
 39 40  2  0  0  0  0
 40 34  1  0  0  0  0
 41 40  1  0  0  0  0
 42 43  1  0  0  0  0
 43 41  1  0  0  0  0
 44 43  1  0  0  0  0
 45 46  1  0  0  0  0
 47 48  1  6  0  0  0
 47 52  1  0  0  0  0
 49 48  1  0  0  0  0
 49 50  1  0  0  0  0
 50 51  1  0  0  0  0
 52 53  1  0  0  0  0
 53 54  1  1  0  0  0
 53 55  1  0  0  0  0
 55 56  1  0  0  0  0
 56 58  1  0  0  0  0
 58 57  2  0  0  0  0
 58 59  1  0  0  0  0
M  END
>  <MODEL>
8

>  <REMARK>
 VINA RESULT:      -4.2      2.632     10.333
  Name = 
  14 active torsions:
  status: ('A' for Active; 'I' for Inactive)
    1  A    between atoms: C_2  and  C_32
    2  A    between atoms: N_10  and  C_27
    3  A    between atoms: C_14  and  C_30
    4  A    between atoms: C_15  and  C_20
    5  A    between atoms: C_15  and  C_39
    6  A    between atoms: C_17  and  C_50
    7  A    between atoms: C_18  and  N_42
    8  A    between atoms: C_19  and  C_38
    9  A    between atoms: C_19  and  C_50
   10  A    between atoms: C_27  and  C_39
   11  A    between atoms: C_27  and  C_58
   12  A    between atoms: C_36  and  C_44
   13  A    between atoms: O_37  and  C_52
   14  A    between atoms: C_38  and  C_58
                            x       y       z     vdW  Elec       q    Type
                         _______ _______ _______ _____ _____    ______ ____

>  <TORSDO>
F 14

$$$$
=
 OpenBabel11062422333D

 59 63  0  0  1  0  0  0  0  0999 V2000
  186.2650  176.1500  145.3200 C   0  0  0  0  0  2  0  0  0  0  0  0
  187.4660  177.0330  141.9090 N   0  0  0  0  0  0  0  0  0  0  0  0
  188.0050  176.2010  147.0940 C   0  0  0  0  0  0  0  0  0  0  0  0
  187.0140  176.9980  144.3080 C   0  0  1  0  0  3  0  0  0  0  0  0
  189.0690  176.8720  146.4790 O   0  0  0  0  0  0  0  0  0  0  0  0
  191.0950  178.2350  145.1600 O   0  0  0  0  0  0  0  0  0  0  0  0
  188.2110  175.2740  147.9220 O   0  0  0  0  0  0  0  0  0  0  0  0
  191.9180  175.3370  144.1070 O   0  0  0  0  0  0  0  0  0  0  0  0
  190.4300  176.5430  146.7210 C   0  0  1  0  0  3  0  0  0  0  0  0
  189.3990  175.6780  142.6910 C   0  0  0  0  0  2  0  0  0  0  0  0
  191.8940  176.0260  142.8870 C   0  0  0  0  0  2  0  0  0  0  0  0
  186.4410  176.7440  142.9220 C   0  0  1  0  0  3  0  0  0  0  0  0
  186.0750  178.0070  143.6900 C   0  0  0  0  0  2  0  0  0  0  0  0
  190.7510  175.5320  141.9980 C   0  0  1  0  0  3  0  0  0  0  0  0
  192.2470  176.2540  145.0320 O   0  0  0  0  0  0  0  0  0  0  0  0
  186.6050  176.5800  146.7400 C   0  0  0  0  0  2  0  0  0  0  0  0
  188.2930  175.8320  141.6570 C   0  0  1  0  0  3  0  0  0  0  0  0
  191.2700  177.0650  145.6050 C   0  0  0  0  0  0  0  0  0  0  0  0
  190.8860  177.1630  148.0340 C   0  0  0  0  0  1  0  0  0  0  0  0
  187.4880  174.5460  141.4800 C   0  0  0  0  0  1  0  0  0  0  0  0
  190.8220  173.0150  142.3490 O   0  0  0  0  0  0  0  0  0  0  0  0
  191.3420  173.9030  140.2910 C   0  0  0  0  0  0  0  0  0  0  0  0
  191.6720  173.3850  139.1490 C   0  0  0  0  0  3  0  0  0  0  0  0
  192.4420  170.6270  140.5510 O   0  0  0  0  0  0  0  0  0  0  0  0
  189.8300  172.0100  142.1250 C   0  0  1  0  0  3  0  0  0  0  0  0
  191.2650  171.9540  138.9530 C   0  0  2  0  0  3  0  0  0  0  0  0
  190.1310  170.9330  141.0590 C   0  0  2  0  0  3  0  0  0  0  0  0
  190.4230  170.6740  142.5240 C   0  0  0  0  0  2  0  0  0  0  0  0
  190.9780  174.1290  141.5120 C   0  0  0  0  0  0  0  0  0  0  0  0
  191.3740  171.1300  140.2230 C   0  0  0  0  0  0  0  0  0  0  0  0
  191.7490  168.1730  135.9180 O   0  0  0  0  0  1  0  0  0  0  0  0
  191.8970  171.2960  137.7530 C   0  0  0  0  0  0  0  0  0  0  0  0
  193.2160  169.9930  135.5850 C   0  0  0  0  0  3  0  0  0  0  0  0
  193.8270  170.9690  136.2720 C   0  0  0  0  0  0  0  0  0  0  0  0
  190.0180  169.7570  137.5040 C   0  0  0  0  0  2  0  0  0  0  0  0
  191.2130  170.1650  137.0740 C   0  0  0  0  0  0  0  0  0  0  0  0
  191.7780  169.5670  135.8020 C   0  0  2  0  0  0  0  0  0  0  0  0
  193.1240  171.6610  137.3660 C   0  0  0  0  0  3  0  0  0  0  0  0
  196.0450  170.3460  135.7250 O   0  0  0  0  0  0  0  0  0  0  0  0
  195.2350  171.2850  135.9830 C   0  0  0  0  0  0  0  0  0  0  0  0
  195.6840  172.6520  135.9990 N   0  0  0  0  0  2  0  0  0  0  0  0
  197.4960  173.9840  136.9940 C   0  0  0  0  0  1  0  0  0  0  0  0
  197.0750  173.0730  135.8450 C   0  0  0  0  0  3  0  0  0  0  0  0
  197.2750  173.7960  134.5140 C   0  0  0  0  0  1  0  0  0  0  0  0
  191.0580  171.4000  134.5850 C   0  0  0  0  0  1  0  0  0  0  0  0
  190.9680  170.0010  134.7220 O   0  0  0  0  0  0  0  0  0  0  0  0
  186.8100  177.5280  140.6770 C   0  0  2  0  0  3  0  0  0  0  0  0
  185.3060  177.1750  140.6130 C   0  0  0  0  0  2  0  0  0  0  0  0
  184.3990  178.3920  140.5420 C   0  0  0  0  0  2  0  0  0  0  0  0
  183.1830  178.2300  141.4330 C   0  0  0  0  0  2  0  0  0  0  0  0
  181.9370  178.4450  140.5980 C   0  0  0  0  0  1  0  0  0  0  0  0
  187.5200  176.9330  139.4560 C   0  0  0  0  0  2  0  0  0  0  0  0
  186.5720  176.7760  138.2710 C   0  0  1  0  0  3  0  0  0  0  0  0
  186.3950  177.9980  137.6170 O   0  0  0  0  0  1  0  0  0  0  0  0
  187.0580  175.7000  137.3060 C   0  0  0  0  0  2  0  0  0  0  0  0
  186.7690  176.0450  135.8510 C   0  0  0  0  0  2  0  0  0  0  0  0
  188.3220  177.5980  134.9430 O   0  0  0  0  0  1  0  0  0  0  0  0
  188.0440  176.3920  135.1660 C   0  0  0  0  0  0  0  0  0  0  0  0
  188.8540  175.3840  134.6620 O   0  0  0  0  0  0  0  0  0  0  0  0
  1 16  1  0  0  0  0
  2 12  1  0  0  0  0
  3  7  2  0  0  0  0
  4 13  1  1  0  0  0
  4  1  1  0  0  0  0
  5  9  1  0  0  0  0
  5  3  1  0  0  0  0
  6 18  2  0  0  0  0
  8 15  1  0  0  0  0
  9 19  1  1  0  0  0
 11  8  1  0  0  0  0
 12 13  1  6  0  0  0
 12  4  1  0  0  0  0
 14 29  1  1  0  0  0
 14 10  1  0  0  0  0
 14 11  1  0  0  0  0
 15 18  1  0  0  0  0
 16  3  1  0  0  0  0
 17 20  1  1  0  0  0
 17  2  1  0  0  0  0
 17 10  1  0  0  0  0
 18  9  1  0  0  0  0
 22 29  2  0  0  0  0
 23 22  2  0  0  0  0
 25 21  1  0  0  0  0
 25 28  1  1  0  0  0
 26 32  1  6  0  0  0
 26 23  1  0  0  0  0
 26 30  1  0  0  0  0
 27 25  1  0  0  0  0
 27 28  1  1  0  0  0
 29 21  1  0  0  0  0
 30 24  2  0  0  0  0
 30 27  1  0  0  0  0
 33 37  1  0  0  0  0
 33 34  2  0  0  0  0
 34 38  1  0  0  0  0
 36 35  2  0  0  0  0
 36 32  1  0  0  0  0
 37 31  1  1  0  0  0
 37 36  1  0  0  0  0
 38 32  2  0  0  0  0
 39 40  2  0  0  0  0
 40 41  1  0  0  0  0
 40 34  1  0  0  0  0
 43 41  1  0  0  0  0
 43 42  1  0  0  0  0
 44 43  1  0  0  0  0
 45 46  1  0  0  0  0
 46 37  1  0  0  0  0
 47 52  1  6  0  0  0
 47  2  1  0  0  0  0
 48 47  1  0  0  0  0
 49 48  1  0  0  0  0
 49 50  1  0  0  0  0
 51 50  1  0  0  0  0
 53 54  1  6  0  0  0
 53 52  1  0  0  0  0
 55 53  1  0  0  0  0
 56 55  1  0  0  0  0
 57 58  1  0  0  0  0
 58 56  1  0  0  0  0
 59 58  2  0  0  0  0
M  END
>  <MODEL>
9

>  <REMARK>
 VINA RESULT:      -4.2      3.545     10.751
  Name = 
  14 active torsions:
  status: ('A' for Active; 'I' for Inactive)
    1  A    between atoms: C_2  and  C_32
    2  A    between atoms: N_10  and  C_27
    3  A    between atoms: C_14  and  C_30
    4  A    between atoms: C_15  and  C_20
    5  A    between atoms: C_15  and  C_39
    6  A    between atoms: C_17  and  C_50
    7  A    between atoms: C_18  and  N_42
    8  A    between atoms: C_19  and  C_38
    9  A    between atoms: C_19  and  C_50
   10  A    between atoms: C_27  and  C_39
   11  A    between atoms: C_27  and  C_58
   12  A    between atoms: C_36  and  C_44
   13  A    between atoms: O_37  and  C_52
   14  A    between atoms: C_38  and  C_58
                            x       y       z     vdW  Elec       q    Type
                         _______ _______ _______ _____ _____    ______ ____

>  <TORSDO>
F 14

$$$$
