=
 OpenBabel11062419453D

 30 34  0  0  1  0  0  0  0  0999 V2000
  188.2270  176.8050  144.2590 C   0  0  2  0  0  3  0  0  0  0  0  0
  189.9470  177.2650  146.7260 O   0  0  0  0  0  0  0  0  0  0  0  0
  185.9510  177.7020  141.4910 C   0  0  0  0  0  0  0  0  0  0  0  0
  190.1400  173.7700  145.7170 C   0  0  0  0  0  2  0  0  0  0  0  0
  189.7730  174.0100  144.3160 C   0  0  0  0  0  0  0  0  0  0  0  0
  184.9490  177.1100  145.7870 C   0  0  1  0  0  3  0  0  0  0  0  0
  184.3250  178.0180  146.8570 C   0  0  0  0  0  2  0  0  0  0  0  0
  184.5800  178.7780  141.2820 Cl  0  0  0  0  0  0  0  0  0  0  0  0
  186.9000  177.0560  147.4480 C   0  0  0  0  0  2  0  0  0  0  0  0
  190.3110  176.9140  145.5730 C   0  0  0  0  0  0  0  0  0  0  0  0
  187.4890  176.0720  140.5210 C   0  0  0  0  0  0  0  0  0  0  0  0
  186.3950  176.9490  140.4070 C   0  0  0  0  0  3  0  0  0  0  0  0
  186.6120  177.5760  142.7150 C   0  0  0  0  0  0  0  0  0  0  0  0
  187.7190  176.7630  142.8510 C   0  0  0  0  0  0  0  0  0  0  0  0
  186.2150  178.2210  143.9950 C   0  0  2  0  0  3  0  0  0  0  0  0
  186.5260  178.4410  148.0050 C   0  0  1  0  0  3  0  0  0  0  0  0
  187.2160  177.6740  145.0170 C   0  0  1  0  0  3  0  0  0  0  0  0
  191.3350  175.9340  145.4120 N   0  0  0  0  0  2  0  0  0  0  0  0
  187.7110  179.3800  147.9200 C   0  0  0  0  0  1  0  0  0  0  0  0
  184.8290  177.7520  144.4200 C   0  0  0  0  0  2  0  0  0  0  0  0
  189.3280  174.9860  141.8780 C   0  0  0  0  0  2  0  0  0  0  0  0
  191.3230  174.6630  146.1350 C   0  0  0  0  0  2  0  0  0  0  0  0
  189.5320  174.3820  143.1960 C   0  0  0  0  0  0  0  0  0  0  0  0
  188.1570  175.9410  141.7740 C   0  0  0  0  0  0  0  0  0  0  0  0
  186.4370  176.8210  146.0040 C   0  0  2  0  0  3  0  0  0  0  0  0
  189.6080  177.4460  144.3640 C   0  0  0  0  0  2  0  0  0  0  0  0
  185.3150  179.0810  147.3230 C   0  0  0  0  0  2  0  0  0  0  0  0
  188.5570  174.1420  139.4910 O   0  0  0  0  0  0  0  0  0  0  0  0
  187.4790  175.6560  138.2110 O   0  0  0  0  0  0  0  0  0  0  0  0
  187.8780  175.3300  139.3480 N   0  0  0  0  0  0  0  0  0  0  0  0
  1 26  1  6  0  0  0
  1 17  1  0  0  0  0
  3 13  1  0  0  0  0
  4 22  1  0  0  0  0
  5  4  1  0  0  0  0
  6 20  1  6  0  0  0
  6 25  1  0  0  0  0
  6  7  1  0  0  0  0
  7 27  1  0  0  0  0
  8  3  1  0  0  0  0
  9 16  1  0  0  0  0
 10  2  2  0  0  0  0
 11 24  2  0  0  0  0
 12 11  1  0  0  0  0
 12  3  2  0  0  0  0
 13 14  2  0  0  0  0
 13 15  1  0  0  0  0
 14  1  1  0  0  0  0
 15 20  1  1  0  0  0
 15 17  1  0  0  0  0
 16 19  1  6  0  0  0
 17 25  1  0  0  0  0
 18 10  1  0  0  0  0
 18 22  1  0  0  0  0
 21 23  1  0  0  0  0
 23  5  3  0  0  0  0
 24 21  1  0  0  0  0
 24 14  1  0  0  0  0
 25  9  1  0  0  0  0
 26 10  1  0  0  0  0
 27 16  1  0  0  0  0
 29 30  2  0  0  0  0
 30 28  2  0  0  0  0
 30 11  1  0  0  0  0
M  END
>  <MODEL>
1

>  <REMARK>
 VINA RESULT:      -8.5      0.000      0.000
  Name = 
  1 active torsions:
  status: ('A' for Active; 'I' for Inactive)
    1  A    between atoms: C_13  and  N_26
                            x       y       z     vdW  Elec       q    Type
                         _______ _______ _______ _____ _____    ______ ____

>  <TORSDO>
F 1

$$$$
=
 OpenBabel11062419453D

 30 34  0  0  1  0  0  0  0  0999 V2000
  189.3520  175.6280  143.5630 C   0  0  2  0  0  3  0  0  0  0  0  0
  187.9820  176.0560  140.8800 O   0  0  0  0  0  0  0  0  0  0  0  0
  192.1380  174.8880  145.8730 C   0  0  0  0  0  0  0  0  0  0  0  0
  185.5950  176.5640  143.5840 C   0  0  0  0  0  2  0  0  0  0  0  0
  186.6040  176.8820  144.6020 C   0  0  0  0  0  0  0  0  0  0  0  0
  189.7760  172.0260  143.4150 C   0  0  1  0  0  3  0  0  0  0  0  0
  190.1540  171.0170  142.3210 C   0  0  0  0  0  2  0  0  0  0  0  0
  193.5150  173.7990  145.8820 Cl  0  0  0  0  0  0  0  0  0  0  0  0
  188.3280  173.0080  141.5420 C   0  0  0  0  0  2  0  0  0  0  0  0
  188.1740  176.8910  141.8030 C   0  0  0  0  0  0  0  0  0  0  0  0
  190.8590  176.6410  146.9910 C   0  0  0  0  0  0  0  0  0  0  0  0
  191.9450  175.7490  146.9500 C   0  0  0  0  0  3  0  0  0  0  0  0
  191.2260  174.9170  144.8150 C   0  0  0  0  0  0  0  0  0  0  0  0
  190.1770  175.8120  144.7990 C   0  0  0  0  0  0  0  0  0  0  0  0
  191.2180  174.0050  143.6400 C   0  0  2  0  0  3  0  0  0  0  0  0
  189.2810  172.4710  140.4600 C   0  0  1  0  0  3  0  0  0  0  0  0
  189.9690  174.4140  142.8560 C   0  0  1  0  0  3  0  0  0  0  0  0
  187.1630  177.8420  142.1310 N   0  0  0  0  0  2  0  0  0  0  0  0
  189.7450  173.5970  139.5600 C   0  0  0  0  0  1  0  0  0  0  0  0
  191.0230  172.5620  144.0870 C   0  0  0  0  0  2  0  0  0  0  0  0
  188.7580  177.6250  145.9810 C   0  0  0  0  0  2  0  0  0  0  0  0
  185.7670  177.4590  142.3430 C   0  0  0  0  0  2  0  0  0  0  0  0
  187.5420  177.1880  145.2930 C   0  0  0  0  0  0  0  0  0  0  0  0
  189.9260  176.6630  145.9140 C   0  0  0  0  0  0  0  0  0  0  0  0
  189.0010  173.2430  142.9020 C   0  0  2  0  0  3  0  0  0  0  0  0
  189.4210  176.8330  142.6280 C   0  0  0  0  0  2  0  0  0  0  0  0
  190.4960  171.7240  141.0140 C   0  0  0  0  0  2  0  0  0  0  0  0
  191.6870  177.4380  149.1390 O   0  0  0  0  0  0  0  0  0  0  0  0
  189.8730  178.3950  148.1980 O   0  0  0  0  0  0  0  0  0  0  0  0
  190.7350  177.4940  148.1470 N   0  0  0  0  0  0  0  0  0  0  0  0
  1 26  1  6  0  0  0
  1 14  1  0  0  0  0
  2 10  2  0  0  0  0
  3  8  1  0  0  0  0
  3 12  1  0  0  0  0
  4  5  1  0  0  0  0
  5 23  3  0  0  0  0
  6  7  1  6  0  0  0
  6 20  1  0  0  0  0
  9 25  1  0  0  0  0
 10 18  1  0  0  0  0
 10 26  1  0  0  0  0
 11 30  1  0  0  0  0
 12 11  2  0  0  0  0
 13  3  2  0  0  0  0
 14 13  1  0  0  0  0
 14 24  2  0  0  0  0
 15 20  1  1  0  0  0
 15 13  1  0  0  0  0
 16 19  1  1  0  0  0
 16 27  1  0  0  0  0
 16  9  1  0  0  0  0
 17 25  1  0  0  0  0
 17  1  1  0  0  0  0
 17 15  1  0  0  0  0
 18 22  1  0  0  0  0
 22  4  1  0  0  0  0
 23 21  1  0  0  0  0
 24 21  1  0  0  0  0
 24 11  1  0  0  0  0
 25  6  1  0  0  0  0
 27  7  1  0  0  0  0
 30 29  2  0  0  0  0
 30 28  2  0  0  0  0
M  END
>  <MODEL>
2

>  <REMARK>
 VINA RESULT:      -8.3      2.893      7.400
  Name = 
  1 active torsions:
  status: ('A' for Active; 'I' for Inactive)
    1  A    between atoms: C_13  and  N_26
                            x       y       z     vdW  Elec       q    Type
                         _______ _______ _______ _____ _____    ______ ____

>  <TORSDO>
F 1

$$$$
=
 OpenBabel11062419453D

 30 34  0  0  1  0  0  0  0  0999 V2000
  186.9180  177.2770  144.5550 C   0  0  2  0  0  3  0  0  0  0  0  0
  187.9820  176.2740  147.2230 O   0  0  0  0  0  0  0  0  0  0  0  0
  186.2520  177.2070  140.9230 C   0  0  0  0  0  0  0  0  0  0  0  0
  186.2630  179.4510  147.6920 C   0  0  0  0  0  2  0  0  0  0  0  0
  185.4270  179.3350  146.4910 C   0  0  0  0  0  0  0  0  0  0  0  0
  190.0660  178.1890  142.9960 C   0  0  1  0  0  3  0  0  0  0  0  0
  191.4760  177.5820  142.9490 C   0  0  0  0  0  2  0  0  0  0  0  0
  187.1230  176.6880  139.4890 Cl  0  0  0  0  0  0  0  0  0  0  0  0
  190.2440  177.5700  145.4760 C   0  0  0  0  0  2  0  0  0  0  0  0
  186.7850  176.4520  146.8750 C   0  0  0  0  0  0  0  0  0  0  0  0
  184.2300  178.1630  141.9010 C   0  0  0  0  0  0  0  0  0  0  0  0
  184.9700  177.7330  140.7860 C   0  0  0  0  0  3  0  0  0  0  0  0
  186.8070  177.1090  142.2010 C   0  0  0  0  0  0  0  0  0  0  0  0
  186.0920  177.4740  143.3220 C   0  0  0  0  0  0  0  0  0  0  0  0
  188.1910  176.6700  142.5230 C   0  0  2  0  0  3  0  0  0  0  0  0
  191.2180  176.4200  145.1680 C   0  0  1  0  0  3  0  0  0  0  0  0
  188.2950  176.8390  144.0400 C   0  0  1  0  0  3  0  0  0  0  0  0
  185.8440  176.9990  147.7980 N   0  0  0  0  0  2  0  0  0  0  0  0
  190.6920  175.1180  145.7360 C   0  0  0  0  0  1  0  0  0  0  0  0
  189.2090  177.6100  141.8890 C   0  0  0  0  0  2  0  0  0  0  0  0
  183.9920  178.5420  144.3920 C   0  0  0  0  0  2  0  0  0  0  0  0
  186.1240  178.2020  148.5810 C   0  0  0  0  0  2  0  0  0  0  0  0
  184.7710  179.0550  145.5200 C   0  0  0  0  0  0  0  0  0  0  0  0
  184.8020  178.0680  143.2040 C   0  0  0  0  0  0  0  0  0  0  0  0
  189.3170  177.9310  144.3070 C   0  0  2  0  0  3  0  0  0  0  0  0
  186.3600  176.1860  145.4660 C   0  0  0  0  0  2  0  0  0  0  0  0
  191.5240  176.2440  143.6790 C   0  0  0  0  0  2  0  0  0  0  0  0
  182.3800  178.6630  140.3980 O   0  0  0  0  0  0  0  0  0  0  0  0
  182.1760  179.0470  142.6130 O   0  0  0  0  0  0  0  0  0  0  0  0
  182.9120  178.6970  141.6670 N   0  0  0  0  0  0  0  0  0  0  0  0
  1 26  1  1  0  0  0
  3 13  1  0  0  0  0
  4 22  1  0  0  0  0
  5  4  1  0  0  0  0
  6 20  1  6  0  0  0
  6 25  1  0  0  0  0
  7  6  1  0  0  0  0
  7 27  1  0  0  0  0
  8  3  1  0  0  0  0
 10  2  2  0  0  0  0
 10 18  1  0  0  0  0
 11 24  2  0  0  0  0
 12  3  2  0  0  0  0
 12 11  1  0  0  0  0
 13 15  1  0  0  0  0
 13 14  2  0  0  0  0
 14  1  1  0  0  0  0
 15 20  1  6  0  0  0
 15 17  1  0  0  0  0
 16  9  1  0  0  0  0
 16 19  1  6  0  0  0
 17 25  1  0  0  0  0
 17  1  1  0  0  0  0
 18 22  1  0  0  0  0
 21 23  1  0  0  0  0
 23  5  3  0  0  0  0
 24 14  1  0  0  0  0
 24 21  1  0  0  0  0
 25  9  1  0  0  0  0
 26 10  1  0  0  0  0
 27 16  1  0  0  0  0
 28 30  2  0  0  0  0
 30 11  1  0  0  0  0
 30 29  2  0  0  0  0
M  END
>  <MODEL>
3

>  <REMARK>
 VINA RESULT:      -8.2      2.806      5.247
  Name = 
  1 active torsions:
  status: ('A' for Active; 'I' for Inactive)
    1  A    between atoms: C_13  and  N_26
                            x       y       z     vdW  Elec       q    Type
                         _______ _______ _______ _____ _____    ______ ____

>  <TORSDO>
F 1

$$$$
=
 OpenBabel11062419453D

 30 34  0  0  1  0  0  0  0  0999 V2000
  189.5410  175.9970  143.4390 C   0  0  2  0  0  3  0  0  0  0  0  0
  192.3930  174.9760  143.1500 O   0  0  0  0  0  0  0  0  0  0  0  0
  186.8310  178.2110  144.6210 C   0  0  0  0  0  0  0  0  0  0  0  0
  190.1300  172.9000  141.1920 C   0  0  0  0  0  2  0  0  0  0  0  0
  189.0880  173.9240  141.0520 C   0  0  0  0  0  0  0  0  0  0  0  0
  188.9250  174.9930  146.8730 C   0  0  1  0  0  3  0  0  0  0  0  0
  189.7480  174.9800  148.1690 C   0  0  0  0  0  2  0  0  0  0  0  0
  186.4510  179.0570  146.1120 Cl  0  0  0  0  0  0  0  0  0  0  0  0
  191.1070  174.0940  145.8720 C   0  0  0  0  0  2  0  0  0  0  0  0
  191.6380  175.4520  142.2610 C   0  0  0  0  0  0  0  0  0  0  0  0
  186.2330  177.6830  142.3140 C   0  0  0  0  0  0  0  0  0  0  0  0
  185.9740  178.3380  143.5310 C   0  0  0  0  0  3  0  0  0  0  0  0
  187.9700  177.4120  144.4940 C   0  0  0  0  0  0  0  0  0  0  0  0
  188.2810  176.7940  143.3010 C   0  0  0  0  0  0  0  0  0  0  0  0
  188.9340  177.0840  145.5780 C   0  0  2  0  0  3  0  0  0  0  0  0
  191.9460  174.7930  146.9560 C   0  0  1  0  0  3  0  0  0  0  0  0
  189.9190  176.1130  144.9210 C   0  0  1  0  0  3  0  0  0  0  0  0
  191.6210  174.8810  140.9540 N   0  0  0  0  0  2  0  0  0  0  0  0
  192.9930  175.6830  146.3180 C   0  0  0  0  0  1  0  0  0  0  0  0
  188.2350  176.3310  146.7030 C   0  0  0  0  0  2  0  0  0  0  0  0
  187.6490  176.1580  140.8740 C   0  0  0  0  0  2  0  0  0  0  0  0
  191.4960  173.4400  140.7310 C   0  0  0  0  0  2  0  0  0  0  0  0
  188.3700  174.8870  140.9700 C   0  0  0  0  0  0  0  0  0  0  0  0
  187.3920  176.8610  142.1900 C   0  0  0  0  0  0  0  0  0  0  0  0
  189.7530  174.7660  145.6040 C   0  0  2  0  0  3  0  0  0  0  0  0
  190.6820  176.5550  142.5920 C   0  0  0  0  0  2  0  0  0  0  0  0
  191.1220  175.6060  147.9560 C   0  0  0  0  0  2  0  0  0  0  0  0
  183.9410  177.7980  141.4980 O   0  0  0  0  0  0  0  0  0  0  0  0
  185.6620  178.2450  140.1080 O   0  0  0  0  0  0  0  0  0  0  0  0
  185.2900  177.8670  141.2390 N   0  0  0  0  0  0  0  0  0  0  0  0
  1 26  1  6  0  0  0
  1 17  1  0  0  0  0
  3  8  1  0  0  0  0
  5  4  1  0  0  0  0
  6 20  1  6  0  0  0
  6  7  1  0  0  0  0
  9 16  1  0  0  0  0
 10 26  1  0  0  0  0
 10  2  2  0  0  0  0
 11 12  1  0  0  0  0
 12  3  2  0  0  0  0
 13  3  1  0  0  0  0
 13 15  1  0  0  0  0
 14  1  1  0  0  0  0
 14 13  2  0  0  0  0
 15 20  1  1  0  0  0
 16 19  1  6  0  0  0
 16 27  1  0  0  0  0
 17 15  1  0  0  0  0
 17 25  1  0  0  0  0
 18 10  1  0  0  0  0
 21 23  1  0  0  0  0
 21 24  1  0  0  0  0
 22 18  1  0  0  0  0
 22  4  1  0  0  0  0
 23  5  3  0  0  0  0
 24 11  2  0  0  0  0
 24 14  1  0  0  0  0
 25  9  1  0  0  0  0
 25  6  1  0  0  0  0
 27  7  1  0  0  0  0
 29 30  2  0  0  0  0
 30 28  2  0  0  0  0
 30 11  1  0  0  0  0
M  END
>  <MODEL>
4

>  <REMARK>
 VINA RESULT:      -8.1      2.602      4.306
  Name = 
  1 active torsions:
  status: ('A' for Active; 'I' for Inactive)
    1  A    between atoms: C_13  and  N_26
                            x       y       z     vdW  Elec       q    Type
                         _______ _______ _______ _____ _____    ______ ____

>  <TORSDO>
F 1

$$$$
=
 OpenBabel11062419453D

 30 34  0  0  1  0  0  0  0  0999 V2000
  191.7650  174.7310  142.9470 C   0  0  2  0  0  3  0  0  0  0  0  0
  194.6790  175.0320  143.7690 O   0  0  0  0  0  0  0  0  0  0  0  0
  188.2560  175.7670  142.4370 C   0  0  0  0  0  0  0  0  0  0  0  0
  194.1150  171.7000  142.4110 C   0  0  0  0  0  2  0  0  0  0  0  0
  192.9350  172.0710  141.6200 C   0  0  0  0  0  0  0  0  0  0  0  0
  190.2530  174.6160  146.2450 C   0  0  1  0  0  3  0  0  0  0  0  0
  190.4830  175.3470  147.5750 C   0  0  0  0  0  2  0  0  0  0  0  0
  187.0930  176.7560  143.3040 Cl  0  0  0  0  0  0  0  0  0  0  0  0
  192.8140  174.5170  146.2400 C   0  0  0  0  0  2  0  0  0  0  0  0
  194.2060  174.8440  142.6170 C   0  0  0  0  0  0  0  0  0  0  0  0
  188.7760  174.3780  140.4980 C   0  0  0  0  0  0  0  0  0  0  0  0
  187.8830  175.1780  141.2320 C   0  0  0  0  0  3  0  0  0  0  0  0
  189.5490  175.5520  142.9210 C   0  0  0  0  0  0  0  0  0  0  0  0
  190.4680  174.8140  142.2040 C   0  0  0  0  0  0  0  0  0  0  0  0
  190.0830  176.0150  144.2290 C   0  0  2  0  0  3  0  0  0  0  0  0
  192.9120  175.7980  147.0880 C   0  0  1  0  0  3  0  0  0  0  0  0
  191.4970  175.4310  144.2850 C   0  0  1  0  0  3  0  0  0  0  0  0
  194.8680  173.9670  141.7060 N   0  0  0  0  0  2  0  0  0  0  0  0
  193.7790  176.8260  146.3910 C   0  0  0  0  0  1  0  0  0  0  0  0
  189.2910  175.3990  145.3760 C   0  0  0  0  0  2  0  0  0  0  0  0
  191.0380  173.2830  140.1970 C   0  0  0  0  0  2  0  0  0  0  0  0
  195.3040  172.6250  142.0890 C   0  0  0  0  0  2  0  0  0  0  0  0
  192.0340  172.5500  140.9800 C   0  0  0  0  0  0  0  0  0  0  0  0
  190.0930  174.1540  140.9980 C   0  0  0  0  0  0  0  0  0  0  0  0
  191.5250  174.4150  145.4140 C   0  0  2  0  0  3  0  0  0  0  0  0
  192.8990  175.4580  142.2270 C   0  0  0  0  0  2  0  0  0  0  0  0
  191.5580  176.4190  147.4360 C   0  0  0  0  0  2  0  0  0  0  0  0
  187.8880  172.4950  139.2350 O   0  0  0  0  0  0  0  0  0  0  0  0
  188.1150  174.5120  138.2500 O   0  0  0  0  0  0  0  0  0  0  0  0
  188.3050  173.8060  139.2620 N   0  0  0  0  0  0  0  0  0  0  0  0
  1 26  1  6  0  0  0
  1 17  1  0  0  0  0
  3 13  1  0  0  0  0
  3  8  1  0  0  0  0
  5  4  1  0  0  0  0
  6 20  1  6  0  0  0
  6  7  1  0  0  0  0
  9 16  1  0  0  0  0
 10  2  2  0  0  0  0
 11 24  2  0  0  0  0
 11 12  1  0  0  0  0
 12  3  2  0  0  0  0
 13 15  1  0  0  0  0
 14 13  2  0  0  0  0
 14  1  1  0  0  0  0
 15 17  1  0  0  0  0
 15 20  1  1  0  0  0
 16 19  1  6  0  0  0
 16 27  1  0  0  0  0
 17 25  1  0  0  0  0
 18 22  1  0  0  0  0
 18 10  1  0  0  0  0
 21 23  1  0  0  0  0
 21 24  1  0  0  0  0
 22  4  1  0  0  0  0
 23  5  3  0  0  0  0
 24 14  1  0  0  0  0
 25  9  1  0  0  0  0
 25  6  1  0  0  0  0
 26 10  1  0  0  0  0
 27  7  1  0  0  0  0
 28 30  2  0  0  0  0
 29 30  2  0  0  0  0
 30 11  1  0  0  0  0
M  END
>  <MODEL>
5

>  <REMARK>
 VINA RESULT:      -8.1      3.320      4.775
  Name = 
  1 active torsions:
  status: ('A' for Active; 'I' for Inactive)
    1  A    between atoms: C_13  and  N_26
                            x       y       z     vdW  Elec       q    Type
                         _______ _______ _______ _____ _____    ______ ____

>  <TORSDO>
F 1

$$$$
=
 OpenBabel11062419453D

 30 34  0  0  1  0  0  0  0  0999 V2000
  187.3450  176.4840  143.2020 C   0  0  2  0  0  3  0  0  0  0  0  0
  186.3110  176.9070  146.0320 O   0  0  0  0  0  0  0  0  0  0  0  0
  188.8230  174.6310  140.3690 C   0  0  0  0  0  0  0  0  0  0  0  0
  185.9100  179.9670  144.0980 C   0  0  0  0  0  2  0  0  0  0  0  0
  185.9020  179.3040  142.7880 C   0  0  0  0  0  0  0  0  0  0  0  0
  190.9020  176.3390  143.9140 C   0  0  1  0  0  3  0  0  0  0  0  0
  191.7670  175.7250  145.0240 C   0  0  0  0  0  2  0  0  0  0  0  0
  190.0800  173.4220  140.1680 Cl  0  0  0  0  0  0  0  0  0  0  0  0
  189.4430  177.0420  145.9010 C   0  0  0  0  0  2  0  0  0  0  0  0
  185.6680  176.9420  144.9500 C   0  0  0  0  0  0  0  0  0  0  0  0
  187.1090  176.0430  139.3550 C   0  0  0  0  0  0  0  0  0  0  0  0
  188.1250  175.0780  139.2490 C   0  0  0  0  0  3  0  0  0  0  0  0
  188.5000  175.1610  141.6200 C   0  0  0  0  0  0  0  0  0  0  0  0
  187.4760  176.0740  141.7680 C   0  0  0  0  0  0  0  0  0  0  0  0
  189.2040  174.8780  142.8990 C   0  0  2  0  0  3  0  0  0  0  0  0
  189.9290  175.8470  146.7410 C   0  0  1  0  0  3  0  0  0  0  0  0
  188.5060  175.7820  143.9190 C   0  0  1  0  0  3  0  0  0  0  0  0
  184.6490  177.9220  144.7540 N   0  0  0  0  0  2  0  0  0  0  0  0
  188.7500  175.0330  147.2300 C   0  0  0  0  0  1  0  0  0  0  0  0
  190.6580  175.3240  142.8170 C   0  0  0  0  0  2  0  0  0  0  0  0
  185.6940  177.6330  140.7250 C   0  0  0  0  0  2  0  0  0  0  0  0
  184.8630  179.3410  145.0370 C   0  0  0  0  0  2  0  0  0  0  0  0
  185.8430  178.6060  141.8090 C   0  0  0  0  0  0  0  0  0  0  0  0
  186.7860  176.5880  140.6330 C   0  0  0  0  0  0  0  0  0  0  0  0
  189.5220  176.8100  144.3860 C   0  0  2  0  0  3  0  0  0  0  0  0
  186.0290  176.0250  143.8250 C   0  0  0  0  0  2  0  0  0  0  0  0
  190.9170  174.9330  146.0110 C   0  0  0  0  0  2  0  0  0  0  0  0
  187.1820  176.9100  137.0800 O   0  0  0  0  0  0  0  0  0  0  0  0
  185.2200  176.2470  137.9770 O   0  0  0  0  0  0  0  0  0  0  0  0
  186.4410  176.4500  138.1440 N   0  0  0  0  0  0  0  0  0  0  0  0
  1 26  1  1  0  0  0
  1 17  1  0  0  0  0
  3 13  1  0  0  0  0
  4 22  1  0  0  0  0
  5  4  1  0  0  0  0
  6 20  1  6  0  0  0
  6 25  1  0  0  0  0
  6  7  1  0  0  0  0
  7 27  1  0  0  0  0
  8  3  1  0  0  0  0
  9 16  1  0  0  0  0
 10  2  2  0  0  0  0
 11 24  2  0  0  0  0
 12 11  1  0  0  0  0
 12  3  2  0  0  0  0
 13 14  2  0  0  0  0
 13 15  1  0  0  0  0
 14  1  1  0  0  0  0
 15 20  1  6  0  0  0
 15 17  1  0  0  0  0
 16 19  1  6  0  0  0
 17 25  1  0  0  0  0
 18 10  1  0  0  0  0
 18 22  1  0  0  0  0
 21 23  1  0  0  0  0
 23  5  3  0  0  0  0
 24 21  1  0  0  0  0
 24 14  1  0  0  0  0
 25  9  1  0  0  0  0
 26 10  1  0  0  0  0
 27 16  1  0  0  0  0
 28 30  2  0  0  0  0
 29 30  2  0  0  0  0
 30 11  1  0  0  0  0
M  END
>  <MODEL>
6

>  <REMARK>
 VINA RESULT:      -7.8      2.667      4.971
  Name = 
  1 active torsions:
  status: ('A' for Active; 'I' for Inactive)
    1  A    between atoms: C_13  and  N_26
                            x       y       z     vdW  Elec       q    Type
                         _______ _______ _______ _____ _____    ______ ____

>  <TORSDO>
F 1

$$$$
=
 OpenBabel11062419453D

 30 34  0  0  1  0  0  0  0  0999 V2000
  191.1380  174.8720  143.5340 C   0  0  2  0  0  3  0  0  0  0  0  0
  191.2390  175.3910  146.5300 O   0  0  0  0  0  0  0  0  0  0  0  0
  192.0490  173.2710  140.3320 C   0  0  0  0  0  0  0  0  0  0  0  0
  188.7370  177.5410  144.9860 C   0  0  0  0  0  2  0  0  0  0  0  0
  188.5200  176.6830  143.8150 C   0  0  0  0  0  0  0  0  0  0  0  0
  194.3050  176.3730  142.5910 C   0  0  1  0  0  3  0  0  0  0  0  0
  195.7150  176.4160  143.1980 C   0  0  0  0  0  2  0  0  0  0  0  0
  193.5280  172.6840  139.5900 Cl  0  0  0  0  0  0  0  0  0  0  0  0
  193.6080  176.7910  145.0210 C   0  0  0  0  0  2  0  0  0  0  0  0
  190.2850  174.9340  145.8470 C   0  0  0  0  0  0  0  0  0  0  0  0
  189.6340  173.6010  140.1910 C   0  0  0  0  0  0  0  0  0  0  0  0
  190.8460  173.1480  139.6410 C   0  0  0  0  0  3  0  0  0  0  0  0
  192.0410  173.8610  141.5990 C   0  0  0  0  0  0  0  0  0  0  0  0
  190.8650  174.2720  142.1900 C   0  0  0  0  0  0  0  0  0  0  0  0
  193.2360  174.1640  142.4310 C   0  0  2  0  0  3  0  0  0  0  0  0
  194.8800  176.1060  145.5530 C   0  0  1  0  0  3  0  0  0  0  0  0
  192.6660  174.8800  143.6580 C   0  0  1  0  0  3  0  0  0  0  0  0
  188.9450  175.3370  146.1280 N   0  0  0  0  0  2  0  0  0  0  0  0
  194.5160  174.9930  146.5130 C   0  0  0  0  0  1  0  0  0  0  0  0
  194.1490  175.1490  141.7120 C   0  0  0  0  0  2  0  0  0  0  0  0
  188.3160  174.6970  142.0530 C   0  0  0  0  0  2  0  0  0  0  0  0
  188.5680  176.7400  146.2910 C   0  0  0  0  0  2  0  0  0  0  0  0
  188.4110  175.8410  142.9610 C   0  0  0  0  0  0  0  0  0  0  0  0
  189.6300  174.2090  141.4810 C   0  0  0  0  0  0  0  0  0  0  0  0
  193.1790  176.3110  143.6280 C   0  0  2  0  0  3  0  0  0  0  0  0
  190.5530  174.0430  144.6750 C   0  0  0  0  0  2  0  0  0  0  0  0
  195.7980  175.5610  144.4570 C   0  0  0  0  0  2  0  0  0  0  0  0
  188.0630  174.4210  138.5210 O   0  0  0  0  0  0  0  0  0  0  0  0
  187.8160  172.3520  139.3880 O   0  0  0  0  0  0  0  0  0  0  0  0
  188.4370  173.4350  139.4040 N   0  0  0  0  0  0  0  0  0  0  0  0
  1 17  1  0  0  0  0
  1 26  1  1  0  0  0
  3 13  1  0  0  0  0
  4 22  1  0  0  0  0
  5  4  1  0  0  0  0
  6 20  1  6  0  0  0
  6  7  1  0  0  0  0
  6 25  1  0  0  0  0
  7 27  1  0  0  0  0
  8  3  1  0  0  0  0
  9 16  1  0  0  0  0
 10 18  1  0  0  0  0
 10  2  2  0  0  0  0
 11 24  2  0  0  0  0
 12 11  1  0  0  0  0
 12  3  2  0  0  0  0
 13 14  2  0  0  0  0
 13 15  1  0  0  0  0
 14  1  1  0  0  0  0
 15 20  1  6  0  0  0
 15 17  1  0  0  0  0
 16 19  1  1  0  0  0
 18 22  1  0  0  0  0
 21 23  1  0  0  0  0
 23  5  3  0  0  0  0
 24 21  1  0  0  0  0
 24 14  1  0  0  0  0
 25 17  1  0  0  0  0
 25  9  1  0  0  0  0
 26 10  1  0  0  0  0
 27 16  1  0  0  0  0
 28 30  2  0  0  0  0
 29 30  2  0  0  0  0
 30 11  1  0  0  0  0
M  END
>  <MODEL>
7

>  <REMARK>
 VINA RESULT:      -7.8      3.500      6.391
  Name = 
  1 active torsions:
  status: ('A' for Active; 'I' for Inactive)
    1  A    between atoms: C_13  and  N_26
                            x       y       z     vdW  Elec       q    Type
                         _______ _______ _______ _____ _____    ______ ____

>  <TORSDO>
F 1

$$$$
=
 OpenBabel11062419453D

 30 34  0  0  1  0  0  0  0  0999 V2000
  189.7410  175.6000  143.1080 C   0  0  2  0  0  3  0  0  0  0  0  0
  187.5720  176.3810  141.1220 O   0  0  0  0  0  0  0  0  0  0  0  0
  193.1000  174.5470  144.2270 C   0  0  0  0  0  0  0  0  0  0  0  0
  186.2630  176.5540  144.5170 C   0  0  0  0  0  2  0  0  0  0  0  0
  187.5700  176.7300  145.1610 C   0  0  0  0  0  0  0  0  0  0  0  0
  189.9060  172.0440  142.3980 C   0  0  1  0  0  3  0  0  0  0  0  0
  189.8420  171.1820  141.1290 C   0  0  0  0  0  2  0  0  0  0  0  0
  194.3430  173.4560  143.6380 Cl  0  0  0  0  0  0  0  0  0  0  0  0
  187.9650  173.2710  141.2600 C   0  0  0  0  0  2  0  0  0  0  0  0
  188.1060  177.0880  142.0170 C   0  0  0  0  0  0  0  0  0  0  0  0
  192.3630  176.1500  145.9140 C   0  0  0  0  0  0  0  0  0  0  0  0
  193.3250  175.2630  145.4000 C   0  0  0  0  0  3  0  0  0  0  0  0
  191.8880  174.7190  143.5540 C   0  0  0  0  0  0  0  0  0  0  0  0
  190.9410  175.6170  144.0020 C   0  0  0  0  0  0  0  0  0  0  0  0
  191.4390  173.9670  142.3530 C   0  0  2  0  0  3  0  0  0  0  0  0
  188.4700  172.8700  139.8620 C   0  0  1  0  0  3  0  0  0  0  0  0
  190.0210  174.4820  142.0950 C   0  0  1  0  0  3  0  0  0  0  0  0
  187.3130  177.9970  142.7800 N   0  0  0  0  0  2  0  0  0  0  0  0
  188.6600  174.1000  138.9990 C   0  0  0  0  0  1  0  0  0  0  0  0
  191.3320  172.4790  142.6650 C   0  0  0  0  0  2  0  0  0  0  0  0
  190.0970  177.2730  145.8030 C   0  0  0  0  0  2  0  0  0  0  0  0
  186.0530  177.6000  143.4070 C   0  0  0  0  0  2  0  0  0  0  0  0
  188.7000  176.9370  145.5220 C   0  0  0  0  0  0  0  0  0  0  0  0
  191.1230  176.3180  145.2290 C   0  0  0  0  0  0  0  0  0  0  0  0
  189.0660  173.3230  142.3270 C   0  0  2  0  0  3  0  0  0  0  0  0
  189.5530  176.9150  142.3550 C   0  0  0  0  0  2  0  0  0  0  0  0
  189.7600  172.0480  139.8770 C   0  0  0  0  0  2  0  0  0  0  0  0
  191.8110  176.7810  148.2010 O   0  0  0  0  0  0  0  0  0  0  0  0
  193.7940  177.3830  147.3070 O   0  0  0  0  0  0  0  0  0  0  0  0
  192.6780  176.8480  147.1350 N   0  0  0  0  0  0  0  0  0  0  0  0
  1 26  1  6  0  0  0
  1 14  1  0  0  0  0
  2 10  2  0  0  0  0
  3 12  1  0  0  0  0
  4  5  1  0  0  0  0
  5 23  3  0  0  0  0
  6  7  1  6  0  0  0
  6 20  1  0  0  0  0
  8  3  1  0  0  0  0
  9 25  1  0  0  0  0
 10 26  1  0  0  0  0
 10 18  1  0  0  0  0
 11 30  1  0  0  0  0
 12 11  2  0  0  0  0
 13 14  1  0  0  0  0
 13  3  2  0  0  0  0
 14 24  2  0  0  0  0
 15 20  1  1  0  0  0
 15 13  1  0  0  0  0
 16 19  1  6  0  0  0
 16 27  1  0  0  0  0
 16  9  1  0  0  0  0
 17 25  1  0  0  0  0
 17 15  1  0  0  0  0
 17  1  1  0  0  0  0
 18 22  1  0  0  0  0
 22  4  1  0  0  0  0
 23 21  1  0  0  0  0
 24 21  1  0  0  0  0
 24 11  1  0  0  0  0
 25  6  1  0  0  0  0
 27  7  1  0  0  0  0
 30 29  2  0  0  0  0
 30 28  2  0  0  0  0
M  END
>  <MODEL>
8

>  <REMARK>
 VINA RESULT:      -7.7      3.118      7.414
  Name = 
  1 active torsions:
  status: ('A' for Active; 'I' for Inactive)
    1  A    between atoms: C_13  and  N_26
                            x       y       z     vdW  Elec       q    Type
                         _______ _______ _______ _____ _____    ______ ____

>  <TORSDO>
F 1

$$$$
=
 OpenBabel11062419453D

 30 34  0  0  1  0  0  0  0  0999 V2000
  191.9700  175.3780  143.5470 C   0  0  2  0  0  3  0  0  0  0  0  0
  189.2660  176.1440  144.7130 O   0  0  0  0  0  0  0  0  0  0  0  0
  194.5150  174.8780  140.9170 C   0  0  0  0  0  0  0  0  0  0  0  0
  191.5000  175.0590  147.3770 C   0  0  0  0  0  2  0  0  0  0  0  0
  192.7400  175.3530  146.6470 C   0  0  0  0  0  0  0  0  0  0  0  0
  191.0170  172.2990  141.8760 C   0  0  1  0  0  3  0  0  0  0  0  0
  189.8000  171.8320  141.0650 C   0  0  0  0  0  2  0  0  0  0  0  0
  194.5190  174.3170  139.2530 Cl  0  0  0  0  0  0  0  0  0  0  0  0
  189.2040  173.3000  143.3870 C   0  0  0  0  0  2  0  0  0  0  0  0
  190.3870  176.6820  144.9150 C   0  0  0  0  0  0  0  0  0  0  0  0
  195.7670  175.7330  142.8310 C   0  0  0  0  0  0  0  0  0  0  0  0
  195.7150  175.2750  141.5030 C   0  0  0  0  0  3  0  0  0  0  0  0
  193.3430  174.9390  141.6740 C   0  0  0  0  0  0  0  0  0  0  0  0
  193.3480  175.4300  142.9630 C   0  0  0  0  0  0  0  0  0  0  0  0
  192.0000  174.4650  141.2470 C   0  0  2  0  0  3  0  0  0  0  0  0
  188.2260  173.4320  142.2060 C   0  0  1  0  0  3  0  0  0  0  0  0
  191.1170  174.6830  142.4790 C   0  0  1  0  0  3  0  0  0  0  0  0
  190.7400  177.1310  146.2230 N   0  0  0  0  0  2  0  0  0  0  0  0
  187.7410  174.8610  142.0810 C   0  0  0  0  0  1  0  0  0  0  0  0
  192.0280  172.9670  140.9670 C   0  0  0  0  0  2  0  0  0  0  0  0
  194.6470  176.2760  145.0350 C   0  0  0  0  0  2  0  0  0  0  0  0
  190.5770  176.2910  147.4090 C   0  0  0  0  0  2  0  0  0  0  0  0
  193.6520  175.7120  145.9470 C   0  0  0  0  0  0  0  0  0  0  0  0
  194.5690  175.7870  143.6040 C   0  0  0  0  0  0  0  0  0  0  0  0
  190.6830  173.3140  142.9750 C   0  0  2  0  0  3  0  0  0  0  0  0
  191.3950  176.7670  143.8130 C   0  0  0  0  0  2  0  0  0  0  0  0
  188.8010  172.9660  140.8660 C   0  0  0  0  0  2  0  0  0  0  0  0
  197.9150  175.1550  143.8210 O   0  0  0  0  0  0  0  0  0  0  0  0
  197.4670  177.2940  143.2580 O   0  0  0  0  0  0  0  0  0  0  0  0
  197.0520  176.1200  143.3570 N   0  0  0  0  0  0  0  0  0  0  0  0
  1 26  1  6  0  0  0
  2 10  2  0  0  0  0
  3 12  2  0  0  0  0
  3 13  1  0  0  0  0
  4 22  1  0  0  0  0
  5  4  1  0  0  0  0
  6 20  1  6  0  0  0
  6 25  1  0  0  0  0
  7  6  1  0  0  0  0
  8  3  1  0  0  0  0
 10 18  1  0  0  0  0
 11 30  1  0  0  0  0
 11 24  2  0  0  0  0
 12 11  1  0  0  0  0
 13 14  2  0  0  0  0
 14  1  1  0  0  0  0
 14 24  1  0  0  0  0
 15 20  1  1  0  0  0
 15 13  1  0  0  0  0
 15 17  1  0  0  0  0
 16 19  1  6  0  0  0
 16  9  1  0  0  0  0
 17 25  1  0  0  0  0
 17  1  1  0  0  0  0
 18 22  1  0  0  0  0
 21 23  1  0  0  0  0
 23  5  3  0  0  0  0
 24 21  1  0  0  0  0
 25  9  1  0  0  0  0
 26 10  1  0  0  0  0
 27  7  1  0  0  0  0
 27 16  1  0  0  0  0
 29 30  2  0  0  0  0
 30 28  2  0  0  0  0
M  END
>  <MODEL>
9

>  <REMARK>
 VINA RESULT:      -7.7      4.322      7.284
  Name = 
  1 active torsions:
  status: ('A' for Active; 'I' for Inactive)
    1  A    between atoms: C_13  and  N_26
                            x       y       z     vdW  Elec       q    Type
                         _______ _______ _______ _____ _____    ______ ____

>  <TORSDO>
F 1

$$$$
