=
 OpenBabel11062419303D

 40 43  0  0  1  0  0  0  0  0999 V2000
  191.7560  174.0480  143.5660 C   0  0  2  0  0  3  0  0  0  0  0  0
  185.1470  178.1500  147.3710 C   0  0  0  0  0  2  0  0  0  0  0  0
  190.8310  176.0600  142.3790 C   0  0  0  0  0  2  0  0  0  0  0  0
  185.6310  178.0000  146.1460 C   0  0  0  0  0  0  0  0  0  0  0  0
  184.5220  178.2540  142.4590 C   0  0  0  0  0  0  0  0  0  0  0  0
  185.4110  178.2530  143.6750 C   0  0  2  0  0  3  0  0  0  0  0  0
  188.7180  175.1600  143.3160 N   0  0  0  0  0  0  0  0  0  0  0  0
  187.5470  177.5320  144.5890 N   0  0  0  0  0  2  0  0  0  0  0  0
  187.8980  177.8070  146.8750 O   0  0  0  0  0  0  0  0  0  0  0  0
  185.0850  178.0910  141.2590 C   0  0  0  0  0  3  0  0  0  0  0  0
  189.3450  176.0780  142.6280 C   0  0  0  0  0  0  0  0  0  0  0  0
  189.2960  174.0850  144.1260 C   0  0  0  0  0  2  0  0  0  0  0  0
  191.6450  175.5760  143.5680 C   0  0  0  0  0  2  0  0  0  0  0  0
  190.4050  173.3530  143.3830 C   0  0  0  0  0  2  0  0  0  0  0  0
  188.5850  177.0470  141.8970 N   0  0  0  0  0  2  0  0  0  0  0  0
  187.0770  177.7670  145.9210 C   0  0  0  0  0  0  0  0  0  0  0  0
  187.2200  177.4100  142.1430 C   0  0  0  0  0  0  0  0  0  0  0  0
  186.4780  177.7600  141.1320 N   0  0  0  0  0  0  0  0  0  0  0  0
  186.5900  177.2830  143.5150 C   0  0  2  0  0  3  0  0  0  0  0  0
  184.6790  177.9450  144.9840 C   0  0  0  0  0  2  0  0  0  0  0  0
  183.0840  178.6590  142.5380 C   0  0  0  0  0  2  0  0  0  0  0  0
  182.3090  178.2050  141.3050 C   0  0  0  0  0  2  0  0  0  0  0  0
  180.8060  178.2000  141.5540 C   0  0  0  0  0  2  0  0  0  0  0  0
  180.3580  180.3980  140.4640 O   0  0  0  0  0  1  0  0  0  0  0  0
  179.2810  178.5070  139.7470 O   0  0  0  0  0  0  0  0  0  0  0  0
  180.0970  179.0370  140.5450 C   0  0  0  0  0  0  0  0  0  0  0  0
  192.4140  173.5670  144.8490 C   0  0  0  0  0  2  0  0  0  0  0  0
  192.8620  174.7500  145.6910 C   0  0  0  0  0  2  0  0  0  0  0  0
  194.3070  174.6990  145.8890 N   0  0  0  0  0  0  0  0  0  0  0  0
  196.1780  173.6300  144.6590 C   0  0  0  0  0  0  0  0  0  0  0  0
  196.3290  172.8030  145.5960 O   0  0  0  0  0  0  0  0  0  0  0  0
  197.0710  174.6240  142.6090 C   0  0  0  0  0  0  0  0  0  0  0  0
  197.1540  173.7050  143.6590 O   0  0  0  0  0  0  0  0  0  0  0  0
  194.9340  174.4930  144.5690 C   0  0  2  0  0  3  0  0  0  0  0  0
  195.9190  175.5840  142.5270 C   0  0  2  0  0  3  0  0  0  0  0  0
  197.9410  174.6020  141.6990 O   0  0  0  0  0  0  0  0  0  0  0  0
  196.3430  176.8020  141.9940 O   0  0  0  0  0  1  0  0  0  0  0  0
  195.3370  175.8210  143.9150 C   0  0  0  0  0  2  0  0  0  0  0  0
  193.4320  176.6950  146.9730 C   0  0  0  0  0  1  0  0  0  0  0  0
  194.6620  176.0200  146.3990 C   0  0  0  0  0  2  0  0  0  0  0  0
  1 13  1  0  0  0  0
  1 27  1  1  0  0  0
  3 11  1  0  0  0  0
  3 13  1  0  0  0  0
  4  2  2  0  0  0  0
  5 21  1  0  0  0  0
  5  6  1  0  0  0  0
  6 20  1  1  0  0  0
  7 12  1  0  0  0  0
  8 16  1  0  0  0  0
 10  5  2  0  0  0  0
 11  7  2  0  0  0  0
 14  1  1  0  0  0  0
 14 12  1  0  0  0  0
 15 17  1  0  0  0  0
 15 11  1  0  0  0  0
 16  4  1  0  0  0  0
 16  9  2  0  0  0  0
 18 10  1  0  0  0  0
 18 17  2  0  0  0  0
 19 17  1  6  0  0  0
 19  6  1  0  0  0  0
 19  8  1  0  0  0  0
 20  4  1  0  0  0  0
 22 23  1  0  0  0  0
 22 21  1  0  0  0  0
 24 26  1  0  0  0  0
 25 26  2  0  0  0  0
 26 23  1  0  0  0  0
 27 28  1  0  0  0  0
 28 29  1  0  0  0  0
 29 40  1  0  0  0  0
 30 31  2  0  0  0  0
 32 33  1  0  0  0  0
 33 30  1  0  0  0  0
 34 30  1  0  0  0  0
 34 29  1  1  0  0  0
 35 37  1  1  0  0  0
 35 32  1  0  0  0  0
 35 38  1  0  0  0  0
 36 32  2  0  0  0  0
 38 34  1  0  0  0  0
 40 39  1  0  0  0  0
M  END
>  <MODEL>
1

>  <REMARK>
 VINA RESULT:      -7.7      0.000      0.000
  Name = 
  9 active torsions:
  status: ('A' for Active; 'I' for Inactive)
    1  A    between atoms: C_2  and  C_25
    2  A    between atoms: C_10  and  C_35
    3  A    between atoms: C_10  and  C_39
    4  A    between atoms: C_11  and  N_36
    5  A    between atoms: C_14  and  C_16
    6  A    between atoms: C_16  and  C_39
    7  A    between atoms: C_24  and  N_36
    8  A    between atoms: C_25  and  C_31
    9  A    between atoms: C_31  and  N_36
                            x       y       z     vdW  Elec       q    Type
                         _______ _______ _______ _____ _____    ______ ____

>  <TORSDO>
F 9

$$$$
=
 OpenBabel11062419303D

 40 43  0  0  1  0  0  0  0  0999 V2000
  191.5000  171.2040  142.0020 C   0  0  2  0  0  3  0  0  0  0  0  0
  189.5870  177.7770  147.3070 C   0  0  0  0  0  2  0  0  0  0  0  0
  190.9170  173.4000  140.9280 C   0  0  0  0  0  2  0  0  0  0  0  0
  189.3220  177.4170  146.0580 C   0  0  0  0  0  0  0  0  0  0  0  0
  186.7370  178.0570  143.2650 C   0  0  0  0  0  0  0  0  0  0  0  0
  188.0360  177.7000  143.9400 C   0  0  2  0  0  3  0  0  0  0  0  0
  189.3660  173.4930  142.8630 N   0  0  0  0  0  0  0  0  0  0  0  0
  189.9160  176.1570  143.9670 N   0  0  0  0  0  2  0  0  0  0  0  0
  191.4070  176.2930  145.7510 O   0  0  0  0  0  0  0  0  0  0  0  0
  186.5420  177.6540  142.0070 C   0  0  0  0  0  3  0  0  0  0  0  0
  189.8630  174.0490  141.7890 C   0  0  0  0  0  0  0  0  0  0  0  0
  189.8310  172.2870  143.5530 C   0  0  0  0  0  2  0  0  0  0  0  0
  191.9670  172.6360  141.7190 C   0  0  0  0  0  2  0  0  0  0  0  0
  190.0840  171.1430  142.5820 C   0  0  0  0  0  2  0  0  0  0  0  0
  189.2550  175.2370  141.2690 N   0  0  0  0  0  2  0  0  0  0  0  0
  190.2770  176.5900  145.2830 C   0  0  0  0  0  0  0  0  0  0  0  0
  188.4220  176.1470  142.0000 C   0  0  0  0  0  0  0  0  0  0  0  0
  187.4670  176.7620  141.3620 N   0  0  0  0  0  0  0  0  0  0  0  0
  188.5430  176.3200  143.4990 C   0  0  2  0  0  3  0  0  0  0  0  0
  187.9790  177.7510  145.4700 C   0  0  0  0  0  2  0  0  0  0  0  0
  185.7800  179.0340  143.8720 C   0  0  0  0  0  2  0  0  0  0  0  0
  184.4490  178.3710  144.2110 C   0  0  0  0  0  2  0  0  0  0  0  0
  183.9430  178.7920  145.5850 C   0  0  0  0  0  2  0  0  0  0  0  0
  184.8070  176.6490  146.5230 O   0  0  0  0  0  0  0  0  0  0  0  0
  185.0520  178.6060  147.6880 O   0  0  0  0  0  1  0  0  0  0  0  0
  184.6220  178.0170  146.6620 C   0  0  0  0  0  0  0  0  0  0  0  0
  192.4720  170.5100  142.9410 C   0  0  0  0  0  2  0  0  0  0  0  0
  192.7580  171.3860  144.1500 C   0  0  0  0  0  2  0  0  0  0  0  0
  194.1890  171.6580  144.2380 N   0  0  0  0  0  0  0  0  0  0  0  0
  195.6330  173.3180  143.0890 C   0  0  0  0  0  0  0  0  0  0  0  0
  196.0880  172.4120  142.3410 O   0  0  0  0  0  0  0  0  0  0  0  0
  195.8310  175.6100  143.9230 C   0  0  0  0  0  0  0  0  0  0  0  0
  196.2570  174.5700  143.0920 O   0  0  0  0  0  0  0  0  0  0  0  0
  194.3930  173.0880  143.9320 C   0  0  2  0  0  3  0  0  0  0  0  0
  194.6780  175.4070  144.8650 C   0  0  2  0  0  3  0  0  0  0  0  0
  196.3840  176.7370  143.8350 O   0  0  0  0  0  0  0  0  0  0  0  0
  194.8810  176.1330  146.0390 O   0  0  0  0  0  1  0  0  0  0  0  0
  194.5360  173.9300  145.2070 C   0  0  0  0  0  2  0  0  0  0  0  0
  195.6640  170.3950  145.7040 C   0  0  0  0  0  1  0  0  0  0  0  0
  194.5330  171.4020  145.6330 C   0  0  0  0  0  2  0  0  0  0  0  0
  1 14  1  0  0  0  0
  1 27  1  1  0  0  0
  3 13  1  0  0  0  0
  3 11  1  0  0  0  0
  4  2  2  0  0  0  0
  5 21  1  0  0  0  0
  5  6  1  0  0  0  0
  6 20  1  1  0  0  0
  7 12  1  0  0  0  0
  8 16  1  0  0  0  0
 10  5  2  0  0  0  0
 11  7  2  0  0  0  0
 13  1  1  0  0  0  0
 14 12  1  0  0  0  0
 15 11  1  0  0  0  0
 15 17  1  0  0  0  0
 16  9  2  0  0  0  0
 16  4  1  0  0  0  0
 18 17  2  0  0  0  0
 18 10  1  0  0  0  0
 19 17  1  6  0  0  0
 19  6  1  0  0  0  0
 19  8  1  0  0  0  0
 20  4  1  0  0  0  0
 21 22  1  0  0  0  0
 22 23  1  0  0  0  0
 23 26  1  0  0  0  0
 24 26  2  0  0  0  0
 26 25  1  0  0  0  0
 27 28  1  0  0  0  0
 28 29  1  0  0  0  0
 29 40  1  0  0  0  0
 30 33  1  0  0  0  0
 30 34  1  0  0  0  0
 31 30  2  0  0  0  0
 32 35  1  0  0  0  0
 33 32  1  0  0  0  0
 34 29  1  1  0  0  0
 34 38  1  0  0  0  0
 35 38  1  0  0  0  0
 35 37  1  1  0  0  0
 36 32  2  0  0  0  0
 40 39  1  0  0  0  0
M  END
>  <MODEL>
2

>  <REMARK>
 VINA RESULT:      -7.7      2.918      3.898
  Name = 
  9 active torsions:
  status: ('A' for Active; 'I' for Inactive)
    1  A    between atoms: C_2  and  C_25
    2  A    between atoms: C_10  and  C_35
    3  A    between atoms: C_10  and  C_39
    4  A    between atoms: C_11  and  N_36
    5  A    between atoms: C_14  and  C_16
    6  A    between atoms: C_16  and  C_39
    7  A    between atoms: C_24  and  N_36
    8  A    between atoms: C_25  and  C_31
    9  A    between atoms: C_31  and  N_36
                            x       y       z     vdW  Elec       q    Type
                         _______ _______ _______ _____ _____    ______ ____

>  <TORSDO>
F 9

$$$$
=
 OpenBabel11062419303D

 40 43  0  0  1  0  0  0  0  0999 V2000
  188.7600  176.0880  146.4710 C   0  0  2  0  0  3  0  0  0  0  0  0
  193.9480  172.7740  140.3810 C   0  0  0  0  0  2  0  0  0  0  0  0
  191.1510  176.8610  146.4700 C   0  0  0  0  0  2  0  0  0  0  0  0
  194.0720  173.3050  141.5900 C   0  0  0  0  0  0  0  0  0  0  0  0
  196.5240  173.3780  144.5690 C   0  0  0  0  0  0  0  0  0  0  0  0
  195.4370  173.8040  143.6160 C   0  0  2  0  0  3  0  0  0  0  0  0
  191.5080  174.5030  145.7840 N   0  0  0  0  0  0  0  0  0  0  0  0
  193.2260  174.8010  143.4230 N   0  0  0  0  0  2  0  0  0  0  0  0
  192.1980  174.7640  141.3340 O   0  0  0  0  0  0  0  0  0  0  0  0
  196.5790  173.9560  145.7720 C   0  0  0  0  0  3  0  0  0  0  0  0
  191.9970  175.6870  146.0490 C   0  0  0  0  0  0  0  0  0  0  0  0
  190.1020  174.1190  145.6420 C   0  0  0  0  0  2  0  0  0  0  0  0
  189.8120  176.9390  145.7530 C   0  0  0  0  0  2  0  0  0  0  0  0
  189.2480  174.6690  146.7750 C   0  0  0  0  0  2  0  0  0  0  0  0
  193.4160  175.8530  146.1470 N   0  0  0  0  0  2  0  0  0  0  0  0
  193.1030  174.3120  142.0840 C   0  0  0  0  0  0  0  0  0  0  0  0
  194.4080  174.9830  145.5860 C   0  0  0  0  0  0  0  0  0  0  0  0
  195.5380  174.8410  146.2170 N   0  0  0  0  0  0  0  0  0  0  0  0
  194.1350  174.1410  144.3560 C   0  0  2  0  0  3  0  0  0  0  0  0
  195.1400  172.7860  142.5120 C   0  0  0  0  0  2  0  0  0  0  0  0
  197.6610  172.5130  144.1250 C   0  0  0  0  0  2  0  0  0  0  0  0
  197.7790  171.2620  144.9900 C   0  0  0  0  0  2  0  0  0  0  0  0
  196.6180  170.3030  144.7560 C   0  0  0  0  0  2  0  0  0  0  0  0
  194.4880  170.6890  145.9950 O   0  0  0  0  0  0  0  0  0  0  0  0
  196.2270  169.5830  146.9960 O   0  0  0  0  0  1  0  0  0  0  0  0
  195.7780  170.1770  145.9810 C   0  0  0  0  0  0  0  0  0  0  0  0
  187.4820  176.0290  145.6510 C   0  0  0  0  0  2  0  0  0  0  0  0
  186.4530  177.0010  146.2040 C   0  0  0  0  0  2  0  0  0  0  0  0
  186.4070  178.2010  145.3760 N   0  0  0  0  0  0  0  0  0  0  0  0
  186.7140  178.2130  142.9120 C   0  0  0  0  0  0  0  0  0  0  0  0
  187.9580  178.3350  143.0630 O   0  0  0  0  0  0  0  0  0  0  0  0
  184.7910  178.3030  141.4020 C   0  0  0  0  0  0  0  0  0  0  0  0
  186.1660  178.3860  141.6370 O   0  0  0  0  0  0  0  0  0  0  0  0
  185.8200  177.8250  144.0740 C   0  0  2  0  0  3  0  0  0  0  0  0
  183.8410  178.0330  142.5340 C   0  0  2  0  0  3  0  0  0  0  0  0
  184.3590  178.3980  140.2240 O   0  0  0  0  0  0  0  0  0  0  0  0
  182.6400  178.7130  142.3280 O   0  0  0  0  0  1  0  0  0  0  0  0
  184.4550  178.4900  143.8510 C   0  0  0  0  0  2  0  0  0  0  0  0
  185.9440  179.2530  147.5200 C   0  0  0  0  0  1  0  0  0  0  0  0
  185.5040  179.1070  146.0770 C   0  0  0  0  0  2  0  0  0  0  0  0
  1 27  1  6  0  0  0
  1 14  1  0  0  0  0
  2  4  2  0  0  0  0
  4 16  1  0  0  0  0
  4 20  1  0  0  0  0
  5 10  2  0  0  0  0
  6 20  1  6  0  0  0
  6 19  1  0  0  0  0
  6  5  1  0  0  0  0
  7 11  2  0  0  0  0
  9 16  2  0  0  0  0
 10 18  1  0  0  0  0
 11 15  1  0  0  0  0
 11  3  1  0  0  0  0
 12  7  1  0  0  0  0
 12 14  1  0  0  0  0
 13  3  1  0  0  0  0
 13  1  1  0  0  0  0
 16  8  1  0  0  0  0
 17 15  1  0  0  0  0
 17 18  2  0  0  0  0
 19  8  1  6  0  0  0
 19 17  1  0  0  0  0
 21  5  1  0  0  0  0
 21 22  1  0  0  0  0
 23 22  1  0  0  0  0
 23 26  1  0  0  0  0
 26 24  2  0  0  0  0
 26 25  1  0  0  0  0
 27 28  1  0  0  0  0
 29 40  1  0  0  0  0
 29 28  1  0  0  0  0
 30 31  2  0  0  0  0
 30 34  1  0  0  0  0
 32 33  1  0  0  0  0
 32 35  1  0  0  0  0
 33 30  1  0  0  0  0
 34 29  1  1  0  0  0
 35 37  1  6  0  0  0
 35 38  1  0  0  0  0
 36 32  2  0  0  0  0
 38 34  1  0  0  0  0
 40 39  1  0  0  0  0
M  END
>  <MODEL>
3

>  <REMARK>
 VINA RESULT:      -7.6      2.694     11.195
  Name = 
  9 active torsions:
  status: ('A' for Active; 'I' for Inactive)
    1  A    between atoms: C_2  and  C_25
    2  A    between atoms: C_10  and  C_35
    3  A    between atoms: C_10  and  C_39
    4  A    between atoms: C_11  and  N_36
    5  A    between atoms: C_14  and  C_16
    6  A    between atoms: C_16  and  C_39
    7  A    between atoms: C_24  and  N_36
    8  A    between atoms: C_25  and  C_31
    9  A    between atoms: C_31  and  N_36
                            x       y       z     vdW  Elec       q    Type
                         _______ _______ _______ _____ _____    ______ ____

>  <TORSDO>
F 9

$$$$
=
 OpenBabel11062419303D

 40 43  0  0  1  0  0  0  0  0999 V2000
  193.4530  176.1520  146.6810 C   0  0  2  0  0  3  0  0  0  0  0  0
  188.4360  173.8140  140.0210 C   0  0  0  0  0  2  0  0  0  0  0  0
  190.9710  176.4170  146.9790 C   0  0  0  0  0  2  0  0  0  0  0  0
  188.3630  174.6340  141.0620 C   0  0  0  0  0  0  0  0  0  0  0  0
  186.4560  177.7720  142.2460 C   0  0  0  0  0  0  0  0  0  0  0  0
  187.2390  176.4860  142.2960 C   0  0  2  0  0  3  0  0  0  0  0  0
  191.1360  176.9990  144.5720 N   0  0  0  0  0  0  0  0  0  0  0  0
  189.0620  175.2960  143.3830 N   0  0  0  0  0  2  0  0  0  0  0  0
  189.7370  173.2670  142.4590 O   0  0  0  0  0  0  0  0  0  0  0  0
  186.4360  178.5480  143.3330 C   0  0  0  0  0  3  0  0  0  0  0  0
  190.4040  176.8120  145.6390 C   0  0  0  0  0  0  0  0  0  0  0  0
  192.5550  176.6890  144.3850 C   0  0  0  0  0  2  0  0  0  0  0  0
  192.1200  175.4250  146.8880 C   0  0  0  0  0  2  0  0  0  0  0  0
  193.4000  177.1840  145.5510 C   0  0  0  0  0  2  0  0  0  0  0  0
  189.0220  177.1860  145.6150 N   0  0  0  0  0  2  0  0  0  0  0  0
  189.1030  174.3460  142.3130 C   0  0  0  0  0  0  0  0  0  0  0  0
  188.2140  177.3600  144.4430 C   0  0  0  0  0  0  0  0  0  0  0  0
  187.2690  178.2550  144.4680 N   0  0  0  0  0  0  0  0  0  0  0  0
  188.5060  176.6260  143.1510 C   0  0  2  0  0  3  0  0  0  0  0  0
  187.6190  175.9320  140.9200 C   0  0  0  0  0  2  0  0  0  0  0  0
  185.5270  178.0820  141.1150 C   0  0  0  0  0  2  0  0  0  0  0  0
  184.0860  178.2120  141.5990 C   0  0  0  0  0  2  0  0  0  0  0  0
  183.0910  178.0480  140.4570 C   0  0  0  0  0  2  0  0  0  0  0  0
  181.4970  178.9400  142.1560 O   0  0  0  0  0  1  0  0  0  0  0  0
  180.7280  178.1460  140.1490 O   0  0  0  0  0  0  0  0  0  0  0  0
  181.7070  178.3690  140.9090 C   0  0  0  0  0  0  0  0  0  0  0  0
  194.5630  175.1510  146.4130 C   0  0  0  0  0  2  0  0  0  0  0  0
  195.4190  175.6100  145.2440 C   0  0  0  0  0  2  0  0  0  0  0  0
  195.8230  174.4600  144.4430 N   0  0  0  0  0  0  0  0  0  0  0  0
  195.8470  172.1160  145.2580 C   0  0  0  0  0  0  0  0  0  0  0  0
  197.0270  172.2660  145.6710 O   0  0  0  0  0  0  0  0  0  0  0  0
  194.0120  170.5820  144.7410 C   0  0  0  0  0  0  0  0  0  0  0  0
  195.3010  170.8290  145.2230 O   0  0  0  0  0  0  0  0  0  0  0  0
  194.9990  173.3100  144.8620 C   0  0  2  0  0  3  0  0  0  0  0  0
  193.1630  171.7100  144.2270 C   0  0  2  0  0  3  0  0  0  0  0  0
  193.5450  169.4150  144.7960 O   0  0  0  0  0  0  0  0  0  0  0  0
  192.3660  171.2700  143.1690 O   0  0  0  0  0  1  0  0  0  0  0  0
  194.0480  172.8530  143.7470 C   0  0  0  0  0  2  0  0  0  0  0  0
  195.9460  176.2450  142.7930 C   0  0  0  0  0  1  0  0  0  0  0  0
  195.4920  174.8260  143.0690 C   0  0  0  0  0  2  0  0  0  0  0  0
  1 27  1  6  0  0  0
  1 13  1  0  0  0  0
  2  4  2  0  0  0  0
  4 16  1  0  0  0  0
  5  6  1  0  0  0  0
  5 10  2  0  0  0  0
  6 20  1  6  0  0  0
  6 19  1  0  0  0  0
  7 11  2  0  0  0  0
 10 18  1  0  0  0  0
 11  3  1  0  0  0  0
 12  7  1  0  0  0  0
 12 14  1  0  0  0  0
 13  3  1  0  0  0  0
 14  1  1  0  0  0  0
 15 11  1  0  0  0  0
 16  9  2  0  0  0  0
 16  8  1  0  0  0  0
 17 18  2  0  0  0  0
 17 15  1  0  0  0  0
 19  8  1  1  0  0  0
 19 17  1  0  0  0  0
 20  4  1  0  0  0  0
 21 22  1  0  0  0  0
 21  5  1  0  0  0  0
 23 26  1  0  0  0  0
 23 22  1  0  0  0  0
 25 26  2  0  0  0  0
 26 24  1  0  0  0  0
 28 27  1  0  0  0  0
 29 28  1  0  0  0  0
 30 31  2  0  0  0  0
 32 36  2  0  0  0  0
 32 33  1  0  0  0  0
 33 30  1  0  0  0  0
 34 29  1  6  0  0  0
 34 30  1  0  0  0  0
 35 37  1  6  0  0  0
 35 32  1  0  0  0  0
 38 35  1  0  0  0  0
 38 34  1  0  0  0  0
 39 40  1  0  0  0  0
 40 29  1  0  0  0  0
M  END
>  <MODEL>
4

>  <REMARK>
 VINA RESULT:      -7.5      2.377      4.148
  Name = 
  9 active torsions:
  status: ('A' for Active; 'I' for Inactive)
    1  A    between atoms: C_2  and  C_25
    2  A    between atoms: C_10  and  C_35
    3  A    between atoms: C_10  and  C_39
    4  A    between atoms: C_11  and  N_36
    5  A    between atoms: C_14  and  C_16
    6  A    between atoms: C_16  and  C_39
    7  A    between atoms: C_24  and  N_36
    8  A    between atoms: C_25  and  C_31
    9  A    between atoms: C_31  and  N_36
                            x       y       z     vdW  Elec       q    Type
                         _______ _______ _______ _____ _____    ______ ____

>  <TORSDO>
F 9

$$$$
=
 OpenBabel11062419303D

 40 43  0  0  1  0  0  0  0  0999 V2000
  194.2420  175.7820  146.3630 C   0  0  2  0  0  3  0  0  0  0  0  0
  188.5530  174.5360  139.9550 C   0  0  0  0  0  2  0  0  0  0  0  0
  191.8060  175.8470  146.9760 C   0  0  0  0  0  2  0  0  0  0  0  0
  188.5780  175.1290  141.1410 C   0  0  0  0  0  0  0  0  0  0  0  0
  186.7260  177.8630  143.1360 C   0  0  0  0  0  0  0  0  0  0  0  0
  187.5490  176.6370  142.8390 C   0  0  2  0  0  3  0  0  0  0  0  0
  191.6680  176.9010  144.7340 N   0  0  0  0  0  0  0  0  0  0  0  0
  189.5230  175.3560  143.4570 N   0  0  0  0  0  2  0  0  0  0  0  0
  190.1480  173.5900  142.0750 O   0  0  0  0  0  0  0  0  0  0  0  0
  186.8090  178.4060  144.3530 C   0  0  0  0  0  3  0  0  0  0  0  0
  191.0730  176.4680  145.8150 C   0  0  0  0  0  0  0  0  0  0  0  0
  193.0650  176.7120  144.3350 C   0  0  0  0  0  2  0  0  0  0  0  0
  192.9670  174.9570  146.5620 C   0  0  0  0  0  2  0  0  0  0  0  0
  194.0250  177.0120  145.4780 C   0  0  0  0  0  2  0  0  0  0  0  0
  189.6870  176.7630  146.0170 N   0  0  0  0  0  2  0  0  0  0  0  0
  189.4690  174.6400  142.2190 C   0  0  0  0  0  0  0  0  0  0  0  0
  188.7420  177.1220  145.0000 C   0  0  0  0  0  0  0  0  0  0  0  0
  187.7780  177.9410  145.3080 N   0  0  0  0  0  0  0  0  0  0  0  0
  188.9020  176.6740  143.5620 C   0  0  2  0  0  3  0  0  0  0  0  0
  187.7810  176.3860  141.3460 C   0  0  0  0  0  2  0  0  0  0  0  0
  185.6610  178.3390  142.1990 C   0  0  0  0  0  2  0  0  0  0  0  0
  184.3230  177.6640  142.4900 C   0  0  0  0  0  2  0  0  0  0  0  0
  183.1700  178.6600  142.4520 C   0  0  0  0  0  2  0  0  0  0  0  0
  182.6290  177.9120  140.1350 O   0  0  0  0  0  0  0  0  0  0  0  0
  180.9530  178.3040  141.6480 O   0  0  0  0  0  1  0  0  0  0  0  0
  182.1860  178.2930  141.3940 C   0  0  0  0  0  0  0  0  0  0  0  0
  195.3450  174.9150  145.7790 C   0  0  0  0  0  2  0  0  0  0  0  0
  194.7970  173.5500  145.3960 C   0  0  0  0  0  2  0  0  0  0  0  0
  195.4250  173.0910  144.1610 N   0  0  0  0  0  0  0  0  0  0  0  0
  194.0420  173.3120  142.1120 C   0  0  0  0  0  0  0  0  0  0  0  0
  193.3340  172.3360  142.4780 O   0  0  0  0  0  0  0  0  0  0  0  0
  194.6760  174.8550  140.3220 C   0  0  0  0  0  0  0  0  0  0  0  0
  193.8980  173.8000  140.8090 O   0  0  0  0  0  0  0  0  0  0  0  0
  194.9920  173.9950  143.0770 C   0  0  2  0  0  3  0  0  0  0  0  0
  195.7160  175.4990  141.1940 C   0  0  2  0  0  3  0  0  0  0  0  0
  194.4570  175.3000  139.1650 O   0  0  0  0  0  0  0  0  0  0  0  0
  196.8110  175.8960  140.4250 O   0  0  0  0  0  1  0  0  0  0  0  0
  196.1830  174.5180  142.2620 C   0  0  0  0  0  2  0  0  0  0  0  0
  197.4260  171.9740  144.9780 C   0  0  0  0  0  1  0  0  0  0  0  0
  196.8580  173.2490  144.3880 C   0  0  0  0  0  2  0  0  0  0  0  0
  1 27  1  6  0  0  0
  1 13  1  0  0  0  0
  2  4  2  0  0  0  0
  4 20  1  0  0  0  0
  4 16  1  0  0  0  0
  5 10  2  0  0  0  0
  6 20  1  6  0  0  0
  6  5  1  0  0  0  0
  6 19  1  0  0  0  0
  7 11  2  0  0  0  0
  9 16  2  0  0  0  0
 10 18  1  0  0  0  0
 11 15  1  0  0  0  0
 11  3  1  0  0  0  0
 12  7  1  0  0  0  0
 12 14  1  0  0  0  0
 13  3  1  0  0  0  0
 14  1  1  0  0  0  0
 16  8  1  0  0  0  0
 17 18  2  0  0  0  0
 17 15  1  0  0  0  0
 19  8  1  1  0  0  0
 19 17  1  0  0  0  0
 21 22  1  0  0  0  0
 21  5  1  0  0  0  0
 23 22  1  0  0  0  0
 24 26  2  0  0  0  0
 26 25  1  0  0  0  0
 26 23  1  0  0  0  0
 28 27  1  0  0  0  0
 29 40  1  0  0  0  0
 29 28  1  0  0  0  0
 30 31  2  0  0  0  0
 30 34  1  0  0  0  0
 32 33  1  0  0  0  0
 32 35  1  0  0  0  0
 33 30  1  0  0  0  0
 34 29  1  1  0  0  0
 35 37  1  6  0  0  0
 35 38  1  0  0  0  0
 36 32  2  0  0  0  0
 38 34  1  0  0  0  0
 40 39  1  0  0  0  0
M  END
>  <MODEL>
5

>  <REMARK>
 VINA RESULT:      -7.5      2.334      4.055
  Name = 
  9 active torsions:
  status: ('A' for Active; 'I' for Inactive)
    1  A    between atoms: C_2  and  C_25
    2  A    between atoms: C_10  and  C_35
    3  A    between atoms: C_10  and  C_39
    4  A    between atoms: C_11  and  N_36
    5  A    between atoms: C_14  and  C_16
    6  A    between atoms: C_16  and  C_39
    7  A    between atoms: C_24  and  N_36
    8  A    between atoms: C_25  and  C_31
    9  A    between atoms: C_31  and  N_36
                            x       y       z     vdW  Elec       q    Type
                         _______ _______ _______ _____ _____    ______ ____

>  <TORSDO>
F 9

$$$$
=
 OpenBabel11062419303D

 40 43  0  0  1  0  0  0  0  0999 V2000
  191.4340  175.3730  147.1690 C   0  0  2  0  0  3  0  0  0  0  0  0
  186.9280  177.3750  140.0500 C   0  0  0  0  0  2  0  0  0  0  0  0
  188.9450  175.0400  147.2670 C   0  0  0  0  0  2  0  0  0  0  0  0
  186.7080  177.2840  141.3550 C   0  0  0  0  0  0  0  0  0  0  0  0
  184.2670  178.5640  144.0550 C   0  0  0  0  0  0  0  0  0  0  0  0
  185.2680  177.6860  143.3500 C   0  0  2  0  0  3  0  0  0  0  0  0
  189.0060  177.0820  145.8580 N   0  0  0  0  0  0  0  0  0  0  0  0
  187.2730  176.3330  143.6110 N   0  0  0  0  0  2  0  0  0  0  0  0
  188.3020  175.5350  141.6800 O   0  0  0  0  0  0  0  0  0  0  0  0
  184.1060  178.4160  145.3720 C   0  0  0  0  0  3  0  0  0  0  0  0
  188.3180  176.1410  146.4500 C   0  0  0  0  0  0  0  0  0  0  0  0
  190.4580  177.1670  145.6870 C   0  0  0  0  0  2  0  0  0  0  0  0
  190.2530  174.5210  146.6910 C   0  0  0  0  0  2  0  0  0  0  0  0
  191.1980  176.8740  146.9840 C   0  0  0  0  0  2  0  0  0  0  0  0
  186.8910  176.2480  146.5100 N   0  0  0  0  0  2  0  0  0  0  0  0
  187.4860  176.3430  142.1950 C   0  0  0  0  0  0  0  0  0  0  0  0
  186.0670  177.0430  145.6470 C   0  0  0  0  0  0  0  0  0  0  0  0
  184.9760  177.5610  146.1340 N   0  0  0  0  0  0  0  0  0  0  0  0
  186.4870  177.3940  144.2350 C   0  0  2  0  0  3  0  0  0  0  0  0
  185.7420  178.2360  142.0020 C   0  0  0  0  0  2  0  0  0  0  0  0
  183.2990  179.4160  143.2960 C   0  0  0  0  0  2  0  0  0  0  0  0
  182.4150  178.5730  142.3810 C   0  0  0  0  0  2  0  0  0  0  0  0
  180.9840  179.0940  142.3420 C   0  0  0  0  0  2  0  0  0  0  0  0
  180.1320  180.5410  140.4980 O   0  0  0  0  0  1  0  0  0  0  0  0
  180.5190  178.3110  140.1380 O   0  0  0  0  0  0  0  0  0  0  0  0
  180.5250  179.2840  140.9370 C   0  0  0  0  0  0  0  0  0  0  0  0
  192.7060  174.9590  146.4490 C   0  0  0  0  0  2  0  0  0  0  0  0
  192.3940  173.9410  145.3640 C   0  0  0  0  0  2  0  0  0  0  0  0
  193.6210  173.5580  144.6750 N   0  0  0  0  0  0  0  0  0  0  0  0
  195.8120  172.8970  145.6360 C   0  0  0  0  0  0  0  0  0  0  0  0
  196.2430  174.0690  145.4730 O   0  0  0  0  0  0  0  0  0  0  0  0
  196.3150  170.5550  146.1370 C   0  0  0  0  0  0  0  0  0  0  0  0
  196.7160  171.8850  145.9770 O   0  0  0  0  0  0  0  0  0  0  0  0
  194.3310  172.5860  145.5300 C   0  0  2  0  0  3  0  0  0  0  0  0
  194.8790  170.1640  145.9330 C   0  0  2  0  0  3  0  0  0  0  0  0
  197.1560  169.6980  146.5110 O   0  0  0  0  0  0  0  0  0  0  0  0
  194.8020  168.8830  145.3820 O   0  0  0  0  0  1  0  0  0  0  0  0
  194.1960  171.1530  144.9980 C   0  0  0  0  0  2  0  0  0  0  0  0
  191.7500  173.3130  143.1390 C   0  0  0  0  0  1  0  0  0  0  0  0
  193.1740  172.8990  143.4510 C   0  0  0  0  0  2  0  0  0  0  0  0
  1 27  1  6  0  0  0
  2  4  2  0  0  0  0
  4 20  1  0  0  0  0
  4 16  1  0  0  0  0
  5 10  2  0  0  0  0
  6 20  1  6  0  0  0
  6  5  1  0  0  0  0
  6 19  1  0  0  0  0
  7 11  2  0  0  0  0
  9 16  2  0  0  0  0
 10 18  1  0  0  0  0
 11 15  1  0  0  0  0
 11  3  1  0  0  0  0
 12  7  1  0  0  0  0
 12 14  1  0  0  0  0
 13  1  1  0  0  0  0
 13  3  1  0  0  0  0
 14  1  1  0  0  0  0
 16  8  1  0  0  0  0
 17 18  2  0  0  0  0
 17 15  1  0  0  0  0
 19  8  1  6  0  0  0
 19 17  1  0  0  0  0
 21  5  1  0  0  0  0
 22 21  1  0  0  0  0
 23 22  1  0  0  0  0
 24 26  1  0  0  0  0
 25 26  2  0  0  0  0
 26 23  1  0  0  0  0
 28 27  1  0  0  0  0
 29 28  1  0  0  0  0
 30 33  1  0  0  0  0
 31 30  2  0  0  0  0
 32 36  2  0  0  0  0
 33 32  1  0  0  0  0
 34 29  1  6  0  0  0
 34 30  1  0  0  0  0
 35 37  1  6  0  0  0
 35 32  1  0  0  0  0
 38 34  1  0  0  0  0
 38 35  1  0  0  0  0
 39 40  1  0  0  0  0
 40 29  1  0  0  0  0
M  END
>  <MODEL>
6

>  <REMARK>
 VINA RESULT:      -7.5      2.246      4.043
  Name = 
  9 active torsions:
  status: ('A' for Active; 'I' for Inactive)
    1  A    between atoms: C_2  and  C_25
    2  A    between atoms: C_10  and  C_35
    3  A    between atoms: C_10  and  C_39
    4  A    between atoms: C_11  and  N_36
    5  A    between atoms: C_14  and  C_16
    6  A    between atoms: C_16  and  C_39
    7  A    between atoms: C_24  and  N_36
    8  A    between atoms: C_25  and  C_31
    9  A    between atoms: C_31  and  N_36
                            x       y       z     vdW  Elec       q    Type
                         _______ _______ _______ _____ _____    ______ ____

>  <TORSDO>
F 9

$$$$
=
 OpenBabel11062419303D

 40 43  0  0  1  0  0  0  0  0999 V2000
  191.3400  175.3940  147.2350 C   0  0  2  0  0  3  0  0  0  0  0  0
  186.8780  177.1670  140.0280 C   0  0  0  0  0  2  0  0  0  0  0  0
  188.8450  175.1200  147.3460 C   0  0  0  0  0  2  0  0  0  0  0  0
  186.6560  177.1400  141.3360 C   0  0  0  0  0  0  0  0  0  0  0  0
  184.2440  178.5950  143.9730 C   0  0  0  0  0  0  0  0  0  0  0  0
  185.2250  177.6640  143.3090 C   0  0  2  0  0  3  0  0  0  0  0  0
  188.9500  177.0940  145.8460 N   0  0  0  0  0  0  0  0  0  0  0  0
  187.2000  176.2800  143.6330 N   0  0  0  0  0  2  0  0  0  0  0  0
  188.2120  175.3730  141.7420 O   0  0  0  0  0  0  0  0  0  0  0  0
  184.0800  178.5100  145.2950 C   0  0  0  0  0  3  0  0  0  0  0  0
  188.2410  176.1960  146.4790 C   0  0  0  0  0  0  0  0  0  0  0  0
  190.4030  177.1390  145.6720 C   0  0  0  0  0  2  0  0  0  0  0  0
  190.1410  174.5470  146.7960 C   0  0  0  0  0  2  0  0  0  0  0  0
  191.1370  176.8910  146.9820 C   0  0  0  0  0  2  0  0  0  0  0  0
  186.8170  176.3370  146.5330 N   0  0  0  0  0  2  0  0  0  0  0  0
  187.4140  176.2220  142.2190 C   0  0  0  0  0  0  0  0  0  0  0  0
  186.0110  177.1090  145.6340 C   0  0  0  0  0  0  0  0  0  0  0  0
  184.9310  177.6730  146.0960 N   0  0  0  0  0  0  0  0  0  0  0  0
  186.4390  177.3860  144.2070 C   0  0  2  0  0  3  0  0  0  0  0  0
  185.7120  178.1410  141.9380 C   0  0  0  0  0  2  0  0  0  0  0  0
  183.2940  179.4320  143.1740 C   0  0  0  0  0  2  0  0  0  0  0  0
  182.1350  178.5980  142.6370 C   0  0  0  0  0  2  0  0  0  0  0  0
  182.0450  178.6710  141.1180 C   0  0  0  0  0  2  0  0  0  0  0  0
  180.3260  180.3110  140.3590 O   0  0  0  0  0  0  0  0  0  0  0  0
  179.7940  178.0940  140.5840 O   0  0  0  0  0  1  0  0  0  0  0  0
  180.6580  179.0030  140.6830 C   0  0  0  0  0  0  0  0  0  0  0  0
  192.6030  174.9200  146.5360 C   0  0  0  0  0  2  0  0  0  0  0  0
  192.2610  173.9210  145.4430 C   0  0  0  0  0  2  0  0  0  0  0  0
  192.6270  174.4660  144.1400 N   0  0  0  0  0  0  0  0  0  0  0  0
  194.2480  176.1070  143.2220 C   0  0  0  0  0  0  0  0  0  0  0  0
  193.3000  176.7710  142.7230 O   0  0  0  0  0  0  0  0  0  0  0  0
  196.6570  175.6990  143.3350 C   0  0  0  0  0  0  0  0  0  0  0  0
  195.5600  176.4170  142.8510 O   0  0  0  0  0  0  0  0  0  0  0  0
  193.9870  175.0290  144.2560 C   0  0  2  0  0  3  0  0  0  0  0  0
  196.4560  174.5450  144.2750 C   0  0  2  0  0  3  0  0  0  0  0  0
  197.8210  176.0640  143.0220 O   0  0  0  0  0  0  0  0  0  0  0  0
  197.4140  173.5570  144.0370 O   0  0  0  0  0  1  0  0  0  0  0  0
  195.0670  173.9510  144.0840 C   0  0  0  0  0  2  0  0  0  0  0  0
  191.7760  173.5900  142.0360 C   0  0  0  0  0  1  0  0  0  0  0  0
  192.6480  173.3140  143.2440 C   0  0  0  0  0  2  0  0  0  0  0  0
  1 27  1  6  0  0  0
  2  4  2  0  0  0  0
  4 20  1  0  0  0  0
  4 16  1  0  0  0  0
  5 10  2  0  0  0  0
  6 20  1  6  0  0  0
  6  5  1  0  0  0  0
  6 19  1  0  0  0  0
  7 11  2  0  0  0  0
  9 16  2  0  0  0  0
 10 18  1  0  0  0  0
 11 15  1  0  0  0  0
 11  3  1  0  0  0  0
 12  7  1  0  0  0  0
 12 14  1  0  0  0  0
 13  1  1  0  0  0  0
 13  3  1  0  0  0  0
 14  1  1  0  0  0  0
 16  8  1  0  0  0  0
 17 18  2  0  0  0  0
 17 15  1  0  0  0  0
 19  8  1  6  0  0  0
 19 17  1  0  0  0  0
 21  5  1  0  0  0  0
 22 21  1  0  0  0  0
 23 22  1  0  0  0  0
 24 26  2  0  0  0  0
 25 26  1  0  0  0  0
 26 23  1  0  0  0  0
 28 27  1  0  0  0  0
 29 28  1  0  0  0  0
 30 34  1  0  0  0  0
 31 30  2  0  0  0  0
 32 35  1  0  0  0  0
 33 30  1  0  0  0  0
 33 32  1  0  0  0  0
 34 29  1  6  0  0  0
 35 37  1  6  0  0  0
 36 32  2  0  0  0  0
 38 34  1  0  0  0  0
 38 35  1  0  0  0  0
 39 40  1  0  0  0  0
 40 29  1  0  0  0  0
M  END
>  <MODEL>
7

>  <REMARK>
 VINA RESULT:      -7.5      1.904      3.599
  Name = 
  9 active torsions:
  status: ('A' for Active; 'I' for Inactive)
    1  A    between atoms: C_2  and  C_25
    2  A    between atoms: C_10  and  C_35
    3  A    between atoms: C_10  and  C_39
    4  A    between atoms: C_11  and  N_36
    5  A    between atoms: C_14  and  C_16
    6  A    between atoms: C_16  and  C_39
    7  A    between atoms: C_24  and  N_36
    8  A    between atoms: C_25  and  C_31
    9  A    between atoms: C_31  and  N_36
                            x       y       z     vdW  Elec       q    Type
                         _______ _______ _______ _____ _____    ______ ____

>  <TORSDO>
F 9

$$$$
=
 OpenBabel11062419303D

 40 43  0  0  1  0  0  0  0  0999 V2000
  192.7890  175.3920  143.8760 C   0  0  2  0  0  3  0  0  0  0  0  0
  185.1720  177.6520  147.3190 C   0  0  0  0  0  2  0  0  0  0  0  0
  191.5730  177.3040  142.7900 C   0  0  0  0  0  2  0  0  0  0  0  0
  185.7800  177.7410  146.1440 C   0  0  0  0  0  0  0  0  0  0  0  0
  184.9640  178.1880  142.3990 C   0  0  0  0  0  0  0  0  0  0  0  0
  185.7260  178.2250  143.6980 C   0  0  2  0  0  3  0  0  0  0  0  0
  189.6190  175.9040  143.4070 N   0  0  0  0  0  0  0  0  0  0  0  0
  187.8780  177.8380  144.7650 N   0  0  0  0  0  2  0  0  0  0  0  0
  187.9670  177.9150  147.0900 O   0  0  0  0  0  0  0  0  0  0  0  0
  185.6490  178.2770  141.2560 C   0  0  0  0  0  3  0  0  0  0  0  0
  190.0990  177.0000  142.8790 C   0  0  0  0  0  0  0  0  0  0  0  0
  190.3360  174.8790  144.1690 C   0  0  0  0  0  2  0  0  0  0  0  0
  192.3640  176.8570  144.0100 C   0  0  0  0  0  2  0  0  0  0  0  0
  191.6320  174.4690  143.4840 C   0  0  0  0  0  2  0  0  0  0  0  0
  189.2210  177.8770  142.1650 N   0  0  0  0  0  2  0  0  0  0  0  0
  187.2570  177.8240  146.0540 C   0  0  0  0  0  0  0  0  0  0  0  0
  187.7940  177.9340  142.2970 C   0  0  0  0  0  0  0  0  0  0  0  0
  187.0860  178.2430  141.2490 N   0  0  0  0  0  0  0  0  0  0  0  0
  187.0890  177.5300  143.5750 C   0  0  2  0  0  3  0  0  0  0  0  0
  184.9640  177.6320  144.8870 C   0  0  0  0  0  2  0  0  0  0  0  0
  183.4710  178.2910  142.3620 C   0  0  0  0  0  2  0  0  0  0  0  0
  182.9640  178.5120  140.9400 C   0  0  0  0  0  2  0  0  0  0  0  0
  181.5060  178.0960  140.7900 C   0  0  0  0  0  2  0  0  0  0  0  0
  180.3290  180.2780  140.5130 O   0  0  0  0  0  0  0  0  0  0  0  0
  180.0430  179.0400  142.4200 O   0  0  0  0  0  1  0  0  0  0  0  0
  180.5950  179.1620  141.2950 C   0  0  0  0  0  0  0  0  0  0  0  0
  193.4200  174.9060  145.1700 C   0  0  0  0  0  2  0  0  0  0  0  0
  194.6680  175.7140  145.4870 C   0  0  0  0  0  2  0  0  0  0  0  0
  195.8460  175.0350  144.9580 N   0  0  0  0  0  0  0  0  0  0  0  0
  196.6130  172.9020  145.9690 C   0  0  0  0  0  0  0  0  0  0  0  0
  197.1910  173.5400  146.8880 O   0  0  0  0  0  0  0  0  0  0  0  0
  196.2880  170.7700  144.8140 C   0  0  0  0  0  0  0  0  0  0  0  0
  196.8650  171.5330  145.8330 O   0  0  0  0  0  0  0  0  0  0  0  0
  195.6080  173.5810  145.0580 C   0  0  2  0  0  3  0  0  0  0  0  0
  195.3720  171.4090  143.8100 C   0  0  2  0  0  3  0  0  0  0  0  0
  196.4950  169.5290  144.7790 O   0  0  0  0  0  0  0  0  0  0  0  0
  195.5270  170.8040  142.5620 O   0  0  0  0  0  1  0  0  0  0  0  0
  195.6870  172.8950  143.6880 C   0  0  0  0  0  2  0  0  0  0  0  0
  196.5530  176.7910  143.4280 C   0  0  0  0  0  1  0  0  0  0  0  0
  195.9050  175.4260  143.5530 C   0  0  0  0  0  2  0  0  0  0  0  0
  1 13  1  0  0  0  0
  1 27  1  1  0  0  0
  3 11  1  0  0  0  0
  3 13  1  0  0  0  0
  4  2  2  0  0  0  0
  5  6  1  0  0  0  0
  6 20  1  1  0  0  0
  7 12  1  0  0  0  0
  8 16  1  0  0  0  0
 10  5  2  0  0  0  0
 11  7  2  0  0  0  0
 14  1  1  0  0  0  0
 14 12  1  0  0  0  0
 15 17  1  0  0  0  0
 15 11  1  0  0  0  0
 16  4  1  0  0  0  0
 16  9  2  0  0  0  0
 18 10  1  0  0  0  0
 18 17  2  0  0  0  0
 19 17  1  6  0  0  0
 19  6  1  0  0  0  0
 19  8  1  0  0  0  0
 20  4  1  0  0  0  0
 21  5  1  0  0  0  0
 22 21  1  0  0  0  0
 23 22  1  0  0  0  0
 23 26  1  0  0  0  0
 24 26  2  0  0  0  0
 26 25  1  0  0  0  0
 27 28  1  0  0  0  0
 29 28  1  0  0  0  0
 30 31  2  0  0  0  0
 32 33  1  0  0  0  0
 33 30  1  0  0  0  0
 34 29  1  6  0  0  0
 34 30  1  0  0  0  0
 35 37  1  6  0  0  0
 35 32  1  0  0  0  0
 36 32  2  0  0  0  0
 38 35  1  0  0  0  0
 38 34  1  0  0  0  0
 39 40  1  0  0  0  0
 40 29  1  0  0  0  0
M  END
>  <MODEL>
8

>  <REMARK>
 VINA RESULT:      -7.5      1.653      2.303
  Name = 
  9 active torsions:
  status: ('A' for Active; 'I' for Inactive)
    1  A    between atoms: C_2  and  C_25
    2  A    between atoms: C_10  and  C_35
    3  A    between atoms: C_10  and  C_39
    4  A    between atoms: C_11  and  N_36
    5  A    between atoms: C_14  and  C_16
    6  A    between atoms: C_16  and  C_39
    7  A    between atoms: C_24  and  N_36
    8  A    between atoms: C_25  and  C_31
    9  A    between atoms: C_31  and  N_36
                            x       y       z     vdW  Elec       q    Type
                         _______ _______ _______ _____ _____    ______ ____

>  <TORSDO>
F 9

$$$$
=
 OpenBabel11062419303D

 40 43  0  0  1  0  0  0  0  0999 V2000
  191.0850  172.3040  142.2110 C   0  0  2  0  0  3  0  0  0  0  0  0
  185.9060  177.1030  147.2250 C   0  0  0  0  0  2  0  0  0  0  0  0
  190.4660  174.5830  141.3540 C   0  0  0  0  0  2  0  0  0  0  0  0
  186.2130  177.0120  145.9380 C   0  0  0  0  0  0  0  0  0  0  0  0
  184.7840  177.9140  142.4690 C   0  0  0  0  0  0  0  0  0  0  0  0
  185.7820  177.5980  143.5530 C   0  0  2  0  0  3  0  0  0  0  0  0
  188.3280  173.9960  142.4680 N   0  0  0  0  0  0  0  0  0  0  0  0
  187.8120  176.3770  144.1060 N   0  0  0  0  0  2  0  0  0  0  0  0
  188.4580  176.3030  146.3430 O   0  0  0  0  0  0  0  0  0  0  0  0
  185.1680  177.7930  141.1950 C   0  0  0  0  0  3  0  0  0  0  0  0
  189.0500  174.8540  141.7960 C   0  0  0  0  0  0  0  0  0  0  0  0
  188.7600  172.7420  143.0880 C   0  0  0  0  0  2  0  0  0  0  0  0
  191.2890  173.8130  142.3750 C   0  0  0  0  0  2  0  0  0  0  0  0
  189.6080  171.9060  142.1400 C   0  0  0  0  0  2  0  0  0  0  0  0
  188.4300  176.0320  141.2680 N   0  0  0  0  0  2  0  0  0  0  0  0
  187.5480  176.5360  145.5040 C   0  0  0  0  0  0  0  0  0  0  0  0
  187.2020  176.6160  141.7240 C   0  0  0  0  0  0  0  0  0  0  0  0
  186.4420  177.2200  140.8560 N   0  0  0  0  0  0  0  0  0  0  0  0
  186.7130  176.4470  143.1470 C   0  0  2  0  0  3  0  0  0  0  0  0
  185.1490  177.2800  144.9110 C   0  0  0  0  0  2  0  0  0  0  0  0
  183.4770  178.5740  142.7740 C   0  0  0  0  0  2  0  0  0  0  0  0
  182.4610  178.3370  141.6610 C   0  0  0  0  0  2  0  0  0  0  0  0
  181.1070  178.9540  141.9920 C   0  0  0  0  0  2  0  0  0  0  0  0
  179.8020  178.2660  139.9810 O   0  0  0  0  0  0  0  0  0  0  0  0
  180.1940  180.4820  140.4060 O   0  0  0  0  0  1  0  0  0  0  0  0
  180.3540  179.2820  140.7480 C   0  0  0  0  0  0  0  0  0  0  0  0
  191.7660  171.5540  143.3440 C   0  0  0  0  0  2  0  0  0  0  0  0
  192.4300  172.5310  144.3010 C   0  0  0  0  0  2  0  0  0  0  0  0
  193.8810  172.4210  144.1950 N   0  0  0  0  0  0  0  0  0  0  0  0
  195.8010  173.5880  143.1400 C   0  0  0  0  0  0  0  0  0  0  0  0
  196.2330  172.4900  142.6990 O   0  0  0  0  0  0  0  0  0  0  0  0
  196.2230  175.9600  143.5650 C   0  0  0  0  0  0  0  0  0  0  0  0
  196.6220  174.7180  143.0620 O   0  0  0  0  0  0  0  0  0  0  0  0
  194.3930  173.7110  143.6910 C   0  0  2  0  0  3  0  0  0  0  0  0
  194.8840  176.1190  144.2260 C   0  0  2  0  0  3  0  0  0  0  0  0
  196.9730  176.9590  143.4080 O   0  0  0  0  0  0  0  0  0  0  0  0
  194.9660  177.0500  145.2630 O   0  0  0  0  0  1  0  0  0  0  0  0
  194.4160  174.7830  144.7880 C   0  0  0  0  0  2  0  0  0  0  0  0
  194.6560  170.7450  145.7800 C   0  0  0  0  0  1  0  0  0  0  0  0
  194.3420  172.2120  145.5640 C   0  0  0  0  0  2  0  0  0  0  0  0
  1 13  1  0  0  0  0
  1 27  1  1  0  0  0
  3 11  1  0  0  0  0
  3 13  1  0  0  0  0
  4  2  2  0  0  0  0
  5 21  1  0  0  0  0
  5  6  1  0  0  0  0
  6 20  1  1  0  0  0
  7 12  1  0  0  0  0
  8 16  1  0  0  0  0
 10  5  2  0  0  0  0
 11  7  2  0  0  0  0
 14  1  1  0  0  0  0
 14 12  1  0  0  0  0
 15 17  1  0  0  0  0
 15 11  1  0  0  0  0
 16  4  1  0  0  0  0
 16  9  2  0  0  0  0
 18 10  1  0  0  0  0
 18 17  2  0  0  0  0
 19 17  1  6  0  0  0
 19  6  1  0  0  0  0
 19  8  1  0  0  0  0
 20  4  1  0  0  0  0
 22 23  1  0  0  0  0
 22 21  1  0  0  0  0
 24 26  2  0  0  0  0
 25 26  1  0  0  0  0
 26 23  1  0  0  0  0
 27 28  1  0  0  0  0
 29 28  1  0  0  0  0
 29 40  1  0  0  0  0
 30 34  1  0  0  0  0
 31 30  2  0  0  0  0
 32 35  1  0  0  0  0
 33 30  1  0  0  0  0
 33 32  1  0  0  0  0
 34 29  1  1  0  0  0
 34 38  1  0  0  0  0
 35 38  1  0  0  0  0
 35 37  1  1  0  0  0
 36 32  2  0  0  0  0
 40 39  1  0  0  0  0
M  END
>  <MODEL>
9

>  <REMARK>
 VINA RESULT:      -7.4      1.539      2.084
  Name = 
  9 active torsions:
  status: ('A' for Active; 'I' for Inactive)
    1  A    between atoms: C_2  and  C_25
    2  A    between atoms: C_10  and  C_35
    3  A    between atoms: C_10  and  C_39
    4  A    between atoms: C_11  and  N_36
    5  A    between atoms: C_14  and  C_16
    6  A    between atoms: C_16  and  C_39
    7  A    between atoms: C_24  and  N_36
    8  A    between atoms: C_25  and  C_31
    9  A    between atoms: C_31  and  N_36
                            x       y       z     vdW  Elec       q    Type
                         _______ _______ _______ _____ _____    ______ ____

>  <TORSDO>
F 9

$$$$
