=
 OpenBabel11062420113D

 52 56  0  0  1  0  0  0  0  0999 V2000
  195.5520  174.6540  144.1620 C   0  0  2  0  0  3  0  0  0  0  0  0
  195.6120  174.9120  146.1340 O   0  0  0  0  0  0  0  0  0  0  0  0
  193.4080  174.1550  145.5240 C   0  0  0  0  0  1  0  0  0  0  0  0
  196.4910  174.5480  145.1920 O   0  0  0  0  0  0  0  0  0  0  0  0
  194.5810  175.0810  145.2100 C   0  0  2  0  0  0  0  0  0  0  0  0
  194.2000  176.5600  145.1250 C   0  0  0  0  0  2  0  0  0  0  0  0
  192.6540  176.6200  143.3290 O   0  0  0  0  0  0  0  0  0  0  0  0
  192.8370  176.8040  144.5630 C   0  0  0  0  0  0  0  0  0  0  0  0
  191.7810  177.1800  145.4050 O   0  0  0  0  0  0  0  0  0  0  0  0
  190.3060  178.5460  144.3070 O   0  0  0  0  0  0  0  0  0  0  0  0
  190.4830  177.4980  144.9810 C   0  0  0  0  0  0  0  0  0  0  0  0
  189.2960  176.6600  145.3720 C   0  0  2  0  0  3  0  0  0  0  0  0
  187.3020  177.6580  146.7350 C   0  0  2  0  0  0  0  0  0  0  0  0
  186.4640  176.9440  147.6130 O   0  0  0  0  0  0  0  0  0  0  0  0
  187.4630  176.1960  146.9630 C   0  0  2  0  0  3  0  0  0  0  0  0
  188.7020  177.0390  146.7350 C   0  0  1  0  0  3  0  0  0  0  0  0
  186.0490  176.1310  143.6650 C   0  0  0  0  0  3  0  0  0  0  0  0
  185.6610  176.8110  144.9520 C   0  0  0  0  0  2  0  0  0  0  0  0
  185.9740  179.2760  145.3750 C   0  0  0  0  0  2  0  0  0  0  0  0
  185.4110  178.4200  140.6580 C   0  0  0  0  0  1  0  0  0  0  0  0
  185.5850  178.0460  142.0850 C   0  0  0  0  0  0  0  0  0  0  0  0
  186.6660  177.9000  145.3540 C   0  0  1  0  0  3  0  0  0  0  0  0
  185.9890  176.6690  142.4340 C   0  0  0  0  0  3  0  0  0  0  0  0
  185.5200  179.7680  144.0280 C   0  0  0  0  0  3  0  0  0  0  0  0
  185.5250  178.9680  143.0010 C   0  0  0  0  0  0  0  0  0  0  0  0
  189.6190  175.1670  145.2960 C   0  0  0  0  0  2  0  0  0  0  0  0
  189.3690  174.5890  143.9130 C   0  0  0  0  0  1  0  0  0  0  0  0
  195.3000  173.2600  143.5750 C   0  0  0  0  0  2  0  0  0  0  0  0
  196.2590  172.6060  141.4110 C   0  0  0  0  0  1  0  0  0  0  0  0
  195.0450  173.2600  142.0620 C   0  0  1  0  0  0  0  0  0  0  0  0
  192.5740  170.2150  139.2270 O   0  0  0  0  0  0  0  0  0  0  0  0
  193.8010  172.4520  141.7740 C   0  0  0  0  0  0  0  0  0  0  0  0
  192.4470  171.1710  140.0360 C   0  0  0  0  0  0  0  0  0  0  0  0
  192.9990  172.1750  142.7060 O   0  0  0  0  0  0  0  0  0  0  0  0
  193.6200  171.8650  140.4780 N   0  0  0  0  0  2  0  0  0  0  0  0
  191.1640  171.5370  140.4550 O   0  0  0  0  0  0  0  0  0  0  0  0
  188.5420  174.0400  140.3480 C   0  0  0  0  0  2  0  0  0  0  0  0
  189.2370  172.7190  140.6650 C   0  0  0  0  0  2  0  0  0  0  0  0
  189.6270  174.1580  136.9190 O   0  0  0  0  0  0  0  0  0  0  0  0
  190.5690  172.7180  140.0650 N   0  0  0  0  0  0  0  0  0  0  0  0
  188.5410  174.2800  138.9430 O   0  0  0  0  0  0  0  0  0  0  0  0
  190.4280  172.6650  138.6060 C   0  0  0  0  0  2  0  0  0  0  0  0
  189.5350  173.7620  138.1100 C   0  0  0  0  0  0  0  0  0  0  0  0
  194.9330  174.7050  141.5400 C   0  0  0  0  0  2  0  0  0  0  0  0
  193.7620  174.9250  138.9440 O   0  0  0  0  0  0  0  0  0  0  0  0
  195.6660  174.9080  140.2980 N   0  0  0  0  0  2  0  0  0  0  0  0
  195.0130  175.0520  139.0330 C   0  0  0  0  0  0  0  0  0  0  0  0
  195.7490  175.3340  137.8850 O   0  0  0  0  0  0  0  0  0  0  0  0
  196.7930  174.4800  137.4370 C   0  0  0  0  0  2  0  0  0  0  0  0
  197.8480  175.3040  136.7270 C   0  0  0  0  0  2  0  0  0  0  0  0
  197.2890  175.8520  135.4290 C   0  0  0  0  0  2  0  0  0  0  0  0
  196.9460  177.1810  135.5980 F   0  0  0  0  0  0  0  0  0  0  0  0
  1 28  1  1  0  0  0
  1  4  1  0  0  0  0
  1  5  1  0  0  0  0
  4  2  1  0  0  0  0
  5  3  1  1  0  0  0
  5  2  1  0  0  0  0
  6  5  1  0  0  0  0
  7  8  2  0  0  0  0
  8  6  1  0  0  0  0
  8  9  1  0  0  0  0
 10 11  2  0  0  0  0
 11 12  1  0  0  0  0
 11  9  1  0  0  0  0
 12 26  1  1  0  0  0
 13 16  1  0  0  0  0
 13 15  1  0  0  0  0
 13 14  1  1  0  0  0
 15 14  1  1  0  0  0
 16 12  1  6  0  0  0
 16 15  1  0  0  0  0
 17 18  1  0  0  0  0
 20 21  1  0  0  0  0
 21 23  1  0  0  0  0
 21 25  2  0  0  0  0
 22 18  1  1  0  0  0
 22 19  1  0  0  0  0
 22 13  1  0  0  0  0
 23 17  2  0  0  0  0
 24 19  1  0  0  0  0
 25 24  2  0  0  0  0
 27 26  1  0  0  0  0
 30 29  1  6  0  0  0
 30 28  1  0  0  0  0
 31 33  2  0  0  0  0
 32 30  1  0  0  0  0
 32 34  2  0  0  0  0
 33 36  1  0  0  0  0
 33 35  1  0  0  0  0
 35 32  1  0  0  0  0
 37 38  1  0  0  0  0
 39 43  2  0  0  0  0
 40 36  1  0  0  0  0
 40 38  1  0  0  0  0
 41 37  1  0  0  0  0
 42 40  1  0  0  0  0
 43 42  1  0  0  0  0
 43 41  1  0  0  0  0
 44 30  1  0  0  0  0
 45 47  2  0  0  0  0
 46 44  1  0  0  0  0
 47 46  1  0  0  0  0
 48 47  1  0  0  0  0
 49 48  1  0  0  0  0
 50 49  1  0  0  0  0
 51 52  1  0  0  0  0
 51 50  1  0  0  0  0
M  END
>  <MODEL>
1

>  <REMARK>
 VINA RESULT:      -6.7      0.000      0.000
  Name = 
  19 active torsions:
  status: ('A' for Active; 'I' for Inactive)
    1  A    between atoms: C_1  and  C_41
    2  A    between atoms: C_2  and  C_30
    3  A    between atoms: C_7  and  C_36
    4  A    between atoms: C_16  and  C_40
    5  A    between atoms: C_16  and  O_47
    6  A    between atoms: C_18  and  N_34
    7  A    between atoms: C_18  and  C_36
    8  A    between atoms: C_19  and  O_33
    9  A    between atoms: N_23  and  O_33
   10  A    between atoms: C_26  and  C_37
   11  A    between atoms: C_28  and  C_35
   12  A    between atoms: C_28  and  C_39
   13  A    between atoms: C_29  and  C_40
   14  A    between atoms: O_32  and  C_38
   15  A    between atoms: O_32  and  C_39
   16  A    between atoms: C_36  and  C_41
   17  A    between atoms: C_37  and  C_38
   18  A    between atoms: C_37  and  C_43
   19  A    between atoms: C_44  and  O_47
                            x       y       z     vdW  Elec       q    Type
                         _______ _______ _______ _____ _____    ______ ____

>  <TORSDO>
F 19

$$$$
=
 OpenBabel11062420113D

 52 56  0  0  1  0  0  0  0  0999 V2000
  187.7150  176.6650  141.9820 C   0  0  2  0  0  3  0  0  0  0  0  0
  188.0890  175.2400  140.6440 O   0  0  0  0  0  0  0  0  0  0  0  0
  187.8920  174.2210  142.8170 C   0  0  0  0  0  1  0  0  0  0  0  0
  187.4420  176.4120  140.6350 O   0  0  0  0  0  0  0  0  0  0  0  0
  188.4540  175.3700  141.9840 C   0  0  2  0  0  0  0  0  0  0  0  0
  189.9710  175.5310  142.0920 C   0  0  0  0  0  2  0  0  0  0  0  0
  190.8850  173.4020  141.5870 O   0  0  0  0  0  0  0  0  0  0  0  0
  190.6890  174.2770  142.4740 C   0  0  0  0  0  0  0  0  0  0  0  0
  191.1740  174.1080  143.7780 O   0  0  0  0  0  0  0  0  0  0  0  0
  192.1480  172.1420  144.4380 O   0  0  0  0  0  0  0  0  0  0  0  0
  192.3020  173.3530  144.1300 C   0  0  0  0  0  0  0  0  0  0  0  0
  193.6710  173.9710  144.2180 C   0  0  2  0  0  3  0  0  0  0  0  0
  195.9680  173.3140  145.2760 C   0  0  2  0  0  0  0  0  0  0  0  0
  196.6740  174.0570  146.2420 O   0  0  0  0  0  0  0  0  0  0  0  0
  195.4640  174.6150  145.7920 C   0  0  2  0  0  3  0  0  0  0  0  0
  194.4640  173.5270  145.4550 C   0  0  1  0  0  3  0  0  0  0  0  0
  197.7290  175.5280  142.9700 C   0  0  0  0  0  3  0  0  0  0  0  0
  197.8380  174.2800  143.8060 C   0  0  0  0  0  2  0  0  0  0  0  0
  196.7050  172.1060  143.2190 C   0  0  0  0  0  2  0  0  0  0  0  0
  197.6280  174.6720  139.2360 C   0  0  0  0  0  1  0  0  0  0  0  0
  197.5570  174.4340  140.7000 C   0  0  0  0  0  0  0  0  0  0  0  0
  196.5160  173.4990  143.8490 C   0  0  1  0  0  3  0  0  0  0  0  0
  197.6320  175.5800  141.6300 C   0  0  0  0  0  3  0  0  0  0  0  0
  196.9970  172.1220  141.7430 C   0  0  0  0  0  3  0  0  0  0  0  0
  197.2840  173.2420  141.1440 C   0  0  0  0  0  0  0  0  0  0  0  0
  193.6020  175.4950  144.1130 C   0  0  0  0  0  2  0  0  0  0  0  0
  193.9720  175.9980  142.7270 C   0  0  0  0  0  1  0  0  0  0  0  0
  186.3980  176.6590  142.7650 C   0  0  0  0  0  2  0  0  0  0  0  0
  186.7470  179.0510  142.3270 C   0  0  0  0  0  1  0  0  0  0  0  0
  185.8290  178.0580  143.0330 C   0  0  1  0  0  0  0  0  0  0  0  0
  182.7140  177.2180  139.4240 O   0  0  0  0  0  0  0  0  0  0  0  0
  184.4340  178.1400  142.4560 C   0  0  0  0  0  0  0  0  0  0  0  0
  182.9800  178.0080  140.3670 C   0  0  0  0  0  0  0  0  0  0  0  0
  183.4450  178.3080  143.2200 O   0  0  0  0  0  0  0  0  0  0  0  0
  184.2230  177.8640  141.0650 N   0  0  0  0  0  2  0  0  0  0  0  0
  182.0620  179.0150  140.6840 O   0  0  0  0  0  0  0  0  0  0  0  0
  178.6180  180.0960  140.3300 C   0  0  0  0  0  2  0  0  0  0  0  0
  180.1210  180.1890  140.5770 C   0  0  0  0  0  2  0  0  0  0  0  0
  178.1290  177.2000  142.4100 O   0  0  0  0  0  0  0  0  0  0  0  0
  180.7020  178.8490  140.5320 N   0  0  0  0  0  0  0  0  0  0  0  0
  178.0170  179.1770  141.2390 O   0  0  0  0  0  0  0  0  0  0  0  0
  180.2310  178.0920  141.6970 C   0  0  0  0  0  2  0  0  0  0  0  0
  178.7330  178.1070  141.7810 C   0  0  0  0  0  0  0  0  0  0  0  0
  185.8500  178.3640  144.5430 C   0  0  0  0  0  2  0  0  0  0  0  0
  185.9330  176.5100  146.7150 O   0  0  0  0  0  0  0  0  0  0  0  0
  187.0600  177.8780  145.1920 N   0  0  0  0  0  2  0  0  0  0  0  0
  187.0320  176.9150  146.2500 C   0  0  0  0  0  0  0  0  0  0  0  0
  188.2180  176.4130  146.7800 O   0  0  0  0  0  0  0  0  0  0  0  0
  189.2290  175.8510  145.9540 C   0  0  0  0  0  2  0  0  0  0  0  0
  190.5860  176.3480  146.4080 C   0  0  0  0  0  2  0  0  0  0  0  0
  191.2640  175.2950  147.2600 C   0  0  0  0  0  2  0  0  0  0  0  0
  192.6250  175.5390  147.3020 F   0  0  0  0  0  0  0  0  0  0  0  0
  1  5  1  0  0  0  0
  1 28  1  1  0  0  0
  2  5  1  0  0  0  0
  4  2  1  0  0  0  0
  4  1  1  0  0  0  0
  5  6  1  0  0  0  0
  5  3  1  1  0  0  0
  6  8  1  0  0  0  0
  7  8  2  0  0  0  0
  8  9  1  0  0  0  0
  9 11  1  0  0  0  0
 11 12  1  0  0  0  0
 11 10  2  0  0  0  0
 12 26  1  1  0  0  0
 13 16  1  0  0  0  0
 13 15  1  0  0  0  0
 13 14  1  1  0  0  0
 15 14  1  1  0  0  0
 16 12  1  6  0  0  0
 16 15  1  0  0  0  0
 17 18  1  0  0  0  0
 18 22  1  0  0  0  0
 20 21  1  0  0  0  0
 21 25  2  0  0  0  0
 21 23  1  0  0  0  0
 22 19  1  1  0  0  0
 22 13  1  0  0  0  0
 23 17  2  0  0  0  0
 24 19  1  0  0  0  0
 25 24  2  0  0  0  0
 27 26  1  0  0  0  0
 28 30  1  0  0  0  0
 30 29  1  6  0  0  0
 30 44  1  0  0  0  0
 31 33  2  0  0  0  0
 32 30  1  0  0  0  0
 32 34  2  0  0  0  0
 33 36  1  0  0  0  0
 33 35  1  0  0  0  0
 35 32  1  0  0  0  0
 37 38  1  0  0  0  0
 37 41  1  0  0  0  0
 40 38  1  0  0  0  0
 40 36  1  0  0  0  0
 40 42  1  0  0  0  0
 41 43  1  0  0  0  0
 42 43  1  0  0  0  0
 43 39  2  0  0  0  0
 44 46  1  0  0  0  0
 46 47  1  0  0  0  0
 47 45  2  0  0  0  0
 47 48  1  0  0  0  0
 49 50  1  0  0  0  0
 49 48  1  0  0  0  0
 50 51  1  0  0  0  0
 51 52  1  0  0  0  0
M  END
>  <MODEL>
2

>  <REMARK>
 VINA RESULT:      -6.7      4.535     10.419
  Name = 
  19 active torsions:
  status: ('A' for Active; 'I' for Inactive)
    1  A    between atoms: C_1  and  C_41
    2  A    between atoms: C_2  and  C_30
    3  A    between atoms: C_7  and  C_36
    4  A    between atoms: C_16  and  C_40
    5  A    between atoms: C_16  and  O_47
    6  A    between atoms: C_18  and  N_34
    7  A    between atoms: C_18  and  C_36
    8  A    between atoms: C_19  and  O_33
    9  A    between atoms: N_23  and  O_33
   10  A    between atoms: C_26  and  C_37
   11  A    between atoms: C_28  and  C_35
   12  A    between atoms: C_28  and  C_39
   13  A    between atoms: C_29  and  C_40
   14  A    between atoms: O_32  and  C_38
   15  A    between atoms: O_32  and  C_39
   16  A    between atoms: C_36  and  C_41
   17  A    between atoms: C_37  and  C_38
   18  A    between atoms: C_37  and  C_43
   19  A    between atoms: C_44  and  O_47
                            x       y       z     vdW  Elec       q    Type
                         _______ _______ _______ _____ _____    ______ ____

>  <TORSDO>
F 19

$$$$
=
 OpenBabel11062420113D

 52 56  0  0  1  0  0  0  0  0999 V2000
  190.6530  172.3380  141.6590 C   0  0  2  0  0  3  0  0  0  0  0  0
  191.4090  170.6400  142.3710 O   0  0  0  0  0  0  0  0  0  0  0  0
  192.3540  172.4790  143.6050 C   0  0  0  0  0  1  0  0  0  0  0  0
  190.2430  171.0120  141.8290 O   0  0  0  0  0  0  0  0  0  0  0  0
  191.9580  171.9150  142.2420 C   0  0  2  0  0  0  0  0  0  0  0  0
  193.1010  171.8860  141.2270 C   0  0  0  0  0  2  0  0  0  0  0  0
  194.2860  169.8980  141.7460 O   0  0  0  0  0  0  0  0  0  0  0  0
  194.3180  171.1580  141.7030 C   0  0  0  0  0  0  0  0  0  0  0  0
  195.4780  171.8670  142.0430 O   0  0  0  0  0  0  0  0  0  0  0  0
  196.0100  171.0200  144.1040 O   0  0  0  0  0  0  0  0  0  0  0  0
  195.9770  172.0230  143.3440 C   0  0  0  0  0  0  0  0  0  0  0  0
  196.4010  173.3660  143.8730 C   0  0  2  0  0  3  0  0  0  0  0  0
  196.0400  175.6320  142.6210 C   0  0  2  0  0  0  0  0  0  0  0  0
  196.9020  176.7450  142.6650 O   0  0  0  0  0  0  0  0  0  0  0  0
  197.2820  175.6350  143.4400 C   0  0  2  0  0  3  0  0  0  0  0  0
  196.8490  174.3420  142.7760 C   0  0  1  0  0  3  0  0  0  0  0  0
  194.8530  176.2810  146.0110 C   0  0  0  0  0  3  0  0  0  0  0  0
  194.9960  176.8510  144.6250 C   0  0  0  0  0  2  0  0  0  0  0  0
  193.5910  176.1160  142.6650 C   0  0  0  0  0  2  0  0  0  0  0  0
  191.1840  175.5050  146.8040 C   0  0  0  0  0  1  0  0  0  0  0  0
  192.3680  175.8300  145.9680 C   0  0  0  0  0  0  0  0  0  0  0  0
  194.8130  175.7790  143.5400 C   0  0  1  0  0  3  0  0  0  0  0  0
  193.7090  175.8670  146.5860 C   0  0  0  0  0  3  0  0  0  0  0  0
  192.2700  176.0460  143.3820 C   0  0  0  0  0  3  0  0  0  0  0  0
  192.2330  175.9350  144.6780 C   0  0  0  0  0  0  0  0  0  0  0  0
  197.4620  173.2250  144.9650 C   0  0  0  0  0  2  0  0  0  0  0  0
  196.8930  173.4460  146.3580 C   0  0  0  0  0  1  0  0  0  0  0  0
  189.8020  173.2390  142.5610 C   0  0  0  0  0  2  0  0  0  0  0  0
  187.5790  172.7350  141.6480 C   0  0  0  0  0  1  0  0  0  0  0  0
  188.5890  173.8580  141.8540 C   0  0  1  0  0  0  0  0  0  0  0  0
  189.1510  177.6560  144.8010 O   0  0  0  0  0  0  0  0  0  0  0  0
  188.0000  174.9320  142.7390 C   0  0  0  0  0  0  0  0  0  0  0  0
  188.4210  176.6580  144.5660 C   0  0  0  0  0  0  0  0  0  0  0  0
  186.7880  175.2560  142.6150 O   0  0  0  0  0  0  0  0  0  0  0  0
  188.8570  175.6920  143.6030 N   0  0  0  0  0  2  0  0  0  0  0  0
  187.2230  176.5160  145.2730 O   0  0  0  0  0  0  0  0  0  0  0  0
  184.8100  178.4190  147.1990 C   0  0  0  0  0  2  0  0  0  0  0  0
  185.6870  177.2440  146.7800 C   0  0  0  0  0  2  0  0  0  0  0  0
  183.6330  179.1440  143.8760 O   0  0  0  0  0  0  0  0  0  0  0  0
  186.3970  177.5850  145.5490 N   0  0  0  0  0  0  0  0  0  0  0  0
  183.9530  178.8100  146.1300 O   0  0  0  0  0  0  0  0  0  0  0  0
  185.4250  177.6680  144.4530 C   0  0  0  0  0  2  0  0  0  0  0  0
  184.3060  178.6060  144.7940 C   0  0  0  0  0  0  0  0  0  0  0  0
  188.9980  174.4050  140.4730 C   0  0  0  0  0  2  0  0  0  0  0  0
  190.5370  173.7850  138.1470 O   0  0  0  0  0  0  0  0  0  0  0  0
  188.5680  173.5420  139.3820 N   0  0  0  0  0  2  0  0  0  0  0  0
  189.4070  173.2390  138.2630 C   0  0  0  0  0  0  0  0  0  0  0  0
  188.9870  172.3370  137.2880 O   0  0  0  0  0  0  0  0  0  0  0  0
  189.8070  171.2560  136.8660 C   0  0  0  0  0  2  0  0  0  0  0  0
  189.6580  170.1020  137.8360 C   0  0  0  0  0  2  0  0  0  0  0  0
  190.9570  169.8890  138.5880 C   0  0  0  0  0  2  0  0  0  0  0  0
  191.8870  170.8280  138.1800 F   0  0  0  0  0  0  0  0  0  0  0  0
  1  4  1  0  0  0  0
  1  5  1  0  0  0  0
  1 28  1  1  0  0  0
  4  2  1  0  0  0  0
  5  2  1  0  0  0  0
  5  3  1  1  0  0  0
  6  8  1  0  0  0  0
  6  5  1  0  0  0  0
  8  7  2  0  0  0  0
  8  9  1  0  0  0  0
  9 11  1  0  0  0  0
 11 12  1  0  0  0  0
 11 10  2  0  0  0  0
 12 26  1  1  0  0  0
 13 14  1  6  0  0  0
 13 16  1  0  0  0  0
 13 15  1  0  0  0  0
 13 22  1  0  0  0  0
 15 14  1  6  0  0  0
 16 15  1  0  0  0  0
 16 12  1  1  0  0  0
 17 23  2  0  0  0  0
 18 17  1  0  0  0  0
 19 24  1  0  0  0  0
 21 23  1  0  0  0  0
 21 20  1  0  0  0  0
 22 19  1  6  0  0  0
 22 18  1  0  0  0  0
 24 25  2  0  0  0  0
 25 21  2  0  0  0  0
 26 27  1  0  0  0  0
 30 29  1  6  0  0  0
 30 28  1  0  0  0  0
 30 32  1  0  0  0  0
 32 35  1  0  0  0  0
 33 31  2  0  0  0  0
 33 36  1  0  0  0  0
 34 32  2  0  0  0  0
 35 33  1  0  0  0  0
 36 40  1  0  0  0  0
 38 37  1  0  0  0  0
 39 43  2  0  0  0  0
 40 38  1  0  0  0  0
 41 37  1  0  0  0  0
 42 43  1  0  0  0  0
 42 40  1  0  0  0  0
 43 41  1  0  0  0  0
 44 30  1  0  0  0  0
 45 47  2  0  0  0  0
 46 44  1  0  0  0  0
 47 46  1  0  0  0  0
 48 47  1  0  0  0  0
 49 48  1  0  0  0  0
 49 50  1  0  0  0  0
 50 51  1  0  0  0  0
 52 51  1  0  0  0  0
M  END
>  <MODEL>
3

>  <REMARK>
 VINA RESULT:      -6.6      3.161      8.112
  Name = 
  19 active torsions:
  status: ('A' for Active; 'I' for Inactive)
    1  A    between atoms: C_1  and  C_41
    2  A    between atoms: C_2  and  C_30
    3  A    between atoms: C_7  and  C_36
    4  A    between atoms: C_16  and  C_40
    5  A    between atoms: C_16  and  O_47
    6  A    between atoms: C_18  and  N_34
    7  A    between atoms: C_18  and  C_36
    8  A    between atoms: C_19  and  O_33
    9  A    between atoms: N_23  and  O_33
   10  A    between atoms: C_26  and  C_37
   11  A    between atoms: C_28  and  C_35
   12  A    between atoms: C_28  and  C_39
   13  A    between atoms: C_29  and  C_40
   14  A    between atoms: O_32  and  C_38
   15  A    between atoms: O_32  and  C_39
   16  A    between atoms: C_36  and  C_41
   17  A    between atoms: C_37  and  C_38
   18  A    between atoms: C_37  and  C_43
   19  A    between atoms: C_44  and  O_47
                            x       y       z     vdW  Elec       q    Type
                         _______ _______ _______ _____ _____    ______ ____

>  <TORSDO>
F 19

$$$$
=
 OpenBabel11062420113D

 52 56  0  0  1  0  0  0  0  0999 V2000
  190.8050  172.3680  140.3950 C   0  0  2  0  0  3  0  0  0  0  0  0
  190.5870  170.9140  139.0530 O   0  0  0  0  0  0  0  0  0  0  0  0
  191.3190  169.9390  141.1300 C   0  0  0  0  0  1  0  0  0  0  0  0
  189.9940  172.0910  139.2910 O   0  0  0  0  0  0  0  0  0  0  0  0
  191.4790  171.0680  140.1140 C   0  0  2  0  0  0  0  0  0  0  0  0
  192.9020  171.2200  139.5740 C   0  0  0  0  0  2  0  0  0  0  0  0
  193.8740  171.5520  141.7110 O   0  0  0  0  0  0  0  0  0  0  0  0
  193.8330  171.9240  140.5070 C   0  0  0  0  0  0  0  0  0  0  0  0
  194.6740  172.9410  140.0340 O   0  0  0  0  0  0  0  0  0  0  0  0
  194.0170  175.1330  139.9430 O   0  0  0  0  0  0  0  0  0  0  0  0
  194.7080  174.2550  140.5220 C   0  0  0  0  0  0  0  0  0  0  0  0
  195.6000  174.6510  141.6670 C   0  0  2  0  0  3  0  0  0  0  0  0
  194.9370  175.9210  143.8520 C   0  0  2  0  0  0  0  0  0  0  0  0
  195.6980  176.9210  144.4890 O   0  0  0  0  0  0  0  0  0  0  0  0
  196.2630  176.3520  143.3330 C   0  0  2  0  0  3  0  0  0  0  0  0
  195.1820  175.9640  142.3430 C   0  0  1  0  0  3  0  0  0  0  0  0
  197.0430  173.7100  145.8510 C   0  0  0  0  0  3  0  0  0  0  0  0
  195.8200  174.5890  145.8610 C   0  0  0  0  0  2  0  0  0  0  0  0
  193.6510  173.9710  144.7340 C   0  0  0  0  0  2  0  0  0  0  0  0
  196.0730  170.0070  146.0490 C   0  0  0  0  0  1  0  0  0  0  0  0
  195.8820  171.4670  145.8490 C   0  0  0  0  0  0  0  0  0  0  0  0
  195.0670  174.5410  144.5240 C   0  0  1  0  0  3  0  0  0  0  0  0
  197.0550  172.3650  145.8700 C   0  0  0  0  0  3  0  0  0  0  0  0
  193.6160  172.5250  145.1510 C   0  0  0  0  0  3  0  0  0  0  0  0
  194.7100  171.9200  145.5130 C   0  0  0  0  0  0  0  0  0  0  0  0
  197.0690  174.6800  141.2440 C   0  0  0  0  0  2  0  0  0  0  0  0
  197.2750  175.3900  139.9150 C   0  0  0  0  0  1  0  0  0  0  0  0
  189.9360  172.3860  141.6570 C   0  0  0  0  0  2  0  0  0  0  0  0
  191.4220  174.2820  142.1400 C   0  0  0  0  0  1  0  0  0  0  0  0
  190.0650  173.6750  142.4800 C   0  0  1  0  0  0  0  0  0  0  0  0
  188.5590  178.1180  141.2910 O   0  0  0  0  0  0  0  0  0  0  0  0
  188.9570  174.6240  142.0840 C   0  0  0  0  0  0  0  0  0  0  0  0
  188.2080  177.0490  141.8540 C   0  0  0  0  0  0  0  0  0  0  0  0
  187.8820  174.1720  141.6060 O   0  0  0  0  0  0  0  0  0  0  0  0
  189.1940  176.0380  142.1000 N   0  0  0  0  0  2  0  0  0  0  0  0
  186.8740  176.8960  142.2440 O   0  0  0  0  0  0  0  0  0  0  0  0
  185.7210  177.1540  145.6730 C   0  0  0  0  0  2  0  0  0  0  0  0
  186.2190  176.5080  144.3840 C   0  0  0  0  0  2  0  0  0  0  0  0
  183.2860  179.2560  144.0600 O   0  0  0  0  0  0  0  0  0  0  0  0
  186.3490  177.5320  143.3490 N   0  0  0  0  0  0  0  0  0  0  0  0
  184.5230  177.8880  145.4340 O   0  0  0  0  0  0  0  0  0  0  0  0
  185.0100  178.0000  142.9780 C   0  0  0  0  0  2  0  0  0  0  0  0
  184.2390  178.4450  144.1850 C   0  0  0  0  0  0  0  0  0  0  0  0
  190.0410  173.3510  143.9860 C   0  0  0  0  0  2  0  0  0  0  0  0
  190.9260  174.5440  146.4260 O   0  0  0  0  0  0  0  0  0  0  0  0
  189.3020  174.3410  144.7580 N   0  0  0  0  0  2  0  0  0  0  0  0
  189.8240  174.9310  145.9530 C   0  0  0  0  0  0  0  0  0  0  0  0
  189.1220  175.9400  146.6080 O   0  0  0  0  0  0  0  0  0  0  0  0
  189.5800  177.2850  146.6190 C   0  0  0  0  0  2  0  0  0  0  0  0
  189.5200  177.8490  145.2140 C   0  0  0  0  0  2  0  0  0  0  0  0
  190.9020  177.8390  144.5930 C   0  0  0  0  0  2  0  0  0  0  0  0
  190.9320  178.7070  143.5170 F   0  0  0  0  0  0  0  0  0  0  0  0
  1 28  1  1  0  0  0
  2  4  1  0  0  0  0
  2  5  1  0  0  0  0
  4  1  1  0  0  0  0
  5  1  1  0  0  0  0
  5  3  1  1  0  0  0
  6  5  1  0  0  0  0
  6  8  1  0  0  0  0
  8  7  2  0  0  0  0
  9  8  1  0  0  0  0
  9 11  1  0  0  0  0
 10 11  2  0  0  0  0
 11 12  1  0  0  0  0
 12 26  1  6  0  0  0
 13 14  1  1  0  0  0
 13 22  1  0  0  0  0
 15 13  1  0  0  0  0
 15 14  1  6  0  0  0
 16 12  1  1  0  0  0
 16 15  1  0  0  0  0
 16 13  1  0  0  0  0
 17 18  1  0  0  0  0
 17 23  2  0  0  0  0
 19 24  1  0  0  0  0
 21 23  1  0  0  0  0
 21 20  1  0  0  0  0
 22 19  1  1  0  0  0
 22 18  1  0  0  0  0
 24 25  2  0  0  0  0
 25 21  2  0  0  0  0
 27 26  1  0  0  0  0
 28 30  1  0  0  0  0
 30 29  1  6  0  0  0
 30 44  1  0  0  0  0
 31 33  2  0  0  0  0
 32 35  1  0  0  0  0
 32 30  1  0  0  0  0
 33 35  1  0  0  0  0
 33 36  1  0  0  0  0
 34 32  2  0  0  0  0
 36 40  1  0  0  0  0
 38 37  1  0  0  0  0
 39 43  2  0  0  0  0
 40 38  1  0  0  0  0
 41 37  1  0  0  0  0
 42 40  1  0  0  0  0
 42 43  1  0  0  0  0
 43 41  1  0  0  0  0
 44 46  1  0  0  0  0
 46 47  1  0  0  0  0
 47 45  2  0  0  0  0
 47 48  1  0  0  0  0
 48 49  1  0  0  0  0
 50 49  1  0  0  0  0
 51 50  1  0  0  0  0
 52 51  1  0  0  0  0
M  END
>  <MODEL>
4

>  <REMARK>
 VINA RESULT:      -6.6      2.868      8.826
  Name = 
  19 active torsions:
  status: ('A' for Active; 'I' for Inactive)
    1  A    between atoms: C_1  and  C_41
    2  A    between atoms: C_2  and  C_30
    3  A    between atoms: C_7  and  C_36
    4  A    between atoms: C_16  and  C_40
    5  A    between atoms: C_16  and  O_47
    6  A    between atoms: C_18  and  N_34
    7  A    between atoms: C_18  and  C_36
    8  A    between atoms: C_19  and  O_33
    9  A    between atoms: N_23  and  O_33
   10  A    between atoms: C_26  and  C_37
   11  A    between atoms: C_28  and  C_35
   12  A    between atoms: C_28  and  C_39
   13  A    between atoms: C_29  and  C_40
   14  A    between atoms: O_32  and  C_38
   15  A    between atoms: O_32  and  C_39
   16  A    between atoms: C_36  and  C_41
   17  A    between atoms: C_37  and  C_38
   18  A    between atoms: C_37  and  C_43
   19  A    between atoms: C_44  and  O_47
                            x       y       z     vdW  Elec       q    Type
                         _______ _______ _______ _____ _____    ______ ____

>  <TORSDO>
F 19

$$$$
=
 OpenBabel11062420113D

 52 56  0  0  1  0  0  0  0  0999 V2000
  193.1140  175.9880  145.4080 C   0  0  2  0  0  3  0  0  0  0  0  0
  194.8090  176.7250  144.6700 O   0  0  0  0  0  0  0  0  0  0  0  0
  194.2350  174.7370  143.4390 C   0  0  0  0  0  1  0  0  0  0  0  0
  193.7090  177.2410  145.2330 O   0  0  0  0  0  0  0  0  0  0  0  0
  194.3500  175.4150  144.8020 C   0  0  2  0  0  0  0  0  0  0  0  0
  195.2270  174.6580  145.8000 C   0  0  0  0  0  2  0  0  0  0  0  0
  196.5300  172.8210  145.0580 O   0  0  0  0  0  0  0  0  0  0  0  0
  195.4050  173.2100  145.4750 C   0  0  0  0  0  0  0  0  0  0  0  0
  194.3560  172.3040  145.6810 O   0  0  0  0  0  0  0  0  0  0  0  0
  194.7780  170.1620  146.3740 O   0  0  0  0  0  0  0  0  0  0  0  0
  194.4200  170.9250  145.4390 C   0  0  0  0  0  0  0  0  0  0  0  0
  194.1430  170.3460  144.0770 C   0  0  2  0  0  3  0  0  0  0  0  0
  192.0760  169.6100  142.6580 C   0  0  2  0  0  0  0  0  0  0  0  0
  191.7890  168.2960  142.2400 O   0  0  0  0  0  0  0  0  0  0  0  0
  192.9750  168.4670  142.9770 C   0  0  2  0  0  3  0  0  0  0  0  0
  192.8170  169.5780  143.9960 C   0  0  1  0  0  3  0  0  0  0  0  0
  194.0250  169.6280  139.5710 C   0  0  0  0  0  3  0  0  0  0  0  0
  192.6530  169.8140  140.1640 C   0  0  0  0  0  2  0  0  0  0  0  0
  191.9820  171.8300  141.5200 C   0  0  0  0  0  2  0  0  0  0  0  0
  195.4710  172.9740  138.3850 C   0  0  0  0  0  1  0  0  0  0  0  0
  194.5540  172.0540  139.1070 C   0  0  0  0  0  0  0  0  0  0  0  0
  192.7100  170.4730  141.5500 C   0  0  1  0  0  3  0  0  0  0  0  0
  194.8240  170.6010  139.0980 C   0  0  0  0  0  3  0  0  0  0  0  0
  192.6450  172.8750  140.6640 C   0  0  0  0  0  3  0  0  0  0  0  0
  193.6120  172.5450  139.8580 C   0  0  0  0  0  0  0  0  0  0  0  0
  195.3150  169.4960  143.5850 C   0  0  0  0  0  2  0  0  0  0  0  0
  196.2340  170.2630  142.6480 C   0  0  0  0  0  1  0  0  0  0  0  0
  191.8630  175.9060  144.5270 C   0  0  0  0  0  2  0  0  0  0  0  0
  190.9840  175.3680  146.7570 C   0  0  0  0  0  1  0  0  0  0  0  0
  190.5800  175.5710  145.3000 C   0  0  1  0  0  0  0  0  0  0  0  0
  186.5050  177.8070  146.6460 O   0  0  0  0  0  0  0  0  0  0  0  0
  189.6200  176.7320  145.1840 C   0  0  0  0  0  0  0  0  0  0  0  0
  187.2830  177.6230  145.6740 C   0  0  0  0  0  0  0  0  0  0  0  0
  190.0050  177.8210  144.6770 O   0  0  0  0  0  0  0  0  0  0  0  0
  188.3250  176.6480  145.7960 N   0  0  0  0  0  2  0  0  0  0  0  0
  187.0860  178.3580  144.5010 O   0  0  0  0  0  0  0  0  0  0  0  0
  186.6240  177.6700  140.9690 C   0  0  0  0  0  2  0  0  0  0  0  0
  187.2150  178.2860  142.2340 C   0  0  0  0  0  2  0  0  0  0  0  0
  183.1950  178.1720  141.9380 O   0  0  0  0  0  0  0  0  0  0  0  0
  186.4540  177.8290  143.3950 N   0  0  0  0  0  0  0  0  0  0  0  0
  185.2270  177.9410  140.8860 O   0  0  0  0  0  0  0  0  0  0  0  0
  185.1140  178.4220  143.3440 C   0  0  0  0  0  2  0  0  0  0  0  0
  184.4500  178.1430  142.0280 C   0  0  0  0  0  0  0  0  0  0  0  0
  189.9690  174.2580  144.7770 C   0  0  0  0  0  2  0  0  0  0  0  0
  187.9990  174.7390  142.7640 O   0  0  0  0  0  0  0  0  0  0  0  0
  190.1660  174.0830  143.3440 N   0  0  0  0  0  2  0  0  0  0  0  0
  189.1480  174.3830  142.3850 C   0  0  0  0  0  0  0  0  0  0  0  0
  189.4110  174.2860  141.0210 O   0  0  0  0  0  0  0  0  0  0  0  0
  188.5520  173.5720  140.1410 C   0  0  0  0  0  2  0  0  0  0  0  0
  188.8140  174.0110  138.7150 C   0  0  0  0  0  2  0  0  0  0  0  0
  189.9480  173.1990  138.1240 C   0  0  0  0  0  2  0  0  0  0  0  0
  190.0600  171.9990  138.8020 F   0  0  0  0  0  0  0  0  0  0  0  0
  1 28  1  6  0  0  0
  2  5  1  0  0  0  0
  2  4  1  0  0  0  0
  4  1  1  0  0  0  0
  5  3  1  6  0  0  0
  5  1  1  0  0  0  0
  5  6  1  0  0  0  0
  7  8  2  0  0  0  0
  8  9  1  0  0  0  0
  8  6  1  0  0  0  0
 11  9  1  0  0  0  0
 11 10  2  0  0  0  0
 12 26  1  1  0  0  0
 12 11  1  0  0  0  0
 13 14  1  6  0  0  0
 13 15  1  0  0  0  0
 13 16  1  0  0  0  0
 15 14  1  1  0  0  0
 15 16  1  0  0  0  0
 16 12  1  6  0  0  0
 17 18  1  0  0  0  0
 19 22  1  0  0  0  0
 20 21  1  0  0  0  0
 21 25  2  0  0  0  0
 22 18  1  6  0  0  0
 22 13  1  0  0  0  0
 23 21  1  0  0  0  0
 23 17  2  0  0  0  0
 24 19  1  0  0  0  0
 25 24  2  0  0  0  0
 27 26  1  0  0  0  0
 28 30  1  0  0  0  0
 30 29  1  1  0  0  0
 32 30  1  0  0  0  0
 32 35  1  0  0  0  0
 33 35  1  0  0  0  0
 33 31  2  0  0  0  0
 34 32  2  0  0  0  0
 36 33  1  0  0  0  0
 37 38  1  0  0  0  0
 38 40  1  0  0  0  0
 39 43  2  0  0  0  0
 40 36  1  0  0  0  0
 41 37  1  0  0  0  0
 41 43  1  0  0  0  0
 42 40  1  0  0  0  0
 43 42  1  0  0  0  0
 44 30  1  0  0  0  0
 46 44  1  0  0  0  0
 47 45  2  0  0  0  0
 47 46  1  0  0  0  0
 48 47  1  0  0  0  0
 49 48  1  0  0  0  0
 50 49  1  0  0  0  0
 51 50  1  0  0  0  0
 51 52  1  0  0  0  0
M  END
>  <MODEL>
5

>  <REMARK>
 VINA RESULT:      -6.3      3.136      8.193
  Name = 
  19 active torsions:
  status: ('A' for Active; 'I' for Inactive)
    1  A    between atoms: C_1  and  C_41
    2  A    between atoms: C_2  and  C_30
    3  A    between atoms: C_7  and  C_36
    4  A    between atoms: C_16  and  C_40
    5  A    between atoms: C_16  and  O_47
    6  A    between atoms: C_18  and  N_34
    7  A    between atoms: C_18  and  C_36
    8  A    between atoms: C_19  and  O_33
    9  A    between atoms: N_23  and  O_33
   10  A    between atoms: C_26  and  C_37
   11  A    between atoms: C_28  and  C_35
   12  A    between atoms: C_28  and  C_39
   13  A    between atoms: C_29  and  C_40
   14  A    between atoms: O_32  and  C_38
   15  A    between atoms: O_32  and  C_39
   16  A    between atoms: C_36  and  C_41
   17  A    between atoms: C_37  and  C_38
   18  A    between atoms: C_37  and  C_43
   19  A    between atoms: C_44  and  O_47
                            x       y       z     vdW  Elec       q    Type
                         _______ _______ _______ _____ _____    ______ ____

>  <TORSDO>
F 19

$$$$
=
 OpenBabel11062420113D

 52 56  0  0  1  0  0  0  0  0999 V2000
  190.4110  172.5390  140.6340 C   0  0  2  0  0  3  0  0  0  0  0  0
  189.9340  171.4290  139.0520 O   0  0  0  0  0  0  0  0  0  0  0  0
  191.0090  170.0200  140.6830 C   0  0  0  0  0  1  0  0  0  0  0  0
  189.4120  172.5030  139.6570 O   0  0  0  0  0  0  0  0  0  0  0  0
  191.0040  171.3570  139.9440 C   0  0  2  0  0  0  0  0  0  0  0  0
  192.3100  171.6660  139.2120 C   0  0  0  0  0  2  0  0  0  0  0  0
  194.1600  173.1100  139.5500 O   0  0  0  0  0  0  0  0  0  0  0  0
  193.3570  172.2920  140.0760 C   0  0  0  0  0  0  0  0  0  0  0  0
  193.4050  172.0090  141.4470 O   0  0  0  0  0  0  0  0  0  0  0  0
  194.8600  170.2400  141.3940 O   0  0  0  0  0  0  0  0  0  0  0  0
  194.3420  171.1700  142.0670 C   0  0  0  0  0  0  0  0  0  0  0  0
  194.6850  171.3070  143.5260 C   0  0  2  0  0  3  0  0  0  0  0  0
  196.8180  172.6830  144.1470 C   0  0  2  0  0  0  0  0  0  0  0  0
  197.5450  172.5800  145.3490 O   0  0  0  0  0  0  0  0  0  0  0  0
  196.4090  171.7580  145.2380 C   0  0  2  0  0  3  0  0  0  0  0  0
  196.1950  171.3300  143.7990 C   0  0  1  0  0  3  0  0  0  0  0  0
  194.9690  175.1390  146.1160 C   0  0  0  0  0  3  0  0  0  0  0  0
  196.1610  174.9200  145.2220 C   0  0  0  0  0  2  0  0  0  0  0  0
  195.9890  174.5660  142.7320 C   0  0  0  0  0  2  0  0  0  0  0  0
  192.2760  177.2030  144.3340 C   0  0  0  0  0  1  0  0  0  0  0  0
  193.4990  176.3710  144.4730 C   0  0  0  0  0  0  0  0  0  0  0  0
  195.8700  173.8970  144.1140 C   0  0  1  0  0  3  0  0  0  0  0  0
  193.8370  175.7860  145.7870 C   0  0  0  0  0  3  0  0  0  0  0  0
  194.9450  175.6140  142.4530 C   0  0  0  0  0  3  0  0  0  0  0  0
  194.1770  176.0450  143.4120 C   0  0  0  0  0  0  0  0  0  0  0  0
  193.9780  170.2440  144.3660 C   0  0  0  0  0  2  0  0  0  0  0  0
  192.4930  170.1520  144.0550 C   0  0  0  0  0  1  0  0  0  0  0  0
  189.7810  172.2430  141.9990 C   0  0  0  0  0  2  0  0  0  0  0  0
  191.3450  173.9470  142.8270 C   0  0  0  0  0  1  0  0  0  0  0  0
  189.9420  173.3810  143.0160 C   0  0  1  0  0  0  0  0  0  0  0  0
  188.8050  177.9860  142.0530 O   0  0  0  0  0  0  0  0  0  0  0  0
  188.9090  174.4460  142.7290 C   0  0  0  0  0  0  0  0  0  0  0  0
  188.3910  176.9390  142.6160 C   0  0  0  0  0  0  0  0  0  0  0  0
  187.7610  174.1170  142.3230 O   0  0  0  0  0  0  0  0  0  0  0  0
  189.2860  175.8290  142.7610 N   0  0  0  0  0  2  0  0  0  0  0  0
  187.0800  176.9050  143.1010 O   0  0  0  0  0  0  0  0  0  0  0  0
  185.5130  179.7950  144.6330 C   0  0  0  0  0  2  0  0  0  0  0  0
  186.3130  178.5010  144.5240 C   0  0  0  0  0  2  0  0  0  0  0  0
  182.8010  178.6740  142.5500 O   0  0  0  0  0  0  0  0  0  0  0  0
  186.2790  178.0260  143.1420 N   0  0  0  0  0  0  0  0  0  0  0  0
  184.1960  179.6150  144.1190 O   0  0  0  0  0  0  0  0  0  0  0  0
  184.9150  177.5890  142.8280 C   0  0  0  0  0  2  0  0  0  0  0  0
  183.9180  178.6690  143.1300 C   0  0  0  0  0  0  0  0  0  0  0  0
  189.8270  172.8340  144.4520 C   0  0  0  0  0  2  0  0  0  0  0  0
  188.7870  174.8500  146.1880 O   0  0  0  0  0  0  0  0  0  0  0  0
  190.6070  173.6080  145.4080 N   0  0  0  0  0  2  0  0  0  0  0  0
  190.0150  174.5760  146.2790 C   0  0  0  0  0  0  0  0  0  0  0  0
  190.7850  175.2280  147.2390 O   0  0  0  0  0  0  0  0  0  0  0  0
  190.5550  176.5870  147.5870 C   0  0  0  0  0  2  0  0  0  0  0  0
  191.6530  177.0620  148.5160 C   0  0  0  0  0  2  0  0  0  0  0  0
  191.1930  178.2900  149.2740 C   0  0  0  0  0  2  0  0  0  0  0  0
  189.9880  178.7290  148.7560 F   0  0  0  0  0  0  0  0  0  0  0  0
  1 28  1  1  0  0  0
  2  4  1  0  0  0  0
  2  5  1  0  0  0  0
  4  1  1  0  0  0  0
  5  1  1  0  0  0  0
  5  3  1  1  0  0  0
  6  5  1  0  0  0  0
  6  8  1  0  0  0  0
  7  8  2  0  0  0  0
  8  9  1  0  0  0  0
  9 11  1  0  0  0  0
 10 11  2  0  0  0  0
 11 12  1  0  0  0  0
 12 26  1  1  0  0  0
 13 15  1  0  0  0  0
 13 14  1  6  0  0  0
 15 14  1  6  0  0  0
 16 12  1  1  0  0  0
 16 13  1  0  0  0  0
 16 15  1  0  0  0  0
 18 17  1  0  0  0  0
 20 21  1  0  0  0  0
 21 23  1  0  0  0  0
 22 19  1  6  0  0  0
 22 13  1  0  0  0  0
 22 18  1  0  0  0  0
 23 17  2  0  0  0  0
 24 19  1  0  0  0  0
 24 25  2  0  0  0  0
 25 21  2  0  0  0  0
 27 26  1  0  0  0  0
 28 30  1  0  0  0  0
 30 29  1  6  0  0  0
 30 44  1  0  0  0  0
 31 33  2  0  0  0  0
 32 35  1  0  0  0  0
 32 30  1  0  0  0  0
 33 35  1  0  0  0  0
 33 36  1  0  0  0  0
 34 32  2  0  0  0  0
 36 40  1  0  0  0  0
 38 37  1  0  0  0  0
 39 43  2  0  0  0  0
 40 38  1  0  0  0  0
 41 37  1  0  0  0  0
 42 43  1  0  0  0  0
 42 40  1  0  0  0  0
 43 41  1  0  0  0  0
 44 46  1  0  0  0  0
 45 47  2  0  0  0  0
 46 47  1  0  0  0  0
 47 48  1  0  0  0  0
 48 49  1  0  0  0  0
 49 50  1  0  0  0  0
 50 51  1  0  0  0  0
 52 51  1  0  0  0  0
M  END
>  <MODEL>
6

>  <REMARK>
 VINA RESULT:      -6.3      3.533      8.902
  Name = 
  19 active torsions:
  status: ('A' for Active; 'I' for Inactive)
    1  A    between atoms: C_1  and  C_41
    2  A    between atoms: C_2  and  C_30
    3  A    between atoms: C_7  and  C_36
    4  A    between atoms: C_16  and  C_40
    5  A    between atoms: C_16  and  O_47
    6  A    between atoms: C_18  and  N_34
    7  A    between atoms: C_18  and  C_36
    8  A    between atoms: C_19  and  O_33
    9  A    between atoms: N_23  and  O_33
   10  A    between atoms: C_26  and  C_37
   11  A    between atoms: C_28  and  C_35
   12  A    between atoms: C_28  and  C_39
   13  A    between atoms: C_29  and  C_40
   14  A    between atoms: O_32  and  C_38
   15  A    between atoms: O_32  and  C_39
   16  A    between atoms: C_36  and  C_41
   17  A    between atoms: C_37  and  C_38
   18  A    between atoms: C_37  and  C_43
   19  A    between atoms: C_44  and  O_47
                            x       y       z     vdW  Elec       q    Type
                         _______ _______ _______ _____ _____    ______ ____

>  <TORSDO>
F 19

$$$$
=
 OpenBabel11062420113D

 52 56  0  0  1  0  0  0  0  0999 V2000
  193.3710  172.7350  140.0770 C   0  0  2  0  0  3  0  0  0  0  0  0
  193.2400  174.3640  138.9420 O   0  0  0  0  0  0  0  0  0  0  0  0
  194.9260  174.7310  140.6220 C   0  0  0  0  0  1  0  0  0  0  0  0
  193.0750  173.0500  138.7480 O   0  0  0  0  0  0  0  0  0  0  0  0
  193.5320  174.2010  140.2960 C   0  0  2  0  0  0  0  0  0  0  0  0
  192.4190  174.8190  141.1430 C   0  0  0  0  0  2  0  0  0  0  0  0
  192.9150  176.4280  142.8130 O   0  0  0  0  0  0  0  0  0  0  0  0
  192.8480  175.2020  142.5230 C   0  0  0  0  0  0  0  0  0  0  0  0
  193.1190  174.2150  143.4790 O   0  0  0  0  0  0  0  0  0  0  0  0
  192.4200  172.5180  144.8500 O   0  0  0  0  0  0  0  0  0  0  0  0
  192.1710  173.6400  144.3380 C   0  0  0  0  0  0  0  0  0  0  0  0
  190.8410  174.2940  144.6000 C   0  0  2  0  0  3  0  0  0  0  0  0
  189.7980  176.1150  146.1580 C   0  0  2  0  0  0  0  0  0  0  0  0
  188.8840  175.8800  147.2030 O   0  0  0  0  0  0  0  0  0  0  0  0
  189.2960  174.7500  146.4740 C   0  0  2  0  0  3  0  0  0  0  0  0
  190.7270  174.9090  146.0020 C   0  0  1  0  0  3  0  0  0  0  0  0
  186.6530  176.6580  144.3880 C   0  0  0  0  0  3  0  0  0  0  0  0
  187.7840  177.3250  145.1260 C   0  0  0  0  0  2  0  0  0  0  0  0
  190.1010  177.5970  144.1720 C   0  0  0  0  0  2  0  0  0  0  0  0
  186.8180  177.4290  140.6380 C   0  0  0  0  0  1  0  0  0  0  0  0
  187.2940  177.3410  142.0420 C   0  0  0  0  0  0  0  0  0  0  0  0
  189.1280  176.6280  144.8710 C   0  0  1  0  0  3  0  0  0  0  0  0
  186.4410  176.6930  143.0600 C   0  0  0  0  0  3  0  0  0  0  0  0
  189.6970  177.9910  142.7780 C   0  0  0  0  0  3  0  0  0  0  0  0
  188.5100  177.7000  142.3320 C   0  0  0  0  0  0  0  0  0  0  0  0
  189.6830  173.3380  144.3120 C   0  0  0  0  0  2  0  0  0  0  0  0
  189.2390  173.3880  142.8590 C   0  0  0  0  0  1  0  0  0  0  0  0
  194.6730  171.9270  140.1170 C   0  0  0  0  0  2  0  0  0  0  0  0
  195.2970  169.6130  140.6510 C   0  0  0  0  0  1  0  0  0  0  0  0
  194.7290  170.8950  141.2500 C   0  0  1  0  0  0  0  0  0  0  0  0
  196.0560  171.0470  145.9020 O   0  0  0  0  0  0  0  0  0  0  0  0
  195.6430  171.4090  142.3390 C   0  0  0  0  0  0  0  0  0  0  0  0
  196.0120  171.7220  144.8410 C   0  0  0  0  0  0  0  0  0  0  0  0
  196.7690  171.8900  142.0400 O   0  0  0  0  0  0  0  0  0  0  0  0
  195.2980  171.1990  143.7150 N   0  0  0  0  0  2  0  0  0  0  0  0
  196.6390  172.9720  144.8070 O   0  0  0  0  0  0  0  0  0  0  0  0
  196.2140  176.4040  143.7130 C   0  0  0  0  0  2  0  0  0  0  0  0
  196.9240  175.1020  144.0740 C   0  0  0  0  0  2  0  0  0  0  0  0
  194.0980  176.4340  146.6230 O   0  0  0  0  0  0  0  0  0  0  0  0
  195.9450  174.1410  144.5760 N   0  0  0  0  0  0  0  0  0  0  0  0
  195.4520  176.8810  144.8180 O   0  0  0  0  0  0  0  0  0  0  0  0
  195.4490  174.6080  145.8750 C   0  0  0  0  0  2  0  0  0  0  0  0
  194.9340  176.0140  145.7820 C   0  0  0  0  0  0  0  0  0  0  0  0
  193.3110  170.6000  141.7740 C   0  0  0  0  0  2  0  0  0  0  0  0
  190.4790  170.2260  141.7110 O   0  0  0  0  0  0  0  0  0  0  0  0
  192.6070  169.6190  140.9590 N   0  0  0  0  0  2  0  0  0  0  0  0
  191.1810  169.5130  140.9430 C   0  0  0  0  0  0  0  0  0  0  0  0
  190.5480  168.6210  140.0810 O   0  0  0  0  0  0  0  0  0  0  0  0
  190.7220  168.6900  138.6720 C   0  0  0  0  0  2  0  0  0  0  0  0
  189.7220  169.6660  138.0880 C   0  0  0  0  0  2  0  0  0  0  0  0
  190.3870  171.0060  137.8470 C   0  0  0  0  0  2  0  0  0  0  0  0
  190.0700  171.8720  138.8770 F   0  0  0  0  0  0  0  0  0  0  0  0
  1 28  1  6  0  0  0
  1  5  1  0  0  0  0
  2  5  1  0  0  0  0
  4  2  1  0  0  0  0
  4  1  1  0  0  0  0
  5  3  1  1  0  0  0
  5  6  1  0  0  0  0
  6  8  1  0  0  0  0
  8  7  2  0  0  0  0
  8  9  1  0  0  0  0
  9 11  1  0  0  0  0
 11 12  1  0  0  0  0
 11 10  2  0  0  0  0
 12 26  1  1  0  0  0
 13 15  1  0  0  0  0
 13 14  1  1  0  0  0
 15 14  1  1  0  0  0
 16 12  1  6  0  0  0
 16 13  1  0  0  0  0
 16 15  1  0  0  0  0
 17 18  1  0  0  0  0
 20 21  1  0  0  0  0
 21 25  2  0  0  0  0
 21 23  1  0  0  0  0
 22 19  1  1  0  0  0
 22 18  1  0  0  0  0
 22 13  1  0  0  0  0
 23 17  2  0  0  0  0
 24 19  1  0  0  0  0
 25 24  2  0  0  0  0
 27 26  1  0  0  0  0
 28 30  1  0  0  0  0
 30 29  1  6  0  0  0
 30 44  1  0  0  0  0
 30 32  1  0  0  0  0
 32 35  1  0  0  0  0
 33 31  2  0  0  0  0
 34 32  2  0  0  0  0
 35 33  1  0  0  0  0
 36 33  1  0  0  0  0
 37 38  1  0  0  0  0
 37 41  1  0  0  0  0
 38 40  1  0  0  0  0
 40 36  1  0  0  0  0
 40 42  1  0  0  0  0
 41 43  1  0  0  0  0
 43 42  1  0  0  0  0
 43 39  2  0  0  0  0
 46 44  1  0  0  0  0
 47 46  1  0  0  0  0
 47 45  2  0  0  0  0
 48 47  1  0  0  0  0
 49 48  1  0  0  0  0
 50 49  1  0  0  0  0
 51 50  1  0  0  0  0
 51 52  1  0  0  0  0
M  END
>  <MODEL>
7

>  <REMARK>
 VINA RESULT:      -6.3      2.795      5.833
  Name = 
  19 active torsions:
  status: ('A' for Active; 'I' for Inactive)
    1  A    between atoms: C_1  and  C_41
    2  A    between atoms: C_2  and  C_30
    3  A    between atoms: C_7  and  C_36
    4  A    between atoms: C_16  and  C_40
    5  A    between atoms: C_16  and  O_47
    6  A    between atoms: C_18  and  N_34
    7  A    between atoms: C_18  and  C_36
    8  A    between atoms: C_19  and  O_33
    9  A    between atoms: N_23  and  O_33
   10  A    between atoms: C_26  and  C_37
   11  A    between atoms: C_28  and  C_35
   12  A    between atoms: C_28  and  C_39
   13  A    between atoms: C_29  and  C_40
   14  A    between atoms: O_32  and  C_38
   15  A    between atoms: O_32  and  C_39
   16  A    between atoms: C_36  and  C_41
   17  A    between atoms: C_37  and  C_38
   18  A    between atoms: C_37  and  C_43
   19  A    between atoms: C_44  and  O_47
                            x       y       z     vdW  Elec       q    Type
                         _______ _______ _______ _____ _____    ______ ____

>  <TORSDO>
F 19

$$$$
=
 OpenBabel11062420113D

 52 56  0  0  1  0  0  0  0  0999 V2000
  189.5290  173.8420  141.3600 C   0  0  2  0  0  3  0  0  0  0  0  0
  189.7550  171.9480  140.7920 O   0  0  0  0  0  0  0  0  0  0  0  0
  189.3160  171.9930  143.1600 C   0  0  0  0  0  1  0  0  0  0  0  0
  189.2830  173.0660  140.2240 O   0  0  0  0  0  0  0  0  0  0  0  0
  190.0740  172.6020  141.9820 C   0  0  2  0  0  0  0  0  0  0  0  0
  191.5920  172.6260  142.1670 C   0  0  0  0  0  2  0  0  0  0  0  0
  192.7290  171.5710  140.3730 O   0  0  0  0  0  0  0  0  0  0  0  0
  192.3590  172.6630  140.8840 C   0  0  0  0  0  0  0  0  0  0  0  0
  192.6130  173.8850  140.2470 O   0  0  0  0  0  0  0  0  0  0  0  0
  194.2260  175.2040  139.2950 O   0  0  0  0  0  0  0  0  0  0  0  0
  193.8160  174.6000  140.3210 C   0  0  0  0  0  0  0  0  0  0  0  0
  194.6600  174.6030  141.5680 C   0  0  2  0  0  3  0  0  0  0  0  0
  194.9470  175.9400  143.7940 C   0  0  2  0  0  0  0  0  0  0  0  0
  196.0120  176.8080  144.1040 O   0  0  0  0  0  0  0  0  0  0  0  0
  196.0740  176.1700  142.8510 C   0  0  2  0  0  3  0  0  0  0  0  0
  194.6840  175.9590  142.2870 C   0  0  1  0  0  3  0  0  0  0  0  0
  197.2000  173.5660  145.4090 C   0  0  0  0  0  3  0  0  0  0  0  0
  196.0680  174.5340  145.6270 C   0  0  0  0  0  2  0  0  0  0  0  0
  193.6940  174.0880  144.9040 C   0  0  0  0  0  2  0  0  0  0  0  0
  196.0050  169.9460  145.8030 C   0  0  0  0  0  1  0  0  0  0  0  0
  195.8920  171.4170  145.6280 C   0  0  0  0  0  0  0  0  0  0  0  0
  195.0890  174.5510  144.4430 C   0  0  1  0  0  3  0  0  0  0  0  0
  197.1140  172.2240  145.4350 C   0  0  0  0  0  3  0  0  0  0  0  0
  193.6240  172.6470  145.3320 C   0  0  0  0  0  3  0  0  0  0  0  0
  194.7160  171.9590  145.5000 C   0  0  0  0  0  0  0  0  0  0  0  0
  196.0730  174.0930  141.2840 C   0  0  0  0  0  2  0  0  0  0  0  0
  196.2330  172.6180  141.6160 C   0  0  0  0  0  1  0  0  0  0  0  0
  188.1900  174.3190  141.9350 C   0  0  0  0  0  2  0  0  0  0  0  0
  187.9340  176.2610  140.4540 C   0  0  0  0  0  1  0  0  0  0  0  0
  188.0140  175.8430  141.9180 C   0  0  1  0  0  0  0  0  0  0  0  0
  184.2830  178.8450  142.6170 O   0  0  0  0  0  0  0  0  0  0  0  0
  186.7300  176.1970  142.6310 C   0  0  0  0  0  0  0  0  0  0  0  0
  185.0350  178.0160  143.1920 C   0  0  0  0  0  0  0  0  0  0  0  0
  186.0720  175.3010  143.2260 O   0  0  0  0  0  0  0  0  0  0  0  0
  186.1790  177.5140  142.4920 N   0  0  0  0  0  2  0  0  0  0  0  0
  184.7390  177.6320  144.5040 O   0  0  0  0  0  0  0  0  0  0  0  0
  186.3890  176.7170  147.6020 C   0  0  0  0  0  2  0  0  0  0  0  0
  185.3680  176.6810  146.4690 C   0  0  0  0  0  2  0  0  0  0  0  0
  186.3030  180.2930  148.0000 O   0  0  0  0  0  0  0  0  0  0  0  0
  185.6440  177.7710  145.5360 N   0  0  0  0  0  0  0  0  0  0  0  0
  186.4140  178.0050  148.2120 O   0  0  0  0  0  0  0  0  0  0  0  0
  185.3450  179.0460  146.1980 C   0  0  0  0  0  2  0  0  0  0  0  0
  186.0730  179.1590  147.5040 C   0  0  0  0  0  0  0  0  0  0  0  0
  189.2390  176.5280  142.5540 C   0  0  0  0  0  2  0  0  0  0  0  0
  188.9570  177.8650  145.0620 O   0  0  0  0  0  0  0  0  0  0  0  0
  189.5800  175.9650  143.8530 N   0  0  0  0  0  2  0  0  0  0  0  0
  189.3750  176.6760  145.0780 C   0  0  0  0  0  0  0  0  0  0  0  0
  189.6320  176.0640  146.3020 O   0  0  0  0  0  0  0  0  0  0  0  0
  190.4230  176.6930  147.3010 C   0  0  0  0  0  2  0  0  0  0  0  0
  191.8080  176.0780  147.3090 C   0  0  0  0  0  2  0  0  0  0  0  0
  192.8480  177.1440  147.0310 C   0  0  0  0  0  2  0  0  0  0  0  0
  194.1010  176.5620  146.9670 F   0  0  0  0  0  0  0  0  0  0  0  0
  1 28  1  1  0  0  0
  1  5  1  0  0  0  0
  2  5  1  0  0  0  0
  4  2  1  0  0  0  0
  4  1  1  0  0  0  0
  5  6  1  0  0  0  0
  5  3  1  1  0  0  0
  7  8  2  0  0  0  0
  8  6  1  0  0  0  0
  9 11  1  0  0  0  0
  9  8  1  0  0  0  0
 10 11  2  0  0  0  0
 11 12  1  0  0  0  0
 12 26  1  6  0  0  0
 13 14  1  1  0  0  0
 13 22  1  0  0  0  0
 15 13  1  0  0  0  0
 15 14  1  1  0  0  0
 16 12  1  6  0  0  0
 16 15  1  0  0  0  0
 16 13  1  0  0  0  0
 17 23  2  0  0  0  0
 17 18  1  0  0  0  0
 19 24  1  0  0  0  0
 21 20  1  0  0  0  0
 22 19  1  1  0  0  0
 22 18  1  0  0  0  0
 23 21  1  0  0  0  0
 24 25  2  0  0  0  0
 25 21  2  0  0  0  0
 26 27  1  0  0  0  0
 30 29  1  6  0  0  0
 30 28  1  0  0  0  0
 30 44  1  0  0  0  0
 30 32  1  0  0  0  0
 31 33  2  0  0  0  0
 32 34  2  0  0  0  0
 33 36  1  0  0  0  0
 35 32  1  0  0  0  0
 35 33  1  0  0  0  0
 36 40  1  0  0  0  0
 37 41  1  0  0  0  0
 38 37  1  0  0  0  0
 40 42  1  0  0  0  0
 40 38  1  0  0  0  0
 42 43  1  0  0  0  0
 43 39  2  0  0  0  0
 43 41  1  0  0  0  0
 44 46  1  0  0  0  0
 45 47  2  0  0  0  0
 46 47  1  0  0  0  0
 47 48  1  0  0  0  0
 48 49  1  0  0  0  0
 49 50  1  0  0  0  0
 51 50  1  0  0  0  0
 52 51  1  0  0  0  0
M  END
>  <MODEL>
8

>  <REMARK>
 VINA RESULT:      -6.3      3.198      9.407
  Name = 
  19 active torsions:
  status: ('A' for Active; 'I' for Inactive)
    1  A    between atoms: C_1  and  C_41
    2  A    between atoms: C_2  and  C_30
    3  A    between atoms: C_7  and  C_36
    4  A    between atoms: C_16  and  C_40
    5  A    between atoms: C_16  and  O_47
    6  A    between atoms: C_18  and  N_34
    7  A    between atoms: C_18  and  C_36
    8  A    between atoms: C_19  and  O_33
    9  A    between atoms: N_23  and  O_33
   10  A    between atoms: C_26  and  C_37
   11  A    between atoms: C_28  and  C_35
   12  A    between atoms: C_28  and  C_39
   13  A    between atoms: C_29  and  C_40
   14  A    between atoms: O_32  and  C_38
   15  A    between atoms: O_32  and  C_39
   16  A    between atoms: C_36  and  C_41
   17  A    between atoms: C_37  and  C_38
   18  A    between atoms: C_37  and  C_43
   19  A    between atoms: C_44  and  O_47
                            x       y       z     vdW  Elec       q    Type
                         _______ _______ _______ _____ _____    ______ ____

>  <TORSDO>
F 19

$$$$
=
 OpenBabel11062420113D

 52 56  0  0  1  0  0  0  0  0999 V2000
  190.0620  173.7740  138.7980 C   0  0  2  0  0  3  0  0  0  0  0  0
  190.1120  173.1790  136.8990 O   0  0  0  0  0  0  0  0  0  0  0  0
  190.8900  171.3740  138.2910 C   0  0  0  0  0  1  0  0  0  0  0  0
  189.3460  174.0070  137.6210 O   0  0  0  0  0  0  0  0  0  0  0  0
  190.9280  172.8700  137.9880 C   0  0  2  0  0  0  0  0  0  0  0  0
  192.3350  173.4200  137.7510 C   0  0  0  0  0  2  0  0  0  0  0  0
  194.1000  171.8390  137.8430 O   0  0  0  0  0  0  0  0  0  0  0  0
  193.4080  172.6780  138.4810 C   0  0  0  0  0  0  0  0  0  0  0  0
  193.6640  172.9520  139.8310 O   0  0  0  0  0  0  0  0  0  0  0  0
  195.2520  174.5640  139.4770 O   0  0  0  0  0  0  0  0  0  0  0  0
  194.5260  173.9520  140.3030 C   0  0  0  0  0  0  0  0  0  0  0  0
  194.6560  174.2570  141.7710 C   0  0  2  0  0  3  0  0  0  0  0  0
  195.0870  176.4170  143.1770 C   0  0  2  0  0  0  0  0  0  0  0  0
  196.1250  176.6000  144.1120 O   0  0  0  0  0  0  0  0  0  0  0  0
  196.0670  175.3410  143.4860 C   0  0  2  0  0  3  0  0  0  0  0  0
  195.5480  175.4700  142.0680 C   0  0  1  0  0  3  0  0  0  0  0  0
  193.3860  175.1520  146.1490 C   0  0  0  0  0  3  0  0  0  0  0  0
  193.7040  176.3820  145.3400 C   0  0  0  0  0  2  0  0  0  0  0  0
  192.6380  176.9010  143.1150 C   0  0  0  0  0  2  0  0  0  0  0  0
  189.6820  174.2210  145.8330 C   0  0  0  0  0  1  0  0  0  0  0  0
  190.9590  174.9030  145.4980 C   0  0  0  0  0  0  0  0  0  0  0  0
  193.7330  176.0880  143.8330 C   0  0  1  0  0  3  0  0  0  0  0  0
  192.1920  174.5390  146.2260 C   0  0  0  0  0  3  0  0  0  0  0  0
  191.2310  176.5040  143.4720 C   0  0  0  0  0  3  0  0  0  0  0  0
  191.0090  175.7020  144.4730 C   0  0  0  0  0  0  0  0  0  0  0  0
  195.1040  173.0250  142.5580 C   0  0  0  0  0  2  0  0  0  0  0  0
  196.2180  172.2640  141.8570 C   0  0  0  0  0  1  0  0  0  0  0  0
  189.1480  173.0640  139.8030 C   0  0  0  0  0  2  0  0  0  0  0  0
  190.8800  173.9280  141.3150 C   0  0  0  0  0  1  0  0  0  0  0  0
  189.4460  173.4120  141.2670 C   0  0  1  0  0  0  0  0  0  0  0  0
  186.7080  177.2830  140.2930 O   0  0  0  0  0  0  0  0  0  0  0  0
  188.4900  174.4920  141.7190 C   0  0  0  0  0  0  0  0  0  0  0  0
  187.4010  176.7340  141.1890 C   0  0  0  0  0  0  0  0  0  0  0  0
  187.8430  174.3510  142.7930 O   0  0  0  0  0  0  0  0  0  0  0  0
  188.1980  175.5940  140.8490 N   0  0  0  0  0  2  0  0  0  0  0  0
  187.3860  177.2730  142.4800 O   0  0  0  0  0  0  0  0  0  0  0  0
  184.6760  179.1990  143.9290 C   0  0  0  0  0  2  0  0  0  0  0  0
  186.0010  178.9090  143.2310 C   0  0  0  0  0  2  0  0  0  0  0  0
  185.1460  176.7640  146.5380 O   0  0  0  0  0  0  0  0  0  0  0  0
  186.2180  177.4650  143.1870 N   0  0  0  0  0  0  0  0  0  0  0  0
  184.6360  178.5710  145.2080 O   0  0  0  0  0  0  0  0  0  0  0  0
  186.4610  176.9830  144.5510 C   0  0  0  0  0  2  0  0  0  0  0  0
  185.3610  177.4080  145.4780 C   0  0  0  0  0  0  0  0  0  0  0  0
  189.3530  172.1500  142.1460 C   0  0  0  0  0  2  0  0  0  0  0  0
  190.7630  169.7080  141.6910 O   0  0  0  0  0  0  0  0  0  0  0  0
  190.6320  171.7910  142.7420 N   0  0  0  0  0  2  0  0  0  0  0  0
  191.3060  170.5660  142.4380 C   0  0  0  0  0  0  0  0  0  0  0  0
  192.5700  170.3050  142.9630 O   0  0  0  0  0  0  0  0  0  0  0  0
  192.9380  170.7220  144.2700 C   0  0  0  0  0  2  0  0  0  0  0  0
  194.2180  170.0230  144.6810 C   0  0  0  0  0  2  0  0  0  0  0  0
  194.9990  170.8970  145.6410 C   0  0  0  0  0  2  0  0  0  0  0  0
  194.1840  171.9090  146.1130 F   0  0  0  0  0  0  0  0  0  0  0  0
  1 28  1  1  0  0  0
  2  4  1  0  0  0  0
  2  5  1  0  0  0  0
  4  1  1  0  0  0  0
  5  3  1  1  0  0  0
  5  1  1  0  0  0  0
  6  5  1  0  0  0  0
  6  8  1  0  0  0  0
  7  8  2  0  0  0  0
  8  9  1  0  0  0  0
  9 11  1  0  0  0  0
 10 11  2  0  0  0  0
 11 12  1  0  0  0  0
 12 26  1  1  0  0  0
 13 15  1  0  0  0  0
 13 22  1  0  0  0  0
 13 14  1  6  0  0  0
 15 14  1  6  0  0  0
 16 12  1  1  0  0  0
 16 13  1  0  0  0  0
 16 15  1  0  0  0  0
 17 23  2  0  0  0  0
 18 17  1  0  0  0  0
 19 24  1  0  0  0  0
 21 20  1  0  0  0  0
 21 23  1  0  0  0  0
 22 19  1  6  0  0  0
 22 18  1  0  0  0  0
 24 25  2  0  0  0  0
 25 21  2  0  0  0  0
 27 26  1  0  0  0  0
 28 30  1  0  0  0  0
 30 29  1  1  0  0  0
 30 32  1  0  0  0  0
 30 44  1  0  0  0  0
 31 33  2  0  0  0  0
 32 34  2  0  0  0  0
 33 36  1  0  0  0  0
 35 33  1  0  0  0  0
 35 32  1  0  0  0  0
 36 40  1  0  0  0  0
 37 41  1  0  0  0  0
 38 37  1  0  0  0  0
 40 38  1  0  0  0  0
 40 42  1  0  0  0  0
 41 43  1  0  0  0  0
 42 43  1  0  0  0  0
 43 39  2  0  0  0  0
 44 46  1  0  0  0  0
 45 47  2  0  0  0  0
 47 46  1  0  0  0  0
 47 48  1  0  0  0  0
 48 49  1  0  0  0  0
 49 50  1  0  0  0  0
 50 51  1  0  0  0  0
 51 52  1  0  0  0  0
M  END
>  <MODEL>
9

>  <REMARK>
 VINA RESULT:      -6.2      2.949      8.038
  Name = 
  19 active torsions:
  status: ('A' for Active; 'I' for Inactive)
    1  A    between atoms: C_1  and  C_41
    2  A    between atoms: C_2  and  C_30
    3  A    between atoms: C_7  and  C_36
    4  A    between atoms: C_16  and  C_40
    5  A    between atoms: C_16  and  O_47
    6  A    between atoms: C_18  and  N_34
    7  A    between atoms: C_18  and  C_36
    8  A    between atoms: C_19  and  O_33
    9  A    between atoms: N_23  and  O_33
   10  A    between atoms: C_26  and  C_37
   11  A    between atoms: C_28  and  C_35
   12  A    between atoms: C_28  and  C_39
   13  A    between atoms: C_29  and  C_40
   14  A    between atoms: O_32  and  C_38
   15  A    between atoms: O_32  and  C_39
   16  A    between atoms: C_36  and  C_41
   17  A    between atoms: C_37  and  C_38
   18  A    between atoms: C_37  and  C_43
   19  A    between atoms: C_44  and  O_47
                            x       y       z     vdW  Elec       q    Type
                         _______ _______ _______ _____ _____    ______ ____

>  <TORSDO>
F 19

$$$$
