=
 OpenBabel11062419393D

 42 47  0  0  1  0  0  0  0  0999 V2000
  194.2680  174.4730  141.6970 P   0  0  2  0  0  0  0  0  0  0  0  0
  193.0400  176.8520  146.0710 C   0  0  0  0  0  3  0  0  0  0  0  0
  193.9800  175.0490  140.0820 O   0  0  0  0  0  1  0  0  0  0  0  0
  194.9780  175.4790  146.1250 N   0  0  0  0  0  0  0  0  0  0  0  0
  194.0330  176.0680  143.9960 C   0  0  0  0  0  0  0  0  0  0  0  0
  197.1400  174.1930  145.0950 N   0  0  0  0  0  1  0  0  0  0  0  0
  196.0800  174.4990  144.1460 C   0  0  2  0  0  3  0  0  0  0  0  0
  196.6700  175.0820  142.9420 N   0  0  0  0  0  2  0  0  0  0  0  0
  194.0290  176.1880  146.7830 C   0  0  0  0  0  3  0  0  0  0  0  0
  196.6260  172.9720  141.7190 C   0  0  0  0  0  1  0  0  0  0  0  0
  195.0330  175.4060  144.7650 C   0  0  0  0  0  0  0  0  0  0  0  0
  193.0180  176.7890  144.6790 C   0  0  0  0  0  0  0  0  0  0  0  0
  194.1150  176.1480  142.4950 C   0  0  0  0  0  2  0  0  0  0  0  0
  196.1620  174.4260  141.7220 C   0  0  1  0  0  0  0  0  0  0  0  0
  196.9740  176.3840  140.5970 O   0  0  0  0  0  0  0  0  0  0  0  0
  197.5070  175.1910  138.1020 C   0  0  0  0  0  2  0  0  0  0  0  0
  196.9870  172.8500  137.4980 C   0  0  0  0  0  3  0  0  0  0  0  0
  197.5100  174.1620  137.0440 C   0  0  0  0  0  0  0  0  0  0  0  0
  196.6270  173.0950  138.9580 C   0  0  0  0  0  3  0  0  0  0  0  0
  196.7380  175.1470  140.5110 C   0  0  0  0  0  0  0  0  0  0  0  0
  196.9770  174.4840  139.2540 N   0  0  0  0  0  0  0  0  0  0  0  0
  197.9130  174.3670  135.9110 O   0  0  0  0  0  0  0  0  0  0  0  0
  191.9550  177.4880  144.0120 N   0  0  0  0  0  2  0  0  0  0  0  0
  190.5570  177.4830  144.4260 C   0  0  0  0  0  2  0  0  0  0  0  0
  189.8760  172.3860  140.9050 C   0  0  0  0  0  3  0  0  0  0  0  0
  190.1370  174.2230  142.4380 C   0  0  0  0  0  0  0  0  0  0  0  0
  189.7180  173.3870  143.4850 C   0  0  0  0  0  0  0  0  0  0  0  0
  189.6390  173.9130  144.8550 C   0  0  0  0  0  3  0  0  0  0  0  0
  190.2250  173.7180  141.1410 C   0  0  0  0  0  3  0  0  0  0  0  0
  189.3880  172.0600  143.2090 C   0  0  0  0  0  3  0  0  0  0  0  0
  190.5870  175.6240  142.7420 C   0  0  0  0  0  2  0  0  0  0  0  0
  189.4700  171.5900  141.9330 N   0  0  0  0  0  0  0  0  0  0  0  0
  189.8200  176.2320  143.9380 C   0  0  1  0  0  0  0  0  0  0  0  0
  189.7310  175.2280  145.0760 C   0  0  0  0  0  3  0  0  0  0  0  0
  185.7420  178.0690  143.1380 C   0  0  0  0  0  0  0  0  0  0  0  0
  186.0340  177.0510  144.2420 C   0  0  0  0  0  2  0  0  0  0  0  0
  188.3900  176.6190  143.4890 C   0  0  1  0  0  3  0  0  0  0  0  0
  184.2880  177.9270  142.7450 C   0  0  0  0  0  1  0  0  0  0  0  0
  185.9570  179.4890  143.6420 C   0  0  0  0  0  1  0  0  0  0  0  0
  187.5000  177.0320  144.6620 C   0  0  0  0  0  2  0  0  0  0  0  0
  188.3870  177.9470  142.2280 S   0  0  0  0  0  0  0  0  0  0  0  0
  186.5970  177.7930  141.8980 C   0  0  0  0  0  2  0  0  0  0  0  0
  1  3  1  6  0  0  0
  1 14  1  0  0  0  0
  1 13  1  0  0  0  0
  2  9  1  0  0  0  0
  4  9  2  0  0  0  0
  5 12  1  0  0  0  0
  5 11  2  0  0  0  0
  7 11  1  0  0  0  0
  7  6  1  1  0  0  0
  8  7  1  0  0  0  0
 11  4  1  0  0  0  0
 12  2  2  0  0  0  0
 13  5  1  0  0  0  0
 14 10  1  6  0  0  0
 14  8  1  0  0  0  0
 16 21  1  0  0  0  0
 17 19  2  0  0  0  0
 18 17  1  0  0  0  0
 18 16  1  0  0  0  0
 19 21  1  0  0  0  0
 20 15  2  0  0  0  0
 20 14  1  0  0  0  0
 21 20  1  0  0  0  0
 22 18  2  0  0  0  0
 23 24  1  0  0  0  0
 23 12  1  0  0  0  0
 25 29  2  0  0  0  0
 25 32  1  0  0  0  0
 26 31  1  0  0  0  0
 26 27  2  0  0  0  0
 27 28  1  0  0  0  0
 28 34  2  0  0  0  0
 29 26  1  0  0  0  0
 30 27  1  0  0  0  0
 31 33  1  0  0  0  0
 32 30  2  0  0  0  0
 33 24  1  1  0  0  0
 33 34  1  0  0  0  0
 35 39  1  0  0  0  0
 35 36  1  0  0  0  0
 36 40  1  0  0  0  0
 37 33  1  0  0  0  0
 37 40  1  1  0  0  0
 38 35  1  0  0  0  0
 41 37  1  0  0  0  0
 42 41  1  0  0  0  0
 42 35  1  0  0  0  0
M  END
>  <MODEL>
1

>  <REMARK>
 VINA RESULT:      -8.4      0.000      0.000
  Name = 
  5 active torsions:
  status: ('A' for Active; 'I' for Inactive)
    1  A    between atoms: N_7  and  C_37
    2  A    between atoms: N_7  and  C_38
    3  A    between atoms: C_16  and  C_30
    4  A    between atoms: C_26  and  C_41
    5  A    between atoms: C_30  and  C_37
                            x       y       z     vdW  Elec       q    Type
                         _______ _______ _______ _____ _____    ______ ____

>  <TORSDO>
F 5

$$$$
=
 OpenBabel11062419393D

 42 47  0  0  1  0  0  0  0  0999 V2000
  194.5340  172.1430  145.1400 P   0  0  2  0  0  0  0  0  0  0  0  0
  193.7640  177.1410  145.9930 C   0  0  0  0  0  3  0  0  0  0  0  0
  193.3150  170.9200  144.9410 O   0  0  0  0  0  1  0  0  0  0  0  0
  195.7150  176.5680  144.7640 N   0  0  0  0  0  0  0  0  0  0  0  0
  194.0140  174.9010  145.0820 C   0  0  0  0  0  0  0  0  0  0  0  0
  197.2670  175.0400  143.1380 N   0  0  0  0  0  1  0  0  0  0  0  0
  196.2100  174.3320  143.8440 C   0  0  2  0  0  3  0  0  0  0  0  0
  195.5050  173.4620  142.9030 N   0  0  0  0  0  2  0  0  0  0  0  0
  194.9950  177.4860  145.4540 C   0  0  0  0  0  3  0  0  0  0  0  0
  196.7530  171.4770  143.5740 C   0  0  0  0  0  1  0  0  0  0  0  0
  195.2710  175.3000  144.5410 C   0  0  0  0  0  0  0  0  0  0  0  0
  193.2670  175.8490  145.8300 C   0  0  0  0  0  0  0  0  0  0  0  0
  193.4000  173.5670  144.7530 C   0  0  0  0  0  2  0  0  0  0  0  0
  195.3640  172.0940  143.4370 C   0  0  1  0  0  0  0  0  0  0  0  0
  194.7220  170.0290  142.3980 O   0  0  0  0  0  0  0  0  0  0  0  0
  192.8210  171.0840  140.6070 C   0  0  0  0  0  2  0  0  0  0  0  0
  192.3360  173.4880  140.2910 C   0  0  0  0  0  3  0  0  0  0  0  0
  192.0570  172.0990  139.8550 C   0  0  0  0  0  0  0  0  0  0  0  0
  193.3620  173.3140  141.4040 C   0  0  0  0  0  3  0  0  0  0  0  0
  194.5370  171.2770  142.4550 C   0  0  0  0  0  0  0  0  0  0  0  0
  193.5860  171.8760  141.5520 N   0  0  0  0  0  0  0  0  0  0  0  0
  191.2660  171.8210  138.9690 O   0  0  0  0  0  0  0  0  0  0  0  0
  191.9940  175.5600  146.4300 N   0  0  0  0  0  2  0  0  0  0  0  0
  190.7600  176.2920  146.1730 C   0  0  0  0  0  2  0  0  0  0  0  0
  188.7960  173.9860  140.7260 C   0  0  0  0  0  3  0  0  0  0  0  0
  189.5750  174.6710  142.8980 C   0  0  0  0  0  0  0  0  0  0  0  0
  189.2970  173.3840  143.3840 C   0  0  0  0  0  0  0  0  0  0  0  0
  189.5670  173.0600  144.7920 C   0  0  0  0  0  3  0  0  0  0  0  0
  189.3310  174.9730  141.5580 C   0  0  0  0  0  3  0  0  0  0  0  0
  188.7720  172.4250  142.5180 C   0  0  0  0  0  3  0  0  0  0  0  0
  190.2300  175.6800  143.7980 C   0  0  0  0  0  2  0  0  0  0  0  0
  188.5320  172.7440  141.2160 N   0  0  0  0  0  0  0  0  0  0  0  0
  189.8040  175.5020  145.2740 C   0  0  1  0  0  0  0  0  0  0  0  0
  189.8460  174.0340  145.6640 C   0  0  0  0  0  3  0  0  0  0  0  0
  185.9430  177.6160  146.4010 C   0  0  0  0  0  0  0  0  0  0  0  0
  186.4690  176.3500  147.0790 C   0  0  0  0  0  2  0  0  0  0  0  0
  188.3620  176.0340  145.4600 C   0  0  1  0  0  3  0  0  0  0  0  0
  184.4350  177.6240  146.5330 C   0  0  0  0  0  1  0  0  0  0  0  0
  186.4810  178.8620  147.0890 C   0  0  0  0  0  1  0  0  0  0  0  0
  187.9780  176.1790  146.9340 C   0  0  0  0  0  2  0  0  0  0  0  0
  188.0880  177.6300  144.6030 S   0  0  0  0  0  0  0  0  0  0  0  0
  186.2880  177.6220  144.9090 C   0  0  0  0  0  2  0  0  0  0  0  0
  1  3  1  6  0  0  0
  4  9  1  0  0  0  0
  5 12  2  0  0  0  0
  7  6  1  6  0  0  0
  7 11  1  0  0  0  0
  8 14  1  0  0  0  0
  8  7  1  0  0  0  0
  9  2  2  0  0  0  0
 11  4  2  0  0  0  0
 11  5  1  0  0  0  0
 12  2  1  0  0  0  0
 12 23  1  0  0  0  0
 13  5  1  0  0  0  0
 13  1  1  0  0  0  0
 14 10  1  1  0  0  0
 14  1  1  0  0  0  0
 15 20  2  0  0  0  0
 16 21  1  0  0  0  0
 17 19  2  0  0  0  0
 18 17  1  0  0  0  0
 18 16  1  0  0  0  0
 19 21  1  0  0  0  0
 20 14  1  0  0  0  0
 21 20  1  0  0  0  0
 22 18  2  0  0  0  0
 24 23  1  0  0  0  0
 25 32  2  0  0  0  0
 25 29  1  0  0  0  0
 26 27  1  0  0  0  0
 26 31  1  0  0  0  0
 27 28  1  0  0  0  0
 28 34  2  0  0  0  0
 29 26  2  0  0  0  0
 30 27  2  0  0  0  0
 31 33  1  0  0  0  0
 32 30  1  0  0  0  0
 33 37  1  0  0  0  0
 33 34  1  0  0  0  0
 33 24  1  1  0  0  0
 35 38  1  0  0  0  0
 35 36  1  0  0  0  0
 35 39  1  0  0  0  0
 37 40  1  1  0  0  0
 40 36  1  0  0  0  0
 41 42  1  0  0  0  0
 41 37  1  0  0  0  0
 42 35  1  0  0  0  0
M  END
>  <MODEL>
2

>  <REMARK>
 VINA RESULT:      -8.2      3.025      3.451
  Name = 
  5 active torsions:
  status: ('A' for Active; 'I' for Inactive)
    1  A    between atoms: N_7  and  C_37
    2  A    between atoms: N_7  and  C_38
    3  A    between atoms: C_16  and  C_30
    4  A    between atoms: C_26  and  C_41
    5  A    between atoms: C_30  and  C_37
                            x       y       z     vdW  Elec       q    Type
                         _______ _______ _______ _____ _____    ______ ____

>  <TORSDO>
F 5

$$$$
=
 OpenBabel11062419393D

 42 47  0  0  1  0  0  0  0  0999 V2000
  193.0180  172.3340  143.2550 P   0  0  2  0  0  0  0  0  0  0  0  0
  188.7240  172.8390  140.4980 C   0  0  0  0  0  3  0  0  0  0  0  0
  193.1430  172.2810  144.9880 O   0  0  0  0  0  1  0  0  0  0  0  0
  190.4720  171.5730  139.5050 N   0  0  0  0  0  0  0  0  0  0  0  0
  190.6010  172.0900  141.8480 C   0  0  0  0  0  0  0  0  0  0  0  0
  192.6880  170.0000  139.4710 N   0  0  0  0  0  1  0  0  0  0  0  0
  192.5070  170.8040  140.6710 C   0  0  2  0  0  3  0  0  0  0  0  0
  192.7250  169.9630  141.8470 N   0  0  0  0  0  2  0  0  0  0  0  0
  189.2880  172.2220  139.3900 C   0  0  0  0  0  3  0  0  0  0  0  0
  195.0220  170.7270  142.1510 C   0  0  0  0  0  1  0  0  0  0  0  0
  191.1420  171.4660  140.6870 C   0  0  0  0  0  0  0  0  0  0  0  0
  189.3750  172.7970  141.7290 C   0  0  0  0  0  0  0  0  0  0  0  0
  191.2110  171.8900  143.2090 C   0  0  0  0  0  2  0  0  0  0  0  0
  193.6480  170.6040  142.8030 C   0  0  1  0  0  0  0  0  0  0  0  0
  192.7730  168.9780  144.3360 O   0  0  0  0  0  0  0  0  0  0  0  0
  194.9610  168.9160  146.1080 C   0  0  0  0  0  2  0  0  0  0  0  0
  196.9520  170.3770  145.9710 C   0  0  0  0  0  3  0  0  0  0  0  0
  196.2400  169.3180  146.7270 C   0  0  0  0  0  0  0  0  0  0  0  0
  196.0310  170.6530  144.7890 C   0  0  0  0  0  3  0  0  0  0  0  0
  193.7480  169.7250  144.0410 C   0  0  0  0  0  0  0  0  0  0  0  0
  194.8910  169.7470  144.9190 N   0  0  0  0  0  0  0  0  0  0  0  0
  196.6730  168.8200  147.7530 O   0  0  0  0  0  0  0  0  0  0  0  0
  188.7390  173.4720  142.8260 N   0  0  0  0  0  2  0  0  0  0  0  0
  188.3540  174.8780  142.8370 C   0  0  0  0  0  2  0  0  0  0  0  0
  193.0540  175.7240  146.8420 C   0  0  0  0  0  3  0  0  0  0  0  0
  191.3560  175.5070  145.1490 C   0  0  0  0  0  0  0  0  0  0  0  0
  191.9730  176.5380  144.4240 C   0  0  0  0  0  0  0  0  0  0  0  0
  191.4060  176.9680  143.1380 C   0  0  0  0  0  3  0  0  0  0  0  0
  191.9040  175.0900  146.3620 C   0  0  0  0  0  3  0  0  0  0  0  0
  193.1260  177.1380  144.9330 C   0  0  0  0  0  3  0  0  0  0  0  0
  190.1730  174.7900  144.5630 C   0  0  0  0  0  2  0  0  0  0  0  0
  193.6370  176.7230  146.1250 N   0  0  0  0  0  0  0  0  0  0  0  0
  189.3070  175.7240  143.6860 C   0  0  1  0  0  0  0  0  0  0  0  0
  190.1880  176.5580  142.7700 C   0  0  0  0  0  3  0  0  0  0  0  0
  186.2310  177.9460  146.1850 C   0  0  0  0  0  0  0  0  0  0  0  0
  186.5360  178.2450  144.7150 C   0  0  0  0  0  2  0  0  0  0  0  0
  188.4860  176.6690  144.5970 C   0  0  1  0  0  3  0  0  0  0  0  0
  185.7260  179.2210  146.8260 C   0  0  0  0  0  1  0  0  0  0  0  0
  185.1380  176.8940  146.3070 C   0  0  0  0  0  1  0  0  0  0  0  0
  187.1420  177.0550  143.9790 C   0  0  0  0  0  2  0  0  0  0  0  0
  188.2060  175.9650  146.2650 S   0  0  0  0  0  0  0  0  0  0  0  0
  187.4960  177.5100  146.9290 C   0  0  0  0  0  2  0  0  0  0  0  0
  1  3  1  1  0  0  0
  2 12  1  0  0  0  0
  4 11  2  0  0  0  0
  5 13  1  0  0  0  0
  7  6  1  6  0  0  0
  7 11  1  0  0  0  0
  7  8  1  0  0  0  0
  8 14  1  0  0  0  0
  9  4  1  0  0  0  0
  9  2  2  0  0  0  0
 11  5  1  0  0  0  0
 12  5  2  0  0  0  0
 12 23  1  0  0  0  0
 13  1  1  0  0  0  0
 14 10  1  6  0  0  0
 14  1  1  0  0  0  0
 14 20  1  0  0  0  0
 16 18  1  0  0  0  0
 17 18  1  0  0  0  0
 18 22  2  0  0  0  0
 19 21  1  0  0  0  0
 19 17  2  0  0  0  0
 20 15  2  0  0  0  0
 20 21  1  0  0  0  0
 21 16  1  0  0  0  0
 23 24  1  0  0  0  0
 26 29  2  0  0  0  0
 27 30  2  0  0  0  0
 27 26  1  0  0  0  0
 28 27  1  0  0  0  0
 29 25  1  0  0  0  0
 30 32  1  0  0  0  0
 31 26  1  0  0  0  0
 32 25  2  0  0  0  0
 33 24  1  6  0  0  0
 33 31  1  0  0  0  0
 33 37  1  0  0  0  0
 34 28  2  0  0  0  0
 34 33  1  0  0  0  0
 35 39  1  0  0  0  0
 35 38  1  0  0  0  0
 35 42  1  0  0  0  0
 36 35  1  0  0  0  0
 37 40  1  6  0  0  0
 37 41  1  0  0  0  0
 40 36  1  0  0  0  0
 41 42  1  0  0  0  0
M  END
>  <MODEL>
3

>  <REMARK>
 VINA RESULT:      -8.2      3.710      6.367
  Name = 
  5 active torsions:
  status: ('A' for Active; 'I' for Inactive)
    1  A    between atoms: N_7  and  C_37
    2  A    between atoms: N_7  and  C_38
    3  A    between atoms: C_16  and  C_30
    4  A    between atoms: C_26  and  C_41
    5  A    between atoms: C_30  and  C_37
                            x       y       z     vdW  Elec       q    Type
                         _______ _______ _______ _____ _____    ______ ____

>  <TORSDO>
F 5

$$$$
=
 OpenBabel11062419393D

 42 47  0  0  1  0  0  0  0  0999 V2000
  192.8860  173.8180  141.9940 P   0  0  2  0  0  0  0  0  0  0  0  0
  193.4480  176.8350  146.1030 C   0  0  0  0  0  3  0  0  0  0  0  0
  192.0630  174.2150  140.5150 O   0  0  0  0  0  1  0  0  0  0  0  0
  195.2020  175.2870  145.6820 N   0  0  0  0  0  0  0  0  0  0  0  0
  193.5810  175.7010  143.9570 C   0  0  0  0  0  0  0  0  0  0  0  0
  196.7740  173.6680  144.1680 N   0  0  0  0  0  1  0  0  0  0  0  0
  195.4600  173.9610  143.6170 C   0  0  2  0  0  3  0  0  0  0  0  0
  195.6030  174.3260  142.2080 N   0  0  0  0  0  2  0  0  0  0  0  0
  194.5920  176.1660  146.5150 C   0  0  0  0  0  3  0  0  0  0  0  0
  195.0120  172.0960  141.4160 C   0  0  0  0  0  1  0  0  0  0  0  0
  194.7570  175.0400  144.4180 C   0  0  0  0  0  0  0  0  0  0  0  0
  192.9210  176.6010  144.8340 C   0  0  0  0  0  0  0  0  0  0  0  0
  193.1180  175.5860  142.5290 C   0  0  0  0  0  2  0  0  0  0  0  0
  194.6560  173.5790  141.3590 C   0  0  1  0  0  0  0  0  0  0  0  0
  195.1400  175.2790  139.7360 O   0  0  0  0  0  0  0  0  0  0  0  0
  194.5980  173.7600  137.4270 C   0  0  0  0  0  2  0  0  0  0  0  0
  193.7020  171.4550  137.4120 C   0  0  0  0  0  3  0  0  0  0  0  0
  194.1200  172.6290  136.6070 C   0  0  0  0  0  0  0  0  0  0  0  0
  193.9380  171.9030  138.8480 C   0  0  0  0  0  3  0  0  0  0  0  0
  194.7900  174.0810  139.9290 C   0  0  0  0  0  0  0  0  0  0  0  0
  194.4850  173.2580  138.7850 N   0  0  0  0  0  0  0  0  0  0  0  0
  194.0830  172.6540  135.3890 O   0  0  0  0  0  0  0  0  0  0  0  0
  191.7260  177.3170  144.4840 N   0  0  0  0  0  2  0  0  0  0  0  0
  190.4530  177.2230  145.1890 C   0  0  0  0  0  2  0  0  0  0  0  0
  188.1310  173.8600  140.4830 C   0  0  0  0  0  3  0  0  0  0  0  0
  189.0980  174.9720  142.3870 C   0  0  0  0  0  0  0  0  0  0  0  0
  189.1510  173.7400  143.0570 C   0  0  0  0  0  0  0  0  0  0  0  0
  189.6960  173.6720  144.4200 C   0  0  0  0  0  3  0  0  0  0  0  0
  188.5930  175.0320  141.0880 C   0  0  0  0  0  3  0  0  0  0  0  0
  188.6890  172.5910  142.4140 C   0  0  0  0  0  3  0  0  0  0  0  0
  189.6820  176.1960  143.0330 C   0  0  0  0  0  2  0  0  0  0  0  0
  188.1890  172.6750  141.1500 N   0  0  0  0  0  0  0  0  0  0  0  0
  189.5360  176.1630  144.5720 C   0  0  1  0  0  0  0  0  0  0  0  0
  189.9190  174.7940  145.1120 C   0  0  0  0  0  3  0  0  0  0  0  0
  185.5630  177.7700  146.0800 C   0  0  0  0  0  0  0  0  0  0  0  0
  186.4510  176.7910  146.8500 C   0  0  0  0  0  2  0  0  0  0  0  0
  188.0670  176.4650  144.9560 C   0  0  1  0  0  3  0  0  0  0  0  0
  184.1310  177.5460  146.5180 C   0  0  0  0  0  1  0  0  0  0  0  0
  185.9340  179.2090  146.4070 C   0  0  0  0  0  1  0  0  0  0  0  0
  187.9150  176.8570  146.4260 C   0  0  0  0  0  2  0  0  0  0  0  0
  187.3220  177.7660  143.9020 S   0  0  0  0  0  0  0  0  0  0  0  0
  185.6420  177.5140  144.5720 C   0  0  0  0  0  2  0  0  0  0  0  0
  1  3  1  6  0  0  0
  1 13  1  0  0  0  0
  2  9  1  0  0  0  0
  4  9  2  0  0  0  0
  5 11  2  0  0  0  0
  5 12  1  0  0  0  0
  7  6  1  1  0  0  0
  7 11  1  0  0  0  0
  8  7  1  0  0  0  0
 11  4  1  0  0  0  0
 12  2  2  0  0  0  0
 13  5  1  0  0  0  0
 14 10  1  1  0  0  0
 14  1  1  0  0  0  0
 14  8  1  0  0  0  0
 15 20  2  0  0  0  0
 16 21  1  0  0  0  0
 17 19  2  0  0  0  0
 18 17  1  0  0  0  0
 18 16  1  0  0  0  0
 20 14  1  0  0  0  0
 21 19  1  0  0  0  0
 21 20  1  0  0  0  0
 22 18  2  0  0  0  0
 23 12  1  0  0  0  0
 23 24  1  0  0  0  0
 25 29  2  0  0  0  0
 25 32  1  0  0  0  0
 26 31  1  0  0  0  0
 26 27  2  0  0  0  0
 27 28  1  0  0  0  0
 28 34  2  0  0  0  0
 29 26  1  0  0  0  0
 30 27  1  0  0  0  0
 31 33  1  0  0  0  0
 32 30  2  0  0  0  0
 33 37  1  0  0  0  0
 33 34  1  0  0  0  0
 33 24  1  1  0  0  0
 35 39  1  0  0  0  0
 35 38  1  0  0  0  0
 35 36  1  0  0  0  0
 37 40  1  1  0  0  0
 40 36  1  0  0  0  0
 41 42  1  0  0  0  0
 41 37  1  0  0  0  0
 42 35  1  0  0  0  0
M  END
>  <MODEL>
4

>  <REMARK>
 VINA RESULT:      -8.1      1.857      2.067
  Name = 
  5 active torsions:
  status: ('A' for Active; 'I' for Inactive)
    1  A    between atoms: N_7  and  C_37
    2  A    between atoms: N_7  and  C_38
    3  A    between atoms: C_16  and  C_30
    4  A    between atoms: C_26  and  C_41
    5  A    between atoms: C_30  and  C_37
                            x       y       z     vdW  Elec       q    Type
                         _______ _______ _______ _____ _____    ______ ____

>  <TORSDO>
F 5

$$$$
=
 OpenBabel11062419393D

 42 47  0  0  1  0  0  0  0  0999 V2000
  192.6690  174.8650  141.7970 P   0  0  2  0  0  0  0  0  0  0  0  0
  188.5250  173.7060  139.0060 C   0  0  0  0  0  3  0  0  0  0  0  0
  192.7640  174.9570  143.5300 O   0  0  0  0  0  1  0  0  0  0  0  0
  190.6230  173.0620  138.0970 N   0  0  0  0  0  0  0  0  0  0  0  0
  190.5130  173.7250  140.4030 C   0  0  0  0  0  0  0  0  0  0  0  0
  193.2440  172.3470  138.1640 N   0  0  0  0  0  1  0  0  0  0  0  0
  192.7710  173.1060  139.3110 C   0  0  2  0  0  3  0  0  0  0  0  0
  193.2370  172.4610  140.5370 N   0  0  0  0  0  2  0  0  0  0  0  0
  189.2910  173.2570  137.9400 C   0  0  0  0  0  3  0  0  0  0  0  0
  195.1260  173.9830  140.7970 C   0  0  0  0  0  1  0  0  0  0  0  0
  191.2620  173.2590  139.2840 C   0  0  0  0  0  0  0  0  0  0  0  0
  189.1230  173.9600  140.2390 C   0  0  0  0  0  0  0  0  0  0  0  0
  191.1240  173.8260  141.7760 C   0  0  0  0  0  2  0  0  0  0  0  0
  193.8620  173.4330  141.4540 C   0  0  1  0  0  0  0  0  0  0  0  0
  193.5670  171.6930  143.0790 O   0  0  0  0  0  0  0  0  0  0  0  0
  195.5950  172.4940  144.8620 C   0  0  0  0  0  2  0  0  0  0  0  0
  196.9590  174.5460  144.6440 C   0  0  0  0  0  3  0  0  0  0  0  0
  196.6390  173.3490  145.4600 C   0  0  0  0  0  0  0  0  0  0  0  0
  196.0300  174.4180  143.4440 C   0  0  0  0  0  3  0  0  0  0  0  0
  194.2300  172.7140  142.7440 C   0  0  0  0  0  0  0  0  0  0  0  0
  195.2720  173.1810  143.6240 N   0  0  0  0  0  0  0  0  0  0  0  0
  197.1910  173.0910  146.5170 O   0  0  0  0  0  0  0  0  0  0  0  0
  188.2690  174.4380  141.2910 N   0  0  0  0  0  2  0  0  0  0  0  0
  187.9370  175.8360  141.5340 C   0  0  0  0  0  2  0  0  0  0  0  0
  190.1170  174.9160  147.3000 C   0  0  0  0  0  3  0  0  0  0  0  0
  189.4330  175.4180  145.0470 C   0  0  0  0  0  0  0  0  0  0  0  0
  190.1950  176.5960  145.0970 C   0  0  0  0  0  0  0  0  0  0  0  0
  190.2420  177.4860  143.9280 C   0  0  0  0  0  3  0  0  0  0  0  0
  189.4010  174.5670  146.1510 C   0  0  0  0  0  3  0  0  0  0  0  0
  190.9040  176.9030  146.2590 C   0  0  0  0  0  3  0  0  0  0  0  0
  188.7470  175.0310  143.7680 C   0  0  0  0  0  2  0  0  0  0  0  0
  190.8480  176.0640  147.3300 N   0  0  0  0  0  0  0  0  0  0  0  0
  188.2850  176.2670  142.9620 C   0  0  1  0  0  0  0  0  0  0  0  0
  189.3890  177.3110  142.9150 C   0  0  0  0  0  3  0  0  0  0  0  0
  185.0200  178.8400  144.7960 C   0  0  0  0  0  0  0  0  0  0  0  0
  186.1830  178.2240  145.5780 C   0  0  0  0  0  2  0  0  0  0  0  0
  187.0340  176.8820  143.6340 C   0  0  1  0  0  3  0  0  0  0  0  0
  183.8560  179.0100  145.7480 C   0  0  0  0  0  1  0  0  0  0  0  0
  185.3970  180.2140  144.2630 C   0  0  0  0  0  1  0  0  0  0  0  0
  187.3930  177.9160  144.7020 C   0  0  0  0  0  2  0  0  0  0  0  0
  185.8860  177.6350  142.4220 S   0  0  0  0  0  0  0  0  0  0  0  0
  184.5730  177.9150  143.6600 C   0  0  0  0  0  2  0  0  0  0  0  0
  1  3  1  1  0  0  0
  2 12  1  0  0  0  0
  4 11  2  0  0  0  0
  5 13  1  0  0  0  0
  7  6  1  6  0  0  0
  7  8  1  0  0  0  0
  8 14  1  0  0  0  0
  9  4  1  0  0  0  0
  9  2  2  0  0  0  0
 11  7  1  0  0  0  0
 11  5  1  0  0  0  0
 12  5  2  0  0  0  0
 12 23  1  0  0  0  0
 13  1  1  0  0  0  0
 14 10  1  6  0  0  0
 14  1  1  0  0  0  0
 14 20  1  0  0  0  0
 16 18  1  0  0  0  0
 17 18  1  0  0  0  0
 18 22  2  0  0  0  0
 19 21  1  0  0  0  0
 19 17  2  0  0  0  0
 20 15  2  0  0  0  0
 20 21  1  0  0  0  0
 21 16  1  0  0  0  0
 23 24  1  0  0  0  0
 25 32  1  0  0  0  0
 26 27  2  0  0  0  0
 26 29  1  0  0  0  0
 27 30  1  0  0  0  0
 28 27  1  0  0  0  0
 29 25  2  0  0  0  0
 30 32  2  0  0  0  0
 31 26  1  0  0  0  0
 33 24  1  6  0  0  0
 33 37  1  0  0  0  0
 33 31  1  0  0  0  0
 34 33  1  0  0  0  0
 34 28  2  0  0  0  0
 35 36  1  0  0  0  0
 35 38  1  0  0  0  0
 37 40  1  1  0  0  0
 39 35  1  0  0  0  0
 40 36  1  0  0  0  0
 41 37  1  0  0  0  0
 41 42  1  0  0  0  0
 42 35  1  0  0  0  0
M  END
>  <MODEL>
5

>  <REMARK>
 VINA RESULT:      -8.1      2.843      5.492
  Name = 
  5 active torsions:
  status: ('A' for Active; 'I' for Inactive)
    1  A    between atoms: N_7  and  C_37
    2  A    between atoms: N_7  and  C_38
    3  A    between atoms: C_16  and  C_30
    4  A    between atoms: C_26  and  C_41
    5  A    between atoms: C_30  and  C_37
                            x       y       z     vdW  Elec       q    Type
                         _______ _______ _______ _____ _____    ______ ____

>  <TORSDO>
F 5

$$$$
=
 OpenBabel11062419393D

 42 47  0  0  1  0  0  0  0  0999 V2000
  194.6170  172.9640  143.5560 P   0  0  2  0  0  0  0  0  0  0  0  0
  190.0680  171.1460  142.0370 C   0  0  0  0  0  3  0  0  0  0  0  0
  195.0510  173.4750  145.1590 O   0  0  0  0  0  1  0  0  0  0  0  0
  191.9740  170.3080  140.8930 N   0  0  0  0  0  0  0  0  0  0  0  0
  192.2910  171.5120  142.9480 C   0  0  0  0  0  0  0  0  0  0  0  0
  194.5910  169.6400  140.5860 N   0  0  0  0  0  1  0  0  0  0  0  0
  194.3160  170.6540  141.5920 C   0  0  2  0  0  3  0  0  0  0  0  0
  195.0510  170.3280  142.8130 N   0  0  0  0  0  2  0  0  0  0  0  0
  190.6290  170.4550  140.9720 C   0  0  0  0  0  3  0  0  0  0  0  0
  196.8690  171.8730  142.3090 C   0  0  0  0  0  1  0  0  0  0  0  0
  192.8260  170.7900  141.8420 C   0  0  0  0  0  0  0  0  0  0  0  0
  190.8850  171.6950  143.0230 C   0  0  0  0  0  0  0  0  0  0  0  0
  193.1560  171.9450  144.1010 C   0  0  0  0  0  2  0  0  0  0  0  0
  195.7930  171.4960  143.3230 C   0  0  1  0  0  0  0  0  0  0  0  0
  197.5660  171.6210  144.9360 O   0  0  0  0  0  0  0  0  0  0  0  0
  196.5140  169.7840  146.7940 C   0  0  0  0  0  2  0  0  0  0  0  0
  194.4590  168.4470  146.4740 C   0  0  0  0  0  3  0  0  0  0  0  0
  195.6240  168.7430  147.3440 C   0  0  0  0  0  0  0  0  0  0  0  0
  194.6520  169.3830  145.2880 C   0  0  0  0  0  3  0  0  0  0  0  0
  196.4480  171.1130  144.6430 C   0  0  0  0  0  0  0  0  0  0  0  0
  195.8660  170.1550  145.5490 N   0  0  0  0  0  0  0  0  0  0  0  0
  195.8210  168.1890  148.4120 O   0  0  0  0  0  0  0  0  0  0  0  0
  190.2340  172.4110  144.0850 N   0  0  0  0  0  2  0  0  0  0  0  0
  189.4570  173.6330  143.9200 C   0  0  0  0  0  2  0  0  0  0  0  0
  193.9510  176.7650  146.8940 C   0  0  0  0  0  3  0  0  0  0  0  0
  192.3190  175.6020  145.5600 C   0  0  0  0  0  0  0  0  0  0  0  0
  192.8020  176.2650  144.4220 C   0  0  0  0  0  0  0  0  0  0  0  0
  192.1990  175.9980  143.1090 C   0  0  0  0  0  3  0  0  0  0  0  0
  192.9020  175.8450  146.8040 C   0  0  0  0  0  3  0  0  0  0  0  0
  193.8580  177.1680  144.5540 C   0  0  0  0  0  3  0  0  0  0  0  0
  191.2490  174.5570  145.4130 C   0  0  0  0  0  2  0  0  0  0  0  0
  194.4050  177.4000  145.7790 N   0  0  0  0  0  0  0  0  0  0  0  0
  190.2780  174.8820  144.2550 C   0  0  1  0  0  0  0  0  0  0  0  0
  191.0510  175.3190  143.0210 C   0  0  0  0  0  3  0  0  0  0  0  0
  186.8490  177.6460  145.3710 C   0  0  0  0  0  0  0  0  0  0  0  0
  187.4560  177.5370  143.9710 C   0  0  0  0  0  2  0  0  0  0  0  0
  189.3270  176.0240  144.6870 C   0  0  1  0  0  3  0  0  0  0  0  0
  186.2750  179.0380  145.5250 C   0  0  0  0  0  1  0  0  0  0  0  0
  185.7140  176.6470  145.5470 C   0  0  0  0  0  1  0  0  0  0  0  0
  188.1510  176.2020  143.7250 C   0  0  0  0  0  2  0  0  0  0  0  0
  188.6880  175.7980  146.3890 S   0  0  0  0  0  0  0  0  0  0  0  0
  187.9190  177.4530  146.4490 C   0  0  0  0  0  2  0  0  0  0  0  0
  1 13  1  0  0  0  0
  1  3  1  1  0  0  0
  2 12  1  0  0  0  0
  4  9  1  0  0  0  0
  4 11  2  0  0  0  0
  5 12  2  0  0  0  0
  5 13  1  0  0  0  0
  7  6  1  6  0  0  0
  7 11  1  0  0  0  0
  7  8  1  0  0  0  0
  8 14  1  0  0  0  0
  9  2  2  0  0  0  0
 11  5  1  0  0  0  0
 12 23  1  0  0  0  0
 14 10  1  6  0  0  0
 14  1  1  0  0  0  0
 14 20  1  0  0  0  0
 16 18  1  0  0  0  0
 17 18  1  0  0  0  0
 18 22  2  0  0  0  0
 19 21  1  0  0  0  0
 19 17  2  0  0  0  0
 20 15  2  0  0  0  0
 20 21  1  0  0  0  0
 21 16  1  0  0  0  0
 24 23  1  0  0  0  0
 26 29  2  0  0  0  0
 27 30  2  0  0  0  0
 27 26  1  0  0  0  0
 28 27  1  0  0  0  0
 29 25  1  0  0  0  0
 30 32  1  0  0  0  0
 31 26  1  0  0  0  0
 32 25  2  0  0  0  0
 33 24  1  6  0  0  0
 33 37  1  0  0  0  0
 33 31  1  0  0  0  0
 34 28  2  0  0  0  0
 34 33  1  0  0  0  0
 35 38  1  0  0  0  0
 35 39  1  0  0  0  0
 35 42  1  0  0  0  0
 36 35  1  0  0  0  0
 37 40  1  6  0  0  0
 37 41  1  0  0  0  0
 40 36  1  0  0  0  0
 41 42  1  0  0  0  0
M  END
>  <MODEL>
6

>  <REMARK>
 VINA RESULT:      -7.9      3.646      6.231
  Name = 
  5 active torsions:
  status: ('A' for Active; 'I' for Inactive)
    1  A    between atoms: N_7  and  C_37
    2  A    between atoms: N_7  and  C_38
    3  A    between atoms: C_16  and  C_30
    4  A    between atoms: C_26  and  C_41
    5  A    between atoms: C_30  and  C_37
                            x       y       z     vdW  Elec       q    Type
                         _______ _______ _______ _____ _____    ______ ____

>  <TORSDO>
F 5

$$$$
=
 OpenBabel11062419393D

 42 47  0  0  1  0  0  0  0  0999 V2000
  193.0750  174.0820  141.5270 P   0  0  2  0  0  0  0  0  0  0  0  0
  188.1910  173.1190  140.2900 C   0  0  0  0  0  3  0  0  0  0  0  0
  193.7520  174.1410  143.1260 O   0  0  0  0  0  1  0  0  0  0  0  0
  189.8350  172.4190  138.7230 N   0  0  0  0  0  0  0  0  0  0  0  0
  190.5340  173.0440  140.9360 C   0  0  0  0  0  0  0  0  0  0  0  0
  192.2960  171.6110  137.8990 N   0  0  0  0  0  1  0  0  0  0  0  0
  192.2660  172.3670  139.1430 C   0  0  2  0  0  3  0  0  0  0  0  0
  193.0930  171.6830  140.1370 N   0  0  0  0  0  2  0  0  0  0  0  0
  188.5360  172.6630  139.0250 C   0  0  0  0  0  3  0  0  0  0  0  0
  195.0160  173.1330  139.7530 C   0  0  0  0  0  1  0  0  0  0  0  0
  190.8430  172.5720  139.6270 C   0  0  0  0  0  0  0  0  0  0  0  0
  189.1800  173.3300  141.2510 C   0  0  0  0  0  0  0  0  0  0  0  0
  191.5740  173.0980  142.0220 C   0  0  0  0  0  2  0  0  0  0  0  0
  194.0270  172.6170  140.7940 C   0  0  1  0  0  0  0  0  0  0  0  0
  195.9800  172.1710  142.1150 O   0  0  0  0  0  0  0  0  0  0  0  0
  194.9270  170.0500  143.6400 C   0  0  0  0  0  2  0  0  0  0  0  0
  192.6920  169.0390  143.3280 C   0  0  0  0  0  3  0  0  0  0  0  0
  193.9800  168.9990  144.0620 C   0  0  0  0  0  0  0  0  0  0  0  0
  192.8620  170.2120  142.3710 C   0  0  0  0  0  3  0  0  0  0  0  0
  194.7790  171.8620  141.8810 C   0  0  0  0  0  0  0  0  0  0  0  0
  194.1890  170.7740  142.6210 N   0  0  0  0  0  0  0  0  0  0  0  0
  194.2290  168.1850  144.9350 O   0  0  0  0  0  0  0  0  0  0  0  0
  188.7490  173.8180  142.5310 N   0  0  0  0  0  2  0  0  0  0  0  0
  188.2830  175.1730  142.8000 C   0  0  0  0  0  2  0  0  0  0  0  0
  193.0190  175.6670  146.8210 C   0  0  0  0  0  3  0  0  0  0  0  0
  191.3080  175.5940  145.1290 C   0  0  0  0  0  0  0  0  0  0  0  0
  191.9380  176.6620  144.4710 C   0  0  0  0  0  0  0  0  0  0  0  0
  191.3700  177.1880  143.2220 C   0  0  0  0  0  3  0  0  0  0  0  0
  191.8570  175.0860  146.3070 C   0  0  0  0  0  3  0  0  0  0  0  0
  193.1030  177.2070  145.0130 C   0  0  0  0  0  3  0  0  0  0  0  0
  190.1100  174.9380  144.5030 C   0  0  0  0  0  2  0  0  0  0  0  0
  193.6150  176.7040  146.1700 N   0  0  0  0  0  0  0  0  0  0  0  0
  189.2550  175.9440  143.6990 C   0  0  1  0  0  0  0  0  0  0  0  0
  190.1430  176.8240  142.8360 C   0  0  0  0  0  3  0  0  0  0  0  0
  186.2330  178.0310  146.3740 C   0  0  0  0  0  0  0  0  0  0  0  0
  186.5190  178.4170  144.9210 C   0  0  0  0  0  2  0  0  0  0  0  0
  188.4540  176.8360  144.6780 C   0  0  1  0  0  3  0  0  0  0  0  0
  185.7480  179.2680  147.0990 C   0  0  0  0  0  1  0  0  0  0  0  0
  185.1330  176.9820  146.4470 C   0  0  0  0  0  1  0  0  0  0  0  0
  187.1040  177.2700  144.1040 C   0  0  0  0  0  2  0  0  0  0  0  0
  188.1920  176.0330  146.3040 S   0  0  0  0  0  0  0  0  0  0  0  0
  187.5040  177.5400  147.0710 C   0  0  0  0  0  2  0  0  0  0  0  0
  1 13  1  0  0  0  0
  1  3  1  1  0  0  0
  2 12  1  0  0  0  0
  4  9  1  0  0  0  0
  4 11  2  0  0  0  0
  5 12  2  0  0  0  0
  5 13  1  0  0  0  0
  7  6  1  6  0  0  0
  7 11  1  0  0  0  0
  7  8  1  0  0  0  0
  8 14  1  0  0  0  0
  9  2  2  0  0  0  0
 11  5  1  0  0  0  0
 12 23  1  0  0  0  0
 14 10  1  6  0  0  0
 14  1  1  0  0  0  0
 14 20  1  0  0  0  0
 16 18  1  0  0  0  0
 17 18  1  0  0  0  0
 18 22  2  0  0  0  0
 19 21  1  0  0  0  0
 19 17  2  0  0  0  0
 20 15  2  0  0  0  0
 20 21  1  0  0  0  0
 21 16  1  0  0  0  0
 23 24  1  0  0  0  0
 26 29  2  0  0  0  0
 27 30  2  0  0  0  0
 27 26  1  0  0  0  0
 28 27  1  0  0  0  0
 29 25  1  0  0  0  0
 30 32  1  0  0  0  0
 31 26  1  0  0  0  0
 32 25  2  0  0  0  0
 33 24  1  6  0  0  0
 33 31  1  0  0  0  0
 33 37  1  0  0  0  0
 34 28  2  0  0  0  0
 34 33  1  0  0  0  0
 35 39  1  0  0  0  0
 35 42  1  0  0  0  0
 35 38  1  0  0  0  0
 36 35  1  0  0  0  0
 37 40  1  6  0  0  0
 37 41  1  0  0  0  0
 40 36  1  0  0  0  0
 41 42  1  0  0  0  0
M  END
>  <MODEL>
7

>  <REMARK>
 VINA RESULT:      -7.7      2.987      5.837
  Name = 
  5 active torsions:
  status: ('A' for Active; 'I' for Inactive)
    1  A    between atoms: N_7  and  C_37
    2  A    between atoms: N_7  and  C_38
    3  A    between atoms: C_16  and  C_30
    4  A    between atoms: C_26  and  C_41
    5  A    between atoms: C_30  and  C_37
                            x       y       z     vdW  Elec       q    Type
                         _______ _______ _______ _____ _____    ______ ____

>  <TORSDO>
F 5

$$$$
=
 OpenBabel11062419393D

 42 47  0  0  1  0  0  0  0  0999 V2000
  188.4470  172.9980  137.9090 P   0  0  2  0  0  0  0  0  0  0  0  0
  190.2570  171.6020  142.5000 C   0  0  0  0  0  3  0  0  0  0  0  0
  188.0870  174.6140  137.3790 O   0  0  0  0  0  1  0  0  0  0  0  0
  190.9070  170.2530  140.6550 N   0  0  0  0  0  0  0  0  0  0  0  0
  189.9090  172.3970  140.2300 C   0  0  0  0  0  0  0  0  0  0  0  0
  191.4480  169.7050  138.0490 N   0  0  0  0  0  1  0  0  0  0  0  0
  190.5520  170.8280  138.2810 C   0  0  2  0  0  3  0  0  0  0  0  0
  190.9760  171.9570  137.4540 N   0  0  0  0  0  2  0  0  0  0  0  0
  190.8160  170.4360  141.9950 C   0  0  0  0  0  3  0  0  0  0  0  0
  189.3240  171.4970  135.7190 C   0  0  0  0  0  1  0  0  0  0  0  0
  190.4950  171.1880  139.7540 C   0  0  0  0  0  0  0  0  0  0  0  0
  189.7840  172.5840  141.6320 C   0  0  0  0  0  0  0  0  0  0  0  0
  189.5660  173.5290  139.2990 C   0  0  0  0  0  2  0  0  0  0  0  0
  189.8410  172.5360  136.7110 C   0  0  1  0  0  0  0  0  0  0  0  0
  189.7360  174.1030  134.8980 O   0  0  0  0  0  0  0  0  0  0  0  0
  191.9570  175.6740  135.6290 C   0  0  0  0  0  2  0  0  0  0  0  0
  193.4850  175.1970  137.5140 C   0  0  0  0  0  3  0  0  0  0  0  0
  193.1770  176.0730  136.3570 C   0  0  0  0  0  0  0  0  0  0  0  0
  192.3610  174.1690  137.4920 C   0  0  0  0  0  3  0  0  0  0  0  0
  190.3340  173.7620  135.9560 C   0  0  0  0  0  0  0  0  0  0  0  0
  191.4870  174.5190  136.3730 N   0  0  0  0  0  0  0  0  0  0  0  0
  193.8580  177.0350  136.0450 O   0  0  0  0  0  0  0  0  0  0  0  0
  189.2040  173.7560  142.2270 N   0  0  0  0  0  2  0  0  0  0  0  0
  189.0490  173.9800  143.6590 C   0  0  0  0  0  2  0  0  0  0  0  0
  193.8160  176.3670  146.8880 C   0  0  0  0  0  3  0  0  0  0  0  0
  192.0720  175.5190  145.4610 C   0  0  0  0  0  0  0  0  0  0  0  0
  192.5370  176.3490  144.4290 C   0  0  0  0  0  0  0  0  0  0  0  0
  191.8640  176.3380  143.1230 C   0  0  0  0  0  3  0  0  0  0  0  0
  192.7210  175.5200  146.6960 C   0  0  0  0  0  3  0  0  0  0  0  0
  193.6400  177.1720  144.6580 C   0  0  0  0  0  3  0  0  0  0  0  0
  190.9480  174.5590  145.1930 C   0  0  0  0  0  2  0  0  0  0  0  0
  194.2510  177.1660  145.8750 N   0  0  0  0  0  0  0  0  0  0  0  0
  189.9440  175.1180  144.1600 C   0  0  1  0  0  0  0  0  0  0  0  0
  190.6820  175.7300  142.9800 C   0  0  0  0  0  3  0  0  0  0  0  0
  186.7080  177.7710  145.9300 C   0  0  0  0  0  0  0  0  0  0  0  0
  187.2150  177.8650  144.4900 C   0  0  0  0  0  2  0  0  0  0  0  0
  189.0690  176.2060  144.8290 C   0  0  1  0  0  3  0  0  0  0  0  0
  186.2000  179.1380  146.3360 C   0  0  0  0  0  1  0  0  0  0  0  0
  185.5480  176.7910  146.0320 C   0  0  0  0  0  1  0  0  0  0  0  0
  187.8400  176.5650  143.9930 C   0  0  0  0  0  2  0  0  0  0  0  0
  188.5370  175.7360  146.5180 S   0  0  0  0  0  0  0  0  0  0  0  0
  187.8390  177.3820  146.8850 C   0  0  0  0  0  2  0  0  0  0  0  0
  1  3  1  6  0  0  0
  1 13  1  0  0  0  0
  4  9  2  0  0  0  0
  5 12  1  0  0  0  0
  7  6  1  1  0  0  0
  7 11  1  0  0  0  0
  8  7  1  0  0  0  0
  9  2  1  0  0  0  0
 11  5  2  0  0  0  0
 11  4  1  0  0  0  0
 12 23  1  0  0  0  0
 12  2  2  0  0  0  0
 13  5  1  0  0  0  0
 14 10  1  6  0  0  0
 14  8  1  0  0  0  0
 14  1  1  0  0  0  0
 15 20  2  0  0  0  0
 16 18  1  0  0  0  0
 16 21  1  0  0  0  0
 18 17  1  0  0  0  0
 19 17  2  0  0  0  0
 20 21  1  0  0  0  0
 20 14  1  0  0  0  0
 21 19  1  0  0  0  0
 22 18  2  0  0  0  0
 23 24  1  0  0  0  0
 26 29  2  0  0  0  0
 27 30  2  0  0  0  0
 27 26  1  0  0  0  0
 28 27  1  0  0  0  0
 29 25  1  0  0  0  0
 30 32  1  0  0  0  0
 31 26  1  0  0  0  0
 32 25  2  0  0  0  0
 33 24  1  6  0  0  0
 33 37  1  0  0  0  0
 33 31  1  0  0  0  0
 34 28  2  0  0  0  0
 34 33  1  0  0  0  0
 35 39  1  0  0  0  0
 35 38  1  0  0  0  0
 35 42  1  0  0  0  0
 36 35  1  0  0  0  0
 37 40  1  6  0  0  0
 37 41  1  0  0  0  0
 40 36  1  0  0  0  0
 41 42  1  0  0  0  0
M  END
>  <MODEL>
8

>  <REMARK>
 VINA RESULT:      -7.7      3.460      6.193
  Name = 
  5 active torsions:
  status: ('A' for Active; 'I' for Inactive)
    1  A    between atoms: N_7  and  C_37
    2  A    between atoms: N_7  and  C_38
    3  A    between atoms: C_16  and  C_30
    4  A    between atoms: C_26  and  C_41
    5  A    between atoms: C_30  and  C_37
                            x       y       z     vdW  Elec       q    Type
                         _______ _______ _______ _____ _____    ______ ____

>  <TORSDO>
F 5

$$$$
=
 OpenBabel11062419393D

 42 47  0  0  1  0  0  0  0  0999 V2000
  189.4100  177.9100  143.7370 P   0  0  2  0  0  0  0  0  0  0  0  0
  193.2150  176.0690  146.6410 C   0  0  0  0  0  3  0  0  0  0  0  0
  189.4220  178.1110  142.0100 O   0  0  0  0  0  1  0  0  0  0  0  0
  191.0050  175.6540  147.4100 N   0  0  0  0  0  0  0  0  0  0  0  0
  191.3240  176.4250  145.1560 C   0  0  0  0  0  0  0  0  0  0  0  0
  188.3220  175.2910  147.1750 N   0  0  0  0  0  1  0  0  0  0  0  0
  188.9500  176.0450  146.1010 C   0  0  2  0  0  3  0  0  0  0  0  0
  188.4730  175.5350  144.8160 N   0  0  0  0  0  2  0  0  0  0  0  0
  192.3410  175.6650  147.6410 C   0  0  0  0  0  3  0  0  0  0  0  0
  186.8100  177.3020  144.5630 C   0  0  0  0  0  1  0  0  0  0  0  0
  190.4620  175.9980  146.2080 C   0  0  0  0  0  0  0  0  0  0  0  0
  192.7220  176.4670  145.4000 C   0  0  0  0  0  0  0  0  0  0  0  0
  190.8070  176.6800  143.7660 C   0  0  0  0  0  2  0  0  0  0  0  0
  188.0270  176.6300  143.9340 C   0  0  1  0  0  0  0  0  0  0  0  0
  186.6760  176.5460  141.9520 O   0  0  0  0  0  0  0  0  0  0  0  0
  187.9120  174.3200  140.7480 C   0  0  0  0  0  2  0  0  0  0  0  0
  189.6930  172.9460  141.7760 C   0  0  0  0  0  3  0  0  0  0  0  0
  188.7860  173.1380  140.6180 C   0  0  0  0  0  0  0  0  0  0  0  0
  189.3440  174.1060  142.6990 C   0  0  0  0  0  3  0  0  0  0  0  0
  187.6420  176.0370  142.5860 C   0  0  0  0  0  0  0  0  0  0  0  0
  188.3050  174.8860  142.0260 N   0  0  0  0  0  0  0  0  0  0  0  0
  188.7720  172.3980  139.6480 O   0  0  0  0  0  0  0  0  0  0  0  0
  193.6860  176.8870  144.4200 N   0  0  0  0  0  2  0  0  0  0  0  0
  195.0640  176.4170  144.3430 C   0  0  0  0  0  2  0  0  0  0  0  0
  193.5320  174.1450  138.7450 C   0  0  0  0  0  3  0  0  0  0  0  0
  194.2710  175.1460  140.8060 C   0  0  0  0  0  0  0  0  0  0  0  0
  195.4340  175.5860  140.1550 C   0  0  0  0  0  0  0  0  0  0  0  0
  196.4420  176.3540  140.8980 C   0  0  0  0  0  3  0  0  0  0  0  0
  193.3090  174.4280  140.0960 C   0  0  0  0  0  3  0  0  0  0  0  0
  195.6140  175.2900  138.8030 C   0  0  0  0  0  3  0  0  0  0  0  0
  194.0240  175.5420  142.2340 C   0  0  0  0  0  2  0  0  0  0  0  0
  194.6670  174.5780  138.1310 N   0  0  0  0  0  0  0  0  0  0  0  0
  195.3400  175.6700  143.0350 C   0  0  1  0  0  0  0  0  0  0  0  0
  196.3780  176.4340  142.2310 C   0  0  0  0  0  3  0  0  0  0  0  0
  197.0170  171.8310  144.7940 C   0  0  0  0  0  0  0  0  0  0  0  0
  197.8640  172.9410  144.1680 C   0  0  0  0  0  2  0  0  0  0  0  0
  195.8860  174.2570  143.3550 C   0  0  1  0  0  3  0  0  0  0  0  0
  197.7670  170.5260  144.6350 C   0  0  0  0  0  1  0  0  0  0  0  0
  196.8160  172.0780  146.2820 C   0  0  0  0  0  1  0  0  0  0  0  0
  197.1700  174.2990  144.1850 C   0  0  0  0  0  2  0  0  0  0  0  0
  194.6500  173.2030  144.2030 S   0  0  0  0  0  0  0  0  0  0  0  0
  195.6720  171.6960  144.0760 C   0  0  0  0  0  2  0  0  0  0  0  0
  1  3  1  6  0  0  0
  1 13  1  0  0  0  0
  1 14  1  0  0  0  0
  2  9  1  0  0  0  0
  4  9  2  0  0  0  0
  5 12  1  0  0  0  0
  5 11  2  0  0  0  0
  7 11  1  0  0  0  0
  7  6  1  1  0  0  0
  8  7  1  0  0  0  0
 11  4  1  0  0  0  0
 12  2  2  0  0  0  0
 13  5  1  0  0  0  0
 14 10  1  1  0  0  0
 14  8  1  0  0  0  0
 15 20  2  0  0  0  0
 16 21  1  0  0  0  0
 17 19  2  0  0  0  0
 18 16  1  0  0  0  0
 18 17  1  0  0  0  0
 20 14  1  0  0  0  0
 21 20  1  0  0  0  0
 21 19  1  0  0  0  0
 22 18  2  0  0  0  0
 23 12  1  0  0  0  0
 24 23  1  0  0  0  0
 25 29  1  0  0  0  0
 26 31  1  0  0  0  0
 27 26  1  0  0  0  0
 27 28  1  0  0  0  0
 28 34  2  0  0  0  0
 29 26  2  0  0  0  0
 30 27  2  0  0  0  0
 31 33  1  0  0  0  0
 32 25  2  0  0  0  0
 32 30  1  0  0  0  0
 33 37  1  0  0  0  0
 33 24  1  1  0  0  0
 34 33  1  0  0  0  0
 35 39  1  0  0  0  0
 36 40  1  0  0  0  0
 36 35  1  0  0  0  0
 37 40  1  1  0  0  0
 37 41  1  0  0  0  0
 38 35  1  0  0  0  0
 42 41  1  0  0  0  0
 42 35  1  0  0  0  0
M  END
>  <MODEL>
9

>  <REMARK>
 VINA RESULT:      -7.6      3.286      8.122
  Name = 
  5 active torsions:
  status: ('A' for Active; 'I' for Inactive)
    1  A    between atoms: N_7  and  C_37
    2  A    between atoms: N_7  and  C_38
    3  A    between atoms: C_16  and  C_30
    4  A    between atoms: C_26  and  C_41
    5  A    between atoms: C_30  and  C_37
                            x       y       z     vdW  Elec       q    Type
                         _______ _______ _______ _____ _____    ______ ____

>  <TORSDO>
F 5

$$$$
