=
 OpenBabel11062418383D

 55 59  0  0  1  0  0  0  0  0999 V2000
  191.4330  173.1800  143.6290 C   0  0  1  0  0  3  0  0  0  0  0  0
  194.5620  168.9750  145.2580 N   0  0  0  0  0  1  0  0  0  0  0  0
  193.8700  173.4030  142.9070 C   0  0  0  0  0  3  0  0  0  0  0  0
  192.8880  172.8310  143.7740 C   0  0  0  0  0  0  0  0  0  0  0  0
  196.2300  172.8190  142.1500 C   0  0  0  0  0  0  0  0  0  0  0  0
  195.2060  173.0200  143.0840 C   0  0  0  0  0  0  0  0  0  0  0  0
  197.0200  171.7740  142.5540 N   0  0  0  0  0  0  0  0  0  0  0  0
  193.2390  171.7410  144.6200 C   0  0  0  0  0  3  0  0  0  0  0  0
  195.5240  172.1390  144.0650 C   0  0  0  0  0  0  0  0  0  0  0  0
  196.3350  173.4310  140.8520 N   0  0  0  0  0  0  0  0  0  0  0  0
  196.5700  171.4130  143.7470 N   0  0  0  0  0  0  0  0  0  0  0  0
  196.4000  170.1690  144.1730 N   0  0  0  0  0  0  0  0  0  0  0  0
  194.5970  171.4130  144.7330 C   0  0  0  0  0  0  0  0  0  0  0  0
  195.2180  170.1700  144.8550 C   0  0  0  0  0  0  0  0  0  0  0  0
  195.4110  174.4690  140.4120 C   0  0  0  0  0  2  0  0  0  0  0  0
  196.0810  175.6920  140.3050 O   0  0  0  0  0  0  0  0  0  0  0  0
  195.6520  176.4360  141.4090 C   0  0  0  0  0  2  0  0  0  0  0  0
  196.8440  176.7250  142.3020 C   0  0  0  0  0  2  0  0  0  0  0  0
  196.4350  176.7100  143.7360 C   0  0  0  0  0  3  0  0  0  0  0  0
  195.3560  176.1000  144.1050 N   0  0  0  0  0  0  0  0  0  0  0  0
  194.9190  176.0830  145.4690 C   0  0  0  0  0  0  0  0  0  0  0  0
  194.8850  175.0100  146.1250 O   0  0  0  0  0  0  0  0  0  0  0  0
  194.5090  177.3500  146.1220 C   0  0  0  0  0  1  0  0  0  0  0  0
  197.3900  173.0260  139.9300 C   0  0  0  0  0  2  0  0  0  0  0  0
  196.1470  171.7910  138.3360 C   0  0  0  0  0  0  0  0  0  0  0  0
  194.9400  171.9750  137.9120 N   0  0  0  0  0  2  0  0  0  0  0  0
  197.0770  171.6560  139.3550 C   0  0  1  0  0  3  0  0  0  0  0  0
  197.6400  171.5520  138.0830 N   0  0  0  0  0  2  0  0  0  0  0  0
  190.6320  172.1690  142.8660 C   0  0  0  0  0  0  0  0  0  0  0  0
  191.1510  171.6420  141.7600 C   0  0  0  0  0  3  0  0  0  0  0  0
  189.3770  171.7730  143.3180 O   0  0  0  0  0  1  0  0  0  0  0  0
  190.8250  170.7260  139.6030 O   0  0  0  0  0  1  0  0  0  0  0  0
  190.4250  170.6280  140.9350 C   0  0  0  0  0  2  0  0  0  0  0  0
  190.7860  173.6060  144.9450 C   0  0  0  0  0  2  0  0  0  0  0  0
  191.4430  174.8410  145.5600 C   0  0  0  0  0  2  0  0  0  0  0  0
  191.4450  175.2240  147.9830 C   0  0  0  0  0  1  0  0  0  0  0  0
  189.3000  174.6760  146.8810 C   0  0  0  0  0  2  0  0  0  0  0  0
  190.4550  176.9460  146.5280 C   0  0  0  0  0  2  0  0  0  0  0  0
  190.6370  175.4290  146.7200 C   0  0  2  0  0  0  0  0  0  0  0  0
  187.9250  176.6950  146.2870 C   0  0  1  0  0  3  0  0  0  0  0  0
  189.2170  177.2770  145.6910 C   0  0  0  0  0  2  0  0  0  0  0  0
  188.1660  175.5980  147.3320 C   0  0  0  0  0  2  0  0  0  0  0  0
  187.1230  177.7580  146.8750 N   0  0  0  0  0  2  0  0  0  0  0  0
  185.7490  178.0100  145.8530 S   0  0  0  0  0  0  0  0  0  0  0  0
  184.5000  177.7500  146.6420 O   0  0  0  0  0  0  0  0  0  0  0  0
  185.7410  179.4320  145.3640 O   0  0  0  0  0  0  0  0  0  0  0  0
  185.8300  176.9250  144.5000 N   0  0  0  0  0  2  0  0  0  0  0  0
  186.0110  177.7210  143.2940 C   0  0  2  0  0  3  0  0  0  0  0  0
  183.6930  178.4590  142.9810 N   0  0  0  0  0  1  0  0  0  0  0  0
  184.7590  177.6470  142.4140 C   0  0  1  0  0  3  0  0  0  0  0  0
  185.0650  178.1380  141.0370 C   0  0  0  0  0  3  0  0  0  0  0  0
  184.1260  178.5650  140.2790 N   0  0  0  0  0  2  0  0  0  0  0  0
  187.2240  177.2020  142.5320 C   0  0  0  0  0  2  0  0  0  0  0  0
  188.7320  175.5980  142.3710 C   0  0  0  0  0  1  0  0  0  0  0  0
  187.4440  175.8590  142.8390 O   0  0  0  0  0  0  0  0  0  0  0  0
  1  4  1  0  0  0  0
  1 34  1  1  0  0  0
  3  6  2  0  0  0  0
  3  4  1  0  0  0  0
  4  8  2  0  0  0  0
  5  7  2  0  0  0  0
  5  6  1  0  0  0  0
  6  9  1  0  0  0  0
  7 11  1  0  0  0  0
  8 13  1  0  0  0  0
  9 13  2  0  0  0  0
 10  5  1  0  0  0  0
 11  9  1  0  0  0  0
 11 12  1  0  0  0  0
 12 14  2  0  0  0  0
 13 14  1  0  0  0  0
 14  2  1  0  0  0  0
 15 10  1  0  0  0  0
 16 15  1  0  0  0  0
 16 17  1  0  0  0  0
 17 18  1  0  0  0  0
 18 19  1  0  0  0  0
 19 20  2  0  0  0  0
 20 21  1  0  0  0  0
 21 23  1  0  0  0  0
 21 22  2  0  0  0  0
 24 10  1  0  0  0  0
 25 27  1  0  0  0  0
 26 25  2  0  0  0  0
 27 24  1  6  0  0  0
 28 25  1  0  0  0  0
 28 27  1  0  0  0  0
 29 31  1  0  0  0  0
 29  1  1  0  0  0  0
 30 29  2  0  0  0  0
 32 33  1  0  0  0  0
 33 30  1  0  0  0  0
 34 35  1  0  0  0  0
 35 39  1  0  0  0  0
 37 42  1  0  0  0  0
 38 39  1  0  0  0  0
 39 37  1  0  0  0  0
 39 36  1  1  0  0  0
 40 43  1  1  0  0  0
 40 42  1  0  0  0  0
 41 40  1  0  0  0  0
 41 38  1  0  0  0  0
 44 45  2  0  0  0  0
 44 43  1  0  0  0  0
 46 44  2  0  0  0  0
 47 44  1  0  0  0  0
 48 53  1  6  0  0  0
 48 47  1  0  0  0  0
 50 49  1  1  0  0  0
 50 48  1  0  0  0  0
 51 50  1  0  0  0  0
 52 51  2  0  0  0  0
 53 55  1  0  0  0  0
 54 55  1  0  0  0  0
M  END
>  <MODEL>
1

>  <REMARK>
 VINA RESULT:      -6.2      0.000      0.000
  Name = 
  22 active torsions:
  status: ('A' for Active; 'I' for Inactive)
    1  A    between atoms: C_2  and  O_19
    2  A    between atoms: C_2  and  C_20
    3  A    between atoms: C_5  and  N_55
    4  A    between atoms: S_6  and  N_21
    5  A    between atoms: S_6  and  N_38
    6  A    between atoms: C_7  and  C_39
    7  A    between atoms: C_14  and  C_51
    8  A    between atoms: C_15  and  C_18
    9  A    between atoms: C_15  and  C_46
   10  A    between atoms: C_16  and  C_39
   11  A    between atoms: C_18  and  O_35
   12  A    between atoms: C_20  and  N_21
   13  A    between atoms: C_20  and  C_26
   14  A    between atoms: C_23  and  C_29
   15  A    between atoms: C_23  and  N_41
   16  A    between atoms: C_25  and  O_35
   17  A    between atoms: C_25  and  N_41
   18  A    between atoms: C_26  and  C_32
   19  A    between atoms: C_30  and  C_45
   20  A    between atoms: C_31  and  C_39
   21  A    between atoms: C_31  and  C_45
   22  A    between atoms: C_37  and  N_38
                            x       y       z     vdW  Elec       q    Type
                         _______ _______ _______ _____ _____    ______ ____

>  <TORSDO>
F 22

$$$$
=
 OpenBabel11062418383D

 55 59  0  0  1  0  0  0  0  0999 V2000
  188.5320  177.0850  145.2430 C   0  0  1  0  0  3  0  0  0  0  0  0
  188.9590  171.7980  143.8300 N   0  0  0  0  0  1  0  0  0  0  0  0
  188.4420  176.7100  142.7210 C   0  0  0  0  0  3  0  0  0  0  0  0
  188.8080  176.2500  144.0240 C   0  0  0  0  0  0  0  0  0  0  0  0
  187.9900  175.6520  140.4490 C   0  0  0  0  0  0  0  0  0  0  0  0
  188.7100  175.8720  141.6290 C   0  0  0  0  0  0  0  0  0  0  0  0
  188.0970  174.3340  140.0870 N   0  0  0  0  0  0  0  0  0  0  0  0
  189.2100  174.8970  144.2100 C   0  0  0  0  0  3  0  0  0  0  0  0
  189.3090  174.6730  141.8380 C   0  0  0  0  0  0  0  0  0  0  0  0
  187.0820  176.5730  139.8180 N   0  0  0  0  0  0  0  0  0  0  0  0
  188.9430  173.7840  140.9460 N   0  0  0  0  0  0  0  0  0  0  0  0
  188.8060  172.5990  141.5240 N   0  0  0  0  0  0  0  0  0  0  0  0
  189.4470  174.1220  143.0660 C   0  0  0  0  0  0  0  0  0  0  0  0
  189.1900  172.7730  142.8220 C   0  0  0  0  0  0  0  0  0  0  0  0
  186.9130  177.9390  140.2950 C   0  0  0  0  0  2  0  0  0  0  0  0
  185.5740  178.3250  140.1760 O   0  0  0  0  0  0  0  0  0  0  0  0
  185.1290  178.4970  141.4910 C   0  0  0  0  0  2  0  0  0  0  0  0
  183.8180  177.7540  141.6700 C   0  0  0  0  0  2  0  0  0  0  0  0
  182.6940  178.5290  141.0720 C   0  0  0  0  0  3  0  0  0  0  0  0
  181.4800  178.0890  141.1450 N   0  0  0  0  0  0  0  0  0  0  0  0
  180.3780  178.7930  140.5630 C   0  0  0  0  0  0  0  0  0  0  0  0
  180.3490  180.0510  140.5440 O   0  0  0  0  0  0  0  0  0  0  0  0
  179.2550  178.0300  139.9630 C   0  0  0  0  0  1  0  0  0  0  0  0
  186.2990  176.1550  138.6600 C   0  0  0  0  0  2  0  0  0  0  0  0
  187.5620  175.5590  136.7470 C   0  0  0  0  0  0  0  0  0  0  0  0
  188.5110  174.6890  136.6260 N   0  0  0  0  0  2  0  0  0  0  0  0
  186.9660  176.6360  137.3840 C   0  0  1  0  0  3  0  0  0  0  0  0
  186.2390  176.1790  136.2840 N   0  0  0  0  0  2  0  0  0  0  0  0
  187.0780  177.2320  145.5710 C   0  0  0  0  0  0  0  0  0  0  0  0
  186.5620  178.4560  145.6610 C   0  0  0  0  0  3  0  0  0  0  0  0
  186.2760  176.1100  145.7560 O   0  0  0  0  0  1  0  0  0  0  0  0
  184.3290  178.3850  144.8800 O   0  0  0  0  0  1  0  0  0  0  0  0
  185.1220  178.6990  145.9830 C   0  0  0  0  0  2  0  0  0  0  0  0
  189.3930  176.6940  146.4430 C   0  0  0  0  0  2  0  0  0  0  0  0
  190.8220  177.2280  146.3510 C   0  0  0  0  0  2  0  0  0  0  0  0
  191.3990  175.4220  147.9080 C   0  0  0  0  0  1  0  0  0  0  0  0
  193.2220  176.8410  147.0240 C   0  0  0  0  0  2  0  0  0  0  0  0
  191.9860  175.1510  145.5320 C   0  0  0  0  0  2  0  0  0  0  0  0
  191.8760  176.1690  146.6810 C   0  0  2  0  0  0  0  0  0  0  0  0
  194.3870  175.8600  145.0250 C   0  0  1  0  0  3  0  0  0  0  0  0
  192.9820  175.5960  144.4580 C   0  0  0  0  0  2  0  0  0  0  0  0
  194.4190  176.0160  146.5510 C   0  0  0  0  0  2  0  0  0  0  0  0
  195.2930  174.7930  144.6260 N   0  0  0  0  0  2  0  0  0  0  0  0
  196.4320  175.4580  143.5050 S   0  0  0  0  0  0  0  0  0  0  0  0
  196.3650  176.9550  143.5720 O   0  0  0  0  0  0  0  0  0  0  0  0
  197.8190  175.0060  143.8710 O   0  0  0  0  0  0  0  0  0  0  0  0
  196.0430  174.9180  141.9020 N   0  0  0  0  0  2  0  0  0  0  0  0
  195.3840  173.6240  142.0090 C   0  0  2  0  0  3  0  0  0  0  0  0
  197.4560  173.1050  140.8020 N   0  0  0  0  0  1  0  0  0  0  0  0
  196.2660  172.5250  141.4080 C   0  0  1  0  0  3  0  0  0  0  0  0
  196.6820  171.5580  142.4680 C   0  0  0  0  0  3  0  0  0  0  0  0
  196.0100  171.4610  143.5540 N   0  0  0  0  0  2  0  0  0  0  0  0
  194.0470  173.6850  141.2810 C   0  0  0  0  0  2  0  0  0  0  0  0
  192.5600  172.0670  141.5060 C   0  0  0  0  0  1  0  0  0  0  0  0
  193.0260  173.2320  142.1170 O   0  0  0  0  0  0  0  0  0  0  0  0
  1 29  1  0  0  0  0
  1 34  1  1  0  0  0
  3  4  1  0  0  0  0
  4  8  2  0  0  0  0
  4  1  1  0  0  0  0
  5  6  1  0  0  0  0
  6  9  1  0  0  0  0
  6  3  2  0  0  0  0
  7  5  2  0  0  0  0
  7 11  1  0  0  0  0
  9 13  2  0  0  0  0
 10 15  1  0  0  0  0
 10  5  1  0  0  0  0
 11 12  1  0  0  0  0
 11  9  1  0  0  0  0
 12 14  2  0  0  0  0
 13  8  1  0  0  0  0
 14 13  1  0  0  0  0
 14  2  1  0  0  0  0
 16 15  1  0  0  0  0
 16 17  1  0  0  0  0
 17 18  1  0  0  0  0
 19 20  2  0  0  0  0
 19 18  1  0  0  0  0
 21 20  1  0  0  0  0
 22 21  2  0  0  0  0
 23 21  1  0  0  0  0
 24 10  1  0  0  0  0
 25 27  1  0  0  0  0
 26 25  2  0  0  0  0
 27 24  1  1  0  0  0
 28 25  1  0  0  0  0
 28 27  1  0  0  0  0
 29 30  2  0  0  0  0
 29 31  1  0  0  0  0
 30 33  1  0  0  0  0
 32 33  1  0  0  0  0
 35 34  1  0  0  0  0
 35 39  1  0  0  0  0
 38 39  1  0  0  0  0
 39 37  1  0  0  0  0
 39 36  1  1  0  0  0
 40 43  1  1  0  0  0
 40 42  1  0  0  0  0
 41 40  1  0  0  0  0
 41 38  1  0  0  0  0
 42 37  1  0  0  0  0
 44 45  2  0  0  0  0
 44 46  2  0  0  0  0
 44 43  1  0  0  0  0
 47 48  1  0  0  0  0
 47 44  1  0  0  0  0
 48 53  1  6  0  0  0
 50 49  1  1  0  0  0
 50 48  1  0  0  0  0
 50 51  1  0  0  0  0
 51 52  2  0  0  0  0
 53 55  1  0  0  0  0
 54 55  1  0  0  0  0
M  END
>  <MODEL>
2

>  <REMARK>
 VINA RESULT:      -5.7      3.506      9.718
  Name = 
  22 active torsions:
  status: ('A' for Active; 'I' for Inactive)
    1  A    between atoms: C_2  and  O_19
    2  A    between atoms: C_2  and  C_20
    3  A    between atoms: C_5  and  N_55
    4  A    between atoms: S_6  and  N_21
    5  A    between atoms: S_6  and  N_38
    6  A    between atoms: C_7  and  C_39
    7  A    between atoms: C_14  and  C_51
    8  A    between atoms: C_15  and  C_18
    9  A    between atoms: C_15  and  C_46
   10  A    between atoms: C_16  and  C_39
   11  A    between atoms: C_18  and  O_35
   12  A    between atoms: C_20  and  N_21
   13  A    between atoms: C_20  and  C_26
   14  A    between atoms: C_23  and  C_29
   15  A    between atoms: C_23  and  N_41
   16  A    between atoms: C_25  and  O_35
   17  A    between atoms: C_25  and  N_41
   18  A    between atoms: C_26  and  C_32
   19  A    between atoms: C_30  and  C_45
   20  A    between atoms: C_31  and  C_39
   21  A    between atoms: C_31  and  C_45
   22  A    between atoms: C_37  and  N_38
                            x       y       z     vdW  Elec       q    Type
                         _______ _______ _______ _____ _____    ______ ____

>  <TORSDO>
F 22

$$$$
=
 OpenBabel11062418383D

 55 59  0  0  1  0  0  0  0  0999 V2000
  192.4510  172.6950  143.9530 C   0  0  1  0  0  3  0  0  0  0  0  0
  187.3750  173.1430  141.9120 N   0  0  0  0  0  1  0  0  0  0  0  0
  192.3970  172.7540  141.4030 C   0  0  0  0  0  3  0  0  0  0  0  0
  191.7300  172.5230  142.6460 C   0  0  0  0  0  0  0  0  0  0  0  0
  191.7100  173.2990  139.0110 C   0  0  0  0  0  0  0  0  0  0  0  0
  191.6590  172.5960  140.2220 C   0  0  0  0  0  0  0  0  0  0  0  0
  190.4460  173.4090  138.4930 N   0  0  0  0  0  0  0  0  0  0  0  0
  190.3140  172.3700  142.6720 C   0  0  0  0  0  3  0  0  0  0  0  0
  190.3570  172.2230  140.2920 C   0  0  0  0  0  0  0  0  0  0  0  0
  192.8450  174.0080  138.4830 N   0  0  0  0  0  0  0  0  0  0  0  0
  189.6570  172.7050  139.2920 N   0  0  0  0  0  0  0  0  0  0  0  0
  188.4560  173.0680  139.7190 N   0  0  0  0  0  0  0  0  0  0  0  0
  189.6490  172.2290  141.4460 C   0  0  0  0  0  0  0  0  0  0  0  0
  188.4050  172.7070  141.0340 C   0  0  0  0  0  0  0  0  0  0  0  0
  194.1540  173.9540  139.1210 C   0  0  0  0  0  2  0  0  0  0  0  0
  194.9370  175.0320  138.6960 O   0  0  0  0  0  0  0  0  0  0  0  0
  195.5730  175.4950  139.8530 C   0  0  0  0  0  2  0  0  0  0  0  0
  194.5320  175.7210  140.9330 C   0  0  0  0  0  2  0  0  0  0  0  0
  195.1520  175.6130  142.2840 C   0  0  0  0  0  3  0  0  0  0  0  0
  194.7700  176.3890  143.2460 N   0  0  0  0  0  0  0  0  0  0  0  0
  195.3580  176.3310  144.5510 C   0  0  0  0  0  0  0  0  0  0  0  0
  196.2830  175.5190  144.8100 O   0  0  0  0  0  0  0  0  0  0  0  0
  194.8760  177.2500  145.6120 C   0  0  0  0  0  1  0  0  0  0  0  0
  192.7120  174.8080  137.2700 C   0  0  0  0  0  2  0  0  0  0  0  0
  191.8380  174.2590  135.1380 C   0  0  0  0  0  0  0  0  0  0  0  0
  190.6120  174.2480  134.7290 N   0  0  0  0  0  2  0  0  0  0  0  0
  192.8260  173.9160  136.0470 C   0  0  1  0  0  3  0  0  0  0  0  0
  193.3070  174.6660  134.9740 N   0  0  0  0  0  2  0  0  0  0  0  0
  193.7670  171.9830  144.0270 C   0  0  0  0  0  0  0  0  0  0  0  0
  193.8680  170.7660  143.4980 C   0  0  0  0  0  3  0  0  0  0  0  0
  194.8700  172.5920  144.6190 O   0  0  0  0  0  1  0  0  0  0  0  0
  195.9620  170.3720  142.4680 O   0  0  0  0  0  1  0  0  0  0  0  0
  195.1410  169.9810  143.5250 C   0  0  0  0  0  2  0  0  0  0  0  0
  192.5160  174.1500  144.4130 C   0  0  0  0  0  2  0  0  0  0  0  0
  192.4060  174.3010  145.9300 C   0  0  0  0  0  2  0  0  0  0  0  0
  191.2870  175.3140  147.8630 C   0  0  0  0  0  1  0  0  0  0  0  0
  189.8910  174.4770  146.0010 C   0  0  0  0  0  2  0  0  0  0  0  0
  191.3490  176.5800  145.7520 C   0  0  0  0  0  2  0  0  0  0  0  0
  191.2220  175.1700  146.3580 C   0  0  2  0  0  0  0  0  0  0  0  0
  189.2410  176.2550  144.3470 C   0  0  1  0  0  3  0  0  0  0  0  0
  190.7220  176.6690  144.3590 C   0  0  0  0  0  2  0  0  0  0  0  0
  188.8070  175.4760  145.5970 C   0  0  0  0  0  2  0  0  0  0  0  0
  188.3950  177.4300  144.1890 N   0  0  0  0  0  2  0  0  0  0  0  0
  187.3910  177.1760  142.8030 S   0  0  0  0  0  0  0  0  0  0  0  0
  188.2610  176.8870  141.6160 O   0  0  0  0  0  0  0  0  0  0  0  0
  186.4820  176.0030  143.0510 O   0  0  0  0  0  0  0  0  0  0  0  0
  186.4430  178.6000  142.5100 N   0  0  0  0  0  2  0  0  0  0  0  0
  185.0370  178.2400  142.6370 C   0  0  2  0  0  3  0  0  0  0  0  0
  184.8720  177.7800  140.2340 N   0  0  0  0  0  1  0  0  0  0  0  0
  184.2910  178.5380  141.3320 C   0  0  1  0  0  3  0  0  0  0  0  0
  182.8480  178.1720  141.4670 C   0  0  0  0  0  3  0  0  0  0  0  0
  182.1630  177.8540  140.4340 N   0  0  0  0  0  2  0  0  0  0  0  0
  184.4240  179.0280  143.7880 C   0  0  0  0  0  2  0  0  0  0  0  0
  184.0790  178.6520  145.9370 C   0  0  0  0  0  1  0  0  0  0  0  0
  185.0900  178.7340  144.9780 O   0  0  0  0  0  0  0  0  0  0  0  0
  1 29  1  0  0  0  0
  1 34  1  6  0  0  0
  3  4  1  0  0  0  0
  4  8  2  0  0  0  0
  4  1  1  0  0  0  0
  5  6  1  0  0  0  0
  6  9  1  0  0  0  0
  6  3  2  0  0  0  0
  7  5  2  0  0  0  0
  7 11  1  0  0  0  0
  9 13  2  0  0  0  0
 10  5  1  0  0  0  0
 10 15  1  0  0  0  0
 11 12  1  0  0  0  0
 11  9  1  0  0  0  0
 12 14  2  0  0  0  0
 13  8  1  0  0  0  0
 14 13  1  0  0  0  0
 14  2  1  0  0  0  0
 16 15  1  0  0  0  0
 16 17  1  0  0  0  0
 17 18  1  0  0  0  0
 18 19  1  0  0  0  0
 19 20  2  0  0  0  0
 20 21  1  0  0  0  0
 21 22  2  0  0  0  0
 21 23  1  0  0  0  0
 24 10  1  0  0  0  0
 25 27  1  0  0  0  0
 26 25  2  0  0  0  0
 27 24  1  1  0  0  0
 28 25  1  0  0  0  0
 28 27  1  0  0  0  0
 29 31  1  0  0  0  0
 30 33  1  0  0  0  0
 30 29  2  0  0  0  0
 32 33  1  0  0  0  0
 34 35  1  0  0  0  0
 35 39  1  0  0  0  0
 37 39  1  0  0  0  0
 38 39  1  0  0  0  0
 39 36  1  1  0  0  0
 40 43  1  1  0  0  0
 40 41  1  0  0  0  0
 40 42  1  0  0  0  0
 41 38  1  0  0  0  0
 42 37  1  0  0  0  0
 44 46  2  0  0  0  0
 44 43  1  0  0  0  0
 45 44  2  0  0  0  0
 47 48  1  0  0  0  0
 47 44  1  0  0  0  0
 48 53  1  1  0  0  0
 50 49  1  6  0  0  0
 50 51  1  0  0  0  0
 50 48  1  0  0  0  0
 52 51  2  0  0  0  0
 53 55  1  0  0  0  0
 55 54  1  0  0  0  0
M  END
>  <MODEL>
3

>  <REMARK>
 VINA RESULT:      -5.7      2.795      4.407
  Name = 
  22 active torsions:
  status: ('A' for Active; 'I' for Inactive)
    1  A    between atoms: C_2  and  O_19
    2  A    between atoms: C_2  and  C_20
    3  A    between atoms: C_5  and  N_55
    4  A    between atoms: S_6  and  N_21
    5  A    between atoms: S_6  and  N_38
    6  A    between atoms: C_7  and  C_39
    7  A    between atoms: C_14  and  C_51
    8  A    between atoms: C_15  and  C_18
    9  A    between atoms: C_15  and  C_46
   10  A    between atoms: C_16  and  C_39
   11  A    between atoms: C_18  and  O_35
   12  A    between atoms: C_20  and  N_21
   13  A    between atoms: C_20  and  C_26
   14  A    between atoms: C_23  and  C_29
   15  A    between atoms: C_23  and  N_41
   16  A    between atoms: C_25  and  O_35
   17  A    between atoms: C_25  and  N_41
   18  A    between atoms: C_26  and  C_32
   19  A    between atoms: C_30  and  C_45
   20  A    between atoms: C_31  and  C_39
   21  A    between atoms: C_31  and  C_45
   22  A    between atoms: C_37  and  N_38
                            x       y       z     vdW  Elec       q    Type
                         _______ _______ _______ _____ _____    ______ ____

>  <TORSDO>
F 22

$$$$
=
 OpenBabel11062418383D

 55 59  0  0  1  0  0  0  0  0999 V2000
  187.9110  174.2230  141.1050 C   0  0  1  0  0  3  0  0  0  0  0  0
  190.8990  169.6700  141.7900 N   0  0  0  0  0  1  0  0  0  0  0  0
  189.7760  174.4960  142.8240 C   0  0  0  0  0  3  0  0  0  0  0  0
  188.9030  173.6470  142.0760 C   0  0  0  0  0  0  0  0  0  0  0  0
  192.0030  174.2490  144.0360 C   0  0  0  0  0  0  0  0  0  0  0  0
  190.6910  173.8920  143.6970 C   0  0  0  0  0  0  0  0  0  0  0  0
  192.7530  173.1160  144.2140 N   0  0  0  0  0  0  0  0  0  0  0  0
  189.1300  172.2410  142.0540 C   0  0  0  0  0  3  0  0  0  0  0  0
  190.7140  172.5410  143.8110 C   0  0  0  0  0  0  0  0  0  0  0  0
  192.5680  175.5710  143.9840 N   0  0  0  0  0  0  0  0  0  0  0  0
  191.9140  172.0960  144.1020 N   0  0  0  0  0  0  0  0  0  0  0  0
  192.1440  170.9650  143.4500 N   0  0  0  0  0  0  0  0  0  0  0  0
  190.0710  171.7170  142.9510 C   0  0  0  0  0  0  0  0  0  0  0  0
  190.9840  170.6740  142.7930 C   0  0  0  0  0  0  0  0  0  0  0  0
  191.7590  176.7450  143.6860 C   0  0  0  0  0  2  0  0  0  0  0  0
  190.9990  177.0990  144.8050 O   0  0  0  0  0  0  0  0  0  0  0  0
  189.7870  177.5670  144.2880 C   0  0  0  0  0  2  0  0  0  0  0  0
  188.6890  177.3280  145.3070 C   0  0  0  0  0  2  0  0  0  0  0  0
  187.3980  177.8930  144.8220 C   0  0  0  0  0  3  0  0  0  0  0  0
  186.5630  178.4310  145.6510 N   0  0  0  0  0  0  0  0  0  0  0  0
  185.3030  178.9630  145.2270 C   0  0  0  0  0  0  0  0  0  0  0  0
  184.2280  178.5920  145.7650 O   0  0  0  0  0  0  0  0  0  0  0  0
  185.2630  179.9750  144.1420 C   0  0  0  0  0  1  0  0  0  0  0  0
  193.9900  175.7720  144.2400 C   0  0  0  0  0  2  0  0  0  0  0  0
  193.5280  175.7490  146.5630 C   0  0  0  0  0  0  0  0  0  0  0  0
  192.4550  175.3820  147.1860 N   0  0  0  0  0  2  0  0  0  0  0  0
  194.1820  176.4680  145.5760 C   0  0  1  0  0  3  0  0  0  0  0  0
  195.0480  175.7140  146.3680 N   0  0  0  0  0  2  0  0  0  0  0  0
  187.3070  175.5230  141.5420 C   0  0  0  0  0  0  0  0  0  0  0  0
  187.5150  176.6070  140.7990 C   0  0  0  0  0  3  0  0  0  0  0  0
  186.5260  175.5900  142.6910 O   0  0  0  0  0  1  0  0  0  0  0  0
  185.7520  178.1530  140.4770 O   0  0  0  0  0  1  0  0  0  0  0  0
  186.9520  177.9460  141.1560 C   0  0  0  0  0  2  0  0  0  0  0  0
  188.4220  174.2380  139.6660 C   0  0  0  0  0  2  0  0  0  0  0  0
  188.3900  172.8600  139.0060 C   0  0  0  0  0  2  0  0  0  0  0  0
  189.2000  172.5680  136.7100 C   0  0  0  0  0  1  0  0  0  0  0  0
  190.2020  171.1820  138.4960 C   0  0  0  0  0  2  0  0  0  0  0  0
  190.6640  173.7050  138.3310 C   0  0  0  0  0  2  0  0  0  0  0  0
  189.6320  172.5750  138.1600 C   0  0  2  0  0  0  0  0  0  0  0  0
  192.3420  172.1190  139.4230 C   0  0  1  0  0  3  0  0  0  0  0  0
  191.5970  173.4610  139.5190 C   0  0  0  0  0  2  0  0  0  0  0  0
  191.7280  171.1430  138.4110 C   0  0  0  0  0  2  0  0  0  0  0  0
  193.7400  172.3480  139.0900 N   0  0  0  0  0  2  0  0  0  0  0  0
  194.6760  172.0670  140.5190 S   0  0  0  0  0  0  0  0  0  0  0  0
  194.3380  173.1160  141.5370 O   0  0  0  0  0  0  0  0  0  0  0  0
  194.3470  170.7100  141.0760 O   0  0  0  0  0  0  0  0  0  0  0  0
  196.3650  172.1460  140.1260 N   0  0  0  0  0  2  0  0  0  0  0  0
  196.9400  173.2820  140.8340 C   0  0  2  0  0  3  0  0  0  0  0  0
  197.3660  173.8170  138.4790 N   0  0  0  0  0  1  0  0  0  0  0  0
  197.6340  174.2290  139.8490 C   0  0  1  0  0  3  0  0  0  0  0  0
  197.1430  175.6270  140.0420 C   0  0  0  0  0  3  0  0  0  0  0  0
  196.2900  175.8910  140.9600 N   0  0  0  0  0  2  0  0  0  0  0  0
  197.9360  172.7720  141.8680 C   0  0  0  0  0  2  0  0  0  0  0  0
  197.1540  173.5060  143.7980 C   0  0  0  0  0  1  0  0  0  0  0  0
  197.2640  172.3550  143.0170 O   0  0  0  0  0  0  0  0  0  0  0  0
  1 34  1  6  0  0  0
  1 29  1  0  0  0  0
  1  4  1  0  0  0  0
  2 14  1  0  0  0  0
  3  6  1  0  0  0  0
  4  3  2  0  0  0  0
  5  7  2  0  0  0  0
  6  9  2  0  0  0  0
  6  5  1  0  0  0  0
  8  4  1  0  0  0  0
  8 13  2  0  0  0  0
  9 11  1  0  0  0  0
 10  5  1  0  0  0  0
 10 24  1  0  0  0  0
 11  7  1  0  0  0  0
 12 11  1  0  0  0  0
 13  9  1  0  0  0  0
 14 13  1  0  0  0  0
 14 12  2  0  0  0  0
 15 10  1  0  0  0  0
 15 16  1  0  0  0  0
 17 16  1  0  0  0  0
 17 18  1  0  0  0  0
 19 18  1  0  0  0  0
 19 20  2  0  0  0  0
 21 20  1  0  0  0  0
 21 22  2  0  0  0  0
 23 21  1  0  0  0  0
 25 26  2  0  0  0  0
 27 24  1  6  0  0  0
 27 28  1  0  0  0  0
 27 25  1  0  0  0  0
 28 25  1  0  0  0  0
 29 31  1  0  0  0  0
 30 33  1  0  0  0  0
 30 29  2  0  0  0  0
 32 33  1  0  0  0  0
 35 34  1  0  0  0  0
 38 41  1  0  0  0  0
 39 36  1  6  0  0  0
 39 38  1  0  0  0  0
 39 37  1  0  0  0  0
 39 35  1  0  0  0  0
 40 43  1  6  0  0  0
 40 41  1  0  0  0  0
 42 37  1  0  0  0  0
 42 40  1  0  0  0  0
 43 44  1  0  0  0  0
 44 46  2  0  0  0  0
 44 45  2  0  0  0  0
 47 44  1  0  0  0  0
 47 48  1  0  0  0  0
 48 53  1  1  0  0  0
 50 49  1  6  0  0  0
 50 51  1  0  0  0  0
 50 48  1  0  0  0  0
 51 52  2  0  0  0  0
 53 55  1  0  0  0  0
 55 54  1  0  0  0  0
M  END
>  <MODEL>
4

>  <REMARK>
 VINA RESULT:      -5.7      3.092      8.836
  Name = 
  22 active torsions:
  status: ('A' for Active; 'I' for Inactive)
    1  A    between atoms: C_2  and  O_19
    2  A    between atoms: C_2  and  C_20
    3  A    between atoms: C_5  and  N_55
    4  A    between atoms: S_6  and  N_21
    5  A    between atoms: S_6  and  N_38
    6  A    between atoms: C_7  and  C_39
    7  A    between atoms: C_14  and  C_51
    8  A    between atoms: C_15  and  C_18
    9  A    between atoms: C_15  and  C_46
   10  A    between atoms: C_16  and  C_39
   11  A    between atoms: C_18  and  O_35
   12  A    between atoms: C_20  and  N_21
   13  A    between atoms: C_20  and  C_26
   14  A    between atoms: C_23  and  C_29
   15  A    between atoms: C_23  and  N_41
   16  A    between atoms: C_25  and  O_35
   17  A    between atoms: C_25  and  N_41
   18  A    between atoms: C_26  and  C_32
   19  A    between atoms: C_30  and  C_45
   20  A    between atoms: C_31  and  C_39
   21  A    between atoms: C_31  and  C_45
   22  A    between atoms: C_37  and  N_38
                            x       y       z     vdW  Elec       q    Type
                         _______ _______ _______ _____ _____    ______ ____

>  <TORSDO>
F 22

$$$$
=
 OpenBabel11062418383D

 55 59  0  0  1  0  0  0  0  0999 V2000
  192.5490  172.3900  143.9160 C   0  0  1  0  0  3  0  0  0  0  0  0
  187.3710  172.7700  142.1360 N   0  0  0  0  0  1  0  0  0  0  0  0
  192.3670  172.4930  141.3730 C   0  0  0  0  0  3  0  0  0  0  0  0
  191.7670  172.2260  142.6430 C   0  0  0  0  0  0  0  0  0  0  0  0
  191.5520  173.0650  139.0290 C   0  0  0  0  0  0  0  0  0  0  0  0
  191.5750  172.3400  140.2270 C   0  0  0  0  0  0  0  0  0  0  0  0
  190.2630  173.1580  138.5750 N   0  0  0  0  0  0  0  0  0  0  0  0
  190.3580  172.0440  142.7360 C   0  0  0  0  0  3  0  0  0  0  0  0
  190.2860  171.9390  140.3540 C   0  0  0  0  0  0  0  0  0  0  0  0
  192.6460  173.8060  138.4580 N   0  0  0  0  0  0  0  0  0  0  0  0
  189.5280  172.4240  139.3990 N   0  0  0  0  0  0  0  0  0  0  0  0
  188.3420  172.7550  139.8910 N   0  0  0  0  0  0  0  0  0  0  0  0
  189.6360  171.9110  141.5410 C   0  0  0  0  0  0  0  0  0  0  0  0
  188.3640  172.3710  141.2000 C   0  0  0  0  0  0  0  0  0  0  0  0
  193.9860  173.7680  139.0300 C   0  0  0  0  0  2  0  0  0  0  0  0
  194.8060  174.7000  138.3870 O   0  0  0  0  0  0  0  0  0  0  0  0
  195.2110  175.5820  139.3940 C   0  0  0  0  0  2  0  0  0  0  0  0
  194.8010  175.0160  140.7400 C   0  0  0  0  0  2  0  0  0  0  0  0
  195.8160  175.3560  141.7780 C   0  0  0  0  0  3  0  0  0  0  0  0
  195.9990  174.5810  142.7970 N   0  0  0  0  0  0  0  0  0  0  0  0
  196.9480  174.8860  143.8260 C   0  0  0  0  0  0  0  0  0  0  0  0
  197.9340  175.6340  143.5980 O   0  0  0  0  0  0  0  0  0  0  0  0
  196.7620  174.3200  145.1850 C   0  0  0  0  0  1  0  0  0  0  0  0
  192.4370  174.6240  137.2690 C   0  0  0  0  0  2  0  0  0  0  0  0
  191.6680  173.5320  135.3120 C   0  0  0  0  0  0  0  0  0  0  0  0
  190.5920  172.8410  135.1250 N   0  0  0  0  0  2  0  0  0  0  0  0
  192.8160  173.8370  136.0270 C   0  0  1  0  0  3  0  0  0  0  0  0
  192.6430  174.6420  134.9010 N   0  0  0  0  0  2  0  0  0  0  0  0
  193.5530  171.3070  144.1650 C   0  0  0  0  0  0  0  0  0  0  0  0
  193.1180  170.0950  144.5040 C   0  0  0  0  0  3  0  0  0  0  0  0
  194.9150  171.5570  144.0230 O   0  0  0  0  0  1  0  0  0  0  0  0
  194.0350  168.6410  146.1310 O   0  0  0  0  0  1  0  0  0  0  0  0
  194.0460  168.9540  144.7720 C   0  0  0  0  0  2  0  0  0  0  0  0
  193.1120  173.7990  144.0950 C   0  0  0  0  0  2  0  0  0  0  0  0
  192.2320  174.6860  144.9740 C   0  0  0  0  0  2  0  0  0  0  0  0
  193.3030  176.8620  144.6030 C   0  0  0  0  0  1  0  0  0  0  0  0
  190.8890  176.8140  145.1370 C   0  0  0  0  0  2  0  0  0  0  0  0
  191.7830  175.9960  142.8700 C   0  0  0  0  0  2  0  0  0  0  0  0
  192.0220  176.0840  144.3880 C   0  0  2  0  0  0  0  0  0  0  0  0
  189.4030  176.8930  143.1110 C   0  0  1  0  0  3  0  0  0  0  0  0
  190.3050  175.7910  142.5300 C   0  0  0  0  0  2  0  0  0  0  0  0
  190.0740  177.7220  144.2150 C   0  0  0  0  0  2  0  0  0  0  0  0
  188.9470  177.7770  142.0490 N   0  0  0  0  0  2  0  0  0  0  0  0
  187.4380  177.1650  141.4630 S   0  0  0  0  0  0  0  0  0  0  0  0
  186.9020  178.1050  140.4240 O   0  0  0  0  0  0  0  0  0  0  0  0
  187.6520  175.8110  140.8460 O   0  0  0  0  0  0  0  0  0  0  0  0
  186.3170  177.0390  142.7820 N   0  0  0  0  0  2  0  0  0  0  0  0
  186.0550  178.3820  143.2810 C   0  0  2  0  0  3  0  0  0  0  0  0
  185.2180  179.2540  145.4150 N   0  0  0  0  0  1  0  0  0  0  0  0
  186.2510  178.4350  144.8000 C   0  0  1  0  0  3  0  0  0  0  0  0
  186.1900  177.0580  145.3770 C   0  0  0  0  0  3  0  0  0  0  0  0
  187.1830  176.5870  146.0320 N   0  0  0  0  0  2  0  0  0  0  0  0
  184.6290  178.7790  142.9180 C   0  0  0  0  0  2  0  0  0  0  0  0
  182.7610  178.2510  141.8660 C   0  0  0  0  0  1  0  0  0  0  0  0
  184.0930  177.8630  142.0120 O   0  0  0  0  0  0  0  0  0  0  0  0
  1 34  1  6  0  0  0
  1 29  1  0  0  0  0
  3  4  1  0  0  0  0
  4  8  2  0  0  0  0
  4  1  1  0  0  0  0
  5  6  1  0  0  0  0
  6  9  1  0  0  0  0
  6  3  2  0  0  0  0
  7  5  2  0  0  0  0
  7 11  1  0  0  0  0
  9 13  2  0  0  0  0
 10  5  1  0  0  0  0
 10 15  1  0  0  0  0
 11 12  1  0  0  0  0
 11  9  1  0  0  0  0
 12 14  2  0  0  0  0
 13  8  1  0  0  0  0
 14 13  1  0  0  0  0
 14  2  1  0  0  0  0
 16 15  1  0  0  0  0
 16 17  1  0  0  0  0
 17 18  1  0  0  0  0
 18 19  1  0  0  0  0
 19 20  2  0  0  0  0
 20 21  1  0  0  0  0
 21 23  1  0  0  0  0
 22 21  2  0  0  0  0
 24 10  1  0  0  0  0
 25 27  1  0  0  0  0
 26 25  2  0  0  0  0
 27 24  1  1  0  0  0
 28 25  1  0  0  0  0
 28 27  1  0  0  0  0
 29 30  2  0  0  0  0
 30 33  1  0  0  0  0
 31 29  1  0  0  0  0
 33 32  1  0  0  0  0
 34 35  1  0  0  0  0
 38 39  1  0  0  0  0
 39 36  1  1  0  0  0
 39 35  1  0  0  0  0
 39 37  1  0  0  0  0
 40 43  1  6  0  0  0
 40 42  1  0  0  0  0
 41 38  1  0  0  0  0
 41 40  1  0  0  0  0
 42 37  1  0  0  0  0
 44 43  1  0  0  0  0
 44 47  1  0  0  0  0
 45 44  2  0  0  0  0
 46 44  2  0  0  0  0
 47 48  1  0  0  0  0
 48 53  1  1  0  0  0
 48 50  1  0  0  0  0
 50 51  1  0  0  0  0
 50 49  1  1  0  0  0
 51 52  2  0  0  0  0
 54 55  1  0  0  0  0
 55 53  1  0  0  0  0
M  END
>  <MODEL>
5

>  <REMARK>
 VINA RESULT:      -5.6      3.056      4.894
  Name = 
  22 active torsions:
  status: ('A' for Active; 'I' for Inactive)
    1  A    between atoms: C_2  and  O_19
    2  A    between atoms: C_2  and  C_20
    3  A    between atoms: C_5  and  N_55
    4  A    between atoms: S_6  and  N_21
    5  A    between atoms: S_6  and  N_38
    6  A    between atoms: C_7  and  C_39
    7  A    between atoms: C_14  and  C_51
    8  A    between atoms: C_15  and  C_18
    9  A    between atoms: C_15  and  C_46
   10  A    between atoms: C_16  and  C_39
   11  A    between atoms: C_18  and  O_35
   12  A    between atoms: C_20  and  N_21
   13  A    between atoms: C_20  and  C_26
   14  A    between atoms: C_23  and  C_29
   15  A    between atoms: C_23  and  N_41
   16  A    between atoms: C_25  and  O_35
   17  A    between atoms: C_25  and  N_41
   18  A    between atoms: C_26  and  C_32
   19  A    between atoms: C_30  and  C_45
   20  A    between atoms: C_31  and  C_39
   21  A    between atoms: C_31  and  C_45
   22  A    between atoms: C_37  and  N_38
                            x       y       z     vdW  Elec       q    Type
                         _______ _______ _______ _____ _____    ______ ____

>  <TORSDO>
F 22

$$$$
=
 OpenBabel11062418383D

 55 59  0  0  1  0  0  0  0  0999 V2000
  190.7000  173.0480  138.2950 C   0  0  1  0  0  3  0  0  0  0  0  0
  192.5100  169.8990  142.4100 N   0  0  0  0  0  1  0  0  0  0  0  0
  189.7800  173.7440  140.5710 C   0  0  0  0  0  3  0  0  0  0  0  0
  190.3710  172.7500  139.7310 C   0  0  0  0  0  0  0  0  0  0  0  0
  189.5930  174.1740  143.0740 C   0  0  0  0  0  0  0  0  0  0  0  0
  189.5180  173.4060  141.9060 C   0  0  0  0  0  0  0  0  0  0  0  0
  190.0380  173.3920  144.1080 N   0  0  0  0  0  0  0  0  0  0  0  0
  190.8830  171.5520  140.3050 C   0  0  0  0  0  3  0  0  0  0  0  0
  189.8190  172.1610  142.3510 C   0  0  0  0  0  0  0  0  0  0  0  0
  189.4600  175.6040  143.1670 N   0  0  0  0  0  0  0  0  0  0  0  0
  190.1290  172.1610  143.6260 N   0  0  0  0  0  0  0  0  0  0  0  0
  191.1190  171.3080  143.8470 N   0  0  0  0  0  0  0  0  0  0  0  0
  190.5850  171.2930  141.6500 C   0  0  0  0  0  0  0  0  0  0  0  0
  191.3620  170.7030  142.6480 C   0  0  0  0  0  0  0  0  0  0  0  0
  189.0860  176.4200  142.0180 C   0  0  0  0  0  2  0  0  0  0  0  0
  187.7060  176.3420  141.8050 O   0  0  0  0  0  0  0  0  0  0  0  0
  187.3380  177.6110  141.3470 C   0  0  0  0  0  2  0  0  0  0  0  0
  185.8680  177.8350  141.6450 C   0  0  0  0  0  2  0  0  0  0  0  0
  185.6990  178.4650  142.9860 C   0  0  0  0  0  3  0  0  0  0  0  0
  185.4290  177.7410  144.0220 N   0  0  0  0  0  0  0  0  0  0  0  0
  185.2370  178.3110  145.3220 C   0  0  0  0  0  0  0  0  0  0  0  0
  185.5690  179.5000  145.5640 O   0  0  0  0  0  0  0  0  0  0  0  0
  184.6280  177.4920  146.3990 C   0  0  0  0  0  1  0  0  0  0  0  0
  189.6930  176.2830  144.4360 C   0  0  0  0  0  2  0  0  0  0  0  0
  188.7230  175.7350  146.5270 C   0  0  0  0  0  0  0  0  0  0  0  0
  188.9770  174.7430  147.3170 N   0  0  0  0  0  2  0  0  0  0  0  0
  188.4290  176.2570  145.2770 C   0  0  1  0  0  3  0  0  0  0  0  0
  188.5170  177.2320  146.2710 N   0  0  0  0  0  2  0  0  0  0  0  0
  189.5450  173.5680  137.4950 C   0  0  0  0  0  0  0  0  0  0  0  0
  189.7660  174.5230  136.5950 C   0  0  0  0  0  3  0  0  0  0  0  0
  188.2670  173.0460  137.6750 O   0  0  0  0  0  1  0  0  0  0  0  0
  188.6410  174.4580  134.5140 O   0  0  0  0  0  1  0  0  0  0  0  0
  188.6760  175.1010  135.7510 C   0  0  0  0  0  2  0  0  0  0  0  0
  191.9770  173.8720  138.1330 C   0  0  0  0  0  2  0  0  0  0  0  0
  192.9750  173.2400  137.1640 C   0  0  0  0  0  2  0  0  0  0  0  0
  195.1780  172.2280  136.7960 C   0  0  0  0  0  1  0  0  0  0  0  0
  194.2310  172.1860  139.0800 C   0  0  0  0  0  2  0  0  0  0  0  0
  195.0620  174.3690  138.0060 C   0  0  0  0  0  2  0  0  0  0  0  0
  194.3540  173.0190  137.7880 C   0  0  2  0  0  0  0  0  0  0  0  0
  195.0350  174.0660  140.5420 C   0  0  1  0  0  3  0  0  0  0  0  0
  194.7110  174.9930  139.3590 C   0  0  0  0  0  2  0  0  0  0  0  0
  195.2530  172.6020  140.1380 C   0  0  0  0  0  2  0  0  0  0  0  0
  196.2080  174.5540  141.2530 N   0  0  0  0  0  2  0  0  0  0  0  0
  195.7040  175.0330  142.8380 S   0  0  0  0  0  0  0  0  0  0  0  0
  196.9160  175.1840  143.7100 O   0  0  0  0  0  0  0  0  0  0  0  0
  194.9820  176.3500  142.7580 O   0  0  0  0  0  0  0  0  0  0  0  0
  194.6480  173.8240  143.4970 N   0  0  0  0  0  2  0  0  0  0  0  0
  194.7190  173.9060  144.9490 C   0  0  2  0  0  3  0  0  0  0  0  0
  194.7910  171.4750  144.6290 N   0  0  0  0  0  1  0  0  0  0  0  0
  195.1390  172.5560  145.5400 C   0  0  1  0  0  3  0  0  0  0  0  0
  196.6140  172.5340  145.7810 C   0  0  0  0  0  3  0  0  0  0  0  0
  197.1520  173.3860  146.5700 N   0  0  0  0  0  2  0  0  0  0  0  0
  193.3560  174.3190  145.4920 C   0  0  0  0  0  2  0  0  0  0  0  0
  194.2040  176.1350  146.4170 C   0  0  0  0  0  1  0  0  0  0  0  0
  193.2440  175.7090  145.4980 O   0  0  0  0  0  0  0  0  0  0  0  0
  1 34  1  1  0  0  0
  1  4  1  0  0  0  0
  2 14  1  0  0  0  0
  3  6  1  0  0  0  0
  4  8  1  0  0  0  0
  4  3  2  0  0  0  0
  5 10  1  0  0  0  0
  5  7  2  0  0  0  0
  6  9  2  0  0  0  0
  6  5  1  0  0  0  0
  8 13  2  0  0  0  0
  9 11  1  0  0  0  0
 10 24  1  0  0  0  0
 11 12  1  0  0  0  0
 11  7  1  0  0  0  0
 13  9  1  0  0  0  0
 13 14  1  0  0  0  0
 14 12  2  0  0  0  0
 15 10  1  0  0  0  0
 16 15  1  0  0  0  0
 17 18  1  0  0  0  0
 17 16  1  0  0  0  0
 18 19  1  0  0  0  0
 19 20  2  0  0  0  0
 20 21  1  0  0  0  0
 21 22  2  0  0  0  0
 21 23  1  0  0  0  0
 25 26  2  0  0  0  0
 27 24  1  6  0  0  0
 27 28  1  0  0  0  0
 27 25  1  0  0  0  0
 28 25  1  0  0  0  0
 29 31  1  0  0  0  0
 29  1  1  0  0  0  0
 30 29  2  0  0  0  0
 32 33  1  0  0  0  0
 33 30  1  0  0  0  0
 35 39  1  0  0  0  0
 35 34  1  0  0  0  0
 37 42  1  0  0  0  0
 38 41  1  0  0  0  0
 39 36  1  6  0  0  0
 39 38  1  0  0  0  0
 39 37  1  0  0  0  0
 40 43  1  6  0  0  0
 41 40  1  0  0  0  0
 42 40  1  0  0  0  0
 43 44  1  0  0  0  0
 44 47  1  0  0  0  0
 44 45  2  0  0  0  0
 46 44  2  0  0  0  0
 47 48  1  0  0  0  0
 48 53  1  1  0  0  0
 48 50  1  0  0  0  0
 50 49  1  6  0  0  0
 50 51  1  0  0  0  0
 51 52  2  0  0  0  0
 53 55  1  0  0  0  0
 55 54  1  0  0  0  0
M  END
>  <MODEL>
6

>  <REMARK>
 VINA RESULT:      -5.6      3.269      9.125
  Name = 
  22 active torsions:
  status: ('A' for Active; 'I' for Inactive)
    1  A    between atoms: C_2  and  O_19
    2  A    between atoms: C_2  and  C_20
    3  A    between atoms: C_5  and  N_55
    4  A    between atoms: S_6  and  N_21
    5  A    between atoms: S_6  and  N_38
    6  A    between atoms: C_7  and  C_39
    7  A    between atoms: C_14  and  C_51
    8  A    between atoms: C_15  and  C_18
    9  A    between atoms: C_15  and  C_46
   10  A    between atoms: C_16  and  C_39
   11  A    between atoms: C_18  and  O_35
   12  A    between atoms: C_20  and  N_21
   13  A    between atoms: C_20  and  C_26
   14  A    between atoms: C_23  and  C_29
   15  A    between atoms: C_23  and  N_41
   16  A    between atoms: C_25  and  O_35
   17  A    between atoms: C_25  and  N_41
   18  A    between atoms: C_26  and  C_32
   19  A    between atoms: C_30  and  C_45
   20  A    between atoms: C_31  and  C_39
   21  A    between atoms: C_31  and  C_45
   22  A    between atoms: C_37  and  N_38
                            x       y       z     vdW  Elec       q    Type
                         _______ _______ _______ _____ _____    ______ ____

>  <TORSDO>
F 22

$$$$
=
 OpenBabel11062418383D

 55 59  0  0  1  0  0  0  0  0999 V2000
  188.4100  177.1580  144.8920 C   0  0  1  0  0  3  0  0  0  0  0  0
  189.0360  171.8850  143.5030 N   0  0  0  0  0  1  0  0  0  0  0  0
  188.2900  176.7630  142.3740 C   0  0  0  0  0  3  0  0  0  0  0  0
  188.6990  176.3280  143.6730 C   0  0  0  0  0  0  0  0  0  0  0  0
  187.8410  175.6720  140.1170 C   0  0  0  0  0  0  0  0  0  0  0  0
  188.5730  175.9310  141.2820 C   0  0  0  0  0  0  0  0  0  0  0  0
  187.9980  174.3580  139.7610 N   0  0  0  0  0  0  0  0  0  0  0  0
  189.1620  174.9950  143.8590 C   0  0  0  0  0  3  0  0  0  0  0  0
  189.2270  174.7600  141.4870 C   0  0  0  0  0  0  0  0  0  0  0  0
  186.8830  176.5490  139.4980 N   0  0  0  0  0  0  0  0  0  0  0  0
  188.8820  173.8490  140.6070 N   0  0  0  0  0  0  0  0  0  0  0  0
  188.8060  172.6630  141.1950 N   0  0  0  0  0  0  0  0  0  0  0  0
  189.4100  174.2230  142.7160 C   0  0  0  0  0  0  0  0  0  0  0  0
  189.2070  172.8620  142.4840 C   0  0  0  0  0  0  0  0  0  0  0  0
  186.6650  177.9100  139.9700 C   0  0  0  0  0  2  0  0  0  0  0  0
  185.7500  177.9080  141.0280 O   0  0  0  0  0  0  0  0  0  0  0  0
  184.5360  178.3040  140.4580 C   0  0  0  0  0  2  0  0  0  0  0  0
  183.4610  178.2930  141.5280 C   0  0  0  0  0  2  0  0  0  0  0  0
  182.1070  178.2810  140.9050 C   0  0  0  0  0  3  0  0  0  0  0  0
  181.0630  178.6100  141.5940 N   0  0  0  0  0  0  0  0  0  0  0  0
  179.7440  178.5880  141.0370 C   0  0  0  0  0  0  0  0  0  0  0  0
  178.9920  177.5910  141.1880 O   0  0  0  0  0  0  0  0  0  0  0  0
  179.2500  179.7640  140.2780 C   0  0  0  0  0  1  0  0  0  0  0  0
  186.0970  176.0910  138.3570 C   0  0  0  0  0  2  0  0  0  0  0  0
  186.3070  176.2690  136.0040 C   0  0  0  0  0  0  0  0  0  0  0  0
  185.4310  176.0400  135.0800 N   0  0  0  0  0  2  0  0  0  0  0  0
  186.9980  175.9060  137.1490 C   0  0  1  0  0  3  0  0  0  0  0  0
  187.3710  177.1570  136.6570 N   0  0  0  0  0  2  0  0  0  0  0  0
  186.9520  177.3030  145.2060 C   0  0  0  0  0  0  0  0  0  0  0  0
  186.3010  178.3700  144.7500 C   0  0  0  0  0  3  0  0  0  0  0  0
  186.2860  176.3280  145.9430 O   0  0  0  0  0  1  0  0  0  0  0  0
  184.4550  179.8260  144.4800 O   0  0  0  0  0  1  0  0  0  0  0  0
  184.8460  178.5980  145.0130 C   0  0  0  0  0  2  0  0  0  0  0  0
  189.2590  176.7650  146.0990 C   0  0  0  0  0  2  0  0  0  0  0  0
  190.7180  177.2000  145.9690 C   0  0  0  0  0  2  0  0  0  0  0  0
  191.2510  176.1200  148.1050 C   0  0  0  0  0  1  0  0  0  0  0  0
  193.1190  176.8250  146.6450 C   0  0  0  0  0  2  0  0  0  0  0  0
  191.6010  174.8430  146.0290 C   0  0  0  0  0  2  0  0  0  0  0  0
  191.6900  176.2430  146.6620 C   0  0  2  0  0  0  0  0  0  0  0  0
  194.0060  174.9850  145.1800 C   0  0  1  0  0  3  0  0  0  0  0  0
  192.5380  174.6910  144.8280 C   0  0  0  0  0  2  0  0  0  0  0  0
  194.1850  175.7380  146.5040 C   0  0  0  0  0  2  0  0  0  0  0  0
  194.7670  173.7450  145.2190 N   0  0  0  0  0  2  0  0  0  0  0  0
  196.1560  173.9450  144.2050 S   0  0  0  0  0  0  0  0  0  0  0  0
  196.6970  175.3320  144.3870 O   0  0  0  0  0  0  0  0  0  0  0  0
  197.2090  172.9450  144.5940 O   0  0  0  0  0  0  0  0  0  0  0  0
  195.6990  173.7010  142.5480 N   0  0  0  0  0  2  0  0  0  0  0  0
  195.6130  175.0060  141.9070 C   0  0  2  0  0  3  0  0  0  0  0  0
  194.3040  175.6150  139.9240 N   0  0  0  0  0  1  0  0  0  0  0  0
  194.2130  175.2230  141.3230 C   0  0  1  0  0  3  0  0  0  0  0  0
  193.4100  173.9680  141.4260 C   0  0  0  0  0  3  0  0  0  0  0  0
  192.7330  173.5490  140.4240 N   0  0  0  0  0  2  0  0  0  0  0  0
  196.6640  175.0910  140.8070 C   0  0  0  0  0  2  0  0  0  0  0  0
  197.9380  173.5140  139.9320 C   0  0  0  0  0  1  0  0  0  0  0  0
  197.7350  174.2470  141.1020 O   0  0  0  0  0  0  0  0  0  0  0  0
  1 29  1  0  0  0  0
  1 34  1  1  0  0  0
  3  4  1  0  0  0  0
  4  8  2  0  0  0  0
  4  1  1  0  0  0  0
  5  6  1  0  0  0  0
  6  9  1  0  0  0  0
  6  3  2  0  0  0  0
  7  5  2  0  0  0  0
  7 11  1  0  0  0  0
  9 13  2  0  0  0  0
 10 15  1  0  0  0  0
 10  5  1  0  0  0  0
 11 12  1  0  0  0  0
 11  9  1  0  0  0  0
 12 14  2  0  0  0  0
 13  8  1  0  0  0  0
 14 13  1  0  0  0  0
 14  2  1  0  0  0  0
 15 16  1  0  0  0  0
 17 16  1  0  0  0  0
 17 18  1  0  0  0  0
 19 18  1  0  0  0  0
 19 20  2  0  0  0  0
 21 22  2  0  0  0  0
 21 20  1  0  0  0  0
 23 21  1  0  0  0  0
 24 10  1  0  0  0  0
 25 28  1  0  0  0  0
 25 27  1  0  0  0  0
 26 25  2  0  0  0  0
 27 24  1  1  0  0  0
 28 27  1  0  0  0  0
 29 31  1  0  0  0  0
 30 33  1  0  0  0  0
 30 29  2  0  0  0  0
 32 33  1  0  0  0  0
 35 34  1  0  0  0  0
 35 39  1  0  0  0  0
 37 39  1  0  0  0  0
 38 39  1  0  0  0  0
 39 36  1  1  0  0  0
 40 43  1  1  0  0  0
 40 42  1  0  0  0  0
 41 40  1  0  0  0  0
 41 38  1  0  0  0  0
 42 37  1  0  0  0  0
 44 45  2  0  0  0  0
 44 46  2  0  0  0  0
 44 43  1  0  0  0  0
 47 44  1  0  0  0  0
 48 53  1  6  0  0  0
 48 47  1  0  0  0  0
 50 49  1  6  0  0  0
 50 51  1  0  0  0  0
 50 48  1  0  0  0  0
 52 51  2  0  0  0  0
 53 55  1  0  0  0  0
 54 55  1  0  0  0  0
M  END
>  <MODEL>
7

>  <REMARK>
 VINA RESULT:      -5.4      3.539      9.742
  Name = 
  22 active torsions:
  status: ('A' for Active; 'I' for Inactive)
    1  A    between atoms: C_2  and  O_19
    2  A    between atoms: C_2  and  C_20
    3  A    between atoms: C_5  and  N_55
    4  A    between atoms: S_6  and  N_21
    5  A    between atoms: S_6  and  N_38
    6  A    between atoms: C_7  and  C_39
    7  A    between atoms: C_14  and  C_51
    8  A    between atoms: C_15  and  C_18
    9  A    between atoms: C_15  and  C_46
   10  A    between atoms: C_16  and  C_39
   11  A    between atoms: C_18  and  O_35
   12  A    between atoms: C_20  and  N_21
   13  A    between atoms: C_20  and  C_26
   14  A    between atoms: C_23  and  C_29
   15  A    between atoms: C_23  and  N_41
   16  A    between atoms: C_25  and  O_35
   17  A    between atoms: C_25  and  N_41
   18  A    between atoms: C_26  and  C_32
   19  A    between atoms: C_30  and  C_45
   20  A    between atoms: C_31  and  C_39
   21  A    between atoms: C_31  and  C_45
   22  A    between atoms: C_37  and  N_38
                            x       y       z     vdW  Elec       q    Type
                         _______ _______ _______ _____ _____    ______ ____

>  <TORSDO>
F 22

$$$$
=
 OpenBabel11062418383D

 55 59  0  0  1  0  0  0  0  0999 V2000
  191.5080  173.5020  143.1330 C   0  0  1  0  0  3  0  0  0  0  0  0
  192.9810  176.4500  147.5220 N   0  0  0  0  0  1  0  0  0  0  0  0
  189.5620  174.7690  144.1890 C   0  0  0  0  0  3  0  0  0  0  0  0
  190.8710  174.2060  144.2980 C   0  0  0  0  0  0  0  0  0  0  0  0
  188.2160  176.5630  145.3980 C   0  0  0  0  0  0  0  0  0  0  0  0
  189.0350  175.4310  145.3080 C   0  0  0  0  0  0  0  0  0  0  0  0
  188.5740  177.3000  146.4960 N   0  0  0  0  0  0  0  0  0  0  0  0
  191.6850  174.5190  145.4230 C   0  0  0  0  0  3  0  0  0  0  0  0
  189.7690  175.5060  146.4460 C   0  0  0  0  0  0  0  0  0  0  0  0
  187.2960  177.0330  144.3960 N   0  0  0  0  0  0  0  0  0  0  0  0
  189.5040  176.5960  147.1250 N   0  0  0  0  0  0  0  0  0  0  0  0
  190.6200  177.0770  147.6560 N   0  0  0  0  0  0  0  0  0  0  0  0
  191.0850  175.1930  146.4960 C   0  0  0  0  0  0  0  0  0  0  0  0
  191.5970  176.1770  147.3430 C   0  0  0  0  0  0  0  0  0  0  0  0
  187.0170  176.2710  143.1860 C   0  0  0  0  0  2  0  0  0  0  0  0
  187.7720  176.7720  142.1210 O   0  0  0  0  0  0  0  0  0  0  0  0
  186.9050  176.7590  141.0240 C   0  0  0  0  0  2  0  0  0  0  0  0
  186.4830  178.1830  140.7120 C   0  0  0  0  0  2  0  0  0  0  0  0
  185.0080  178.2550  140.5080 C   0  0  0  0  0  3  0  0  0  0  0  0
  184.2020  178.2100  141.5180 N   0  0  0  0  0  0  0  0  0  0  0  0
  182.7790  178.2540  141.3610 C   0  0  0  0  0  0  0  0  0  0  0  0
  182.0450  178.7780  142.2380 O   0  0  0  0  0  0  0  0  0  0  0  0
  182.1590  177.6800  140.1410 C   0  0  0  0  0  1  0  0  0  0  0  0
  186.6040  178.3050  144.5740 C   0  0  0  0  0  2  0  0  0  0  0  0
  184.8050  178.6070  146.0860 C   0  0  0  0  0  0  0  0  0  0  0  0
  184.8050  178.5910  147.3790 N   0  0  0  0  0  2  0  0  0  0  0  0
  185.1330  178.0580  144.8570 C   0  0  1  0  0  3  0  0  0  0  0  0
  184.4350  179.2600  144.7490 N   0  0  0  0  0  2  0  0  0  0  0  0
  190.5360  173.0320  142.0930 C   0  0  0  0  0  0  0  0  0  0  0  0
  190.5420  173.6180  140.8990 C   0  0  0  0  0  3  0  0  0  0  0  0
  189.6590  171.9860  142.3660 O   0  0  0  0  0  1  0  0  0  0  0  0
  189.8560  171.8930  139.4310 O   0  0  0  0  0  1  0  0  0  0  0  0
  189.6100  173.2150  139.8010 C   0  0  0  0  0  2  0  0  0  0  0  0
  192.7020  174.2600  142.5560 C   0  0  0  0  0  2  0  0  0  0  0  0
  194.0120  173.9470  143.2770 C   0  0  0  0  0  2  0  0  0  0  0  0
  195.7310  175.4920  144.0980 C   0  0  0  0  0  1  0  0  0  0  0  0
  194.6390  175.9880  141.9360 C   0  0  0  0  0  2  0  0  0  0  0  0
  196.2840  174.0300  142.1960 C   0  0  0  0  0  2  0  0  0  0  0  0
  195.1620  174.8590  142.8470 C   0  0  2  0  0  0  0  0  0  0  0  0
  195.9330  175.1760  139.9400 C   0  0  1  0  0  3  0  0  0  0  0  0
  196.0660  173.8410  140.6930 C   0  0  0  0  0  2  0  0  0  0  0  0
  195.6480  176.3750  140.8540 C   0  0  0  0  0  2  0  0  0  0  0  0
  197.1380  175.4320  139.1640 N   0  0  0  0  0  2  0  0  0  0  0  0
  196.8300  174.9430  137.5330 S   0  0  0  0  0  0  0  0  0  0  0  0
  197.1550  176.0820  136.6120 O   0  0  0  0  0  0  0  0  0  0  0  0
  197.6990  173.7640  137.1900 O   0  0  0  0  0  0  0  0  0  0  0  0
  195.1580  174.5070  137.3680 N   0  0  0  0  0  2  0  0  0  0  0  0
  194.7990  174.6210  135.9610 C   0  0  2  0  0  3  0  0  0  0  0  0
  192.6070  175.0440  136.9780 N   0  0  0  0  0  1  0  0  0  0  0  0
  193.4370  175.3090  135.8120 C   0  0  1  0  0  3  0  0  0  0  0  0
  193.6170  176.7850  135.6660 C   0  0  0  0  0  3  0  0  0  0  0  0
  192.6580  177.5120  135.2290 N   0  0  0  0  0  2  0  0  0  0  0  0
  194.7580  173.2290  135.3440 C   0  0  0  0  0  2  0  0  0  0  0  0
  193.6230  171.4080  135.8670 C   0  0  0  0  0  1  0  0  0  0  0  0
  194.6160  172.2660  136.3430 O   0  0  0  0  0  0  0  0  0  0  0  0
  1 34  1  6  0  0  0
  1  4  1  0  0  0  0
  3  4  2  0  0  0  0
  3  6  1  0  0  0  0
  4  8  1  0  0  0  0
  5  7  2  0  0  0  0
  6  5  1  0  0  0  0
  6  9  2  0  0  0  0
  7 11  1  0  0  0  0
  8 13  2  0  0  0  0
  9 13  1  0  0  0  0
  9 11  1  0  0  0  0
 10 24  1  0  0  0  0
 10  5  1  0  0  0  0
 11 12  1  0  0  0  0
 13 14  1  0  0  0  0
 14  2  1  0  0  0  0
 14 12  2  0  0  0  0
 15 10  1  0  0  0  0
 16 15  1  0  0  0  0
 17 16  1  0  0  0  0
 18 17  1  0  0  0  0
 19 18  1  0  0  0  0
 19 20  2  0  0  0  0
 21 20  1  0  0  0  0
 21 22  2  0  0  0  0
 23 21  1  0  0  0  0
 25 26  2  0  0  0  0
 27 24  1  1  0  0  0
 27 25  1  0  0  0  0
 28 27  1  0  0  0  0
 28 25  1  0  0  0  0
 29 31  1  0  0  0  0
 29  1  1  0  0  0  0
 30 29  2  0  0  0  0
 32 33  1  0  0  0  0
 33 30  1  0  0  0  0
 34 35  1  0  0  0  0
 37 39  1  0  0  0  0
 38 39  1  0  0  0  0
 39 35  1  0  0  0  0
 39 36  1  1  0  0  0
 40 43  1  1  0  0  0
 40 41  1  0  0  0  0
 40 42  1  0  0  0  0
 41 38  1  0  0  0  0
 42 37  1  0  0  0  0
 44 43  1  0  0  0  0
 45 44  2  0  0  0  0
 46 44  2  0  0  0  0
 47 44  1  0  0  0  0
 48 53  1  1  0  0  0
 48 47  1  0  0  0  0
 50 48  1  0  0  0  0
 50 49  1  1  0  0  0
 51 50  1  0  0  0  0
 52 51  2  0  0  0  0
 53 55  1  0  0  0  0
 54 55  1  0  0  0  0
M  END
>  <MODEL>
8

>  <REMARK>
 VINA RESULT:      -5.4      3.509     10.024
  Name = 
  22 active torsions:
  status: ('A' for Active; 'I' for Inactive)
    1  A    between atoms: C_2  and  O_19
    2  A    between atoms: C_2  and  C_20
    3  A    between atoms: C_5  and  N_55
    4  A    between atoms: S_6  and  N_21
    5  A    between atoms: S_6  and  N_38
    6  A    between atoms: C_7  and  C_39
    7  A    between atoms: C_14  and  C_51
    8  A    between atoms: C_15  and  C_18
    9  A    between atoms: C_15  and  C_46
   10  A    between atoms: C_16  and  C_39
   11  A    between atoms: C_18  and  O_35
   12  A    between atoms: C_20  and  N_21
   13  A    between atoms: C_20  and  C_26
   14  A    between atoms: C_23  and  C_29
   15  A    between atoms: C_23  and  N_41
   16  A    between atoms: C_25  and  O_35
   17  A    between atoms: C_25  and  N_41
   18  A    between atoms: C_26  and  C_32
   19  A    between atoms: C_30  and  C_45
   20  A    between atoms: C_31  and  C_39
   21  A    between atoms: C_31  and  C_45
   22  A    between atoms: C_37  and  N_38
                            x       y       z     vdW  Elec       q    Type
                         _______ _______ _______ _____ _____    ______ ____

>  <TORSDO>
F 22

$$$$
=
 OpenBabel11062418383D

 55 59  0  0  1  0  0  0  0  0999 V2000
  193.3710  173.8910  145.4780 C   0  0  1  0  0  3  0  0  0  0  0  0
  195.1420  169.0290  147.3100 N   0  0  0  0  0  1  0  0  0  0  0  0
  193.1060  172.0180  143.7670 C   0  0  0  0  0  3  0  0  0  0  0  0
  193.7360  172.5360  144.9420 C   0  0  0  0  0  0  0  0  0  0  0  0
  192.7230  169.7190  142.7380 C   0  0  0  0  0  0  0  0  0  0  0  0
  193.4780  170.7380  143.3320 C   0  0  0  0  0  0  0  0  0  0  0  0
  193.1640  168.5020  143.1870 N   0  0  0  0  0  0  0  0  0  0  0  0
  194.5300  171.6790  145.7560 C   0  0  0  0  0  3  0  0  0  0  0  0
  194.4180  170.0440  144.0230 C   0  0  0  0  0  0  0  0  0  0  0  0
  191.5220  169.8880  141.9640 N   0  0  0  0  0  0  0  0  0  0  0  0
  194.2240  168.7490  143.9420 N   0  0  0  0  0  0  0  0  0  0  0  0
  194.5020  168.1800  145.1070 N   0  0  0  0  0  0  0  0  0  0  0  0
  194.8480  170.4100  145.2530 C   0  0  0  0  0  0  0  0  0  0  0  0
  194.9650  169.1830  145.9080 C   0  0  0  0  0  0  0  0  0  0  0  0
  191.0210  171.2050  141.5930 C   0  0  0  0  0  2  0  0  0  0  0  0
  190.3290  171.7730  142.6670 O   0  0  0  0  0  0  0  0  0  0  0  0
  189.7430  172.9320  142.1480 C   0  0  0  0  0  2  0  0  0  0  0  0
  190.7040  173.5740  141.1650 C   0  0  0  0  0  2  0  0  0  0  0  0
  190.2710  173.3060  139.7640 C   0  0  0  0  0  3  0  0  0  0  0  0
  190.9460  173.7760  138.7660 N   0  0  0  0  0  0  0  0  0  0  0  0
  190.5490  173.5590  137.4080 C   0  0  0  0  0  0  0  0  0  0  0  0
  191.3140  172.9810  136.5930 O   0  0  0  0  0  0  0  0  0  0  0  0
  189.2120  174.0150  136.9530 C   0  0  0  0  0  1  0  0  0  0  0  0
  190.7660  168.7230  141.5170 C   0  0  0  0  0  2  0  0  0  0  0  0
  190.8250  169.0760  139.1760 C   0  0  0  0  0  0  0  0  0  0  0  0
  189.8910  169.4890  138.3820 N   0  0  0  0  0  2  0  0  0  0  0  0
  191.2970  168.2440  140.1780 C   0  0  1  0  0  3  0  0  0  0  0  0
  192.2580  169.1420  139.7150 N   0  0  0  0  0  2  0  0  0  0  0  0
  194.4780  174.8980  145.4090 C   0  0  0  0  0  0  0  0  0  0  0  0
  194.2600  176.0480  144.7760 C   0  0  0  0  0  3  0  0  0  0  0  0
  195.7060  174.6440  146.0140 O   0  0  0  0  0  1  0  0  0  0  0  0
  195.1720  178.0270  145.7000 O   0  0  0  0  0  1  0  0  0  0  0  0
  195.3050  177.1110  144.6560 C   0  0  0  0  0  2  0  0  0  0  0  0
  192.0390  174.4090  144.9400 C   0  0  0  0  0  2  0  0  0  0  0  0
  190.8520  174.0350  145.8270 C   0  0  0  0  0  2  0  0  0  0  0  0
  191.1590  175.3740  147.8590 C   0  0  0  0  0  1  0  0  0  0  0  0
  188.8550  174.9430  147.0710 C   0  0  0  0  0  2  0  0  0  0  0  0
  190.4390  176.5190  145.8020 C   0  0  0  0  0  2  0  0  0  0  0  0
  190.3030  175.2230  146.6200 C   0  0  2  0  0  0  0  0  0  0  0  0
  187.9040  176.7970  145.6650 C   0  0  1  0  0  3  0  0  0  0  0  0
  189.2330  176.7580  144.8920 C   0  0  0  0  0  2  0  0  0  0  0  0
  187.9950  176.2070  147.0790 C   0  0  0  0  0  2  0  0  0  0  0  0
  187.4100  178.1640  145.7400 N   0  0  0  0  0  2  0  0  0  0  0  0
  185.9800  178.2630  144.7690 S   0  0  0  0  0  0  0  0  0  0  0  0
  185.4100  176.8860  144.6000 O   0  0  0  0  0  0  0  0  0  0  0  0
  184.9690  179.1400  145.4540 O   0  0  0  0  0  0  0  0  0  0  0  0
  186.3830  178.9320  143.2190 N   0  0  0  0  0  2  0  0  0  0  0  0
  185.9900  177.9700  142.1970 C   0  0  2  0  0  3  0  0  0  0  0  0
  188.3830  178.3000  141.7740 N   0  0  0  0  0  1  0  0  0  0  0  0
  187.1780  177.6460  141.2860 C   0  0  1  0  0  3  0  0  0  0  0  0
  187.4080  176.1700  141.2420 C   0  0  0  0  0  3  0  0  0  0  0  0
  187.2200  175.4560  142.2870 N   0  0  0  0  0  2  0  0  0  0  0  0
  184.8410  178.5520  141.3820 C   0  0  0  0  0  2  0  0  0  0  0  0
  182.8230  177.9750  140.6950 C   0  0  0  0  0  1  0  0  0  0  0  0
  183.6250  178.0400  141.8360 O   0  0  0  0  0  0  0  0  0  0  0  0
  1 34  1  6  0  0  0
  3  4  1  0  0  0  0
  4  1  1  0  0  0  0
  4  8  2  0  0  0  0
  5  7  2  0  0  0  0
  5  6  1  0  0  0  0
  6  3  2  0  0  0  0
  6  9  1  0  0  0  0
  7 11  1  0  0  0  0
  9 13  2  0  0  0  0
 10  5  1  0  0  0  0
 11  9  1  0  0  0  0
 11 12  1  0  0  0  0
 12 14  2  0  0  0  0
 13  8  1  0  0  0  0
 13 14  1  0  0  0  0
 14  2  1  0  0  0  0
 15 10  1  0  0  0  0
 15 16  1  0  0  0  0
 17 16  1  0  0  0  0
 18 17  1  0  0  0  0
 19 18  1  0  0  0  0
 20 19  2  0  0  0  0
 21 20  1  0  0  0  0
 22 21  2  0  0  0  0
 23 21  1  0  0  0  0
 24 10  1  0  0  0  0
 25 28  1  0  0  0  0
 25 27  1  0  0  0  0
 26 25  2  0  0  0  0
 27 24  1  1  0  0  0
 28 27  1  0  0  0  0
 29  1  1  0  0  0  0
 29 31  1  0  0  0  0
 30 29  2  0  0  0  0
 33 30  1  0  0  0  0
 33 32  1  0  0  0  0
 34 35  1  0  0  0  0
 35 39  1  0  0  0  0
 37 42  1  0  0  0  0
 38 39  1  0  0  0  0
 39 37  1  0  0  0  0
 39 36  1  1  0  0  0
 40 43  1  1  0  0  0
 40 42  1  0  0  0  0
 41 40  1  0  0  0  0
 41 38  1  0  0  0  0
 44 46  2  0  0  0  0
 44 43  1  0  0  0  0
 45 44  2  0  0  0  0
 47 44  1  0  0  0  0
 48 53  1  6  0  0  0
 48 47  1  0  0  0  0
 50 49  1  1  0  0  0
 50 48  1  0  0  0  0
 51 50  1  0  0  0  0
 51 52  2  0  0  0  0
 53 55  1  0  0  0  0
 54 55  1  0  0  0  0
M  END
>  <MODEL>
9

>  <REMARK>
 VINA RESULT:      -5.4      2.901      5.140
  Name = 
  22 active torsions:
  status: ('A' for Active; 'I' for Inactive)
    1  A    between atoms: C_2  and  O_19
    2  A    between atoms: C_2  and  C_20
    3  A    between atoms: C_5  and  N_55
    4  A    between atoms: S_6  and  N_21
    5  A    between atoms: S_6  and  N_38
    6  A    between atoms: C_7  and  C_39
    7  A    between atoms: C_14  and  C_51
    8  A    between atoms: C_15  and  C_18
    9  A    between atoms: C_15  and  C_46
   10  A    between atoms: C_16  and  C_39
   11  A    between atoms: C_18  and  O_35
   12  A    between atoms: C_20  and  N_21
   13  A    between atoms: C_20  and  C_26
   14  A    between atoms: C_23  and  C_29
   15  A    between atoms: C_23  and  N_41
   16  A    between atoms: C_25  and  O_35
   17  A    between atoms: C_25  and  N_41
   18  A    between atoms: C_26  and  C_32
   19  A    between atoms: C_30  and  C_45
   20  A    between atoms: C_31  and  C_39
   21  A    between atoms: C_31  and  C_45
   22  A    between atoms: C_37  and  N_38
                            x       y       z     vdW  Elec       q    Type
                         _______ _______ _______ _____ _____    ______ ____

>  <TORSDO>
F 22

$$$$
