=
 OpenBabel11062421513D

 48 53  0  0  1  0  0  0  0  0999 V2000
  188.8670  173.2390  139.7690 C   0  0  2  0  0  3  0  0  0  0  0  0
  191.0950  170.1670  142.1000 C   0  0  0  0  0  3  0  0  0  0  0  0
  190.8840  171.8310  140.4290 N   0  0  0  0  0  0  0  0  0  0  0  0
  192.4110  170.2610  141.3370 C   0  0  1  0  0  3  0  0  0  0  0  0
  192.2860  170.5670  138.8840 C   0  0  0  0  0  1  0  0  0  0  0  0
  190.1890  171.2560  141.5620 C   0  0  0  0  0  3  0  0  0  0  0  0
  192.2130  171.2800  140.2260 C   0  0  1  0  0  3  0  0  0  0  0  0
  191.0170  173.4270  138.7310 O   0  0  0  0  0  0  0  0  0  0  0  0
  190.3160  172.8710  139.6180 C   0  0  0  0  0  0  0  0  0  0  0  0
  193.5140  170.7110  142.2780 C   0  0  0  0  0  2  0  0  0  0  0  0
  194.0440  172.0730  141.8430 C   0  0  2  0  0  3  0  0  0  0  0  0
  196.4160  171.0770  141.8540 C   0  0  0  0  0  3  0  0  0  0  0  0
  195.4830  172.0020  141.4370 C   0  0  2  0  0  3  0  0  0  0  0  0
  196.1010  172.8900  140.5850 C   0  0  0  0  0  3  0  0  0  0  0  0
  197.4120  172.4540  140.5080 C   0  0  0  0  0  3  0  0  0  0  0  0
  197.5970  171.3630  141.2740 N   0  0  0  0  0  0  0  0  0  0  0  0
  193.0220  174.2020  142.4700 O   0  0  0  0  0  0  0  0  0  0  0  0
  193.8010  173.1530  142.8950 C   0  0  0  0  0  0  0  0  0  0  0  0
  192.4890  173.2680  143.2810 O   0  0  0  0  0  0  0  0  0  0  0  0
  194.7850  173.4910  143.9740 C   0  0  0  0  0  0  0  0  0  0  0  0
  195.6300  174.3500  143.7780 O   0  0  0  0  0  0  0  0  0  0  0  0
  194.7480  172.7810  145.2880 C   0  0  0  0  0  2  0  0  0  0  0  0
  196.0800  172.1150  145.5630 C   0  0  0  0  0  2  0  0  0  0  0  0
  194.6370  170.2190  146.0400 N   0  0  0  0  0  1  0  0  0  0  0  0
  195.9350  170.6060  145.5180 C   0  0  0  0  0  2  0  0  0  0  0  0
  188.1840  173.3550  138.4060 C   0  0  0  0  0  2  0  0  0  0  0  0
  188.2910  174.7530  137.8160 C   0  0  0  0  0  2  0  0  0  0  0  0
  187.0090  175.2460  137.5740 O   0  0  0  0  0  1  0  0  0  0  0  0
  188.6920  174.4650  140.5350 N   0  0  0  0  0  2  0  0  0  0  0  0
  189.0320  175.6320  142.6470 C   0  0  0  0  0  0  0  0  0  0  0  0
  189.3920  174.6960  141.7560 C   0  0  0  0  0  3  0  0  0  0  0  0
  187.7580  177.6520  141.7290 C   0  0  0  0  0  3  0  0  0  0  0  0
  185.5960  177.6460  142.5780 C   0  0  0  0  0  0  0  0  0  0  0  0
  187.8170  176.4870  142.4970 C   0  0  0  0  0  0  0  0  0  0  0  0
  186.3160  176.2870  143.2460 S   0  0  0  0  0  0  0  0  0  0  0  0
  186.5160  178.3050  141.7790 C   0  0  0  0  0  3  0  0  0  0  0  0
  184.2220  178.1260  142.8860 C   0  0  0  0  0  2  0  0  0  0  0  0
  184.2900  179.2620  143.7860 N   0  0  0  0  0  2  0  0  0  0  0  0
  184.1530  178.7380  145.1310 C   0  0  0  0  0  1  0  0  0  0  0  0
  189.5550  176.9190  144.5860 O   0  0  0  0  0  0  0  0  0  0  0  0
  190.7810  176.8680  143.8930 C   0  0  2  0  0  3  0  0  0  0  0  0
  189.8380  175.7140  143.9120 C   0  0  2  0  0  3  0  0  0  0  0  0
  191.6860  175.8340  145.9820 C   0  0  0  0  0  3  0  0  0  0  0  0
  194.0010  176.1030  146.6350 C   0  0  0  0  0  3  0  0  0  0  0  0
  194.2370  176.8670  145.4880 C   0  0  0  0  0  3  0  0  0  0  0  0
  191.9120  176.6090  144.8380 C   0  0  0  0  0  0  0  0  0  0  0  0
  193.1980  177.1160  144.5890 C   0  0  0  0  0  3  0  0  0  0  0  0
  192.7280  175.5830  146.8790 C   0  0  0  0  0  3  0  0  0  0  0  0
  1 26  1  6  0  0  0
  1 29  1  0  0  0  0
  3  6  1  0  0  0  0
  4  2  1  0  0  0  0
  4 10  1  1  0  0  0
  6  2  2  0  0  0  0
  7  5  1  6  0  0  0
  7  3  1  0  0  0  0
  7  4  1  0  0  0  0
  8  9  2  0  0  0  0
  9  1  1  0  0  0  0
  9  3  1  0  0  0  0
 11 10  1  1  0  0  0
 11 18  1  0  0  0  0
 13 11  1  1  0  0  0
 13 12  1  0  0  0  0
 14 13  1  0  0  0  0
 15 14  2  0  0  0  0
 15 16  1  0  0  0  0
 16 12  2  0  0  0  0
 17 18  1  0  0  0  0
 17 19  1  0  0  0  0
 18 19  1  0  0  0  0
 18 20  1  0  0  0  0
 20 22  1  0  0  0  0
 21 20  2  0  0  0  0
 22 23  1  0  0  0  0
 25 23  1  0  0  0  0
 25 24  1  0  0  0  0
 27 26  1  0  0  0  0
 28 27  1  0  0  0  0
 29 31  1  0  0  0  0
 31 30  2  0  0  0  0
 32 36  1  0  0  0  0
 32 34  2  0  0  0  0
 33 37  1  0  0  0  0
 33 35  1  0  0  0  0
 34 30  1  0  0  0  0
 34 35  1  0  0  0  0
 36 33  2  0  0  0  0
 37 38  1  0  0  0  0
 38 39  1  0  0  0  0
 41 42  1  0  0  0  0
 41 40  1  0  0  0  0
 41 46  1  1  0  0  0
 42 30  1  6  0  0  0
 42 40  1  0  0  0  0
 43 48  1  0  0  0  0
 44 48  2  0  0  0  0
 45 44  1  0  0  0  0
 46 43  2  0  0  0  0
 47 46  1  0  0  0  0
 47 45  2  0  0  0  0
M  END
>  <MODEL>
1

>  <REMARK>
 VINA RESULT:      -5.5      0.000      0.000
  Name = 
  18 active torsions:
  status: ('A' for Active; 'I' for Inactive)
    1  A    between atoms: C_1  and  C_2
    2  A    between atoms: C_1  and  C_15
    3  A    between atoms: C_2  and  C_38
    4  A    between atoms: C_2  and  N_40
    5  A    between atoms: C_5  and  C_19
    6  A    between atoms: C_5  and  C_43
    7  A    between atoms: N_6  and  C_41
    8  A    between atoms: C_7  and  C_39
    9  A    between atoms: C_7  and  C_47
   10  A    between atoms: C_10  and  C_20
   11  A    between atoms: C_11  and  C_41
   12  A    between atoms: C_16  and  C_24
   13  A    between atoms: C_20  and  C_24
   14  A    between atoms: C_20  and  C_39
   15  A    between atoms: C_30  and  C_34
   16  A    between atoms: C_36  and  N_40
   17  A    between atoms: C_37  and  C_45
   18  A    between atoms: C_37  and  C_47
                            x       y       z     vdW  Elec       q    Type
                         _______ _______ _______ _____ _____    ______ ____

>  <TORSDO>
F 18

$$$$
=
 OpenBabel11062421513D

 48 53  0  0  1  0  0  0  0  0999 V2000
  193.7060  175.9420  144.1730 C   0  0  2  0  0  3  0  0  0  0  0  0
  197.6830  175.8260  142.1710 C   0  0  0  0  0  3  0  0  0  0  0  0
  195.6120  174.8960  142.8470 N   0  0  0  0  0  0  0  0  0  0  0  0
  197.6430  174.3630  141.7450 C   0  0  1  0  0  3  0  0  0  0  0  0
  196.6480  172.7420  143.3290 C   0  0  0  0  0  1  0  0  0  0  0  0
  196.3300  176.1520  142.7710 C   0  0  0  0  0  3  0  0  0  0  0  0
  196.3360  173.7810  142.2620 C   0  0  1  0  0  3  0  0  0  0  0  0
  193.6660  173.7020  143.3290 O   0  0  0  0  0  0  0  0  0  0  0  0
  194.2970  174.7890  143.4120 C   0  0  0  0  0  0  0  0  0  0  0  0
  197.6990  174.2710  140.2310 C   0  0  0  0  0  2  0  0  0  0  0  0
  196.4260  173.6190  139.7020 C   0  0  2  0  0  3  0  0  0  0  0  0
  195.8330  171.2770  138.8190 C   0  0  0  0  0  3  0  0  0  0  0  0
  196.7140  172.3170  139.0220 C   0  0  2  0  0  3  0  0  0  0  0  0
  197.9410  171.9550  138.5120 C   0  0  0  0  0  3  0  0  0  0  0  0
  197.7510  170.6850  137.9980 C   0  0  0  0  0  3  0  0  0  0  0  0
  196.4800  170.2800  138.1850 N   0  0  0  0  0  0  0  0  0  0  0  0
  194.2910  174.6660  139.1420 O   0  0  0  0  0  0  0  0  0  0  0  0
  195.6200  174.5620  138.8100 C   0  0  0  0  0  0  0  0  0  0  0  0
  195.1320  175.6660  139.4650 O   0  0  0  0  0  0  0  0  0  0  0  0
  195.9330  174.8010  137.3640 C   0  0  0  0  0  0  0  0  0  0  0  0
  196.7340  175.6660  137.0510 O   0  0  0  0  0  0  0  0  0  0  0  0
  195.2640  173.9940  136.2980 C   0  0  0  0  0  2  0  0  0  0  0  0
  194.5420  174.9040  135.3270 C   0  0  0  0  0  2  0  0  0  0  0  0
  193.1760  176.7930  136.0120 N   0  0  0  0  0  1  0  0  0  0  0  0
  193.2130  175.3460  135.9090 C   0  0  0  0  0  2  0  0  0  0  0  0
  193.2990  175.5190  145.5840 C   0  0  0  0  0  2  0  0  0  0  0  0
  194.3490  175.8750  146.6250 C   0  0  0  0  0  2  0  0  0  0  0  0
  194.3120  177.2490  146.8630 O   0  0  0  0  0  1  0  0  0  0  0  0
  192.5770  176.5380  143.4720 N   0  0  0  0  0  2  0  0  0  0  0  0
  190.2100  176.9150  143.9120 C   0  0  0  0  0  0  0  0  0  0  0  0
  191.5020  177.1640  144.1710 C   0  0  0  0  0  3  0  0  0  0  0  0
  188.7040  176.0980  142.0120 C   0  0  0  0  0  3  0  0  0  0  0  0
  189.2740  173.9140  141.4650 C   0  0  0  0  0  0  0  0  0  0  0  0
  189.7510  175.9020  142.9150 C   0  0  0  0  0  0  0  0  0  0  0  0
  190.3230  174.3260  142.7060 S   0  0  0  0  0  0  0  0  0  0  0  0
  188.4320  174.9830  141.2030 C   0  0  0  0  0  3  0  0  0  0  0  0
  189.1890  172.5730  140.8260 C   0  0  0  0  0  2  0  0  0  0  0  0
  188.5430  172.6880  139.5320 N   0  0  0  0  0  2  0  0  0  0  0  0
  189.2710  171.8240  138.6220 C   0  0  0  0  0  1  0  0  0  0  0  0
  189.5100  177.4200  146.1350 O   0  0  0  0  0  0  0  0  0  0  0  0
  188.4430  176.6510  145.6290 C   0  0  2  0  0  3  0  0  0  0  0  0
  189.1960  177.6120  144.7750 C   0  0  2  0  0  3  0  0  0  0  0  0
  186.9950  177.8530  147.2750 C   0  0  0  0  0  3  0  0  0  0  0  0
  184.6820  178.3760  146.7920 C   0  0  0  0  0  3  0  0  0  0  0  0
  184.8110  177.7840  145.5310 C   0  0  0  0  0  3  0  0  0  0  0  0
  187.1280  177.2480  146.0200 C   0  0  0  0  0  0  0  0  0  0  0  0
  186.0300  177.2270  145.1440 C   0  0  0  0  0  3  0  0  0  0  0  0
  185.7750  178.4140  147.6610 C   0  0  0  0  0  3  0  0  0  0  0  0
  1 26  1  1  0  0  0
  2  6  2  0  0  0  0
  3  9  1  0  0  0  0
  4 10  1  6  0  0  0
  4  2  1  0  0  0  0
  4  7  1  0  0  0  0
  6  3  1  0  0  0  0
  7  3  1  0  0  0  0
  7  5  1  1  0  0  0
  8  9  2  0  0  0  0
  9  1  1  0  0  0  0
 11 10  1  6  0  0  0
 12 13  1  0  0  0  0
 13 11  1  1  0  0  0
 14 13  1  0  0  0  0
 15 16  1  0  0  0  0
 15 14  2  0  0  0  0
 16 12  2  0  0  0  0
 17 19  1  0  0  0  0
 18 17  1  0  0  0  0
 18 19  1  0  0  0  0
 18 11  1  0  0  0  0
 20 18  1  0  0  0  0
 21 20  2  0  0  0  0
 22 20  1  0  0  0  0
 23 25  1  0  0  0  0
 23 22  1  0  0  0  0
 25 24  1  0  0  0  0
 26 27  1  0  0  0  0
 27 28  1  0  0  0  0
 29 31  1  0  0  0  0
 29  1  1  0  0  0  0
 30 31  2  0  0  0  0
 32 34  2  0  0  0  0
 33 35  1  0  0  0  0
 34 30  1  0  0  0  0
 35 34  1  0  0  0  0
 36 33  2  0  0  0  0
 36 32  1  0  0  0  0
 37 33  1  0  0  0  0
 38 37  1  0  0  0  0
 39 38  1  0  0  0  0
 41 46  1  1  0  0  0
 41 40  1  0  0  0  0
 42 30  1  6  0  0  0
 42 41  1  0  0  0  0
 42 40  1  0  0  0  0
 43 48  1  0  0  0  0
 44 48  2  0  0  0  0
 45 44  1  0  0  0  0
 46 43  2  0  0  0  0
 47 45  2  0  0  0  0
 47 46  1  0  0  0  0
M  END
>  <MODEL>
2

>  <REMARK>
 VINA RESULT:      -5.4      3.095      6.766
  Name = 
  18 active torsions:
  status: ('A' for Active; 'I' for Inactive)
    1  A    between atoms: C_1  and  C_2
    2  A    between atoms: C_1  and  C_15
    3  A    between atoms: C_2  and  C_38
    4  A    between atoms: C_2  and  N_40
    5  A    between atoms: C_5  and  C_19
    6  A    between atoms: C_5  and  C_43
    7  A    between atoms: N_6  and  C_41
    8  A    between atoms: C_7  and  C_39
    9  A    between atoms: C_7  and  C_47
   10  A    between atoms: C_10  and  C_20
   11  A    between atoms: C_11  and  C_41
   12  A    between atoms: C_16  and  C_24
   13  A    between atoms: C_20  and  C_24
   14  A    between atoms: C_20  and  C_39
   15  A    between atoms: C_30  and  C_34
   16  A    between atoms: C_36  and  N_40
   17  A    between atoms: C_37  and  C_45
   18  A    between atoms: C_37  and  C_47
                            x       y       z     vdW  Elec       q    Type
                         _______ _______ _______ _____ _____    ______ ____

>  <TORSDO>
F 18

$$$$
=
 OpenBabel11062421513D

 48 53  0  0  1  0  0  0  0  0999 V2000
  193.8830  175.2120  144.4390 C   0  0  2  0  0  3  0  0  0  0  0  0
  190.2620  176.6940  146.5680 C   0  0  0  0  0  3  0  0  0  0  0  0
  191.6610  176.4350  144.6750 N   0  0  0  0  0  0  0  0  0  0  0  0
  189.6630  177.4810  145.4090 C   0  0  1  0  0  3  0  0  0  0  0  0
  191.2280  178.7220  143.9460 C   0  0  0  0  0  1  0  0  0  0  0  0
  191.4730  175.9580  146.0290 C   0  0  0  0  0  3  0  0  0  0  0  0
  190.6260  177.3560  144.2380 C   0  0  1  0  0  3  0  0  0  0  0  0
  192.7890  176.3450  142.6340 O   0  0  0  0  0  0  0  0  0  0  0  0
  192.7500  176.0020  143.8460 C   0  0  0  0  0  0  0  0  0  0  0  0
  188.3090  176.9000  145.0440 C   0  0  0  0  0  2  0  0  0  0  0  0
  187.3910  178.0040  144.5320 C   0  0  2  0  0  3  0  0  0  0  0  0
  185.5670  177.0600  146.0820 C   0  0  0  0  0  3  0  0  0  0  0  0
  186.1100  178.0600  145.3050 C   0  0  0  0  0  0  0  0  0  0  0  0
  185.2570  179.1410  145.3280 C   0  0  0  0  0  3  0  0  0  0  0  0
  184.2110  178.7500  146.1450 C   0  0  0  0  0  3  0  0  0  0  0  0
  184.4020  177.4960  146.5960 N   0  0  0  0  0  2  0  0  0  0  0  0
  187.0460  179.1110  142.3810 O   0  0  0  0  0  0  0  0  0  0  0  0
  187.1450  177.9030  143.0280 C   0  0  0  0  0  0  0  0  0  0  0  0
  188.1760  178.3900  142.2620 O   0  0  0  0  0  0  0  0  0  0  0  0
  186.3890  176.7780  142.3880 C   0  0  0  0  0  0  0  0  0  0  0  0
  185.2500  176.9610  141.9910 O   0  0  0  0  0  0  0  0  0  0  0  0
  187.0150  175.4300  142.2380 C   0  0  0  0  0  2  0  0  0  0  0  0
  188.2310  175.5110  141.3390 C   0  0  0  0  0  2  0  0  0  0  0  0
  188.8480  173.2940  142.1190 N   0  0  0  0  0  1  0  0  0  0  0  0
  189.3460  174.6360  141.8790 C   0  0  0  0  0  2  0  0  0  0  0  0
  195.1540  176.0560  144.5290 C   0  0  0  0  0  2  0  0  0  0  0  0
  196.1000  175.8140  143.3640 C   0  0  0  0  0  2  0  0  0  0  0  0
  197.2950  175.2800  143.8470 O   0  0  0  0  0  1  0  0  0  0  0  0
  194.1360  173.9830  143.7020 N   0  0  0  0  0  2  0  0  0  0  0  0
  193.3100  173.2120  141.5420 C   0  0  0  0  0  0  0  0  0  0  0  0
  193.1460  173.3910  142.8610 C   0  0  0  0  0  3  0  0  0  0  0  0
  195.7590  172.8130  140.9160 C   0  0  0  0  0  3  0  0  0  0  0  0
  196.4660  174.4930  139.4780 C   0  0  0  0  0  0  0  0  0  0  0  0
  194.5730  173.5440  140.8170 C   0  0  0  0  0  0  0  0  0  0  0  0
  194.8650  174.8650  139.8060 S   0  0  0  0  0  0  0  0  0  0  0  0
  196.8220  173.3470  140.1710 C   0  0  0  0  0  3  0  0  0  0  0  0
  197.3890  175.3260  138.6600 C   0  0  0  0  0  2  0  0  0  0  0  0
  197.5260  174.7490  137.3360 N   0  0  0  0  0  2  0  0  0  0  0  0
  196.7520  175.5810  136.4340 C   0  0  0  0  0  1  0  0  0  0  0  0
  192.0340  171.2120  141.2970 O   0  0  0  0  0  0  0  0  0  0  0  0
  192.6860  171.3320  140.0540 C   0  0  2  0  0  3  0  0  0  0  0  0
  192.1970  172.5220  140.8050 C   0  0  2  0  0  3  0  0  0  0  0  0
  190.6380  170.2000  139.1710 C   0  0  0  0  0  3  0  0  0  0  0  0
  189.9600  170.4190  136.8590 C   0  0  0  0  0  3  0  0  0  0  0  0
  191.0550  171.2540  136.6150 C   0  0  0  0  0  3  0  0  0  0  0  0
  191.7450  171.0240  138.9310 C   0  0  0  0  0  0  0  0  0  0  0  0
  191.9420  171.5600  137.6490 C   0  0  0  0  0  3  0  0  0  0  0  0
  189.7490  169.8970  138.1360 C   0  0  0  0  0  3  0  0  0  0  0  0
  1 26  1  6  0  0  0
  3  6  1  0  0  0  0
  4 10  1  6  0  0  0
  4  2  1  0  0  0  0
  6  2  2  0  0  0  0
  7  5  1  1  0  0  0
  7  3  1  0  0  0  0
  7  4  1  0  0  0  0
  8  9  2  0  0  0  0
  9  1  1  0  0  0  0
  9  3  1  0  0  0  0
 11 10  1  1  0  0  0
 11 13  1  0  0  0  0
 12 16  1  0  0  0  0
 13 14  1  0  0  0  0
 13 12  2  0  0  0  0
 14 15  2  0  0  0  0
 15 16  1  0  0  0  0
 17 18  1  0  0  0  0
 18 11  1  0  0  0  0
 19 17  1  0  0  0  0
 19 18  1  0  0  0  0
 20 18  1  0  0  0  0
 21 20  2  0  0  0  0
 22 20  1  0  0  0  0
 23 25  1  0  0  0  0
 23 22  1  0  0  0  0
 25 24  1  0  0  0  0
 27 28  1  0  0  0  0
 27 26  1  0  0  0  0
 29  1  1  0  0  0  0
 30 31  2  0  0  0  0
 31 29  1  0  0  0  0
 33 35  1  0  0  0  0
 33 36  2  0  0  0  0
 34 32  2  0  0  0  0
 34 30  1  0  0  0  0
 35 34  1  0  0  0  0
 36 32  1  0  0  0  0
 37 33  1  0  0  0  0
 38 37  1  0  0  0  0
 39 38  1  0  0  0  0
 41 46  1  6  0  0  0
 41 42  1  0  0  0  0
 41 40  1  0  0  0  0
 42 40  1  0  0  0  0
 42 30  1  1  0  0  0
 44 48  1  0  0  0  0
 45 44  2  0  0  0  0
 45 47  1  0  0  0  0
 46 43  1  0  0  0  0
 47 46  2  0  0  0  0
 48 43  2  0  0  0  0
M  END
>  <MODEL>
3

>  <REMARK>
 VINA RESULT:      -5.4      2.827      9.812
  Name = 
  18 active torsions:
  status: ('A' for Active; 'I' for Inactive)
    1  A    between atoms: C_1  and  C_2
    2  A    between atoms: C_1  and  C_15
    3  A    between atoms: C_2  and  C_38
    4  A    between atoms: C_2  and  N_40
    5  A    between atoms: C_5  and  C_19
    6  A    between atoms: C_5  and  C_43
    7  A    between atoms: N_6  and  C_41
    8  A    between atoms: C_7  and  C_39
    9  A    between atoms: C_7  and  C_47
   10  A    between atoms: C_10  and  C_20
   11  A    between atoms: C_11  and  C_41
   12  A    between atoms: C_16  and  C_24
   13  A    between atoms: C_20  and  C_24
   14  A    between atoms: C_20  and  C_39
   15  A    between atoms: C_30  and  C_34
   16  A    between atoms: C_36  and  N_40
   17  A    between atoms: C_37  and  C_45
   18  A    between atoms: C_37  and  C_47
                            x       y       z     vdW  Elec       q    Type
                         _______ _______ _______ _____ _____    ______ ____

>  <TORSDO>
F 18

$$$$
=
 OpenBabel11062421513D

 48 53  0  0  1  0  0  0  0  0999 V2000
  193.7710  174.7780  144.3020 C   0  0  2  0  0  3  0  0  0  0  0  0
  190.0310  176.1570  146.2880 C   0  0  0  0  0  3  0  0  0  0  0  0
  191.5830  176.0650  144.5020 N   0  0  0  0  0  0  0  0  0  0  0  0
  189.5660  177.1060  145.1900 C   0  0  1  0  0  3  0  0  0  0  0  0
  191.2970  178.4420  144.0300 C   0  0  0  0  0  1  0  0  0  0  0  0
  191.2570  175.4360  145.7650 C   0  0  0  0  0  3  0  0  0  0  0  0
  190.6230  177.0790  144.0970 C   0  0  1  0  0  3  0  0  0  0  0  0
  192.8830  176.1700  142.5670 O   0  0  0  0  0  0  0  0  0  0  0  0
  192.7240  175.6860  143.7190 C   0  0  0  0  0  0  0  0  0  0  0  0
  188.2290  176.6370  144.6430 C   0  0  0  0  0  2  0  0  0  0  0  0
  187.3520  177.8390  144.3130 C   0  0  2  0  0  3  0  0  0  0  0  0
  185.6120  179.1250  145.7040 C   0  0  0  0  0  3  0  0  0  0  0  0
  186.2000  177.9600  145.2610 C   0  0  0  0  0  0  0  0  0  0  0  0
  185.5650  176.8950  145.8600 C   0  0  0  0  0  3  0  0  0  0  0  0
  184.5860  177.4670  146.6530 C   0  0  0  0  0  3  0  0  0  0  0  0
  184.6180  178.8100  146.5570 N   0  0  0  0  0  2  0  0  0  0  0  0
  185.5650  177.5400  142.6740 O   0  0  0  0  0  0  0  0  0  0  0  0
  186.8940  177.8390  142.8560 C   0  0  0  0  0  0  0  0  0  0  0  0
  185.9760  178.8170  142.5610 O   0  0  0  0  0  0  0  0  0  0  0  0
  187.7870  177.4760  141.7080 C   0  0  0  0  0  0  0  0  0  0  0  0
  188.6350  178.2670  141.3250 O   0  0  0  0  0  0  0  0  0  0  0  0
  187.6440  176.1580  141.0200 C   0  0  0  0  0  2  0  0  0  0  0  0
  188.8280  175.2680  141.3380 C   0  0  0  0  0  2  0  0  0  0  0  0
  189.4860  173.0450  142.0650 N   0  0  0  0  0  1  0  0  0  0  0  0
  188.3530  173.9330  141.8770 C   0  0  0  0  0  2  0  0  0  0  0  0
  194.9240  175.5820  144.9010 C   0  0  0  0  0  2  0  0  0  0  0  0
  194.5490  176.2520  146.2140 C   0  0  0  0  0  2  0  0  0  0  0  0
  194.7350  177.6300  146.0950 O   0  0  0  0  0  1  0  0  0  0  0  0
  194.2680  173.8200  143.3250 N   0  0  0  0  0  2  0  0  0  0  0  0
  193.4590  171.6910  142.4570 C   0  0  0  0  0  0  0  0  0  0  0  0
  193.3860  173.0290  142.5300 C   0  0  0  0  0  3  0  0  0  0  0  0
  195.7560  170.6570  142.9030 C   0  0  0  0  0  3  0  0  0  0  0  0
  195.6610  169.3880  144.8460 C   0  0  0  0  0  0  0  0  0  0  0  0
  194.4220  170.8750  143.2540 C   0  0  0  0  0  0  0  0  0  0  0  0
  194.1130  170.0050  144.6690 S   0  0  0  0  0  0  0  0  0  0  0  0
  196.4500  169.8190  143.7910 C   0  0  0  0  0  3  0  0  0  0  0  0
  196.0880  168.4360  145.9080 C   0  0  0  0  0  2  0  0  0  0  0  0
  195.9210  169.0500  147.2110 N   0  0  0  0  0  2  0  0  0  0  0  0
  195.0070  168.2070  147.9570 C   0  0  0  0  0  1  0  0  0  0  0  0
  192.9500  169.8030  141.0920 O   0  0  0  0  0  0  0  0  0  0  0  0
  192.8450  170.8860  140.1960 C   0  0  2  0  0  3  0  0  0  0  0  0
  192.4220  170.9980  141.6200 C   0  0  2  0  0  3  0  0  0  0  0  0
  191.2110  169.4510  138.9610 C   0  0  0  0  0  3  0  0  0  0  0  0
  189.3890  170.4060  137.6870 C   0  0  0  0  0  3  0  0  0  0  0  0
  189.8030  171.6900  138.0540 C   0  0  0  0  0  3  0  0  0  0  0  0
  191.6390  170.7340  139.3220 C   0  0  0  0  0  0  0  0  0  0  0  0
  190.9210  171.8540  138.8730 C   0  0  0  0  0  3  0  0  0  0  0  0
  190.0890  169.2870  138.1440 C   0  0  0  0  0  3  0  0  0  0  0  0
  1 26  1  6  0  0  0
  3  6  1  0  0  0  0
  4 10  1  6  0  0  0
  4  2  1  0  0  0  0
  6  2  2  0  0  0  0
  7  5  1  1  0  0  0
  7  3  1  0  0  0  0
  7  4  1  0  0  0  0
  8  9  2  0  0  0  0
  9  1  1  0  0  0  0
  9  3  1  0  0  0  0
 11 10  1  1  0  0  0
 11 13  1  0  0  0  0
 12 16  1  0  0  0  0
 13 12  2  0  0  0  0
 13 14  1  0  0  0  0
 14 15  2  0  0  0  0
 16 15  1  0  0  0  0
 17 18  1  0  0  0  0
 18 11  1  0  0  0  0
 19 17  1  0  0  0  0
 19 18  1  0  0  0  0
 20 18  1  0  0  0  0
 21 20  2  0  0  0  0
 22 23  1  0  0  0  0
 22 20  1  0  0  0  0
 23 25  1  0  0  0  0
 25 24  1  0  0  0  0
 26 27  1  0  0  0  0
 28 27  1  0  0  0  0
 29  1  1  0  0  0  0
 30 31  2  0  0  0  0
 30 34  1  0  0  0  0
 31 29  1  0  0  0  0
 32 34  2  0  0  0  0
 32 36  1  0  0  0  0
 33 37  1  0  0  0  0
 34 35  1  0  0  0  0
 35 33  1  0  0  0  0
 36 33  2  0  0  0  0
 37 38  1  0  0  0  0
 38 39  1  0  0  0  0
 40 42  1  0  0  0  0
 41 46  1  6  0  0  0
 41 40  1  0  0  0  0
 41 42  1  0  0  0  0
 42 30  1  1  0  0  0
 43 46  1  0  0  0  0
 44 45  2  0  0  0  0
 44 48  1  0  0  0  0
 45 47  1  0  0  0  0
 47 46  2  0  0  0  0
 48 43  2  0  0  0  0
M  END
>  <MODEL>
4

>  <REMARK>
 VINA RESULT:      -5.2      2.756      9.951
  Name = 
  18 active torsions:
  status: ('A' for Active; 'I' for Inactive)
    1  A    between atoms: C_1  and  C_2
    2  A    between atoms: C_1  and  C_15
    3  A    between atoms: C_2  and  C_38
    4  A    between atoms: C_2  and  N_40
    5  A    between atoms: C_5  and  C_19
    6  A    between atoms: C_5  and  C_43
    7  A    between atoms: N_6  and  C_41
    8  A    between atoms: C_7  and  C_39
    9  A    between atoms: C_7  and  C_47
   10  A    between atoms: C_10  and  C_20
   11  A    between atoms: C_11  and  C_41
   12  A    between atoms: C_16  and  C_24
   13  A    between atoms: C_20  and  C_24
   14  A    between atoms: C_20  and  C_39
   15  A    between atoms: C_30  and  C_34
   16  A    between atoms: C_36  and  N_40
   17  A    between atoms: C_37  and  C_45
   18  A    between atoms: C_37  and  C_47
                            x       y       z     vdW  Elec       q    Type
                         _______ _______ _______ _____ _____    ______ ____

>  <TORSDO>
F 18

$$$$
=
 OpenBabel11062421513D

 48 53  0  0  1  0  0  0  0  0999 V2000
  195.4120  173.1780  144.2180 C   0  0  2  0  0  3  0  0  0  0  0  0
  191.8840  174.9560  146.2750 C   0  0  0  0  0  3  0  0  0  0  0  0
  193.8310  175.0440  144.9300 N   0  0  0  0  0  0  0  0  0  0  0  0
  192.1560  176.4090  145.9050 C   0  0  1  0  0  3  0  0  0  0  0  0
  194.5120  177.1670  145.9180 C   0  0  0  0  0  1  0  0  0  0  0  0
  192.9100  174.1110  145.5460 C   0  0  0  0  0  3  0  0  0  0  0  0
  193.4520  176.4340  145.1090 C   0  0  1  0  0  3  0  0  0  0  0  0
  195.6710  175.4650  143.5570 O   0  0  0  0  0  0  0  0  0  0  0  0
  194.9810  174.6180  144.1840 C   0  0  0  0  0  0  0  0  0  0  0  0
  191.0100  176.9440  145.0660 C   0  0  0  0  0  2  0  0  0  0  0  0
  189.8130  176.0040  145.1620 C   0  0  2  0  0  3  0  0  0  0  0  0
  189.6010  175.9820  142.5980 C   0  0  0  0  0  3  0  0  0  0  0  0
  189.4850  175.3890  143.8370 C   0  0  2  0  0  3  0  0  0  0  0  0
  188.9840  174.1170  143.6670 C   0  0  0  0  0  3  0  0  0  0  0  0
  188.8220  173.9800  142.3000 C   0  0  0  0  0  3  0  0  0  0  0  0
  189.1940  175.1060  141.6600 N   0  0  0  0  0  0  0  0  0  0  0  0
  188.2430  176.1800  147.0250 O   0  0  0  0  0  0  0  0  0  0  0  0
  188.5960  176.6770  145.7940 C   0  0  0  0  0  0  0  0  0  0  0  0
  188.8790  177.3640  146.9490 O   0  0  0  0  0  0  0  0  0  0  0  0
  187.4680  177.2610  144.9990 C   0  0  0  0  0  0  0  0  0  0  0  0
  187.6660  178.2310  144.2850 O   0  0  0  0  0  0  0  0  0  0  0  0
  186.0970  176.6710  145.0770 C   0  0  0  0  0  2  0  0  0  0  0  0
  185.0640  177.7650  145.2470 C   0  0  0  0  0  2  0  0  0  0  0  0
  185.4950  178.9380  147.3310 N   0  0  0  0  0  1  0  0  0  0  0  0
  184.6840  177.9080  146.7090 C   0  0  0  0  0  2  0  0  0  0  0  0
  196.8740  173.0510  144.6460 C   0  0  0  0  0  2  0  0  0  0  0  0
  197.1960  171.6820  145.2260 C   0  0  0  0  0  2  0  0  0  0  0  0
  196.2170  171.3380  146.1580 O   0  0  0  0  0  1  0  0  0  0  0  0
  195.1930  172.5120  142.9420 N   0  0  0  0  0  2  0  0  0  0  0  0
  195.3970  172.7780  140.5280 C   0  0  0  0  0  0  0  0  0  0  0  0
  195.9060  172.8880  141.7640 C   0  0  0  0  0  3  0  0  0  0  0  0
  193.6660  171.0360  139.8090 C   0  0  0  0  0  3  0  0  0  0  0  0
  191.5520  171.9960  139.8430 C   0  0  0  0  0  0  0  0  0  0  0  0
  194.0040  172.3180  140.2490 C   0  0  0  0  0  0  0  0  0  0  0  0
  192.5820  173.2260  140.3300 S   0  0  0  0  0  0  0  0  0  0  0  0
  192.2940  170.8570  139.5760 C   0  0  0  0  0  3  0  0  0  0  0  0
  190.0870  172.1420  139.6250 C   0  0  0  0  0  2  0  0  0  0  0  0
  189.8330  173.2670  138.7450 N   0  0  0  0  0  2  0  0  0  0  0  0
  188.4080  173.2700  138.4710 C   0  0  0  0  0  1  0  0  0  0  0  0
  196.9400  174.4370  139.7820 O   0  0  0  0  0  0  0  0  0  0  0  0
  195.8320  174.6230  138.9330 C   0  0  2  0  0  3  0  0  0  0  0  0
  196.2520  173.2700  139.3940 C   0  0  2  0  0  3  0  0  0  0  0  0
  197.5060  175.4600  137.2750 C   0  0  0  0  0  3  0  0  0  0  0  0
  197.1500  175.2510  134.8900 C   0  0  0  0  0  3  0  0  0  0  0  0
  195.9280  174.6130  135.1270 C   0  0  0  0  0  3  0  0  0  0  0  0
  196.2780  174.8340  137.5190 C   0  0  0  0  0  0  0  0  0  0  0  0
  195.4950  174.4010  136.4370 C   0  0  0  0  0  3  0  0  0  0  0  0
  197.9400  175.6700  135.9630 C   0  0  0  0  0  3  0  0  0  0  0  0
  1 26  1  6  0  0  0
  3  7  1  0  0  0  0
  3  6  1  0  0  0  0
  4 10  1  6  0  0  0
  4  2  1  0  0  0  0
  6  2  2  0  0  0  0
  7  4  1  0  0  0  0
  7  5  1  1  0  0  0
  8  9  2  0  0  0  0
  9  1  1  0  0  0  0
  9  3  1  0  0  0  0
 11 10  1  6  0  0  0
 11 18  1  0  0  0  0
 12 13  1  0  0  0  0
 13 11  1  1  0  0  0
 14 13  1  0  0  0  0
 15 14  2  0  0  0  0
 16 15  1  0  0  0  0
 16 12  2  0  0  0  0
 18 19  1  0  0  0  0
 18 17  1  0  0  0  0
 19 17  1  0  0  0  0
 20 22  1  0  0  0  0
 20 18  1  0  0  0  0
 21 20  2  0  0  0  0
 22 23  1  0  0  0  0
 23 25  1  0  0  0  0
 25 24  1  0  0  0  0
 26 27  1  0  0  0  0
 27 28  1  0  0  0  0
 29  1  1  0  0  0  0
 30 31  2  0  0  0  0
 31 29  1  0  0  0  0
 32 34  2  0  0  0  0
 33 35  1  0  0  0  0
 34 35  1  0  0  0  0
 34 30  1  0  0  0  0
 36 32  1  0  0  0  0
 36 33  2  0  0  0  0
 37 33  1  0  0  0  0
 38 37  1  0  0  0  0
 39 38  1  0  0  0  0
 41 46  1  6  0  0  0
 41 42  1  0  0  0  0
 41 40  1  0  0  0  0
 42 40  1  0  0  0  0
 42 30  1  1  0  0  0
 43 46  1  0  0  0  0
 44 45  2  0  0  0  0
 44 48  1  0  0  0  0
 45 47  1  0  0  0  0
 47 46  2  0  0  0  0
 48 43  2  0  0  0  0
M  END
>  <MODEL>
5

>  <REMARK>
 VINA RESULT:      -5.1      2.835      9.008
  Name = 
  18 active torsions:
  status: ('A' for Active; 'I' for Inactive)
    1  A    between atoms: C_1  and  C_2
    2  A    between atoms: C_1  and  C_15
    3  A    between atoms: C_2  and  C_38
    4  A    between atoms: C_2  and  N_40
    5  A    between atoms: C_5  and  C_19
    6  A    between atoms: C_5  and  C_43
    7  A    between atoms: N_6  and  C_41
    8  A    between atoms: C_7  and  C_39
    9  A    between atoms: C_7  and  C_47
   10  A    between atoms: C_10  and  C_20
   11  A    between atoms: C_11  and  C_41
   12  A    between atoms: C_16  and  C_24
   13  A    between atoms: C_20  and  C_24
   14  A    between atoms: C_20  and  C_39
   15  A    between atoms: C_30  and  C_34
   16  A    between atoms: C_36  and  N_40
   17  A    between atoms: C_37  and  C_45
   18  A    between atoms: C_37  and  C_47
                            x       y       z     vdW  Elec       q    Type
                         _______ _______ _______ _____ _____    ______ ____

>  <TORSDO>
F 18

$$$$
=
 OpenBabel11062421513D

 48 53  0  0  1  0  0  0  0  0999 V2000
  193.5230  175.5450  144.2500 C   0  0  2  0  0  3  0  0  0  0  0  0
  197.1470  173.2360  143.0800 C   0  0  0  0  0  3  0  0  0  0  0  0
  195.3600  173.8030  144.5270 N   0  0  0  0  0  0  0  0  0  0  0  0
  197.2730  172.4120  144.3560 C   0  0  1  0  0  3  0  0  0  0  0  0
  196.7730  173.5460  146.4990 C   0  0  0  0  0  1  0  0  0  0  0  0
  195.8590  174.0270  143.1860 C   0  0  0  0  0  3  0  0  0  0  0  0
  196.1570  172.8580  145.2890 C   0  0  1  0  0  3  0  0  0  0  0  0
  193.7090  174.0980  146.1490 O   0  0  0  0  0  0  0  0  0  0  0  0
  194.1700  174.4320  145.0260 C   0  0  0  0  0  0  0  0  0  0  0  0
  197.1280  170.9370  144.0270 C   0  0  0  0  0  2  0  0  0  0  0  0
  196.0300  170.3180  144.8850 C   0  0  2  0  0  3  0  0  0  0  0  0
  197.8010  168.8390  146.0220 C   0  0  0  0  0  3  0  0  0  0  0  0
  196.5970  169.5100  146.0090 C   0  0  0  0  0  0  0  0  0  0  0  0
  195.9660  169.2950  147.2150 C   0  0  0  0  0  3  0  0  0  0  0  0
  196.8360  168.4940  147.9330 C   0  0  0  0  0  3  0  0  0  0  0  0
  197.9390  168.2220  147.2110 N   0  0  0  0  0  2  0  0  0  0  0  0
  195.5960  168.6060  143.1960 O   0  0  0  0  0  0  0  0  0  0  0  0
  195.0290  169.5170  144.0550 C   0  0  0  0  0  0  0  0  0  0  0  0
  195.0240  168.1720  144.3350 O   0  0  0  0  0  0  0  0  0  0  0  0
  193.6980  170.0530  143.6200 C   0  0  0  0  0  0  0  0  0  0  0  0
  192.6730  169.4890  143.9680 O   0  0  0  0  0  0  0  0  0  0  0  0
  193.6140  171.2690  142.7560 C   0  0  0  0  0  2  0  0  0  0  0  0
  193.5070  170.8710  141.2990 C   0  0  0  0  0  2  0  0  0  0  0  0
  192.6840  173.1570  141.3380 N   0  0  0  0  0  1  0  0  0  0  0  0
  192.9690  172.0260  140.4760 C   0  0  0  0  0  2  0  0  0  0  0  0
  193.5680  176.8590  145.0300 C   0  0  0  0  0  2  0  0  0  0  0  0
  194.9070  177.0850  145.7140 C   0  0  0  0  0  2  0  0  0  0  0  0
  195.3130  178.4030  145.5030 O   0  0  0  0  0  1  0  0  0  0  0  0
  192.1550  175.2220  143.8710 N   0  0  0  0  0  2  0  0  0  0  0  0
  189.8570  175.9700  143.5550 C   0  0  0  0  0  0  0  0  0  0  0  0
  191.0790  176.1360  144.0820 C   0  0  0  0  0  3  0  0  0  0  0  0
  189.3350  173.4830  143.2590 C   0  0  0  0  0  3  0  0  0  0  0  0
  188.8440  173.0630  141.0280 C   0  0  0  0  0  0  0  0  0  0  0  0
  189.4630  174.7770  142.7490 C   0  0  0  0  0  0  0  0  0  0  0  0
  189.1620  174.7080  141.0880 S   0  0  0  0  0  0  0  0  0  0  0  0
  188.9930  172.5210  142.2940 C   0  0  0  0  0  3  0  0  0  0  0  0
  188.5560  172.2900  139.7890 C   0  0  0  0  0  2  0  0  0  0  0  0
  189.7990  171.8250  139.2030 N   0  0  0  0  0  2  0  0  0  0  0  0
  189.4490  170.7970  138.2420 C   0  0  0  0  0  1  0  0  0  0  0  0
  189.3050  177.8380  144.9320 O   0  0  0  0  0  0  0  0  0  0  0  0
  188.3800  176.8560  145.3370 C   0  0  2  0  0  3  0  0  0  0  0  0
  188.8150  176.9910  143.9180 C   0  0  2  0  0  3  0  0  0  0  0  0
  186.6930  178.6280  144.8170 C   0  0  0  0  0  3  0  0  0  0  0  0
  184.4770  178.5980  145.7890 C   0  0  0  0  0  3  0  0  0  0  0  0
  184.7880  177.4150  146.4670 C   0  0  0  0  0  3  0  0  0  0  0  0
  187.0160  177.4500  145.5030 C   0  0  0  0  0  0  0  0  0  0  0  0
  186.0520  176.8390  146.3210 C   0  0  0  0  0  3  0  0  0  0  0  0
  185.4270  179.2010  144.9620 C   0  0  0  0  0  3  0  0  0  0  0  0
  1  9  1  0  0  0  0
  1 26  1  1  0  0  0
  2  6  2  0  0  0  0
  2  4  1  0  0  0  0
  3  9  1  0  0  0  0
  3  7  1  0  0  0  0
  4 10  1  6  0  0  0
  4  7  1  0  0  0  0
  6  3  1  0  0  0  0
  7  5  1  1  0  0  0
  9  8  2  0  0  0  0
 11 10  1  6  0  0  0
 11 13  1  0  0  0  0
 12 16  1  0  0  0  0
 13 12  2  0  0  0  0
 13 14  1  0  0  0  0
 14 15  2  0  0  0  0
 16 15  1  0  0  0  0
 17 18  1  0  0  0  0
 17 19  1  0  0  0  0
 18 19  1  0  0  0  0
 18 11  1  0  0  0  0
 20 21  2  0  0  0  0
 20 18  1  0  0  0  0
 22 20  1  0  0  0  0
 23 22  1  0  0  0  0
 25 23  1  0  0  0  0
 25 24  1  0  0  0  0
 26 27  1  0  0  0  0
 28 27  1  0  0  0  0
 29 31  1  0  0  0  0
 29  1  1  0  0  0  0
 30 31  2  0  0  0  0
 33 35  1  0  0  0  0
 33 36  2  0  0  0  0
 34 32  2  0  0  0  0
 34 30  1  0  0  0  0
 35 34  1  0  0  0  0
 36 32  1  0  0  0  0
 37 33  1  0  0  0  0
 38 37  1  0  0  0  0
 39 38  1  0  0  0  0
 40 41  1  0  0  0  0
 41 46  1  6  0  0  0
 42 30  1  1  0  0  0
 42 40  1  0  0  0  0
 42 41  1  0  0  0  0
 43 48  2  0  0  0  0
 43 46  1  0  0  0  0
 44 45  2  0  0  0  0
 46 47  2  0  0  0  0
 47 45  1  0  0  0  0
 48 44  1  0  0  0  0
M  END
>  <MODEL>
6

>  <REMARK>
 VINA RESULT:      -5.1      2.935      6.670
  Name = 
  18 active torsions:
  status: ('A' for Active; 'I' for Inactive)
    1  A    between atoms: C_1  and  C_2
    2  A    between atoms: C_1  and  C_15
    3  A    between atoms: C_2  and  C_38
    4  A    between atoms: C_2  and  N_40
    5  A    between atoms: C_5  and  C_19
    6  A    between atoms: C_5  and  C_43
    7  A    between atoms: N_6  and  C_41
    8  A    between atoms: C_7  and  C_39
    9  A    between atoms: C_7  and  C_47
   10  A    between atoms: C_10  and  C_20
   11  A    between atoms: C_11  and  C_41
   12  A    between atoms: C_16  and  C_24
   13  A    between atoms: C_20  and  C_24
   14  A    between atoms: C_20  and  C_39
   15  A    between atoms: C_30  and  C_34
   16  A    between atoms: C_36  and  N_40
   17  A    between atoms: C_37  and  C_45
   18  A    between atoms: C_37  and  C_47
                            x       y       z     vdW  Elec       q    Type
                         _______ _______ _______ _____ _____    ______ ____

>  <TORSDO>
F 18

$$$$
=
 OpenBabel11062421513D

 48 53  0  0  1  0  0  0  0  0999 V2000
  193.4150  175.0600  144.9920 C   0  0  2  0  0  3  0  0  0  0  0  0
  195.2500  176.0400  141.0530 C   0  0  0  0  0  3  0  0  0  0  0  0
  194.5590  174.5630  142.7720 N   0  0  0  0  0  0  0  0  0  0  0  0
  195.6740  174.6250  140.6800 C   0  0  1  0  0  3  0  0  0  0  0  0
  196.5500  173.1820  142.4900 C   0  0  0  0  0  1  0  0  0  0  0  0
  194.4500  175.9410  142.3380 C   0  0  0  0  0  3  0  0  0  0  0  0
  195.2850  173.7190  141.8380 C   0  0  1  0  0  3  0  0  0  0  0  0
  193.9800  172.8540  144.2510 O   0  0  0  0  0  0  0  0  0  0  0  0
  193.9700  174.0860  143.9900 C   0  0  0  0  0  0  0  0  0  0  0  0
  194.9590  174.1970  139.4110 C   0  0  0  0  0  2  0  0  0  0  0  0
  195.7930  174.5760  138.1910 C   0  0  2  0  0  3  0  0  0  0  0  0
  195.4310  175.9930  136.0750 C   0  0  0  0  0  3  0  0  0  0  0  0
  194.9680  175.2710  137.1530 C   0  0  2  0  0  3  0  0  0  0  0  0
  193.5910  175.3080  137.1440 C   0  0  0  0  0  3  0  0  0  0  0  0
  193.2640  176.0600  136.0290 C   0  0  0  0  0  3  0  0  0  0  0  0
  194.3750  176.4700  135.3890 N   0  0  0  0  0  0  0  0  0  0  0  0
  197.9030  173.5770  137.4720 O   0  0  0  0  0  0  0  0  0  0  0  0
  196.5500  173.3830  137.6130 C   0  0  0  0  0  0  0  0  0  0  0  0
  197.4470  172.8170  138.4850 O   0  0  0  0  0  0  0  0  0  0  0  0
  195.9460  172.4100  136.6450 C   0  0  0  0  0  0  0  0  0  0  0  0
  196.1080  172.5670  135.4460 O   0  0  0  0  0  0  0  0  0  0  0  0
  195.1370  171.2540  137.1350 C   0  0  0  0  0  2  0  0  0  0  0  0
  193.6800  171.4370  136.7650 C   0  0  0  0  0  2  0  0  0  0  0  0
  191.7740  172.2350  138.0450 N   0  0  0  0  0  1  0  0  0  0  0  0
  192.7950  171.2060  137.9750 C   0  0  0  0  0  2  0  0  0  0  0  0
  194.4580  175.4130  146.0520 C   0  0  0  0  0  2  0  0  0  0  0  0
  194.4080  176.8780  146.4560 C   0  0  0  0  0  2  0  0  0  0  0  0
  194.9400  177.6550  145.4270 O   0  0  0  0  0  1  0  0  0  0  0  0
  192.1970  174.5660  145.6170 N   0  0  0  0  0  2  0  0  0  0  0  0
  190.0540  175.6660  145.2450 C   0  0  0  0  0  0  0  0  0  0  0  0
  191.1390  175.4430  146.0020 C   0  0  0  0  0  3  0  0  0  0  0  0
  189.5780  173.5940  143.8210 C   0  0  0  0  0  3  0  0  0  0  0  0
  189.4660  174.2090  141.5850 C   0  0  0  0  0  0  0  0  0  0  0  0
  189.7960  174.9670  143.9510 C   0  0  0  0  0  0  0  0  0  0  0  0
  189.7770  175.6400  142.4020 S   0  0  0  0  0  0  0  0  0  0  0  0
  189.3990  173.1670  142.4960 C   0  0  0  0  0  3  0  0  0  0  0  0
  189.3880  174.0670  140.1060 C   0  0  0  0  0  2  0  0  0  0  0  0
  188.4210  173.0410  139.7640 N   0  0  0  0  0  2  0  0  0  0  0  0
  188.3100  173.0360  138.3180 C   0  0  0  0  0  1  0  0  0  0  0  0
  188.2830  175.9020  146.8260 O   0  0  0  0  0  0  0  0  0  0  0  0
  187.6290  176.0410  145.5850 C   0  0  2  0  0  3  0  0  0  0  0  0
  189.0010  176.5730  145.8160 C   0  0  2  0  0  3  0  0  0  0  0  0
  186.6590  178.1370  144.6270 C   0  0  0  0  0  3  0  0  0  0  0  0
  184.8070  179.2810  145.6830 C   0  0  0  0  0  3  0  0  0  0  0  0
  184.7720  178.3040  146.6840 C   0  0  0  0  0  3  0  0  0  0  0  0
  186.6390  177.1630  145.6320 C   0  0  0  0  0  0  0  0  0  0  0  0
  185.6820  177.2460  146.6560 C   0  0  0  0  0  3  0  0  0  0  0  0
  185.7460  179.1950  144.6540 C   0  0  0  0  0  3  0  0  0  0  0  0
  1 29  1  0  0  0  0
  1 26  1  1  0  0  0
  2  6  2  0  0  0  0
  3  9  1  0  0  0  0
  4 10  1  6  0  0  0
  4  2  1  0  0  0  0
  4  7  1  0  0  0  0
  6  3  1  0  0  0  0
  7  5  1  1  0  0  0
  7  3  1  0  0  0  0
  9  8  2  0  0  0  0
  9  1  1  0  0  0  0
 11 10  1  1  0  0  0
 12 13  1  0  0  0  0
 13 11  1  1  0  0  0
 14 13  1  0  0  0  0
 15 14  2  0  0  0  0
 16 15  1  0  0  0  0
 16 12  2  0  0  0  0
 17 18  1  0  0  0  0
 17 19  1  0  0  0  0
 18 11  1  0  0  0  0
 18 19  1  0  0  0  0
 20 22  1  0  0  0  0
 20 18  1  0  0  0  0
 21 20  2  0  0  0  0
 23 22  1  0  0  0  0
 23 25  1  0  0  0  0
 25 24  1  0  0  0  0
 26 27  1  0  0  0  0
 28 27  1  0  0  0  0
 29 31  1  0  0  0  0
 30 31  2  0  0  0  0
 32 34  2  0  0  0  0
 33 35  1  0  0  0  0
 33 36  2  0  0  0  0
 34 30  1  0  0  0  0
 35 34  1  0  0  0  0
 36 32  1  0  0  0  0
 37 33  1  0  0  0  0
 38 37  1  0  0  0  0
 39 38  1  0  0  0  0
 41 46  1  1  0  0  0
 41 42  1  0  0  0  0
 41 40  1  0  0  0  0
 42 30  1  6  0  0  0
 42 40  1  0  0  0  0
 43 48  2  0  0  0  0
 43 46  1  0  0  0  0
 44 45  2  0  0  0  0
 46 47  2  0  0  0  0
 47 45  1  0  0  0  0
 48 44  1  0  0  0  0
M  END
>  <MODEL>
7

>  <REMARK>
 VINA RESULT:      -5.1      3.287      6.944
  Name = 
  18 active torsions:
  status: ('A' for Active; 'I' for Inactive)
    1  A    between atoms: C_1  and  C_2
    2  A    between atoms: C_1  and  C_15
    3  A    between atoms: C_2  and  C_38
    4  A    between atoms: C_2  and  N_40
    5  A    between atoms: C_5  and  C_19
    6  A    between atoms: C_5  and  C_43
    7  A    between atoms: N_6  and  C_41
    8  A    between atoms: C_7  and  C_39
    9  A    between atoms: C_7  and  C_47
   10  A    between atoms: C_10  and  C_20
   11  A    between atoms: C_11  and  C_41
   12  A    between atoms: C_16  and  C_24
   13  A    between atoms: C_20  and  C_24
   14  A    between atoms: C_20  and  C_39
   15  A    between atoms: C_30  and  C_34
   16  A    between atoms: C_36  and  N_40
   17  A    between atoms: C_37  and  C_45
   18  A    between atoms: C_37  and  C_47
                            x       y       z     vdW  Elec       q    Type
                         _______ _______ _______ _____ _____    ______ ____

>  <TORSDO>
F 18

$$$$
=
 OpenBabel11062421513D

 48 53  0  0  1  0  0  0  0  0999 V2000
  188.4800  177.4470  145.5820 C   0  0  2  0  0  3  0  0  0  0  0  0
  192.9210  177.1570  145.4130 C   0  0  0  0  0  3  0  0  0  0  0  0
  190.7520  176.3380  145.8920 N   0  0  0  0  0  0  0  0  0  0  0  0
  193.0510  175.7830  146.0600 C   0  0  1  0  0  3  0  0  0  0  0  0
  191.5260  175.2600  147.9380 C   0  0  0  0  0  1  0  0  0  0  0  0
  191.4410  177.4240  145.2260 C   0  0  0  0  0  3  0  0  0  0  0  0
  191.6470  175.3240  146.4230 C   0  0  1  0  0  3  0  0  0  0  0  0
  188.7720  175.2330  146.4450 O   0  0  0  0  0  0  0  0  0  0  0  0
  189.3210  176.2650  145.9750 C   0  0  0  0  0  0  0  0  0  0  0  0
  193.6860  174.8150  145.0780 C   0  0  0  0  0  2  0  0  0  0  0  0
  195.1730  175.1200  144.9350 C   0  0  2  0  0  3  0  0  0  0  0  0
  196.5260  176.5130  143.2480 C   0  0  0  0  0  3  0  0  0  0  0  0
  195.5000  175.6540  143.5760 C   0  0  2  0  0  3  0  0  0  0  0  0
  194.7840  175.3740  142.4330 C   0  0  0  0  0  3  0  0  0  0  0  0
  195.4250  176.0810  141.4310 C   0  0  0  0  0  3  0  0  0  0  0  0
  196.4730  176.7660  141.9270 N   0  0  0  0  0  0  0  0  0  0  0  0
  197.3960  174.1880  145.3340 O   0  0  0  0  0  0  0  0  0  0  0  0
  196.0480  173.9230  145.3030 C   0  0  0  0  0  0  0  0  0  0  0  0
  196.7190  174.0690  146.4920 O   0  0  0  0  0  0  0  0  0  0  0  0
  195.6880  172.5050  144.9770 C   0  0  0  0  0  0  0  0  0  0  0  0
  195.0450  171.8430  145.7750 O   0  0  0  0  0  0  0  0  0  0  0  0
  196.1180  171.8900  143.6850 C   0  0  0  0  0  2  0  0  0  0  0  0
  195.0010  171.0450  143.1080 C   0  0  0  0  0  2  0  0  0  0  0  0
  194.6960  170.7120  140.7210 N   0  0  0  0  0  1  0  0  0  0  0  0
  194.5000  171.6490  141.8110 C   0  0  0  0  0  2  0  0  0  0  0  0
  187.0410  177.2860  146.0710 C   0  0  0  0  0  2  0  0  0  0  0  0
  186.7970  177.9750  147.4040 C   0  0  0  0  0  2  0  0  0  0  0  0
  186.0740  179.1480  147.1880 O   0  0  0  0  0  1  0  0  0  0  0  0
  188.5090  177.6840  144.1460 N   0  0  0  0  0  2  0  0  0  0  0  0
  187.8110  176.2640  142.2920 C   0  0  0  0  0  0  0  0  0  0  0  0
  188.7180  176.6250  143.2120 C   0  0  0  0  0  3  0  0  0  0  0  0
  185.5690  177.1980  143.0990 C   0  0  0  0  0  3  0  0  0  0  0  0
  184.4440  178.1500  141.3050 C   0  0  0  0  0  0  0  0  0  0  0  0
  186.5120  176.9740  142.0940 C   0  0  0  0  0  0  0  0  0  0  0  0
  185.8800  177.5840  140.6500 S   0  0  0  0  0  0  0  0  0  0  0  0
  184.4080  177.8510  142.6570 C   0  0  0  0  0  3  0  0  0  0  0  0
  183.3360  178.7730  140.5310 C   0  0  0  0  0  2  0  0  0  0  0  0
  182.1250  178.7820  141.3290 N   0  0  0  0  0  2  0  0  0  0  0  0
  181.1060  178.1050  140.5500 C   0  0  0  0  0  1  0  0  0  0  0  0
  187.7690  173.9220  141.8430 O   0  0  0  0  0  0  0  0  0  0  0  0
  189.1440  174.2000  141.9750 C   0  0  2  0  0  3  0  0  0  0  0  0
  188.2030  175.1670  141.3430 C   0  0  2  0  0  3  0  0  0  0  0  0
  189.2700  172.6420  140.0240 C   0  0  0  0  0  3  0  0  0  0  0  0
  191.3660  172.1590  138.9140 C   0  0  0  0  0  3  0  0  0  0  0  0
  192.0310  173.0220  139.7910 C   0  0  0  0  0  3  0  0  0  0  0  0
  189.9310  173.4970  140.9140 C   0  0  0  0  0  0  0  0  0  0  0  0
  191.3160  173.6930  140.7850 C   0  0  0  0  0  3  0  0  0  0  0  0
  189.9860  171.9730  139.0270 C   0  0  0  0  0  3  0  0  0  0  0  0
  1  9  1  0  0  0  0
  1 26  1  6  0  0  0
  2  4  1  0  0  0  0
  3  9  1  0  0  0  0
  3  7  1  0  0  0  0
  4 10  1  6  0  0  0
  4  7  1  0  0  0  0
  6  2  2  0  0  0  0
  6  3  1  0  0  0  0
  7  5  1  1  0  0  0
  9  8  2  0  0  0  0
 11 10  1  6  0  0  0
 11 18  1  0  0  0  0
 12 13  1  0  0  0  0
 13 11  1  1  0  0  0
 14 13  1  0  0  0  0
 15 16  1  0  0  0  0
 15 14  2  0  0  0  0
 16 12  2  0  0  0  0
 17 19  1  0  0  0  0
 18 17  1  0  0  0  0
 18 19  1  0  0  0  0
 20 18  1  0  0  0  0
 20 21  2  0  0  0  0
 22 20  1  0  0  0  0
 23 22  1  0  0  0  0
 24 25  1  0  0  0  0
 25 23  1  0  0  0  0
 26 27  1  0  0  0  0
 28 27  1  0  0  0  0
 29  1  1  0  0  0  0
 30 31  2  0  0  0  0
 31 29  1  0  0  0  0
 33 36  2  0  0  0  0
 34 30  1  0  0  0  0
 34 32  2  0  0  0  0
 35 33  1  0  0  0  0
 35 34  1  0  0  0  0
 36 32  1  0  0  0  0
 37 33  1  0  0  0  0
 37 38  1  0  0  0  0
 39 38  1  0  0  0  0
 40 41  1  0  0  0  0
 41 46  1  6  0  0  0
 42 40  1  0  0  0  0
 42 41  1  0  0  0  0
 42 30  1  1  0  0  0
 43 46  1  0  0  0  0
 44 48  1  0  0  0  0
 44 45  2  0  0  0  0
 45 47  1  0  0  0  0
 47 46  2  0  0  0  0
 48 43  2  0  0  0  0
M  END
>  <MODEL>
8

>  <REMARK>
 VINA RESULT:      -4.9      2.614      5.792
  Name = 
  18 active torsions:
  status: ('A' for Active; 'I' for Inactive)
    1  A    between atoms: C_1  and  C_2
    2  A    between atoms: C_1  and  C_15
    3  A    between atoms: C_2  and  C_38
    4  A    between atoms: C_2  and  N_40
    5  A    between atoms: C_5  and  C_19
    6  A    between atoms: C_5  and  C_43
    7  A    between atoms: N_6  and  C_41
    8  A    between atoms: C_7  and  C_39
    9  A    between atoms: C_7  and  C_47
   10  A    between atoms: C_10  and  C_20
   11  A    between atoms: C_11  and  C_41
   12  A    between atoms: C_16  and  C_24
   13  A    between atoms: C_20  and  C_24
   14  A    between atoms: C_20  and  C_39
   15  A    between atoms: C_30  and  C_34
   16  A    between atoms: C_36  and  N_40
   17  A    between atoms: C_37  and  C_45
   18  A    between atoms: C_37  and  C_47
                            x       y       z     vdW  Elec       q    Type
                         _______ _______ _______ _____ _____    ______ ____

>  <TORSDO>
F 18

$$$$
=
 OpenBabel11062421513D

 48 53  0  0  1  0  0  0  0  0999 V2000
  193.7810  172.0430  144.7130 C   0  0  2  0  0  3  0  0  0  0  0  0
  194.0690  172.1950  140.2710 C   0  0  0  0  0  3  0  0  0  0  0  0
  192.9460  171.8040  142.3190 N   0  0  0  0  0  0  0  0  0  0  0  0
  192.6740  171.6600  139.9680 C   0  0  1  0  0  3  0  0  0  0  0  0
  191.8120  169.8440  141.4120 C   0  0  0  0  0  1  0  0  0  0  0  0
  194.1610  172.3730  141.7740 C   0  0  0  0  0  3  0  0  0  0  0  0
  192.0140  171.3480  141.3020 C   0  0  1  0  0  3  0  0  0  0  0  0
  191.5580  171.3590  144.1420 O   0  0  0  0  0  0  0  0  0  0  0  0
  192.6860  171.7390  143.7290 C   0  0  0  0  0  0  0  0  0  0  0  0
  191.8780  172.7120  139.2170 C   0  0  0  0  0  2  0  0  0  0  0  0
  191.2930  172.1100  137.9440 C   0  0  2  0  0  3  0  0  0  0  0  0
  191.5530  172.6510  135.4420 C   0  0  0  0  0  3  0  0  0  0  0  0
  191.4760  173.0180  136.7680 C   0  0  2  0  0  3  0  0  0  0  0  0
  191.6220  174.3850  136.8510 C   0  0  0  0  0  3  0  0  0  0  0  0
  191.7750  174.8060  135.5420 C   0  0  0  0  0  3  0  0  0  0  0  0
  191.7330  173.7580  134.6970 N   0  0  0  0  0  0  0  0  0  0  0  0
  189.4440  170.6360  137.3280 O   0  0  0  0  0  0  0  0  0  0  0  0
  189.8350  171.6900  138.1180 C   0  0  0  0  0  0  0  0  0  0  0  0
  189.6770  170.4290  138.6380 O   0  0  0  0  0  0  0  0  0  0  0  0
  188.7390  172.6430  138.4910 C   0  0  0  0  0  0  0  0  0  0  0  0
  188.2940  173.4120  137.6550 O   0  0  0  0  0  0  0  0  0  0  0  0
  188.1910  172.6660  139.8810 C   0  0  0  0  0  2  0  0  0  0  0  0
  188.6120  173.9370  140.5890 C   0  0  0  0  0  2  0  0  0  0  0  0
  188.6660  172.3240  142.4060 N   0  0  0  0  0  1  0  0  0  0  0  0
  189.1610  173.6160  141.9660 C   0  0  0  0  0  2  0  0  0  0  0  0
  194.1920  170.7890  145.4840 C   0  0  0  0  0  2  0  0  0  0  0  0
  194.1880  169.5410  144.6140 C   0  0  0  0  0  2  0  0  0  0  0  0
  193.8150  168.4430  145.3890 O   0  0  0  0  0  1  0  0  0  0  0  0
  193.4090  173.1100  145.6320 N   0  0  0  0  0  2  0  0  0  0  0  0
  192.3990  175.1430  144.7470 C   0  0  0  0  0  0  0  0  0  0  0  0
  192.2950  173.9650  145.3810 C   0  0  0  0  0  3  0  0  0  0  0  0
  194.6710  176.3090  144.9010 C   0  0  0  0  0  3  0  0  0  0  0  0
  195.6260  176.4110  142.7860 C   0  0  0  0  0  0  0  0  0  0  0  0
  193.6760  175.6570  144.1690 C   0  0  0  0  0  0  0  0  0  0  0  0
  194.1600  175.6320  142.5500 S   0  0  0  0  0  0  0  0  0  0  0  0
  195.7610  176.7360  144.1260 C   0  0  0  0  0  3  0  0  0  0  0  0
  196.5770  176.7910  141.7070 C   0  0  0  0  0  2  0  0  0  0  0  0
  197.2180  175.6020  141.1780 N   0  0  0  0  0  2  0  0  0  0  0  0
  196.9080  175.5540  139.7620 C   0  0  0  0  0  1  0  0  0  0  0  0
  191.3700  177.2880  144.5760 O   0  0  0  0  0  0  0  0  0  0  0  0
  190.7350  176.7140  145.6950 C   0  0  2  0  0  3  0  0  0  0  0  0
  191.1240  175.9020  144.5080 C   0  0  2  0  0  3  0  0  0  0  0  0
  188.4600  176.5340  146.7190 C   0  0  0  0  0  3  0  0  0  0  0  0
  186.5010  177.4550  145.6370 C   0  0  0  0  0  3  0  0  0  0  0  0
  187.2980  177.9160  144.5840 C   0  0  0  0  0  3  0  0  0  0  0  0
  189.2620  176.9810  145.6620 C   0  0  0  0  0  0  0  0  0  0  0  0
  188.6740  177.6840  144.5980 C   0  0  0  0  0  3  0  0  0  0  0  0
  187.0830  176.7690  146.7060 C   0  0  0  0  0  3  0  0  0  0  0  0
  1 26  1  1  0  0  0
  1 29  1  0  0  0  0
  2  6  2  0  0  0  0
  3  9  1  0  0  0  0
  4 10  1  1  0  0  0
  4  2  1  0  0  0  0
  4  7  1  0  0  0  0
  6  3  1  0  0  0  0
  7  5  1  1  0  0  0
  7  3  1  0  0  0  0
  9  8  2  0  0  0  0
  9  1  1  0  0  0  0
 11 18  1  0  0  0  0
 11 10  1  1  0  0  0
 12 13  1  0  0  0  0
 13 14  1  0  0  0  0
 13 11  1  1  0  0  0
 15 14  2  0  0  0  0
 16 12  2  0  0  0  0
 16 15  1  0  0  0  0
 17 18  1  0  0  0  0
 17 19  1  0  0  0  0
 18 20  1  0  0  0  0
 18 19  1  0  0  0  0
 20 22  1  0  0  0  0
 21 20  2  0  0  0  0
 22 23  1  0  0  0  0
 23 25  1  0  0  0  0
 25 24  1  0  0  0  0
 27 28  1  0  0  0  0
 27 26  1  0  0  0  0
 30 31  2  0  0  0  0
 31 29  1  0  0  0  0
 33 36  2  0  0  0  0
 34 30  1  0  0  0  0
 34 32  2  0  0  0  0
 35 33  1  0  0  0  0
 35 34  1  0  0  0  0
 36 32  1  0  0  0  0
 37 33  1  0  0  0  0
 38 37  1  0  0  0  0
 39 38  1  0  0  0  0
 40 41  1  0  0  0  0
 41 46  1  6  0  0  0
 42 40  1  0  0  0  0
 42 30  1  1  0  0  0
 42 41  1  0  0  0  0
 44 48  2  0  0  0  0
 45 47  2  0  0  0  0
 45 44  1  0  0  0  0
 46 43  2  0  0  0  0
 47 46  1  0  0  0  0
 48 43  1  0  0  0  0
M  END
>  <MODEL>
9

>  <REMARK>
 VINA RESULT:      -4.9      2.888      7.344
  Name = 
  18 active torsions:
  status: ('A' for Active; 'I' for Inactive)
    1  A    between atoms: C_1  and  C_2
    2  A    between atoms: C_1  and  C_15
    3  A    between atoms: C_2  and  C_38
    4  A    between atoms: C_2  and  N_40
    5  A    between atoms: C_5  and  C_19
    6  A    between atoms: C_5  and  C_43
    7  A    between atoms: N_6  and  C_41
    8  A    between atoms: C_7  and  C_39
    9  A    between atoms: C_7  and  C_47
   10  A    between atoms: C_10  and  C_20
   11  A    between atoms: C_11  and  C_41
   12  A    between atoms: C_16  and  C_24
   13  A    between atoms: C_20  and  C_24
   14  A    between atoms: C_20  and  C_39
   15  A    between atoms: C_30  and  C_34
   16  A    between atoms: C_36  and  N_40
   17  A    between atoms: C_37  and  C_45
   18  A    between atoms: C_37  and  C_47
                            x       y       z     vdW  Elec       q    Type
                         _______ _______ _______ _____ _____    ______ ____

>  <TORSDO>
F 18

$$$$
