=
 OpenBabel11062418533D

 33 38  0  0  1  0  0  0  0  0999 V2000
  195.3070  175.7800  145.2570 N   0  0  0  0  0  0  0  0  0  0  0  0
  193.0160  175.4450  143.6570 C   0  0  2  0  0  3  0  0  0  0  0  0
  188.9810  174.8810  142.0310 C   0  0  0  0  0  0  0  0  0  0  0  0
  187.8200  173.9860  142.0130 N   0  0  0  0  0  0  0  0  0  0  0  0
  190.8130  176.5180  145.0700 C   0  0  2  0  0  3  0  0  0  0  0  0
  193.5540  174.2820  144.5030 C   0  0  1  0  0  3  0  0  0  0  0  0
  189.9700  173.2150  140.4420 N   0  0  0  0  0  2  0  0  0  0  0  0
  191.4060  174.3760  141.9700 C   0  0  0  0  0  3  0  0  0  0  0  0
  193.1860  176.7990  144.4060 C   0  0  2  0  0  3  0  0  0  0  0  0
  193.8640  176.8430  146.8880 C   0  0  0  0  0  1  0  0  0  0  0  0
  193.5350  172.9650  143.7490 C   0  0  0  0  0  1  0  0  0  0  0  0
  188.8160  172.6930  140.2810 N   0  0  0  0  0  0  0  0  0  0  0  0
  190.5610  175.7170  143.8250 C   0  0  0  0  0  0  0  0  0  0  0  0
  187.7210  173.0090  141.1600 C   0  0  0  0  0  3  0  0  0  0  0  0
  194.3430  176.8480  145.4440 C   0  0  1  0  0  3  0  0  0  0  0  0
  191.9480  177.4380  144.8990 N   0  0  0  0  0  2  0  0  0  0  0  0
  190.1870  174.1680  141.4820 C   0  0  0  0  0  0  0  0  0  0  0  0
  191.6130  175.2260  143.1510 C   0  0  0  0  0  0  0  0  0  0  0  0
  194.9740  174.5990  144.8600 C   0  0  0  0  0  3  0  0  0  0  0  0
  189.2120  175.4770  143.3610 N   0  0  0  0  0  0  0  0  0  0  0  0
  191.1060  174.9690  147.1720 N   0  0  0  0  0  0  0  0  0  0  0  0
  190.9800  175.6520  146.2470 C   0  0  0  0  0  0  0  0  0  0  0  0
  188.0950  175.9400  144.1960 C   0  0  0  0  0  2  0  0  0  0  0  0
  186.9860  178.2010  144.5280 C   0  0  2  0  0  3  0  0  0  0  0  0
  186.5860  178.0850  145.9410 C   0  0  0  0  0  0  0  0  0  0  0  0
  185.3570  178.4980  146.2750 C   0  0  0  0  0  3  0  0  0  0  0  0
  186.3160  179.2070  143.6490 C   0  0  2  0  0  3  0  0  0  0  0  0
  187.5410  177.2670  143.7660 C   0  0  2  0  0  3  0  0  0  0  0  0
  184.8550  179.3170  144.0050 C   0  0  0  0  0  3  0  0  0  0  0  0
  186.5130  178.6660  142.3110 N   0  0  0  0  0  0  0  0  0  0  0  0
  187.2220  177.5860  142.3830 C   0  0  0  0  0  3  0  0  0  0  0  0
  187.6740  177.5040  147.1830 Cl  0  0  0  0  0  0  0  0  0  0  0  0
  184.4280  179.0320  145.2450 C   0  0  0  0  0  3  0  0  0  0  0  0
  1 15  1  0  0  0  0
  2 18  1  1  0  0  0
  2  9  1  0  0  0  0
  2  6  1  0  0  0  0
  3 20  1  0  0  0  0
  4  3  2  0  0  0  0
  5 22  1  1  0  0  0
  6 11  1  6  0  0  0
  6 19  1  0  0  0  0
  7 17  1  0  0  0  0
  8 18  1  0  0  0  0
  9 16  1  1  0  0  0
  9 15  1  0  0  0  0
 12  7  1  0  0  0  0
 12 14  2  0  0  0  0
 13  5  1  0  0  0  0
 14  4  1  0  0  0  0
 15 10  1  1  0  0  0
 16  5  1  0  0  0  0
 17  8  2  0  0  0  0
 17  3  1  0  0  0  0
 18 13  2  0  0  0  0
 19  1  2  0  0  0  0
 20 13  1  0  0  0  0
 20 23  1  0  0  0  0
 22 21  3  0  0  0  0
 24 25  1  1  0  0  0
 25 26  2  0  0  0  0
 25 32  1  0  0  0  0
 27 29  1  1  0  0  0
 27 24  1  0  0  0  0
 28 23  1  1  0  0  0
 28 24  1  0  0  0  0
 29 33  2  0  0  0  0
 30 31  2  0  0  0  0
 30 27  1  0  0  0  0
 31 28  1  0  0  0  0
 33 26  1  0  0  0  0
M  END
>  <MODEL>
1

>  <REMARK>
 VINA RESULT:      -8.3      0.000      0.000
  Name = 
  3 active torsions:
  status: ('A' for Active; 'I' for Inactive)
    1  A    between atoms: C_7  and  C_12
    2  A    between atoms: C_21  and  C_25
    3  A    between atoms: C_25  and  N_30
                            x       y       z     vdW  Elec       q    Type
                         _______ _______ _______ _____ _____    ______ ____

>  <TORSDO>
F 3

$$$$
=
 OpenBabel11062418533D

 33 38  0  0  1  0  0  0  0  0999 V2000
  184.8670  178.5620  142.9180 N   0  0  0  0  0  0  0  0  0  0  0  0
  187.3530  178.0890  144.1470 C   0  0  2  0  0  3  0  0  0  0  0  0
  191.2650  176.5860  145.4440 C   0  0  2  0  0  3  0  0  0  0  0  0
  191.9680  175.4290  146.0080 N   0  0  0  0  0  0  0  0  0  0  0  0
  189.0250  176.8210  142.2500 C   0  0  2  0  0  3  0  0  0  0  0  0
  186.1700  177.1420  144.3900 C   0  0  1  0  0  3  0  0  0  0  0  0
  190.5040  176.9520  147.8040 N   0  0  0  0  0  0  0  0  0  0  0  0
  189.0510  177.5510  145.9940 C   0  0  0  0  0  3  0  0  0  0  0  0
  187.3570  178.6050  142.6790 C   0  0  2  0  0  3  0  0  0  0  0  0
  185.7990  177.5550  140.9210 C   0  0  0  0  0  1  0  0  0  0  0  0
  186.0520  176.7290  145.8460 C   0  0  0  0  0  1  0  0  0  0  0  0
  191.3820  176.1190  148.2090 N   0  0  0  0  0  0  0  0  0  0  0  0
  189.4740  176.9000  143.6810 C   0  0  0  0  0  0  0  0  0  0  0  0
  192.0710  175.2490  147.2920 C   0  0  0  0  0  3  0  0  0  0  0  0
  185.9690  178.6360  141.9780 C   0  0  1  0  0  3  0  0  0  0  0  0
  188.4300  178.0890  141.8030 N   0  0  0  0  0  2  0  0  0  0  0  0
  190.2190  177.0720  146.4100 C   0  0  0  0  0  0  0  0  0  0  0  0
  188.6830  177.5180  144.5720 C   0  0  0  0  0  0  0  0  0  0  0  0
  184.9190  177.8700  144.0040 C   0  0  0  0  0  3  0  0  0  0  0  0
  190.7340  176.3180  144.0940 N   0  0  0  0  0  0  0  0  0  0  0  0
  187.4190  174.7810  141.8540 N   0  0  0  0  0  0  0  0  0  0  0  0
  188.1260  175.6800  142.0260 C   0  0  0  0  0  0  0  0  0  0  0  0
  191.5060  175.5560  143.1050 C   0  0  0  0  0  2  0  0  0  0  0  0
  191.2310  173.3010  141.9670 C   0  0  2  0  0  3  0  0  0  0  0  0
  191.6400  173.6540  140.5960 C   0  0  0  0  0  0  0  0  0  0  0  0
  190.8970  173.1860  139.5870 C   0  0  0  0  0  3  0  0  0  0  0  0
  190.4110  172.0740  142.2030 C   0  0  2  0  0  3  0  0  0  0  0  0
  191.0880  174.1180  143.0030 C   0  0  2  0  0  3  0  0  0  0  0  0
  189.4280  171.8810  141.0750 C   0  0  0  0  0  3  0  0  0  0  0  0
  189.7430  172.3550  143.4660 N   0  0  0  0  0  0  0  0  0  0  0  0
  190.1460  173.4960  143.9220 C   0  0  0  0  0  3  0  0  0  0  0  0
  193.0830  174.5840  140.2550 Cl  0  0  0  0  0  0  0  0  0  0  0  0
  189.6890  172.3610  139.8490 C   0  0  0  0  0  3  0  0  0  0  0  0
  1 19  2  0  0  0  0
  2  6  1  0  0  0  0
  2 18  1  6  0  0  0
  3  4  1  1  0  0  0
  3 17  1  0  0  0  0
  4 14  2  0  0  0  0
  5 22  1  1  0  0  0
  5 13  1  0  0  0  0
  6 11  1  1  0  0  0
  7 12  2  0  0  0  0
  8 17  2  0  0  0  0
  9 16  1  6  0  0  0
  9  2  1  0  0  0  0
 13 20  1  0  0  0  0
 13 18  2  0  0  0  0
 14 12  1  0  0  0  0
 15 10  1  6  0  0  0
 15  9  1  0  0  0  0
 15  1  1  0  0  0  0
 16  5  1  0  0  0  0
 17  7  1  0  0  0  0
 18  8  1  0  0  0  0
 19  6  1  0  0  0  0
 20  3  1  0  0  0  0
 21 22  3  0  0  0  0
 23 20  1  0  0  0  0
 24 25  1  6  0  0  0
 24 27  1  0  0  0  0
 24 28  1  0  0  0  0
 26 33  1  0  0  0  0
 26 25  2  0  0  0  0
 27 29  1  6  0  0  0
 27 30  1  0  0  0  0
 28 23  1  6  0  0  0
 28 31  1  0  0  0  0
 30 31  2  0  0  0  0
 32 25  1  0  0  0  0
 33 29  2  0  0  0  0
M  END
>  <MODEL>
2

>  <REMARK>
 VINA RESULT:      -8.1      2.546      7.334
  Name = 
  3 active torsions:
  status: ('A' for Active; 'I' for Inactive)
    1  A    between atoms: C_7  and  C_12
    2  A    between atoms: C_21  and  C_25
    3  A    between atoms: C_25  and  N_30
                            x       y       z     vdW  Elec       q    Type
                         _______ _______ _______ _____ _____    ______ ____

>  <TORSDO>
F 3

$$$$
=
 OpenBabel11062418533D

 33 38  0  0  1  0  0  0  0  0999 V2000
  195.6230  174.8380  145.2470 N   0  0  0  0  0  0  0  0  0  0  0  0
  193.2530  174.8250  143.7300 C   0  0  2  0  0  3  0  0  0  0  0  0
  189.1780  175.2480  142.1600 C   0  0  0  0  0  0  0  0  0  0  0  0
  187.7730  174.8980  142.3890 N   0  0  0  0  0  0  0  0  0  0  0  0
  191.7080  177.0570  144.5260 C   0  0  2  0  0  3  0  0  0  0  0  0
  193.3930  173.9260  144.9660 C   0  0  1  0  0  3  0  0  0  0  0  0
  189.3670  172.8890  141.3340 N   0  0  0  0  0  2  0  0  0  0  0  0
  191.2390  173.9010  142.4350 C   0  0  0  0  0  3  0  0  0  0  0  0
  193.9610  176.1920  143.9570 C   0  0  2  0  0  3  0  0  0  0  0  0
  194.7960  176.8590  146.2970 C   0  0  0  0  0  1  0  0  0  0  0  0
  192.8370  172.5340  144.7310 C   0  0  0  0  0  1  0  0  0  0  0  0
  188.0930  172.8070  141.2970 N   0  0  0  0  0  0  0  0  0  0  0  0
  191.0870  176.0210  143.6340 C   0  0  0  0  0  0  0  0  0  0  0  0
  187.2590  173.7930  141.9340 C   0  0  0  0  0  3  0  0  0  0  0  0
  195.1320  176.1760  144.9790 C   0  0  1  0  0  3  0  0  0  0  0  0
  193.0830  177.3710  144.1100 N   0  0  0  0  0  2  0  0  0  0  0  0
  189.9960  173.9980  141.9770 C   0  0  0  0  0  0  0  0  0  0  0  0
  191.8320  174.9740  143.2470 C   0  0  0  0  0  0  0  0  0  0  0  0
  194.8530  173.8040  145.2750 C   0  0  0  0  0  3  0  0  0  0  0  0
  189.7110  176.1460  143.2020 N   0  0  0  0  0  0  0  0  0  0  0  0
  191.5760  176.3580  147.0550 N   0  0  0  0  0  0  0  0  0  0  0  0
  191.6360  176.6660  145.9420 C   0  0  0  0  0  0  0  0  0  0  0  0
  188.9080  177.2490  143.7450 C   0  0  0  0  0  2  0  0  0  0  0  0
  186.7720  177.3320  145.1180 C   0  0  2  0  0  3  0  0  0  0  0  0
  186.1810  178.5770  144.5970 C   0  0  0  0  0  0  0  0  0  0  0  0
  185.6560  179.4330  145.4820 C   0  0  0  0  0  3  0  0  0  0  0  0
  186.3240  176.7950  146.4390 C   0  0  2  0  0  3  0  0  0  0  0  0
  187.9600  176.8180  144.8260 C   0  0  2  0  0  3  0  0  0  0  0  0
  186.0520  177.9290  147.3940 C   0  0  0  0  0  3  0  0  0  0  0  0
  187.4510  175.9790  146.8680 N   0  0  0  0  0  0  0  0  0  0  0  0
  188.3580  175.9780  145.9460 C   0  0  0  0  0  3  0  0  0  0  0  0
  186.0810  178.9280  142.8850 Cl  0  0  0  0  0  0  0  0  0  0  0  0
  185.6930  179.1390  146.9380 C   0  0  0  0  0  3  0  0  0  0  0  0
  1 19  2  0  0  0  0
  2 18  1  1  0  0  0
  2  9  1  0  0  0  0
  2  6  1  0  0  0  0
  3  4  2  0  0  0  0
  3 20  1  0  0  0  0
  5 22  1  1  0  0  0
  6 11  1  6  0  0  0
  6 19  1  0  0  0  0
  7 17  1  0  0  0  0
  8 18  1  0  0  0  0
  9 16  1  1  0  0  0
  9 15  1  0  0  0  0
 12  7  1  0  0  0  0
 12 14  2  0  0  0  0
 13  5  1  0  0  0  0
 14  4  1  0  0  0  0
 15  1  1  0  0  0  0
 15 10  1  1  0  0  0
 16  5  1  0  0  0  0
 17  3  1  0  0  0  0
 17  8  2  0  0  0  0
 18 13  2  0  0  0  0
 20 13  1  0  0  0  0
 20 23  1  0  0  0  0
 22 21  3  0  0  0  0
 24 25  1  1  0  0  0
 24 27  1  0  0  0  0
 25 26  2  0  0  0  0
 26 33  1  0  0  0  0
 27 30  1  0  0  0  0
 27 29  1  1  0  0  0
 28 23  1  1  0  0  0
 28 24  1  0  0  0  0
 28 31  1  0  0  0  0
 31 30  2  0  0  0  0
 32 25  1  0  0  0  0
 33 29  2  0  0  0  0
M  END
>  <MODEL>
3

>  <REMARK>
 VINA RESULT:      -8.1      1.528      2.006
  Name = 
  3 active torsions:
  status: ('A' for Active; 'I' for Inactive)
    1  A    between atoms: C_7  and  C_12
    2  A    between atoms: C_21  and  C_25
    3  A    between atoms: C_25  and  N_30
                            x       y       z     vdW  Elec       q    Type
                         _______ _______ _______ _____ _____    ______ ____

>  <TORSDO>
F 3

$$$$
=
 OpenBabel11062418533D

 33 38  0  0  1  0  0  0  0  0999 V2000
  185.2050  178.6660  142.5550 N   0  0  0  0  0  0  0  0  0  0  0  0
  187.5790  178.0120  143.9180 C   0  0  2  0  0  3  0  0  0  0  0  0
  191.1800  176.1330  145.5730 C   0  0  2  0  0  3  0  0  0  0  0  0
  191.6770  174.9960  146.3550 N   0  0  0  0  0  0  0  0  0  0  0  0
  189.0020  176.1560  142.3280 C   0  0  2  0  0  3  0  0  0  0  0  0
  186.2510  177.3390  144.2940 C   0  0  1  0  0  3  0  0  0  0  0  0
  190.5020  177.0460  147.8050 N   0  0  0  0  0  0  0  0  0  0  0  0
  189.1660  177.5410  145.8780 C   0  0  0  0  0  3  0  0  0  0  0  0
  187.6650  178.2440  142.3810 C   0  0  2  0  0  3  0  0  0  0  0  0
  185.9440  177.1690  140.7990 C   0  0  0  0  0  1  0  0  0  0  0  0
  186.0690  177.2240  145.7970 C   0  0  0  0  0  1  0  0  0  0  0  0
  191.2250  176.1640  148.3790 N   0  0  0  0  0  0  0  0  0  0  0  0
  189.4630  176.4170  143.7330 C   0  0  0  0  0  0  0  0  0  0  0  0
  191.7520  175.0380  147.6530 C   0  0  0  0  0  3  0  0  0  0  0  0
  186.3010  178.3800  141.6480 C   0  0  1  0  0  3  0  0  0  0  0  0
  188.6310  177.4030  141.6420 N   0  0  0  0  0  2  0  0  0  0  0  0
  190.2360  176.9560  146.4060 C   0  0  0  0  0  0  0  0  0  0  0  0
  188.7920  177.3120  144.4750 C   0  0  0  0  0  0  0  0  0  0  0  0
  185.1420  178.1850  143.7490 C   0  0  0  0  0  3  0  0  0  0  0  0
  190.6060  175.7170  144.2780 N   0  0  0  0  0  0  0  0  0  0  0  0
  187.0660  174.3820  142.2610 N   0  0  0  0  0  0  0  0  0  0  0  0
  187.9200  175.1620  142.2880 C   0  0  0  0  0  0  0  0  0  0  0  0
  191.2330  174.6670  143.4650 C   0  0  0  0  0  2  0  0  0  0  0  0
  193.7600  174.4100  143.4250 C   0  0  2  0  0  3  0  0  0  0  0  0
  193.9350  173.4290  144.5110 C   0  0  0  0  0  0  0  0  0  0  0  0
  194.9230  173.6420  145.3880 C   0  0  0  0  0  3  0  0  0  0  0  0
  194.9170  175.2530  142.9950 C   0  0  2  0  0  3  0  0  0  0  0  0
  192.6350  175.0000  143.0430 C   0  0  2  0  0  3  0  0  0  0  0  0
  195.7600  175.6260  144.1890 C   0  0  0  0  0  3  0  0  0  0  0  0
  194.2800  176.4150  142.3930 N   0  0  0  0  0  0  0  0  0  0  0  0
  192.9970  176.2560  142.4020 C   0  0  0  0  0  3  0  0  0  0  0  0
  192.9560  171.9830  144.6390 Cl  0  0  0  0  0  0  0  0  0  0  0  0
  195.7930  174.8420  145.2780 C   0  0  0  0  0  3  0  0  0  0  0  0
  1 19  2  0  0  0  0
  2  6  1  0  0  0  0
  2 18  1  6  0  0  0
  3  4  1  1  0  0  0
  3 17  1  0  0  0  0
  4 14  2  0  0  0  0
  5 22  1  1  0  0  0
  5 13  1  0  0  0  0
  6 11  1  1  0  0  0
  7 12  2  0  0  0  0
  8 17  2  0  0  0  0
  9 16  1  6  0  0  0
  9  2  1  0  0  0  0
 13 20  1  0  0  0  0
 13 18  2  0  0  0  0
 14 12  1  0  0  0  0
 15 10  1  1  0  0  0
 15  9  1  0  0  0  0
 15  1  1  0  0  0  0
 16  5  1  0  0  0  0
 17  7  1  0  0  0  0
 18  8  1  0  0  0  0
 19  6  1  0  0  0  0
 20  3  1  0  0  0  0
 21 22  3  0  0  0  0
 23 20  1  0  0  0  0
 24 25  1  1  0  0  0
 25 32  1  0  0  0  0
 25 26  2  0  0  0  0
 27 24  1  0  0  0  0
 27 29  1  1  0  0  0
 28 24  1  0  0  0  0
 28 23  1  1  0  0  0
 29 33  2  0  0  0  0
 30 31  2  0  0  0  0
 30 27  1  0  0  0  0
 31 28  1  0  0  0  0
 33 26  1  0  0  0  0
M  END
>  <MODEL>
4

>  <REMARK>
 VINA RESULT:      -7.8      2.226      7.598
  Name = 
  3 active torsions:
  status: ('A' for Active; 'I' for Inactive)
    1  A    between atoms: C_7  and  C_12
    2  A    between atoms: C_21  and  C_25
    3  A    between atoms: C_25  and  N_30
                            x       y       z     vdW  Elec       q    Type
                         _______ _______ _______ _____ _____    ______ ____

>  <TORSDO>
F 3

$$$$
=
 OpenBabel11062418533D

 33 38  0  0  1  0  0  0  0  0999 V2000
  185.0850  179.0400  146.1830 N   0  0  0  0  0  0  0  0  0  0  0  0
  186.3880  176.9910  144.7610 C   0  0  2  0  0  3  0  0  0  0  0  0
  189.2110  174.1050  143.0450 C   0  0  0  0  0  0  0  0  0  0  0  0
  190.4550  173.9680  142.2820 N   0  0  0  0  0  0  0  0  0  0  0  0
  188.5300  176.0620  146.3590 C   0  0  2  0  0  3  0  0  0  0  0  0
  186.6810  178.4650  144.4500 C   0  0  1  0  0  3  0  0  0  0  0  0
  188.1910  174.5990  140.8100 N   0  0  0  0  0  2  0  0  0  0  0  0
  187.3130  175.6710  142.7650 C   0  0  0  0  0  3  0  0  0  0  0  0
  186.1580  176.7830  146.2870 C   0  0  2  0  0  3  0  0  0  0  0  0
  186.6910  178.6650  147.9570 C   0  0  0  0  0  1  0  0  0  0  0  0
  186.7720  178.7310  142.9590 C   0  0  0  0  0  1  0  0  0  0  0  0
  189.2480  174.1660  140.2390 N   0  0  0  0  0  0  0  0  0  0  0  0
  188.4320  175.6040  144.9310 C   0  0  0  0  0  0  0  0  0  0  0  0
  190.4610  173.9360  140.9810 C   0  0  0  0  0  3  0  0  0  0  0  0
  185.6410  178.0280  147.0600 C   0  0  1  0  0  3  0  0  0  0  0  0
  187.2150  176.0530  147.0180 N   0  0  0  0  0  2  0  0  0  0  0  0
  188.1780  174.8230  142.2200 C   0  0  0  0  0  0  0  0  0  0  0  0
  187.4040  176.0360  144.1860 C   0  0  0  0  0  0  0  0  0  0  0  0
  185.5550  179.2800  145.0060 C   0  0  0  0  0  3  0  0  0  0  0  0
  189.4290  174.7180  144.3700 N   0  0  0  0  0  0  0  0  0  0  0  0
  189.7130  178.4000  146.5500 N   0  0  0  0  0  0  0  0  0  0  0  0
  189.1900  177.3710  146.4640 C   0  0  0  0  0  0  0  0  0  0  0  0
  190.5930  174.3670  145.1930 C   0  0  0  0  0  2  0  0  0  0  0  0
  193.0290  174.4540  144.4760 C   0  0  2  0  0  3  0  0  0  0  0  0
  193.4280  173.0640  144.7590 C   0  0  0  0  0  0  0  0  0  0  0  0
  194.6030  172.8680  145.3690 C   0  0  0  0  0  3  0  0  0  0  0  0
  194.0730  175.5150  144.3550 C   0  0  2  0  0  3  0  0  0  0  0  0
  191.8620  175.0290  144.7410 C   0  0  2  0  0  3  0  0  0  0  0  0
  195.1880  175.2620  145.3380 C   0  0  0  0  0  3  0  0  0  0  0  0
  193.3450  176.7390  144.6590 N   0  0  0  0  0  0  0  0  0  0  0  0
  192.0970  176.4610  144.8530 C   0  0  0  0  0  3  0  0  0  0  0  0
  192.4660  171.6890  144.2630 Cl  0  0  0  0  0  0  0  0  0  0  0  0
  195.4570  174.0180  145.7650 C   0  0  0  0  0  3  0  0  0  0  0  0
  1 15  1  0  0  0  0
  2 18  1  1  0  0  0
  2  9  1  0  0  0  0
  3 20  1  0  0  0  0
  4  3  2  0  0  0  0
  5 22  1  6  0  0  0
  5 16  1  0  0  0  0
  6 11  1  6  0  0  0
  6  2  1  0  0  0  0
  6 19  1  0  0  0  0
  7 17  1  0  0  0  0
  8 18  1  0  0  0  0
  9 16  1  1  0  0  0
  9 15  1  0  0  0  0
 12  7  1  0  0  0  0
 12 14  2  0  0  0  0
 13  5  1  0  0  0  0
 14  4  1  0  0  0  0
 15 10  1  6  0  0  0
 17  8  2  0  0  0  0
 17  3  1  0  0  0  0
 18 13  2  0  0  0  0
 19  1  2  0  0  0  0
 20 13  1  0  0  0  0
 20 23  1  0  0  0  0
 22 21  3  0  0  0  0
 24 28  1  0  0  0  0
 24 25  1  1  0  0  0
 25 26  2  0  0  0  0
 26 33  1  0  0  0  0
 27 24  1  0  0  0  0
 27 30  1  0  0  0  0
 27 29  1  1  0  0  0
 28 31  1  0  0  0  0
 28 23  1  1  0  0  0
 29 33  2  0  0  0  0
 30 31  2  0  0  0  0
 32 25  1  0  0  0  0
M  END
>  <MODEL>
5

>  <REMARK>
 VINA RESULT:      -7.6      2.225      6.773
  Name = 
  3 active torsions:
  status: ('A' for Active; 'I' for Inactive)
    1  A    between atoms: C_7  and  C_12
    2  A    between atoms: C_21  and  C_25
    3  A    between atoms: C_25  and  N_30
                            x       y       z     vdW  Elec       q    Type
                         _______ _______ _______ _____ _____    ______ ____

>  <TORSDO>
F 3

$$$$
=
 OpenBabel11062418533D

 33 38  0  0  1  0  0  0  0  0999 V2000
  186.9140  178.0540  145.4890 N   0  0  0  0  0  0  0  0  0  0  0  0
  187.8560  176.0530  143.7490 C   0  0  2  0  0  3  0  0  0  0  0  0
  190.2040  173.1900  141.3980 C   0  0  0  0  0  0  0  0  0  0  0  0
  191.2840  173.0600  140.4140 N   0  0  0  0  0  0  0  0  0  0  0  0
  190.2110  174.9680  144.8780 C   0  0  2  0  0  3  0  0  0  0  0  0
  188.1470  177.5340  143.4670 C   0  0  1  0  0  3  0  0  0  0  0  0
  188.8200  173.8450  139.4150 N   0  0  0  0  0  2  0  0  0  0  0  0
  188.3520  174.8260  141.5500 C   0  0  0  0  0  3  0  0  0  0  0  0
  187.8970  175.7630  145.2770 C   0  0  2  0  0  3  0  0  0  0  0  0
  188.7970  177.5270  146.9190 C   0  0  0  0  0  1  0  0  0  0  0  0
  187.9780  177.8850  142.0000 C   0  0  0  0  0  1  0  0  0  0  0  0
  189.7380  173.4140  138.6390 N   0  0  0  0  0  0  0  0  0  0  0  0
  189.8400  174.5990  143.4700 C   0  0  0  0  0  0  0  0  0  0  0  0
  191.0540  173.1050  139.1350 C   0  0  0  0  0  3  0  0  0  0  0  0
  187.5770  176.9760  146.1960 C   0  0  1  0  0  3  0  0  0  0  0  0
  189.0380  174.9600  145.7640 N   0  0  0  0  0  2  0  0  0  0  0  0
  189.0700  173.9860  140.8130 C   0  0  0  0  0  0  0  0  0  0  0  0
  188.7120  175.1040  142.9480 C   0  0  0  0  0  0  0  0  0  0  0  0
  187.1730  178.3480  144.2610 C   0  0  0  0  0  3  0  0  0  0  0  0
  190.6820  173.7170  142.6910 N   0  0  0  0  0  0  0  0  0  0  0  0
  191.5030  177.2540  144.9690 N   0  0  0  0  0  0  0  0  0  0  0  0
  190.9320  176.2490  144.9300 C   0  0  0  0  0  0  0  0  0  0  0  0
  191.9600  173.2840  143.2690 C   0  0  0  0  0  2  0  0  0  0  0  0
  194.1210  174.4980  143.8270 C   0  0  2  0  0  3  0  0  0  0  0  0
  194.3340  174.0220  145.2050 C   0  0  0  0  0  0  0  0  0  0  0  0
  194.7050  174.9220  146.1230 C   0  0  0  0  0  3  0  0  0  0  0  0
  194.8020  175.7440  143.3600 C   0  0  2  0  0  3  0  0  0  0  0  0
  193.0770  174.2610  143.0420 C   0  0  2  0  0  3  0  0  0  0  0  0
  194.8660  176.7520  144.4800 C   0  0  0  0  0  3  0  0  0  0  0  0
  193.9570  176.1980  142.2650 N   0  0  0  0  0  0  0  0  0  0  0  0
  193.0010  175.3470  142.0770 C   0  0  0  0  0  3  0  0  0  0  0  0
  194.1920  172.3340  145.6500 Cl  0  0  0  0  0  0  0  0  0  0  0  0
  194.8700  176.3540  145.7620 C   0  0  0  0  0  3  0  0  0  0  0  0
  1 15  1  0  0  0  0
  2 18  1  6  0  0  0
  2  9  1  0  0  0  0
  3 20  1  0  0  0  0
  4  3  2  0  0  0  0
  5 22  1  6  0  0  0
  5 16  1  0  0  0  0
  6 11  1  6  0  0  0
  6  2  1  0  0  0  0
  6 19  1  0  0  0  0
  7 17  1  0  0  0  0
  8 18  1  0  0  0  0
  9 16  1  1  0  0  0
  9 15  1  0  0  0  0
 12 14  2  0  0  0  0
 12  7  1  0  0  0  0
 13  5  1  0  0  0  0
 14  4  1  0  0  0  0
 15 10  1  6  0  0  0
 17  3  1  0  0  0  0
 17  8  2  0  0  0  0
 18 13  2  0  0  0  0
 19  1  2  0  0  0  0
 20 23  1  0  0  0  0
 20 13  1  0  0  0  0
 22 21  3  0  0  0  0
 24 25  1  1  0  0  0
 25 32  1  0  0  0  0
 25 26  2  0  0  0  0
 27 24  1  0  0  0  0
 27 29  1  1  0  0  0
 28 23  1  1  0  0  0
 28 24  1  0  0  0  0
 29 33  2  0  0  0  0
 30 27  1  0  0  0  0
 31 30  2  0  0  0  0
 31 28  1  0  0  0  0
 33 26  1  0  0  0  0
M  END
>  <MODEL>
6

>  <REMARK>
 VINA RESULT:      -7.4      2.282      6.189
  Name = 
  3 active torsions:
  status: ('A' for Active; 'I' for Inactive)
    1  A    between atoms: C_7  and  C_12
    2  A    between atoms: C_21  and  C_25
    3  A    between atoms: C_25  and  N_30
                            x       y       z     vdW  Elec       q    Type
                         _______ _______ _______ _____ _____    ______ ____

>  <TORSDO>
F 3

$$$$
=
 OpenBabel11062418533D

 33 38  0  0  1  0  0  0  0  0999 V2000
  186.4530  177.3150  145.0390 N   0  0  0  0  0  0  0  0  0  0  0  0
  189.2610  177.1490  144.9430 C   0  0  2  0  0  3  0  0  0  0  0  0
  193.4620  176.1560  144.1610 C   0  0  2  0  0  3  0  0  0  0  0  0
  194.4660  175.0890  144.2350 N   0  0  0  0  0  0  0  0  0  0  0  0
  189.9800  176.1740  142.3870 C   0  0  2  0  0  3  0  0  0  0  0  0
  188.4370  176.0440  145.6170 C   0  0  1  0  0  3  0  0  0  0  0  0
  193.8550  176.3490  146.6290 N   0  0  0  0  0  0  0  0  0  0  0  0
  191.6710  176.7950  145.7490 C   0  0  0  0  0  3  0  0  0  0  0  0
  188.5240  177.7020  143.6880 C   0  0  2  0  0  3  0  0  0  0  0  0
  186.4480  176.5000  142.7570 C   0  0  0  0  0  1  0  0  0  0  0  0
  189.0560  175.5780  146.9220 C   0  0  0  0  0  1  0  0  0  0  0  0
  194.9050  175.6310  146.5110 N   0  0  0  0  0  0  0  0  0  0  0  0
  191.0330  176.2720  143.4530 C   0  0  0  0  0  0  0  0  0  0  0  0
  195.1740  174.8890  145.3070 C   0  0  0  0  0  3  0  0  0  0  0  0
  186.9750  177.5640  143.7080 C   0  0  1  0  0  3  0  0  0  0  0  0
  189.1120  177.3610  142.3760 N   0  0  0  0  0  2  0  0  0  0  0  0
  192.9410  176.4670  145.5380 C   0  0  0  0  0  0  0  0  0  0  0  0
  190.6870  176.7520  144.6570 C   0  0  0  0  0  0  0  0  0  0  0  0
  187.0810  176.6060  145.9140 C   0  0  0  0  0  3  0  0  0  0  0  0
  192.3940  175.8560  143.1880 N   0  0  0  0  0  0  0  0  0  0  0  0
  188.5980  173.9480  142.5880 N   0  0  0  0  0  0  0  0  0  0  0  0
  189.2080  174.9280  142.5020 C   0  0  0  0  0  0  0  0  0  0  0  0
  192.6920  175.2330  141.8920 C   0  0  0  0  0  2  0  0  0  0  0  0
  192.2390  172.9710  140.8270 C   0  0  2  0  0  3  0  0  0  0  0  0
  191.9480  173.3930  139.4460 C   0  0  0  0  0  0  0  0  0  0  0  0
  190.9030  172.8270  138.8310 C   0  0  0  0  0  3  0  0  0  0  0  0
  191.7770  171.6340  141.3070 C   0  0  2  0  0  3  0  0  0  0  0  0
  192.4640  173.7490  141.8790 C   0  0  2  0  0  3  0  0  0  0  0  0
  190.4310  171.3050  140.7110 C   0  0  0  0  0  3  0  0  0  0  0  0
  191.7080  171.8010  142.7510 N   0  0  0  0  0  0  0  0  0  0  0  0
  192.1180  172.9860  143.0680 C   0  0  0  0  0  3  0  0  0  0  0  0
  192.9550  174.5320  138.5770 Cl  0  0  0  0  0  0  0  0  0  0  0  0
  190.0560  171.8280  139.5340 C   0  0  0  0  0  3  0  0  0  0  0  0
  1 19  2  0  0  0  0
  2 18  1  6  0  0  0
  2  6  1  0  0  0  0
  3  4  1  1  0  0  0
  3 17  1  0  0  0  0
  4 14  2  0  0  0  0
  5 22  1  1  0  0  0
  5 13  1  0  0  0  0
  6 19  1  0  0  0  0
  6 11  1  1  0  0  0
  9 16  1  6  0  0  0
  9 15  1  0  0  0  0
  9  2  1  0  0  0  0
 12  7  2  0  0  0  0
 13 18  2  0  0  0  0
 14 12  1  0  0  0  0
 15 10  1  6  0  0  0
 15  1  1  0  0  0  0
 16  5  1  0  0  0  0
 17  8  2  0  0  0  0
 17  7  1  0  0  0  0
 18  8  1  0  0  0  0
 20 13  1  0  0  0  0
 20  3  1  0  0  0  0
 22 21  3  0  0  0  0
 23 20  1  0  0  0  0
 24 25  1  6  0  0  0
 24 27  1  0  0  0  0
 24 28  1  0  0  0  0
 26 25  2  0  0  0  0
 26 33  1  0  0  0  0
 27 29  1  6  0  0  0
 27 30  1  0  0  0  0
 28 23  1  6  0  0  0
 28 31  1  0  0  0  0
 30 31  2  0  0  0  0
 32 25  1  0  0  0  0
 33 29  2  0  0  0  0
M  END
>  <MODEL>
7

>  <REMARK>
 VINA RESULT:      -7.3      2.616      7.209
  Name = 
  3 active torsions:
  status: ('A' for Active; 'I' for Inactive)
    1  A    between atoms: C_7  and  C_12
    2  A    between atoms: C_21  and  C_25
    3  A    between atoms: C_25  and  N_30
                            x       y       z     vdW  Elec       q    Type
                         _______ _______ _______ _____ _____    ______ ____

>  <TORSDO>
F 3

$$$$
=
 OpenBabel11062418533D

 33 38  0  0  1  0  0  0  0  0999 V2000
  195.6330  172.6720  144.3090 N   0  0  0  0  0  0  0  0  0  0  0  0
  193.5280  173.9300  145.6910 C   0  0  2  0  0  3  0  0  0  0  0  0
  189.9070  176.0700  146.9370 C   0  0  2  0  0  3  0  0  0  0  0  0
  189.1840  177.3420  146.8400 N   0  0  0  0  0  0  0  0  0  0  0  0
  191.2030  173.7240  144.0930 C   0  0  2  0  0  3  0  0  0  0  0  0
  194.5400  174.7590  144.8870 C   0  0  1  0  0  3  0  0  0  0  0  0
  191.3320  177.2980  148.5940 N   0  0  0  0  0  0  0  0  0  0  0  0
  192.3250  175.6080  147.2140 C   0  0  0  0  0  3  0  0  0  0  0  0
  193.2220  172.5830  144.9730 C   0  0  2  0  0  3  0  0  0  0  0  0
  194.0270  172.1730  142.5640 C   0  0  0  0  0  1  0  0  0  0  0  0
  194.9700  176.0140  145.6230 C   0  0  0  0  0  1  0  0  0  0  0  0
  190.4600  178.2290  148.6440 N   0  0  0  0  0  0  0  0  0  0  0  0
  191.1800  174.6130  145.3030 C   0  0  0  0  0  0  0  0  0  0  0  0
  189.4020  178.3190  147.6710 C   0  0  0  0  0  3  0  0  0  0  0  0
  194.3490  172.0490  144.0460 C   0  0  1  0  0  3  0  0  0  0  0  0
  191.8770  172.4470  144.3760 N   0  0  0  0  0  2  0  0  0  0  0  0
  191.2470  176.2890  147.5870 C   0  0  0  0  0  0  0  0  0  0  0  0
  192.2820  174.6920  146.0650 C   0  0  0  0  0  0  0  0  0  0  0  0
  195.7510  173.9060  144.6640 C   0  0  0  0  0  3  0  0  0  0  0  0
  189.9960  175.3730  145.6390 N   0  0  0  0  0  0  0  0  0  0  0  0
  192.2410  174.9490  142.0130 N   0  0  0  0  0  0  0  0  0  0  0  0
  191.7850  174.4070  142.9280 C   0  0  0  0  0  0  0  0  0  0  0  0
  188.8590  175.3380  144.7100 C   0  0  0  0  0  2  0  0  0  0  0  0
  187.6190  177.3820  143.8510 C   0  0  2  0  0  3  0  0  0  0  0  0
  186.2620  177.0850  144.3450 C   0  0  0  0  0  0  0  0  0  0  0  0
  185.2380  177.2900  143.5080 C   0  0  0  0  0  3  0  0  0  0  0  0
  187.8030  178.3570  142.7330 C   0  0  2  0  0  3  0  0  0  0  0  0
  188.6930  176.6070  143.9250 C   0  0  2  0  0  3  0  0  0  0  0  0
  186.6760  178.2280  141.7400 C   0  0  0  0  0  3  0  0  0  0  0  0
  189.0830  177.9700  142.1590 N   0  0  0  0  0  0  0  0  0  0  0  0
  189.5890  177.0000  142.8480 C   0  0  0  0  0  3  0  0  0  0  0  0
  185.9530  176.5560  145.9840 Cl  0  0  0  0  0  0  0  0  0  0  0  0
  185.4720  177.7760  142.1240 C   0  0  0  0  0  3  0  0  0  0  0  0
  1 19  2  0  0  0  0
  2 18  1  6  0  0  0
  3  4  1  6  0  0  0
  3 17  1  0  0  0  0
  4 14  2  0  0  0  0
  5 22  1  6  0  0  0
  5 16  1  0  0  0  0
  5 13  1  0  0  0  0
  6 11  1  1  0  0  0
  6  2  1  0  0  0  0
  7 12  2  0  0  0  0
  8 17  2  0  0  0  0
  9 16  1  6  0  0  0
  9  2  1  0  0  0  0
 13 20  1  0  0  0  0
 13 18  2  0  0  0  0
 14 12  1  0  0  0  0
 15 10  1  6  0  0  0
 15  1  1  0  0  0  0
 15  9  1  0  0  0  0
 17  7  1  0  0  0  0
 18  8  1  0  0  0  0
 19  6  1  0  0  0  0
 20  3  1  0  0  0  0
 21 22  3  0  0  0  0
 23 20  1  0  0  0  0
 24 28  1  0  0  0  0
 24 25  1  6  0  0  0
 25 32  1  0  0  0  0
 26 25  2  0  0  0  0
 27 29  1  6  0  0  0
 27 24  1  0  0  0  0
 28 23  1  6  0  0  0
 29 33  2  0  0  0  0
 30 27  1  0  0  0  0
 30 31  2  0  0  0  0
 31 28  1  0  0  0  0
 33 26  1  0  0  0  0
M  END
>  <MODEL>
8

>  <REMARK>
 VINA RESULT:      -7.3      2.300      4.510
  Name = 
  3 active torsions:
  status: ('A' for Active; 'I' for Inactive)
    1  A    between atoms: C_7  and  C_12
    2  A    between atoms: C_21  and  C_25
    3  A    between atoms: C_25  and  N_30
                            x       y       z     vdW  Elec       q    Type
                         _______ _______ _______ _____ _____    ______ ____

>  <TORSDO>
F 3

$$$$
=
 OpenBabel11062418533D

 33 38  0  0  1  0  0  0  0  0999 V2000
  187.5740  177.4510  146.1890 N   0  0  0  0  0  0  0  0  0  0  0  0
  188.5810  175.4150  144.5270 C   0  0  2  0  0  3  0  0  0  0  0  0
  190.9970  172.7320  142.0360 C   0  0  0  0  0  0  0  0  0  0  0  0
  191.8410  172.6580  140.8390 N   0  0  0  0  0  0  0  0  0  0  0  0
  191.3140  175.0560  145.1620 C   0  0  2  0  0  3  0  0  0  0  0  0
  188.4380  176.8500  144.0030 C   0  0  1  0  0  3  0  0  0  0  0  0
  189.1050  172.7280  140.3930 N   0  0  0  0  0  2  0  0  0  0  0  0
  188.8790  173.9500  142.4410 C   0  0  0  0  0  3  0  0  0  0  0  0
  189.0150  175.4120  146.0220 C   0  0  2  0  0  3  0  0  0  0  0  0
  189.7900  177.5850  147.1610 C   0  0  0  0  0  1  0  0  0  0  0  0
  187.8800  176.8950  142.5920 C   0  0  0  0  0  1  0  0  0  0  0  0
  189.9140  172.3670  139.4720 N   0  0  0  0  0  0  0  0  0  0  0  0
  190.7520  174.3760  143.9460 C   0  0  0  0  0  0  0  0  0  0  0  0
  191.3390  172.4290  139.6610 C   0  0  0  0  0  3  0  0  0  0  0  0
  188.6150  176.6740  146.8360 C   0  0  1  0  0  3  0  0  0  0  0  0
  190.3940  174.9610  146.3050 N   0  0  0  0  0  2  0  0  0  0  0  0
  189.6050  173.1610  141.6580 C   0  0  0  0  0  0  0  0  0  0  0  0
  189.4500  174.5380  143.6620 C   0  0  0  0  0  0  0  0  0  0  0  0
  187.4870  177.5720  144.9080 C   0  0  0  0  0  3  0  0  0  0  0  0
  191.5960  173.5650  143.0960 N   0  0  0  0  0  0  0  0  0  0  0  0
  192.0020  177.5400  144.6540 N   0  0  0  0  0  0  0  0  0  0  0  0
  191.6960  176.4470  144.8770 C   0  0  0  0  0  0  0  0  0  0  0  0
  193.0350  173.5140  143.3880 C   0  0  0  0  0  2  0  0  0  0  0  0
  194.3130  172.4310  145.2980 C   0  0  2  0  0  3  0  0  0  0  0  0
  195.3100  173.4830  145.5670 C   0  0  0  0  0  0  0  0  0  0  0  0
  196.5780  173.1010  145.7620 C   0  0  0  0  0  3  0  0  0  0  0  0
  194.5660  171.0340  145.7630 C   0  0  2  0  0  3  0  0  0  0  0  0
  193.4120  172.4030  144.3240 C   0  0  2  0  0  3  0  0  0  0  0  0
  196.0310  170.7010  145.6340 C   0  0  0  0  0  3  0  0  0  0  0  0
  193.7440  170.2300  144.8710 N   0  0  0  0  0  0  0  0  0  0  0  0
  193.0800  171.0080  144.0790 C   0  0  0  0  0  3  0  0  0  0  0  0
  194.8800  175.1740  145.7100 Cl  0  0  0  0  0  0  0  0  0  0  0  0
  196.9620  171.6670  145.6850 C   0  0  0  0  0  3  0  0  0  0  0  0
  1 15  1  0  0  0  0
  2 18  1  6  0  0  0
  2  9  1  0  0  0  0
  3 20  1  0  0  0  0
  4  3  2  0  0  0  0
  5 22  1  6  0  0  0
  5 16  1  0  0  0  0
  6 11  1  6  0  0  0
  6  2  1  0  0  0  0
  6 19  1  0  0  0  0
  7 17  1  0  0  0  0
  8 18  1  0  0  0  0
  9 16  1  6  0  0  0
  9 15  1  0  0  0  0
 12 14  2  0  0  0  0
 12  7  1  0  0  0  0
 13  5  1  0  0  0  0
 14  4  1  0  0  0  0
 15 10  1  6  0  0  0
 17  3  1  0  0  0  0
 17  8  2  0  0  0  0
 18 13  2  0  0  0  0
 19  1  2  0  0  0  0
 20 23  1  0  0  0  0
 20 13  1  0  0  0  0
 21 22  3  0  0  0  0
 24 25  1  6  0  0  0
 24 27  1  0  0  0  0
 25 32  1  0  0  0  0
 25 26  2  0  0  0  0
 27 29  1  6  0  0  0
 28 23  1  6  0  0  0
 28 24  1  0  0  0  0
 29 33  2  0  0  0  0
 30 27  1  0  0  0  0
 31 28  1  0  0  0  0
 31 30  2  0  0  0  0
 33 26  1  0  0  0  0
M  END
>  <MODEL>
9

>  <REMARK>
 VINA RESULT:      -7.3      2.567      7.088
  Name = 
  3 active torsions:
  status: ('A' for Active; 'I' for Inactive)
    1  A    between atoms: C_7  and  C_12
    2  A    between atoms: C_21  and  C_25
    3  A    between atoms: C_25  and  N_30
                            x       y       z     vdW  Elec       q    Type
                         _______ _______ _______ _____ _____    ______ ____

>  <TORSDO>
F 3

$$$$
