=
 OpenBabel11062421273D

 31 33  0  0  1  0  0  0  0  0999 V2000
  189.6930  174.6200  145.3780 C   0  0  0  0  0  2  0  0  0  0  0  0
  193.4910  173.9100  145.4550 C   0  0  2  0  0  3  0  0  0  0  0  0
  190.8610  176.7910  146.8370 O   0  0  0  0  0  0  0  0  0  0  0  0
  191.1570  174.7320  145.6900 C   0  0  0  0  0  0  0  0  0  0  0  0
  194.2000  173.2500  144.4500 O   0  0  0  0  0  1  0  0  0  0  0  0
  191.6610  175.9130  146.4210 C   0  0  0  0  0  0  0  0  0  0  0  0
  192.0150  173.8440  145.1780 C   0  0  0  0  0  3  0  0  0  0  0  0
  195.2950  175.2520  146.2220 O   0  0  0  0  0  1  0  0  0  0  0  0
  194.0160  175.3440  145.6730 C   0  0  2  0  0  0  0  0  0  0  0  0
  193.1310  176.0830  146.6880 C   0  0  0  0  0  2  0  0  0  0  0  0
  194.1340  176.1370  144.3630 C   0  0  0  0  0  2  0  0  0  0  0  0
  195.4650  176.3550  143.9960 O   0  0  0  0  0  0  0  0  0  0  0  0
  195.5790  175.8350  142.3870 P   0  0  0  0  0  0  0  0  0  0  0  0
  196.2150  177.0720  141.4240 O   0  0  0  0  0  0  0  0  0  0  0  0
  194.2000  175.4730  141.8860 O   0  0  0  0  0  1  0  0  0  0  0  0
  196.5800  174.4740  142.2920 O   0  0  0  0  0  1  0  0  0  0  0  0
  189.4270  174.4200  143.8890 C   0  0  0  0  0  2  0  0  0  0  0  0
  188.4890  175.4850  143.3300 C   0  0  0  0  0  2  0  0  0  0  0  0
  188.5820  176.7980  144.1090 C   0  0  1  0  0  3  0  0  0  0  0  0
  189.2880  178.0490  142.0660 O   0  0  0  0  0  0  0  0  0  0  0  0
  189.5010  177.7520  143.4050 C   0  0  0  0  0  0  0  0  0  0  0  0
  190.4660  178.2850  144.0160 O   0  0  0  0  0  1  0  0  0  0  0  0
  187.1830  177.4050  144.3020 C   0  0  1  0  0  3  0  0  0  0  0  0
  184.7240  177.9760  141.4520 O   0  0  0  0  0  0  0  0  0  0  0  0
  186.3710  177.2490  143.0930 N   0  0  0  0  0  2  0  0  0  0  0  0
  185.3660  179.3610  143.1580 O   0  0  0  0  0  1  0  0  0  0  0  0
  185.4760  178.2450  142.5860 C   0  0  0  0  0  0  0  0  0  0  0  0
  186.4580  176.8130  145.5110 C   0  0  2  0  0  3  0  0  0  0  0  0
  186.1770  177.5060  147.8550 C   0  0  0  0  0  2  0  0  0  0  0  0
  185.9500  177.9230  146.4150 C   0  0  1  0  0  3  0  0  0  0  0  0
  187.1980  177.1710  146.7870 C   0  0  2  0  0  3  0  0  0  0  0  0
  1  4  1  0  0  0  0
  2  5  1  6  0  0  0
  2  9  1  0  0  0  0
  4  6  1  0  0  0  0
  6 10  1  0  0  0  0
  6  3  2  0  0  0  0
  7  2  1  0  0  0  0
  7  4  2  0  0  0  0
  9  8  1  1  0  0  0
  9 10  1  0  0  0  0
 11  9  1  0  0  0  0
 12 11  1  0  0  0  0
 13 12  1  0  0  0  0
 14 13  2  0  0  0  0
 15 13  1  0  0  0  0
 16 13  1  0  0  0  0
 17  1  1  0  0  0  0
 18 17  1  0  0  0  0
 19 18  1  6  0  0  0
 19 23  1  0  0  0  0
 20 21  2  0  0  0  0
 21 22  1  0  0  0  0
 21 19  1  0  0  0  0
 23 25  1  6  0  0  0
 24 27  2  0  0  0  0
 27 25  1  0  0  0  0
 27 26  1  0  0  0  0
 28 23  1  6  0  0  0
 28 30  1  0  0  0  0
 28 31  1  0  0  0  0
 30 31  1  0  0  0  0
 30 29  1  1  0  0  0
 31 29  1  1  0  0  0
M  END
>  <MODEL>
1

>  <REMARK>
 VINA RESULT:      -6.2      0.000      0.000
  Name = 
  11 active torsions:
  status: ('A' for Active; 'I' for Inactive)
    1  A    between atoms: P_2  and  O_28
    2  A    between atoms: N_3  and  C_27
    3  A    between atoms: C_6  and  C_26
    4  A    between atoms: C_11  and  C_13
    5  A    between atoms: C_11  and  C_25
    6  A    between atoms: C_11  and  C_27
    7  A    between atoms: C_13  and  C_15
    8  A    between atoms: C_15  and  C_26
    9  A    between atoms: C_18  and  C_27
   10  A    between atoms: C_23  and  C_24
   11  A    between atoms: C_23  and  O_28
                            x       y       z     vdW  Elec       q    Type
                         _______ _______ _______ _____ _____    ______ ____

>  <TORSDO>
F 11

$$$$
=
 OpenBabel11062421273D

 31 33  0  0  1  0  0  0  0  0999 V2000
  191.1760  175.6120  146.6270 C   0  0  0  0  0  2  0  0  0  0  0  0
  193.9310  173.2460  145.3050 C   0  0  2  0  0  3  0  0  0  0  0  0
  193.6460  177.0150  146.9910 O   0  0  0  0  0  0  0  0  0  0  0  0
  192.5230  175.0440  146.2860 C   0  0  0  0  0  0  0  0  0  0  0  0
  193.7650  172.3320  144.2630 O   0  0  0  0  0  1  0  0  0  0  0  0
  193.7350  175.8670  146.4820 C   0  0  0  0  0  0  0  0  0  0  0  0
  192.6090  173.8600  145.6710 C   0  0  0  0  0  3  0  0  0  0  0  0
  196.2530  173.6200  144.9700 O   0  0  0  0  0  1  0  0  0  0  0  0
  195.0260  174.2830  144.9820 C   0  0  2  0  0  0  0  0  0  0  0  0
  195.0890  175.3480  146.0870 C   0  0  0  0  0  2  0  0  0  0  0  0
  194.8410  174.9300  143.6010 C   0  0  0  0  0  2  0  0  0  0  0  0
  195.8470  174.5590  142.7040 O   0  0  0  0  0  0  0  0  0  0  0  0
  196.4600  176.0150  142.0890 P   0  0  0  0  0  0  0  0  0  0  0  0
  195.2730  176.7990  141.1730 O   0  0  0  0  0  0  0  0  0  0  0  0
  197.6510  175.7160  141.2080 O   0  0  0  0  0  1  0  0  0  0  0  0
  196.9480  177.0180  143.3600 O   0  0  0  0  0  1  0  0  0  0  0  0
  190.0310  174.7680  146.0740 C   0  0  0  0  0  2  0  0  0  0  0  0
  189.4790  175.3410  144.7720 C   0  0  0  0  0  2  0  0  0  0  0  0
  189.4830  176.8700  144.7710 C   0  0  1  0  0  3  0  0  0  0  0  0
  190.9880  176.5230  142.8080 O   0  0  0  0  0  0  0  0  0  0  0  0
  190.4770  177.3830  143.7710 C   0  0  0  0  0  0  0  0  0  0  0  0
  190.8550  178.5850  143.7980 O   0  0  0  0  0  1  0  0  0  0  0  0
  188.0710  177.4080  144.4850 C   0  0  1  0  0  3  0  0  0  0  0  0
  186.4110  177.4120  141.0590 O   0  0  0  0  0  0  0  0  0  0  0  0
  187.6360  177.0490  143.1330 N   0  0  0  0  0  2  0  0  0  0  0  0
  186.4030  178.9930  142.7130 O   0  0  0  0  0  1  0  0  0  0  0  0
  186.7950  177.8660  142.3110 C   0  0  0  0  0  0  0  0  0  0  0  0
  187.0500  176.9280  145.5180 C   0  0  2  0  0  3  0  0  0  0  0  0
  186.1880  177.8400  147.6340 C   0  0  0  0  0  2  0  0  0  0  0  0
  186.3450  178.1150  146.1510 C   0  0  1  0  0  3  0  0  0  0  0  0
  187.4440  177.4130  146.9010 C   0  0  2  0  0  3  0  0  0  0  0  0
  2  5  1  6  0  0  0
  2  7  1  0  0  0  0
  4  6  1  0  0  0  0
  4  1  1  0  0  0  0
  6  3  2  0  0  0  0
  7  4  2  0  0  0  0
  9  8  1  6  0  0  0
  9  2  1  0  0  0  0
  9 10  1  0  0  0  0
 10  6  1  0  0  0  0
 11  9  1  0  0  0  0
 12 11  1  0  0  0  0
 13 12  1  0  0  0  0
 13 16  1  0  0  0  0
 14 13  2  0  0  0  0
 15 13  1  0  0  0  0
 17  1  1  0  0  0  0
 18 17  1  0  0  0  0
 19 18  1  6  0  0  0
 20 21  2  0  0  0  0
 21 22  1  0  0  0  0
 21 19  1  0  0  0  0
 23 25  1  6  0  0  0
 23 19  1  0  0  0  0
 24 27  2  0  0  0  0
 27 26  1  0  0  0  0
 27 25  1  0  0  0  0
 28 23  1  6  0  0  0
 28 30  1  0  0  0  0
 28 31  1  0  0  0  0
 30 31  1  0  0  0  0
 30 29  1  1  0  0  0
 31 29  1  1  0  0  0
M  END
>  <MODEL>
2

>  <REMARK>
 VINA RESULT:      -6.1      1.315      1.710
  Name = 
  11 active torsions:
  status: ('A' for Active; 'I' for Inactive)
    1  A    between atoms: P_2  and  O_28
    2  A    between atoms: N_3  and  C_27
    3  A    between atoms: C_6  and  C_26
    4  A    between atoms: C_11  and  C_13
    5  A    between atoms: C_11  and  C_25
    6  A    between atoms: C_11  and  C_27
    7  A    between atoms: C_13  and  C_15
    8  A    between atoms: C_15  and  C_26
    9  A    between atoms: C_18  and  C_27
   10  A    between atoms: C_23  and  C_24
   11  A    between atoms: C_23  and  O_28
                            x       y       z     vdW  Elec       q    Type
                         _______ _______ _______ _____ _____    ______ ____

>  <TORSDO>
F 11

$$$$
=
 OpenBabel11062421273D

 31 33  0  0  1  0  0  0  0  0999 V2000
  190.4640  174.2430  146.1620 C   0  0  0  0  0  2  0  0  0  0  0  0
  193.4920  176.6300  145.9000 C   0  0  2  0  0  3  0  0  0  0  0  0
  191.7530  173.5970  143.6860 O   0  0  0  0  0  0  0  0  0  0  0  0
  191.6720  174.9590  145.6310 C   0  0  0  0  0  0  0  0  0  0  0  0
  194.2180  177.1210  146.9860 O   0  0  0  0  0  1  0  0  0  0  0  0
  192.2810  174.5230  144.3570 C   0  0  0  0  0  0  0  0  0  0  0  0
  192.2790  175.8850  146.3810 C   0  0  0  0  0  3  0  0  0  0  0  0
  195.2770  176.6910  144.3330 O   0  0  0  0  0  1  0  0  0  0  0  0
  194.3830  175.8110  144.9440 C   0  0  2  0  0  0  0  0  0  0  0  0
  193.5280  175.1780  143.8360 C   0  0  0  0  0  2  0  0  0  0  0  0
  195.2150  174.7470  145.6760 C   0  0  0  0  0  2  0  0  0  0  0  0
  196.0770  174.0650  144.8120 O   0  0  0  0  0  0  0  0  0  0  0  0
  195.8790  172.4230  145.1830 P   0  0  0  0  0  0  0  0  0  0  0  0
  194.3340  172.1570  145.8190 O   0  0  0  0  0  1  0  0  0  0  0  0
  196.9150  172.0200  146.2070 O   0  0  0  0  0  1  0  0  0  0  0  0
  196.0850  171.4880  143.7880 O   0  0  0  0  0  0  0  0  0  0  0  0
  189.2560  175.1640  146.3050 C   0  0  0  0  0  2  0  0  0  0  0  0
  188.7800  175.6920  144.9550 C   0  0  0  0  0  2  0  0  0  0  0  0
  188.8910  177.2150  144.8630 C   0  0  1  0  0  3  0  0  0  0  0  0
  190.1640  176.8120  142.7520 O   0  0  0  0  0  0  0  0  0  0  0  0
  189.9570  177.5960  143.8780 C   0  0  0  0  0  0  0  0  0  0  0  0
  190.6680  178.6200  144.0660 O   0  0  0  0  0  1  0  0  0  0  0  0
  187.5330  177.8280  144.4850 C   0  0  1  0  0  3  0  0  0  0  0  0
  185.9780  177.7570  141.0110 O   0  0  0  0  0  0  0  0  0  0  0  0
  187.1420  177.4420  143.1280 N   0  0  0  0  0  2  0  0  0  0  0  0
  185.9070  179.3680  142.6350 O   0  0  0  0  0  1  0  0  0  0  0  0
  186.3200  178.2370  142.2660 C   0  0  0  0  0  0  0  0  0  0  0  0
  186.4340  177.4560  145.4820 C   0  0  2  0  0  3  0  0  0  0  0  0
  185.5330  178.5050  147.5170 C   0  0  0  0  0  2  0  0  0  0  0  0
  185.7790  178.7100  146.0350 C   0  0  1  0  0  3  0  0  0  0  0  0
  186.7920  177.9700  146.8640 C   0  0  2  0  0  3  0  0  0  0  0  0
  1 17  1  0  0  0  0
  2  7  1  0  0  0  0
  2  5  1  1  0  0  0
  3  6  2  0  0  0  0
  4  1  1  0  0  0  0
  4  7  2  0  0  0  0
  6  4  1  0  0  0  0
  9  8  1  6  0  0  0
  9 11  1  0  0  0  0
  9  2  1  0  0  0  0
 10  6  1  0  0  0  0
 10  9  1  0  0  0  0
 12 13  1  0  0  0  0
 12 11  1  0  0  0  0
 13 14  1  0  0  0  0
 13 15  1  0  0  0  0
 16 13  2  0  0  0  0
 18 17  1  0  0  0  0
 19 18  1  6  0  0  0
 20 21  2  0  0  0  0
 21 22  1  0  0  0  0
 21 19  1  0  0  0  0
 23 25  1  6  0  0  0
 23 19  1  0  0  0  0
 24 27  2  0  0  0  0
 27 26  1  0  0  0  0
 27 25  1  0  0  0  0
 28 23  1  6  0  0  0
 28 30  1  0  0  0  0
 28 31  1  0  0  0  0
 30 31  1  0  0  0  0
 30 29  1  1  0  0  0
 31 29  1  1  0  0  0
M  END
>  <MODEL>
3

>  <REMARK>
 VINA RESULT:      -6.0      1.697      2.710
  Name = 
  11 active torsions:
  status: ('A' for Active; 'I' for Inactive)
    1  A    between atoms: P_2  and  O_28
    2  A    between atoms: N_3  and  C_27
    3  A    between atoms: C_6  and  C_26
    4  A    between atoms: C_11  and  C_13
    5  A    between atoms: C_11  and  C_25
    6  A    between atoms: C_11  and  C_27
    7  A    between atoms: C_13  and  C_15
    8  A    between atoms: C_15  and  C_26
    9  A    between atoms: C_18  and  C_27
   10  A    between atoms: C_23  and  C_24
   11  A    between atoms: C_23  and  O_28
                            x       y       z     vdW  Elec       q    Type
                         _______ _______ _______ _____ _____    ______ ____

>  <TORSDO>
F 11

$$$$
=
 OpenBabel11062421273D

 31 33  0  0  1  0  0  0  0  0999 V2000
  191.5930  176.3760  146.2830 C   0  0  0  0  0  2  0  0  0  0  0  0
  193.6960  173.2110  145.5810 C   0  0  2  0  0  3  0  0  0  0  0  0
  194.3280  177.1850  146.5470 O   0  0  0  0  0  0  0  0  0  0  0  0
  192.7630  175.4470  146.1350 C   0  0  0  0  0  0  0  0  0  0  0  0
  193.3270  172.1840  144.7110 O   0  0  0  0  0  1  0  0  0  0  0  0
  194.1370  175.9740  146.2570 C   0  0  0  0  0  0  0  0  0  0  0  0
  192.5620  174.1830  145.7470 C   0  0  0  0  0  3  0  0  0  0  0  0
  196.0440  172.9430  145.3340 O   0  0  0  0  0  1  0  0  0  0  0  0
  195.0210  173.8720  145.1490 C   0  0  2  0  0  0  0  0  0  0  0  0
  195.3270  175.0800  146.0490 C   0  0  0  0  0  2  0  0  0  0  0  0
  195.0260  174.2730  143.6670 C   0  0  0  0  0  2  0  0  0  0  0  0
  196.3190  174.3070  143.1340 O   0  0  0  0  0  0  0  0  0  0  0  0
  196.4360  175.7960  142.3330 P   0  0  0  0  0  0  0  0  0  0  0  0
  196.9160  177.0000  143.4210 O   0  0  0  0  0  1  0  0  0  0  0  0
  195.0860  176.1550  141.7570 O   0  0  0  0  0  1  0  0  0  0  0  0
  197.5640  175.6870  141.0760 O   0  0  0  0  0  0  0  0  0  0  0  0
  191.0820  176.8880  144.9390 C   0  0  0  0  0  2  0  0  0  0  0  0
  189.7890  177.6830  145.0880 C   0  0  0  0  0  2  0  0  0  0  0  0
  188.5810  176.7760  145.3270 C   0  0  1  0  0  3  0  0  0  0  0  0
  186.7970  176.4310  147.0400 O   0  0  0  0  0  0  0  0  0  0  0  0
  187.9660  177.0760  146.6620 C   0  0  0  0  0  0  0  0  0  0  0  0
  188.4990  177.9100  147.4420 O   0  0  0  0  0  1  0  0  0  0  0  0
  187.5590  176.9350  144.1890 C   0  0  1  0  0  3  0  0  0  0  0  0
  185.4160  180.0810  144.1000 O   0  0  0  0  0  0  0  0  0  0  0  0
  187.1030  178.3230  144.0840 N   0  0  0  0  0  2  0  0  0  0  0  0
  184.8500  177.9130  144.5650 O   0  0  0  0  0  1  0  0  0  0  0  0
  185.7460  178.7430  144.2620 C   0  0  0  0  0  0  0  0  0  0  0  0
  188.1090  176.4520  142.8470 C   0  0  2  0  0  3  0  0  0  0  0  0
  188.1520  174.2810  141.6890 C   0  0  0  0  0  2  0  0  0  0  0  0
  187.2430  175.3310  142.2970 C   0  0  1  0  0  3  0  0  0  0  0  0
  188.5530  175.0050  142.9590 C   0  0  2  0  0  3  0  0  0  0  0  0
  2  5  1  6  0  0  0
  2  7  1  0  0  0  0
  4  6  1  0  0  0  0
  4  1  1  0  0  0  0
  6  3  2  0  0  0  0
  7  4  2  0  0  0  0
  9  8  1  1  0  0  0
  9  2  1  0  0  0  0
  9 10  1  0  0  0  0
 10  6  1  0  0  0  0
 11  9  1  0  0  0  0
 12 11  1  0  0  0  0
 13 12  1  0  0  0  0
 13 14  1  0  0  0  0
 15 13  1  0  0  0  0
 16 13  2  0  0  0  0
 17 18  1  0  0  0  0
 17  1  1  0  0  0  0
 19 18  1  6  0  0  0
 19 21  1  0  0  0  0
 21 20  2  0  0  0  0
 21 22  1  0  0  0  0
 23 25  1  6  0  0  0
 23 19  1  0  0  0  0
 24 27  2  0  0  0  0
 25 27  1  0  0  0  0
 27 26  1  0  0  0  0
 28 31  1  0  0  0  0
 28 23  1  1  0  0  0
 30 29  1  6  0  0  0
 30 28  1  0  0  0  0
 30 31  1  0  0  0  0
 31 29  1  6  0  0  0
M  END
>  <MODEL>
4

>  <REMARK>
 VINA RESULT:      -6.0      1.906      3.030
  Name = 
  11 active torsions:
  status: ('A' for Active; 'I' for Inactive)
    1  A    between atoms: P_2  and  O_28
    2  A    between atoms: N_3  and  C_27
    3  A    between atoms: C_6  and  C_26
    4  A    between atoms: C_11  and  C_13
    5  A    between atoms: C_11  and  C_25
    6  A    between atoms: C_11  and  C_27
    7  A    between atoms: C_13  and  C_15
    8  A    between atoms: C_15  and  C_26
    9  A    between atoms: C_18  and  C_27
   10  A    between atoms: C_23  and  C_24
   11  A    between atoms: C_23  and  O_28
                            x       y       z     vdW  Elec       q    Type
                         _______ _______ _______ _____ _____    ______ ____

>  <TORSDO>
F 11

$$$$
=
 OpenBabel11062421273D

 31 33  0  0  1  0  0  0  0  0999 V2000
  188.5080  173.3690  142.5140 C   0  0  0  0  0  2  0  0  0  0  0  0
  192.2970  173.9680  142.0440 C   0  0  2  0  0  3  0  0  0  0  0  0
  189.7710  172.2000  144.8040 O   0  0  0  0  0  0  0  0  0  0  0  0
  189.9930  173.3320  142.7280 C   0  0  0  0  0  0  0  0  0  0  0  0
  192.8570  175.0690  141.3930 O   0  0  0  0  0  1  0  0  0  0  0  0
  190.5410  172.7340  143.9630 C   0  0  0  0  0  0  0  0  0  0  0  0
  190.8030  173.9700  141.8770 C   0  0  0  0  0  3  0  0  0  0  0  0
  194.1150  173.5750  143.5220 O   0  0  0  0  0  1  0  0  0  0  0  0
  192.7550  173.8840  143.5140 C   0  0  2  0  0  0  0  0  0  0  0  0
  192.0190  172.7430  144.2330 C   0  0  0  0  0  2  0  0  0  0  0  0
  192.5810  175.2130  144.2650 C   0  0  0  0  0  2  0  0  0  0  0  0
  193.7170  176.0230  144.1760 O   0  0  0  0  0  0  0  0  0  0  0  0
  194.1100  176.4250  145.7740 P   0  0  0  0  0  0  0  0  0  0  0  0
  194.8810  177.9310  145.8170 O   0  0  0  0  0  0  0  0  0  0  0  0
  195.0390  175.3740  146.3350 O   0  0  0  0  0  1  0  0  0  0  0  0
  192.7050  176.4830  146.7160 O   0  0  0  0  0  1  0  0  0  0  0  0
  188.0710  174.5570  141.6620 C   0  0  0  0  0  2  0  0  0  0  0  0
  187.3120  175.5960  142.4810 C   0  0  0  0  0  2  0  0  0  0  0  0
  188.2460  176.4290  143.3600 C   0  0  1  0  0  3  0  0  0  0  0  0
  188.2120  178.2620  141.6630 O   0  0  0  0  0  0  0  0  0  0  0  0
  188.9460  177.4660  142.5310 C   0  0  0  0  0  0  0  0  0  0  0  0
  190.1950  177.6190  142.6130 O   0  0  0  0  0  1  0  0  0  0  0  0
  187.4620  177.0710  144.5160 C   0  0  1  0  0  3  0  0  0  0  0  0
  184.0220  178.5780  143.8900 O   0  0  0  0  0  0  0  0  0  0  0  0
  186.0560  177.2630  144.1550 N   0  0  0  0  0  2  0  0  0  0  0  0
  185.9720  179.5640  144.5710 O   0  0  0  0  0  1  0  0  0  0  0  0
  185.3680  178.5170  144.2200 C   0  0  0  0  0  0  0  0  0  0  0  0
  187.5740  176.2620  145.8090 C   0  0  2  0  0  3  0  0  0  0  0  0
  189.4520  175.5200  147.2140 C   0  0  0  0  0  2  0  0  0  0  0  0
  188.7650  176.7360  146.6240 C   0  0  1  0  0  3  0  0  0  0  0  0
  188.8700  175.4720  145.8160 C   0  0  2  0  0  3  0  0  0  0  0  0
  1  4  1  0  0  0  0
  2  5  1  1  0  0  0
  2  9  1  0  0  0  0
  4  6  1  0  0  0  0
  6 10  1  0  0  0  0
  6  3  2  0  0  0  0
  7  2  1  0  0  0  0
  7  4  2  0  0  0  0
  9  8  1  1  0  0  0
  9 10  1  0  0  0  0
  9 11  1  0  0  0  0
 12 11  1  0  0  0  0
 12 13  1  0  0  0  0
 13 14  2  0  0  0  0
 13 15  1  0  0  0  0
 13 16  1  0  0  0  0
 17 18  1  0  0  0  0
 17  1  1  0  0  0  0
 19 18  1  6  0  0  0
 19 23  1  0  0  0  0
 20 21  2  0  0  0  0
 21 22  1  0  0  0  0
 21 19  1  0  0  0  0
 23 25  1  6  0  0  0
 24 27  2  0  0  0  0
 25 27  1  0  0  0  0
 27 26  1  0  0  0  0
 28 23  1  6  0  0  0
 28 31  1  0  0  0  0
 28 30  1  0  0  0  0
 30 29  1  1  0  0  0
 31 30  1  0  0  0  0
 31 29  1  1  0  0  0
M  END
>  <MODEL>
5

>  <REMARK>
 VINA RESULT:      -5.9      1.958      3.150
  Name = 
  11 active torsions:
  status: ('A' for Active; 'I' for Inactive)
    1  A    between atoms: P_2  and  O_28
    2  A    between atoms: N_3  and  C_27
    3  A    between atoms: C_6  and  C_26
    4  A    between atoms: C_11  and  C_13
    5  A    between atoms: C_11  and  C_25
    6  A    between atoms: C_11  and  C_27
    7  A    between atoms: C_13  and  C_15
    8  A    between atoms: C_15  and  C_26
    9  A    between atoms: C_18  and  C_27
   10  A    between atoms: C_23  and  C_24
   11  A    between atoms: C_23  and  O_28
                            x       y       z     vdW  Elec       q    Type
                         _______ _______ _______ _____ _____    ______ ____

>  <TORSDO>
F 11

$$$$
=
 OpenBabel11062421273D

 31 33  0  0  1  0  0  0  0  0999 V2000
  190.8000  176.6330  146.9000 C   0  0  0  0  0  2  0  0  0  0  0  0
  192.8930  174.0630  144.9120 C   0  0  2  0  0  3  0  0  0  0  0  0
  191.3660  177.8730  144.3810 O   0  0  0  0  0  0  0  0  0  0  0  0
  191.6310  176.0030  145.8210 C   0  0  0  0  0  0  0  0  0  0  0  0
  192.7710  172.6770  145.0240 O   0  0  0  0  0  1  0  0  0  0  0  0
  191.8350  176.7160  144.5430 C   0  0  0  0  0  0  0  0  0  0  0  0
  192.0590  174.7440  145.9610 C   0  0  0  0  0  3  0  0  0  0  0  0
  193.6230  174.0880  142.6510 O   0  0  0  0  0  1  0  0  0  0  0  0
  192.5960  174.5450  143.4770 C   0  0  2  0  0  0  0  0  0  0  0  0
  192.6080  176.0800  143.4220 C   0  0  0  0  0  2  0  0  0  0  0  0
  191.2770  173.9830  142.9250 C   0  0  0  0  0  2  0  0  0  0  0  0
  191.4840  172.8920  142.0740 O   0  0  0  0  0  0  0  0  0  0  0  0
  190.0830  171.9480  142.2070 P   0  0  0  0  0  0  0  0  0  0  0  0
  190.4800  170.3070  142.0940 O   0  0  0  0  0  1  0  0  0  0  0  0
  189.1360  172.3090  141.0860 O   0  0  0  0  0  0  0  0  0  0  0  0
  189.3250  172.2450  143.6910 O   0  0  0  0  0  1  0  0  0  0  0  0
  189.3440  176.1750  146.8570 C   0  0  0  0  0  2  0  0  0  0  0  0
  188.4050  177.3010  146.4360 C   0  0  0  0  0  2  0  0  0  0  0  0
  187.0800  176.7690  145.8900 C   0  0  1  0  0  3  0  0  0  0  0  0
  186.2680  177.5880  148.1050 O   0  0  0  0  0  1  0  0  0  0  0  0
  185.9710  177.0490  146.8620 C   0  0  0  0  0  0  0  0  0  0  0  0
  184.7740  176.7970  146.5600 O   0  0  0  0  0  0  0  0  0  0  0  0
  186.7860  177.3820  144.5110 C   0  0  1  0  0  3  0  0  0  0  0  0
  185.1720  180.8200  144.2570 O   0  0  0  0  0  1  0  0  0  0  0  0
  186.5060  178.8150  144.6210 N   0  0  0  0  0  2  0  0  0  0  0  0
  184.4020  178.7680  143.5990 O   0  0  0  0  0  0  0  0  0  0  0  0
  185.3170  179.4460  144.1350 C   0  0  0  0  0  0  0  0  0  0  0  0
  187.9200  177.1360  143.5160 C   0  0  2  0  0  3  0  0  0  0  0  0
  188.2280  175.6230  141.5990 C   0  0  0  0  0  2  0  0  0  0  0  0
  187.3560  176.7280  142.1650 C   0  0  1  0  0  3  0  0  0  0  0  0
  187.9250  175.6810  143.0830 C   0  0  2  0  0  3  0  0  0  0  0  0
  2  5  1  6  0  0  0
  2  7  1  0  0  0  0
  3  6  2  0  0  0  0
  4  7  2  0  0  0  0
  4  1  1  0  0  0  0
  6  4  1  0  0  0  0
  9  8  1  6  0  0  0
  9  2  1  0  0  0  0
 10  9  1  0  0  0  0
 10  6  1  0  0  0  0
 11  9  1  0  0  0  0
 12 13  1  0  0  0  0
 12 11  1  0  0  0  0
 13 16  1  0  0  0  0
 14 13  1  0  0  0  0
 15 13  2  0  0  0  0
 17  1  1  0  0  0  0
 18 17  1  0  0  0  0
 19 18  1  1  0  0  0
 19 21  1  0  0  0  0
 21 20  1  0  0  0  0
 22 21  2  0  0  0  0
 23 25  1  1  0  0  0
 23 19  1  0  0  0  0
 26 27  2  0  0  0  0
 27 24  1  0  0  0  0
 27 25  1  0  0  0  0
 28 23  1  1  0  0  0
 30 29  1  6  0  0  0
 30 31  1  0  0  0  0
 30 28  1  0  0  0  0
 31 29  1  6  0  0  0
 31 28  1  0  0  0  0
M  END
>  <MODEL>
6

>  <REMARK>
 VINA RESULT:      -5.8      2.803      4.354
  Name = 
  11 active torsions:
  status: ('A' for Active; 'I' for Inactive)
    1  A    between atoms: P_2  and  O_28
    2  A    between atoms: N_3  and  C_27
    3  A    between atoms: C_6  and  C_26
    4  A    between atoms: C_11  and  C_13
    5  A    between atoms: C_11  and  C_25
    6  A    between atoms: C_11  and  C_27
    7  A    between atoms: C_13  and  C_15
    8  A    between atoms: C_15  and  C_26
    9  A    between atoms: C_18  and  C_27
   10  A    between atoms: C_23  and  C_24
   11  A    between atoms: C_23  and  O_28
                            x       y       z     vdW  Elec       q    Type
                         _______ _______ _______ _____ _____    ______ ____

>  <TORSDO>
F 11

$$$$
=
 OpenBabel11062421273D

 31 33  0  0  1  0  0  0  0  0999 V2000
  188.4470  174.0280  142.9020 C   0  0  0  0  0  2  0  0  0  0  0  0
  192.1770  173.9870  141.8920 C   0  0  2  0  0  3  0  0  0  0  0  0
  189.8410  172.8740  145.1220 O   0  0  0  0  0  0  0  0  0  0  0  0
  189.9260  173.7790  142.9270 C   0  0  0  0  0  0  0  0  0  0  0  0
  192.7900  174.9290  141.0630 O   0  0  0  0  0  1  0  0  0  0  0  0
  190.5520  173.2080  144.1380 C   0  0  0  0  0  0  0  0  0  0  0  0
  190.6900  174.2080  141.9170 C   0  0  0  0  0  3  0  0  0  0  0  0
  194.1110  173.4430  143.1590 O   0  0  0  0  0  1  0  0  0  0  0  0
  192.8220  173.9580  143.2920 C   0  0  2  0  0  0  0  0  0  0  0  0
  192.0400  173.0100  144.2150 C   0  0  0  0  0  2  0  0  0  0  0  0
  192.9480  175.3560  143.9160 C   0  0  0  0  0  2  0  0  0  0  0  0
  193.0870  175.3020  145.3070 O   0  0  0  0  0  0  0  0  0  0  0  0
  194.5800  176.0320  145.6370 P   0  0  0  0  0  0  0  0  0  0  0  0
  194.3820  177.2600  146.7840 O   0  0  0  0  0  1  0  0  0  0  0  0
  195.1330  176.6270  144.3620 O   0  0  0  0  0  0  0  0  0  0  0  0
  195.6680  174.8780  146.2270 O   0  0  0  0  0  1  0  0  0  0  0  0
  188.0810  175.2860  142.1190 C   0  0  0  0  0  2  0  0  0  0  0  0
  186.9310  176.0470  142.7710 C   0  0  0  0  0  2  0  0  0  0  0  0
  187.3550  177.4420  143.2320 C   0  0  1  0  0  3  0  0  0  0  0  0
  186.1190  178.2900  141.2340 O   0  0  0  0  0  0  0  0  0  0  0  0
  186.5240  178.4880  142.5460 C   0  0  0  0  0  0  0  0  0  0  0  0
  186.1940  179.5440  143.1490 O   0  0  0  0  0  1  0  0  0  0  0  0
  187.2470  177.5550  144.7620 C   0  0  1  0  0  3  0  0  0  0  0  0
  183.9010  177.8450  146.5540 O   0  0  0  0  0  0  0  0  0  0  0  0
  185.8690  177.3430  145.2090 N   0  0  0  0  0  2  0  0  0  0  0  0
  185.7680  179.1620  146.6770 O   0  0  0  0  0  1  0  0  0  0  0  0
  185.1970  178.1600  146.1730 C   0  0  0  0  0  0  0  0  0  0  0  0
  188.1940  176.5930  145.4800 C   0  0  2  0  0  3  0  0  0  0  0  0
  190.4390  176.8070  146.4660 C   0  0  0  0  0  2  0  0  0  0  0  0
  189.0200  177.3410  146.5130 C   0  0  1  0  0  3  0  0  0  0  0  0
  189.6350  176.9720  145.1910 C   0  0  2  0  0  3  0  0  0  0  0  0
  1  4  1  0  0  0  0
  2  5  1  6  0  0  0
  2  7  1  0  0  0  0
  2  9  1  0  0  0  0
  4  6  1  0  0  0  0
  6 10  1  0  0  0  0
  6  3  2  0  0  0  0
  7  4  2  0  0  0  0
  9  8  1  6  0  0  0
  9 11  1  0  0  0  0
  9 10  1  0  0  0  0
 11 12  1  0  0  0  0
 12 13  1  0  0  0  0
 13 16  1  0  0  0  0
 13 14  1  0  0  0  0
 15 13  2  0  0  0  0
 17 18  1  0  0  0  0
 17  1  1  0  0  0  0
 19 18  1  6  0  0  0
 19 23  1  0  0  0  0
 20 21  2  0  0  0  0
 21 22  1  0  0  0  0
 21 19  1  0  0  0  0
 23 25  1  1  0  0  0
 25 27  1  0  0  0  0
 27 24  2  0  0  0  0
 27 26  1  0  0  0  0
 28 23  1  6  0  0  0
 28 30  1  0  0  0  0
 30 29  1  1  0  0  0
 31 28  1  0  0  0  0
 31 29  1  1  0  0  0
 31 30  1  0  0  0  0
M  END
>  <MODEL>
7

>  <REMARK>
 VINA RESULT:      -5.8      2.066      3.434
  Name = 
  11 active torsions:
  status: ('A' for Active; 'I' for Inactive)
    1  A    between atoms: P_2  and  O_28
    2  A    between atoms: N_3  and  C_27
    3  A    between atoms: C_6  and  C_26
    4  A    between atoms: C_11  and  C_13
    5  A    between atoms: C_11  and  C_25
    6  A    between atoms: C_11  and  C_27
    7  A    between atoms: C_13  and  C_15
    8  A    between atoms: C_15  and  C_26
    9  A    between atoms: C_18  and  C_27
   10  A    between atoms: C_23  and  C_24
   11  A    between atoms: C_23  and  O_28
                            x       y       z     vdW  Elec       q    Type
                         _______ _______ _______ _____ _____    ______ ____

>  <TORSDO>
F 11

$$$$
=
 OpenBabel11062421273D

 31 33  0  0  1  0  0  0  0  0999 V2000
  192.8200  176.6730  146.2390 C   0  0  0  0  0  2  0  0  0  0  0  0
  194.2460  173.1820  145.3930 C   0  0  2  0  0  3  0  0  0  0  0  0
  195.3610  177.1490  145.0030 O   0  0  0  0  0  0  0  0  0  0  0  0
  193.7500  175.5870  145.7830 C   0  0  0  0  0  0  0  0  0  0  0  0
  193.4780  172.0660  145.0600 O   0  0  0  0  0  1  0  0  0  0  0  0
  195.0240  175.9410  145.1250 C   0  0  0  0  0  0  0  0  0  0  0  0
  193.3570  174.3100  145.8380 C   0  0  0  0  0  3  0  0  0  0  0  0
  196.1740  172.5640  144.1510 O   0  0  0  0  0  1  0  0  0  0  0  0
  195.2120  173.5680  144.2540 C   0  0  2  0  0  0  0  0  0  0  0  0
  195.9430  174.8740  144.6000 C   0  0  0  0  0  2  0  0  0  0  0  0
  194.5090  173.6730  142.8920 C   0  0  0  0  0  2  0  0  0  0  0  0
  195.3870  174.0560  141.8740 O   0  0  0  0  0  0  0  0  0  0  0  0
  194.5260  175.1720  140.9340 P   0  0  0  0  0  0  0  0  0  0  0  0
  192.8630  174.9130  141.1090 O   0  0  0  0  0  1  0  0  0  0  0  0
  194.9070  174.9940  139.4820 O   0  0  0  0  0  0  0  0  0  0  0  0
  194.9060  176.7490  141.4180 O   0  0  0  0  0  1  0  0  0  0  0  0
  191.8460  176.1950  147.3120 C   0  0  0  0  0  2  0  0  0  0  0  0
  190.4440  176.7570  147.0990 C   0  0  0  0  0  2  0  0  0  0  0  0
  189.6990  176.0310  145.9780 C   0  0  1  0  0  3  0  0  0  0  0  0
  188.9420  174.3150  147.6280 O   0  0  0  0  0  1  0  0  0  0  0  0
  189.4460  174.6030  146.3680 C   0  0  0  0  0  0  0  0  0  0  0  0
  189.6890  173.6650  145.5620 O   0  0  0  0  0  0  0  0  0  0  0  0
  188.3880  176.7630  145.6460 C   0  0  1  0  0  3  0  0  0  0  0  0
  185.8870  177.9020  148.2800 O   0  0  0  0  0  1  0  0  0  0  0  0
  187.7730  177.3150  146.8550 N   0  0  0  0  0  2  0  0  0  0  0  0
  185.5600  176.7890  146.3070 O   0  0  0  0  0  0  0  0  0  0  0  0
  186.3660  177.3160  147.1180 C   0  0  0  0  0  0  0  0  0  0  0  0
  188.5890  177.8610  144.6010 C   0  0  2  0  0  3  0  0  0  0  0  0
  188.6320  177.9070  142.1410 C   0  0  0  0  0  2  0  0  0  0  0  0
  187.7880  177.5490  143.3490 C   0  0  1  0  0  3  0  0  0  0  0  0
  189.2690  177.2890  143.3710 C   0  0  2  0  0  3  0  0  0  0  0  0
  1 17  1  0  0  0  0
  2  5  1  6  0  0  0
  2  7  1  0  0  0  0
  3  6  2  0  0  0  0
  4  7  2  0  0  0  0
  4  1  1  0  0  0  0
  6  4  1  0  0  0  0
  9  8  1  6  0  0  0
  9 10  1  0  0  0  0
  9  2  1  0  0  0  0
 10  6  1  0  0  0  0
 11  9  1  0  0  0  0
 12 11  1  0  0  0  0
 13 14  1  0  0  0  0
 13 16  1  0  0  0  0
 13 12  1  0  0  0  0
 15 13  2  0  0  0  0
 18 17  1  0  0  0  0
 19 21  1  0  0  0  0
 19 18  1  1  0  0  0
 21 20  1  0  0  0  0
 22 21  2  0  0  0  0
 23 19  1  0  0  0  0
 23 25  1  1  0  0  0
 25 27  1  0  0  0  0
 26 27  2  0  0  0  0
 27 24  1  0  0  0  0
 28 23  1  1  0  0  0
 30 29  1  6  0  0  0
 30 31  1  0  0  0  0
 30 28  1  0  0  0  0
 31 29  1  6  0  0  0
 31 28  1  0  0  0  0
M  END
>  <MODEL>
8

>  <REMARK>
 VINA RESULT:      -5.7      2.343      3.873
  Name = 
  11 active torsions:
  status: ('A' for Active; 'I' for Inactive)
    1  A    between atoms: P_2  and  O_28
    2  A    between atoms: N_3  and  C_27
    3  A    between atoms: C_6  and  C_26
    4  A    between atoms: C_11  and  C_13
    5  A    between atoms: C_11  and  C_25
    6  A    between atoms: C_11  and  C_27
    7  A    between atoms: C_13  and  C_15
    8  A    between atoms: C_15  and  C_26
    9  A    between atoms: C_18  and  C_27
   10  A    between atoms: C_23  and  C_24
   11  A    between atoms: C_23  and  O_28
                            x       y       z     vdW  Elec       q    Type
                         _______ _______ _______ _____ _____    ______ ____

>  <TORSDO>
F 11

$$$$
=
 OpenBabel11062421273D

 31 33  0  0  1  0  0  0  0  0999 V2000
  192.8450  176.7820  147.1010 C   0  0  0  0  0  2  0  0  0  0  0  0
  193.9140  173.5260  145.3160 C   0  0  2  0  0  3  0  0  0  0  0  0
  195.0230  177.5130  145.3890 O   0  0  0  0  0  0  0  0  0  0  0  0
  193.6020  175.8110  146.2430 C   0  0  0  0  0  0  0  0  0  0  0  0
  193.0540  172.4780  144.9840 O   0  0  0  0  0  1  0  0  0  0  0  0
  194.6890  176.2980  145.3690 C   0  0  0  0  0  0  0  0  0  0  0  0
  193.1960  174.5400  146.1610 C   0  0  0  0  0  3  0  0  0  0  0  0
  195.4620  173.1730  143.5490 O   0  0  0  0  0  1  0  0  0  0  0  0
  194.5850  174.1270  144.0640 C   0  0  2  0  0  0  0  0  0  0  0  0
  195.4190  175.3590  144.4510 C   0  0  0  0  0  2  0  0  0  0  0  0
  193.5760  174.4690  142.9580 C   0  0  0  0  0  2  0  0  0  0  0  0
  193.5650  173.5110  141.9390 O   0  0  0  0  0  0  0  0  0  0  0  0
  191.9280  173.2510  141.5860 P   0  0  0  0  0  0  0  0  0  0  0  0
  190.9590  174.0110  142.7460 O   0  0  0  0  0  1  0  0  0  0  0  0
  191.6500  171.7650  141.6020 O   0  0  0  0  0  1  0  0  0  0  0  0
  191.5640  173.8660  140.0520 O   0  0  0  0  0  0  0  0  0  0  0  0
  191.5210  176.2120  147.5990 C   0  0  0  0  0  2  0  0  0  0  0  0
  190.3240  176.9520  147.0110 C   0  0  0  0  0  2  0  0  0  0  0  0
  189.6220  176.1370  145.9250 C   0  0  1  0  0  3  0  0  0  0  0  0
  188.7470  174.5330  147.6270 O   0  0  0  0  0  1  0  0  0  0  0  0
  189.3760  174.7370  146.4080 C   0  0  0  0  0  0  0  0  0  0  0  0
  189.7380  173.7470  145.7180 O   0  0  0  0  0  0  0  0  0  0  0  0
  188.3120  176.8230  145.5040 C   0  0  1  0  0  3  0  0  0  0  0  0
  185.6330  177.9090  147.9810 O   0  0  0  0  0  1  0  0  0  0  0  0
  187.6130  177.3780  146.6640 N   0  0  0  0  0  2  0  0  0  0  0  0
  185.4570  176.7240  146.0310 O   0  0  0  0  0  0  0  0  0  0  0  0
  186.1960  177.3150  146.8610 C   0  0  0  0  0  0  0  0  0  0  0  0
  188.5410  177.9090  144.4510 C   0  0  2  0  0  3  0  0  0  0  0  0
  188.5580  177.9400  141.9910 C   0  0  0  0  0  2  0  0  0  0  0  0
  187.7140  177.6210  143.2100 C   0  0  1  0  0  3  0  0  0  0  0  0
  189.1850  177.3060  143.2160 C   0  0  2  0  0  3  0  0  0  0  0  0
  1 17  1  0  0  0  0
  2  5  1  6  0  0  0
  2  7  1  0  0  0  0
  4  1  1  0  0  0  0
  6  3  2  0  0  0  0
  6  4  1  0  0  0  0
  7  4  2  0  0  0  0
  9  8  1  6  0  0  0
  9 10  1  0  0  0  0
  9  2  1  0  0  0  0
 10  6  1  0  0  0  0
 11  9  1  0  0  0  0
 12 11  1  0  0  0  0
 13 15  1  0  0  0  0
 13 12  1  0  0  0  0
 13 14  1  0  0  0  0
 16 13  2  0  0  0  0
 18 17  1  0  0  0  0
 19 21  1  0  0  0  0
 19 18  1  1  0  0  0
 21 20  1  0  0  0  0
 22 21  2  0  0  0  0
 23 19  1  0  0  0  0
 23 25  1  1  0  0  0
 25 27  1  0  0  0  0
 26 27  2  0  0  0  0
 27 24  1  0  0  0  0
 28 23  1  1  0  0  0
 30 29  1  6  0  0  0
 30 31  1  0  0  0  0
 30 28  1  0  0  0  0
 31 29  1  6  0  0  0
 31 28  1  0  0  0  0
M  END
>  <MODEL>
9

>  <REMARK>
 VINA RESULT:      -5.7      2.521      4.105
  Name = 
  11 active torsions:
  status: ('A' for Active; 'I' for Inactive)
    1  A    between atoms: P_2  and  O_28
    2  A    between atoms: N_3  and  C_27
    3  A    between atoms: C_6  and  C_26
    4  A    between atoms: C_11  and  C_13
    5  A    between atoms: C_11  and  C_25
    6  A    between atoms: C_11  and  C_27
    7  A    between atoms: C_13  and  C_15
    8  A    between atoms: C_15  and  C_26
    9  A    between atoms: C_18  and  C_27
   10  A    between atoms: C_23  and  C_24
   11  A    between atoms: C_23  and  O_28
                            x       y       z     vdW  Elec       q    Type
                         _______ _______ _______ _____ _____    ______ ____

>  <TORSDO>
F 11

$$$$
