=
 OpenBabel11062422523D

 46 49  0  0  1  0  0  0  0  0999 V2000
  197.1060  176.1360  143.2320 N   0  0  0  0  0  2  0  0  0  0  0  0
  196.6030  174.5540  144.7850 N   0  0  0  0  0  2  0  0  0  0  0  0
  197.4430  174.8480  143.6970 N   0  0  0  0  0  2  0  0  0  0  0  0
  195.3570  175.2300  144.5080 C   0  0  2  0  0  3  0  0  0  0  0  0
  195.7290  176.3750  143.6250 C   0  0  2  0  0  3  0  0  0  0  0  0
  194.7360  175.7430  145.7950 C   0  0  0  0  0  1  0  0  0  0  0  0
  193.4630  176.7460  145.4690 C   0  0  0  0  0  1  0  0  0  0  0  0
  193.2730  176.2170  145.8650 O   0  0  0  0  0  0  0  0  0  0  0  0
  192.2630  176.5710  146.4410 C   0  0  0  0  0  2  0  0  0  0  0  0
  191.1720  175.5550  146.4600 C   0  0  0  0  0  2  0  0  0  0  0  0
  189.9600  176.1330  147.0250 N   0  0  0  0  0  2  0  0  0  0  0  0
  188.7100  175.4410  147.1130 C   0  0  0  0  0  3  0  0  0  0  0  0
  187.5100  175.9750  146.8510 C   0  0  0  0  0  3  0  0  0  0  0  0
  187.1870  177.3930  146.5840 C   0  0  0  0  0  0  0  0  0  0  0  0
  187.1460  177.8470  145.3280 C   0  0  0  0  0  3  0  0  0  0  0  0
  188.8540  177.5100  142.0400 O   0  0  0  0  0  0  0  0  0  0  0  0
  189.7190  177.9890  144.1090 O   0  0  0  0  0  0  0  0  0  0  0  0
  187.7280  177.2440  141.2080 C   0  0  0  0  0  2  0  0  0  0  0  0
  186.8230  176.2850  141.8500 N   0  0  0  0  0  2  0  0  0  0  0  0
  188.7410  177.5770  143.4310 C   0  0  0  0  0  0  0  0  0  0  0  0
  187.5190  177.0340  144.1170 C   0  0  2  0  0  3  0  0  0  0  0  0
  186.3510  176.8300  143.1270 C   0  0  1  0  0  3  0  0  0  0  0  0
  185.4580  178.0250  142.9280 C   0  0  0  0  0  0  0  0  0  0  0  0
  185.9160  179.3100  143.1990 O   0  0  0  0  0  1  0  0  0  0  0  0
  184.2880  177.8600  142.4990 O   0  0  0  0  0  0  0  0  0  0  0  0
  185.1830  178.5940  147.4720 C   0  0  0  0  0  1  0  0  0  0  0  0
  186.6570  178.2750  147.6760 C   0  0  0  0  0  2  0  0  0  0  0  0
  194.8980  176.3810  142.4890 O   0  0  0  0  0  0  0  0  0  0  0  0
  194.6390  174.4970  141.0270 N   0  0  0  0  0  2  0  0  0  0  0  0
  192.7900  175.1810  141.9640 C   0  0  1  0  0  3  0  0  0  0  0  0
  194.2760  175.1160  142.3020 C   0  0  2  0  0  3  0  0  0  0  0  0
  193.2250  174.5130  140.6510 C   0  0  2  0  0  3  0  0  0  0  0  0
  192.4330  170.9200  140.4280 C   0  0  0  0  0  3  0  0  0  0  0  0
  193.3090  171.9280  140.8100 C   0  0  0  0  0  3  0  0  0  0  0  0
  191.3480  171.4550  139.8370 N   0  0  0  0  0  0  0  0  0  0  0  0
  191.5070  172.7950  139.8320 C   0  0  0  0  0  0  0  0  0  0  0  0
  190.2290  170.6770  139.3310 C   0  0  0  0  0  1  0  0  0  0  0  0
  192.7110  173.1150  140.4140 C   0  0  0  0  0  0  0  0  0  0  0  0
  189.2200  173.7600  139.6570 C   0  0  0  0  0  1  0  0  0  0  0  0
  190.6020  173.7400  139.3330 O   0  0  0  0  0  0  0  0  0  0  0  0
  191.6290  172.5910  144.5120 C   0  0  0  0  0  2  0  0  0  0  0  0
  192.4540  173.3820  143.5980 N   0  0  0  0  0  0  0  0  0  0  0  0
  191.9350  174.3310  142.8710 C   0  0  0  0  0  0  0  0  0  0  0  0
  190.5130  174.5360  142.8740 N   0  0  0  0  0  0  0  0  0  0  0  0
  190.2440  172.3520  143.9120 C   0  0  0  0  0  2  0  0  0  0  0  0
  189.7070  173.6490  143.3810 C   0  0  0  0  0  3  0  0  0  0  0  0
  1  5  1  0  0  0  0
  1  3  1  0  0  0  0
  3  2  1  0  0  0  0
  4  2  1  0  0  0  0
  4  6  1  1  0  0  0
  5 28  1  6  0  0  0
  5  4  1  0  0  0  0
  7  8  1  0  0  0  0
  8  9  1  0  0  0  0
  9 10  1  0  0  0  0
 10 11  1  0  0  0  0
 11 12  1  0  0  0  0
 13 12  2  0  0  0  0
 14 13  1  0  0  0  0
 14 27  1  0  0  0  0
 15 14  2  0  0  0  0
 16 20  1  0  0  0  0
 18 19  1  0  0  0  0
 18 16  1  0  0  0  0
 19 22  1  0  0  0  0
 20 17  2  0  0  0  0
 20 21  1  0  0  0  0
 21 15  1  1  0  0  0
 22 23  1  6  0  0  0
 22 21  1  0  0  0  0
 23 24  1  0  0  0  0
 25 23  2  0  0  0  0
 26 27  1  0  0  0  0
 29 31  1  0  0  0  0
 30 31  1  0  0  0  0
 30 43  1  1  0  0  0
 31 28  1  6  0  0  0
 32 38  1  1  0  0  0
 32 29  1  0  0  0  0
 32 30  1  0  0  0  0
 33 34  2  0  0  0  0
 35 33  1  0  0  0  0
 36 35  1  0  0  0  0
 36 38  2  0  0  0  0
 37 35  1  0  0  0  0
 38 34  1  0  0  0  0
 40 39  1  0  0  0  0
 40 36  1  0  0  0  0
 42 41  1  0  0  0  0
 43 44  1  0  0  0  0
 43 42  2  0  0  0  0
 44 46  2  0  0  0  0
 45 41  1  0  0  0  0
 46 45  1  0  0  0  0
M  END
>  <MODEL>
1

>  <REMARK>
 VINA RESULT:      -7.0      0.000      0.000
  Name = 
  15 active torsions:
  status: ('A' for Active; 'I' for Inactive)
    1  A    between atoms: C_1  and  CA_43
    2  A    between atoms: C_4  and  C_31
    3  A    between atoms: N_5  and  C_17
    4  A    between atoms: N_5  and  C_18
    5  A    between atoms: C_8  and  C_34
    6  A    between atoms: C_8  and  C_35
    7  A    between atoms: C_15  and  C_27
    8  A    between atoms: C_17  and  C_45
    9  A    between atoms: C_20  and  O_29
   10  A    between atoms: C_27  and  C_41
   11  A    between atoms: C_32  and  C_42
   12  A    between atoms: C_33  and  C_39
   13  A    between atoms: C_34  and  C_45
   14  A    between atoms: C_36  and  O_40
   15  A    between atoms: C_37  and  O_40
                            x       y       z     vdW  Elec       q    Type
                         _______ _______ _______ _____ _____    ______ ____

>  <TORSDO>
F 15

$$$$
=
 OpenBabel11062422523D

 46 50  0  0  1  0  0  0  0  0999 V2000
  188.7940  173.8420  140.6200 N   0  0  0  0  0  2  0  0  0  0  0  0
  188.6190  172.3360  142.3150 N   0  0  0  0  0  2  0  0  0  0  0  0
  187.9090  172.9580  141.2720 N   0  0  0  0  0  2  0  0  0  0  0  0
  189.5810  173.3150  142.7670 C   0  0  2  0  0  3  0  0  0  0  0  0
  189.8180  174.1950  141.5850 C   0  0  2  0  0  3  0  0  0  0  0  0
  190.8730  172.6340  143.1800 C   0  0  0  0  0  2  0  0  0  0  0  0
  191.1380  171.2830  142.2650 C   0  0  0  0  0  2  0  0  0  0  0  0
  191.4470  170.7690  141.9290 O   0  0  0  0  0  0  0  0  0  0  0  0
  192.6400  170.9260  142.0960 C   0  0  0  0  0  2  0  0  0  0  0  0
  193.3860  169.6820  142.4450 C   0  0  0  0  0  2  0  0  0  0  0  0
  194.2280  169.9140  143.6100 N   0  0  0  0  0  2  0  0  0  0  0  0
  193.7510  170.4520  144.8470 C   0  0  0  0  0  3  0  0  0  0  0  0
  194.2910  171.4910  145.4990 C   0  0  0  0  0  3  0  0  0  0  0  0
  195.5570  172.1930  145.1960 C   0  0  0  0  0  0  0  0  0  0  0  0
  195.5490  173.2950  144.4420 C   0  0  0  0  0  3  0  0  0  0  0  0
  193.9590  175.1820  141.6570 O   0  0  0  0  0  0  0  0  0  0  0  0
  195.2240  173.2690  141.6100 O   0  0  0  0  0  0  0  0  0  0  0  0
  193.3740  176.2530  142.3920 C   0  0  0  0  0  2  0  0  0  0  0  0
  192.7380  175.7570  143.6160 N   0  0  0  0  0  2  0  0  0  0  0  0
  194.5680  174.0980  142.2950 C   0  0  0  0  0  0  0  0  0  0  0  0
  194.3280  173.8500  143.7580 C   0  0  2  0  0  3  0  0  0  0  0  0
  193.7380  175.0940  144.4590 C   0  0  1  0  0  3  0  0  0  0  0  0
  194.7490  176.0690  145.0010 C   0  0  0  0  0  0  0  0  0  0  0  0
  195.6770  176.6730  144.1600 O   0  0  0  0  0  0  0  0  0  0  0  0
  194.7430  176.3510  146.2260 O   0  0  0  0  0  1  0  0  0  0  0  0
  197.6400  170.8120  145.1560 C   0  0  0  0  0  1  0  0  0  0  0  0
  196.8200  171.8390  145.9240 C   0  0  0  0  0  2  0  0  0  0  0  0
  189.6760  175.5430  141.9660 O   0  0  0  0  0  0  0  0  0  0  0  0
  187.5990  175.9980  143.0750 N   0  0  0  0  0  2  0  0  0  0  0  0
  189.3470  176.9170  144.0070 C   0  0  1  0  0  3  0  0  0  0  0  0
  189.0140  175.6530  143.2190 C   0  0  2  0  0  3  0  0  0  0  0  0
  187.8500  177.2190  143.8420 C   0  0  2  0  0  3  0  0  0  0  0  0
  186.1400  176.7490  147.0740 C   0  0  0  0  0  3  0  0  0  0  0  0
  186.9590  176.2440  146.0710 C   0  0  0  0  0  3  0  0  0  0  0  0
  185.7380  177.9940  146.7530 N   0  0  0  0  0  0  0  0  0  0  0  0
  186.2860  178.3040  145.5600 C   0  0  0  0  0  0  0  0  0  0  0  0
  184.8820  178.8150  147.5940 C   0  0  0  0  0  1  0  0  0  0  0  0
  187.0330  177.2410  145.1090 C   0  0  0  0  0  0  0  0  0  0  0  0
  185.1440  179.7560  143.8930 C   0  0  0  0  0  1  0  0  0  0  0  0
  186.1470  179.5130  144.8670 O   0  0  0  0  0  0  0  0  0  0  0  0
  190.4170  177.3280  147.6450 C   0  0  0  0  0  2  0  0  0  0  0  0
  190.0230  177.6050  146.2630 N   0  0  0  0  0  0  0  0  0  0  0  0
  189.8000  176.6370  145.4180 C   0  0  0  0  0  0  0  0  0  0  0  0
  190.0530  175.2770  145.8080 N   0  0  0  0  0  0  0  0  0  0  0  0
  191.3300  176.1040  147.7060 C   0  0  0  0  0  2  0  0  0  0  0  0
  190.7310  175.0010  146.8830 C   0  0  0  0  0  3  0  0  0  0  0  0
  1  3  1  0  0  0  0
  1  5  1  0  0  0  0
  2  4  1  0  0  0  0
  3  2  1  0  0  0  0
  4  6  1  6  0  0  0
  5 28  1  1  0  0  0
  5  4  1  0  0  0  0
  7  6  1  0  0  0  0
  8  9  1  0  0  0  0
  8  7  1  0  0  0  0
  9 10  1  0  0  0  0
 10 11  1  0  0  0  0
 11 12  1  0  0  0  0
 12 13  2  0  0  0  0
 14 13  1  0  0  0  0
 14 27  1  0  0  0  0
 15 14  2  0  0  0  0
 16 20  1  0  0  0  0
 16 18  1  0  0  0  0
 17 20  2  0  0  0  0
 18 19  1  0  0  0  0
 19 22  1  0  0  0  0
 20 21  1  0  0  0  0
 21 15  1  1  0  0  0
 21 22  1  0  0  0  0
 22 23  1  6  0  0  0
 23 25  1  0  0  0  0
 24 23  2  0  0  0  0
 26 27  1  0  0  0  0
 29 31  1  0  0  0  0
 29 32  1  0  0  0  0
 30 43  1  1  0  0  0
 31 28  1  6  0  0  0
 31 30  1  0  0  0  0
 32 30  1  0  0  0  0
 32 38  1  1  0  0  0
 34 33  2  0  0  0  0
 35 33  1  0  0  0  0
 35 37  1  0  0  0  0
 36 35  1  0  0  0  0
 38 36  2  0  0  0  0
 38 34  1  0  0  0  0
 39 40  1  0  0  0  0
 40 36  1  0  0  0  0
 41 45  1  0  0  0  0
 42 41  1  0  0  0  0
 43 44  1  0  0  0  0
 43 42  2  0  0  0  0
 44 46  2  0  0  0  0
 46 45  1  0  0  0  0
M  END
>  <MODEL>
2

>  <REMARK>
 VINA RESULT:      -6.6      2.324      8.199
  Name = 
  15 active torsions:
  status: ('A' for Active; 'I' for Inactive)
    1  A    between atoms: C_1  and  CA_43
    2  A    between atoms: C_4  and  C_31
    3  A    between atoms: N_5  and  C_17
    4  A    between atoms: N_5  and  C_18
    5  A    between atoms: C_8  and  C_34
    6  A    between atoms: C_8  and  C_35
    7  A    between atoms: C_15  and  C_27
    8  A    between atoms: C_17  and  C_45
    9  A    between atoms: C_20  and  O_29
   10  A    between atoms: C_27  and  C_41
   11  A    between atoms: C_32  and  C_42
   12  A    between atoms: C_33  and  C_39
   13  A    between atoms: C_34  and  C_45
   14  A    between atoms: C_36  and  O_40
   15  A    between atoms: C_37  and  O_40
                            x       y       z     vdW  Elec       q    Type
                         _______ _______ _______ _____ _____    ______ ____

>  <TORSDO>
F 15

$$$$
=
 OpenBabel11062422523D

 46 50  0  0  1  0  0  0  0  0999 V2000
  190.2590  171.8570  138.9340 N   0  0  0  0  0  2  0  0  0  0  0  0
  188.3380  172.9750  139.4140 N   0  0  0  0  0  2  0  0  0  0  0  0
  188.9820  172.1930  138.4380 N   0  0  0  0  0  2  0  0  0  0  0  0
  189.3890  173.7150  140.0730 C   0  0  2  0  0  3  0  0  0  0  0  0
  190.6140  172.8810  139.9000 C   0  0  2  0  0  3  0  0  0  0  0  0
  189.0730  173.8800  141.5490 C   0  0  0  0  0  2  0  0  0  0  0  0
  188.7740  172.4120  142.2480 C   0  0  0  0  0  2  0  0  0  0  0  0
  188.7020  171.9840  142.7810 O   0  0  0  0  0  0  0  0  0  0  0  0
  189.7300  172.0720  143.4250 C   0  0  0  0  0  2  0  0  0  0  0  0
  189.5300  172.1840  144.8980 C   0  0  0  0  0  2  0  0  0  0  0  0
  189.9480  173.5000  145.3620 N   0  0  0  0  0  2  0  0  0  0  0  0
  190.9780  174.2760  144.7420 C   0  0  0  0  0  3  0  0  0  0  0  0
  191.1930  175.5820  144.9500 C   0  0  0  0  0  3  0  0  0  0  0  0
  190.3500  176.5310  145.7080 C   0  0  0  0  0  0  0  0  0  0  0  0
  189.2360  177.0250  145.1580 C   0  0  0  0  0  3  0  0  0  0  0  0
  188.4730  178.2440  141.7270 O   0  0  0  0  0  0  0  0  0  0  0  0
  190.4250  178.3410  142.9270 O   0  0  0  0  0  0  0  0  0  0  0  0
  187.0960  177.8890  141.6440 C   0  0  0  0  0  2  0  0  0  0  0  0
  186.8720  176.5460  142.1870 N   0  0  0  0  0  2  0  0  0  0  0  0
  189.2690  177.8560  142.8070 C   0  0  0  0  0  0  0  0  0  0  0  0
  188.8030  176.7720  143.7390 C   0  0  2  0  0  3  0  0  0  0  0  0
  187.2880  176.5060  143.5930 C   0  0  1  0  0  3  0  0  0  0  0  0
  186.3980  177.3530  144.4640 C   0  0  0  0  0  0  0  0  0  0  0  0
  186.4510  178.7410  144.4000 O   0  0  0  0  0  0  0  0  0  0  0  0
  185.5870  176.7970  145.2470 O   0  0  0  0  0  1  0  0  0  0  0  0
  191.5110  175.7080  147.7610 C   0  0  0  0  0  1  0  0  0  0  0  0
  190.5800  176.7580  147.1720 C   0  0  0  0  0  2  0  0  0  0  0  0
  191.6580  173.6780  139.3950 O   0  0  0  0  0  0  0  0  0  0  0  0
  192.6770  172.9520  141.4410 N   0  0  0  0  0  2  0  0  0  0  0  0
  193.6730  174.6400  140.4800 C   0  0  1  0  0  3  0  0  0  0  0  0
  192.8820  173.4030  140.0650 C   0  0  2  0  0  3  0  0  0  0  0  0
  193.4440  174.1090  141.9030 C   0  0  2  0  0  3  0  0  0  0  0  0
  196.4010  172.5310  143.4360 C   0  0  0  0  0  3  0  0  0  0  0  0
  195.2610  172.4200  142.6500 C   0  0  0  0  0  3  0  0  0  0  0  0
  196.5200  173.7900  143.8960 N   0  0  0  0  0  0  0  0  0  0  0  0
  195.4760  174.4980  143.4190 C   0  0  0  0  0  0  0  0  0  0  0  0
  197.6120  174.2510  144.7380 C   0  0  0  0  0  1  0  0  0  0  0  0
  194.6760  173.6780  142.6580 C   0  0  0  0  0  0  0  0  0  0  0  0
  194.7790  176.3960  144.8700 C   0  0  0  0  0  1  0  0  0  0  0  0
  195.2220  175.8590  143.6330 O   0  0  0  0  0  0  0  0  0  0  0  0
  196.9840  173.5710  138.9170 C   0  0  0  0  0  2  0  0  0  0  0  0
  195.6100  173.5690  139.4210 N   0  0  0  0  0  0  0  0  0  0  0  0
  195.1040  174.6210  140.0040 C   0  0  0  0  0  0  0  0  0  0  0  0
  195.9360  175.7630  140.2630 N   0  0  0  0  0  0  0  0  0  0  0  0
  197.8920  174.3790  139.8440 C   0  0  0  0  0  2  0  0  0  0  0  0
  197.2310  175.6880  140.1630 C   0  0  0  0  0  3  0  0  0  0  0  0
  1  5  1  0  0  0  0
  2  4  1  0  0  0  0
  3  1  1  0  0  0  0
  3  2  1  0  0  0  0
  4  6  1  1  0  0  0
  5 28  1  6  0  0  0
  5  4  1  0  0  0  0
  6  7  1  0  0  0  0
  7  8  1  0  0  0  0
  8  9  1  0  0  0  0
  9 10  1  0  0  0  0
 10 11  1  0  0  0  0
 12 13  2  0  0  0  0
 12 11  1  0  0  0  0
 13 14  1  0  0  0  0
 14 27  1  0  0  0  0
 15 14  2  0  0  0  0
 16 20  1  0  0  0  0
 18 16  1  0  0  0  0
 18 19  1  0  0  0  0
 19 22  1  0  0  0  0
 20 17  2  0  0  0  0
 20 21  1  0  0  0  0
 21 15  1  1  0  0  0
 22 21  1  0  0  0  0
 22 23  1  1  0  0  0
 23 25  1  0  0  0  0
 24 23  2  0  0  0  0
 27 26  1  0  0  0  0
 29 32  1  0  0  0  0
 30 43  1  6  0  0  0
 30 32  1  0  0  0  0
 31 28  1  1  0  0  0
 31 30  1  0  0  0  0
 31 29  1  0  0  0  0
 32 38  1  6  0  0  0
 33 35  1  0  0  0  0
 34 38  1  0  0  0  0
 34 33  2  0  0  0  0
 35 37  1  0  0  0  0
 36 40  1  0  0  0  0
 36 35  1  0  0  0  0
 38 36  2  0  0  0  0
 40 39  1  0  0  0  0
 41 42  1  0  0  0  0
 41 45  1  0  0  0  0
 42 43  2  0  0  0  0
 43 44  1  0  0  0  0
 45 46  1  0  0  0  0
 46 44  2  0  0  0  0
M  END
>  <MODEL>
3

>  <REMARK>
 VINA RESULT:      -6.5      2.069      5.564
  Name = 
  15 active torsions:
  status: ('A' for Active; 'I' for Inactive)
    1  A    between atoms: C_1  and  CA_43
    2  A    between atoms: C_4  and  C_31
    3  A    between atoms: N_5  and  C_17
    4  A    between atoms: N_5  and  C_18
    5  A    between atoms: C_8  and  C_34
    6  A    between atoms: C_8  and  C_35
    7  A    between atoms: C_15  and  C_27
    8  A    between atoms: C_17  and  C_45
    9  A    between atoms: C_20  and  O_29
   10  A    between atoms: C_27  and  C_41
   11  A    between atoms: C_32  and  C_42
   12  A    between atoms: C_33  and  C_39
   13  A    between atoms: C_34  and  C_45
   14  A    between atoms: C_36  and  O_40
   15  A    between atoms: C_37  and  O_40
                            x       y       z     vdW  Elec       q    Type
                         _______ _______ _______ _____ _____    ______ ____

>  <TORSDO>
F 15

$$$$
=
 OpenBabel11062422523D

 46 50  0  0  1  0  0  0  0  0999 V2000
  189.9760  173.7940  138.4550 N   0  0  0  0  0  2  0  0  0  0  0  0
  190.1390  171.5590  138.0700 N   0  0  0  0  0  2  0  0  0  0  0  0
  189.8550  172.7970  137.4660 N   0  0  0  0  0  2  0  0  0  0  0  0
  189.6870  171.6830  139.4360 C   0  0  2  0  0  3  0  0  0  0  0  0
  189.7520  173.1440  139.7330 C   0  0  2  0  0  3  0  0  0  0  0  0
  190.6090  170.9170  140.3690 C   0  0  0  0  0  2  0  0  0  0  0  0
  191.9130  171.8430  140.7870 C   0  0  0  0  0  2  0  0  0  0  0  0
  192.5830  171.8070  140.9370 O   0  0  0  0  0  0  0  0  0  0  0  0
  192.6540  171.3440  142.0590 C   0  0  0  0  0  2  0  0  0  0  0  0
  193.6800  170.2760  142.2250 C   0  0  0  0  0  2  0  0  0  0  0  0
  194.1270  170.2220  143.6100 N   0  0  0  0  0  2  0  0  0  0  0  0
  193.5630  171.0100  144.6630 C   0  0  0  0  0  3  0  0  0  0  0  0
  194.1550  172.0640  145.2430 C   0  0  0  0  0  3  0  0  0  0  0  0
  195.5430  172.5400  145.0580 C   0  0  0  0  0  0  0  0  0  0  0  0
  195.8120  173.4930  144.1610 C   0  0  0  0  0  3  0  0  0  0  0  0
  194.9480  175.0730  140.9050 O   0  0  0  0  0  0  0  0  0  0  0  0
  195.9040  173.0370  141.3490 O   0  0  0  0  0  0  0  0  0  0  0  0
  194.4290  176.3160  141.3690 C   0  0  0  0  0  2  0  0  0  0  0  0
  193.5530  176.1150  142.5270 N   0  0  0  0  0  2  0  0  0  0  0  0
  195.2870  174.0430  141.7860 C   0  0  0  0  0  0  0  0  0  0  0  0
  194.8010  174.0740  143.2080 C   0  0  2  0  0  3  0  0  0  0  0  0
  194.3080  175.4810  143.6130 C   0  0  1  0  0  3  0  0  0  0  0  0
  195.3630  176.3990  144.1700 C   0  0  0  0  0  0  0  0  0  0  0  0
  196.6190  176.4810  143.5790 O   0  0  0  0  0  0  0  0  0  0  0  0
  195.1000  177.1090  145.1730 O   0  0  0  0  0  1  0  0  0  0  0  0
  197.0920  170.7280  145.8080 C   0  0  0  0  0  1  0  0  0  0  0  0
  196.6180  172.1560  146.0310 C   0  0  0  0  0  2  0  0  0  0  0  0
  188.5260  173.5670  140.2810 O   0  0  0  0  0  0  0  0  0  0  0  0
  189.9180  174.6240  141.9230 N   0  0  0  0  0  2  0  0  0  0  0  0
  187.7760  174.7640  142.3210 C   0  0  1  0  0  3  0  0  0  0  0  0
  188.7040  174.7080  141.1110 C   0  0  2  0  0  3  0  0  0  0  0  0
  189.0840  174.6950  143.1230 C   0  0  2  0  0  3  0  0  0  0  0  0
  190.0330  177.9350  144.6040 C   0  0  0  0  0  3  0  0  0  0  0  0
  189.9680  177.1030  143.4930 C   0  0  0  0  0  3  0  0  0  0  0  0
  189.5460  177.2960  145.6840 N   0  0  0  0  0  0  0  0  0  0  0  0
  189.1650  176.0640  145.2910 C   0  0  0  0  0  0  0  0  0  0  0  0
  189.4560  177.8880  147.0090 C   0  0  0  0  0  1  0  0  0  0  0  0
  189.4230  175.9110  143.9490 C   0  0  0  0  0  0  0  0  0  0  0  0
  189.2110  174.5040  147.2290 C   0  0  0  0  0  1  0  0  0  0  0  0
  188.5810  175.0740  146.0930 O   0  0  0  0  0  0  0  0  0  0  0  0
  186.4020  178.2570  141.6350 C   0  0  0  0  0  2  0  0  0  0  0  0
  187.1760  177.0160  141.5530 N   0  0  0  0  0  0  0  0  0  0  0  0
  187.0180  176.0640  142.4300 C   0  0  0  0  0  0  0  0  0  0  0  0
  186.1590  176.2720  143.5630 N   0  0  0  0  0  0  0  0  0  0  0  0
  186.1910  178.6590  143.0940 C   0  0  0  0  0  2  0  0  0  0  0  0
  185.7330  177.4620  143.8740 C   0  0  0  0  0  3  0  0  0  0  0  0
  1  5  1  0  0  0  0
  2  4  1  0  0  0  0
  3  2  1  0  0  0  0
  3  1  1  0  0  0  0
  4  5  1  0  0  0  0
  4  6  1  1  0  0  0
  5 28  1  6  0  0  0
  6  7  1  0  0  0  0
  7  8  1  0  0  0  0
  8  9  1  0  0  0  0
  9 10  1  0  0  0  0
 10 11  1  0  0  0  0
 11 12  1  0  0  0  0
 12 13  2  0  0  0  0
 14 13  1  0  0  0  0
 14 27  1  0  0  0  0
 15 14  2  0  0  0  0
 16 18  1  0  0  0  0
 16 20  1  0  0  0  0
 17 20  2  0  0  0  0
 18 19  1  0  0  0  0
 19 22  1  0  0  0  0
 20 21  1  0  0  0  0
 21 22  1  0  0  0  0
 21 15  1  1  0  0  0
 22 23  1  6  0  0  0
 23 25  1  0  0  0  0
 24 23  2  0  0  0  0
 26 27  1  0  0  0  0
 29 32  1  0  0  0  0
 30 43  1  6  0  0  0
 30 32  1  0  0  0  0
 31 28  1  6  0  0  0
 31 29  1  0  0  0  0
 31 30  1  0  0  0  0
 32 38  1  6  0  0  0
 33 35  1  0  0  0  0
 34 38  1  0  0  0  0
 34 33  2  0  0  0  0
 35 37  1  0  0  0  0
 36 35  1  0  0  0  0
 36 40  1  0  0  0  0
 38 36  2  0  0  0  0
 40 39  1  0  0  0  0
 41 45  1  0  0  0  0
 42 41  1  0  0  0  0
 42 43  2  0  0  0  0
 43 44  1  0  0  0  0
 44 46  2  0  0  0  0
 45 46  1  0  0  0  0
M  END
>  <MODEL>
4

>  <REMARK>
 VINA RESULT:      -6.5      2.606      8.100
  Name = 
  15 active torsions:
  status: ('A' for Active; 'I' for Inactive)
    1  A    between atoms: C_1  and  CA_43
    2  A    between atoms: C_4  and  C_31
    3  A    between atoms: N_5  and  C_17
    4  A    between atoms: N_5  and  C_18
    5  A    between atoms: C_8  and  C_34
    6  A    between atoms: C_8  and  C_35
    7  A    between atoms: C_15  and  C_27
    8  A    between atoms: C_17  and  C_45
    9  A    between atoms: C_20  and  O_29
   10  A    between atoms: C_27  and  C_41
   11  A    between atoms: C_32  and  C_42
   12  A    between atoms: C_33  and  C_39
   13  A    between atoms: C_34  and  C_45
   14  A    between atoms: C_36  and  O_40
   15  A    between atoms: C_37  and  O_40
                            x       y       z     vdW  Elec       q    Type
                         _______ _______ _______ _____ _____    ______ ____

>  <TORSDO>
F 15

$$$$
=
 OpenBabel11062422523D

 46 50  0  0  1  0  0  0  0  0999 V2000
  190.9610  169.9020  140.5460 N   0  0  0  0  0  2  0  0  0  0  0  0
  190.2900  170.4240  138.4370 N   0  0  0  0  0  2  0  0  0  0  0  0
  190.7200  169.3690  139.2630 N   0  0  0  0  0  2  0  0  0  0  0  0
  190.9680  171.6010  138.9280 C   0  0  2  0  0  3  0  0  0  0  0  0
  191.2480  171.3130  140.3650 C   0  0  2  0  0  3  0  0  0  0  0  0
  190.0690  172.8190  138.8030 C   0  0  0  0  0  2  0  0  0  0  0  0
  188.5440  172.4730  139.3390 C   0  0  0  0  0  2  0  0  0  0  0  0
  188.2440  173.0720  139.4930 O   0  0  0  0  0  0  0  0  0  0  0  0
  188.1970  173.1250  140.7060 C   0  0  0  0  0  2  0  0  0  0  0  0
  188.6080  174.4370  141.2850 C   0  0  0  0  0  2  0  0  0  0  0  0
  187.4560  175.1040  141.8780 N   0  0  0  0  0  2  0  0  0  0  0  0
  186.9440  176.3630  141.4280 C   0  0  0  0  0  3  0  0  0  0  0  0
  187.3550  177.5640  141.8600 C   0  0  0  0  0  3  0  0  0  0  0  0
  188.2760  177.8590  142.9780 C   0  0  0  0  0  0  0  0  0  0  0  0
  187.8190  177.8960  144.2330 C   0  0  0  0  0  3  0  0  0  0  0  0
  184.7320  179.2550  145.8040 O   0  0  0  0  0  0  0  0  0  0  0  0
  185.9700  180.0580  144.0490 O   0  0  0  0  0  0  0  0  0  0  0  0
  184.5370  178.2880  146.8320 C   0  0  0  0  0  2  0  0  0  0  0  0
  184.7580  176.9320  146.3190 N   0  0  0  0  0  2  0  0  0  0  0  0
  185.7170  179.1000  144.8260 C   0  0  0  0  0  0  0  0  0  0  0  0
  186.3680  177.7610  144.6140 C   0  0  2  0  0  3  0  0  0  0  0  0
  186.1290  176.8140  145.8110 C   0  0  1  0  0  3  0  0  0  0  0  0
  187.1450  176.9040  146.9180 C   0  0  0  0  0  0  0  0  0  0  0  0
  187.2860  178.0710  147.6620 O   0  0  0  0  0  1  0  0  0  0  0  0
  187.8650  175.9080  147.1820 O   0  0  0  0  0  0  0  0  0  0  0  0
  190.4940  178.4800  143.9480 C   0  0  0  0  0  1  0  0  0  0  0  0
  189.7600  177.8700  142.7630 C   0  0  0  0  0  2  0  0  0  0  0  0
  192.6050  171.5680  140.6410 O   0  0  0  0  0  0  0  0  0  0  0  0
  192.1550  173.6870  141.6710 N   0  0  0  0  0  2  0  0  0  0  0  0
  194.1560  172.8990  142.0480 C   0  0  1  0  0  3  0  0  0  0  0  0
  192.7490  172.3570  141.8150 C   0  0  2  0  0  3  0  0  0  0  0  0
  193.4760  174.2690  141.9080 C   0  0  2  0  0  3  0  0  0  0  0  0
  192.9470  176.1040  145.0610 C   0  0  0  0  0  3  0  0  0  0  0  0
  192.4650  175.2370  144.0880 C   0  0  0  0  0  3  0  0  0  0  0  0
  194.1890  176.5110  144.7380 N   0  0  0  0  0  0  0  0  0  0  0  0
  194.5200  175.9190  143.5710 C   0  0  0  0  0  0  0  0  0  0  0  0
  194.9890  177.4130  145.5500 C   0  0  0  0  0  1  0  0  0  0  0  0
  193.4730  175.1380  143.1410 C   0  0  0  0  0  0  0  0  0  0  0  0
  195.8950  176.8010  141.6940 C   0  0  0  0  0  1  0  0  0  0  0  0
  195.7350  176.0470  142.8860 O   0  0  0  0  0  0  0  0  0  0  0  0
  196.4640  172.5090  145.0600 C   0  0  0  0  0  2  0  0  0  0  0  0
  195.9530  172.7740  143.7140 N   0  0  0  0  0  0  0  0  0  0  0  0
  194.6970  172.5810  143.4200 C   0  0  0  0  0  0  0  0  0  0  0  0
  193.8190  171.9900  144.3910 N   0  0  0  0  0  0  0  0  0  0  0  0
  195.7690  171.2900  145.6660 C   0  0  0  0  0  2  0  0  0  0  0  0
  194.2880  171.4150  145.4600 C   0  0  0  0  0  3  0  0  0  0  0  0
  2  4  1  0  0  0  0
  2  3  1  0  0  0  0
  3  1  1  0  0  0  0
  4  6  1  1  0  0  0
  4  5  1  0  0  0  0
  5  1  1  0  0  0  0
  5 28  1  6  0  0  0
  6  7  1  0  0  0  0
  7  8  1  0  0  0  0
  8  9  1  0  0  0  0
  9 10  1  0  0  0  0
 10 11  1  0  0  0  0
 12 13  2  0  0  0  0
 12 11  1  0  0  0  0
 13 14  1  0  0  0  0
 14 15  2  0  0  0  0
 16 18  1  0  0  0  0
 17 20  2  0  0  0  0
 19 18  1  0  0  0  0
 20 16  1  0  0  0  0
 21 15  1  1  0  0  0
 21 20  1  0  0  0  0
 21 22  1  0  0  0  0
 22 19  1  0  0  0  0
 22 23  1  1  0  0  0
 23 25  2  0  0  0  0
 23 24  1  0  0  0  0
 27 14  1  0  0  0  0
 27 26  1  0  0  0  0
 29 31  1  0  0  0  0
 29 32  1  0  0  0  0
 30 43  1  1  0  0  0
 31 28  1  6  0  0  0
 31 30  1  0  0  0  0
 32 30  1  0  0  0  0
 32 38  1  1  0  0  0
 34 33  2  0  0  0  0
 35 33  1  0  0  0  0
 35 37  1  0  0  0  0
 36 35  1  0  0  0  0
 38 36  2  0  0  0  0
 38 34  1  0  0  0  0
 39 40  1  0  0  0  0
 40 36  1  0  0  0  0
 41 45  1  0  0  0  0
 42 41  1  0  0  0  0
 43 42  2  0  0  0  0
 43 44  1  0  0  0  0
 44 46  2  0  0  0  0
 46 45  1  0  0  0  0
M  END
>  <MODEL>
5

>  <REMARK>
 VINA RESULT:      -6.4      2.175      6.101
  Name = 
  15 active torsions:
  status: ('A' for Active; 'I' for Inactive)
    1  A    between atoms: C_1  and  CA_43
    2  A    between atoms: C_4  and  C_31
    3  A    between atoms: N_5  and  C_17
    4  A    between atoms: N_5  and  C_18
    5  A    between atoms: C_8  and  C_34
    6  A    between atoms: C_8  and  C_35
    7  A    between atoms: C_15  and  C_27
    8  A    between atoms: C_17  and  C_45
    9  A    between atoms: C_20  and  O_29
   10  A    between atoms: C_27  and  C_41
   11  A    between atoms: C_32  and  C_42
   12  A    between atoms: C_33  and  C_39
   13  A    between atoms: C_34  and  C_45
   14  A    between atoms: C_36  and  O_40
   15  A    between atoms: C_37  and  O_40
                            x       y       z     vdW  Elec       q    Type
                         _______ _______ _______ _____ _____    ______ ____

>  <TORSDO>
F 15

$$$$
=
 OpenBabel11062422523D

 46 50  0  0  1  0  0  0  0  0999 V2000
  189.2970  172.1730  141.3340 N   0  0  0  0  0  2  0  0  0  0  0  0
  189.3310  174.4430  141.4610 N   0  0  0  0  0  2  0  0  0  0  0  0
  189.1020  173.3580  140.5960 N   0  0  0  0  0  2  0  0  0  0  0  0
  190.3400  173.9900  142.3910 C   0  0  2  0  0  3  0  0  0  0  0  0
  190.1890  172.5060  142.4300 C   0  0  2  0  0  3  0  0  0  0  0  0
  190.0900  174.5770  143.7690 C   0  0  0  0  0  2  0  0  0  0  0  0
  191.4740  174.5510  144.6730 C   0  0  0  0  0  2  0  0  0  0  0  0
  191.8510  174.6690  145.2350 O   0  0  0  0  0  0  0  0  0  0  0  0
  191.7090  175.8480  145.4950 C   0  0  0  0  0  2  0  0  0  0  0  0
  191.4630  176.1390  146.9370 C   0  0  0  0  0  2  0  0  0  0  0  0
  190.0760  176.5380  147.1370 N   0  0  0  0  0  2  0  0  0  0  0  0
  188.9630  175.6480  147.0170 C   0  0  0  0  0  3  0  0  0  0  0  0
  187.7160  176.0090  146.6830 C   0  0  0  0  0  3  0  0  0  0  0  0
  187.1780  177.3780  146.5310 C   0  0  0  0  0  0  0  0  0  0  0  0
  186.9630  177.8830  145.3120 C   0  0  0  0  0  3  0  0  0  0  0  0
  188.6840  177.8590  142.0140 O   0  0  0  0  0  0  0  0  0  0  0  0
  189.5430  178.1190  144.1240 O   0  0  0  0  0  0  0  0  0  0  0  0
  187.5600  177.6890  141.1550 C   0  0  0  0  0  2  0  0  0  0  0  0
  186.6430  176.6810  141.6930 N   0  0  0  0  0  2  0  0  0  0  0  0
  188.5650  177.7870  143.4040 C   0  0  0  0  0  0  0  0  0  0  0  0
  187.3340  177.1910  144.0270 C   0  0  2  0  0  3  0  0  0  0  0  0
  186.1690  177.1000  143.0160 C   0  0  1  0  0  3  0  0  0  0  0  0
  185.2890  178.3180  142.9350 C   0  0  0  0  0  0  0  0  0  0  0  0
  183.9460  178.2060  142.5900 O   0  0  0  0  0  0  0  0  0  0  0  0
  185.7710  179.4500  143.1960 O   0  0  0  0  0  1  0  0  0  0  0  0
  185.6150  179.1720  147.2940 C   0  0  0  0  0  1  0  0  0  0  0  0
  186.6320  178.1210  147.7140 C   0  0  0  0  0  2  0  0  0  0  0  0
  191.4440  171.9000  142.2300 O   0  0  0  0  0  0  0  0  0  0  0  0
  192.5560  172.4270  140.1720 N   0  0  0  0  0  2  0  0  0  0  0  0
  193.8080  172.6040  141.9510 C   0  0  1  0  0  3  0  0  0  0  0  0
  192.3410  172.7870  141.5740 C   0  0  2  0  0  3  0  0  0  0  0  0
  193.9790  172.2540  140.4660 C   0  0  2  0  0  3  0  0  0  0  0  0
  195.5660  174.9620  138.5330 C   0  0  0  0  0  3  0  0  0  0  0  0
  194.4360  174.4390  139.1500 C   0  0  0  0  0  3  0  0  0  0  0  0
  196.5950  174.1030  138.6570 N   0  0  0  0  0  0  0  0  0  0  0  0
  196.1510  173.0320  139.3450 C   0  0  0  0  0  0  0  0  0  0  0  0
  197.9300  174.3500  138.1360 C   0  0  0  0  0  1  0  0  0  0  0  0
  194.8210  173.2040  139.6520 C   0  0  0  0  0  0  0  0  0  0  0  0
  197.7040  171.8470  140.8860 C   0  0  0  0  0  1  0  0  0  0  0  0
  196.9010  171.9090  139.7180 O   0  0  0  0  0  0  0  0  0  0  0  0
  194.5220  176.2740  142.7060 C   0  0  0  0  0  2  0  0  0  0  0  0
  193.8960  175.0400  142.2300 N   0  0  0  0  0  0  0  0  0  0  0  0
  194.4730  173.8830  142.3970 C   0  0  0  0  0  0  0  0  0  0  0  0
  195.7960  173.8190  142.9520 N   0  0  0  0  0  0  0  0  0  0  0  0
  196.0400  176.2030  142.5370 C   0  0  0  0  0  2  0  0  0  0  0  0
  196.5330  174.8860  143.0600 C   0  0  0  0  0  3  0  0  0  0  0  0
  1  5  1  0  0  0  0
  2  4  1  0  0  0  0
  3  1  1  0  0  0  0
  3  2  1  0  0  0  0
  4  5  1  0  0  0  0
  4  6  1  1  0  0  0
  5 28  1  6  0  0  0
  6  7  1  0  0  0  0
  7  8  1  0  0  0  0
  8  9  1  0  0  0  0
  9 10  1  0  0  0  0
 10 11  1  0  0  0  0
 12 11  1  0  0  0  0
 13 12  2  0  0  0  0
 14 13  1  0  0  0  0
 14 27  1  0  0  0  0
 15 14  2  0  0  0  0
 16 20  1  0  0  0  0
 18 19  1  0  0  0  0
 18 16  1  0  0  0  0
 19 22  1  0  0  0  0
 20 21  1  0  0  0  0
 20 17  2  0  0  0  0
 21 15  1  1  0  0  0
 22 23  1  6  0  0  0
 22 21  1  0  0  0  0
 23 25  1  0  0  0  0
 24 23  2  0  0  0  0
 26 27  1  0  0  0  0
 29 32  1  0  0  0  0
 29 31  1  0  0  0  0
 30 43  1  6  0  0  0
 31 30  1  0  0  0  0
 31 28  1  1  0  0  0
 32 38  1  6  0  0  0
 32 30  1  0  0  0  0
 33 35  1  0  0  0  0
 33 34  2  0  0  0  0
 34 38  1  0  0  0  0
 35 36  1  0  0  0  0
 36 38  2  0  0  0  0
 36 40  1  0  0  0  0
 37 35  1  0  0  0  0
 40 39  1  0  0  0  0
 42 43  2  0  0  0  0
 42 41  1  0  0  0  0
 43 44  1  0  0  0  0
 44 46  2  0  0  0  0
 45 41  1  0  0  0  0
 45 46  1  0  0  0  0
M  END
>  <MODEL>
6

>  <REMARK>
 VINA RESULT:      -6.3      2.029      4.394
  Name = 
  15 active torsions:
  status: ('A' for Active; 'I' for Inactive)
    1  A    between atoms: C_1  and  CA_43
    2  A    between atoms: C_4  and  C_31
    3  A    between atoms: N_5  and  C_17
    4  A    between atoms: N_5  and  C_18
    5  A    between atoms: C_8  and  C_34
    6  A    between atoms: C_8  and  C_35
    7  A    between atoms: C_15  and  C_27
    8  A    between atoms: C_17  and  C_45
    9  A    between atoms: C_20  and  O_29
   10  A    between atoms: C_27  and  C_41
   11  A    between atoms: C_32  and  C_42
   12  A    between atoms: C_33  and  C_39
   13  A    between atoms: C_34  and  C_45
   14  A    between atoms: C_36  and  O_40
   15  A    between atoms: C_37  and  O_40
                            x       y       z     vdW  Elec       q    Type
                         _______ _______ _______ _____ _____    ______ ____

>  <TORSDO>
F 15

$$$$
=
 OpenBabel11062422523D

 46 50  0  0  1  0  0  0  0  0999 V2000
  196.4340  176.3870  141.9510 N   0  0  0  0  0  2  0  0  0  0  0  0
  196.0730  176.8180  144.1540 N   0  0  0  0  0  2  0  0  0  0  0  0
  197.0580  176.7890  143.1510 N   0  0  0  0  0  2  0  0  0  0  0  0
  195.1350  175.7750  143.8070 C   0  0  2  0  0  3  0  0  0  0  0  0
  195.2580  175.6240  142.3270 C   0  0  2  0  0  3  0  0  0  0  0  0
  193.7220  176.1930  144.1750 C   0  0  0  0  0  2  0  0  0  0  0  0
  193.5250  176.1990  145.8160 C   0  0  0  0  0  2  0  0  0  0  0  0
  193.2850  176.6200  146.3040 O   0  0  0  0  0  0  0  0  0  0  0  0
  192.0740  176.5180  146.2720 C   0  0  0  0  0  2  0  0  0  0  0  0
  191.4270  176.3860  147.6090 C   0  0  0  0  0  2  0  0  0  0  0  0
  189.9840  176.5340  147.4840 N   0  0  0  0  0  2  0  0  0  0  0  0
  189.1090  175.4910  147.0410 C   0  0  0  0  0  3  0  0  0  0  0  0
  187.8690  175.6710  146.5660 C   0  0  0  0  0  3  0  0  0  0  0  0
  187.0790  176.9200  146.5450 C   0  0  0  0  0  0  0  0  0  0  0  0
  186.7440  177.4830  145.3800 C   0  0  0  0  0  3  0  0  0  0  0  0
  188.6810  177.9660  142.2410 O   0  0  0  0  0  0  0  0  0  0  0  0
  189.3940  177.9090  144.4200 O   0  0  0  0  0  0  0  0  0  0  0  0
  187.6200  177.9210  141.2910 C   0  0  0  0  0  2  0  0  0  0  0  0
  186.6840  176.8390  141.6080 N   0  0  0  0  0  2  0  0  0  0  0  0
  188.4710  177.6840  143.5920 C   0  0  0  0  0  0  0  0  0  0  0  0
  187.2100  176.9950  144.0340 C   0  0  2  0  0  3  0  0  0  0  0  0
  186.1170  177.0510  142.9440 C   0  0  1  0  0  3  0  0  0  0  0  0
  185.2250  178.2630  142.9860 C   0  0  0  0  0  0  0  0  0  0  0  0
  183.8410  178.1310  142.9810 O   0  0  0  0  0  0  0  0  0  0  0  0
  185.7400  179.4090  143.0410 O   0  0  0  0  0  1  0  0  0  0  0  0
  186.7230  178.9110  148.0130 C   0  0  0  0  0  1  0  0  0  0  0  0
  186.4280  177.4340  147.7950 C   0  0  0  0  0  2  0  0  0  0  0  0
  195.4420  174.2660  142.0080 O   0  0  0  0  0  0  0  0  0  0  0  0
  193.5520  174.8910  140.6700 N   0  0  0  0  0  2  0  0  0  0  0  0
  193.3260  172.9970  141.7330 C   0  0  1  0  0  3  0  0  0  0  0  0
  194.4460  173.8150  141.0980 C   0  0  2  0  0  3  0  0  0  0  0  0
  192.4310  174.1450  141.2440 C   0  0  2  0  0  3  0  0  0  0  0  0
  190.4180  173.3270  138.2660 C   0  0  0  0  0  3  0  0  0  0  0  0
  191.6120  173.7800  138.8130 C   0  0  0  0  0  3  0  0  0  0  0  0
  189.5350  173.0650  139.2480 N   0  0  0  0  0  0  0  0  0  0  0  0
  190.1390  173.3380  140.4230 C   0  0  0  0  0  0  0  0  0  0  0  0
  188.1900  172.5600  139.0220 C   0  0  0  0  0  1  0  0  0  0  0  0
  191.4160  173.7920  140.1860 C   0  0  0  0  0  0  0  0  0  0  0  0
  188.6300  174.0660  142.2620 C   0  0  0  0  0  1  0  0  0  0  0  0
  189.5880  173.1820  141.7010 O   0  0  0  0  0  0  0  0  0  0  0  0
  193.6040  170.0060  139.3820 C   0  0  0  0  0  2  0  0  0  0  0  0
  193.7900  171.3170  140.0070 N   0  0  0  0  0  0  0  0  0  0  0  0
  193.1020  171.6670  141.0570 C   0  0  0  0  0  0  0  0  0  0  0  0
  192.0600  170.8080  141.5470 N   0  0  0  0  0  0  0  0  0  0  0  0
  192.1350  169.5890  139.4440 C   0  0  0  0  0  2  0  0  0  0  0  0
  191.6160  169.8150  140.8340 C   0  0  0  0  0  3  0  0  0  0  0  0
  1  5  1  0  0  0  0
  1  3  1  0  0  0  0
  3  2  1  0  0  0  0
  4  2  1  0  0  0  0
  4  6  1  6  0  0  0
  5 28  1  1  0  0  0
  5  4  1  0  0  0  0
  6  7  1  0  0  0  0
  7  8  1  0  0  0  0
  9  8  1  0  0  0  0
  9 10  1  0  0  0  0
 11 10  1  0  0  0  0
 12 11  1  0  0  0  0
 13 12  2  0  0  0  0
 14 13  1  0  0  0  0
 14 27  1  0  0  0  0
 15 14  2  0  0  0  0
 16 20  1  0  0  0  0
 18 19  1  0  0  0  0
 18 16  1  0  0  0  0
 19 22  1  0  0  0  0
 20 21  1  0  0  0  0
 20 17  2  0  0  0  0
 21 15  1  1  0  0  0
 22 23  1  6  0  0  0
 22 21  1  0  0  0  0
 23 25  1  0  0  0  0
 24 23  2  0  0  0  0
 27 26  1  0  0  0  0
 29 31  1  0  0  0  0
 29 32  1  0  0  0  0
 30 43  1  6  0  0  0
 31 30  1  0  0  0  0
 31 28  1  1  0  0  0
 32 38  1  6  0  0  0
 32 30  1  0  0  0  0
 33 34  2  0  0  0  0
 33 35  1  0  0  0  0
 34 38  1  0  0  0  0
 35 36  1  0  0  0  0
 36 40  1  0  0  0  0
 37 35  1  0  0  0  0
 38 36  2  0  0  0  0
 40 39  1  0  0  0  0
 41 45  1  0  0  0  0
 41 42  1  0  0  0  0
 42 43  2  0  0  0  0
 43 44  1  0  0  0  0
 45 46  1  0  0  0  0
 46 44  2  0  0  0  0
M  END
>  <MODEL>
7

>  <REMARK>
 VINA RESULT:      -6.3      1.514      2.353
  Name = 
  15 active torsions:
  status: ('A' for Active; 'I' for Inactive)
    1  A    between atoms: C_1  and  CA_43
    2  A    between atoms: C_4  and  C_31
    3  A    between atoms: N_5  and  C_17
    4  A    between atoms: N_5  and  C_18
    5  A    between atoms: C_8  and  C_34
    6  A    between atoms: C_8  and  C_35
    7  A    between atoms: C_15  and  C_27
    8  A    between atoms: C_17  and  C_45
    9  A    between atoms: C_20  and  O_29
   10  A    between atoms: C_27  and  C_41
   11  A    between atoms: C_32  and  C_42
   12  A    between atoms: C_33  and  C_39
   13  A    between atoms: C_34  and  C_45
   14  A    between atoms: C_36  and  O_40
   15  A    between atoms: C_37  and  O_40
                            x       y       z     vdW  Elec       q    Type
                         _______ _______ _______ _____ _____    ______ ____

>  <TORSDO>
F 15

$$$$
=
 OpenBabel11062422523D

 46 50  0  0  1  0  0  0  0  0999 V2000
  196.4730  171.9960  144.6380 N   0  0  0  0  0  2  0  0  0  0  0  0
  197.0890  173.8420  145.8150 N   0  0  0  0  0  2  0  0  0  0  0  0
  197.4320  172.5060  145.5370 N   0  0  0  0  0  2  0  0  0  0  0  0
  195.6470  173.8930  145.7440 C   0  0  2  0  0  3  0  0  0  0  0  0
  195.2660  172.7800  144.8250 C   0  0  2  0  0  3  0  0  0  0  0  0
  195.1940  175.2240  145.1700 C   0  0  0  0  0  2  0  0  0  0  0  0
  193.5920  175.4810  145.4890 C   0  0  0  0  0  2  0  0  0  0  0  0
  192.9590  175.5370  145.2270 O   0  0  0  0  0  0  0  0  0  0  0  0
  192.9450  176.5790  144.6000 C   0  0  0  0  0  2  0  0  0  0  0  0
  192.3050  176.4850  143.2570 C   0  0  0  0  0  2  0  0  0  0  0  0
  190.9530  177.0240  143.3070 N   0  0  0  0  0  2  0  0  0  0  0  0
  190.5330  178.0450  144.2180 C   0  0  0  0  0  3  0  0  0  0  0  0
  189.7090  177.8620  145.2580 C   0  0  0  0  0  3  0  0  0  0  0  0
  188.9350  176.6490  145.6000 C   0  0  0  0  0  0  0  0  0  0  0  0
  187.6490  176.5520  145.2490 C   0  0  0  0  0  3  0  0  0  0  0  0
  184.4450  177.9230  143.9460 O   0  0  0  0  0  0  0  0  0  0  0  0
  185.0030  177.2320  146.0600 O   0  0  0  0  0  0  0  0  0  0  0  0
  184.7960  178.1010  142.5770 C   0  0  0  0  0  2  0  0  0  0  0  0
  186.1350  178.6850  142.4550 N   0  0  0  0  0  2  0  0  0  0  0  0
  185.3900  177.5500  144.9050 C   0  0  0  0  0  0  0  0  0  0  0  0
  186.8580  177.6580  144.6010 C   0  0  2  0  0  3  0  0  0  0  0  0
  187.1200  177.7990  143.0850 C   0  0  1  0  0  3  0  0  0  0  0  0
  187.2690  176.5040  142.3330 C   0  0  0  0  0  0  0  0  0  0  0  0
  186.6030  175.3570  142.7500 O   0  0  0  0  0  1  0  0  0  0  0  0
  187.9950  176.4640  141.3070 O   0  0  0  0  0  0  0  0  0  0  0  0
  190.2450  175.6540  147.4810 C   0  0  0  0  0  1  0  0  0  0  0  0
  189.6260  175.4200  146.1100 C   0  0  0  0  0  2  0  0  0  0  0  0
  194.2690  171.9920  145.4300 O   0  0  0  0  0  0  0  0  0  0  0  0
  193.6080  170.2600  143.9080 N   0  0  0  0  0  2  0  0  0  0  0  0
  193.3800  172.2880  143.1320 C   0  0  1  0  0  3  0  0  0  0  0  0
  193.3000  171.5730  144.4770 C   0  0  2  0  0  3  0  0  0  0  0  0
  193.6780  170.8830  142.5860 C   0  0  2  0  0  3  0  0  0  0  0  0
  190.8020  169.4190  140.8060 C   0  0  0  0  0  3  0  0  0  0  0  0
  191.4170  169.7600  142.0040 C   0  0  0  0  0  3  0  0  0  0  0  0
  191.6030  169.7380  139.7730 N   0  0  0  0  0  0  0  0  0  0  0  0
  192.7270  170.2820  140.2820 C   0  0  0  0  0  0  0  0  0  0  0  0
  191.2560  169.5260  138.3770 C   0  0  0  0  0  1  0  0  0  0  0  0
  192.6470  170.2990  141.6550 C   0  0  0  0  0  0  0  0  0  0  0  0
  194.8030  169.9540  138.9490 C   0  0  0  0  0  1  0  0  0  0  0  0
  193.8180  170.7770  139.5560 O   0  0  0  0  0  0  0  0  0  0  0  0
  189.7600  173.4910  143.0700 C   0  0  0  0  0  2  0  0  0  0  0  0
  191.0210  172.8680  143.4770 N   0  0  0  0  0  0  0  0  0  0  0  0
  192.0650  172.8860  142.6960 C   0  0  0  0  0  0  0  0  0  0  0  0
  191.9530  173.4210  141.3680 N   0  0  0  0  0  0  0  0  0  0  0  0
  189.5320  173.3060  141.5710 C   0  0  0  0  0  2  0  0  0  0  0  0
  190.7910  173.6580  140.8330 C   0  0  0  0  0  3  0  0  0  0  0  0
  1  5  1  0  0  0  0
  1  3  1  0  0  0  0
  3  2  1  0  0  0  0
  4  6  1  6  0  0  0
  4  2  1  0  0  0  0
  5 28  1  1  0  0  0
  5  4  1  0  0  0  0
  6  7  1  0  0  0  0
  8  7  1  0  0  0  0
  9  8  1  0  0  0  0
 10 11  1  0  0  0  0
 10  9  1  0  0  0  0
 11 12  1  0  0  0  0
 12 13  2  0  0  0  0
 13 14  1  0  0  0  0
 14 27  1  0  0  0  0
 15 14  2  0  0  0  0
 16 20  1  0  0  0  0
 18 16  1  0  0  0  0
 19 18  1  0  0  0  0
 19 22  1  0  0  0  0
 20 17  2  0  0  0  0
 21 20  1  0  0  0  0
 21 15  1  6  0  0  0
 22 23  1  6  0  0  0
 22 21  1  0  0  0  0
 23 24  1  0  0  0  0
 25 23  2  0  0  0  0
 27 26  1  0  0  0  0
 29 31  1  0  0  0  0
 30 43  1  6  0  0  0
 30 31  1  0  0  0  0
 31 28  1  1  0  0  0
 32 38  1  6  0  0  0
 32 30  1  0  0  0  0
 32 29  1  0  0  0  0
 33 34  2  0  0  0  0
 35 36  1  0  0  0  0
 35 33  1  0  0  0  0
 36 38  2  0  0  0  0
 37 35  1  0  0  0  0
 38 34  1  0  0  0  0
 39 40  1  0  0  0  0
 40 36  1  0  0  0  0
 41 42  1  0  0  0  0
 43 42  2  0  0  0  0
 44 43  1  0  0  0  0
 45 41  1  0  0  0  0
 46 44  2  0  0  0  0
 46 45  1  0  0  0  0
M  END
>  <MODEL>
8

>  <REMARK>
 VINA RESULT:      -6.2      2.095      3.401
  Name = 
  15 active torsions:
  status: ('A' for Active; 'I' for Inactive)
    1  A    between atoms: C_1  and  CA_43
    2  A    between atoms: C_4  and  C_31
    3  A    between atoms: N_5  and  C_17
    4  A    between atoms: N_5  and  C_18
    5  A    between atoms: C_8  and  C_34
    6  A    between atoms: C_8  and  C_35
    7  A    between atoms: C_15  and  C_27
    8  A    between atoms: C_17  and  C_45
    9  A    between atoms: C_20  and  O_29
   10  A    between atoms: C_27  and  C_41
   11  A    between atoms: C_32  and  C_42
   12  A    between atoms: C_33  and  C_39
   13  A    between atoms: C_34  and  C_45
   14  A    between atoms: C_36  and  O_40
   15  A    between atoms: C_37  and  O_40
                            x       y       z     vdW  Elec       q    Type
                         _______ _______ _______ _____ _____    ______ ____

>  <TORSDO>
F 15

$$$$
=
 OpenBabel11062422523D

 46 50  0  0  1  0  0  0  0  0999 V2000
  195.7050  172.8080  142.5520 N   0  0  0  0  0  2  0  0  0  0  0  0
  195.6740  173.8160  144.5890 N   0  0  0  0  0  2  0  0  0  0  0  0
  196.5020  173.1610  143.6600 N   0  0  0  0  0  2  0  0  0  0  0  0
  194.3690  173.2150  144.4370 C   0  0  2  0  0  3  0  0  0  0  0  0
  194.3390  172.7100  143.0330 C   0  0  2  0  0  3  0  0  0  0  0  0
  193.2810  174.2540  144.6430 C   0  0  0  0  0  2  0  0  0  0  0  0
  193.0020  174.4950  146.2540 C   0  0  0  0  0  2  0  0  0  0  0  0
  192.7690  175.1010  146.0290 O   0  0  0  0  0  0  0  0  0  0  0  0
  191.6840  175.2610  146.5550 C   0  0  0  0  0  2  0  0  0  0  0  0
  191.4630  176.6240  147.1160 C   0  0  0  0  0  2  0  0  0  0  0  0
  190.0480  176.8280  147.3930 N   0  0  0  0  0  2  0  0  0  0  0  0
  189.0490  175.8140  147.2400 C   0  0  0  0  0  3  0  0  0  0  0  0
  187.8000  176.0180  146.8000 C   0  0  0  0  0  3  0  0  0  0  0  0
  187.1300  177.3110  146.5400 C   0  0  0  0  0  0  0  0  0  0  0  0
  186.9010  177.7070  145.2850 C   0  0  0  0  0  3  0  0  0  0  0  0
  188.8670  177.5840  142.1290 O   0  0  0  0  0  0  0  0  0  0  0  0
  189.5600  177.9400  144.2860 O   0  0  0  0  0  0  0  0  0  0  0  0
  187.8140  177.3620  141.1950 C   0  0  0  0  0  2  0  0  0  0  0  0
  186.8720  176.3600  141.7030 N   0  0  0  0  0  2  0  0  0  0  0  0
  188.6440  177.5640  143.5070 C   0  0  0  0  0  0  0  0  0  0  0  0
  187.3770  176.9730  144.0600 C   0  0  2  0  0  3  0  0  0  0  0  0
  186.2930  176.8230  142.9690 C   0  0  1  0  0  3  0  0  0  0  0  0
  185.4050  178.0220  142.7730 C   0  0  0  0  0  0  0  0  0  0  0  0
  184.0300  177.9270  142.9550 O   0  0  0  0  0  1  0  0  0  0  0  0
  185.9160  179.1260  142.4540 O   0  0  0  0  0  0  0  0  0  0  0  0
  185.4390  179.0530  147.1320 C   0  0  0  0  0  1  0  0  0  0  0  0
  186.4770  178.0710  147.6560 C   0  0  0  0  0  2  0  0  0  0  0  0
  193.9220  171.3650  143.0260 O   0  0  0  0  0  0  0  0  0  0  0  0
  193.1460  170.3640  140.9900 N   0  0  0  0  0  2  0  0  0  0  0  0
  192.4410  172.4020  141.3250 C   0  0  1  0  0  3  0  0  0  0  0  0
  192.8110  171.1790  142.1580 C   0  0  2  0  0  3  0  0  0  0  0  0
  192.7860  171.4950  140.1350 C   0  0  2  0  0  3  0  0  0  0  0  0
  189.7730  170.3200  138.3680 C   0  0  0  0  0  3  0  0  0  0  0  0
  190.6040  170.2630  139.4800 C   0  0  0  0  0  3  0  0  0  0  0  0
  190.2670  171.1930  137.4710 N   0  0  0  0  0  0  0  0  0  0  0  0
  191.4050  171.7030  137.9840 C   0  0  0  0  0  0  0  0  0  0  0  0
  189.6330  171.5020  136.1990 C   0  0  0  0  0  1  0  0  0  0  0  0
  191.6450  171.1410  139.2160 C   0  0  0  0  0  0  0  0  0  0  0  0
  192.0130  174.0660  137.4930 C   0  0  0  0  0  1  0  0  0  0  0  0
  192.2300  172.6670  137.3900 O   0  0  0  0  0  0  0  0  0  0  0  0
  188.7930  172.5840  142.4250 C   0  0  0  0  0  2  0  0  0  0  0  0
  190.1910  172.1750  142.2770 N   0  0  0  0  0  0  0  0  0  0  0  0
  190.9870  172.7880  141.4460 C   0  0  0  0  0  0  0  0  0  0  0  0
  190.4660  173.8050  140.5750 N   0  0  0  0  0  0  0  0  0  0  0  0
  188.2180  173.0230  141.0790 C   0  0  0  0  0  2  0  0  0  0  0  0
  189.1840  173.9580  140.4120 C   0  0  0  0  0  3  0  0  0  0  0  0
  1  5  1  0  0  0  0
  1  3  1  0  0  0  0
  3  2  1  0  0  0  0
  4  2  1  0  0  0  0
  4  6  1  6  0  0  0
  5 28  1  1  0  0  0
  5  4  1  0  0  0  0
  6  7  1  0  0  0  0
  8  7  1  0  0  0  0
  8  9  1  0  0  0  0
  9 10  1  0  0  0  0
 10 11  1  0  0  0  0
 12 11  1  0  0  0  0
 13 12  2  0  0  0  0
 14 13  1  0  0  0  0
 14 27  1  0  0  0  0
 15 14  2  0  0  0  0
 16 20  1  0  0  0  0
 18 19  1  0  0  0  0
 18 16  1  0  0  0  0
 19 22  1  0  0  0  0
 20 21  1  0  0  0  0
 20 17  2  0  0  0  0
 21 15  1  1  0  0  0
 22 23  1  6  0  0  0
 22 21  1  0  0  0  0
 23 24  1  0  0  0  0
 25 23  2  0  0  0  0
 26 27  1  0  0  0  0
 29 31  1  0  0  0  0
 30 43  1  6  0  0  0
 30 31  1  0  0  0  0
 31 28  1  1  0  0  0
 32 38  1  6  0  0  0
 32 29  1  0  0  0  0
 32 30  1  0  0  0  0
 33 34  2  0  0  0  0
 35 36  1  0  0  0  0
 35 33  1  0  0  0  0
 36 38  2  0  0  0  0
 37 35  1  0  0  0  0
 38 34  1  0  0  0  0
 40 39  1  0  0  0  0
 40 36  1  0  0  0  0
 42 41  1  0  0  0  0
 43 42  2  0  0  0  0
 44 43  1  0  0  0  0
 45 41  1  0  0  0  0
 46 44  2  0  0  0  0
 46 45  1  0  0  0  0
M  END
>  <MODEL>
9

>  <REMARK>
 VINA RESULT:      -6.2      1.771      2.445
  Name = 
  15 active torsions:
  status: ('A' for Active; 'I' for Inactive)
    1  A    between atoms: C_1  and  CA_43
    2  A    between atoms: C_4  and  C_31
    3  A    between atoms: N_5  and  C_17
    4  A    between atoms: N_5  and  C_18
    5  A    between atoms: C_8  and  C_34
    6  A    between atoms: C_8  and  C_35
    7  A    between atoms: C_15  and  C_27
    8  A    between atoms: C_17  and  C_45
    9  A    between atoms: C_20  and  O_29
   10  A    between atoms: C_27  and  C_41
   11  A    between atoms: C_32  and  C_42
   12  A    between atoms: C_33  and  C_39
   13  A    between atoms: C_34  and  C_45
   14  A    between atoms: C_36  and  O_40
   15  A    between atoms: C_37  and  O_40
                            x       y       z     vdW  Elec       q    Type
                         _______ _______ _______ _____ _____    ______ ____

>  <TORSDO>
F 15

$$$$
