=
 OpenBabel11062421013D

 38 43  0  0  1  0  0  0  0  0999 V2000
  191.2980  176.3920  144.7240 C   0  0  0  0  0  0  0  0  0  0  0  0
  189.9890  176.6510  144.8710 N   0  0  0  0  0  0  0  0  0  0  0  0
  191.0720  176.9050  146.8680 C   0  0  0  0  0  3  0  0  0  0  0  0
  191.9790  176.5460  145.8940 C   0  0  1  0  0  3  0  0  0  0  0  0
  194.1150  176.2330  144.6560 C   0  0  1  0  0  3  0  0  0  0  0  0
  191.9680  175.9150  143.5130 C   0  0  0  0  0  0  0  0  0  0  0  0
  194.0600  177.0130  146.9300 O   0  0  0  0  0  1  0  0  0  0  0  0
  193.2670  175.7940  143.5300 N   0  0  0  0  0  0  0  0  0  0  0  0
  193.4170  176.1580  146.0340 C   0  0  1  0  0  3  0  0  0  0  0  0
  189.8690  176.9850  146.1750 C   0  0  0  0  0  0  0  0  0  0  0  0
  195.3750  175.4960  144.6550 N   0  0  0  0  0  0  0  0  0  0  0  0
  197.5160  175.1600  143.7780 O   0  0  0  0  0  0  0  0  0  0  0  0
  196.4470  175.8300  143.7590 C   0  0  0  0  0  0  0  0  0  0  0  0
  196.3050  176.9000  142.8700 O   0  0  0  0  0  0  0  0  0  0  0  0
  196.1690  176.7020  141.4700 C   0  0  0  0  0  1  0  0  0  0  0  0
  195.5670  174.1880  145.8300 S   0  0  0  0  0  0  0  0  0  0  0  0
  193.4960  172.5770  145.1240 C   0  0  0  0  0  2  0  0  0  0  0  0
  194.8950  172.9490  144.6830 C   0  0  0  0  0  3  0  0  0  0  0  0
  194.6560  171.6540  145.4300 C   0  0  0  0  0  2  0  0  0  0  0  0
  191.2020  175.5590  142.3920 O   0  0  0  0  0  0  0  0  0  0  0  0
  189.5060  172.2450  142.5380 C   0  0  0  0  0  3  0  0  0  0  0  0
  187.9510  173.9030  141.8570 C   0  0  0  0  0  3  0  0  0  0  0  0
  190.2340  174.5430  142.3280 C   0  0  0  0  0  0  0  0  0  0  0  0
  188.2530  172.6120  142.1570 N   0  0  0  0  0  0  0  0  0  0  0  0
  190.5180  173.2030  142.6290 C   0  0  0  0  0  3  0  0  0  0  0  0
  188.9380  174.8890  141.9360 C   0  0  0  0  0  3  0  0  0  0  0  0
  188.5630  177.3200  146.8050 C   0  0  0  0  0  2  0  0  0  0  0  0
  187.5660  177.5570  145.7750 N   0  0  0  0  0  2  0  0  0  0  0  0
  186.3300  177.9210  146.4520 C   0  0  1  0  0  3  0  0  0  0  0  0
  186.6460  178.4220  147.8590 C   0  0  0  0  0  2  0  0  0  0  0  0
  186.2610  179.7550  148.0070 O   0  0  0  0  0  1  0  0  0  0  0  0
  184.0600  178.7010  145.7360 C   0  0  0  0  0  1  0  0  0  0  0  0
  185.5550  178.9670  145.6420 C   0  0  2  0  0  3  0  0  0  0  0  0
  185.9370  178.9160  144.2990 O   0  0  0  0  0  0  0  0  0  0  0  0
  185.5580  177.0860  142.8160 C   0  0  2  0  0  3  0  0  0  0  0  0
  185.0530  178.3440  142.1520 C   0  0  1  0  0  3  0  0  0  0  0  0
  184.9330  178.1850  143.6580 C   0  0  2  0  0  3  0  0  0  0  0  0
  186.3450  177.7060  141.6770 C   0  0  0  0  0  2  0  0  0  0  0  0
  1  2  2  0  0  0  0
  1  4  1  0  0  0  0
  2 10  1  0  0  0  0
  4  9  1  0  0  0  0
  4  3  1  1  0  0  0
  5 11  1  1  0  0  0
  5  9  1  0  0  0  0
  6  8  2  0  0  0  0
  6  1  1  0  0  0  0
  8  5  1  0  0  0  0
  9  7  1  1  0  0  0
 10 27  1  0  0  0  0
 10  3  2  0  0  0  0
 11 16  1  0  0  0  0
 13 12  2  0  0  0  0
 13 11  1  0  0  0  0
 14 13  1  0  0  0  0
 15 14  1  0  0  0  0
 17 19  1  0  0  0  0
 18 17  1  0  0  0  0
 18 19  1  0  0  0  0
 18 16  1  0  0  0  0
 20  6  1  0  0  0  0
 21 25  1  0  0  0  0
 22 26  2  0  0  0  0
 22 24  1  0  0  0  0
 23 20  1  0  0  0  0
 23 25  2  0  0  0  0
 24 21  2  0  0  0  0
 26 23  1  0  0  0  0
 28 29  1  0  0  0  0
 28 27  1  0  0  0  0
 29 30  1  1  0  0  0
 30 31  1  0  0  0  0
 33 32  1  6  0  0  0
 33 29  1  0  0  0  0
 34 33  1  0  0  0  0
 35 38  1  1  0  0  0
 35 37  1  0  0  0  0
 36 38  1  1  0  0  0
 36 35  1  0  0  0  0
 36 37  1  0  0  0  0
 37 34  1  1  0  0  0
M  END
>  <MODEL>
1

>  <REMARK>
 VINA RESULT:      -7.0      0.000      0.000
  Name = 
  13 active torsions:
  status: ('A' for Active; 'I' for Inactive)
    1  A    between atoms: O_2  and  C_27
    2  A    between atoms: O_7  and  C_18
    3  A    between atoms: O_7  and  C_20
    4  A    between atoms: C_9  and  N_16
    5  A    between atoms: C_11  and  CA_12
    6  A    between atoms: CA_12  and  N_28
    7  A    between atoms: CA_12  and  C_36
    8  A    between atoms: O_15  and  C_25
    9  A    between atoms: O_15  and  C_36
   10  A    between atoms: N_16  and  S_17
   11  A    between atoms: S_17  and  C_24
   12  A    between atoms: N_28  and  C_31
   13  A    between atoms: C_31  and  C_34
                            x       y       z     vdW  Elec       q    Type
                         _______ _______ _______ _____ _____    ______ ____

>  <TORSDO>
F 13

$$$$
=
 OpenBabel11062421013D

 38 43  0  0  1  0  0  0  0  0999 V2000
  189.4160  175.6350  142.4570 C   0  0  0  0  0  0  0  0  0  0  0  0
  188.2100  175.6590  141.8660 N   0  0  0  0  0  0  0  0  0  0  0  0
  188.8340  177.7730  142.4720 C   0  0  0  0  0  3  0  0  0  0  0  0
  189.8260  176.8820  142.8210 C   0  0  1  0  0  3  0  0  0  0  0  0
  192.0490  175.9400  143.4270 C   0  0  1  0  0  3  0  0  0  0  0  0
  190.2100  174.4500  142.7820 C   0  0  0  0  0  0  0  0  0  0  0  0
  191.6630  178.3090  143.2810 O   0  0  0  0  0  1  0  0  0  0  0  0
  191.4010  174.6210  143.2860 N   0  0  0  0  0  0  0  0  0  0  0  0
  191.0560  177.1060  143.6430 C   0  0  1  0  0  3  0  0  0  0  0  0
  187.8780  176.9690  141.8610 C   0  0  0  0  0  0  0  0  0  0  0  0
  193.0590  175.8970  144.4800 N   0  0  0  0  0  0  0  0  0  0  0  0
  195.2020  175.2990  145.1970 O   0  0  0  0  0  0  0  0  0  0  0  0
  194.3610  175.3310  144.2570 C   0  0  0  0  0  0  0  0  0  0  0  0
  194.6940  174.8220  142.9980 O   0  0  0  0  0  0  0  0  0  0  0  0
  196.0330  174.5070  142.6450 C   0  0  0  0  0  1  0  0  0  0  0  0
  192.6480  176.6040  146.0480 S   0  0  0  0  0  0  0  0  0  0  0  0
  190.4580  175.1440  146.7230 C   0  0  0  0  0  2  0  0  0  0  0  0
  191.9670  175.0370  146.6680 C   0  0  0  0  0  3  0  0  0  0  0  0
  191.2720  175.2830  147.9910 C   0  0  0  0  0  2  0  0  0  0  0  0
  189.6600  173.1720  142.5920 O   0  0  0  0  0  0  0  0  0  0  0  0
  189.7180  171.7130  139.1650 C   0  0  0  0  0  3  0  0  0  0  0  0
  190.8000  170.2370  140.6740 C   0  0  0  0  0  3  0  0  0  0  0  0
  189.8880  172.3160  141.5020 C   0  0  0  0  0  0  0  0  0  0  0  0
  190.3780  170.5520  139.4210 N   0  0  0  0  0  0  0  0  0  0  0  0
  189.4610  172.6140  140.2000 C   0  0  0  0  0  3  0  0  0  0  0  0
  190.5610  171.1140  141.7350 C   0  0  0  0  0  3  0  0  0  0  0  0
  186.5840  177.4710  141.3260 C   0  0  0  0  0  2  0  0  0  0  0  0
  185.5110  177.1520  142.2530 N   0  0  0  0  0  2  0  0  0  0  0  0
  184.7200  178.3630  142.4240 C   0  0  1  0  0  3  0  0  0  0  0  0
  183.3310  178.1530  141.8290 C   0  0  0  0  0  2  0  0  0  0  0  0
  183.3320  178.4280  140.4600 O   0  0  0  0  0  1  0  0  0  0  0  0
  185.3620  180.0830  144.1260 C   0  0  0  0  0  1  0  0  0  0  0  0
  184.6470  178.7590  143.9030 C   0  0  2  0  0  3  0  0  0  0  0  0
  185.2540  177.7800  144.6950 O   0  0  0  0  0  0  0  0  0  0  0  0
  187.3570  177.6570  145.8140 C   0  0  2  0  0  3  0  0  0  0  0  0
  186.2690  177.7190  146.8590 C   0  0  1  0  0  3  0  0  0  0  0  0
  186.1070  178.4790  145.5540 C   0  0  2  0  0  3  0  0  0  0  0  0
  186.9900  176.4100  146.5960 C   0  0  0  0  0  2  0  0  0  0  0  0
  1  6  1  0  0  0  0
  1  4  1  0  0  0  0
  2  1  2  0  0  0  0
  4  3  1  1  0  0  0
  4  9  1  0  0  0  0
  5  9  1  0  0  0  0
  5 11  1  1  0  0  0
  6  8  2  0  0  0  0
  8  5  1  0  0  0  0
  9  7  1  6  0  0  0
 10  2  1  0  0  0  0
 10  3  2  0  0  0  0
 11 16  1  0  0  0  0
 13 11  1  0  0  0  0
 13 12  2  0  0  0  0
 14 13  1  0  0  0  0
 15 14  1  0  0  0  0
 16 18  1  0  0  0  0
 17 19  1  0  0  0  0
 18 17  1  0  0  0  0
 18 19  1  0  0  0  0
 20  6  1  0  0  0  0
 21 24  2  0  0  0  0
 21 25  1  0  0  0  0
 22 26  2  0  0  0  0
 23 26  1  0  0  0  0
 23 20  1  0  0  0  0
 24 22  1  0  0  0  0
 25 23  2  0  0  0  0
 27 10  1  0  0  0  0
 27 28  1  0  0  0  0
 28 29  1  0  0  0  0
 29 30  1  1  0  0  0
 29 33  1  0  0  0  0
 31 30  1  0  0  0  0
 33 32  1  6  0  0  0
 33 34  1  0  0  0  0
 35 38  1  6  0  0  0
 35 36  1  0  0  0  0
 36 38  1  6  0  0  0
 37 34  1  6  0  0  0
 37 35  1  0  0  0  0
 37 36  1  0  0  0  0
M  END
>  <MODEL>
2

>  <REMARK>
 VINA RESULT:      -6.8      2.256      3.970
  Name = 
  13 active torsions:
  status: ('A' for Active; 'I' for Inactive)
    1  A    between atoms: O_2  and  C_27
    2  A    between atoms: O_7  and  C_18
    3  A    between atoms: O_7  and  C_20
    4  A    between atoms: C_9  and  N_16
    5  A    between atoms: C_11  and  CA_12
    6  A    between atoms: CA_12  and  N_28
    7  A    between atoms: CA_12  and  C_36
    8  A    between atoms: O_15  and  C_25
    9  A    between atoms: O_15  and  C_36
   10  A    between atoms: N_16  and  S_17
   11  A    between atoms: S_17  and  C_24
   12  A    between atoms: N_28  and  C_31
   13  A    between atoms: C_31  and  C_34
                            x       y       z     vdW  Elec       q    Type
                         _______ _______ _______ _____ _____    ______ ____

>  <TORSDO>
F 13

$$$$
=
 OpenBabel11062421013D

 38 43  0  0  1  0  0  0  0  0999 V2000
  189.1460  175.6360  142.3100 C   0  0  0  0  0  0  0  0  0  0  0  0
  187.8220  175.7810  142.1390 N   0  0  0  0  0  0  0  0  0  0  0  0
  188.7380  177.7350  142.8950 C   0  0  0  0  0  3  0  0  0  0  0  0
  189.7290  176.7870  142.7480 C   0  0  1  0  0  3  0  0  0  0  0  0
  191.9630  175.7320  142.4470 C   0  0  1  0  0  3  0  0  0  0  0  0
  189.9220  174.4060  142.1490 C   0  0  0  0  0  0  0  0  0  0  0  0
  191.7080  178.0870  142.8640 O   0  0  0  0  0  1  0  0  0  0  0  0
  191.2190  174.4690  142.2780 N   0  0  0  0  0  0  0  0  0  0  0  0
  191.1630  176.8410  143.1710 C   0  0  1  0  0  3  0  0  0  0  0  0
  187.5910  177.0690  142.4760 C   0  0  0  0  0  0  0  0  0  0  0  0
  193.2410  175.4810  143.1060 N   0  0  0  0  0  0  0  0  0  0  0  0
  195.5770  175.5460  143.0700 O   0  0  0  0  0  0  0  0  0  0  0  0
  194.4930  175.7930  142.4740 C   0  0  0  0  0  0  0  0  0  0  0  0
  194.5070  176.3730  141.2020 O   0  0  0  0  0  0  0  0  0  0  0  0
  194.8510  175.6320  140.0410 C   0  0  0  0  0  1  0  0  0  0  0  0
  193.2090  174.8080  144.7420 S   0  0  0  0  0  0  0  0  0  0  0  0
  194.3910  176.4550  146.5500 C   0  0  0  0  0  2  0  0  0  0  0  0
  193.2920  176.4530  145.5080 C   0  0  0  0  0  3  0  0  0  0  0  0
  192.9430  176.3390  146.9770 C   0  0  0  0  0  2  0  0  0  0  0  0
  189.2570  173.1930  141.9100 O   0  0  0  0  0  0  0  0  0  0  0  0
  190.5280  170.6500  139.5030 C   0  0  0  0  0  3  0  0  0  0  0  0
  190.7700  169.8360  141.7190 C   0  0  0  0  0  3  0  0  0  0  0  0
  189.8140  172.0270  141.3600 C   0  0  0  0  0  0  0  0  0  0  0  0
  190.9140  169.6810  140.3750 N   0  0  0  0  0  0  0  0  0  0  0  0
  189.9720  171.8380  139.9790 C   0  0  0  0  0  3  0  0  0  0  0  0
  190.2170  171.0110  142.2320 C   0  0  0  0  0  3  0  0  0  0  0  0
  186.2310  177.6730  142.4730 C   0  0  0  0  0  2  0  0  0  0  0  0
  185.4940  177.2310  143.6440 N   0  0  0  0  0  2  0  0  0  0  0  0
  185.8850  178.0970  144.7480 C   0  0  1  0  0  3  0  0  0  0  0  0
  184.8440  179.1970  144.9280 C   0  0  0  0  0  2  0  0  0  0  0  0
  183.7130  178.7050  145.5820 O   0  0  0  0  0  1  0  0  0  0  0  0
  186.5410  178.1920  147.1620 C   0  0  0  0  0  1  0  0  0  0  0  0
  186.0760  177.2850  146.0340 C   0  0  2  0  0  3  0  0  0  0  0  0
  187.0340  176.2860  145.8350 O   0  0  0  0  0  0  0  0  0  0  0  0
  189.3710  176.2300  146.3100 C   0  0  2  0  0  3  0  0  0  0  0  0
  188.6950  175.1630  147.1380 C   0  0  1  0  0  3  0  0  0  0  0  0
  187.9730  176.4690  146.8540 C   0  0  2  0  0  3  0  0  0  0  0  0
  189.5230  174.7700  145.9300 C   0  0  0  0  0  2  0  0  0  0  0  0
  1  4  1  0  0  0  0
  2  1  2  0  0  0  0
  2 10  1  0  0  0  0
  4  3  1  1  0  0  0
  4  9  1  0  0  0  0
  5 11  1  1  0  0  0
  5  9  1  0  0  0  0
  6  8  2  0  0  0  0
  6  1  1  0  0  0  0
  8  5  1  0  0  0  0
  9  7  1  6  0  0  0
 10  3  2  0  0  0  0
 11 16  1  0  0  0  0
 13 12  2  0  0  0  0
 13 11  1  0  0  0  0
 14 13  1  0  0  0  0
 15 14  1  0  0  0  0
 16 18  1  0  0  0  0
 17 19  1  0  0  0  0
 18 17  1  0  0  0  0
 18 19  1  0  0  0  0
 20  6  1  0  0  0  0
 21 25  2  0  0  0  0
 21 24  1  0  0  0  0
 22 26  1  0  0  0  0
 23 20  1  0  0  0  0
 23 26  2  0  0  0  0
 24 22  2  0  0  0  0
 25 23  1  0  0  0  0
 27 10  1  0  0  0  0
 27 28  1  0  0  0  0
 28 29  1  0  0  0  0
 29 30  1  1  0  0  0
 29 33  1  0  0  0  0
 30 31  1  0  0  0  0
 33 32  1  1  0  0  0
 34 33  1  0  0  0  0
 35 38  1  6  0  0  0
 35 37  1  0  0  0  0
 35 36  1  0  0  0  0
 36 38  1  6  0  0  0
 37 34  1  6  0  0  0
 37 36  1  0  0  0  0
M  END
>  <MODEL>
3

>  <REMARK>
 VINA RESULT:      -6.7      2.257      3.828
  Name = 
  13 active torsions:
  status: ('A' for Active; 'I' for Inactive)
    1  A    between atoms: O_2  and  C_27
    2  A    between atoms: O_7  and  C_18
    3  A    between atoms: O_7  and  C_20
    4  A    between atoms: C_9  and  N_16
    5  A    between atoms: C_11  and  CA_12
    6  A    between atoms: CA_12  and  N_28
    7  A    between atoms: CA_12  and  C_36
    8  A    between atoms: O_15  and  C_25
    9  A    between atoms: O_15  and  C_36
   10  A    between atoms: N_16  and  S_17
   11  A    between atoms: S_17  and  C_24
   12  A    between atoms: N_28  and  C_31
   13  A    between atoms: C_31  and  C_34
                            x       y       z     vdW  Elec       q    Type
                         _______ _______ _______ _____ _____    ______ ____

>  <TORSDO>
F 13

$$$$
=
 OpenBabel11062421013D

 38 43  0  0  1  0  0  0  0  0999 V2000
  189.3320  175.8310  142.4800 C   0  0  0  0  0  0  0  0  0  0  0  0
  188.1380  175.8430  141.8660 N   0  0  0  0  0  0  0  0  0  0  0  0
  188.8070  177.9790  142.3310 C   0  0  0  0  0  3  0  0  0  0  0  0
  189.7690  177.0900  142.7610 C   0  0  1  0  0  3  0  0  0  0  0  0
  191.9550  176.1370  143.4750 C   0  0  1  0  0  3  0  0  0  0  0  0
  190.0890  174.6520  142.9040 C   0  0  0  0  0  0  0  0  0  0  0  0
  191.6360  178.4990  143.1530 O   0  0  0  0  0  1  0  0  0  0  0  0
  191.2750  174.8280  143.4160 N   0  0  0  0  0  0  0  0  0  0  0  0
  190.9900  177.3410  143.5880 C   0  0  1  0  0  3  0  0  0  0  0  0
  187.8410  177.1570  141.7610 C   0  0  0  0  0  0  0  0  0  0  0  0
  192.9460  176.1440  144.5470 N   0  0  0  0  0  0  0  0  0  0  0  0
  193.4490  176.1610  146.8290 O   0  0  0  0  0  0  0  0  0  0  0  0
  192.5630  176.1390  145.9320 C   0  0  0  0  0  0  0  0  0  0  0  0
  191.2100  176.1080  146.2810 O   0  0  0  0  0  0  0  0  0  0  0  0
  190.7120  175.2340  147.2840 C   0  0  0  0  0  1  0  0  0  0  0  0
  194.6550  176.1170  144.0920 S   0  0  0  0  0  0  0  0  0  0  0  0
  195.0480  174.9680  141.6610 C   0  0  0  0  0  2  0  0  0  0  0  0
  194.2660  176.0860  142.3170 C   0  0  0  0  0  3  0  0  0  0  0  0
  195.5180  176.4000  141.5260 C   0  0  0  0  0  2  0  0  0  0  0  0
  189.5070  173.3790  142.7950 O   0  0  0  0  0  0  0  0  0  0  0  0
  190.2810  171.3970  139.7370 C   0  0  0  0  0  3  0  0  0  0  0  0
  190.7540  170.0980  141.6640 C   0  0  0  0  0  3  0  0  0  0  0  0
  189.9090  172.3460  141.9310 C   0  0  0  0  0  0  0  0  0  0  0  0
  190.7110  170.2430  140.3130 N   0  0  0  0  0  0  0  0  0  0  0  0
  189.8720  172.4670  140.5340 C   0  0  0  0  0  3  0  0  0  0  0  0
  190.3530  171.1470  142.4950 C   0  0  0  0  0  3  0  0  0  0  0  0
  186.5700  177.6520  141.1670 C   0  0  0  0  0  2  0  0  0  0  0  0
  185.4430  177.1890  141.9590 N   0  0  0  0  0  2  0  0  0  0  0  0
  184.6640  178.3640  142.3230 C   0  0  1  0  0  3  0  0  0  0  0  0
  183.2240  178.1880  141.8500 C   0  0  0  0  0  2  0  0  0  0  0  0
  183.1570  178.1940  140.4560 O   0  0  0  0  0  1  0  0  0  0  0  0
  185.4210  179.9450  144.1100 C   0  0  0  0  0  1  0  0  0  0  0  0
  184.7360  178.6160  143.8330 C   0  0  2  0  0  3  0  0  0  0  0  0
  185.4600  177.5970  144.4580 O   0  0  0  0  0  0  0  0  0  0  0  0
  187.4960  177.7230  145.6960 C   0  0  2  0  0  3  0  0  0  0  0  0
  186.4310  177.1450  146.5960 C   0  0  1  0  0  3  0  0  0  0  0  0
  186.0600  178.2000  145.5680 C   0  0  2  0  0  3  0  0  0  0  0  0
  187.5110  176.2440  146.0290 C   0  0  0  0  0  2  0  0  0  0  0  0
  1  4  1  0  0  0  0
  1  6  1  0  0  0  0
  2  1  2  0  0  0  0
  4  3  1  1  0  0  0
  4  9  1  0  0  0  0
  5  9  1  0  0  0  0
  5 11  1  1  0  0  0
  6  8  2  0  0  0  0
  8  5  1  0  0  0  0
  9  7  1  6  0  0  0
 10  2  1  0  0  0  0
 10  3  2  0  0  0  0
 11 13  1  0  0  0  0
 13 14  1  0  0  0  0
 13 12  2  0  0  0  0
 14 15  1  0  0  0  0
 16 11  1  0  0  0  0
 17 18  1  0  0  0  0
 18 16  1  0  0  0  0
 19 17  1  0  0  0  0
 19 18  1  0  0  0  0
 20  6  1  0  0  0  0
 21 24  2  0  0  0  0
 21 25  1  0  0  0  0
 22 26  2  0  0  0  0
 23 26  1  0  0  0  0
 23 20  1  0  0  0  0
 24 22  1  0  0  0  0
 25 23  2  0  0  0  0
 27 10  1  0  0  0  0
 27 28  1  0  0  0  0
 28 29  1  0  0  0  0
 29 30  1  1  0  0  0
 29 33  1  0  0  0  0
 31 30  1  0  0  0  0
 33 32  1  6  0  0  0
 33 34  1  0  0  0  0
 35 38  1  6  0  0  0
 35 36  1  0  0  0  0
 36 38  1  6  0  0  0
 37 34  1  6  0  0  0
 37 35  1  0  0  0  0
 37 36  1  0  0  0  0
M  END
>  <MODEL>
4

>  <REMARK>
 VINA RESULT:      -6.7      2.462      4.375
  Name = 
  13 active torsions:
  status: ('A' for Active; 'I' for Inactive)
    1  A    between atoms: O_2  and  C_27
    2  A    between atoms: O_7  and  C_18
    3  A    between atoms: O_7  and  C_20
    4  A    between atoms: C_9  and  N_16
    5  A    between atoms: C_11  and  CA_12
    6  A    between atoms: CA_12  and  N_28
    7  A    between atoms: CA_12  and  C_36
    8  A    between atoms: O_15  and  C_25
    9  A    between atoms: O_15  and  C_36
   10  A    between atoms: N_16  and  S_17
   11  A    between atoms: S_17  and  C_24
   12  A    between atoms: N_28  and  C_31
   13  A    between atoms: C_31  and  C_34
                            x       y       z     vdW  Elec       q    Type
                         _______ _______ _______ _____ _____    ______ ____

>  <TORSDO>
F 13

$$$$
=
 OpenBabel11062421013D

 38 43  0  0  1  0  0  0  0  0999 V2000
  189.8210  175.6140  142.3410 C   0  0  0  0  0  0  0  0  0  0  0  0
  189.4690  176.8840  142.5990 N   0  0  0  0  0  2  0  0  0  0  0  0
  187.6210  175.6420  142.0810 C   0  0  0  0  0  3  0  0  0  0  0  0
  188.7410  174.8410  142.0410 C   0  0  0  0  0  0  0  0  0  0  0  0
  190.2110  172.8320  142.0730 C   0  0  1  0  0  3  0  0  0  0  0  0
  191.1810  175.0750  142.2870 C   0  0  0  0  0  0  0  0  0  0  0  0
  187.8140  172.6580  142.0080 O   0  0  0  0  0  1  0  0  0  0  0  0
  191.3320  173.7930  142.1010 N   0  0  0  0  0  0  0  0  0  0  0  0
  188.8830  173.4320  141.5550 C   0  0  1  0  0  3  0  0  0  0  0  0
  188.1250  176.8820  142.4600 C   0  0  0  0  0  0  0  0  0  0  0  0
  190.5870  171.6400  141.3200 N   0  0  0  0  0  0  0  0  0  0  0  0
  191.5950  169.5320  141.2510 O   0  0  0  0  0  0  0  0  0  0  0  0
  191.2740  170.5390  141.9390 C   0  0  0  0  0  0  0  0  0  0  0  0
  191.5810  170.5860  143.3020 O   0  0  0  0  0  0  0  0  0  0  0  0
  192.9110  170.4470  143.7790 C   0  0  0  0  0  1  0  0  0  0  0  0
  190.1350  171.5650  139.6120 S   0  0  0  0  0  0  0  0  0  0  0  0
  191.5050  173.5810  138.4130 C   0  0  0  0  0  2  0  0  0  0  0  0
  191.7340  172.2390  139.0750 C   0  0  0  0  0  3  0  0  0  0  0  0
  191.7470  172.3520  137.5650 C   0  0  0  0  0  2  0  0  0  0  0  0
  192.2770  175.9460  142.3850 O   0  0  0  0  0  0  0  0  0  0  0  0
  193.4560  176.6470  145.8490 C   0  0  0  0  0  3  0  0  0  0  0  0
  195.3210  176.1980  144.4520 C   0  0  0  0  0  3  0  0  0  0  0  0
  193.0950  176.1390  143.5110 C   0  0  0  0  0  0  0  0  0  0  0  0
  194.7970  176.5100  145.6670 N   0  0  0  0  0  0  0  0  0  0  0  0
  192.5830  176.4640  144.7750 C   0  0  0  0  0  3  0  0  0  0  0  0
  194.4770  176.0080  143.3540 C   0  0  0  0  0  3  0  0  0  0  0  0
  187.2950  178.1070  142.6190 C   0  0  0  0  0  2  0  0  0  0  0  0
  186.1540  177.8210  143.4720 N   0  0  0  0  0  2  0  0  0  0  0  0
  186.5510  178.1370  144.8370 C   0  0  1  0  0  3  0  0  0  0  0  0
  185.7320  179.3200  145.3460 C   0  0  0  0  0  2  0  0  0  0  0  0
  184.8460  179.7670  144.3640 O   0  0  0  0  0  1  0  0  0  0  0  0
  185.0160  176.9050  146.3850 C   0  0  0  0  0  1  0  0  0  0  0  0
  186.3950  176.9120  145.7450 C   0  0  2  0  0  3  0  0  0  0  0  0
  187.3610  176.9350  146.7560 O   0  0  0  0  0  0  0  0  0  0  0  0
  188.9450  175.3590  145.9190 C   0  0  2  0  0  3  0  0  0  0  0  0
  189.6120  176.1680  147.0050 C   0  0  1  0  0  3  0  0  0  0  0  0
  188.5880  176.8250  146.0950 C   0  0  2  0  0  3  0  0  0  0  0  0
  189.2020  174.7340  147.2770 C   0  0  0  0  0  2  0  0  0  0  0  0
  1  2  1  0  0  0  0
  3 10  2  0  0  0  0
  4  3  1  0  0  0  0
  4  1  2  0  0  0  0
  5 11  1  6  0  0  0
  5  8  1  0  0  0  0
  6  1  1  0  0  0  0
  6 20  1  0  0  0  0
  8  6  2  0  0  0  0
  9  7  1  1  0  0  0
  9  4  1  0  0  0  0
  9  5  1  0  0  0  0
 10  2  1  0  0  0  0
 10 27  1  0  0  0  0
 11 13  1  0  0  0  0
 12 13  2  0  0  0  0
 13 14  1  0  0  0  0
 14 15  1  0  0  0  0
 16 11  1  0  0  0  0
 17 18  1  0  0  0  0
 18 16  1  0  0  0  0
 19 17  1  0  0  0  0
 19 18  1  0  0  0  0
 20 23  1  0  0  0  0
 22 24  2  0  0  0  0
 23 25  1  0  0  0  0
 24 21  1  0  0  0  0
 25 21  2  0  0  0  0
 26 23  2  0  0  0  0
 26 22  1  0  0  0  0
 27 28  1  0  0  0  0
 28 29  1  0  0  0  0
 29 30  1  1  0  0  0
 29 33  1  0  0  0  0
 31 30  1  0  0  0  0
 33 32  1  1  0  0  0
 33 34  1  0  0  0  0
 35 37  1  0  0  0  0
 35 36  1  0  0  0  0
 35 38  1  1  0  0  0
 36 38  1  1  0  0  0
 37 34  1  1  0  0  0
 37 36  1  0  0  0  0
M  END
>  <MODEL>
5

>  <REMARK>
 VINA RESULT:      -6.6      2.890      5.790
  Name = 
  13 active torsions:
  status: ('A' for Active; 'I' for Inactive)
    1  A    between atoms: O_2  and  C_27
    2  A    between atoms: O_7  and  C_18
    3  A    between atoms: O_7  and  C_20
    4  A    between atoms: C_9  and  N_16
    5  A    between atoms: C_11  and  CA_12
    6  A    between atoms: CA_12  and  N_28
    7  A    between atoms: CA_12  and  C_36
    8  A    between atoms: O_15  and  C_25
    9  A    between atoms: O_15  and  C_36
   10  A    between atoms: N_16  and  S_17
   11  A    between atoms: S_17  and  C_24
   12  A    between atoms: N_28  and  C_31
   13  A    between atoms: C_31  and  C_34
                            x       y       z     vdW  Elec       q    Type
                         _______ _______ _______ _____ _____    ______ ____

>  <TORSDO>
F 13

$$$$
=
 OpenBabel11062421013D

 38 43  0  0  1  0  0  0  0  0999 V2000
  191.1920  174.8470  144.7620 C   0  0  0  0  0  0  0  0  0  0  0  0
  189.8940  174.7310  145.0870 N   0  0  0  0  0  0  0  0  0  0  0  0
  190.9320  176.2050  146.4940 C   0  0  0  0  0  3  0  0  0  0  0  0
  191.8410  175.7280  145.5730 C   0  0  1  0  0  3  0  0  0  0  0  0
  193.8500  175.5400  144.1160 C   0  0  1  0  0  3  0  0  0  0  0  0
  191.9100  174.0900  143.7360 C   0  0  0  0  0  0  0  0  0  0  0  0
  193.6570  177.2330  145.8130 O   0  0  0  0  0  1  0  0  0  0  0  0
  193.1570  174.3920  143.5010 N   0  0  0  0  0  0  0  0  0  0  0  0
  193.3250  175.9100  145.5240 C   0  0  1  0  0  3  0  0  0  0  0  0
  189.7440  175.5810  146.1280 C   0  0  0  0  0  0  0  0  0  0  0  0
  195.2920  175.3120  144.1280 N   0  0  0  0  0  0  0  0  0  0  0  0
  197.3740  175.5110  143.0850 O   0  0  0  0  0  0  0  0  0  0  0  0
  196.1340  175.7400  143.0450 C   0  0  0  0  0  0  0  0  0  0  0  0
  195.5790  176.4120  141.9530 O   0  0  0  0  0  0  0  0  0  0  0  0
  195.4240  175.7900  140.6860 C   0  0  0  0  0  1  0  0  0  0  0  0
  195.9910  174.5200  145.5460 S   0  0  0  0  0  0  0  0  0  0  0  0
  195.0220  171.9840  145.4350 C   0  0  0  0  0  2  0  0  0  0  0  0
  196.0060  172.8950  144.7320 C   0  0  0  0  0  3  0  0  0  0  0  0
  196.5050  171.8520  145.7090 C   0  0  0  0  0  2  0  0  0  0  0  0
  191.2620  173.0370  143.0710 O   0  0  0  0  0  0  0  0  0  0  0  0
  188.1100  172.9080  141.0890 C   0  0  0  0  0  3  0  0  0  0  0  0
  189.8570  173.7900  139.7460 C   0  0  0  0  0  3  0  0  0  0  0  0
  190.3260  173.1530  142.0300 C   0  0  0  0  0  0  0  0  0  0  0  0
  188.5610  173.4120  139.9090 N   0  0  0  0  0  0  0  0  0  0  0  0
  188.9840  172.7690  142.1680 C   0  0  0  0  0  3  0  0  0  0  0  0
  190.7600  173.6650  140.8040 C   0  0  0  0  0  3  0  0  0  0  0  0
  188.4540  175.7560  146.8470 C   0  0  0  0  0  2  0  0  0  0  0  0
  188.1090  177.1670  146.9040 N   0  0  0  0  0  2  0  0  0  0  0  0
  186.8360  177.3240  146.2140 C   0  0  1  0  0  3  0  0  0  0  0  0
  185.8420  178.0300  147.1310 C   0  0  0  0  0  2  0  0  0  0  0  0
  186.5090  178.7260  148.1410 O   0  0  0  0  0  1  0  0  0  0  0  0
  185.8570  179.0310  144.6650 C   0  0  0  0  0  1  0  0  0  0  0  0
  187.0240  178.0830  144.8950 C   0  0  2  0  0  3  0  0  0  0  0  0
  187.0900  177.1830  143.8270 O   0  0  0  0  0  0  0  0  0  0  0  0
  188.0170  177.8950  141.7470 C   0  0  2  0  0  3  0  0  0  0  0  0
  188.5140  176.4980  142.0320 C   0  0  1  0  0  3  0  0  0  0  0  0
  188.2950  177.4710  143.1780 C   0  0  2  0  0  3  0  0  0  0  0  0
  187.4540  176.7210  140.9700 C   0  0  0  0  0  2  0  0  0  0  0  0
  1  2  2  0  0  0  0
  1  4  1  0  0  0  0
  2 10  1  0  0  0  0
  4  3  1  1  0  0  0
  5 11  1  1  0  0  0
  5  9  1  0  0  0  0
  6  1  1  0  0  0  0
  8  6  2  0  0  0  0
  8  5  1  0  0  0  0
  9  4  1  0  0  0  0
  9  7  1  6  0  0  0
 10  3  2  0  0  0  0
 10 27  1  0  0  0  0
 11 16  1  0  0  0  0
 13 12  2  0  0  0  0
 13 11  1  0  0  0  0
 14 13  1  0  0  0  0
 15 14  1  0  0  0  0
 17 19  1  0  0  0  0
 18 17  1  0  0  0  0
 18 16  1  0  0  0  0
 18 19  1  0  0  0  0
 20  6  1  0  0  0  0
 21 25  1  0  0  0  0
 22 24  1  0  0  0  0
 22 26  2  0  0  0  0
 23 25  2  0  0  0  0
 23 20  1  0  0  0  0
 24 21  2  0  0  0  0
 26 23  1  0  0  0  0
 27 28  1  0  0  0  0
 29 28  1  0  0  0  0
 29 30  1  1  0  0  0
 30 31  1  0  0  0  0
 33 32  1  6  0  0  0
 33 29  1  0  0  0  0
 34 33  1  0  0  0  0
 35 38  1  1  0  0  0
 35 36  1  0  0  0  0
 35 37  1  0  0  0  0
 36 38  1  1  0  0  0
 36 37  1  0  0  0  0
 37 34  1  1  0  0  0
M  END
>  <MODEL>
6

>  <REMARK>
 VINA RESULT:      -6.5      1.483      1.811
  Name = 
  13 active torsions:
  status: ('A' for Active; 'I' for Inactive)
    1  A    between atoms: O_2  and  C_27
    2  A    between atoms: O_7  and  C_18
    3  A    between atoms: O_7  and  C_20
    4  A    between atoms: C_9  and  N_16
    5  A    between atoms: C_11  and  CA_12
    6  A    between atoms: CA_12  and  N_28
    7  A    between atoms: CA_12  and  C_36
    8  A    between atoms: O_15  and  C_25
    9  A    between atoms: O_15  and  C_36
   10  A    between atoms: N_16  and  S_17
   11  A    between atoms: S_17  and  C_24
   12  A    between atoms: N_28  and  C_31
   13  A    between atoms: C_31  and  C_34
                            x       y       z     vdW  Elec       q    Type
                         _______ _______ _______ _____ _____    ______ ____

>  <TORSDO>
F 13

$$$$
=
 OpenBabel11062421013D

 38 43  0  0  1  0  0  0  0  0999 V2000
  190.2710  175.2230  142.3890 C   0  0  0  0  0  0  0  0  0  0  0  0
  191.4070  174.5850  142.0630 N   0  0  0  0  0  0  0  0  0  0  0  0
  191.8710  176.6980  142.8030 C   0  0  0  0  0  3  0  0  0  0  0  0
  190.5110  176.4830  142.8470 C   0  0  1  0  0  3  0  0  0  0  0  0
  188.1060  176.6860  143.4550 C   0  0  1  0  0  3  0  0  0  0  0  0
  188.9050  174.7240  142.2200 C   0  0  0  0  0  0  0  0  0  0  0  0
  189.7470  178.2840  144.1860 O   0  0  0  0  0  1  0  0  0  0  0  0
  187.9190  175.4500  142.6690 N   0  0  0  0  0  0  0  0  0  0  0  0
  189.4050  177.4540  143.1180 C   0  0  1  0  0  3  0  0  0  0  0  0
  192.3750  175.4860  142.3420 C   0  0  0  0  0  0  0  0  0  0  0  0
  186.9310  177.5440  143.3320 N   0  0  0  0  0  0  0  0  0  0  0  0
  185.3860  178.6680  141.9870 O   0  0  0  0  0  0  0  0  0  0  0  0
  186.3930  177.9120  142.0520 C   0  0  0  0  0  0  0  0  0  0  0  0
  186.9850  177.4290  140.8810 O   0  0  0  0  0  0  0  0  0  0  0  0
  186.3460  177.5310  139.6170 C   0  0  0  0  0  1  0  0  0  0  0  0
  186.1520  178.0950  144.8210 S   0  0  0  0  0  0  0  0  0  0  0  0
  186.3500  176.8090  147.2060 C   0  0  0  0  0  2  0  0  0  0  0  0
  186.9400  176.7920  145.8120 C   0  0  0  0  0  3  0  0  0  0  0  0
  187.7080  177.4270  146.9530 C   0  0  0  0  0  2  0  0  0  0  0  0
  188.6880  173.5130  141.5440 O   0  0  0  0  0  0  0  0  0  0  0  0
  188.3550  173.8950  137.8530 C   0  0  0  0  0  3  0  0  0  0  0  0
  189.5590  171.9090  138.3390 C   0  0  0  0  0  3  0  0  0  0  0  0
  188.7830  173.2980  140.1590 C   0  0  0  0  0  0  0  0  0  0  0  0
  189.0130  172.7770  137.4460 N   0  0  0  0  0  0  0  0  0  0  0  0
  188.2270  174.1750  139.2150 C   0  0  0  0  0  3  0  0  0  0  0  0
  189.4510  172.1560  139.7100 C   0  0  0  0  0  3  0  0  0  0  0  0
  193.8180  175.2210  142.0970 C   0  0  0  0  0  2  0  0  0  0  0  0
  194.6270  176.0950  142.9300 N   0  0  0  0  0  2  0  0  0  0  0  0
  195.4270  175.2390  143.7970 C   0  0  1  0  0  3  0  0  0  0  0  0
  196.9080  175.5330  143.5780 C   0  0  0  0  0  2  0  0  0  0  0  0
  197.0810  176.7830  142.9820 O   0  0  0  0  0  1  0  0  0  0  0  0
  195.7910  174.4520  146.1450 C   0  0  0  0  0  1  0  0  0  0  0  0
  195.0250  175.4260  145.2640 C   0  0  2  0  0  3  0  0  0  0  0  0
  193.6550  175.1940  145.4220 O   0  0  0  0  0  0  0  0  0  0  0  0
  192.1430  175.2750  147.2660 C   0  0  2  0  0  3  0  0  0  0  0  0
  191.8460  176.4450  146.3590 C   0  0  1  0  0  3  0  0  0  0  0  0
  193.2760  175.9640  146.5260 C   0  0  2  0  0  3  0  0  0  0  0  0
  190.9050  175.2560  146.3900 C   0  0  0  0  0  2  0  0  0  0  0  0
  1  4  1  0  0  0  0
  2 10  1  0  0  0  0
  2  1  2  0  0  0  0
  4  3  1  6  0  0  0
  4  9  1  0  0  0  0
  5 11  1  6  0  0  0
  6  1  1  0  0  0  0
  6  8  2  0  0  0  0
  8  5  1  0  0  0  0
  9  5  1  0  0  0  0
  9  7  1  1  0  0  0
 10  3  2  0  0  0  0
 11 16  1  0  0  0  0
 12 13  2  0  0  0  0
 13 11  1  0  0  0  0
 14 13  1  0  0  0  0
 15 14  1  0  0  0  0
 16 18  1  0  0  0  0
 18 19  1  0  0  0  0
 18 17  1  0  0  0  0
 19 17  1  0  0  0  0
 20  6  1  0  0  0  0
 21 25  1  0  0  0  0
 22 26  2  0  0  0  0
 23 20  1  0  0  0  0
 24 21  2  0  0  0  0
 24 22  1  0  0  0  0
 25 23  2  0  0  0  0
 26 23  1  0  0  0  0
 27 10  1  0  0  0  0
 27 28  1  0  0  0  0
 28 29  1  0  0  0  0
 29 30  1  1  0  0  0
 29 33  1  0  0  0  0
 31 30  1  0  0  0  0
 33 34  1  0  0  0  0
 33 32  1  1  0  0  0
 35 38  1  6  0  0  0
 36 38  1  6  0  0  0
 36 37  1  0  0  0  0
 36 35  1  0  0  0  0
 37 34  1  6  0  0  0
 37 35  1  0  0  0  0
M  END
>  <MODEL>
7

>  <REMARK>
 VINA RESULT:      -6.5      2.841      7.780
  Name = 
  13 active torsions:
  status: ('A' for Active; 'I' for Inactive)
    1  A    between atoms: O_2  and  C_27
    2  A    between atoms: O_7  and  C_18
    3  A    between atoms: O_7  and  C_20
    4  A    between atoms: C_9  and  N_16
    5  A    between atoms: C_11  and  CA_12
    6  A    between atoms: CA_12  and  N_28
    7  A    between atoms: CA_12  and  C_36
    8  A    between atoms: O_15  and  C_25
    9  A    between atoms: O_15  and  C_36
   10  A    between atoms: N_16  and  S_17
   11  A    between atoms: S_17  and  C_24
   12  A    between atoms: N_28  and  C_31
   13  A    between atoms: C_31  and  C_34
                            x       y       z     vdW  Elec       q    Type
                         _______ _______ _______ _____ _____    ______ ____

>  <TORSDO>
F 13

$$$$
=
 OpenBabel11062421013D

 38 43  0  0  1  0  0  0  0  0999 V2000
  189.8010  175.7880  142.3800 C   0  0  0  0  0  0  0  0  0  0  0  0
  189.4200  177.0390  142.6840 N   0  0  0  0  0  2  0  0  0  0  0  0
  187.6090  175.7930  142.0570 C   0  0  0  0  0  3  0  0  0  0  0  0
  188.7430  175.0110  142.0140 C   0  0  0  0  0  0  0  0  0  0  0  0
  190.2460  173.0270  142.0010 C   0  0  1  0  0  3  0  0  0  0  0  0
  191.1700  175.2730  142.3410 C   0  0  0  0  0  0  0  0  0  0  0  0
  187.8540  172.8180  141.8580 O   0  0  0  0  0  1  0  0  0  0  0  0
  191.3490  174.0030  142.1030 N   0  0  0  0  0  0  0  0  0  0  0  0
  188.9230  173.6290  141.4720 C   0  0  1  0  0  3  0  0  0  0  0  0
  188.0810  177.0220  142.5050 C   0  0  0  0  0  0  0  0  0  0  0  0
  190.6630  171.8750  141.2070 N   0  0  0  0  0  0  0  0  0  0  0  0
  191.3290  170.9710  139.1570 O   0  0  0  0  0  0  0  0  0  0  0  0
  190.9860  171.9930  139.8120 C   0  0  0  0  0  0  0  0  0  0  0  0
  190.9240  173.2410  139.1860 O   0  0  0  0  0  0  0  0  0  0  0  0
  190.2450  173.4320  137.9540 C   0  0  0  0  0  1  0  0  0  0  0  0
  190.8020  170.3140  142.0280 S   0  0  0  0  0  0  0  0  0  0  0  0
  193.0010  169.4930  143.3960 C   0  0  0  0  0  2  0  0  0  0  0  0
  192.5130  170.6440  142.5420 C   0  0  0  0  0  3  0  0  0  0  0  0
  192.5630  170.7870  144.0490 C   0  0  0  0  0  2  0  0  0  0  0  0
  192.2490  176.1560  142.5100 O   0  0  0  0  0  0  0  0  0  0  0  0
  193.4740  176.6440  145.9940 C   0  0  0  0  0  3  0  0  0  0  0  0
  195.3080  176.1620  144.5680 C   0  0  0  0  0  3  0  0  0  0  0  0
  193.0800  176.2570  143.6380 C   0  0  0  0  0  0  0  0  0  0  0  0
  194.8060  176.4470  145.7980 N   0  0  0  0  0  0  0  0  0  0  0  0
  192.5890  176.5530  144.9180 C   0  0  0  0  0  3  0  0  0  0  0  0
  194.4530  176.0630  143.4680 C   0  0  0  0  0  3  0  0  0  0  0  0
  187.2260  178.2250  142.6940 C   0  0  0  0  0  2  0  0  0  0  0  0
  185.9190  177.8280  143.1900 N   0  0  0  0  0  2  0  0  0  0  0  0
  185.7640  178.4230  144.5100 C   0  0  1  0  0  3  0  0  0  0  0  0
  184.7110  179.5260  144.4520 C   0  0  0  0  0  2  0  0  0  0  0  0
  183.5210  179.0460  143.9030 O   0  0  0  0  0  1  0  0  0  0  0  0
  185.2090  177.9950  146.9140 C   0  0  0  0  0  1  0  0  0  0  0  0
  185.4040  177.3540  145.5480 C   0  0  2  0  0  3  0  0  0  0  0  0
  186.4270  176.4060  145.6380 O   0  0  0  0  0  0  0  0  0  0  0  0
  188.7150  176.8240  146.1720 C   0  0  2  0  0  3  0  0  0  0  0  0
  188.1980  175.7590  147.1090 C   0  0  1  0  0  3  0  0  0  0  0  0
  187.2740  176.8730  146.6490 C   0  0  2  0  0  3  0  0  0  0  0  0
  189.1360  175.3800  145.9790 C   0  0  0  0  0  2  0  0  0  0  0  0
  1  2  1  0  0  0  0
  3 10  2  0  0  0  0
  4  3  1  0  0  0  0
  4  1  2  0  0  0  0
  5 11  1  6  0  0  0
  5  8  1  0  0  0  0
  6  1  1  0  0  0  0
  6 20  1  0  0  0  0
  8  6  2  0  0  0  0
  9  7  1  1  0  0  0
  9  5  1  0  0  0  0
  9  4  1  0  0  0  0
 10  2  1  0  0  0  0
 10 27  1  0  0  0  0
 11 16  1  0  0  0  0
 12 13  2  0  0  0  0
 13 11  1  0  0  0  0
 14 13  1  0  0  0  0
 15 14  1  0  0  0  0
 16 18  1  0  0  0  0
 17 19  1  0  0  0  0
 18 17  1  0  0  0  0
 18 19  1  0  0  0  0
 20 23  1  0  0  0  0
 22 24  2  0  0  0  0
 23 25  1  0  0  0  0
 24 21  1  0  0  0  0
 25 21  2  0  0  0  0
 26 23  2  0  0  0  0
 26 22  1  0  0  0  0
 27 28  1  0  0  0  0
 28 29  1  0  0  0  0
 29 30  1  6  0  0  0
 29 33  1  0  0  0  0
 31 30  1  0  0  0  0
 33 34  1  0  0  0  0
 33 32  1  1  0  0  0
 35 38  1  6  0  0  0
 35 37  1  0  0  0  0
 35 36  1  0  0  0  0
 36 38  1  6  0  0  0
 37 34  1  6  0  0  0
 37 36  1  0  0  0  0
M  END
>  <MODEL>
8

>  <REMARK>
 VINA RESULT:      -6.4      2.614      5.395
  Name = 
  13 active torsions:
  status: ('A' for Active; 'I' for Inactive)
    1  A    between atoms: O_2  and  C_27
    2  A    between atoms: O_7  and  C_18
    3  A    between atoms: O_7  and  C_20
    4  A    between atoms: C_9  and  N_16
    5  A    between atoms: C_11  and  CA_12
    6  A    between atoms: CA_12  and  N_28
    7  A    between atoms: CA_12  and  C_36
    8  A    between atoms: O_15  and  C_25
    9  A    between atoms: O_15  and  C_36
   10  A    between atoms: N_16  and  S_17
   11  A    between atoms: S_17  and  C_24
   12  A    between atoms: N_28  and  C_31
   13  A    between atoms: C_31  and  C_34
                            x       y       z     vdW  Elec       q    Type
                         _______ _______ _______ _____ _____    ______ ____

>  <TORSDO>
F 13

$$$$
=
 OpenBabel11062421013D

 38 43  0  0  1  0  0  0  0  0999 V2000
  190.9010  176.2270  144.6480 C   0  0  0  0  0  0  0  0  0  0  0  0
  189.5990  176.4970  144.8330 N   0  0  0  0  0  0  0  0  0  0  0  0
  190.7520  176.7930  146.7850 C   0  0  0  0  0  3  0  0  0  0  0  0
  191.6230  176.4060  145.7890 C   0  0  1  0  0  3  0  0  0  0  0  0
  193.7130  176.0510  144.4850 C   0  0  1  0  0  3  0  0  0  0  0  0
  191.5270  175.7180  143.4260 C   0  0  0  0  0  0  0  0  0  0  0  0
  193.7420  176.8860  146.7400 O   0  0  0  0  0  1  0  0  0  0  0  0
  192.8250  175.5900  143.4010 N   0  0  0  0  0  0  0  0  0  0  0  0
  193.0640  176.0140  145.8880 C   0  0  1  0  0  3  0  0  0  0  0  0
  189.5260  176.8620  146.1320 C   0  0  0  0  0  0  0  0  0  0  0  0
  194.9690  175.3080  144.4590 N   0  0  0  0  0  0  0  0  0  0  0  0
  196.1750  173.3650  144.9430 O   0  0  0  0  0  0  0  0  0  0  0  0
  195.0680  173.9690  144.9700 C   0  0  0  0  0  0  0  0  0  0  0  0
  193.9360  173.3370  145.4920 O   0  0  0  0  0  0  0  0  0  0  0  0
  193.2550  172.3100  144.7870 C   0  0  0  0  0  1  0  0  0  0  0  0
  196.3790  176.0950  143.7340 S   0  0  0  0  0  0  0  0  0  0  0  0
  197.4370  174.7620  141.6160 C   0  0  0  0  0  2  0  0  0  0  0  0
  196.1110  175.2810  142.1320 C   0  0  0  0  0  3  0  0  0  0  0  0
  196.8560  176.0410  141.0550 C   0  0  0  0  0  2  0  0  0  0  0  0
  190.7210  175.3390  142.3410 O   0  0  0  0  0  0  0  0  0  0  0  0
  189.7810  171.7350  142.3150 C   0  0  0  0  0  3  0  0  0  0  0  0
  190.3400  172.4250  140.1140 C   0  0  0  0  0  3  0  0  0  0  0  0
  190.4450  174.0280  141.9200 C   0  0  0  0  0  0  0  0  0  0  0  0
  189.9390  171.4660  140.9910 N   0  0  0  0  0  0  0  0  0  0  0  0
  190.0320  173.0180  142.8020 C   0  0  0  0  0  3  0  0  0  0  0  0
  190.6010  173.7210  140.5660 C   0  0  0  0  0  3  0  0  0  0  0  0
  188.2450  177.2200  146.7990 C   0  0  0  0  0  2  0  0  0  0  0  0
  187.1330  176.6180  146.0830 N   0  0  0  0  0  2  0  0  0  0  0  0
  186.1580  177.6730  145.8430 C   0  0  1  0  0  3  0  0  0  0  0  0
  186.0700  178.5760  147.0700 C   0  0  0  0  0  2  0  0  0  0  0  0
  184.7810  178.5600  147.6040 O   0  0  0  0  0  1  0  0  0  0  0  0
  185.4280  179.4830  144.2740 C   0  0  0  0  0  1  0  0  0  0  0  0
  186.5170  178.4670  144.5820 C   0  0  2  0  0  3  0  0  0  0  0  0
  186.6500  177.6040  143.4900 O   0  0  0  0  0  0  0  0  0  0  0  0
  186.7280  177.7430  141.1100 C   0  0  2  0  0  3  0  0  0  0  0  0
  188.1460  177.7090  141.6280 C   0  0  1  0  0  3  0  0  0  0  0  0
  187.0660  178.4150  142.4290 C   0  0  2  0  0  3  0  0  0  0  0  0
  187.5570  176.4830  140.9560 C   0  0  0  0  0  2  0  0  0  0  0  0
  1  2  2  0  0  0  0
  1  4  1  0  0  0  0
  2 10  1  0  0  0  0
  4  9  1  0  0  0  0
  4  3  1  1  0  0  0
  5 11  1  1  0  0  0
  5  9  1  0  0  0  0
  6  1  1  0  0  0  0
  8  6  2  0  0  0  0
  8  5  1  0  0  0  0
  9  7  1  1  0  0  0
 10  3  2  0  0  0  0
 10 27  1  0  0  0  0
 11 13  1  0  0  0  0
 12 13  2  0  0  0  0
 13 14  1  0  0  0  0
 15 14  1  0  0  0  0
 16 11  1  0  0  0  0
 17 18  1  0  0  0  0
 18 16  1  0  0  0  0
 19 17  1  0  0  0  0
 19 18  1  0  0  0  0
 20  6  1  0  0  0  0
 21 25  1  0  0  0  0
 22 26  2  0  0  0  0
 22 24  1  0  0  0  0
 23 20  1  0  0  0  0
 23 25  2  0  0  0  0
 24 21  2  0  0  0  0
 26 23  1  0  0  0  0
 28 27  1  0  0  0  0
 29 28  1  0  0  0  0
 29 30  1  1  0  0  0
 30 31  1  0  0  0  0
 33 32  1  6  0  0  0
 33 29  1  0  0  0  0
 34 33  1  0  0  0  0
 35 38  1  1  0  0  0
 35 36  1  0  0  0  0
 35 37  1  0  0  0  0
 36 38  1  1  0  0  0
 36 37  1  0  0  0  0
 37 34  1  1  0  0  0
M  END
>  <MODEL>
9

>  <REMARK>
 VINA RESULT:      -6.3      1.499      2.523
  Name = 
  13 active torsions:
  status: ('A' for Active; 'I' for Inactive)
    1  A    between atoms: O_2  and  C_27
    2  A    between atoms: O_7  and  C_18
    3  A    between atoms: O_7  and  C_20
    4  A    between atoms: C_9  and  N_16
    5  A    between atoms: C_11  and  CA_12
    6  A    between atoms: CA_12  and  N_28
    7  A    between atoms: CA_12  and  C_36
    8  A    between atoms: O_15  and  C_25
    9  A    between atoms: O_15  and  C_36
   10  A    between atoms: N_16  and  S_17
   11  A    between atoms: S_17  and  C_24
   12  A    between atoms: N_28  and  C_31
   13  A    between atoms: C_31  and  C_34
                            x       y       z     vdW  Elec       q    Type
                         _______ _______ _______ _____ _____    ______ ____

>  <TORSDO>
F 13

$$$$
