=
 OpenBabel11062420003D

 42 48  0  0  1  0  0  0  0  0999 V2000
  186.4790  177.6840  146.8980 C   0  0  1  0  0  0  0  0  0  0  0  0
  187.2480  176.3740  146.8850 C   0  0  2  0  0  3  0  0  0  0  0  0
  187.4250  177.4560  144.6930 C   0  0  2  0  0  3  0  0  0  0  0  0
  188.7310  176.6260  146.6820 C   0  0  2  0  0  3  0  0  0  0  0  0
  185.2760  177.8620  146.0000 C   0  0  0  0  0  2  0  0  0  0  0  0
  187.8550  176.2340  145.5060 C   0  0  1  0  0  3  0  0  0  0  0  0
  186.5920  178.5370  147.9960 O   0  0  0  0  0  1  0  0  0  0  0  0
  186.6430  178.4140  145.5880 C   0  0  1  0  0  3  0  0  0  0  0  0
  186.6200  177.0530  143.5930 O   0  0  0  0  0  0  0  0  0  0  0  0
  186.7460  177.6130  142.3210 C   0  0  0  0  0  0  0  0  0  0  0  0
  186.5410  178.8420  142.1270 O   0  0  0  0  0  0  0  0  0  0  0  0
  187.0920  176.7330  141.1750 C   0  0  0  0  0  2  0  0  0  0  0  0
  188.2150  174.6450  139.5640 O   0  0  0  0  0  0  0  0  0  0  0  0
  188.6670  174.7980  140.7320 C   0  0  0  0  0  0  0  0  0  0  0  0
  188.1820  175.8550  141.5660 N   0  0  0  0  0  2  0  0  0  0  0  0
  191.0520  171.3880  140.9900 C   0  0  1  0  0  3  0  0  0  0  0  0
  190.7930  173.7410  140.3770 N   0  0  0  0  0  2  0  0  0  0  0  0
  190.6860  170.7880  139.6300 C   0  0  0  0  0  1  0  0  0  0  0  0
  187.8870  172.4420  142.3390 N   0  0  0  0  0  1  0  0  0  0  0  0
  191.7440  172.7480  140.8640 C   0  0  0  0  0  2  0  0  0  0  0  0
  189.0100  172.4010  141.4160 C   0  0  1  0  0  3  0  0  0  0  0  0
  189.6430  173.8010  141.2810 C   0  0  2  0  0  3  0  0  0  0  0  0
  189.9420  171.4480  141.8740 O   0  0  0  0  0  0  0  0  0  0  0  0
  189.4490  175.5150  147.1210 O   0  0  0  0  0  0  0  0  0  0  0  0
  190.6760  176.0370  147.5280 C   0  0  0  0  0  2  0  0  0  0  0  0
  191.2900  176.8520  146.4040 C   0  0  0  0  0  2  0  0  0  0  0  0
  194.7290  175.7890  144.8820 C   0  0  2  0  0  3  0  0  0  0  0  0
  195.3300  175.2140  142.4520 C   0  0  0  0  0  1  0  0  0  0  0  0
  191.9200  175.5660  144.2510 C   0  0  2  0  0  0  0  0  0  0  0  0
  193.7430  176.6720  145.6610 C   0  0  2  0  0  3  0  0  0  0  0  0
  190.5730  175.6250  143.8610 O   0  0  0  0  0  0  0  0  0  0  0  0
  194.2040  176.8930  146.9620 O   0  0  0  0  0  1  0  0  0  0  0  0
  192.8690  175.3820  143.0950 C   0  0  1  0  0  3  0  0  0  0  0  0
  192.3470  176.0250  145.6670 C   0  0  1  0  0  3  0  0  0  0  0  0
  192.2210  176.3850  142.3620 O   0  0  0  0  0  0  0  0  0  0  0  0
  191.3910  176.7000  143.4590 C   0  0  2  0  0  3  0  0  0  0  0  0
  194.3110  175.8250  143.4000 C   0  0  1  0  0  3  0  0  0  0  0  0
  194.8980  174.4100  145.5700 C   0  0  2  0  0  3  0  0  0  0  0  0
  196.3260  174.2620  146.0570 C   0  0  0  0  0  1  0  0  0  0  0  0
  194.5040  173.1640  144.7780 C   0  0  0  0  0  2  0  0  0  0  0  0
  193.5370  172.4250  145.4650 O   0  0  0  0  0  0  0  0  0  0  0  0
  192.6180  172.1450  144.5640 O   0  0  0  0  0  1  0  0  0  0  0  0
  1  7  1  1  0  0  0
  2  1  1  0  0  0  0
  3  6  1  0  0  0  0
  3  8  1  0  0  0  0
  4  2  1  0  0  0  0
  4 24  1  0  0  0  0
  5  1  1  0  0  0  0
  6  4  1  0  0  0  0
  6  2  1  0  0  0  0
  8  5  1  0  0  0  0
  8  1  1  0  0  0  0
  9  3  1  0  0  0  0
 10  9  1  0  0  0  0
 11 10  2  0  0  0  0
 12 15  1  0  0  0  0
 12 10  1  0  0  0  0
 13 14  2  0  0  0  0
 14 22  1  0  0  0  0
 14 15  1  0  0  0  0
 16 23  1  0  0  0  0
 17 20  1  0  0  0  0
 17 22  1  0  0  0  0
 18 16  1  0  0  0  0
 20 16  1  0  0  0  0
 21 23  1  0  0  0  0
 21 19  1  0  0  0  0
 22 21  1  0  0  0  0
 24 25  1  0  0  0  0
 26 25  1  0  0  0  0
 27 38  1  0  0  0  0
 27 30  1  0  0  0  0
 28 37  1  0  0  0  0
 29 34  1  0  0  0  0
 30 34  1  0  0  0  0
 30 32  1  0  0  0  0
 31 29  1  0  0  0  0
 33 37  1  0  0  0  0
 33 29  1  0  0  0  0
 34 26  1  0  0  0  0
 35 33  1  0  0  0  0
 35 36  1  0  0  0  0
 36 31  1  0  0  0  0
 36 29  1  0  0  0  0
 37 27  1  0  0  0  0
 38 39  1  0  0  0  0
 40 41  1  0  0  0  0
 40 38  1  0  0  0  0
 42 41  1  0  0  0  0
M  END
>  <MODEL>
1

>  <REMARK>
 VINA RESULT:      -7.1      0.000      0.000
  Name = 
  12 active torsions:
  status: ('A' for Active; 'I' for Inactive)
    1  A    between atoms: C_1  and  C_10
    2  A    between atoms: C_3  and  C_29
    3  A    between atoms: C_3  and  C_31
    4  A    between atoms: C_4  and  C_10
    5  A    between atoms: C_4  and  O_30
    6  A    between atoms: C_7  and  C_11
    7  A    between atoms: C_7  and  O_18
    8  A    between atoms: C_11  and  N_26
    9  A    between atoms: C_13  and  O_18
   10  A    between atoms: C_22  and  C_38
   11  A    between atoms: C_23  and  O_32
   12  A    between atoms: C_31  and  O_32
                            x       y       z     vdW  Elec       q    Type
                         _______ _______ _______ _____ _____    ______ ____

>  <TORSDO>
F 12

$$$$
=
 OpenBabel11062420003D

 42 48  0  0  1  0  0  0  0  0999 V2000
  185.4030  178.5820  145.9640 C   0  0  1  0  0  0  0  0  0  0  0  0
  185.9020  177.1490  145.9590 C   0  0  2  0  0  3  0  0  0  0  0  0
  186.1820  178.1260  143.7290 C   0  0  2  0  0  3  0  0  0  0  0  0
  187.3950  177.1020  145.6870 C   0  0  2  0  0  3  0  0  0  0  0  0
  184.2150  178.9710  145.1120 C   0  0  0  0  0  2  0  0  0  0  0  0
  186.4050  176.8620  144.5610 C   0  0  1  0  0  3  0  0  0  0  0  0
  185.7300  179.4220  147.0280 O   0  0  0  0  0  1  0  0  0  0  0  0
  185.6430  179.2380  144.6260 C   0  0  1  0  0  3  0  0  0  0  0  0
  185.2630  177.8620  142.6770 O   0  0  0  0  0  0  0  0  0  0  0  0
  185.5600  178.1130  141.3370 C   0  0  0  0  0  0  0  0  0  0  0  0
  184.6980  178.6080  140.5600 O   0  0  0  0  0  0  0  0  0  0  0  0
  186.9020  177.7540  140.8140 C   0  0  0  0  0  2  0  0  0  0  0  0
  189.0870  176.2550  141.9100 O   0  0  0  0  0  0  0  0  0  0  0  0
  188.1710  175.6190  141.3190 C   0  0  0  0  0  0  0  0  0  0  0  0
  187.0310  176.3060  140.7960 N   0  0  0  0  0  2  0  0  0  0  0  0
  190.0130  171.9570  140.5540 C   0  0  1  0  0  3  0  0  0  0  0  0
  189.1570  173.5950  142.1550 N   0  0  0  0  0  2  0  0  0  0  0  0
  191.4550  172.4700  140.5000 C   0  0  0  0  0  1  0  0  0  0  0  0
  188.1730  174.3820  138.6340 N   0  0  0  0  0  1  0  0  0  0  0  0
  189.3660  172.1700  141.9250 C   0  0  0  0  0  2  0  0  0  0  0  0
  188.9990  173.8670  139.7150 C   0  0  1  0  0  3  0  0  0  0  0  0
  188.3340  174.1480  141.0770 C   0  0  2  0  0  3  0  0  0  0  0  0
  189.2100  172.4880  139.5100 O   0  0  0  0  0  0  0  0  0  0  0  0
  187.9040  175.8820  146.1290 O   0  0  0  0  0  0  0  0  0  0  0  0
  188.8220  175.5170  145.1460 C   0  0  0  0  0  2  0  0  0  0  0  0
  189.7750  174.4680  145.6910 C   0  0  0  0  0  2  0  0  0  0  0  0
  193.5520  173.9210  144.8500 C   0  0  2  0  0  3  0  0  0  0  0  0
  195.6150  175.1890  145.7080 C   0  0  0  0  0  1  0  0  0  0  0  0
  191.8360  176.0220  145.8400 C   0  0  2  0  0  0  0  0  0  0  0  0
  192.1410  173.5380  145.3200 C   0  0  2  0  0  3  0  0  0  0  0  0
  191.0330  176.9710  146.4910 O   0  0  0  0  0  0  0  0  0  0  0  0
  191.6530  172.4590  144.5780 O   0  0  0  0  0  1  0  0  0  0  0  0
  193.3060  176.1830  146.1310 C   0  0  1  0  0  3  0  0  0  0  0  0
  191.2030  174.7530  145.2180 C   0  0  1  0  0  3  0  0  0  0  0  0
  193.0530  176.3100  147.5030 O   0  0  0  0  0  0  0  0  0  0  0  0
  191.6830  176.0280  147.3130 C   0  0  2  0  0  3  0  0  0  0  0  0
  194.1310  174.9090  145.8800 C   0  0  1  0  0  3  0  0  0  0  0  0
  193.5440  174.3320  143.3550 C   0  0  2  0  0  3  0  0  0  0  0  0
  194.3410  173.3240  142.5510 C   0  0  0  0  0  1  0  0  0  0  0  0
  194.0120  175.7440  143.0000 C   0  0  0  0  0  2  0  0  0  0  0  0
  192.9770  176.4760  142.4130 O   0  0  0  0  0  0  0  0  0  0  0  0
  192.0850  175.5770  142.0540 O   0  0  0  0  0  1  0  0  0  0  0  0
  1  7  1  1  0  0  0
  2  1  1  0  0  0  0
  3  6  1  0  0  0  0
  3  8  1  0  0  0  0
  4  2  1  0  0  0  0
  4 24  1  0  0  0  0
  5  1  1  0  0  0  0
  6  4  1  0  0  0  0
  6  2  1  0  0  0  0
  8  5  1  0  0  0  0
  8  1  1  0  0  0  0
  9  3  1  0  0  0  0
 10  9  1  0  0  0  0
 11 10  2  0  0  0  0
 12 10  1  0  0  0  0
 14 13  2  0  0  0  0
 15 12  1  0  0  0  0
 15 14  1  0  0  0  0
 16 20  1  0  0  0  0
 18 16  1  0  0  0  0
 19 21  1  0  0  0  0
 20 17  1  0  0  0  0
 21 22  1  0  0  0  0
 22 14  1  0  0  0  0
 22 17  1  0  0  0  0
 23 21  1  0  0  0  0
 23 16  1  0  0  0  0
 25 26  1  0  0  0  0
 25 24  1  0  0  0  0
 27 30  1  0  0  0  0
 27 37  1  0  0  0  0
 28 37  1  0  0  0  0
 29 33  1  0  0  0  0
 29 31  1  0  0  0  0
 29 36  1  0  0  0  0
 31 36  1  0  0  0  0
 32 30  1  0  0  0  0
 33 35  1  0  0  0  0
 34 30  1  0  0  0  0
 34 26  1  0  0  0  0
 34 29  1  0  0  0  0
 36 35  1  0  0  0  0
 37 33  1  0  0  0  0
 38 27  1  0  0  0  0
 39 38  1  0  0  0  0
 40 38  1  0  0  0  0
 41 40  1  0  0  0  0
 42 41  1  0  0  0  0
M  END
>  <MODEL>
2

>  <REMARK>
 VINA RESULT:      -6.9      1.554      2.817
  Name = 
  12 active torsions:
  status: ('A' for Active; 'I' for Inactive)
    1  A    between atoms: C_1  and  C_10
    2  A    between atoms: C_3  and  C_29
    3  A    between atoms: C_3  and  C_31
    4  A    between atoms: C_4  and  C_10
    5  A    between atoms: C_4  and  O_30
    6  A    between atoms: C_7  and  C_11
    7  A    between atoms: C_7  and  O_18
    8  A    between atoms: C_11  and  N_26
    9  A    between atoms: C_13  and  O_18
   10  A    between atoms: C_22  and  C_38
   11  A    between atoms: C_23  and  O_32
   12  A    between atoms: C_31  and  O_32
                            x       y       z     vdW  Elec       q    Type
                         _______ _______ _______ _____ _____    ______ ____

>  <TORSDO>
F 12

$$$$
=
 OpenBabel11062420003D

 42 48  0  0  1  0  0  0  0  0999 V2000
  185.8270  178.0270  144.7800 C   0  0  1  0  0  0  0  0  0  0  0  0
  187.0690  178.1700  143.9190 C   0  0  2  0  0  3  0  0  0  0  0  0
  187.4250  176.4150  145.5940 C   0  0  2  0  0  3  0  0  0  0  0  0
  187.3180  176.9010  143.1230 C   0  0  2  0  0  3  0  0  0  0  0  0
  185.8920  178.3410  146.2580 C   0  0  0  0  0  2  0  0  0  0  0  0
  188.0700  177.1510  144.4180 C   0  0  1  0  0  3  0  0  0  0  0  0
  184.5690  178.0310  144.1790 O   0  0  0  0  0  1  0  0  0  0  0  0
  185.9850  176.8940  145.7640 C   0  0  1  0  0  3  0  0  0  0  0  0
  188.1610  176.6580  146.7850 O   0  0  0  0  0  0  0  0  0  0  0  0
  189.3500  175.9910  147.0860 C   0  0  0  0  0  0  0  0  0  0  0  0
  189.3790  174.7370  147.2080 O   0  0  0  0  0  0  0  0  0  0  0  0
  190.5890  176.7820  147.3000 C   0  0  0  0  0  2  0  0  0  0  0  0
  192.8190  175.0200  146.9240 O   0  0  0  0  0  0  0  0  0  0  0  0
  192.5440  175.8320  145.9970 C   0  0  0  0  0  0  0  0  0  0  0  0
  191.4130  176.7010  146.1050 N   0  0  0  0  0  2  0  0  0  0  0  0
  195.8890  175.2580  143.5760 C   0  0  1  0  0  3  0  0  0  0  0  0
  193.6150  174.6290  144.2160 N   0  0  0  0  0  2  0  0  0  0  0  0
  196.6290  174.2780  144.4910 C   0  0  0  0  0  1  0  0  0  0  0  0
  194.7280  177.8160  145.8240 N   0  0  0  0  0  1  0  0  0  0  0  0
  194.5440  174.7080  143.0950 C   0  0  0  0  0  2  0  0  0  0  0  0
  194.8550  176.4870  145.2480 C   0  0  1  0  0  3  0  0  0  0  0  0
  193.4710  175.9530  144.8250 C   0  0  2  0  0  3  0  0  0  0  0  0
  195.7480  176.5440  144.1590 O   0  0  0  0  0  0  0  0  0  0  0  0
  188.1450  177.1950  142.0390 O   0  0  0  0  0  0  0  0  0  0  0  0
  187.9000  176.1650  141.1320 C   0  0  0  0  0  2  0  0  0  0  0  0
  187.9150  174.8280  141.8520 C   0  0  0  0  0  2  0  0  0  0  0  0
  190.0920  171.9130  140.4250 C   0  0  2  0  0  3  0  0  0  0  0  0
  191.9290  170.5350  141.5750 C   0  0  0  0  0  1  0  0  0  0  0  0
  190.2090  173.8630  142.5520 C   0  0  2  0  0  0  0  0  0  0  0  0
  188.8030  172.6660  140.7840 C   0  0  2  0  0  3  0  0  0  0  0  0
  190.1720  174.6860  143.6890 O   0  0  0  0  0  0  0  0  0  0  0  0
  188.0040  172.8410  139.6510 O   0  0  0  0  0  1  0  0  0  0  0  0
  191.1020  172.6600  142.7140 C   0  0  1  0  0  3  0  0  0  0  0  0
  189.1450  174.0170  141.4370 C   0  0  1  0  0  3  0  0  0  0  0  0
  190.5490  172.3790  143.9710 O   0  0  0  0  0  0  0  0  0  0  0  0
  189.5930  173.4070  143.8190 C   0  0  2  0  0  3  0  0  0  0  0  0
  190.7760  171.5100  141.7450 C   0  0  1  0  0  3  0  0  0  0  0  0
  190.9170  172.7010  139.3750 C   0  0  2  0  0  3  0  0  0  0  0  0
  190.7130  172.0810  138.0060 C   0  0  0  0  0  1  0  0  0  0  0  0
  192.4150  172.8780  139.6300 C   0  0  0  0  0  2  0  0  0  0  0  0
  192.7200  174.2190  139.8730 O   0  0  0  0  0  0  0  0  0  0  0  0
  193.2710  174.6510  138.7570 O   0  0  0  0  0  1  0  0  0  0  0  0
  1  7  1  6  0  0  0
  1  8  1  0  0  0  0
  1  5  1  0  0  0  0
  2  6  1  0  0  0  0
  2  1  1  0  0  0  0
  3  8  1  0  0  0  0
  3  9  1  0  0  0  0
  4  2  1  0  0  0  0
  4  6  1  0  0  0  0
  6  3  1  0  0  0  0
  8  5  1  0  0  0  0
  9 10  1  0  0  0  0
 10 11  2  0  0  0  0
 10 12  1  0  0  0  0
 14 15  1  0  0  0  0
 14 13  2  0  0  0  0
 15 12  1  0  0  0  0
 16 23  1  0  0  0  0
 16 18  1  0  0  0  0
 17 22  1  0  0  0  0
 20 16  1  0  0  0  0
 20 17  1  0  0  0  0
 21 19  1  0  0  0  0
 22 21  1  0  0  0  0
 22 14  1  0  0  0  0
 23 21  1  0  0  0  0
 24  4  1  0  0  0  0
 25 26  1  0  0  0  0
 25 24  1  0  0  0  0
 27 30  1  0  0  0  0
 27 37  1  0  0  0  0
 28 37  1  0  0  0  0
 29 33  1  0  0  0  0
 29 31  1  0  0  0  0
 29 36  1  0  0  0  0
 30 34  1  0  0  0  0
 31 36  1  0  0  0  0
 32 30  1  0  0  0  0
 33 35  1  0  0  0  0
 34 26  1  0  0  0  0
 34 29  1  0  0  0  0
 36 35  1  0  0  0  0
 37 33  1  0  0  0  0
 38 40  1  0  0  0  0
 38 27  1  0  0  0  0
 39 38  1  0  0  0  0
 40 41  1  0  0  0  0
 42 41  1  0  0  0  0
M  END
>  <MODEL>
3

>  <REMARK>
 VINA RESULT:      -6.7      2.338      6.028
  Name = 
  12 active torsions:
  status: ('A' for Active; 'I' for Inactive)
    1  A    between atoms: C_1  and  C_10
    2  A    between atoms: C_3  and  C_29
    3  A    between atoms: C_3  and  C_31
    4  A    between atoms: C_4  and  C_10
    5  A    between atoms: C_4  and  O_30
    6  A    between atoms: C_7  and  C_11
    7  A    between atoms: C_7  and  O_18
    8  A    between atoms: C_11  and  N_26
    9  A    between atoms: C_13  and  O_18
   10  A    between atoms: C_22  and  C_38
   11  A    between atoms: C_23  and  O_32
   12  A    between atoms: C_31  and  O_32
                            x       y       z     vdW  Elec       q    Type
                         _______ _______ _______ _____ _____    ______ ____

>  <TORSDO>
F 12

$$$$
=
 OpenBabel11062420003D

 42 48  0  0  1  0  0  0  0  0999 V2000
  186.1190  178.3030  147.4520 C   0  0  1  0  0  0  0  0  0  0  0  0
  186.7040  176.9090  147.3120 C   0  0  2  0  0  3  0  0  0  0  0  0
  186.3560  177.8840  145.0900 C   0  0  2  0  0  3  0  0  0  0  0  0
  188.0840  176.9680  146.6810 C   0  0  2  0  0  3  0  0  0  0  0  0
  184.7340  178.5970  146.9210 C   0  0  0  0  0  2  0  0  0  0  0  0
  186.8680  176.6470  145.8310 C   0  0  1  0  0  3  0  0  0  0  0  0
  186.6360  179.1740  148.4110 O   0  0  0  0  0  1  0  0  0  0  0  0
  185.9760  178.9620  146.1020 C   0  0  1  0  0  3  0  0  0  0  0  0
  185.2290  177.5450  144.2940 O   0  0  0  0  0  0  0  0  0  0  0  0
  185.2900  177.4470  142.9030 C   0  0  0  0  0  0  0  0  0  0  0  0
  185.9290  176.5150  142.3430 O   0  0  0  0  0  0  0  0  0  0  0  0
  184.6220  178.4830  142.0740 C   0  0  0  0  0  2  0  0  0  0  0  0
  182.9090  177.7930  139.8810 O   0  0  0  0  0  0  0  0  0  0  0  0
  182.3760  177.9940  141.0080 C   0  0  0  0  0  0  0  0  0  0  0  0
  183.1830  178.2920  142.1500 N   0  0  0  0  0  2  0  0  0  0  0  0
  178.4370  179.2780  140.5370 C   0  0  1  0  0  3  0  0  0  0  0  0
  180.3180  177.9150  139.7730 N   0  0  0  0  0  2  0  0  0  0  0  0
  178.7340  180.5170  139.6880 C   0  0  0  0  0  1  0  0  0  0  0  0
  180.9120  179.4170  143.1450 N   0  0  0  0  0  1  0  0  0  0  0  0
  178.8630  177.9790  139.8480 C   0  0  0  0  0  2  0  0  0  0  0  0
  180.3860  179.3180  141.7930 C   0  0  1  0  0  3  0  0  0  0  0  0
  180.8810  178.0210  141.1200 C   0  0  2  0  0  3  0  0  0  0  0  0
  178.9780  179.3750  141.8460 O   0  0  0  0  0  0  0  0  0  0  0  0
  188.7730  175.7920  146.9740 O   0  0  0  0  0  0  0  0  0  0  0  0
  190.0450  176.2240  147.3460 C   0  0  0  0  0  2  0  0  0  0  0  0
  191.0980  175.3220  146.7280 C   0  0  0  0  0  2  0  0  0  0  0  0
  190.5690  173.7650  143.1830 C   0  0  2  0  0  3  0  0  0  0  0  0
  191.9670  174.0540  141.0480 C   0  0  0  0  0  1  0  0  0  0  0  0
  191.8990  176.0340  144.3740 C   0  0  2  0  0  0  0  0  0  0  0  0
  190.7540  173.7730  144.7070 C   0  0  2  0  0  3  0  0  0  0  0  0
  192.6910  177.0220  144.9790 O   0  0  0  0  0  0  0  0  0  0  0  0
  189.6940  173.1110  145.3340 O   0  0  0  0  0  1  0  0  0  0  0  0
  192.3860  175.6310  143.0060 C   0  0  1  0  0  3  0  0  0  0  0  0
  190.8850  175.2190  145.2150 C   0  0  1  0  0  3  0  0  0  0  0  0
  193.7020  175.5230  143.4720 O   0  0  0  0  0  0  0  0  0  0  0  0
  193.2890  175.7580  144.8010 C   0  0  2  0  0  3  0  0  0  0  0  0
  191.8880  174.2470  142.5540 C   0  0  1  0  0  3  0  0  0  0  0  0
  189.2530  174.4810  142.7820 C   0  0  2  0  0  3  0  0  0  0  0  0
  188.3690  173.5180  142.0140 C   0  0  0  0  0  1  0  0  0  0  0  0
  189.3620  175.7940  142.0070 C   0  0  0  0  0  2  0  0  0  0  0  0
  188.9220  176.8670  142.7850 O   0  0  0  0  0  0  0  0  0  0  0  0
  189.6450  177.8940  142.3900 O   0  0  0  0  0  1  0  0  0  0  0  0
  1  7  1  1  0  0  0
  2  1  1  0  0  0  0
  3  6  1  0  0  0  0
  3  8  1  0  0  0  0
  4 24  1  0  0  0  0
  4  2  1  0  0  0  0
  5  1  1  0  0  0  0
  6  4  1  0  0  0  0
  6  2  1  0  0  0  0
  8  5  1  0  0  0  0
  8  1  1  0  0  0  0
  9  3  1  0  0  0  0
 10  9  1  0  0  0  0
 11 10  2  0  0  0  0
 12 15  1  0  0  0  0
 12 10  1  0  0  0  0
 13 14  2  0  0  0  0
 14 22  1  0  0  0  0
 14 15  1  0  0  0  0
 16 23  1  0  0  0  0
 17 20  1  0  0  0  0
 17 22  1  0  0  0  0
 18 16  1  0  0  0  0
 20 16  1  0  0  0  0
 21 23  1  0  0  0  0
 21 19  1  0  0  0  0
 22 21  1  0  0  0  0
 24 25  1  0  0  0  0
 26 25  1  0  0  0  0
 27 30  1  0  0  0  0
 28 37  1  0  0  0  0
 29 36  1  0  0  0  0
 29 31  1  0  0  0  0
 29 34  1  0  0  0  0
 30 34  1  0  0  0  0
 30 32  1  0  0  0  0
 33 35  1  0  0  0  0
 33 29  1  0  0  0  0
 34 26  1  0  0  0  0
 35 36  1  0  0  0  0
 36 31  1  0  0  0  0
 37 33  1  0  0  0  0
 37 27  1  0  0  0  0
 38 27  1  0  0  0  0
 39 38  1  0  0  0  0
 40 38  1  0  0  0  0
 40 41  1  0  0  0  0
 42 41  1  0  0  0  0
M  END
>  <MODEL>
4

>  <REMARK>
 VINA RESULT:      -6.6      3.936      6.568
  Name = 
  12 active torsions:
  status: ('A' for Active; 'I' for Inactive)
    1  A    between atoms: C_1  and  C_10
    2  A    between atoms: C_3  and  C_29
    3  A    between atoms: C_3  and  C_31
    4  A    between atoms: C_4  and  C_10
    5  A    between atoms: C_4  and  O_30
    6  A    between atoms: C_7  and  C_11
    7  A    between atoms: C_7  and  O_18
    8  A    between atoms: C_11  and  N_26
    9  A    between atoms: C_13  and  O_18
   10  A    between atoms: C_22  and  C_38
   11  A    between atoms: C_23  and  O_32
   12  A    between atoms: C_31  and  O_32
                            x       y       z     vdW  Elec       q    Type
                         _______ _______ _______ _____ _____    ______ ____

>  <TORSDO>
F 12

$$$$
=
 OpenBabel11062420003D

 42 48  0  0  1  0  0  0  0  0999 V2000
  185.3840  178.5510  145.9600 C   0  0  1  0  0  0  0  0  0  0  0  0
  185.7310  177.1510  146.4340 C   0  0  2  0  0  3  0  0  0  0  0  0
  186.6240  177.5020  144.1780 C   0  0  2  0  0  3  0  0  0  0  0  0
  187.2350  176.9880  146.5690 C   0  0  2  0  0  3  0  0  0  0  0  0
  184.4750  178.7400  144.7660 C   0  0  0  0  0  2  0  0  0  0  0  0
  186.5210  176.4930  145.3230 C   0  0  1  0  0  3  0  0  0  0  0  0
  185.5280  179.6280  146.8330 O   0  0  0  0  0  1  0  0  0  0  0  0
  185.9960  178.8260  144.6080 C   0  0  1  0  0  3  0  0  0  0  0  0
  185.9590  177.0020  143.0250 O   0  0  0  0  0  0  0  0  0  0  0  0
  186.6430  176.5950  141.8780 C   0  0  0  0  0  0  0  0  0  0  0  0
  186.4840  177.1930  140.7790 O   0  0  0  0  0  0  0  0  0  0  0  0
  187.5420  175.4160  141.9530 C   0  0  0  0  0  2  0  0  0  0  0  0
  188.0890  172.8890  140.7130 O   0  0  0  0  0  0  0  0  0  0  0  0
  188.4690  173.9350  140.1170 C   0  0  0  0  0  0  0  0  0  0  0  0
  188.1800  175.2260  140.6610 N   0  0  0  0  0  2  0  0  0  0  0  0
  190.4300  172.2080  136.8680 C   0  0  1  0  0  3  0  0  0  0  0  0
  188.4670  173.3360  137.7910 N   0  0  0  0  0  2  0  0  0  0  0  0
  189.9530  170.7700  137.0920 C   0  0  0  0  0  1  0  0  0  0  0  0
  191.3600  173.3230  140.1600 N   0  0  0  0  0  1  0  0  0  0  0  0
  189.2740  173.1710  136.5870 C   0  0  0  0  0  2  0  0  0  0  0  0
  190.4920  172.8400  139.0980 C   0  0  1  0  0  3  0  0  0  0  0  0
  189.3150  173.8140  138.8850 C   0  0  2  0  0  3  0  0  0  0  0  0
  191.2550  172.6770  137.9230 O   0  0  0  0  0  0  0  0  0  0  0  0
  187.5050  175.9100  147.4110 O   0  0  0  0  0  0  0  0  0  0  0  0
  188.6370  175.3160  146.8530 C   0  0  0  0  0  2  0  0  0  0  0  0
  189.6920  176.3710  146.5760 C   0  0  0  0  0  2  0  0  0  0  0  0
  193.2520  175.2250  145.4420 C   0  0  2  0  0  3  0  0  0  0  0  0
  194.6090  175.9200  143.3750 C   0  0  0  0  0  1  0  0  0  0  0  0
  190.8690  176.3630  144.2740 C   0  0  2  0  0  0  0  0  0  0  0  0
  192.1910  175.8050  146.3890 C   0  0  2  0  0  3  0  0  0  0  0  0
  189.7830  177.0830  143.7530 O   0  0  0  0  0  0  0  0  0  0  0  0
  192.1710  175.0990  147.5950 O   0  0  0  0  0  1  0  0  0  0  0  0
  192.1370  176.5350  143.4780 C   0  0  1  0  0  3  0  0  0  0  0  0
  190.8110  175.7860  145.7100 C   0  0  1  0  0  3  0  0  0  0  0  0
  191.9580  177.9240  143.4330 O   0  0  0  0  0  0  0  0  0  0  0  0
  190.8400  177.8430  144.2910 C   0  0  2  0  0  3  0  0  0  0  0  0
  193.4150  176.2110  144.2710 C   0  0  1  0  0  3  0  0  0  0  0  0
  192.9520  173.7380  145.1210 C   0  0  2  0  0  3  0  0  0  0  0  0
  194.0900  172.8740  145.6290 C   0  0  0  0  0  1  0  0  0  0  0  0
  192.6470  173.3680  143.6690 C   0  0  0  0  0  2  0  0  0  0  0  0
  191.3210  172.9510  143.5320 O   0  0  0  0  0  0  0  0  0  0  0  0
  191.3970  171.6830  143.1850 O   0  0  0  0  0  1  0  0  0  0  0  0
  1  2  1  0  0  0  0
  1  7  1  1  0  0  0
  2  4  1  0  0  0  0
  3  8  1  0  0  0  0
  3  6  1  0  0  0  0
  4 24  1  0  0  0  0
  5  1  1  0  0  0  0
  6  2  1  0  0  0  0
  6  4  1  0  0  0  0
  8  5  1  0  0  0  0
  8  1  1  0  0  0  0
  9  3  1  0  0  0  0
 10 12  1  0  0  0  0
 10  9  1  0  0  0  0
 11 10  2  0  0  0  0
 14 15  1  0  0  0  0
 14 13  2  0  0  0  0
 15 12  1  0  0  0  0
 16 18  1  0  0  0  0
 16 23  1  0  0  0  0
 17 22  1  0  0  0  0
 20 16  1  0  0  0  0
 20 17  1  0  0  0  0
 21 19  1  0  0  0  0
 22 21  1  0  0  0  0
 22 14  1  0  0  0  0
 23 21  1  0  0  0  0
 25 24  1  0  0  0  0
 26 25  1  0  0  0  0
 27 30  1  0  0  0  0
 28 37  1  0  0  0  0
 29 36  1  0  0  0  0
 29 34  1  0  0  0  0
 30 32  1  0  0  0  0
 31 29  1  0  0  0  0
 31 36  1  0  0  0  0
 33 37  1  0  0  0  0
 33 29  1  0  0  0  0
 34 30  1  0  0  0  0
 34 26  1  0  0  0  0
 35 33  1  0  0  0  0
 35 36  1  0  0  0  0
 37 27  1  0  0  0  0
 38 27  1  0  0  0  0
 38 39  1  0  0  0  0
 40 38  1  0  0  0  0
 41 40  1  0  0  0  0
 42 41  1  0  0  0  0
M  END
>  <MODEL>
5

>  <REMARK>
 VINA RESULT:      -6.6      1.862      2.291
  Name = 
  12 active torsions:
  status: ('A' for Active; 'I' for Inactive)
    1  A    between atoms: C_1  and  C_10
    2  A    between atoms: C_3  and  C_29
    3  A    between atoms: C_3  and  C_31
    4  A    between atoms: C_4  and  C_10
    5  A    between atoms: C_4  and  O_30
    6  A    between atoms: C_7  and  C_11
    7  A    between atoms: C_7  and  O_18
    8  A    between atoms: C_11  and  N_26
    9  A    between atoms: C_13  and  O_18
   10  A    between atoms: C_22  and  C_38
   11  A    between atoms: C_23  and  O_32
   12  A    between atoms: C_31  and  O_32
                            x       y       z     vdW  Elec       q    Type
                         _______ _______ _______ _____ _____    ______ ____

>  <TORSDO>
F 12

$$$$
=
 OpenBabel11062420003D

 42 48  0  0  1  0  0  0  0  0999 V2000
  189.0090  176.7810  146.7700 C   0  0  1  0  0  0  0  0  0  0  0  0
  189.9570  175.6090  146.9550 C   0  0  2  0  0  3  0  0  0  0  0  0
  189.7030  176.0940  144.5650 C   0  0  2  0  0  3  0  0  0  0  0  0
  191.3510  175.9660  146.4690 C   0  0  2  0  0  3  0  0  0  0  0  0
  187.6930  176.5810  146.0540 C   0  0  0  0  0  2  0  0  0  0  0  0
  190.4060  175.1840  145.5740 C   0  0  1  0  0  3  0  0  0  0  0  0
  189.1270  177.8980  147.5960 O   0  0  0  0  0  1  0  0  0  0  0  0
  188.9020  177.1580  145.3130 C   0  0  1  0  0  3  0  0  0  0  0  0
  188.8390  175.3300  143.7360 O   0  0  0  0  0  0  0  0  0  0  0  0
  189.0050  175.2430  142.3530 C   0  0  0  0  0  0  0  0  0  0  0  0
  190.1190  174.9350  141.8480 O   0  0  0  0  0  0  0  0  0  0  0  0
  187.8560  175.5560  141.4650 C   0  0  0  0  0  2  0  0  0  0  0  0
  186.6670  177.9100  140.3400 O   0  0  0  0  0  0  0  0  0  0  0  0
  186.4350  177.6530  141.5540 C   0  0  0  0  0  0  0  0  0  0  0  0
  186.9590  176.4660  142.1580 N   0  0  0  0  0  2  0  0  0  0  0  0
  184.3640  179.2880  144.7820 C   0  0  1  0  0  3  0  0  0  0  0  0
  186.4710  178.9040  143.6030 N   0  0  0  0  0  2  0  0  0  0  0  0
  184.4230  178.0600  145.6960 C   0  0  0  0  0  1  0  0  0  0  0  0
  183.4910  177.9200  141.5700 N   0  0  0  0  0  1  0  0  0  0  0  0
  185.7520  179.8430  144.4560 C   0  0  0  0  0  2  0  0  0  0  0  0
  184.2860  178.1410  142.7670 C   0  0  1  0  0  3  0  0  0  0  0  0
  185.6920  178.6520  142.3900 C   0  0  2  0  0  3  0  0  0  0  0  0
  183.6070  179.0510  143.6040 O   0  0  0  0  0  0  0  0  0  0  0  0
  192.2740  175.0950  147.0460 O   0  0  0  0  0  0  0  0  0  0  0  0
  193.4620  175.3540  146.3640 C   0  0  0  0  0  2  0  0  0  0  0  0
  194.1250  174.0480  145.9660 C   0  0  0  0  0  2  0  0  0  0  0  0
  195.4640  174.1390  142.2950 C   0  0  2  0  0  3  0  0  0  0  0  0
  197.5450  173.0190  141.2890 C   0  0  0  0  0  1  0  0  0  0  0  0
  196.4710  173.6450  144.9550 C   0  0  2  0  0  0  0  0  0  0  0  0
  194.4440  173.9070  143.4200 C   0  0  2  0  0  3  0  0  0  0  0  0
  196.9090  173.2270  146.2220 O   0  0  0  0  0  0  0  0  0  0  0  0
  193.2780  174.6390  143.1840 O   0  0  0  0  0  1  0  0  0  0  0  0
  197.3080  173.1030  143.8250 C   0  0  1  0  0  3  0  0  0  0  0  0
  195.0660  174.2720  144.7790 C   0  0  1  0  0  3  0  0  0  0  0  0
  197.2730  171.8150  144.3740 O   0  0  0  0  0  0  0  0  0  0  0  0
  196.3740  172.2300  145.3810 C   0  0  2  0  0  3  0  0  0  0  0  0
  196.5870  173.1000  142.4660 C   0  0  1  0  0  3  0  0  0  0  0  0
  195.8500  175.6370  142.2000 C   0  0  2  0  0  3  0  0  0  0  0  0
  195.2950  176.2200  140.9150 C   0  0  0  0  0  1  0  0  0  0  0  0
  197.3300  176.0020  142.3220 C   0  0  0  0  0  2  0  0  0  0  0  0
  197.4990  177.1180  143.1440 O   0  0  0  0  0  0  0  0  0  0  0  0
  196.4080  177.1670  143.8810 O   0  0  0  0  0  1  0  0  0  0  0  0
  1  2  1  0  0  0  0
  1  7  1  1  0  0  0
  3  8  1  0  0  0  0
  3  6  1  0  0  0  0
  4  2  1  0  0  0  0
  4 24  1  0  0  0  0
  5  1  1  0  0  0  0
  6  4  1  0  0  0  0
  6  2  1  0  0  0  0
  8  5  1  0  0  0  0
  8  1  1  0  0  0  0
  9  3  1  0  0  0  0
 10  9  1  0  0  0  0
 11 10  2  0  0  0  0
 12 15  1  0  0  0  0
 12 10  1  0  0  0  0
 13 14  2  0  0  0  0
 14 15  1  0  0  0  0
 14 22  1  0  0  0  0
 16 18  1  0  0  0  0
 17 20  1  0  0  0  0
 19 21  1  0  0  0  0
 20 16  1  0  0  0  0
 21 23  1  0  0  0  0
 22 21  1  0  0  0  0
 22 17  1  0  0  0  0
 23 16  1  0  0  0  0
 25 24  1  0  0  0  0
 26 25  1  0  0  0  0
 27 37  1  0  0  0  0
 27 30  1  0  0  0  0
 28 37  1  0  0  0  0
 29 36  1  0  0  0  0
 29 31  1  0  0  0  0
 30 34  1  0  0  0  0
 32 30  1  0  0  0  0
 33 35  1  0  0  0  0
 33 29  1  0  0  0  0
 34 29  1  0  0  0  0
 34 26  1  0  0  0  0
 35 36  1  0  0  0  0
 36 31  1  0  0  0  0
 37 33  1  0  0  0  0
 38 27  1  0  0  0  0
 38 40  1  0  0  0  0
 39 38  1  0  0  0  0
 40 41  1  0  0  0  0
 41 42  1  0  0  0  0
M  END
>  <MODEL>
6

>  <REMARK>
 VINA RESULT:      -6.6      2.436      5.466
  Name = 
  12 active torsions:
  status: ('A' for Active; 'I' for Inactive)
    1  A    between atoms: C_1  and  C_10
    2  A    between atoms: C_3  and  C_29
    3  A    between atoms: C_3  and  C_31
    4  A    between atoms: C_4  and  C_10
    5  A    between atoms: C_4  and  O_30
    6  A    between atoms: C_7  and  C_11
    7  A    between atoms: C_7  and  O_18
    8  A    between atoms: C_11  and  N_26
    9  A    between atoms: C_13  and  O_18
   10  A    between atoms: C_22  and  C_38
   11  A    between atoms: C_23  and  O_32
   12  A    between atoms: C_31  and  O_32
                            x       y       z     vdW  Elec       q    Type
                         _______ _______ _______ _____ _____    ______ ____

>  <TORSDO>
F 12

$$$$
=
 OpenBabel11062420003D

 42 48  0  0  1  0  0  0  0  0999 V2000
  184.7480  178.1250  146.2820 C   0  0  1  0  0  0  0  0  0  0  0  0
  185.6370  176.9710  145.8540 C   0  0  2  0  0  3  0  0  0  0  0  0
  186.2460  178.9890  144.6020 C   0  0  2  0  0  3  0  0  0  0  0  0
  187.0850  177.2460  146.2190 C   0  0  2  0  0  3  0  0  0  0  0  0
  183.8020  178.7580  145.2860 C   0  0  0  0  0  2  0  0  0  0  0  0
  186.5880  177.5120  144.8090 C   0  0  1  0  0  3  0  0  0  0  0  0
  184.4790  178.3210  147.6360 O   0  0  0  0  0  1  0  0  0  0  0  0
  185.1580  179.4020  145.5910 C   0  0  1  0  0  3  0  0  0  0  0  0
  185.8000  179.2050  143.2700 O   0  0  0  0  0  0  0  0  0  0  0  0
  185.9480  178.2510  142.2620 C   0  0  0  0  0  0  0  0  0  0  0  0
  185.0620  177.3780  142.0560 O   0  0  0  0  0  0  0  0  0  0  0  0
  187.1900  178.2470  141.4470 C   0  0  0  0  0  2  0  0  0  0  0  0
  186.8410  176.4850  139.2120 O   0  0  0  0  0  0  0  0  0  0  0  0
  187.4410  176.0390  140.2290 C   0  0  0  0  0  0  0  0  0  0  0  0
  187.6900  176.8860  141.3550 N   0  0  0  0  0  2  0  0  0  0  0  0
  189.7760  172.5890  140.3940 C   0  0  1  0  0  3  0  0  0  0  0  0
  188.5240  174.3460  141.5430 N   0  0  0  0  0  2  0  0  0  0  0  0
  191.1440  173.2770  140.4120 C   0  0  0  0  0  1  0  0  0  0  0  0
  187.9590  174.3670  137.8470 N   0  0  0  0  0  1  0  0  0  0  0  0
  188.9240  172.9450  141.6140 C   0  0  0  0  0  2  0  0  0  0  0  0
  188.6790  174.1660  139.0940 C   0  0  1  0  0  3  0  0  0  0  0  0
  187.8020  174.5850  140.2920 C   0  0  2  0  0  3  0  0  0  0  0  0
  189.0720  172.8140  139.1820 O   0  0  0  0  0  0  0  0  0  0  0  0
  187.7870  176.0420  146.2480 O   0  0  0  0  0  0  0  0  0  0  0  0
  188.7980  176.2580  147.1830 C   0  0  0  0  0  2  0  0  0  0  0  0
  189.8790  177.1390  146.5830 C   0  0  0  0  0  2  0  0  0  0  0  0
  193.1650  175.4310  145.3350 C   0  0  2  0  0  3  0  0  0  0  0  0
  194.3440  175.6260  143.0610 C   0  0  0  0  0  1  0  0  0  0  0  0
  190.7860  176.6250  144.2170 C   0  0  2  0  0  0  0  0  0  0  0  0
  192.2770  176.2720  146.2630 C   0  0  2  0  0  3  0  0  0  0  0  0
  189.7220  177.3690  143.6830 O   0  0  0  0  0  0  0  0  0  0  0  0
  192.3240  175.7770  147.5690 O   0  0  0  0  0  1  0  0  0  0  0  0
  191.9690  176.5230  143.2870 C   0  0  1  0  0  3  0  0  0  0  0  0
  190.8340  176.2990  145.7300 C   0  0  1  0  0  3  0  0  0  0  0  0
  191.9180  177.8970  143.0200 O   0  0  0  0  0  0  0  0  0  0  0  0
  190.9000  178.0830  143.9810 C   0  0  2  0  0  3  0  0  0  0  0  0
  193.2900  176.1900  144.0010 C   0  0  1  0  0  3  0  0  0  0  0  0
  192.6910  173.9550  145.3060 C   0  0  2  0  0  3  0  0  0  0  0  0
  193.8210  173.0540  145.7650 C   0  0  0  0  0  1  0  0  0  0  0  0
  192.1170  173.4160  143.9950 C   0  0  0  0  0  2  0  0  0  0  0  0
  191.2310  172.3640  144.2380 O   0  0  0  0  0  0  0  0  0  0  0  0
  190.2010  172.9190  144.8420 O   0  0  0  0  0  1  0  0  0  0  0  0
  1  7  1  1  0  0  0
  2  4  1  0  0  0  0
  2  1  1  0  0  0  0
  3  6  1  0  0  0  0
  3  8  1  0  0  0  0
  4 24  1  0  0  0  0
  5  8  1  0  0  0  0
  5  1  1  0  0  0  0
  6  2  1  0  0  0  0
  6  4  1  0  0  0  0
  8  1  1  0  0  0  0
  9  3  1  0  0  0  0
 10  9  1  0  0  0  0
 11 10  2  0  0  0  0
 12 10  1  0  0  0  0
 13 14  2  0  0  0  0
 14 22  1  0  0  0  0
 14 15  1  0  0  0  0
 15 12  1  0  0  0  0
 16 18  1  0  0  0  0
 16 20  1  0  0  0  0
 17 20  1  0  0  0  0
 19 21  1  0  0  0  0
 21 23  1  0  0  0  0
 21 22  1  0  0  0  0
 22 17  1  0  0  0  0
 23 16  1  0  0  0  0
 24 25  1  0  0  0  0
 26 25  1  0  0  0  0
 27 30  1  0  0  0  0
 28 37  1  0  0  0  0
 29 34  1  0  0  0  0
 30 32  1  0  0  0  0
 31 36  1  0  0  0  0
 31 29  1  0  0  0  0
 33 37  1  0  0  0  0
 33 29  1  0  0  0  0
 34 30  1  0  0  0  0
 34 26  1  0  0  0  0
 35 33  1  0  0  0  0
 35 36  1  0  0  0  0
 36 29  1  0  0  0  0
 37 27  1  0  0  0  0
 38 27  1  0  0  0  0
 38 39  1  0  0  0  0
 40 41  1  0  0  0  0
 40 38  1  0  0  0  0
 41 42  1  0  0  0  0
M  END
>  <MODEL>
7

>  <REMARK>
 VINA RESULT:      -6.6      1.614      2.171
  Name = 
  12 active torsions:
  status: ('A' for Active; 'I' for Inactive)
    1  A    between atoms: C_1  and  C_10
    2  A    between atoms: C_3  and  C_29
    3  A    between atoms: C_3  and  C_31
    4  A    between atoms: C_4  and  C_10
    5  A    between atoms: C_4  and  O_30
    6  A    between atoms: C_7  and  C_11
    7  A    between atoms: C_7  and  O_18
    8  A    between atoms: C_11  and  N_26
    9  A    between atoms: C_13  and  O_18
   10  A    between atoms: C_22  and  C_38
   11  A    between atoms: C_23  and  O_32
   12  A    between atoms: C_31  and  O_32
                            x       y       z     vdW  Elec       q    Type
                         _______ _______ _______ _____ _____    ______ ____

>  <TORSDO>
F 12

$$$$
=
 OpenBabel11062420003D

 42 48  0  0  1  0  0  0  0  0999 V2000
  184.8230  178.6530  142.9300 C   0  0  1  0  0  0  0  0  0  0  0  0
  186.2660  178.6190  142.4600 C   0  0  2  0  0  3  0  0  0  0  0  0
  186.0630  177.4160  144.5860 C   0  0  2  0  0  3  0  0  0  0  0  0
  186.6970  177.1950  142.1560 C   0  0  2  0  0  3  0  0  0  0  0  0
  184.4650  179.3660  144.2140 C   0  0  0  0  0  2  0  0  0  0  0  0
  187.0460  177.8310  143.4900 C   0  0  1  0  0  3  0  0  0  0  0  0
  183.7960  178.4250  142.0150 O   0  0  0  0  0  1  0  0  0  0  0  0
  184.6520  177.8460  144.1930 C   0  0  1  0  0  3  0  0  0  0  0  0
  186.4270  178.0170  145.8220 O   0  0  0  0  0  0  0  0  0  0  0  0
  186.6100  177.2800  146.9930 C   0  0  0  0  0  0  0  0  0  0  0  0
  185.9600  177.5480  148.0390 O   0  0  0  0  0  0  0  0  0  0  0  0
  187.6160  176.1870  147.0100 C   0  0  0  0  0  2  0  0  0  0  0  0
  189.9590  174.6250  146.4730 O   0  0  0  0  0  0  0  0  0  0  0  0
  190.0280  175.8730  146.2970 C   0  0  0  0  0  0  0  0  0  0  0  0
  188.8780  176.6990  146.5000 N   0  0  0  0  0  2  0  0  0  0  0  0
  194.1200  176.2300  145.5860 C   0  0  1  0  0  3  0  0  0  0  0  0
  191.8520  175.8980  144.7360 N   0  0  0  0  0  2  0  0  0  0  0  0
  194.4810  174.7530  145.7650 C   0  0  0  0  0  1  0  0  0  0  0  0
  191.9010  176.9080  148.3360 N   0  0  0  0  0  1  0  0  0  0  0  0
  193.1590  176.4610  144.4170 C   0  0  0  0  0  2  0  0  0  0  0  0
  192.3730  176.2860  147.1090 C   0  0  1  0  0  3  0  0  0  0  0  0
  191.3510  176.4990  145.9740 C   0  0  2  0  0  3  0  0  0  0  0  0
  193.6360  176.8200  146.7830 O   0  0  0  0  0  0  0  0  0  0  0  0
  187.8120  177.2210  141.3200 O   0  0  0  0  0  0  0  0  0  0  0  0
  188.6740  176.2720  141.8680 C   0  0  0  0  0  2  0  0  0  0  0  0
  188.1710  174.8750  141.5550 C   0  0  0  0  0  2  0  0  0  0  0  0
  189.9690  172.4560  139.0670 C   0  0  2  0  0  3  0  0  0  0  0  0
  191.2720  170.2950  139.5450 C   0  0  0  0  0  1  0  0  0  0  0  0
  190.0760  173.1540  141.8660 C   0  0  2  0  0  0  0  0  0  0  0  0
  188.8050  173.2690  139.6520 C   0  0  2  0  0  3  0  0  0  0  0  0
  189.9950  173.3640  143.2520 O   0  0  0  0  0  0  0  0  0  0  0  0
  188.2690  174.1250  138.6860 O   0  0  0  0  0  1  0  0  0  0  0  0
  190.6790  171.8220  141.4980 C   0  0  1  0  0  3  0  0  0  0  0  0
  189.2770  174.0510  140.8890 C   0  0  1  0  0  3  0  0  0  0  0  0
  189.8670  171.1620  142.4300 O   0  0  0  0  0  0  0  0  0  0  0  0
  189.1690  172.3540  142.7200 C   0  0  2  0  0  3  0  0  0  0  0  0
  190.3160  171.3490  140.0790 C   0  0  1  0  0  3  0  0  0  0  0  0
  191.1030  173.3910  138.5740 C   0  0  2  0  0  3  0  0  0  0  0  0
  191.1290  173.3970  137.0590 C   0  0  0  0  0  1  0  0  0  0  0  0
  192.5160  173.1390  139.1020 C   0  0  0  0  0  2  0  0  0  0  0  0
  192.9320  174.1890  139.9240 O   0  0  0  0  0  0  0  0  0  0  0  0
  193.7520  174.9010  139.1790 O   0  0  0  0  0  1  0  0  0  0  0  0
  1  7  1  6  0  0  0
  1  8  1  0  0  0  0
  1  5  1  0  0  0  0
  2  1  1  0  0  0  0
  2  6  1  0  0  0  0
  3  9  1  0  0  0  0
  4  2  1  0  0  0  0
  4  6  1  0  0  0  0
  6  3  1  0  0  0  0
  8  5  1  0  0  0  0
  8  3  1  0  0  0  0
  9 10  1  0  0  0  0
 10 12  1  0  0  0  0
 10 11  2  0  0  0  0
 14 13  2  0  0  0  0
 14 15  1  0  0  0  0
 15 12  1  0  0  0  0
 16 18  1  0  0  0  0
 16 23  1  0  0  0  0
 17 22  1  0  0  0  0
 20 17  1  0  0  0  0
 20 16  1  0  0  0  0
 21 19  1  0  0  0  0
 22 14  1  0  0  0  0
 22 21  1  0  0  0  0
 23 21  1  0  0  0  0
 24 25  1  0  0  0  0
 24  4  1  0  0  0  0
 26 25  1  0  0  0  0
 27 30  1  0  0  0  0
 27 37  1  0  0  0  0
 28 37  1  0  0  0  0
 29 36  1  0  0  0  0
 29 31  1  0  0  0  0
 30 34  1  0  0  0  0
 32 30  1  0  0  0  0
 33 29  1  0  0  0  0
 33 35  1  0  0  0  0
 34 26  1  0  0  0  0
 34 29  1  0  0  0  0
 35 36  1  0  0  0  0
 36 31  1  0  0  0  0
 37 33  1  0  0  0  0
 38 27  1  0  0  0  0
 38 40  1  0  0  0  0
 39 38  1  0  0  0  0
 40 41  1  0  0  0  0
 42 41  1  0  0  0  0
M  END
>  <MODEL>
8

>  <REMARK>
 VINA RESULT:      -6.6      2.342      6.219
  Name = 
  12 active torsions:
  status: ('A' for Active; 'I' for Inactive)
    1  A    between atoms: C_1  and  C_10
    2  A    between atoms: C_3  and  C_29
    3  A    between atoms: C_3  and  C_31
    4  A    between atoms: C_4  and  C_10
    5  A    between atoms: C_4  and  O_30
    6  A    between atoms: C_7  and  C_11
    7  A    between atoms: C_7  and  O_18
    8  A    between atoms: C_11  and  N_26
    9  A    between atoms: C_13  and  O_18
   10  A    between atoms: C_22  and  C_38
   11  A    between atoms: C_23  and  O_32
   12  A    between atoms: C_31  and  O_32
                            x       y       z     vdW  Elec       q    Type
                         _______ _______ _______ _____ _____    ______ ____

>  <TORSDO>
F 12

$$$$
=
 OpenBabel11062420003D

 42 48  0  0  1  0  0  0  0  0999 V2000
  189.6800  176.7780  146.9000 C   0  0  1  0  0  0  0  0  0  0  0  0
  190.6940  175.6500  146.9620 C   0  0  2  0  0  3  0  0  0  0  0  0
  190.0140  176.0190  144.6360 C   0  0  2  0  0  3  0  0  0  0  0  0
  191.9680  176.0330  146.2290 C   0  0  2  0  0  3  0  0  0  0  0  0
  188.2700  176.5000  146.4310 C   0  0  0  0  0  2  0  0  0  0  0  0
  190.9170  175.1790  145.5420 C   0  0  1  0  0  3  0  0  0  0  0  0
  189.8900  177.9340  147.6510 O   0  0  0  0  0  1  0  0  0  0  0  0
  189.3090  177.0860  145.4700 C   0  0  1  0  0  3  0  0  0  0  0  0
  189.0530  175.1880  143.9980 O   0  0  0  0  0  0  0  0  0  0  0  0
  188.9740  175.0560  142.6110 C   0  0  0  0  0  0  0  0  0  0  0  0
  190.0130  174.9250  141.9090 O   0  0  0  0  0  0  0  0  0  0  0  0
  187.6430  175.1100  141.9540 C   0  0  0  0  0  2  0  0  0  0  0  0
  186.7900  177.6070  140.8340 O   0  0  0  0  0  0  0  0  0  0  0  0
  186.4710  177.3560  142.0290 C   0  0  0  0  0  0  0  0  0  0  0  0
  186.8240  176.1050  142.6270 N   0  0  0  0  0  2  0  0  0  0  0  0
  184.4780  179.1670  145.2120 C   0  0  1  0  0  3  0  0  0  0  0  0
  186.5710  178.5790  144.0930 N   0  0  0  0  0  2  0  0  0  0  0  0
  184.3830  177.9320  146.1130 C   0  0  0  0  0  1  0  0  0  0  0  0
  183.5710  177.9230  141.9600 N   0  0  0  0  0  1  0  0  0  0  0  0
  185.9260  179.5800  144.9340 C   0  0  0  0  0  2  0  0  0  0  0  0
  184.3470  178.0510  143.1830 C   0  0  1  0  0  3  0  0  0  0  0  0
  185.8080  178.4180  142.8530 C   0  0  2  0  0  3  0  0  0  0  0  0
  183.7390  179.0190  144.0090 O   0  0  0  0  0  0  0  0  0  0  0  0
  193.0120  175.2220  146.6700 O   0  0  0  0  0  0  0  0  0  0  0  0
  194.1500  176.0130  146.5130 C   0  0  0  0  0  2  0  0  0  0  0  0
  194.6580  175.9100  145.0870 C   0  0  0  0  0  2  0  0  0  0  0  0
  196.4740  172.5150  144.4150 C   0  0  2  0  0  3  0  0  0  0  0  0
  196.5500  171.1010  142.2720 C   0  0  0  0  0  1  0  0  0  0  0  0
  194.2690  174.0400  143.3430 C   0  0  2  0  0  0  0  0  0  0  0  0
  196.3430  173.9850  144.8370 C   0  0  2  0  0  3  0  0  0  0  0  0
  193.3250  174.8670  142.7150 O   0  0  0  0  0  0  0  0  0  0  0  0
  196.8170  174.1670  146.1390 O   0  0  0  0  0  1  0  0  0  0  0  0
  194.8520  172.9960  142.4260 C   0  0  1  0  0  3  0  0  0  0  0  0
  194.8790  174.4420  144.7080 C   0  0  1  0  0  3  0  0  0  0  0  0
  195.0660  173.9500  141.4230 O   0  0  0  0  0  0  0  0  0  0  0  0
  194.6600  174.9950  142.2810 C   0  0  2  0  0  3  0  0  0  0  0  0
  196.2070  172.4420  142.9000 C   0  0  1  0  0  3  0  0  0  0  0  0
  195.6540  171.5950  145.3560 C   0  0  2  0  0  3  0  0  0  0  0  0
  196.5980  170.6970  146.1310 C   0  0  0  0  0  1  0  0  0  0  0  0
  194.5450  170.7450  144.7340 C   0  0  0  0  0  2  0  0  0  0  0  0
  194.7440  169.3910  145.0130 O   0  0  0  0  0  0  0  0  0  0  0  0
  194.4640  168.7660  143.8880 O   0  0  0  0  0  1  0  0  0  0  0  0
  1  2  1  0  0  0  0
  1  7  1  1  0  0  0
  3  8  1  0  0  0  0
  3  6  1  0  0  0  0
  4 24  1  0  0  0  0
  4  2  1  0  0  0  0
  5  1  1  0  0  0  0
  6  4  1  0  0  0  0
  6  2  1  0  0  0  0
  8  5  1  0  0  0  0
  8  1  1  0  0  0  0
  9  3  1  0  0  0  0
 10  9  1  0  0  0  0
 11 10  2  0  0  0  0
 12 10  1  0  0  0  0
 12 15  1  0  0  0  0
 13 14  2  0  0  0  0
 14 15  1  0  0  0  0
 14 22  1  0  0  0  0
 16 18  1  0  0  0  0
 17 20  1  0  0  0  0
 19 21  1  0  0  0  0
 20 16  1  0  0  0  0
 21 23  1  0  0  0  0
 22 21  1  0  0  0  0
 22 17  1  0  0  0  0
 23 16  1  0  0  0  0
 25 24  1  0  0  0  0
 26 25  1  0  0  0  0
 27 30  1  0  0  0  0
 27 38  1  0  0  0  0
 28 37  1  0  0  0  0
 29 34  1  0  0  0  0
 30 32  1  0  0  0  0
 31 29  1  0  0  0  0
 33 37  1  0  0  0  0
 33 29  1  0  0  0  0
 34 30  1  0  0  0  0
 34 26  1  0  0  0  0
 35 36  1  0  0  0  0
 35 33  1  0  0  0  0
 36 31  1  0  0  0  0
 36 29  1  0  0  0  0
 37 27  1  0  0  0  0
 38 39  1  0  0  0  0
 40 41  1  0  0  0  0
 40 38  1  0  0  0  0
 42 41  1  0  0  0  0
M  END
>  <MODEL>
9

>  <REMARK>
 VINA RESULT:      -6.5      2.383      5.012
  Name = 
  12 active torsions:
  status: ('A' for Active; 'I' for Inactive)
    1  A    between atoms: C_1  and  C_10
    2  A    between atoms: C_3  and  C_29
    3  A    between atoms: C_3  and  C_31
    4  A    between atoms: C_4  and  C_10
    5  A    between atoms: C_4  and  O_30
    6  A    between atoms: C_7  and  C_11
    7  A    between atoms: C_7  and  O_18
    8  A    between atoms: C_11  and  N_26
    9  A    between atoms: C_13  and  O_18
   10  A    between atoms: C_22  and  C_38
   11  A    between atoms: C_23  and  O_32
   12  A    between atoms: C_31  and  O_32
                            x       y       z     vdW  Elec       q    Type
                         _______ _______ _______ _____ _____    ______ ____

>  <TORSDO>
F 12

$$$$
