=
 OpenBabel11062419573D

 28 31  0  0  1  0  0  0  0  0999 V2000
  188.4260  177.2460  143.5100 C   0  0  2  0  0  0  0  0  0  0  0  0
  190.1500  177.4820  142.8880 S   0  0  0  0  0  0  0  0  0  0  0  0
  187.2510  176.5070  145.5810 C   0  0  0  0  0  2  0  0  0  0  0  0
  188.8440  175.5120  147.2470 C   0  0  0  0  0  3  0  0  0  0  0  0
  189.6650  175.4310  144.7900 C   0  0  1  0  0  3  0  0  0  0  0  0
  188.2400  177.5210  144.9900 C   0  0  1  0  0  3  0  0  0  0  0  0
  189.9060  175.2200  146.2650 C   0  0  0  0  0  0  0  0  0  0  0  0
  189.5430  176.9550  144.5160 C   0  0  2  0  0  0  0  0  0  0  0  0
  187.6670  176.0800  146.9580 C   0  0  0  0  0  3  0  0  0  0  0  0
  191.1060  175.0200  146.7050 N   0  0  0  0  0  2  0  0  0  0  0  0
  191.8900  174.5580  144.3300 O   0  0  0  0  0  1  0  0  0  0  0  0
  190.5740  174.5940  143.8560 C   0  0  1  0  0  3  0  0  0  0  0  0
  190.9720  172.1300  144.3500 C   0  0  0  0  0  1  0  0  0  0  0  0
  190.0390  173.1570  143.7080 C   0  0  2  0  0  3  0  0  0  0  0  0
  189.6240  172.7810  142.2680 C   0  0  0  0  0  0  0  0  0  0  0  0
  190.1880  171.4210  141.8910 C   0  0  0  0  0  1  0  0  0  0  0  0
  188.1130  172.7420  142.1090 C   0  0  0  0  0  1  0  0  0  0  0  0
  190.1880  173.7950  141.2900 C   0  0  0  0  0  1  0  0  0  0  0  0
  187.8520  178.5670  143.0260 C   0  0  0  0  0  2  0  0  0  0  0  0
  186.6970  178.3220  142.1070 C   0  0  0  0  0  0  0  0  0  0  0  0
  185.0670  179.0790  143.8850 C   0  0  0  0  0  1  0  0  0  0  0  0
  184.5810  177.7900  140.3490 C   0  0  0  0  0  3  0  0  0  0  0  0
  184.3120  178.2850  141.6280 C   0  0  0  0  0  0  0  0  0  0  0  0
  186.9520  177.8230  140.8250 C   0  0  0  0  0  3  0  0  0  0  0  0
  186.1530  177.0800  138.7080 F   0  0  0  0  0  0  0  0  0  0  0  0
  185.3670  178.5510  142.5180 C   0  0  0  0  0  0  0  0  0  0  0  0
  182.9930  178.5060  142.0080 O   0  0  0  0  0  1  0  0  0  0  0  0
  185.8980  177.5600  139.9480 C   0  0  0  0  0  0  0  0  0  0  0  0
  1 19  1  6  0  0  0
  1  8  1  0  0  0  0
  1  6  1  0  0  0  0
  2  1  1  0  0  0  0
  3  9  1  0  0  0  0
  5 12  1  6  0  0  0
  5  7  1  0  0  0  0
  6  3  1  1  0  0  0
  7 10  2  0  0  0  0
  7  4  1  0  0  0  0
  8  2  1  1  0  0  0
  8  5  1  0  0  0  0
  8  6  1  0  0  0  0
  9  4  2  0  0  0  0
 12 11  1  1  0  0  0
 14 12  1  0  0  0  0
 14 13  1  6  0  0  0
 15 14  1  0  0  0  0
 16 15  1  0  0  0  0
 17 15  1  0  0  0  0
 18 15  1  0  0  0  0
 20 26  1  0  0  0  0
 20 19  1  0  0  0  0
 22 23  1  0  0  0  0
 23 27  1  0  0  0  0
 23 26  2  0  0  0  0
 24 20  2  0  0  0  0
 25 28  1  0  0  0  0
 26 21  1  0  0  0  0
 28 22  2  0  0  0  0
 28 24  1  0  0  0  0
M  END
>  <MODEL>
1

>  <REMARK>
 VINA RESULT:      -7.0      0.000      0.000
  Name = 
  5 active torsions:
  status: ('A' for Active; 'I' for Inactive)
    1  A    between atoms: C_1  and  C_11
    2  A    between atoms: C_2  and  C_11
    3  A    between atoms: C_3  and  C_28
    4  A    between atoms: C_12  and  C_24
    5  A    between atoms: C_24  and  C_28
                            x       y       z     vdW  Elec       q    Type
                         _______ _______ _______ _____ _____    ______ ____

>  <TORSDO>
F 5

$$$$
=
 OpenBabel11062419573D

 28 31  0  0  1  0  0  0  0  0999 V2000
  190.0110  176.6080  144.5440 C   0  0  2  0  0  0  0  0  0  0  0  0
  190.4170  176.5860  142.7410 S   0  0  0  0  0  0  0  0  0  0  0  0
  191.1460  176.2650  146.7380 C   0  0  0  0  0  2  0  0  0  0  0  0
  193.4600  175.3370  146.4510 C   0  0  0  0  0  3  0  0  0  0  0  0
  191.8550  174.8570  144.4740 C   0  0  1  0  0  3  0  0  0  0  0  0
  191.1340  177.0890  145.4430 C   0  0  1  0  0  3  0  0  0  0  0  0
  193.2320  174.8150  145.0890 C   0  0  0  0  0  0  0  0  0  0  0  0
  191.4770  176.3370  144.1930 C   0  0  2  0  0  0  0  0  0  0  0  0
  192.5480  175.9790  147.1890 C   0  0  0  0  0  3  0  0  0  0  0  0
  194.2640  174.5530  144.3550 N   0  0  0  0  0  2  0  0  0  0  0  0
  192.5460  172.7780  143.4120 O   0  0  0  0  0  1  0  0  0  0  0  0
  191.6120  173.8190  143.3500 C   0  0  1  0  0  3  0  0  0  0  0  0
  190.0190  172.2970  144.6230 C   0  0  0  0  0  1  0  0  0  0  0  0
  190.1870  173.2410  143.4310 C   0  0  2  0  0  3  0  0  0  0  0  0
  189.6710  172.6380  142.1060 C   0  0  0  0  0  0  0  0  0  0  0  0
  188.1600  172.7730  142.0130 C   0  0  0  0  0  1  0  0  0  0  0  0
  190.2950  173.3170  140.8980 C   0  0  0  0  0  1  0  0  0  0  0  0
  190.0000  171.1570  142.0530 C   0  0  0  0  0  1  0  0  0  0  0  0
  189.2240  177.9070  144.5600 C   0  0  0  0  0  2  0  0  0  0  0  0
  187.8170  177.6510  145.0020 C   0  0  0  0  0  0  0  0  0  0  0  0
  186.9280  178.4260  142.7670 C   0  0  0  0  0  1  0  0  0  0  0  0
  185.2080  177.2000  145.9180 C   0  0  0  0  0  3  0  0  0  0  0  0
  185.4140  177.6780  144.6220 C   0  0  0  0  0  0  0  0  0  0  0  0
  187.5960  177.1760  146.2990 C   0  0  0  0  0  3  0  0  0  0  0  0
  186.0910  176.4850  148.0110 F   0  0  0  0  0  0  0  0  0  0  0  0
  186.7190  177.9120  144.1560 C   0  0  0  0  0  0  0  0  0  0  0  0
  184.3160  177.9240  143.8050 O   0  0  0  0  0  1  0  0  0  0  0  0
  186.2960  176.9480  146.7550 C   0  0  0  0  0  0  0  0  0  0  0  0
  1 19  1  1  0  0  0
  1  6  1  0  0  0  0
  2  1  1  0  0  0  0
  3  9  1  0  0  0  0
  4  9  2  0  0  0  0
  5 12  1  6  0  0  0
  5  7  1  0  0  0  0
  6  3  1  1  0  0  0
  7  4  1  0  0  0  0
  8  2  1  6  0  0  0
  8  5  1  0  0  0  0
  8  1  1  0  0  0  0
  8  6  1  0  0  0  0
 10  7  2  0  0  0  0
 12 11  1  1  0  0  0
 12 14  1  0  0  0  0
 14 13  1  1  0  0  0
 15 14  1  0  0  0  0
 16 15  1  0  0  0  0
 17 15  1  0  0  0  0
 18 15  1  0  0  0  0
 19 20  1  0  0  0  0
 20 24  1  0  0  0  0
 21 26  1  0  0  0  0
 22 28  1  0  0  0  0
 23 22  2  0  0  0  0
 24 28  2  0  0  0  0
 26 23  1  0  0  0  0
 26 20  2  0  0  0  0
 27 23  1  0  0  0  0
 28 25  1  0  0  0  0
M  END
>  <MODEL>
2

>  <REMARK>
 VINA RESULT:      -6.9      2.500      3.677
  Name = 
  5 active torsions:
  status: ('A' for Active; 'I' for Inactive)
    1  A    between atoms: C_1  and  C_11
    2  A    between atoms: C_2  and  C_11
    3  A    between atoms: C_3  and  C_28
    4  A    between atoms: C_12  and  C_24
    5  A    between atoms: C_24  and  C_28
                            x       y       z     vdW  Elec       q    Type
                         _______ _______ _______ _____ _____    ______ ____

>  <TORSDO>
F 5

$$$$
=
 OpenBabel11062419573D

 28 31  0  0  1  0  0  0  0  0999 V2000
  188.5320  177.2570  143.7920 C   0  0  2  0  0  0  0  0  0  0  0  0
  190.1670  177.5130  142.9680 S   0  0  0  0  0  0  0  0  0  0  0  0
  187.6150  176.3180  145.9120 C   0  0  0  0  0  2  0  0  0  0  0  0
  189.3710  175.0920  147.2210 C   0  0  0  0  0  3  0  0  0  0  0  0
  189.8500  175.2710  144.6800 C   0  0  1  0  0  3  0  0  0  0  0  0
  188.5590  177.3650  145.3050 C   0  0  1  0  0  3  0  0  0  0  0  0
  190.2780  174.8840  146.0750 C   0  0  0  0  0  0  0  0  0  0  0  0
  189.7610  176.8200  144.5950 C   0  0  2  0  0  0  0  0  0  0  0  0
  188.1930  175.7240  147.1620 C   0  0  0  0  0  3  0  0  0  0  0  0
  191.5150  174.6010  146.3200 N   0  0  0  0  0  2  0  0  0  0  0  0
  191.9590  174.4250  143.8050 O   0  0  0  0  0  1  0  0  0  0  0  0
  190.5870  174.5220  143.5430 C   0  0  1  0  0  3  0  0  0  0  0  0
  190.9810  172.0170  143.7620 C   0  0  0  0  0  1  0  0  0  0  0  0
  190.0000  173.1120  143.3400 C   0  0  2  0  0  3  0  0  0  0  0  0
  189.3940  172.8740  141.9390 C   0  0  0  0  0  0  0  0  0  0  0  0
  190.0290  171.6580  141.2850 C   0  0  0  0  0  1  0  0  0  0  0  0
  187.8900  172.6620  142.0040 C   0  0  0  0  0  1  0  0  0  0  0  0
  189.6760  174.0700  141.0470 C   0  0  0  0  0  1  0  0  0  0  0  0
  187.9590  178.6410  143.5410 C   0  0  0  0  0  2  0  0  0  0  0  0
  186.4900  178.5490  143.2690 C   0  0  0  0  0  0  0  0  0  0  0  0
  186.9310  177.9320  140.8580 C   0  0  0  0  0  1  0  0  0  0  0  0
  183.7260  178.4490  142.8220 C   0  0  0  0  0  3  0  0  0  0  0  0
  184.6080  178.1740  141.7740 C   0  0  0  0  0  0  0  0  0  0  0  0
  185.5960  178.8250  144.3090 C   0  0  0  0  0  3  0  0  0  0  0  0
  183.3590  179.0390  145.1000 F   0  0  0  0  0  0  0  0  0  0  0  0
  185.9960  178.2260  141.9880 C   0  0  0  0  0  0  0  0  0  0  0  0
  184.0970  177.8550  140.5210 O   0  0  0  0  0  1  0  0  0  0  0  0
  184.2180  178.7730  144.0870 C   0  0  0  0  0  0  0  0  0  0  0  0
  1 19  1  6  0  0  0
  1  8  1  0  0  0  0
  1  6  1  0  0  0  0
  2  1  1  0  0  0  0
  3  9  1  0  0  0  0
  5 12  1  6  0  0  0
  5  7  1  0  0  0  0
  6  3  1  1  0  0  0
  7 10  2  0  0  0  0
  7  4  1  0  0  0  0
  8  2  1  6  0  0  0
  8  5  1  0  0  0  0
  8  6  1  0  0  0  0
  9  4  2  0  0  0  0
 12 11  1  1  0  0  0
 14 12  1  0  0  0  0
 14 13  1  6  0  0  0
 15 17  1  0  0  0  0
 15 14  1  0  0  0  0
 16 15  1  0  0  0  0
 18 15  1  0  0  0  0
 20 19  1  0  0  0  0
 20 24  1  0  0  0  0
 21 26  1  0  0  0  0
 22 28  1  0  0  0  0
 23 26  1  0  0  0  0
 23 22  2  0  0  0  0
 26 20  2  0  0  0  0
 27 23  1  0  0  0  0
 28 24  2  0  0  0  0
 28 25  1  0  0  0  0
M  END
>  <MODEL>
3

>  <REMARK>
 VINA RESULT:      -6.7      1.549      2.079
  Name = 
  5 active torsions:
  status: ('A' for Active; 'I' for Inactive)
    1  A    between atoms: C_1  and  C_11
    2  A    between atoms: C_2  and  C_11
    3  A    between atoms: C_3  and  C_28
    4  A    between atoms: C_12  and  C_24
    5  A    between atoms: C_24  and  C_28
                            x       y       z     vdW  Elec       q    Type
                         _______ _______ _______ _____ _____    ______ ____

>  <TORSDO>
F 5

$$$$
=
 OpenBabel11062419573D

 28 31  0  0  1  0  0  0  0  0999 V2000
  190.0170  175.7510  145.7520 C   0  0  2  0  0  0  0  0  0  0  0  0
  191.1750  176.4010  147.0390 S   0  0  0  0  0  0  0  0  0  0  0  0
  189.6910  173.7010  144.3710 C   0  0  0  0  0  2  0  0  0  0  0  0
  191.6540  172.1450  144.5400 C   0  0  0  0  0  3  0  0  0  0  0  0
  192.1940  174.6220  145.0750 C   0  0  1  0  0  3  0  0  0  0  0  0
  189.7900  174.2520  145.8000 C   0  0  1  0  0  3  0  0  0  0  0  0
  192.6030  173.1710  145.0130 C   0  0  0  0  0  0  0  0  0  0  0  0
  191.1300  174.7950  146.1930 C   0  0  2  0  0  0  0  0  0  0  0  0
  190.3650  172.3650  144.2530 C   0  0  0  0  0  3  0  0  0  0  0  0
  193.6880  172.7770  145.5960 N   0  0  0  0  0  2  0  0  0  0  0  0
  194.2030  175.4920  146.1400 O   0  0  0  0  0  1  0  0  0  0  0  0
  193.3680  175.6320  145.0260 C   0  0  1  0  0  3  0  0  0  0  0  0
  195.6000  176.0400  143.8740 C   0  0  0  0  0  1  0  0  0  0  0  0
  194.1930  175.4560  143.7370 C   0  0  2  0  0  3  0  0  0  0  0  0
  193.4690  175.9190  142.4530 C   0  0  0  0  0  0  0  0  0  0  0  0
  192.9050  174.7250  141.7010 C   0  0  0  0  0  1  0  0  0  0  0  0
  192.3330  176.8800  142.7620 C   0  0  0  0  0  1  0  0  0  0  0  0
  194.4550  176.6130  141.5300 C   0  0  0  0  0  1  0  0  0  0  0  0
  188.7170  176.1330  146.4360 C   0  0  0  0  0  2  0  0  0  0  0  0
  187.8430  176.8980  145.4920 C   0  0  0  0  0  0  0  0  0  0  0  0
  185.9590  176.9080  147.1760 C   0  0  0  0  0  1  0  0  0  0  0  0
  186.2470  178.2830  143.6510 C   0  0  0  0  0  3  0  0  0  0  0  0
  185.7310  177.9540  144.9080 C   0  0  0  0  0  0  0  0  0  0  0  0
  188.3460  177.2300  144.2290 C   0  0  0  0  0  3  0  0  0  0  0  0
  188.0480  178.2420  142.0940 F   0  0  0  0  0  0  0  0  0  0  0  0
  186.5220  177.2560  145.8350 C   0  0  0  0  0  0  0  0  0  0  0  0
  184.4280  178.3210  145.2240 O   0  0  0  0  0  1  0  0  0  0  0  0
  187.5520  177.9220  143.3130 C   0  0  0  0  0  0  0  0  0  0  0  0
  1  6  1  0  0  0  0
  1  8  1  0  0  0  0
  1 19  1  6  0  0  0
  1  2  1  0  0  0  0
  4  7  1  0  0  0  0
  5 12  1  1  0  0  0
  5  8  1  0  0  0  0
  6  3  1  6  0  0  0
  6  8  1  0  0  0  0
  7  5  1  0  0  0  0
  7 10  2  0  0  0  0
  8  2  1  1  0  0  0
  9  3  1  0  0  0  0
  9  4  2  0  0  0  0
 12 11  1  1  0  0  0
 14 13  1  1  0  0  0
 14 12  1  0  0  0  0
 15 17  1  0  0  0  0
 15 14  1  0  0  0  0
 16 15  1  0  0  0  0
 18 15  1  0  0  0  0
 20 26  1  0  0  0  0
 20 19  1  0  0  0  0
 22 23  1  0  0  0  0
 23 27  1  0  0  0  0
 23 26  2  0  0  0  0
 24 20  2  0  0  0  0
 25 28  1  0  0  0  0
 26 21  1  0  0  0  0
 28 22  2  0  0  0  0
 28 24  1  0  0  0  0
M  END
>  <MODEL>
4

>  <REMARK>
 VINA RESULT:      -6.7      2.690      4.172
  Name = 
  5 active torsions:
  status: ('A' for Active; 'I' for Inactive)
    1  A    between atoms: C_1  and  C_11
    2  A    between atoms: C_2  and  C_11
    3  A    between atoms: C_3  and  C_28
    4  A    between atoms: C_12  and  C_24
    5  A    between atoms: C_24  and  C_28
                            x       y       z     vdW  Elec       q    Type
                         _______ _______ _______ _____ _____    ______ ____

>  <TORSDO>
F 5

$$$$
=
 OpenBabel11062419573D

 28 31  0  0  1  0  0  0  0  0999 V2000
  190.8420  176.4780  143.4270 C   0  0  2  0  0  0  0  0  0  0  0  0
  190.5020  178.2750  143.1540 S   0  0  0  0  0  0  0  0  0  0  0  0
  189.8120  174.2650  142.9220 C   0  0  0  0  0  2  0  0  0  0  0  0
  187.4810  174.5090  142.0230 C   0  0  0  0  0  3  0  0  0  0  0  0
  188.3000  176.5100  143.4530 C   0  0  1  0  0  3  0  0  0  0  0  0
  190.3620  175.5640  142.3170 C   0  0  1  0  0  3  0  0  0  0  0  0
  187.2710  175.8720  142.5510 C   0  0  0  0  0  0  0  0  0  0  0  0
  189.5800  176.8040  142.6250 C   0  0  2  0  0  0  0  0  0  0  0  0
  188.5980  173.7890  142.1790 C   0  0  0  0  0  3  0  0  0  0  0  0
  186.3270  176.5880  142.0340 N   0  0  0  0  0  2  0  0  0  0  0  0
  187.1030  178.6230  143.6250 O   0  0  0  0  0  1  0  0  0  0  0  0
  187.7530  177.6320  144.3700 C   0  0  1  0  0  3  0  0  0  0  0  0
  185.4430  177.7940  145.4270 C   0  0  0  0  0  1  0  0  0  0  0  0
  186.7850  177.0610  145.4240 C   0  0  2  0  0  3  0  0  0  0  0  0
  187.3980  176.9170  146.8350 C   0  0  0  0  0  0  0  0  0  0  0  0
  188.2190  175.6410  146.9300 C   0  0  0  0  0  1  0  0  0  0  0  0
  188.2910  178.0970  147.1840 C   0  0  0  0  0  1  0  0  0  0  0  0
  186.2910  176.8250  147.8690 C   0  0  0  0  0  1  0  0  0  0  0  0
  192.3040  176.4820  143.0130 C   0  0  0  0  0  2  0  0  0  0  0  0
  193.1670  176.0670  144.1630 C   0  0  0  0  0  0  0  0  0  0  0  0
  193.4380  173.7540  143.1780 C   0  0  0  0  0  1  0  0  0  0  0  0
  194.7310  175.3430  146.3720 C   0  0  0  0  0  3  0  0  0  0  0  0
  194.4840  174.4100  145.3620 C   0  0  0  0  0  0  0  0  0  0  0  0
  193.4190  176.9900  145.1830 C   0  0  0  0  0  3  0  0  0  0  0  0
  194.4420  177.5320  147.2640 F   0  0  0  0  0  0  0  0  0  0  0  0
  193.6970  174.7620  144.2530 C   0  0  0  0  0  0  0  0  0  0  0  0
  195.0210  173.1320  145.4720 O   0  0  0  0  0  1  0  0  0  0  0  0
  194.2010  176.6310  146.2830 C   0  0  0  0  0  0  0  0  0  0  0  0
  1 19  1  1  0  0  0
  2  1  1  0  0  0  0
  4  9  2  0  0  0  0
  4  7  1  0  0  0  0
  5 12  1  6  0  0  0
  6  8  1  0  0  0  0
  6  3  1  1  0  0  0
  6  1  1  0  0  0  0
  7  5  1  0  0  0  0
  8  2  1  6  0  0  0
  8  1  1  0  0  0  0
  8  5  1  0  0  0  0
  9  3  1  0  0  0  0
 10  7  2  0  0  0  0
 12 11  1  6  0  0  0
 12 14  1  0  0  0  0
 14 13  1  1  0  0  0
 14 15  1  0  0  0  0
 15 16  1  0  0  0  0
 15 17  1  0  0  0  0
 15 18  1  0  0  0  0
 19 20  1  0  0  0  0
 20 26  2  0  0  0  0
 20 24  1  0  0  0  0
 21 26  1  0  0  0  0
 23 27  1  0  0  0  0
 23 22  2  0  0  0  0
 24 28  2  0  0  0  0
 26 23  1  0  0  0  0
 28 22  1  0  0  0  0
 28 25  1  0  0  0  0
M  END
>  <MODEL>
5

>  <REMARK>
 VINA RESULT:      -6.6      3.632      7.505
  Name = 
  5 active torsions:
  status: ('A' for Active; 'I' for Inactive)
    1  A    between atoms: C_1  and  C_11
    2  A    between atoms: C_2  and  C_11
    3  A    between atoms: C_3  and  C_28
    4  A    between atoms: C_12  and  C_24
    5  A    between atoms: C_24  and  C_28
                            x       y       z     vdW  Elec       q    Type
                         _______ _______ _______ _____ _____    ______ ____

>  <TORSDO>
F 5

$$$$
=
 OpenBabel11062419573D

 28 31  0  0  1  0  0  0  0  0999 V2000
  190.1780  176.6860  144.4100 C   0  0  2  0  0  0  0  0  0  0  0  0
  191.0390  177.2330  142.8690 S   0  0  0  0  0  0  0  0  0  0  0  0
  190.7150  175.5900  146.5840 C   0  0  0  0  0  2  0  0  0  0  0  0
  193.0590  174.6910  146.6160 C   0  0  0  0  0  3  0  0  0  0  0  0
  192.0420  174.9640  144.2480 C   0  0  1  0  0  3  0  0  0  0  0  0
  191.0090  176.7910  145.6750 C   0  0  1  0  0  3  0  0  0  0  0  0
  193.2130  174.6540  145.1490 C   0  0  0  0  0  0  0  0  0  0  0  0
  191.6940  176.4720  144.3810 C   0  0  2  0  0  0  0  0  0  0  0  0
  191.9620  175.1030  147.2630 C   0  0  0  0  0  3  0  0  0  0  0  0
  194.4090  174.5950  144.6620 N   0  0  0  0  0  2  0  0  0  0  0  0
  193.4000  174.5990  142.2610 O   0  0  0  0  0  1  0  0  0  0  0  0
  192.1400  174.3630  142.8240 C   0  0  1  0  0  3  0  0  0  0  0  0
  192.4900  172.1330  141.6480 C   0  0  0  0  0  1  0  0  0  0  0  0
  191.8580  172.8490  142.8440 C   0  0  2  0  0  3  0  0  0  0  0  0
  190.3720  172.4840  143.0500 C   0  0  0  0  0  0  0  0  0  0  0  0
  190.0690  172.3040  144.5290 C   0  0  0  0  0  1  0  0  0  0  0  0
  189.4460  173.5510  142.4900 C   0  0  0  0  0  1  0  0  0  0  0  0
  190.0660  171.1660  142.3600 C   0  0  0  0  0  1  0  0  0  0  0  0
  189.3630  177.9460  144.6470 C   0  0  0  0  0  2  0  0  0  0  0  0
  187.9040  177.6540  144.4920 C   0  0  0  0  0  0  0  0  0  0  0  0
  187.6170  177.5410  147.0010 C   0  0  0  0  0  1  0  0  0  0  0  0
  185.1910  177.0590  144.1240 C   0  0  0  0  0  3  0  0  0  0  0  0
  185.7110  177.1510  145.4180 C   0  0  0  0  0  0  0  0  0  0  0  0
  187.3710  177.5550  143.2030 C   0  0  0  0  0  3  0  0  0  0  0  0
  185.5100  177.1690  141.7670 F   0  0  0  0  0  0  0  0  0  0  0  0
  187.0710  177.4450  145.6120 C   0  0  0  0  0  0  0  0  0  0  0  0
  184.8690  176.9450  146.5050 O   0  0  0  0  0  1  0  0  0  0  0  0
  186.0180  177.2610  143.0190 C   0  0  0  0  0  0  0  0  0  0  0  0
  1 19  1  6  0  0  0
  1  6  1  0  0  0  0
  2  1  1  0  0  0  0
  3  9  1  0  0  0  0
  4  9  2  0  0  0  0
  5 12  1  6  0  0  0
  5  8  1  0  0  0  0
  5  7  1  0  0  0  0
  6  3  1  1  0  0  0
  7  4  1  0  0  0  0
  8  2  1  6  0  0  0
  8  1  1  0  0  0  0
  8  6  1  0  0  0  0
 10  7  2  0  0  0  0
 12 11  1  1  0  0  0
 12 14  1  0  0  0  0
 14 13  1  6  0  0  0
 14 15  1  0  0  0  0
 15 16  1  0  0  0  0
 17 15  1  0  0  0  0
 18 15  1  0  0  0  0
 20 19  1  0  0  0  0
 20 26  1  0  0  0  0
 22 23  1  0  0  0  0
 23 26  2  0  0  0  0
 23 27  1  0  0  0  0
 24 20  2  0  0  0  0
 25 28  1  0  0  0  0
 26 21  1  0  0  0  0
 28 24  1  0  0  0  0
 28 22  2  0  0  0  0
M  END
>  <MODEL>
6

>  <REMARK>
 VINA RESULT:      -6.5      2.121      3.148
  Name = 
  5 active torsions:
  status: ('A' for Active; 'I' for Inactive)
    1  A    between atoms: C_1  and  C_11
    2  A    between atoms: C_2  and  C_11
    3  A    between atoms: C_3  and  C_28
    4  A    between atoms: C_12  and  C_24
    5  A    between atoms: C_24  and  C_28
                            x       y       z     vdW  Elec       q    Type
                         _______ _______ _______ _____ _____    ______ ____

>  <TORSDO>
F 5

$$$$
=
 OpenBabel11062419573D

 28 31  0  0  1  0  0  0  0  0999 V2000
  190.7810  173.7920  143.6120 C   0  0  2  0  0  0  0  0  0  0  0  0
  189.8270  172.6020  144.6560 S   0  0  0  0  0  0  0  0  0  0  0  0
  192.4480  175.6250  143.8850 C   0  0  0  0  0  2  0  0  0  0  0  0
  192.7340  176.2700  146.2940 C   0  0  0  0  0  3  0  0  0  0  0  0
  190.4650  175.1470  145.7400 C   0  0  1  0  0  3  0  0  0  0  0  0
  192.1590  174.1400  144.1410 C   0  0  1  0  0  3  0  0  0  0  0  0
  191.4490  175.6990  146.7430 C   0  0  0  0  0  0  0  0  0  0  0  0
  191.0580  173.8540  145.1160 C   0  0  2  0  0  0  0  0  0  0  0  0
  193.1870  176.2440  145.0350 C   0  0  0  0  0  3  0  0  0  0  0  0
  191.2940  175.4600  148.0040 N   0  0  0  0  0  2  0  0  0  0  0  0
  188.8980  174.5750  147.5150 O   0  0  0  0  0  1  0  0  0  0  0  0
  188.9940  175.1110  146.2250 C   0  0  1  0  0  3  0  0  0  0  0  0
  187.1080  176.6020  147.0620 C   0  0  0  0  0  1  0  0  0  0  0  0
  188.3720  176.5210  146.2040 C   0  0  2  0  0  3  0  0  0  0  0  0
  188.1810  177.1080  144.7890 C   0  0  0  0  0  0  0  0  0  0  0  0
  189.4400  177.8300  144.3380 C   0  0  0  0  0  1  0  0  0  0  0  0
  187.8490  176.0290  143.7710 C   0  0  0  0  0  1  0  0  0  0  0  0
  187.0530  178.1250  144.8030 C   0  0  0  0  0  1  0  0  0  0  0  0
  191.2570  172.8040  142.5600 C   0  0  0  0  0  2  0  0  0  0  0  0
  190.3680  172.8620  141.3580 C   0  0  0  0  0  0  0  0  0  0  0  0
  191.1350  170.5680  140.6260 C   0  0  0  0  0  1  0  0  0  0  0  0
  188.7190  173.0640  139.1010 C   0  0  0  0  0  3  0  0  0  0  0  0
  189.4860  171.9130  139.2990 C   0  0  0  0  0  0  0  0  0  0  0  0
  189.5980  174.0110  141.1460 C   0  0  0  0  0  3  0  0  0  0  0  0
  188.0310  175.2260  139.8260 F   0  0  0  0  0  0  0  0  0  0  0  0
  190.3180  171.8050  140.4260 C   0  0  0  0  0  0  0  0  0  0  0  0
  189.4170  170.8830  138.3680 O   0  0  0  0  0  1  0  0  0  0  0  0
  188.7750  174.1110  140.0230 C   0  0  0  0  0  0  0  0  0  0  0  0
  1 19  1  6  0  0  0
  1  6  1  0  0  0  0
  1  2  1  0  0  0  0
  1  8  1  0  0  0  0
  3  9  1  0  0  0  0
  4  7  1  0  0  0  0
  5 12  1  1  0  0  0
  5  7  1  0  0  0  0
  6  3  1  1  0  0  0
  6  8  1  0  0  0  0
  7 10  2  0  0  0  0
  8  2  1  1  0  0  0
  8  5  1  0  0  0  0
  9  4  2  0  0  0  0
 12 11  1  1  0  0  0
 14 12  1  0  0  0  0
 14 13  1  6  0  0  0
 15 18  1  0  0  0  0
 15 14  1  0  0  0  0
 16 15  1  0  0  0  0
 17 15  1  0  0  0  0
 20 19  1  0  0  0  0
 22 23  2  0  0  0  0
 22 28  1  0  0  0  0
 23 26  1  0  0  0  0
 24 20  1  0  0  0  0
 25 28  1  0  0  0  0
 26 21  1  0  0  0  0
 26 20  2  0  0  0  0
 27 23  1  0  0  0  0
 28 24  2  0  0  0  0
M  END
>  <MODEL>
7

>  <REMARK>
 VINA RESULT:      -6.4      3.051      5.828
  Name = 
  5 active torsions:
  status: ('A' for Active; 'I' for Inactive)
    1  A    between atoms: C_1  and  C_11
    2  A    between atoms: C_2  and  C_11
    3  A    between atoms: C_3  and  C_28
    4  A    between atoms: C_12  and  C_24
    5  A    between atoms: C_24  and  C_28
                            x       y       z     vdW  Elec       q    Type
                         _______ _______ _______ _____ _____    ______ ____

>  <TORSDO>
F 5

$$$$
=
 OpenBabel11062419573D

 28 31  0  0  1  0  0  0  0  0999 V2000
  188.4340  175.8460  143.5200 C   0  0  2  0  0  0  0  0  0  0  0  0
  188.8030  174.1080  143.0090 S   0  0  0  0  0  0  0  0  0  0  0  0
  189.5030  178.0970  143.4610 C   0  0  0  0  0  2  0  0  0  0  0  0
  191.9120  177.9630  142.7660 C   0  0  0  0  0  3  0  0  0  0  0  0
  190.9620  175.7790  143.7870 C   0  0  1  0  0  3  0  0  0  0  0  0
  189.0180  176.9130  142.6140 C   0  0  1  0  0  3  0  0  0  0  0  0
  192.0720  176.5340  143.0970 C   0  0  0  0  0  0  0  0  0  0  0  0
  189.7700  175.6300  142.8030 C   0  0  2  0  0  0  0  0  0  0  0  0
  190.7830  178.6650  142.9210 C   0  0  0  0  0  3  0  0  0  0  0  0
  193.0640  175.8930  142.5710 N   0  0  0  0  0  2  0  0  0  0  0  0
  192.3410  173.7730  143.8300 O   0  0  0  0  0  1  0  0  0  0  0  0
  191.4190  174.5230  144.5700 C   0  0  1  0  0  3  0  0  0  0  0  0
  192.9990  173.8420  146.4450 C   0  0  0  0  0  1  0  0  0  0  0  0
  192.0400  174.9130  145.9250 C   0  0  2  0  0  3  0  0  0  0  0  0
  191.0130  175.3710  146.9840 C   0  0  0  0  0  0  0  0  0  0  0  0
  189.7440  174.5400  146.8870 C   0  0  0  0  0  1  0  0  0  0  0  0
  191.5660  175.2500  148.3950 C   0  0  0  0  0  1  0  0  0  0  0  0
  190.6290  176.8190  146.7360 C   0  0  0  0  0  1  0  0  0  0  0  0
  187.0200  175.9240  142.9700 C   0  0  0  0  0  2  0  0  0  0  0  0
  186.1460  176.7010  143.9030 C   0  0  0  0  0  0  0  0  0  0  0  0
  185.0700  177.9070  141.9600 C   0  0  0  0  0  1  0  0  0  0  0  0
  184.5790  178.1570  145.7140 C   0  0  0  0  0  3  0  0  0  0  0  0
  184.4410  178.3800  144.3410 C   0  0  0  0  0  0  0  0  0  0  0  0
  186.2760  176.4890  145.2800 C   0  0  0  0  0  3  0  0  0  0  0  0
  185.6250  176.9990  147.5140 F   0  0  0  0  0  0  0  0  0  0  0  0
  185.2250  177.6580  143.4270 C   0  0  0  0  0  0  0  0  0  0  0  0
  183.5250  179.3260  143.8960 O   0  0  0  0  0  1  0  0  0  0  0  0
  185.4940  177.2120  146.1830 C   0  0  0  0  0  0  0  0  0  0  0  0
  1 19  1  1  0  0  0
  2  1  1  0  0  0  0
  4  9  2  0  0  0  0
  4  7  1  0  0  0  0
  5 12  1  6  0  0  0
  6  8  1  0  0  0  0
  6  3  1  1  0  0  0
  6  1  1  0  0  0  0
  7  5  1  0  0  0  0
  8  2  1  6  0  0  0
  8  1  1  0  0  0  0
  8  5  1  0  0  0  0
  9  3  1  0  0  0  0
 10  7  2  0  0  0  0
 12 11  1  6  0  0  0
 12 14  1  0  0  0  0
 14 13  1  1  0  0  0
 14 15  1  0  0  0  0
 15 17  1  0  0  0  0
 16 15  1  0  0  0  0
 18 15  1  0  0  0  0
 19 20  1  0  0  0  0
 20 24  1  0  0  0  0
 21 26  1  0  0  0  0
 22 28  1  0  0  0  0
 23 22  2  0  0  0  0
 24 28  2  0  0  0  0
 26 20  2  0  0  0  0
 26 23  1  0  0  0  0
 27 23  1  0  0  0  0
 28 25  1  0  0  0  0
M  END
>  <MODEL>
8

>  <REMARK>
 VINA RESULT:      -6.2      2.770      4.377
  Name = 
  5 active torsions:
  status: ('A' for Active; 'I' for Inactive)
    1  A    between atoms: C_1  and  C_11
    2  A    between atoms: C_2  and  C_11
    3  A    between atoms: C_3  and  C_28
    4  A    between atoms: C_12  and  C_24
    5  A    between atoms: C_24  and  C_28
                            x       y       z     vdW  Elec       q    Type
                         _______ _______ _______ _____ _____    ______ ____

>  <TORSDO>
F 5

$$$$
=
 OpenBabel11062419573D

 28 31  0  0  1  0  0  0  0  0999 V2000
  193.5690  175.8190  145.5300 C   0  0  2  0  0  0  0  0  0  0  0  0
  194.8390  177.1530  145.3750 S   0  0  0  0  0  0  0  0  0  0  0  0
  193.4540  173.3330  145.6900 C   0  0  0  0  0  2  0  0  0  0  0  0
  195.6790  172.2680  145.2260 C   0  0  0  0  0  3  0  0  0  0  0  0
  195.3770  174.6270  144.1960 C   0  0  1  0  0  3  0  0  0  0  0  0
  194.0100  174.6110  146.3340 C   0  0  1  0  0  3  0  0  0  0  0  0
  196.2410  173.4290  144.5090 C   0  0  0  0  0  0  0  0  0  0  0  0
  195.0280  175.3540  145.5230 C   0  0  2  0  0  0  0  0  0  0  0  0
  194.4500  172.2130  145.7530 C   0  0  0  0  0  3  0  0  0  0  0  0
  197.5250  173.5020  144.3770 N   0  0  0  0  0  2  0  0  0  0  0  0
  197.1760  175.9350  143.2050 O   0  0  0  0  0  1  0  0  0  0  0  0
  195.8650  175.4860  143.0030 C   0  0  1  0  0  3  0  0  0  0  0  0
  196.9490  175.0280  140.7470 C   0  0  0  0  0  1  0  0  0  0  0  0
  195.7870  174.6940  141.6840 C   0  0  2  0  0  3  0  0  0  0  0  0
  194.4100  174.7590  140.9870 C   0  0  0  0  0  0  0  0  0  0  0  0
  193.7780  173.3780  140.9300 C   0  0  0  0  0  1  0  0  0  0  0  0
  193.4580  175.7000  141.7060 C   0  0  0  0  0  1  0  0  0  0  0  0
  194.5810  175.2410  139.5570 C   0  0  0  0  0  1  0  0  0  0  0  0
  192.7400  176.4540  146.6320 C   0  0  0  0  0  2  0  0  0  0  0  0
  191.2870  176.1680  146.4150 C   0  0  0  0  0  0  0  0  0  0  0  0
  191.2340  177.7300  144.4290 C   0  0  0  0  0  1  0  0  0  0  0  0
  188.5560  175.6270  146.1030 C   0  0  0  0  0  3  0  0  0  0  0  0
  189.1940  176.5060  145.2230 C   0  0  0  0  0  0  0  0  0  0  0  0
  190.6360  175.2930  147.2910 C   0  0  0  0  0  3  0  0  0  0  0  0
  188.6530  174.1700  147.9850 F   0  0  0  0  0  0  0  0  0  0  0  0
  190.5620  176.7860  145.3750 C   0  0  0  0  0  0  0  0  0  0  0  0
  188.4580  177.0990  144.2040 O   0  0  0  0  0  1  0  0  0  0  0  0
  189.2750  175.0210  147.1340 C   0  0  0  0  0  0  0  0  0  0  0  0
  1  6  1  0  0  0  0
  1 19  1  6  0  0  0
  2  1  1  0  0  0  0
  3  9  1  0  0  0  0
  4  9  2  0  0  0  0
  5 12  1  6  0  0  0
  5  7  1  0  0  0  0
  5  8  1  0  0  0  0
  6  3  1  6  0  0  0
  7  4  1  0  0  0  0
  8  2  1  1  0  0  0
  8  1  1  0  0  0  0
  8  6  1  0  0  0  0
 10  7  2  0  0  0  0
 12 11  1  1  0  0  0
 14 13  1  6  0  0  0
 14 12  1  0  0  0  0
 15 14  1  0  0  0  0
 15 17  1  0  0  0  0
 16 15  1  0  0  0  0
 18 15  1  0  0  0  0
 20 19  1  0  0  0  0
 20 24  1  0  0  0  0
 21 26  1  0  0  0  0
 22 28  1  0  0  0  0
 23 26  1  0  0  0  0
 23 22  2  0  0  0  0
 26 20  2  0  0  0  0
 27 23  1  0  0  0  0
 28 24  2  0  0  0  0
 28 25  1  0  0  0  0
M  END
>  <MODEL>
9

>  <REMARK>
 VINA RESULT:      -6.0      4.578      6.630
  Name = 
  5 active torsions:
  status: ('A' for Active; 'I' for Inactive)
    1  A    between atoms: C_1  and  C_11
    2  A    between atoms: C_2  and  C_11
    3  A    between atoms: C_3  and  C_28
    4  A    between atoms: C_12  and  C_24
    5  A    between atoms: C_24  and  C_28
                            x       y       z     vdW  Elec       q    Type
                         _______ _______ _______ _____ _____    ______ ____

>  <TORSDO>
F 5

$$$$
