=
 OpenBabel11062420443D

 45 49  0  0  1  0  0  0  0  0999 V2000
  189.0580  172.6870  140.3150 C   0  0  0  0  0  2  0  0  0  0  0  0
  187.6800  173.3950  142.0850 O   0  0  0  0  0  0  0  0  0  0  0  0
  188.2780  173.7170  141.0710 C   0  0  0  0  0  0  0  0  0  0  0  0
  188.1410  175.1200  140.5530 C   0  0  0  0  0  2  0  0  0  0  0  0
  189.3110  176.3750  142.2470 N   0  0  0  0  0  0  0  0  0  0  0  0
  188.1740  176.1360  141.6510 C   0  0  0  0  0  0  0  0  0  0  0  0
  186.9210  176.8540  141.9550 C   0  0  0  0  0  0  0  0  0  0  0  0
  185.2690  178.5350  142.1290 C   0  0  0  0  0  3  0  0  0  0  0  0
  185.9890  176.4110  142.7760 C   0  0  0  0  0  2  0  0  0  0  0  0
  186.6240  178.2370  141.4970 C   0  0  0  0  0  3  0  0  0  0  0  0
  184.9520  177.3590  142.9280 N   0  0  0  0  0  0  0  0  0  0  0  0
  189.5000  177.1840  143.3840 N   0  0  0  0  0  2  0  0  0  0  0  0
  189.9150  176.7100  147.1770 C   0  0  0  0  0  2  0  0  0  0  0  0
  190.1750  175.1880  144.6490 C   0  0  0  0  0  2  0  0  0  0  0  0
  189.2640  177.2250  145.8830 C   0  0  1  0  0  3  0  0  0  0  0  0
  190.0950  175.1910  147.1570 C   0  0  0  0  0  2  0  0  0  0  0  0
  190.8930  174.7510  145.9240 C   0  0  0  0  0  2  0  0  0  0  0  0
  190.0410  176.7040  144.6510 C   0  0  2  0  0  3  0  0  0  0  0  0
  185.9930  176.9660  147.4240 N   0  0  0  0  0  2  0  0  0  0  0  0
  186.9430  178.2830  145.6760 C   0  0  0  0  0  2  0  0  0  0  0  0
  187.7330  177.0290  145.8880 C   0  0  2  0  0  3  0  0  0  0  0  0
  185.6870  177.9980  146.4380 C   0  0  0  0  0  2  0  0  0  0  0  0
  187.2780  176.4500  147.1400 N   0  0  0  0  0  2  0  0  0  0  0  0
  189.7820  173.3320  139.2290 N   0  0  0  0  0  2  0  0  0  0  0  0
  192.6740  172.5130  141.0940 C   0  0  2  0  0  3  0  0  0  0  0  0
  194.5640  173.6380  140.0440 C   0  0  0  0  0  1  0  0  0  0  0  0
  191.3680  172.0250  140.4970 C   0  0  0  0  0  2  0  0  0  0  0  0
  192.4750  173.8850  141.7310 C   0  0  2  0  0  3  0  0  0  0  0  0
  192.1410  173.9060  139.1520 C   0  0  0  0  0  2  0  0  0  0  0  0
  193.0800  173.7400  140.3280 C   0  0  2  0  0  0  0  0  0  0  0  0
  191.1220  172.7820  139.2070 C   0  0  2  0  0  3  0  0  0  0  0  0
  193.4720  174.2000  142.8350 C   0  0  2  0  0  3  0  0  0  0  0  0
  193.7360  173.3180  143.8430 C   0  0  1  0  0  3  0  0  0  0  0  0
  197.0210  173.3640  145.9270 C   0  0  0  0  0  1  0  0  0  0  0  0
  194.3680  174.3410  145.8960 O   0  0  0  0  0  0  0  0  0  0  0  0
  196.0440  173.0810  144.8880 N   0  0  0  0  0  2  0  0  0  0  0  0
  194.7190  173.6210  144.9220 C   0  0  0  0  0  0  0  0  0  0  0  0
  191.7800  172.0100  144.2680 O   0  0  0  0  0  1  0  0  0  0  0  0
  193.6900  170.8280  143.8300 O   0  0  0  0  0  0  0  0  0  0  0  0
  193.0050  172.0310  143.9720 C   0  0  0  0  0  0  0  0  0  0  0  0
  192.8360  176.5070  142.6570 O   0  0  0  0  0  1  0  0  0  0  0  0
  193.8840  175.6500  142.9960 C   0  0  2  0  0  3  0  0  0  0  0  0
  196.3790  175.6200  142.8060 O   0  0  0  0  0  1  0  0  0  0  0  0
  195.1550  176.0260  142.2890 C   0  0  0  0  0  0  0  0  0  0  0  0
  195.1270  176.7590  141.2580 O   0  0  0  0  0  0  0  0  0  0  0  0
  1  3  1  0  0  0  0
  3  2  2  0  0  0  0
  4  3  1  0  0  0  0
  4  6  1  0  0  0  0
  5 12  1  0  0  0  0
  6  7  1  0  0  0  0
  6  5  2  0  0  0  0
  7  9  1  0  0  0  0
  8 11  2  0  0  0  0
  9 11  1  0  0  0  0
 10  7  2  0  0  0  0
 10  8  1  0  0  0  0
 14 18  1  0  0  0  0
 14 17  1  0  0  0  0
 15 21  1  0  0  0  0
 15 13  1  1  0  0  0
 16 13  1  0  0  0  0
 17 16  1  0  0  0  0
 18 12  1  6  0  0  0
 18 15  1  0  0  0  0
 20 22  1  0  0  0  0
 21 20  1  1  0  0  0
 21 23  1  0  0  0  0
 22 19  1  0  0  0  0
 23 19  1  0  0  0  0
 24  1  1  0  0  0  0
 25 27  1  6  0  0  0
 25 28  1  0  0  0  0
 28 32  1  1  0  0  0
 29 31  1  0  0  0  0
 29 30  1  0  0  0  0
 30 26  1  6  0  0  0
 30 25  1  0  0  0  0
 30 28  1  0  0  0  0
 31 24  1  1  0  0  0
 31 27  1  0  0  0  0
 32 42  1  1  0  0  0
 32 33  1  0  0  0  0
 33 40  1  1  0  0  0
 33 37  1  0  0  0  0
 36 37  1  0  0  0  0
 36 34  1  0  0  0  0
 37 35  2  0  0  0  0
 39 40  2  0  0  0  0
 40 38  1  0  0  0  0
 42 41  1  6  0  0  0
 44 43  1  0  0  0  0
 44 42  1  0  0  0  0
 45 44  2  0  0  0  0
M  END
>  <MODEL>
1

>  <REMARK>
 VINA RESULT:      -6.3      0.000      0.000
  Name = 
  14 active torsions:
  status: ('A' for Active; 'I' for Inactive)
    1  A    between atoms: C_2  and  C_17
    2  A    between atoms: C_7  and  C_30
    3  A    between atoms: C_7  and  N_33
    4  A    between atoms: N_10  and  N_27
    5  A    between atoms: C_12  and  C_25
    6  A    between atoms: C_17  and  C_28
    7  A    between atoms: C_19  and  C_35
    8  A    between atoms: C_19  and  C_38
    9  A    between atoms: C_23  and  C_32
   10  A    between atoms: C_23  and  C_36
   11  A    between atoms: C_26  and  C_38
   12  A    between atoms: N_27  and  C_45
   13  A    between atoms: C_28  and  C_30
   14  A    between atoms: N_33  and  C_44
                            x       y       z     vdW  Elec       q    Type
                         _______ _______ _______ _____ _____    ______ ____

>  <TORSDO>
F 14

$$$$
=
 OpenBabel11062420443D

 45 49  0  0  1  0  0  0  0  0999 V2000
  193.3800  176.1870  146.5850 C   0  0  0  0  0  2  0  0  0  0  0  0
  191.2770  175.2550  147.0750 O   0  0  0  0  0  0  0  0  0  0  0  0
  191.9650  175.8340  146.2500 C   0  0  0  0  0  0  0  0  0  0  0  0
  191.4040  176.0940  144.8810 C   0  0  0  0  0  2  0  0  0  0  0  0
  189.0710  176.5980  145.2160 N   0  0  0  0  0  0  0  0  0  0  0  0
  189.9540  175.7390  144.7850 C   0  0  0  0  0  0  0  0  0  0  0  0
  189.6060  174.4530  144.1490 C   0  0  0  0  0  0  0  0  0  0  0  0
  189.3400  172.1430  143.7280 C   0  0  0  0  0  3  0  0  0  0  0  0
  189.2630  174.3180  142.8830 C   0  0  0  0  0  3  0  0  0  0  0  0
  189.7510  173.1310  144.8130 C   0  0  0  0  0  2  0  0  0  0  0  0
  189.0720  172.9570  142.5500 N   0  0  0  0  0  0  0  0  0  0  0  0
  187.6850  176.3770  145.3350 N   0  0  0  0  0  2  0  0  0  0  0  0
  185.4520  179.4510  144.7450 C   0  0  0  0  0  2  0  0  0  0  0  0
  185.4150  176.8450  146.1520 C   0  0  0  0  0  2  0  0  0  0  0  0
  186.4610  178.3500  144.3810 C   0  0  1  0  0  3  0  0  0  0  0  0
  184.1720  178.8710  145.3490 C   0  0  0  0  0  2  0  0  0  0  0  0
  184.4900  177.9900  146.5610 C   0  0  0  0  0  2  0  0  0  0  0  0
  186.7070  177.4280  145.5980 C   0  0  2  0  0  3  0  0  0  0  0  0
  185.4790  178.2900  140.8920 N   0  0  0  0  0  2  0  0  0  0  0  0
  187.2980  177.4030  142.1550 C   0  0  0  0  0  2  0  0  0  0  0  0
  186.1180  177.6730  143.0360 C   0  0  2  0  0  3  0  0  0  0  0  0
  186.6980  177.4940  140.7880 C   0  0  0  0  0  2  0  0  0  0  0  0
  185.1870  178.4760  142.2630 N   0  0  0  0  0  2  0  0  0  0  0  0
  193.9590  176.9520  145.4890 N   0  0  0  0  0  2  0  0  0  0  0  0
  195.6740  174.5750  143.5090 C   0  0  2  0  0  3  0  0  0  0  0  0
  196.8960  173.1060  145.0240 C   0  0  0  0  0  1  0  0  0  0  0  0
  195.2520  176.0210  143.6740 C   0  0  0  0  0  2  0  0  0  0  0  0
  194.5170  173.6500  143.8750 C   0  0  2  0  0  3  0  0  0  0  0  0
  195.3900  175.0320  145.8980 C   0  0  0  0  0  2  0  0  0  0  0  0
  195.6440  173.9460  144.8740 C   0  0  2  0  0  0  0  0  0  0  0  0
  195.2320  176.3460  145.1550 C   0  0  2  0  0  3  0  0  0  0  0  0
  194.5880  172.2850  143.2080 C   0  0  2  0  0  3  0  0  0  0  0  0
  194.8880  172.1430  141.8840 C   0  0  1  0  0  3  0  0  0  0  0  0
  193.8790  168.9350  139.9280 C   0  0  0  0  0  1  0  0  0  0  0  0
  196.0430  170.1520  141.2800 O   0  0  0  0  0  0  0  0  0  0  0  0
  193.8280  170.2360  140.5750 N   0  0  0  0  0  2  0  0  0  0  0  0
  194.9650  170.8060  141.2300 C   0  0  0  0  0  0  0  0  0  0  0  0
  196.2340  173.6630  140.6200 O   0  0  0  0  0  1  0  0  0  0  0  0
  193.9840  174.0840  140.6120 O   0  0  0  0  0  0  0  0  0  0  0  0
  195.0800  173.3150  140.9920 C   0  0  0  0  0  0  0  0  0  0  0  0
  192.7670  171.5110  144.5660 O   0  0  0  0  0  1  0  0  0  0  0  0
  193.9590  171.1230  143.9510 C   0  0  2  0  0  3  0  0  0  0  0  0
  195.8590  169.5680  144.4340 O   0  0  0  0  0  0  0  0  0  0  0  0
  194.8730  170.4220  144.9140 C   0  0  0  0  0  0  0  0  0  0  0  0
  194.7190  170.5540  146.1630 O   0  0  0  0  0  1  0  0  0  0  0  0
  3  1  1  0  0  0  0
  3  2  2  0  0  0  0
  4  3  1  0  0  0  0
  5 12  1  0  0  0  0
  6  4  1  0  0  0  0
  6  5  2  0  0  0  0
  7  6  1  0  0  0  0
  7 10  1  0  0  0  0
  8 10  1  0  0  0  0
  9  7  2  0  0  0  0
 11  9  1  0  0  0  0
 11  8  2  0  0  0  0
 13 16  1  0  0  0  0
 14 17  1  0  0  0  0
 15 13  1  1  0  0  0
 15 18  1  0  0  0  0
 16 17  1  0  0  0  0
 18 12  1  6  0  0  0
 18 14  1  0  0  0  0
 19 23  1  0  0  0  0
 21 20  1  6  0  0  0
 21 15  1  0  0  0  0
 22 19  1  0  0  0  0
 22 20  1  0  0  0  0
 23 21  1  0  0  0  0
 24  1  1  0  0  0  0
 25 27  1  1  0  0  0
 25 28  1  0  0  0  0
 25 30  1  0  0  0  0
 27 31  1  0  0  0  0
 28 32  1  6  0  0  0
 28 30  1  0  0  0  0
 30 26  1  1  0  0  0
 30 29  1  0  0  0  0
 31 24  1  1  0  0  0
 31 29  1  0  0  0  0
 32 33  1  6  0  0  0
 32 42  1  0  0  0  0
 33 40  1  6  0  0  0
 34 36  1  0  0  0  0
 36 37  1  0  0  0  0
 37 35  2  0  0  0  0
 37 33  1  0  0  0  0
 38 40  1  0  0  0  0
 39 40  2  0  0  0  0
 42 41  1  1  0  0  0
 42 44  1  0  0  0  0
 43 44  2  0  0  0  0
 44 45  1  0  0  0  0
M  END
>  <MODEL>
2

>  <REMARK>
 VINA RESULT:      -6.2      2.421      5.714
  Name = 
  14 active torsions:
  status: ('A' for Active; 'I' for Inactive)
    1  A    between atoms: C_2  and  C_17
    2  A    between atoms: C_7  and  C_30
    3  A    between atoms: C_7  and  N_33
    4  A    between atoms: N_10  and  N_27
    5  A    between atoms: C_12  and  C_25
    6  A    between atoms: C_17  and  C_28
    7  A    between atoms: C_19  and  C_35
    8  A    between atoms: C_19  and  C_38
    9  A    between atoms: C_23  and  C_32
   10  A    between atoms: C_23  and  C_36
   11  A    between atoms: C_26  and  C_38
   12  A    between atoms: N_27  and  C_45
   13  A    between atoms: C_28  and  C_30
   14  A    between atoms: N_33  and  C_44
                            x       y       z     vdW  Elec       q    Type
                         _______ _______ _______ _____ _____    ______ ____

>  <TORSDO>
F 14

$$$$
=
 OpenBabel11062420443D

 45 49  0  0  1  0  0  0  0  0999 V2000
  192.6660  175.8730  146.8990 C   0  0  0  0  0  2  0  0  0  0  0  0
  192.8640  177.2010  144.9680 O   0  0  0  0  0  0  0  0  0  0  0  0
  193.4520  176.5960  145.8490 C   0  0  0  0  0  0  0  0  0  0  0  0
  194.9500  176.5120  145.8070 C   0  0  0  0  0  2  0  0  0  0  0  0
  195.6320  175.9070  143.5750 N   0  0  0  0  0  0  0  0  0  0  0  0
  195.4340  175.5130  144.8040 C   0  0  0  0  0  0  0  0  0  0  0  0
  195.7170  174.1460  145.2830 C   0  0  0  0  0  0  0  0  0  0  0  0
  196.8400  172.1880  145.9860 C   0  0  0  0  0  3  0  0  0  0  0  0
  194.8290  173.1720  145.3250 C   0  0  0  0  0  3  0  0  0  0  0  0
  197.0760  173.6510  145.6300 C   0  0  0  0  0  2  0  0  0  0  0  0
  195.4200  171.9610  145.7500 N   0  0  0  0  0  0  0  0  0  0  0  0
  195.9450  175.0810  142.4770 N   0  0  0  0  0  2  0  0  0  0  0  0
  194.2140  172.7480  139.9600 C   0  0  0  0  0  2  0  0  0  0  0  0
  193.5490  174.7420  142.0460 C   0  0  0  0  0  2  0  0  0  0  0  0
  195.2620  173.1690  141.0020 C   0  0  1  0  0  3  0  0  0  0  0  0
  192.7880  172.9350  140.4800 C   0  0  0  0  0  2  0  0  0  0  0  0
  192.5600  174.3790  140.9410 C   0  0  0  0  0  2  0  0  0  0  0  0
  194.9660  174.6000  141.5090 C   0  0  2  0  0  3  0  0  0  0  0  0
  195.5890  169.7580  142.1860 N   0  0  0  0  0  2  0  0  0  0  0  0
  196.9290  171.7280  142.3060 C   0  0  0  0  0  2  0  0  0  0  0  0
  195.4910  172.0740  142.0670 C   0  0  2  0  0  3  0  0  0  0  0  0
  196.8440  170.2900  142.7070 C   0  0  0  0  0  2  0  0  0  0  0  0
  194.8130  170.8400  141.7100 N   0  0  0  0  0  2  0  0  0  0  0  0
  191.8640  176.8320  147.6460 N   0  0  0  0  0  2  0  0  0  0  0  0
  189.3840  174.9480  145.9680 C   0  0  2  0  0  3  0  0  0  0  0  0
  187.4520  176.4020  145.6510 C   0  0  0  0  0  1  0  0  0  0  0  0
  190.4570  174.9650  147.0380 C   0  0  0  0  0  2  0  0  0  0  0  0
  189.8790  175.6780  144.7230 C   0  0  2  0  0  3  0  0  0  0  0  0
  189.6300  177.2440  146.7840 C   0  0  0  0  0  2  0  0  0  0  0  0
  188.9640  176.3730  145.7400 C   0  0  2  0  0  0  0  0  0  0  0  0
  190.4970  176.3500  147.6520 C   0  0  2  0  0  3  0  0  0  0  0  0
  189.1960  175.2330  143.4390 C   0  0  2  0  0  3  0  0  0  0  0  0
  189.1770  173.9250  143.0460 C   0  0  1  0  0  3  0  0  0  0  0  0
  188.4670  173.2810  139.2760 C   0  0  0  0  0  1  0  0  0  0  0  0
  187.3650  172.9420  141.8580 O   0  0  0  0  0  0  0  0  0  0  0  0
  189.1050  173.7020  140.5130 N   0  0  0  0  0  2  0  0  0  0  0  0
  188.5010  173.4860  141.7920 C   0  0  0  0  0  0  0  0  0  0  0  0
  191.1510  172.7860  143.7670 O   0  0  0  0  0  0  0  0  0  0  0  0
  189.1720  171.9120  144.5120 O   0  0  0  0  0  1  0  0  0  0  0  0
  189.8940  172.8680  143.8040 C   0  0  0  0  0  0  0  0  0  0  0  0
  189.8270  177.3210  142.4400 O   0  0  0  0  0  1  0  0  0  0  0  0
  188.8630  176.3120  142.4270 C   0  0  2  0  0  3  0  0  0  0  0  0
  186.3800  176.0190  142.5280 O   0  0  0  0  0  0  0  0  0  0  0  0
  187.4750  176.8740  142.5400 C   0  0  0  0  0  0  0  0  0  0  0  0
  187.2870  178.1250  142.5870 O   0  0  0  0  0  1  0  0  0  0  0  0
  1 24  1  0  0  0  0
  2  3  2  0  0  0  0
  3  1  1  0  0  0  0
  4  3  1  0  0  0  0
  5  6  2  0  0  0  0
  6  7  1  0  0  0  0
  6  4  1  0  0  0  0
  7  9  2  0  0  0  0
  7 10  1  0  0  0  0
  9 11  1  0  0  0  0
 10  8  1  0  0  0  0
 11  8  2  0  0  0  0
 12  5  1  0  0  0  0
 13 16  1  0  0  0  0
 15 13  1  1  0  0  0
 15 18  1  0  0  0  0
 15 21  1  0  0  0  0
 16 17  1  0  0  0  0
 17 14  1  0  0  0  0
 18 14  1  0  0  0  0
 18 12  1  1  0  0  0
 19 22  1  0  0  0  0
 20 22  1  0  0  0  0
 21 20  1  6  0  0  0
 23 21  1  0  0  0  0
 23 19  1  0  0  0  0
 25 27  1  1  0  0  0
 27 31  1  0  0  0  0
 28 32  1  6  0  0  0
 28 30  1  0  0  0  0
 28 25  1  0  0  0  0
 29 31  1  0  0  0  0
 30 26  1  6  0  0  0
 30 25  1  0  0  0  0
 30 29  1  0  0  0  0
 31 24  1  6  0  0  0
 32 42  1  6  0  0  0
 33 37  1  6  0  0  0
 33 32  1  0  0  0  0
 33 40  1  0  0  0  0
 34 36  1  0  0  0  0
 36 37  1  0  0  0  0
 37 35  2  0  0  0  0
 38 40  2  0  0  0  0
 40 39  1  0  0  0  0
 42 41  1  1  0  0  0
 42 44  1  0  0  0  0
 43 44  2  0  0  0  0
 44 45  1  0  0  0  0
M  END
>  <MODEL>
3

>  <REMARK>
 VINA RESULT:      -6.1      2.414      8.510
  Name = 
  14 active torsions:
  status: ('A' for Active; 'I' for Inactive)
    1  A    between atoms: C_2  and  C_17
    2  A    between atoms: C_7  and  C_30
    3  A    between atoms: C_7  and  N_33
    4  A    between atoms: N_10  and  N_27
    5  A    between atoms: C_12  and  C_25
    6  A    between atoms: C_17  and  C_28
    7  A    between atoms: C_19  and  C_35
    8  A    between atoms: C_19  and  C_38
    9  A    between atoms: C_23  and  C_32
   10  A    between atoms: C_23  and  C_36
   11  A    between atoms: C_26  and  C_38
   12  A    between atoms: N_27  and  C_45
   13  A    between atoms: C_28  and  C_30
   14  A    between atoms: N_33  and  C_44
                            x       y       z     vdW  Elec       q    Type
                         _______ _______ _______ _____ _____    ______ ____

>  <TORSDO>
F 14

$$$$
=
 OpenBabel11062420443D

 45 49  0  0  1  0  0  0  0  0999 V2000
  194.8590  175.6670  146.4500 C   0  0  0  0  0  2  0  0  0  0  0  0
  195.4160  176.9300  144.5460 O   0  0  0  0  0  0  0  0  0  0  0  0
  195.4570  175.8380  145.0880 C   0  0  0  0  0  0  0  0  0  0  0  0
  196.0230  174.6670  144.3380 C   0  0  0  0  0  2  0  0  0  0  0  0
  194.1300  173.2220  143.9620 N   0  0  0  0  0  0  0  0  0  0  0  0
  195.0130  174.0280  143.4380 C   0  0  0  0  0  0  0  0  0  0  0  0
  195.0410  174.3980  142.0090 C   0  0  0  0  0  0  0  0  0  0  0  0
  194.4940  175.3370  139.9100 C   0  0  0  0  0  3  0  0  0  0  0  0
  195.7980  173.8120  141.1030 C   0  0  0  0  0  3  0  0  0  0  0  0
  194.1040  175.3690  141.3840 C   0  0  0  0  0  2  0  0  0  0  0  0
  195.5390  174.3280  139.8120 N   0  0  0  0  0  0  0  0  0  0  0  0
  193.2050  172.4290  143.2560 N   0  0  0  0  0  2  0  0  0  0  0  0
  189.6550  172.8990  141.8570 C   0  0  0  0  0  2  0  0  0  0  0  0
  191.0420  171.7750  144.2200 C   0  0  0  0  0  2  0  0  0  0  0  0
  191.1610  172.5930  141.8090 C   0  0  1  0  0  3  0  0  0  0  0  0
  188.9310  172.0310  142.8880 C   0  0  0  0  0  2  0  0  0  0  0  0
  189.5700  172.1800  144.2730 C   0  0  0  0  0  2  0  0  0  0  0  0
  191.7670  172.6730  143.2300 C   0  0  2  0  0  3  0  0  0  0  0  0
  190.9800  170.4650  138.8800 N   0  0  0  0  0  2  0  0  0  0  0  0
  192.7420  171.3890  140.1950 C   0  0  0  0  0  2  0  0  0  0  0  0
  191.4680  171.3270  140.9790 C   0  0  2  0  0  3  0  0  0  0  0  0
  192.4320  170.5190  139.0190 C   0  0  0  0  0  2  0  0  0  0  0  0
  190.4030  171.0450  140.0330 N   0  0  0  0  0  2  0  0  0  0  0  0
  193.5730  176.3490  146.5000 N   0  0  0  0  0  2  0  0  0  0  0  0
  190.3250  175.6560  145.2800 C   0  0  2  0  0  3  0  0  0  0  0  0
  189.0520  174.6680  147.1100 C   0  0  0  0  0  1  0  0  0  0  0  0
  191.8150  175.6400  145.0020 C   0  0  0  0  0  2  0  0  0  0  0  0
  189.9410  176.9530  145.9860 C   0  0  2  0  0  3  0  0  0  0  0  0
  191.5090  175.4480  147.4130 C   0  0  0  0  0  2  0  0  0  0  0  0
  190.1530  175.6530  146.7730 C   0  0  2  0  0  0  0  0  0  0  0  0
  192.5390  175.3520  146.3020 C   0  0  2  0  0  3  0  0  0  0  0  0
  188.4880  177.3560  145.7830 C   0  0  2  0  0  3  0  0  0  0  0  0
  187.9150  177.3910  144.5440 C   0  0  1  0  0  3  0  0  0  0  0  0
  184.7100  179.5540  144.1150 C   0  0  0  0  0  1  0  0  0  0  0  0
  185.6130  176.8770  144.2310 O   0  0  0  0  0  0  0  0  0  0  0  0
  186.0940  179.1520  144.3110 N   0  0  0  0  0  2  0  0  0  0  0  0
  186.4890  177.7770  144.3440 C   0  0  0  0  0  0  0  0  0  0  0  0
  188.6070  176.0120  142.7170 O   0  0  0  0  0  0  0  0  0  0  0  0
  189.5880  178.0770  142.8320 O   0  0  0  0  0  1  0  0  0  0  0  0
  188.6960  177.1220  143.3100 C   0  0  0  0  0  0  0  0  0  0  0  0
  188.7040  178.3150  147.9710 O   0  0  0  0  0  1  0  0  0  0  0  0
  187.8040  178.0680  146.9330 C   0  0  2  0  0  3  0  0  0  0  0  0
  185.4300  178.1670  147.7170 O   0  0  0  0  0  1  0  0  0  0  0  0
  186.5550  177.4020  147.4330 C   0  0  0  0  0  0  0  0  0  0  0  0
  186.5320  176.1560  147.6550 O   0  0  0  0  0  0  0  0  0  0  0  0
  1 24  1  0  0  0  0
  2  3  2  0  0  0  0
  3  1  1  0  0  0  0
  4  3  1  0  0  0  0
  6  5  2  0  0  0  0
  6  4  1  0  0  0  0
  7  6  1  0  0  0  0
  8 10  1  0  0  0  0
  9  7  2  0  0  0  0
 10  7  1  0  0  0  0
 11  8  2  0  0  0  0
 11  9  1  0  0  0  0
 12  5  1  0  0  0  0
 13 16  1  0  0  0  0
 14 17  1  0  0  0  0
 15 13  1  1  0  0  0
 15 18  1  0  0  0  0
 16 17  1  0  0  0  0
 18 12  1  6  0  0  0
 18 14  1  0  0  0  0
 19 22  1  0  0  0  0
 19 23  1  0  0  0  0
 21 20  1  6  0  0  0
 21 15  1  0  0  0  0
 22 20  1  0  0  0  0
 23 21  1  0  0  0  0
 25 27  1  1  0  0  0
 25 28  1  0  0  0  0
 25 30  1  0  0  0  0
 27 31  1  0  0  0  0
 28 32  1  6  0  0  0
 28 30  1  0  0  0  0
 30 26  1  1  0  0  0
 30 29  1  0  0  0  0
 31 24  1  1  0  0  0
 31 29  1  0  0  0  0
 32 33  1  6  0  0  0
 32 42  1  0  0  0  0
 33 40  1  6  0  0  0
 34 36  1  0  0  0  0
 35 37  2  0  0  0  0
 36 37  1  0  0  0  0
 37 33  1  0  0  0  0
 38 40  2  0  0  0  0
 39 40  1  0  0  0  0
 42 44  1  0  0  0  0
 42 41  1  1  0  0  0
 44 45  2  0  0  0  0
 44 43  1  0  0  0  0
M  END
>  <MODEL>
4

>  <REMARK>
 VINA RESULT:      -6.1      2.883      8.550
  Name = 
  14 active torsions:
  status: ('A' for Active; 'I' for Inactive)
    1  A    between atoms: C_2  and  C_17
    2  A    between atoms: C_7  and  C_30
    3  A    between atoms: C_7  and  N_33
    4  A    between atoms: N_10  and  N_27
    5  A    between atoms: C_12  and  C_25
    6  A    between atoms: C_17  and  C_28
    7  A    between atoms: C_19  and  C_35
    8  A    between atoms: C_19  and  C_38
    9  A    between atoms: C_23  and  C_32
   10  A    between atoms: C_23  and  C_36
   11  A    between atoms: C_26  and  C_38
   12  A    between atoms: N_27  and  C_45
   13  A    between atoms: C_28  and  C_30
   14  A    between atoms: N_33  and  C_44
                            x       y       z     vdW  Elec       q    Type
                         _______ _______ _______ _____ _____    ______ ____

>  <TORSDO>
F 14

$$$$
=
 OpenBabel11062420443D

 45 49  0  0  1  0  0  0  0  0999 V2000
  195.1210  176.0620  145.0660 C   0  0  0  0  0  2  0  0  0  0  0  0
  196.2030  176.7900  143.1090 O   0  0  0  0  0  0  0  0  0  0  0  0
  196.0330  175.8720  143.8940 C   0  0  0  0  0  0  0  0  0  0  0  0
  196.6690  174.5410  143.6150 C   0  0  0  0  0  2  0  0  0  0  0  0
  195.1770  173.7230  141.9070 N   0  0  0  0  0  0  0  0  0  0  0  0
  195.6860  173.5400  143.0960 C   0  0  0  0  0  0  0  0  0  0  0  0
  195.3950  172.3660  143.9420 C   0  0  0  0  0  0  0  0  0  0  0  0
  194.5640  170.9750  145.6620 C   0  0  0  0  0  3  0  0  0  0  0  0
  196.0390  171.2180  143.8690 C   0  0  0  0  0  3  0  0  0  0  0  0
  194.4470  172.3820  145.0870 C   0  0  0  0  0  2  0  0  0  0  0  0
  195.5900  170.3190  144.8630 N   0  0  0  0  0  0  0  0  0  0  0  0
  194.1420  172.9700  141.3210 N   0  0  0  0  0  2  0  0  0  0  0  0
  190.3690  173.7060  141.3760 C   0  0  0  0  0  2  0  0  0  0  0  0
  192.2850  171.5790  142.1320 C   0  0  0  0  0  2  0  0  0  0  0  0
  191.7960  173.6990  140.8050 C   0  0  1  0  0  3  0  0  0  0  0  0
  189.9100  172.3020  141.7740 C   0  0  0  0  0  2  0  0  0  0  0  0
  190.8950  171.6650  142.7600 C   0  0  0  0  0  2  0  0  0  0  0  0
  192.7570  172.9820  141.7820 C   0  0  2  0  0  3  0  0  0  0  0  0
  190.7280  173.7430  137.3410 N   0  0  0  0  0  2  0  0  0  0  0  0
  192.8130  173.9910  138.4740 C   0  0  0  0  0  2  0  0  0  0  0  0
  191.8260  173.2540  139.3270 C   0  0  2  0  0  3  0  0  0  0  0  0
  192.1560  173.9540  137.1300 C   0  0  0  0  0  2  0  0  0  0  0  0
  190.5250  173.4120  138.7010 N   0  0  0  0  0  2  0  0  0  0  0  0
  193.9310  176.7850  144.6390 N   0  0  0  0  0  2  0  0  0  0  0  0
  190.6080  176.1650  143.5960 C   0  0  2  0  0  3  0  0  0  0  0  0
  189.7380  174.3480  144.9680 C   0  0  0  0  0  1  0  0  0  0  0  0
  192.0300  176.4840  143.1790 C   0  0  0  0  0  2  0  0  0  0  0  0
  190.2240  176.9960  144.8170 C   0  0  2  0  0  3  0  0  0  0  0  0
  192.1310  175.2970  145.3060 C   0  0  0  0  0  2  0  0  0  0  0  0
  190.6770  175.5370  144.9590 C   0  0  2  0  0  0  0  0  0  0  0  0
  192.9760  175.8100  144.1540 C   0  0  2  0  0  3  0  0  0  0  0  0
  188.7270  177.2240  144.9580 C   0  0  2  0  0  3  0  0  0  0  0  0
  187.9290  177.4700  143.8770 C   0  0  1  0  0  3  0  0  0  0  0  0
  184.5000  179.2180  144.4390 C   0  0  0  0  0  1  0  0  0  0  0  0
  185.6760  176.7050  143.8940 O   0  0  0  0  0  0  0  0  0  0  0  0
  185.9280  178.9810  144.3050 N   0  0  0  0  0  2  0  0  0  0  0  0
  186.4610  177.6860  144.0110 C   0  0  0  0  0  0  0  0  0  0  0  0
  189.0830  178.6670  142.1580 O   0  0  0  0  0  1  0  0  0  0  0  0
  188.2890  176.6030  141.5700 O   0  0  0  0  0  0  0  0  0  0  0  0
  188.4850  177.6130  142.5070 C   0  0  0  0  0  0  0  0  0  0  0  0
  189.2270  178.0380  147.1590 O   0  0  0  0  0  1  0  0  0  0  0  0
  188.2070  177.5400  146.3460 C   0  0  2  0  0  3  0  0  0  0  0  0
  188.1650  175.2920  147.4450 O   0  0  0  0  0  1  0  0  0  0  0  0
  187.4690  176.4150  147.0130 C   0  0  0  0  0  0  0  0  0  0  0  0
  186.2100  176.4510  147.1340 O   0  0  0  0  0  0  0  0  0  0  0  0
  2  3  2  0  0  0  0
  3  1  1  0  0  0  0
  4  3  1  0  0  0  0
  5  6  2  0  0  0  0
  6  4  1  0  0  0  0
  6  7  1  0  0  0  0
  7 10  1  0  0  0  0
  9  7  2  0  0  0  0
  9 11  1  0  0  0  0
 10  8  1  0  0  0  0
 11  8  2  0  0  0  0
 12  5  1  0  0  0  0
 13 16  1  0  0  0  0
 14 17  1  0  0  0  0
 15 13  1  1  0  0  0
 15 18  1  0  0  0  0
 16 17  1  0  0  0  0
 18 12  1  6  0  0  0
 18 14  1  0  0  0  0
 19 23  1  0  0  0  0
 21 20  1  6  0  0  0
 21 15  1  0  0  0  0
 22 19  1  0  0  0  0
 22 20  1  0  0  0  0
 23 21  1  0  0  0  0
 24  1  1  0  0  0  0
 25 27  1  1  0  0  0
 25 28  1  0  0  0  0
 25 30  1  0  0  0  0
 27 31  1  0  0  0  0
 28 32  1  6  0  0  0
 28 30  1  0  0  0  0
 30 26  1  1  0  0  0
 30 29  1  0  0  0  0
 31 24  1  1  0  0  0
 31 29  1  0  0  0  0
 32 33  1  6  0  0  0
 32 42  1  0  0  0  0
 33 40  1  1  0  0  0
 33 37  1  0  0  0  0
 35 37  2  0  0  0  0
 36 34  1  0  0  0  0
 37 36  1  0  0  0  0
 38 40  1  0  0  0  0
 39 40  2  0  0  0  0
 42 44  1  0  0  0  0
 42 41  1  1  0  0  0
 44 45  2  0  0  0  0
 44 43  1  0  0  0  0
M  END
>  <MODEL>
5

>  <REMARK>
 VINA RESULT:      -6.0      2.635      8.547
  Name = 
  14 active torsions:
  status: ('A' for Active; 'I' for Inactive)
    1  A    between atoms: C_2  and  C_17
    2  A    between atoms: C_7  and  C_30
    3  A    between atoms: C_7  and  N_33
    4  A    between atoms: N_10  and  N_27
    5  A    between atoms: C_12  and  C_25
    6  A    between atoms: C_17  and  C_28
    7  A    between atoms: C_19  and  C_35
    8  A    between atoms: C_19  and  C_38
    9  A    between atoms: C_23  and  C_32
   10  A    between atoms: C_23  and  C_36
   11  A    between atoms: C_26  and  C_38
   12  A    between atoms: N_27  and  C_45
   13  A    between atoms: C_28  and  C_30
   14  A    between atoms: N_33  and  C_44
                            x       y       z     vdW  Elec       q    Type
                         _______ _______ _______ _____ _____    ______ ____

>  <TORSDO>
F 14

$$$$
=
 OpenBabel11062420443D

 45 49  0  0  1  0  0  0  0  0999 V2000
  195.1410  175.7270  145.3890 C   0  0  0  0  0  2  0  0  0  0  0  0
  196.2900  176.6190  143.5400 O   0  0  0  0  0  0  0  0  0  0  0  0
  196.0640  175.6270  144.2140 C   0  0  0  0  0  0  0  0  0  0  0  0
  196.6420  174.3070  143.7920 C   0  0  0  0  0  2  0  0  0  0  0  0
  194.8690  173.4190  142.4200 N   0  0  0  0  0  0  0  0  0  0  0  0
  195.5830  173.2890  143.5060 C   0  0  0  0  0  0  0  0  0  0  0  0
  195.4500  172.1590  144.4460 C   0  0  0  0  0  0  0  0  0  0  0  0
  195.7150  170.0640  145.5080 C   0  0  0  0  0  3  0  0  0  0  0  0
  194.4870  172.0420  145.3390 C   0  0  0  0  0  2  0  0  0  0  0  0
  196.2930  170.9350  144.3980 C   0  0  0  0  0  3  0  0  0  0  0  0
  194.5800  170.8130  146.0310 N   0  0  0  0  0  0  0  0  0  0  0  0
  193.7460  172.6460  142.0670 N   0  0  0  0  0  2  0  0  0  0  0  0
  191.1690  172.0230  139.2830 C   0  0  0  0  0  2  0  0  0  0  0  0
  193.2030  174.0140  140.0990 C   0  0  0  0  0  2  0  0  0  0  0  0
  191.7180  172.0370  140.7190 C   0  0  1  0  0  3  0  0  0  0  0  0
  191.2700  173.3980  138.6220 C   0  0  0  0  0  2  0  0  0  0  0  0
  192.7130  173.9150  138.6560 C   0  0  0  0  0  2  0  0  0  0  0  0
  193.1450  172.6340  140.7370 C   0  0  2  0  0  3  0  0  0  0  0  0
  188.3960  172.6530  142.0320 N   0  0  0  0  0  2  0  0  0  0  0  0
  190.4170  171.7290  142.9010 C   0  0  0  0  0  2  0  0  0  0  0  0
  190.6970  172.6110  141.7240 C   0  0  2  0  0  3  0  0  0  0  0  0
  189.0020  172.0850  143.2330 C   0  0  0  0  0  2  0  0  0  0  0  0
  189.4210  172.8810  141.0850 N   0  0  0  0  0  2  0  0  0  0  0  0
  193.9050  176.3780  144.9770 N   0  0  0  0  0  2  0  0  0  0  0  0
  190.5600  175.6200  144.1110 C   0  0  2  0  0  3  0  0  0  0  0  0
  189.5730  174.4190  145.9870 C   0  0  0  0  0  1  0  0  0  0  0  0
  192.0020  175.7050  143.6510 C   0  0  0  0  0  2  0  0  0  0  0  0
  190.2160  176.8320  144.9710 C   0  0  2  0  0  3  0  0  0  0  0  0
  192.0140  175.2980  146.0540 C   0  0  0  0  0  2  0  0  0  0  0  0
  190.5800  175.4840  145.6070 C   0  0  2  0  0  0  0  0  0  0  0  0
  192.8980  175.3490  144.8210 C   0  0  2  0  0  3  0  0  0  0  0  0
  188.7340  177.1740  144.9860 C   0  0  2  0  0  3  0  0  0  0  0  0
  188.0210  177.3470  143.8330 C   0  0  1  0  0  3  0  0  0  0  0  0
  184.6990  179.3570  144.0750 C   0  0  0  0  0  1  0  0  0  0  0  0
  185.7230  176.7490  143.6910 O   0  0  0  0  0  0  0  0  0  0  0  0
  186.1120  179.0130  144.0610 N   0  0  0  0  0  2  0  0  0  0  0  0
  186.5670  177.6730  143.8450 C   0  0  0  0  0  0  0  0  0  0  0  0
  189.3170  178.2830  142.0550 O   0  0  0  0  0  1  0  0  0  0  0  0
  188.5000  176.1760  141.6880 O   0  0  0  0  0  0  0  0  0  0  0  0
  188.6660  177.2970  142.4970 C   0  0  0  0  0  0  0  0  0  0  0  0
  189.1710  177.9550  147.2110 O   0  0  0  0  0  1  0  0  0  0  0  0
  188.1570  177.6780  146.2930 C   0  0  2  0  0  3  0  0  0  0  0  0
  185.7920  177.2740  147.0040 O   0  0  0  0  0  0  0  0  0  0  0  0
  187.0940  176.8020  146.8920 C   0  0  0  0  0  0  0  0  0  0  0  0
  187.3830  175.6590  147.3520 O   0  0  0  0  0  1  0  0  0  0  0  0
  2  3  2  0  0  0  0
  3  1  1  0  0  0  0
  4  3  1  0  0  0  0
  5  6  2  0  0  0  0
  6  4  1  0  0  0  0
  6  7  1  0  0  0  0
  7  9  1  0  0  0  0
  8 11  2  0  0  0  0
  9 11  1  0  0  0  0
 10  7  2  0  0  0  0
 10  8  1  0  0  0  0
 12  5  1  0  0  0  0
 14 18  1  0  0  0  0
 15 13  1  6  0  0  0
 15 18  1  0  0  0  0
 15 21  1  0  0  0  0
 16 17  1  0  0  0  0
 16 13  1  0  0  0  0
 17 14  1  0  0  0  0
 18 12  1  1  0  0  0
 19 22  1  0  0  0  0
 20 22  1  0  0  0  0
 21 20  1  1  0  0  0
 23 21  1  0  0  0  0
 23 19  1  0  0  0  0
 24  1  1  0  0  0  0
 25 27  1  1  0  0  0
 25 28  1  0  0  0  0
 25 30  1  0  0  0  0
 27 31  1  0  0  0  0
 28 32  1  6  0  0  0
 28 30  1  0  0  0  0
 30 26  1  1  0  0  0
 30 29  1  0  0  0  0
 31 24  1  1  0  0  0
 31 29  1  0  0  0  0
 32 33  1  6  0  0  0
 32 42  1  0  0  0  0
 33 40  1  1  0  0  0
 33 37  1  0  0  0  0
 35 37  2  0  0  0  0
 36 34  1  0  0  0  0
 37 36  1  0  0  0  0
 38 40  1  0  0  0  0
 39 40  2  0  0  0  0
 42 44  1  0  0  0  0
 42 41  1  1  0  0  0
 44 43  2  0  0  0  0
 44 45  1  0  0  0  0
M  END
>  <MODEL>
6

>  <REMARK>
 VINA RESULT:      -5.9      2.649      8.484
  Name = 
  14 active torsions:
  status: ('A' for Active; 'I' for Inactive)
    1  A    between atoms: C_2  and  C_17
    2  A    between atoms: C_7  and  C_30
    3  A    between atoms: C_7  and  N_33
    4  A    between atoms: N_10  and  N_27
    5  A    between atoms: C_12  and  C_25
    6  A    between atoms: C_17  and  C_28
    7  A    between atoms: C_19  and  C_35
    8  A    between atoms: C_19  and  C_38
    9  A    between atoms: C_23  and  C_32
   10  A    between atoms: C_23  and  C_36
   11  A    between atoms: C_26  and  C_38
   12  A    between atoms: N_27  and  C_45
   13  A    between atoms: C_28  and  C_30
   14  A    between atoms: N_33  and  C_44
                            x       y       z     vdW  Elec       q    Type
                         _______ _______ _______ _____ _____    ______ ____

>  <TORSDO>
F 14

$$$$
=
 OpenBabel11062420443D

 45 49  0  0  1  0  0  0  0  0999 V2000
  191.7860  173.8900  141.1080 C   0  0  0  0  0  2  0  0  0  0  0  0
  193.1160  172.3420  139.9400 O   0  0  0  0  0  0  0  0  0  0  0  0
  192.8940  173.5190  140.1730 C   0  0  0  0  0  0  0  0  0  0  0  0
  193.8010  174.5640  139.5910 C   0  0  0  0  0  2  0  0  0  0  0  0
  195.3110  174.7380  141.4620 N   0  0  0  0  0  0  0  0  0  0  0  0
  195.1740  174.5180  140.1820 C   0  0  0  0  0  0  0  0  0  0  0  0
  196.2930  174.1660  139.2860 C   0  0  0  0  0  0  0  0  0  0  0  0
  197.9220  174.2370  137.5750 C   0  0  0  0  0  3  0  0  0  0  0  0
  196.8120  172.9580  139.1820 C   0  0  0  0  0  2  0  0  0  0  0  0
  196.8700  175.0900  138.2740 C   0  0  0  0  0  3  0  0  0  0  0  0
  197.8090  172.9170  138.1820 N   0  0  0  0  0  0  0  0  0  0  0  0
  196.5280  174.8750  142.1570 N   0  0  0  0  0  2  0  0  0  0  0  0
  197.1850  173.8120  145.7930 C   0  0  0  0  0  2  0  0  0  0  0  0
  196.2640  172.6740  143.2190 C   0  0  0  0  0  2  0  0  0  0  0  0
  196.7090  174.7320  144.6570 C   0  0  1  0  0  3  0  0  0  0  0  0
  196.5600  172.4200  145.6970 C   0  0  0  0  0  2  0  0  0  0  0  0
  196.8340  171.7910  144.3270 C   0  0  0  0  0  2  0  0  0  0  0  0
  196.9250  174.0430  143.2880 C   0  0  2  0  0  3  0  0  0  0  0  0
  194.1620  176.3020  146.7030 N   0  0  0  0  0  2  0  0  0  0  0  0
  195.1680  176.7740  144.5910 C   0  0  0  0  0  2  0  0  0  0  0  0
  195.3120  175.3250  144.9380 C   0  0  2  0  0  3  0  0  0  0  0  0
  194.1440  177.2350  145.5800 C   0  0  0  0  0  2  0  0  0  0  0  0
  194.9530  175.1880  146.3390 N   0  0  0  0  0  2  0  0  0  0  0  0
  192.1380  173.4810  142.4610 N   0  0  0  0  0  2  0  0  0  0  0  0
  190.8090  175.6690  144.9030 C   0  0  2  0  0  3  0  0  0  0  0  0
  190.7930  177.9100  143.9450 C   0  0  0  0  0  1  0  0  0  0  0  0
  191.7140  174.4870  144.6150 C   0  0  0  0  0  2  0  0  0  0  0  0
  189.5160  175.5410  144.1040 C   0  0  2  0  0  3  0  0  0  0  0  0
  191.6120  175.8490  142.5960 C   0  0  0  0  0  2  0  0  0  0  0  0
  190.6630  176.4370  143.6190 C   0  0  2  0  0  0  0  0  0  0  0  0
  192.3340  174.6830  143.2460 C   0  0  2  0  0  3  0  0  0  0  0  0
  188.3370  176.2780  144.7210 C   0  0  2  0  0  3  0  0  0  0  0  0
  188.1660  176.3610  146.0730 C   0  0  1  0  0  3  0  0  0  0  0  0
  186.0060  179.2110  147.6050 C   0  0  0  0  0  1  0  0  0  0  0  0
  185.9500  176.4650  146.9330 O   0  0  0  0  0  0  0  0  0  0  0  0
  187.1140  178.4780  147.0140 N   0  0  0  0  0  2  0  0  0  0  0  0
  187.0160  177.0900  146.6810 C   0  0  0  0  0  0  0  0  0  0  0  0
  190.0260  176.2770  147.5730 O   0  0  0  0  0  1  0  0  0  0  0  0
  188.9080  174.3040  147.2650 O   0  0  0  0  0  0  0  0  0  0  0  0
  189.0710  175.6660  147.0240 C   0  0  0  0  0  0  0  0  0  0  0  0
  186.9810  175.5800  142.8690 O   0  0  0  0  0  1  0  0  0  0  0  0
  187.1700  176.5960  143.8080 C   0  0  2  0  0  3  0  0  0  0  0  0
  186.4750  178.9960  143.6640 O   0  0  0  0  0  1  0  0  0  0  0  0
  187.2310  177.9470  143.1550 C   0  0  0  0  0  0  0  0  0  0  0  0
  187.9190  178.1270  142.1080 O   0  0  0  0  0  0  0  0  0  0  0  0
  1 24  1  0  0  0  0
  2  3  2  0  0  0  0
  3  1  1  0  0  0  0
  4  3  1  0  0  0  0
  4  6  1  0  0  0  0
  5 12  1  0  0  0  0
  6  5  2  0  0  0  0
  7  6  1  0  0  0  0
  8 11  2  0  0  0  0
  8 10  1  0  0  0  0
  9  7  1  0  0  0  0
 10  7  2  0  0  0  0
 11  9  1  0  0  0  0
 14 18  1  0  0  0  0
 14 17  1  0  0  0  0
 15 21  1  0  0  0  0
 15 13  1  1  0  0  0
 16 13  1  0  0  0  0
 17 16  1  0  0  0  0
 18 12  1  6  0  0  0
 18 15  1  0  0  0  0
 20 22  1  0  0  0  0
 21 20  1  1  0  0  0
 21 23  1  0  0  0  0
 22 19  1  0  0  0  0
 23 19  1  0  0  0  0
 25 27  1  6  0  0  0
 28 32  1  1  0  0  0
 28 25  1  0  0  0  0
 29 31  1  0  0  0  0
 29 30  1  0  0  0  0
 30 26  1  1  0  0  0
 30 28  1  0  0  0  0
 30 25  1  0  0  0  0
 31 24  1  6  0  0  0
 31 27  1  0  0  0  0
 32 42  1  6  0  0  0
 32 33  1  0  0  0  0
 33 37  1  6  0  0  0
 33 40  1  0  0  0  0
 36 34  1  0  0  0  0
 37 35  2  0  0  0  0
 37 36  1  0  0  0  0
 40 39  2  0  0  0  0
 40 38  1  0  0  0  0
 42 41  1  6  0  0  0
 44 43  1  0  0  0  0
 44 42  1  0  0  0  0
 45 44  2  0  0  0  0
M  END
>  <MODEL>
7

>  <REMARK>
 VINA RESULT:      -5.8      2.968      7.905
  Name = 
  14 active torsions:
  status: ('A' for Active; 'I' for Inactive)
    1  A    between atoms: C_2  and  C_17
    2  A    between atoms: C_7  and  C_30
    3  A    between atoms: C_7  and  N_33
    4  A    between atoms: N_10  and  N_27
    5  A    between atoms: C_12  and  C_25
    6  A    between atoms: C_17  and  C_28
    7  A    between atoms: C_19  and  C_35
    8  A    between atoms: C_19  and  C_38
    9  A    between atoms: C_23  and  C_32
   10  A    between atoms: C_23  and  C_36
   11  A    between atoms: C_26  and  C_38
   12  A    between atoms: N_27  and  C_45
   13  A    between atoms: C_28  and  C_30
   14  A    between atoms: N_33  and  C_44
                            x       y       z     vdW  Elec       q    Type
                         _______ _______ _______ _____ _____    ______ ____

>  <TORSDO>
F 14

$$$$
=
 OpenBabel11062420443D

 45 49  0  0  1  0  0  0  0  0999 V2000
  188.9390  173.4780  141.5260 C   0  0  0  0  0  2  0  0  0  0  0  0
  187.8180  175.4950  141.0720 O   0  0  0  0  0  0  0  0  0  0  0  0
  188.7500  174.9580  141.6480 C   0  0  0  0  0  0  0  0  0  0  0  0
  189.7410  175.8080  142.3880 C   0  0  0  0  0  2  0  0  0  0  0  0
  188.1750  176.0460  144.2050 N   0  0  0  0  0  0  0  0  0  0  0  0
  189.4230  175.9120  143.8460 C   0  0  0  0  0  0  0  0  0  0  0  0
  190.5430  175.7950  144.8000 C   0  0  0  0  0  0  0  0  0  0  0  0
  192.0520  174.9640  146.4190 C   0  0  0  0  0  3  0  0  0  0  0  0
  191.2630  176.8130  145.2310 C   0  0  0  0  0  3  0  0  0  0  0  0
  190.8990  174.5420  145.5160 C   0  0  0  0  0  2  0  0  0  0  0  0
  192.2040  176.3970  146.2000 N   0  0  0  0  0  0  0  0  0  0  0  0
  187.7070  176.2990  145.5090 N   0  0  0  0  0  2  0  0  0  0  0  0
  185.5680  179.4730  145.1430 C   0  0  0  0  0  2  0  0  0  0  0  0
  185.4670  176.7900  146.3940 C   0  0  0  0  0  2  0  0  0  0  0  0
  186.5340  178.3640  144.6950 C   0  0  1  0  0  3  0  0  0  0  0  0
  184.2790  178.8990  145.7340 C   0  0  0  0  0  2  0  0  0  0  0  0
  184.5880  177.9370  146.8870 C   0  0  0  0  0  2  0  0  0  0  0  0
  186.7680  177.3630  145.8510 C   0  0  2  0  0  3  0  0  0  0  0  0
  184.3970  177.9240  141.8000 N   0  0  0  0  0  2  0  0  0  0  0  0
  186.6750  178.5440  142.1460 C   0  0  0  0  0  2  0  0  0  0  0  0
  186.1460  177.7790  143.3200 C   0  0  2  0  0  3  0  0  0  0  0  0
  185.6280  178.2900  141.1070 C   0  0  0  0  0  2  0  0  0  0  0  0
  184.7040  177.7090  143.1630 N   0  0  0  0  0  2  0  0  0  0  0  0
  188.9800  173.1120  140.1180 N   0  0  0  0  0  2  0  0  0  0  0  0
  192.0370  171.8940  141.4160 C   0  0  2  0  0  3  0  0  0  0  0  0
  193.7470  172.2460  139.7140 C   0  0  0  0  0  1  0  0  0  0  0  0
  190.5430  171.6800  141.2750 C   0  0  0  0  0  2  0  0  0  0  0  0
  192.3260  173.3610  141.7170 C   0  0  2  0  0  3  0  0  0  0  0  0
  191.2870  172.9950  139.3620 C   0  0  0  0  0  2  0  0  0  0  0  0
  192.4620  172.8000  140.2950 C   0  0  2  0  0  0  0  0  0  0  0  0
  190.1090  172.2230  139.9280 C   0  0  2  0  0  3  0  0  0  0  0  0
  193.6400  173.5910  142.4490 C   0  0  2  0  0  3  0  0  0  0  0  0
  194.0940  172.7280  143.4050 C   0  0  1  0  0  3  0  0  0  0  0  0
  196.6670  173.7910  146.1230 C   0  0  0  0  0  1  0  0  0  0  0  0
  196.4650  172.6050  143.5640 O   0  0  0  0  0  0  0  0  0  0  0  0
  195.4210  173.5680  145.4070 N   0  0  0  0  0  2  0  0  0  0  0  0
  195.3850  172.9470  144.1180 C   0  0  0  0  0  0  0  0  0  0  0  0
  192.3200  171.7030  144.6380 O   0  0  0  0  0  1  0  0  0  0  0  0
  193.6600  170.2770  143.4520 O   0  0  0  0  0  0  0  0  0  0  0  0
  193.2940  171.5590  143.8510 C   0  0  0  0  0  0  0  0  0  0  0  0
  193.2570  175.9590  142.4650 O   0  0  0  0  0  1  0  0  0  0  0  0
  194.2440  174.9780  142.3590 C   0  0  2  0  0  3  0  0  0  0  0  0
  194.5680  175.6660  139.9760 O   0  0  0  0  0  0  0  0  0  0  0  0
  195.1230  175.2060  141.1630 C   0  0  0  0  0  0  0  0  0  0  0  0
  196.3570  174.9280  141.2070 O   0  0  0  0  0  1  0  0  0  0  0  0
  1  3  1  0  0  0  0
  2  3  2  0  0  0  0
  3  4  1  0  0  0  0
  4  6  1  0  0  0  0
  5 12  1  0  0  0  0
  6  5  2  0  0  0  0
  6  7  1  0  0  0  0
  7  9  2  0  0  0  0
  7 10  1  0  0  0  0
  9 11  1  0  0  0  0
 10  8  1  0  0  0  0
 11  8  2  0  0  0  0
 13 16  1  0  0  0  0
 14 17  1  0  0  0  0
 15 13  1  1  0  0  0
 15 18  1  0  0  0  0
 16 17  1  0  0  0  0
 18 12  1  6  0  0  0
 18 14  1  0  0  0  0
 19 23  1  0  0  0  0
 21 20  1  6  0  0  0
 21 15  1  0  0  0  0
 22 19  1  0  0  0  0
 22 20  1  0  0  0  0
 23 21  1  0  0  0  0
 24  1  1  0  0  0  0
 25 27  1  6  0  0  0
 25 28  1  0  0  0  0
 28 32  1  1  0  0  0
 29 31  1  0  0  0  0
 29 30  1  0  0  0  0
 30 26  1  6  0  0  0
 30 25  1  0  0  0  0
 30 28  1  0  0  0  0
 31 24  1  1  0  0  0
 31 27  1  0  0  0  0
 32 42  1  1  0  0  0
 32 33  1  0  0  0  0
 33 40  1  1  0  0  0
 33 37  1  0  0  0  0
 35 37  2  0  0  0  0
 36 34  1  0  0  0  0
 37 36  1  0  0  0  0
 39 40  2  0  0  0  0
 40 38  1  0  0  0  0
 42 41  1  6  0  0  0
 43 44  2  0  0  0  0
 44 45  1  0  0  0  0
 44 42  1  0  0  0  0
M  END
>  <MODEL>
8

>  <REMARK>
 VINA RESULT:      -5.8      1.440      3.720
  Name = 
  14 active torsions:
  status: ('A' for Active; 'I' for Inactive)
    1  A    between atoms: C_2  and  C_17
    2  A    between atoms: C_7  and  C_30
    3  A    between atoms: C_7  and  N_33
    4  A    between atoms: N_10  and  N_27
    5  A    between atoms: C_12  and  C_25
    6  A    between atoms: C_17  and  C_28
    7  A    between atoms: C_19  and  C_35
    8  A    between atoms: C_19  and  C_38
    9  A    between atoms: C_23  and  C_32
   10  A    between atoms: C_23  and  C_36
   11  A    between atoms: C_26  and  C_38
   12  A    between atoms: N_27  and  C_45
   13  A    between atoms: C_28  and  C_30
   14  A    between atoms: N_33  and  C_44
                            x       y       z     vdW  Elec       q    Type
                         _______ _______ _______ _____ _____    ______ ____

>  <TORSDO>
F 14

$$$$
=
 OpenBabel11062420443D

 45 49  0  0  1  0  0  0  0  0999 V2000
  194.2860  175.0260  145.6920 C   0  0  0  0  0  2  0  0  0  0  0  0
  194.0810  177.3580  145.4760 O   0  0  0  0  0  0  0  0  0  0  0  0
  193.8330  176.2670  144.9890 C   0  0  0  0  0  0  0  0  0  0  0  0
  192.9970  176.1920  143.7450 C   0  0  0  0  0  2  0  0  0  0  0  0
  190.9990  177.4150  143.1760 N   0  0  0  0  0  0  0  0  0  0  0  0
  191.5720  176.5740  143.9940 C   0  0  0  0  0  0  0  0  0  0  0  0
  190.8790  175.9260  145.1240 C   0  0  0  0  0  0  0  0  0  0  0  0
  190.0040  175.4650  147.2710 C   0  0  0  0  0  3  0  0  0  0  0  0
  190.4670  174.6730  145.1240 C   0  0  0  0  0  3  0  0  0  0  0  0
  190.6970  176.5540  146.4590 C   0  0  0  0  0  2  0  0  0  0  0  0
  189.9170  174.3180  146.3770 N   0  0  0  0  0  0  0  0  0  0  0  0
  189.7240  177.9930  143.3360 N   0  0  0  0  0  2  0  0  0  0  0  0
  186.3220  176.2020  143.3340 C   0  0  0  0  0  2  0  0  0  0  0  0
  187.7500  178.3800  141.9250 C   0  0  0  0  0  2  0  0  0  0  0  0
  187.5810  176.8360  143.9460 C   0  0  1  0  0  3  0  0  0  0  0  0
  185.6050  177.1640  142.3860 C   0  0  0  0  0  2  0  0  0  0  0  0
  186.5560  177.6660  141.2940 C   0  0  0  0  0  2  0  0  0  0  0  0
  188.4890  177.4050  142.8300 C   0  0  2  0  0  3  0  0  0  0  0  0
  185.4490  179.0370  145.8840 N   0  0  0  0  0  2  0  0  0  0  0  0
  186.7220  177.0730  146.3460 C   0  0  0  0  0  2  0  0  0  0  0  0
  187.2420  177.7710  145.1280 C   0  0  2  0  0  3  0  0  0  0  0  0
  185.8270  178.1110  146.9460 C   0  0  0  0  0  2  0  0  0  0  0  0
  186.2480  178.7600  144.7500 N   0  0  0  0  0  2  0  0  0  0  0  0
  195.5010  174.5300  145.0620 N   0  0  0  0  0  2  0  0  0  0  0  0
  194.3090  171.9560  142.9480 C   0  0  2  0  0  3  0  0  0  0  0  0
  192.7810  170.5820  144.2600 C   0  0  0  0  0  1  0  0  0  0  0  0
  195.4960  172.7920  143.3850 C   0  0  0  0  0  2  0  0  0  0  0  0
  193.0720  172.8390  142.8130 C   0  0  2  0  0  3  0  0  0  0  0  0
  193.9400  172.6790  145.2590 C   0  0  0  0  0  2  0  0  0  0  0  0
  193.3080  171.9900  144.0690 C   0  0  2  0  0  0  0  0  0  0  0  0
  195.3420  173.1040  144.8600 C   0  0  2  0  0  3  0  0  0  0  0  0
  192.0300  172.2920  141.8490 C   0  0  2  0  0  3  0  0  0  0  0  0
  192.2730  172.1800  140.5100 C   0  0  1  0  0  3  0  0  0  0  0  0
  189.4670  172.0030  137.8220 C   0  0  0  0  0  1  0  0  0  0  0  0
  191.0710  170.3910  139.5020 O   0  0  0  0  0  0  0  0  0  0  0  0
  190.4630  172.5080  138.7520 N   0  0  0  0  0  2  0  0  0  0  0  0
  191.2560  171.6370  139.5650 C   0  0  0  0  0  0  0  0  0  0  0  0
  193.7160  173.8900  139.6680 O   0  0  0  0  0  1  0  0  0  0  0  0
  194.5130  171.7510  139.5120 O   0  0  0  0  0  0  0  0  0  0  0  0
  193.5370  172.6640  139.8980 C   0  0  0  0  0  0  0  0  0  0  0  0
  190.0760  170.9410  142.1820 O   0  0  0  0  0  1  0  0  0  0  0  0
  190.6000  172.2240  142.3480 C   0  0  2  0  0  3  0  0  0  0  0  0
  188.4140  172.9170  141.3470 O   0  0  0  0  0  0  0  0  0  0  0  0
  189.6850  173.2720  141.7840 C   0  0  0  0  0  0  0  0  0  0  0  0
  190.0790  174.4670  141.6460 O   0  0  0  0  0  1  0  0  0  0  0  0
  3  2  2  0  0  0  0
  3  1  1  0  0  0  0
  4  6  1  0  0  0  0
  4  3  1  0  0  0  0
  5 12  1  0  0  0  0
  5  6  2  0  0  0  0
  6  7  1  0  0  0  0
  7 10  1  0  0  0  0
  9  7  2  0  0  0  0
  9 11  1  0  0  0  0
 10  8  1  0  0  0  0
 11  8  2  0  0  0  0
 14 18  1  0  0  0  0
 15 13  1  6  0  0  0
 15 21  1  0  0  0  0
 16 13  1  0  0  0  0
 17 14  1  0  0  0  0
 17 16  1  0  0  0  0
 18 12  1  1  0  0  0
 18 15  1  0  0  0  0
 19 22  1  0  0  0  0
 20 22  1  0  0  0  0
 21 20  1  1  0  0  0
 23 21  1  0  0  0  0
 23 19  1  0  0  0  0
 24  1  1  0  0  0  0
 25 27  1  1  0  0  0
 25 30  1  0  0  0  0
 27 31  1  0  0  0  0
 28 32  1  6  0  0  0
 28 25  1  0  0  0  0
 28 30  1  0  0  0  0
 30 26  1  1  0  0  0
 30 29  1  0  0  0  0
 31 24  1  6  0  0  0
 31 29  1  0  0  0  0
 32 33  1  6  0  0  0
 32 42  1  0  0  0  0
 33 37  1  6  0  0  0
 34 36  1  0  0  0  0
 35 37  2  0  0  0  0
 36 37  1  0  0  0  0
 38 40  1  0  0  0  0
 39 40  2  0  0  0  0
 40 33  1  0  0  0  0
 42 41  1  6  0  0  0
 43 44  2  0  0  0  0
 44 42  1  0  0  0  0
 45 44  1  0  0  0  0
M  END
>  <MODEL>
9

>  <REMARK>
 VINA RESULT:      -5.7      1.964      5.705
  Name = 
  14 active torsions:
  status: ('A' for Active; 'I' for Inactive)
    1  A    between atoms: C_2  and  C_17
    2  A    between atoms: C_7  and  C_30
    3  A    between atoms: C_7  and  N_33
    4  A    between atoms: N_10  and  N_27
    5  A    between atoms: C_12  and  C_25
    6  A    between atoms: C_17  and  C_28
    7  A    between atoms: C_19  and  C_35
    8  A    between atoms: C_19  and  C_38
    9  A    between atoms: C_23  and  C_32
   10  A    between atoms: C_23  and  C_36
   11  A    between atoms: C_26  and  C_38
   12  A    between atoms: N_27  and  C_45
   13  A    between atoms: C_28  and  C_30
   14  A    between atoms: N_33  and  C_44
                            x       y       z     vdW  Elec       q    Type
                         _______ _______ _______ _____ _____    ______ ____

>  <TORSDO>
F 14

$$$$
