=
 OpenBabel11062421093D

 27 30  0  0  1  0  0  0  0  0999 V2000
  189.8960  176.5330  142.8220 C   0  0  2  0  0  3  0  0  0  0  0  0
  187.0560  176.6580  141.2480 C   0  0  0  0  0  0  0  0  0  0  0  0
  185.8470  178.5500  142.3670 C   0  0  1  0  0  3  0  0  0  0  0  0
  187.9000  175.6760  141.1960 C   0  0  0  0  0  0  0  0  0  0  0  0
  186.8990  177.7950  144.9260 N   0  0  0  0  0  0  0  0  0  0  0  0
  187.1030  176.7300  147.1040 C   0  0  0  0  0  2  0  0  0  0  0  0
  190.0580  175.1620  142.1520 C   0  0  0  0  0  2  0  0  0  0  0  0
  186.6150  177.2250  142.5870 C   0  0  2  0  0  3  0  0  0  0  0  0
  184.8800  178.4230  141.2250 C   0  0  0  0  0  3  0  0  0  0  0  0
  185.2380  177.8260  140.1390 N   0  0  0  0  0  0  0  0  0  0  0  0
  189.1250  175.4130  146.2850 C   0  0  0  0  0  0  0  0  0  0  0  0
  191.2520  177.1220  143.1910 C   0  0  0  0  0  1  0  0  0  0  0  0
  188.8350  176.4800  143.9500 C   0  0  1  0  0  3  0  0  0  0  0  0
  187.9770  175.4950  147.2570 C   0  0  0  0  0  2  0  0  0  0  0  0
  185.8850  179.7050  145.8060 O   0  0  0  0  0  0  0  0  0  0  0  0
  188.8710  174.8120  141.2970 C   0  0  0  0  0  0  0  0  0  0  0  0
  186.5740  177.2840  139.9690 C   0  0  0  0  0  2  0  0  0  0  0  0
  185.1360  179.0500  143.6270 C   0  0  0  0  0  2  0  0  0  0  0  0
  189.7770  174.3840  146.2540 O   0  0  0  0  0  0  0  0  0  0  0  0
  189.5100  176.5210  145.3410 C   0  0  1  0  0  3  0  0  0  0  0  0
  189.7200  177.8920  145.9750 C   0  0  0  0  0  1  0  0  0  0  0  0
  186.0160  178.9160  144.8340 C   0  0  0  0  0  0  0  0  0  0  0  0
  187.6650  177.4940  143.7100 C   0  0  2  0  0  3  0  0  0  0  0  0
  186.4160  176.6980  145.7550 C   0  0  0  0  0  2  0  0  0  0  0  0
  188.8530  173.5380  140.5220 C   0  0  0  0  0  2  0  0  0  0  0  0
  189.7030  173.7530  138.2080 C   0  0  0  0  0  1  0  0  0  0  0  0
  188.4640  173.7950  139.0770 C   0  0  0  0  0  2  0  0  0  0  0  0
  1 12  1  1  0  0  0
  1 13  1  0  0  0  0
  3  9  1  6  0  0  0
  3  8  1  0  0  0  0
  3 18  1  0  0  0  0
  4  2  2  0  0  0  0
  4 16  2  0  0  0  0
  5 24  1  0  0  0  0
  6 14  1  0  0  0  0
  7  1  1  0  0  0  0
  8  2  1  6  0  0  0
  8 23  1  0  0  0  0
 10  9  2  0  0  0  0
 11 14  1  0  0  0  0
 13 20  1  0  0  0  0
 16  7  1  0  0  0  0
 17 10  1  0  0  0  0
 17  2  1  0  0  0  0
 18 22  1  0  0  0  0
 19 11  2  0  0  0  0
 20 21  1  0  0  0  0
 20 11  1  0  0  0  0
 22  5  1  0  0  0  0
 22 15  2  0  0  0  0
 23 13  1  0  0  0  0
 23  5  1  0  0  0  0
 24  6  1  0  0  0  0
 25 16  1  0  0  0  0
 26 27  1  0  0  0  0
 27 25  1  0  0  0  0
M  END
>  <MODEL>
1

>  <REMARK>
 VINA RESULT:      -8.0      0.000      0.000
  Name = 
  2 active torsions:
  status: ('A' for Active; 'I' for Inactive)
    1  A    between atoms: C_16  and  C_27
    2  A    between atoms: C_18  and  C_27
                            x       y       z     vdW  Elec       q    Type
                         _______ _______ _______ _____ _____    ______ ____

>  <TORSDO>
F 2

$$$$
=
 OpenBabel11062421093D

 27 30  0  0  1  0  0  0  0  0999 V2000
  188.4040  176.5270  143.3190 C   0  0  2  0  0  3  0  0  0  0  0  0
  189.2570  176.6650  146.4510 C   0  0  0  0  0  0  0  0  0  0  0  0
  191.6830  176.0260  146.4280 C   0  0  1  0  0  3  0  0  0  0  0  0
  188.0410  176.6590  146.0050 C   0  0  0  0  0  0  0  0  0  0  0  0
  191.2190  174.0830  144.3700 N   0  0  0  0  0  0  0  0  0  0  0  0
  190.7230  171.9670  143.2770 C   0  0  0  0  0  2  0  0  0  0  0  0
  186.9620  176.5770  143.8450 C   0  0  0  0  0  2  0  0  0  0  0  0
  190.2590  175.6270  145.9740 C   0  0  2  0  0  3  0  0  0  0  0  0
  191.6760  176.4950  147.8550 C   0  0  0  0  0  3  0  0  0  0  0  0
  190.7420  177.2810  148.2720 N   0  0  0  0  0  0  0  0  0  0  0  0
  188.5570  172.9390  142.3490 C   0  0  0  0  0  0  0  0  0  0  0  0
  188.4780  177.0380  141.8850 C   0  0  0  0  0  1  0  0  0  0  0  0
  189.0510  175.1470  143.5970 C   0  0  1  0  0  3  0  0  0  0  0  0
  189.3200  171.7040  142.7510 C   0  0  0  0  0  2  0  0  0  0  0  0
  193.5260  173.7270  144.3110 O   0  0  0  0  0  0  0  0  0  0  0  0
  186.9150  176.6300  145.3470 C   0  0  0  0  0  0  0  0  0  0  0  0
  189.6920  177.7560  147.3900 C   0  0  0  0  0  2  0  0  0  0  0  0
  192.7130  174.9110  146.2280 C   0  0  0  0  0  2  0  0  0  0  0  0
  187.3800  172.8160  142.0590 O   0  0  0  0  0  0  0  0  0  0  0  0
  189.1570  174.3190  142.2940 C   0  0  1  0  0  3  0  0  0  0  0  0
  190.4420  174.4540  141.4840 C   0  0  0  0  0  1  0  0  0  0  0  0
  192.5390  174.2470  144.8950 C   0  0  0  0  0  0  0  0  0  0  0  0
  190.3540  175.2670  144.4580 C   0  0  2  0  0  3  0  0  0  0  0  0
  190.6390  172.7600  144.5640 C   0  0  0  0  0  2  0  0  0  0  0  0
  185.6060  176.7290  146.0540 C   0  0  0  0  0  2  0  0  0  0  0  0
  184.1370  178.7130  145.8750 C   0  0  0  0  0  1  0  0  0  0  0  0
  185.3690  178.1450  146.5470 C   0  0  0  0  0  2  0  0  0  0  0  0
  1 12  1  6  0  0  0
  1 13  1  0  0  0  0
  1  7  1  0  0  0  0
  2 17  1  0  0  0  0
  3 18  1  1  0  0  0
  3  9  1  0  0  0  0
  4  2  2  0  0  0  0
  5 23  1  0  0  0  0
  5 24  1  0  0  0  0
  5 22  1  0  0  0  0
  6 24  1  0  0  0  0
  7 16  1  0  0  0  0
  8  3  1  0  0  0  0
  8  2  1  6  0  0  0
  9 10  2  0  0  0  0
 11 14  1  0  0  0  0
 13 23  1  0  0  0  0
 14  6  1  0  0  0  0
 15 22  2  0  0  0  0
 16  4  2  0  0  0  0
 16 25  1  0  0  0  0
 17 10  1  0  0  0  0
 19 11  2  0  0  0  0
 20 11  1  0  0  0  0
 20 13  1  0  0  0  0
 21 20  1  0  0  0  0
 22 18  1  0  0  0  0
 23  8  1  0  0  0  0
 25 27  1  0  0  0  0
 26 27  1  0  0  0  0
M  END
>  <MODEL>
2

>  <REMARK>
 VINA RESULT:      -7.7      3.169      6.670
  Name = 
  2 active torsions:
  status: ('A' for Active; 'I' for Inactive)
    1  A    between atoms: C_16  and  C_27
    2  A    between atoms: C_18  and  C_27
                            x       y       z     vdW  Elec       q    Type
                         _______ _______ _______ _____ _____    ______ ____

>  <TORSDO>
F 2

$$$$
=
 OpenBabel11062421093D

 27 30  0  0  1  0  0  0  0  0999 V2000
  189.6860  177.9710  143.0790 C   0  0  2  0  0  3  0  0  0  0  0  0
  186.8360  177.5520  144.5820 C   0  0  0  0  0  0  0  0  0  0  0  0
  187.4890  176.7310  146.8610 C   0  0  1  0  0  3  0  0  0  0  0  0
  186.9950  177.7130  143.3060 C   0  0  0  0  0  0  0  0  0  0  0  0
  189.6310  175.1750  145.7590 N   0  0  0  0  0  0  0  0  0  0  0  0
  190.8580  173.3020  144.8100 C   0  0  0  0  0  2  0  0  0  0  0  0
  188.8490  178.0550  141.7950 C   0  0  0  0  0  2  0  0  0  0  0  0
  187.6600  176.5230  145.3380 C   0  0  2  0  0  3  0  0  0  0  0  0
  186.0470  176.9720  147.2060 C   0  0  0  0  0  3  0  0  0  0  0  0
  185.3290  177.7560  146.4760 N   0  0  0  0  0  0  0  0  0  0  0  0
  191.1380  174.5770  142.6210 C   0  0  0  0  0  0  0  0  0  0  0  0
  191.0190  178.6900  142.9070 C   0  0  0  0  0  1  0  0  0  0  0  0
  189.7490  176.5170  143.6110 C   0  0  1  0  0  3  0  0  0  0  0  0
  191.0860  173.2360  143.3080 C   0  0  0  0  0  2  0  0  0  0  0  0
  190.2530  174.6480  147.9470 O   0  0  0  0  0  0  0  0  0  0  0  0
  187.3820  177.8770  142.0710 C   0  0  0  0  0  0  0  0  0  0  0  0
  185.8810  178.4450  145.3240 C   0  0  0  0  0  2  0  0  0  0  0  0
  188.0620  175.5820  147.6940 C   0  0  0  0  0  2  0  0  0  0  0  0
  191.1700  174.5950  141.4030 O   0  0  0  0  0  0  0  0  0  0  0  0
  191.1400  175.8950  143.3470 C   0  0  1  0  0  3  0  0  0  0  0  0
  192.1920  176.0510  144.4400 C   0  0  0  0  0  1  0  0  0  0  0  0
  189.3980  175.1490  147.1700 C   0  0  0  0  0  0  0  0  0  0  0  0
  189.1930  176.3960  145.0710 C   0  0  2  0  0  3  0  0  0  0  0  0
  189.4920  173.8890  145.0880 C   0  0  0  0  0  2  0  0  0  0  0  0
  186.3920  177.9690  140.9600 C   0  0  0  0  0  2  0  0  0  0  0  0
  184.0070  178.2580  140.3610 C   0  0  0  0  0  1  0  0  0  0  0  0
  185.0030  178.2580  141.5010 C   0  0  0  0  0  2  0  0  0  0  0  0
  1 12  1  6  0  0  0
  1 13  1  0  0  0  0
  2 17  1  0  0  0  0
  3  9  1  6  0  0  0
  3 18  1  0  0  0  0
  4  2  2  0  0  0  0
  5 22  1  0  0  0  0
  6 24  1  0  0  0  0
  7 16  1  0  0  0  0
  7  1  1  0  0  0  0
  8  2  1  6  0  0  0
  8  3  1  0  0  0  0
 10  9  2  0  0  0  0
 11 14  1  0  0  0  0
 11 20  1  0  0  0  0
 13 23  1  0  0  0  0
 14  6  1  0  0  0  0
 16  4  2  0  0  0  0
 17 10  1  0  0  0  0
 19 11  2  0  0  0  0
 20 13  1  0  0  0  0
 20 21  1  0  0  0  0
 22 18  1  0  0  0  0
 22 15  2  0  0  0  0
 23  8  1  0  0  0  0
 23  5  1  0  0  0  0
 24  5  1  0  0  0  0
 25 27  1  0  0  0  0
 25 16  1  0  0  0  0
 26 27  1  0  0  0  0
M  END
>  <MODEL>
3

>  <REMARK>
 VINA RESULT:      -6.9      2.626      4.695
  Name = 
  2 active torsions:
  status: ('A' for Active; 'I' for Inactive)
    1  A    between atoms: C_16  and  C_27
    2  A    between atoms: C_18  and  C_27
                            x       y       z     vdW  Elec       q    Type
                         _______ _______ _______ _____ _____    ______ ____

>  <TORSDO>
F 2

$$$$
=
 OpenBabel11062421093D

 27 30  0  0  1  0  0  0  0  0999 V2000
  188.7690  175.4360  146.6230 C   0  0  2  0  0  3  0  0  0  0  0  0
  187.5800  176.6280  143.8450 C   0  0  0  0  0  0  0  0  0  0  0  0
  188.8030  175.3330  142.0790 C   0  0  1  0  0  3  0  0  0  0  0  0
  187.4400  177.1700  145.0140 C   0  0  0  0  0  0  0  0  0  0  0  0
  191.2180  175.3800  143.6230 N   0  0  0  0  0  0  0  0  0  0  0  0
  193.3750  176.0920  144.4960 C   0  0  0  0  0  2  0  0  0  0  0  0
  188.1160  176.6620  147.2770 C   0  0  0  0  0  2  0  0  0  0  0  0
  188.9510  176.1960  143.3540 C   0  0  2  0  0  3  0  0  0  0  0  0
  187.8010  175.9410  141.1380 C   0  0  0  0  0  3  0  0  0  0  0  0
  186.6920  176.4160  141.5940 N   0  0  0  0  0  0  0  0  0  0  0  0
  192.3280  176.5030  146.7830 C   0  0  0  0  0  0  0  0  0  0  0  0
  188.9410  174.3070  147.6330 C   0  0  0  0  0  1  0  0  0  0  0  0
  190.0280  175.8390  145.8150 C   0  0  1  0  0  3  0  0  0  0  0  0
  193.4420  176.8330  145.8220 C   0  0  0  0  0  2  0  0  0  0  0  0
  192.1780  174.0060  141.9980 O   0  0  0  0  0  0  0  0  0  0  0  0
  187.4340  177.5390  146.2650 C   0  0  0  0  0  0  0  0  0  0  0  0
  186.3610  176.3630  143.0060 C   0  0  0  0  0  2  0  0  0  0  0  0
  190.1330  175.0810  141.3640 C   0  0  0  0  0  2  0  0  0  0  0  0
  192.2370  177.1660  147.8010 O   0  0  0  0  0  0  0  0  0  0  0  0
  191.3160  175.4120  146.5560 C   0  0  1  0  0  3  0  0  0  0  0  0
  191.8840  174.0340  146.2330 C   0  0  0  0  0  1  0  0  0  0  0  0
  191.2160  174.7410  142.3440 C   0  0  0  0  0  0  0  0  0  0  0  0
  189.9190  175.4270  144.3070 C   0  0  2  0  0  3  0  0  0  0  0  0
  192.1300  176.5110  143.7440 C   0  0  0  0  0  2  0  0  0  0  0  0
  186.6990  178.7610  146.7030 C   0  0  0  0  0  2  0  0  0  0  0  0
  184.2760  178.2910  146.5130 C   0  0  0  0  0  1  0  0  0  0  0  0
  185.4570  178.9730  145.8560 C   0  0  0  0  0  2  0  0  0  0  0  0
  1  7  1  0  0  0  0
  1 12  1  1  0  0  0
  2  4  2  0  0  0  0
  3  9  1  6  0  0  0
  3  8  1  0  0  0  0
  4 16  2  0  0  0  0
  5 24  1  0  0  0  0
  5 23  1  0  0  0  0
  6 14  1  0  0  0  0
  8  2  1  1  0  0  0
  8 23  1  0  0  0  0
  9 10  2  0  0  0  0
 10 17  1  0  0  0  0
 11 19  2  0  0  0  0
 13 20  1  0  0  0  0
 13  1  1  0  0  0  0
 14 11  1  0  0  0  0
 15 22  2  0  0  0  0
 16 25  1  0  0  0  0
 16  7  1  0  0  0  0
 17  2  1  0  0  0  0
 18  3  1  0  0  0  0
 18 22  1  0  0  0  0
 20 11  1  0  0  0  0
 21 20  1  0  0  0  0
 22  5  1  0  0  0  0
 23 13  1  0  0  0  0
 24  6  1  0  0  0  0
 27 26  1  0  0  0  0
 27 25  1  0  0  0  0
M  END
>  <MODEL>
4

>  <REMARK>
 VINA RESULT:      -6.9      2.399      5.655
  Name = 
  2 active torsions:
  status: ('A' for Active; 'I' for Inactive)
    1  A    between atoms: C_16  and  C_27
    2  A    between atoms: C_18  and  C_27
                            x       y       z     vdW  Elec       q    Type
                         _______ _______ _______ _____ _____    ______ ____

>  <TORSDO>
F 2

$$$$
=
 OpenBabel11062421093D

 27 30  0  0  1  0  0  0  0  0999 V2000
  191.2210  177.1410  143.8620 C   0  0  2  0  0  3  0  0  0  0  0  0
  191.7820  173.9580  143.5290 C   0  0  0  0  0  0  0  0  0  0  0  0
  190.8650  173.4350  141.2540 C   0  0  1  0  0  3  0  0  0  0  0  0
  191.8440  174.6180  144.6420 C   0  0  0  0  0  0  0  0  0  0  0  0
  188.6730  175.2400  141.6490 N   0  0  0  0  0  0  0  0  0  0  0  0
  186.4770  176.0900  142.2610 C   0  0  0  0  0  2  0  0  0  0  0  0
  191.5290  176.9070  145.3470 C   0  0  0  0  0  2  0  0  0  0  0  0
  190.5670  174.0840  142.6250 C   0  0  2  0  0  3  0  0  0  0  0  0
  191.5640  172.1170  141.4290 C   0  0  0  0  0  3  0  0  0  0  0  0
  192.5140  171.9990  142.2930 N   0  0  0  0  0  0  0  0  0  0  0  0
  187.5280  177.5370  144.0760 C   0  0  0  0  0  0  0  0  0  0  0  0
  191.4700  178.5940  143.4760 C   0  0  0  0  0  1  0  0  0  0  0  0
  189.8400  176.5510  143.4790 C   0  0  1  0  0  3  0  0  0  0  0  0
  186.2960  176.8250  143.5800 C   0  0  0  0  0  2  0  0  0  0  0  0
  188.0410  174.8140  139.4420 O   0  0  0  0  0  0  0  0  0  0  0  0
  191.8390  175.4640  145.6350 C   0  0  0  0  0  0  0  0  0  0  0  0
  192.9550  173.1220  143.1020 C   0  0  0  0  0  2  0  0  0  0  0  0
  189.6180  173.2750  140.3790 C   0  0  0  0  0  2  0  0  0  0  0  0
  187.4980  178.0220  145.1940 O   0  0  0  0  0  0  0  0  0  0  0  0
  188.7980  177.6770  143.2800 C   0  0  1  0  0  3  0  0  0  0  0  0
  188.6430  178.2430  141.8730 C   0  0  0  0  0  1  0  0  0  0  0  0
  188.7650  174.5070  140.4250 C   0  0  0  0  0  0  0  0  0  0  0  0
  189.9480  175.4870  142.3340 C   0  0  2  0  0  3  0  0  0  0  0  0
  187.4780  174.9700  142.4400 C   0  0  0  0  0  2  0  0  0  0  0  0
  192.2090  175.0360  147.0150 C   0  0  0  0  0  2  0  0  0  0  0  0
  189.7860  174.9340  147.5100 C   0  0  0  0  0  1  0  0  0  0  0  0
  191.1280  175.4280  148.0060 C   0  0  0  0  0  2  0  0  0  0  0  0
  1 12  1  1  0  0  0
  1  7  1  0  0  0  0
  2  4  2  0  0  0  0
  3 18  1  1  0  0  0
  3  9  1  0  0  0  0
  3  8  1  0  0  0  0
  4 16  2  0  0  0  0
  5 23  1  0  0  0  0
  5 24  1  0  0  0  0
  6 24  1  0  0  0  0
  6 14  1  0  0  0  0
  7 16  1  0  0  0  0
  8  2  1  1  0  0  0
  9 10  2  0  0  0  0
 10 17  1  0  0  0  0
 11 19  2  0  0  0  0
 13  1  1  0  0  0  0
 14 11  1  0  0  0  0
 15 22  2  0  0  0  0
 16 25  1  0  0  0  0
 17  2  1  0  0  0  0
 18 22  1  0  0  0  0
 20 13  1  0  0  0  0
 20 11  1  0  0  0  0
 21 20  1  0  0  0  0
 22  5  1  0  0  0  0
 23  8  1  0  0  0  0
 23 13  1  0  0  0  0
 25 27  1  0  0  0  0
 26 27  1  0  0  0  0
M  END
>  <MODEL>
5

>  <REMARK>
 VINA RESULT:      -6.9      2.976      6.064
  Name = 
  2 active torsions:
  status: ('A' for Active; 'I' for Inactive)
    1  A    between atoms: C_16  and  C_27
    2  A    between atoms: C_18  and  C_27
                            x       y       z     vdW  Elec       q    Type
                         _______ _______ _______ _____ _____    ______ ____

>  <TORSDO>
F 2

$$$$
=
 OpenBabel11062421093D

 27 30  0  0  1  0  0  0  0  0999 V2000
  190.4950  175.2100  143.5180 C   0  0  2  0  0  3  0  0  0  0  0  0
  188.5360  174.5210  141.0190 C   0  0  0  0  0  0  0  0  0  0  0  0
  187.4120  176.7110  140.5330 C   0  0  1  0  0  3  0  0  0  0  0  0
  189.1180  173.6480  141.7780 C   0  0  0  0  0  0  0  0  0  0  0  0
  187.2570  177.3270  143.3290 N   0  0  0  0  0  0  0  0  0  0  0  0
  186.4140  177.4790  145.6060 C   0  0  0  0  0  2  0  0  0  0  0  0
  190.6120  173.6880  143.6770 C   0  0  0  0  0  2  0  0  0  0  0  0
  187.7540  175.6730  141.6280 C   0  0  2  0  0  3  0  0  0  0  0  0
  186.9350  176.0290  139.2830 C   0  0  0  0  0  3  0  0  0  0  0  0
  187.5410  174.9750  138.8500 N   0  0  0  0  0  0  0  0  0  0  0  0
  188.2800  175.9430  146.4140 C   0  0  0  0  0  0  0  0  0  0  0  0
  191.7070  175.9140  144.1170 C   0  0  0  0  0  1  0  0  0  0  0  0
  189.1040  175.7150  143.9770 C   0  0  1  0  0  3  0  0  0  0  0  0
  186.8950  176.4870  146.6540 C   0  0  0  0  0  2  0  0  0  0  0  0
  186.4020  179.4150  142.7300 O   0  0  0  0  0  0  0  0  0  0  0  0
  189.7840  172.9530  142.6590 C   0  0  0  0  0  0  0  0  0  0  0  0
  188.7030  174.4290  139.5280 C   0  0  0  0  0  2  0  0  0  0  0  0
  186.4000  177.7630  140.9960 C   0  0  0  0  0  2  0  0  0  0  0  0
  188.6710  175.0380  147.1300 O   0  0  0  0  0  0  0  0  0  0  0  0
  189.2060  176.4430  145.3380 C   0  0  1  0  0  3  0  0  0  0  0  0
  189.4410  177.9490  145.3070 C   0  0  0  0  0  1  0  0  0  0  0  0
  186.7210  178.2490  142.3780 C   0  0  0  0  0  0  0  0  0  0  0  0
  188.3420  176.4690  142.8350 C   0  0  2  0  0  3  0  0  0  0  0  0
  186.2870  176.7800  144.2700 C   0  0  0  0  0  2  0  0  0  0  0  0
  189.7940  171.4630  142.6160 C   0  0  0  0  0  2  0  0  0  0  0  0
  192.0580  170.7160  141.9480 C   0  0  0  0  0  1  0  0  0  0  0  0
  190.6460  170.9660  141.4620 C   0  0  0  0  0  2  0  0  0  0  0  0
  1  7  1  0  0  0  0
  1 13  1  0  0  0  0
  1 12  1  1  0  0  0
  2  4  2  0  0  0  0
  3  9  1  6  0  0  0
  3 18  1  0  0  0  0
  3  8  1  0  0  0  0
  4 16  2  0  0  0  0
  5 24  1  0  0  0  0
  6 14  1  0  0  0  0
  8  2  1  6  0  0  0
  8 23  1  0  0  0  0
 10  9  2  0  0  0  0
 10 17  1  0  0  0  0
 11 14  1  0  0  0  0
 11 19  2  0  0  0  0
 13 20  1  0  0  0  0
 16  7  1  0  0  0  0
 17  2  1  0  0  0  0
 18 22  1  0  0  0  0
 20 11  1  0  0  0  0
 21 20  1  0  0  0  0
 22 15  2  0  0  0  0
 22  5  1  0  0  0  0
 23  5  1  0  0  0  0
 23 13  1  0  0  0  0
 24  6  1  0  0  0  0
 25 16  1  0  0  0  0
 27 26  1  0  0  0  0
 27 25  1  0  0  0  0
M  END
>  <MODEL>
6

>  <REMARK>
 VINA RESULT:      -6.4      1.925      2.625
  Name = 
  2 active torsions:
  status: ('A' for Active; 'I' for Inactive)
    1  A    between atoms: C_16  and  C_27
    2  A    between atoms: C_18  and  C_27
                            x       y       z     vdW  Elec       q    Type
                         _______ _______ _______ _____ _____    ______ ____

>  <TORSDO>
F 2

$$$$
=
 OpenBabel11062421093D

 27 30  0  0  1  0  0  0  0  0999 V2000
  189.9830  176.3550  145.2090 C   0  0  2  0  0  3  0  0  0  0  0  0
  189.2110  174.6780  142.5360 C   0  0  0  0  0  0  0  0  0  0  0  0
  190.1250  172.3880  142.9950 C   0  0  1  0  0  3  0  0  0  0  0  0
  189.1760  175.9680  142.6470 C   0  0  0  0  0  0  0  0  0  0  0  0
  192.4300  173.4960  144.2920 N   0  0  0  0  0  0  0  0  0  0  0  0
  194.6690  174.3830  144.6380 C   0  0  0  0  0  2  0  0  0  0  0  0
  189.6360  177.5950  144.3730 C   0  0  0  0  0  2  0  0  0  0  0  0
  190.4450  173.9000  142.9590 C   0  0  2  0  0  3  0  0  0  0  0  0
  189.3350  171.9820  141.7840 C   0  0  0  0  0  3  0  0  0  0  0  0
  188.3650  172.7230  141.3670 N   0  0  0  0  0  0  0  0  0  0  0  0
  193.6900  176.6640  145.2170 C   0  0  0  0  0  0  0  0  0  0  0  0
  189.8400  176.6460  146.6980 C   0  0  0  0  0  1  0  0  0  0  0  0
  191.3260  175.7320  144.7520 C   0  0  1  0  0  3  0  0  0  0  0  0
  194.8780  175.8870  144.7100 C   0  0  0  0  0  2  0  0  0  0  0  0
  193.0660  171.3140  144.8290 O   0  0  0  0  0  0  0  0  0  0  0  0
  189.2240  177.2300  142.9740 C   0  0  0  0  0  0  0  0  0  0  0  0
  187.9900  173.9470  142.0520 C   0  0  0  0  0  2  0  0  0  0  0  0
  191.3720  171.5120  143.1470 C   0  0  0  0  0  2  0  0  0  0  0  0
  193.7360  177.8800  145.1630 O   0  0  0  0  0  0  0  0  0  0  0  0
  192.4460  176.0280  145.7770 C   0  0  1  0  0  3  0  0  0  0  0  0
  192.6620  175.0060  146.8880 C   0  0  0  0  0  1  0  0  0  0  0  0
  192.3070  172.0770  144.1740 C   0  0  0  0  0  0  0  0  0  0  0  0
  191.1640  174.2400  144.3030 C   0  0  2  0  0  3  0  0  0  0  0  0
  193.5900  174.0710  143.6230 C   0  0  0  0  0  2  0  0  0  0  0  0
  188.8030  178.2910  142.0140 C   0  0  0  0  0  2  0  0  0  0  0  0
  186.4400  178.6660  142.6460 C   0  0  0  0  0  1  0  0  0  0  0  0
  187.3590  178.0890  141.5910 C   0  0  0  0  0  2  0  0  0  0  0  0
  1 12  1  1  0  0  0
  2  4  2  0  0  0  0
  3  9  1  6  0  0  0
  3 18  1  0  0  0  0
  4 16  2  0  0  0  0
  5 23  1  0  0  0  0
  6 14  1  0  0  0  0
  7  1  1  0  0  0  0
  8  2  1  1  0  0  0
  8  3  1  0  0  0  0
  8 23  1  0  0  0  0
 10  9  2  0  0  0  0
 10 17  1  0  0  0  0
 11 20  1  0  0  0  0
 13  1  1  0  0  0  0
 13 20  1  0  0  0  0
 14 11  1  0  0  0  0
 16  7  1  0  0  0  0
 17  2  1  0  0  0  0
 18 22  1  0  0  0  0
 19 11  2  0  0  0  0
 20 21  1  0  0  0  0
 22  5  1  0  0  0  0
 22 15  2  0  0  0  0
 23 13  1  0  0  0  0
 24  5  1  0  0  0  0
 24  6  1  0  0  0  0
 25 16  1  0  0  0  0
 27 25  1  0  0  0  0
 27 26  1  0  0  0  0
M  END
>  <MODEL>
7

>  <REMARK>
 VINA RESULT:      -6.4      3.340      6.115
  Name = 
  2 active torsions:
  status: ('A' for Active; 'I' for Inactive)
    1  A    between atoms: C_16  and  C_27
    2  A    between atoms: C_18  and  C_27
                            x       y       z     vdW  Elec       q    Type
                         _______ _______ _______ _____ _____    ______ ____

>  <TORSDO>
F 2

$$$$
=
 OpenBabel11062421093D

 27 30  0  0  1  0  0  0  0  0999 V2000
  190.7230  172.7480  144.0680 C   0  0  2  0  0  3  0  0  0  0  0  0
  193.8230  173.5710  143.5480 C   0  0  0  0  0  0  0  0  0  0  0  0
  194.4520  174.8320  145.6230 C   0  0  1  0  0  3  0  0  0  0  0  0
  193.0000  173.1390  142.6450 C   0  0  0  0  0  0  0  0  0  0  0  0
  191.8580  176.0470  145.7490 N   0  0  0  0  0  0  0  0  0  0  0  0
  190.0450  177.6360  145.4170 C   0  0  0  0  0  2  0  0  0  0  0  0
  190.6940  172.4230  142.5680 C   0  0  0  0  0  2  0  0  0  0  0  0
  193.4240  174.7070  144.4740 C   0  0  2  0  0  3  0  0  0  0  0  0
  195.8550  174.7180  145.0980 C   0  0  0  0  0  3  0  0  0  0  0  0
  196.1450  173.8220  144.2170 N   0  0  0  0  0  0  0  0  0  0  0  0
  188.7770  175.9190  144.0260 C   0  0  0  0  0  0  0  0  0  0  0  0
  189.6500  171.9650  144.8150 C   0  0  0  0  0  1  0  0  0  0  0  0
  190.7540  174.2790  144.3060 C   0  0  1  0  0  3  0  0  0  0  0  0
  189.0050  177.3750  144.3390 C   0  0  0  0  0  2  0  0  0  0  0  0
  192.5040  177.0040  147.7790 O   0  0  0  0  0  0  0  0  0  0  0  0
  192.0160  172.7040  141.9080 C   0  0  0  0  0  0  0  0  0  0  0  0
  195.1500  172.8870  143.7230 C   0  0  0  0  0  2  0  0  0  0  0  0
  194.2830  176.1120  146.4460 C   0  0  0  0  0  2  0  0  0  0  0  0
  188.0680  175.6420  143.0740 O   0  0  0  0  0  0  0  0  0  0  0  0
  189.3810  174.7840  144.8090 C   0  0  1  0  0  3  0  0  0  0  0  0
  189.1640  174.8270  146.3180 C   0  0  0  0  0  1  0  0  0  0  0  0
  192.8370  176.3790  146.7380 C   0  0  0  0  0  0  0  0  0  0  0  0
  192.0090  174.7240  145.1320 C   0  0  2  0  0  3  0  0  0  0  0  0
  191.4010  177.1670  144.9360 C   0  0  0  0  0  2  0  0  0  0  0  0
  192.2090  172.4120  140.4580 C   0  0  0  0  0  2  0  0  0  0  0  0
  190.6660  173.3360  138.7570 C   0  0  0  0  0  1  0  0  0  0  0  0
  190.8710  172.2260  139.7660 C   0  0  0  0  0  2  0  0  0  0  0  0
  1 13  1  0  0  0  0
  1 12  1  1  0  0  0
  2 17  1  0  0  0  0
  3  9  1  6  0  0  0
  3 18  1  0  0  0  0
  4  2  2  0  0  0  0
  5 22  1  0  0  0  0
  7  1  1  0  0  0  0
  8  2  1  1  0  0  0
  8 23  1  0  0  0  0
  8  3  1  0  0  0  0
 10  9  2  0  0  0  0
 11 14  1  0  0  0  0
 11 20  1  0  0  0  0
 13 20  1  0  0  0  0
 13 23  1  0  0  0  0
 14  6  1  0  0  0  0
 16  7  1  0  0  0  0
 16  4  2  0  0  0  0
 17 10  1  0  0  0  0
 18 22  1  0  0  0  0
 19 11  2  0  0  0  0
 20 21  1  0  0  0  0
 22 15  2  0  0  0  0
 23  5  1  0  0  0  0
 24  6  1  0  0  0  0
 24  5  1  0  0  0  0
 25 16  1  0  0  0  0
 26 27  1  0  0  0  0
 27 25  1  0  0  0  0
M  END
>  <MODEL>
8

>  <REMARK>
 VINA RESULT:      -6.3      3.895      6.421
  Name = 
  2 active torsions:
  status: ('A' for Active; 'I' for Inactive)
    1  A    between atoms: C_16  and  C_27
    2  A    between atoms: C_18  and  C_27
                            x       y       z     vdW  Elec       q    Type
                         _______ _______ _______ _____ _____    ______ ____

>  <TORSDO>
F 2

$$$$
=
 OpenBabel11062421093D

 27 30  0  0  1  0  0  0  0  0999 V2000
  194.2340  176.0040  145.2220 C   0  0  2  0  0  3  0  0  0  0  0  0
  194.6110  173.5680  143.1050 C   0  0  0  0  0  0  0  0  0  0  0  0
  192.7380  173.9140  141.4720 C   0  0  1  0  0  3  0  0  0  0  0  0
  195.1820  173.6480  144.2650 C   0  0  0  0  0  0  0  0  0  0  0  0
  190.9680  174.7300  143.5750 N   0  0  0  0  0  0  0  0  0  0  0  0
  189.3080  174.6290  145.3510 C   0  0  0  0  0  2  0  0  0  0  0  0
  195.2080  175.2120  146.1060 C   0  0  0  0  0  2  0  0  0  0  0  0
  193.1130  173.7770  142.9670 C   0  0  2  0  0  3  0  0  0  0  0  0
  193.4540  172.8820  140.6480 C   0  0  0  0  0  3  0  0  0  0  0  0
  194.7000  172.6310  140.8650 N   0  0  0  0  0  0  0  0  0  0  0  0
  191.0720  175.3160  147.0570 C   0  0  0  0  0  0  0  0  0  0  0  0
  194.2550  177.4850  145.5800 C   0  0  0  0  0  1  0  0  0  0  0  0
  192.8430  175.3230  145.1760 C   0  0  1  0  0  3  0  0  0  0  0  0
  189.7600  174.6200  146.8030 C   0  0  0  0  0  2  0  0  0  0  0  0
  189.3770  175.2000  141.9320 O   0  0  0  0  0  0  0  0  0  0  0  0
  195.6340  173.9250  145.4570 C   0  0  0  0  0  0  0  0  0  0  0  0
  195.4560  173.3400  141.8820 C   0  0  0  0  0  2  0  0  0  0  0  0
  191.2290  173.8560  141.2220 C   0  0  0  0  0  2  0  0  0  0  0  0
  191.5660  175.2210  148.1670 O   0  0  0  0  0  0  0  0  0  0  0  0
  191.8160  176.1150  146.0200 C   0  0  1  0  0  3  0  0  0  0  0  0
  191.0100  177.1940  145.3060 C   0  0  0  0  0  1  0  0  0  0  0  0
  190.4820  174.6760  142.2320 C   0  0  0  0  0  0  0  0  0  0  0  0
  192.4120  174.9550  143.7150 C   0  0  2  0  0  3  0  0  0  0  0  0
  190.2900  173.8420  144.5110 C   0  0  0  0  0  2  0  0  0  0  0  0
  196.6150  173.0300  146.1360 C   0  0  0  0  0  2  0  0  0  0  0  0
  197.1510  170.6430  145.7610 C   0  0  0  0  0  1  0  0  0  0  0  0
  197.1960  172.0290  145.1540 C   0  0  0  0  0  2  0  0  0  0  0  0
  1 12  1  1  0  0  0
  1  7  1  0  0  0  0
  2  4  2  0  0  0  0
  3  9  1  6  0  0  0
  3  8  1  0  0  0  0
  4 16  2  0  0  0  0
  5 23  1  0  0  0  0
  5 24  1  0  0  0  0
  6 14  1  0  0  0  0
  8  2  1  6  0  0  0
  8 23  1  0  0  0  0
  9 10  2  0  0  0  0
 10 17  1  0  0  0  0
 11 19  2  0  0  0  0
 13  1  1  0  0  0  0
 13 20  1  0  0  0  0
 14 11  1  0  0  0  0
 15 22  2  0  0  0  0
 16  7  1  0  0  0  0
 16 25  1  0  0  0  0
 17  2  1  0  0  0  0
 18  3  1  0  0  0  0
 18 22  1  0  0  0  0
 20 11  1  0  0  0  0
 21 20  1  0  0  0  0
 22  5  1  0  0  0  0
 23 13  1  0  0  0  0
 24  6  1  0  0  0  0
 27 26  1  0  0  0  0
 27 25  1  0  0  0  0
M  END
>  <MODEL>
9

>  <REMARK>
 VINA RESULT:      -6.3      4.797      7.087
  Name = 
  2 active torsions:
  status: ('A' for Active; 'I' for Inactive)
    1  A    between atoms: C_16  and  C_27
    2  A    between atoms: C_18  and  C_27
                            x       y       z     vdW  Elec       q    Type
                         _______ _______ _______ _____ _____    ______ ____

>  <TORSDO>
F 2

$$$$
