=
 OpenBabel11072409403D

 25 27  0  0  1  0  0  0  0  0999 V2000
  187.6970  178.1320  144.6940 C   0  0  0  0  0  2  0  0  0  0  0  0
  188.2670  174.5400  139.9640 O   0  0  0  0  0  0  0  0  0  0  0  0
  186.6440  176.5400  141.4560 N   0  0  0  0  0  0  0  0  0  0  0  0
  187.9340  176.4220  141.4010 C   0  0  1  0  0  3  0  0  0  0  0  0
  186.3910  177.2940  142.6310 C   0  0  0  0  0  0  0  0  0  0  0  0
  190.7640  176.2630  143.6720 C   0  0  0  0  0  1  0  0  0  0  0  0
  189.6210  174.8180  141.9740 C   0  0  2  0  0  3  0  0  0  0  0  0
  188.6630  177.0110  142.5490 C   0  0  2  0  0  3  0  0  0  0  0  0
  189.3730  173.4670  142.4500 N   0  0  0  0  0  1  0  0  0  0  0  0
  189.4210  175.8140  143.1330 C   0  0  2  0  0  3  0  0  0  0  0  0
  188.5820  175.2080  140.9850 C   0  0  0  0  0  0  0  0  0  0  0  0
  185.1680  177.4840  143.1110 C   0  0  0  0  0  1  0  0  0  0  0  0
  187.5760  177.4820  143.3910 N   0  0  0  0  0  0  0  0  0  0  0  0
  187.3540  177.1940  145.8560 C   0  0  1  0  0  3  0  0  0  0  0  0
  191.6120  177.6370  148.2040 F   0  0  0  0  0  0  0  0  0  0  0  0
  190.6560  176.8310  147.6850 C   0  0  0  0  0  0  0  0  0  0  0  0
  188.5540  176.5600  146.5030 C   0  0  0  0  0  0  0  0  0  0  0  0
  189.7910  174.6110  147.2600 C   0  0  0  0  0  3  0  0  0  0  0  0
  189.5450  177.3870  147.0440 C   0  0  0  0  0  3  0  0  0  0  0  0
  190.7790  175.4430  147.7930 C   0  0  0  0  0  3  0  0  0  0  0  0
  188.6800  175.1660  146.6190 C   0  0  0  0  0  3  0  0  0  0  0  0
  186.0780  177.1670  147.8590 O   0  0  0  0  0  0  0  0  0  0  0  0
  186.3400  177.7500  146.8170 C   0  0  0  0  0  0  0  0  0  0  0  0
  185.6240  179.0120  146.4740 C   0  0  0  0  0  2  0  0  0  0  0  0
  184.2630  178.7530  146.3120 O   0  0  0  0  0  1  0  0  0  0  0  0
  2 11  2  0  0  0  0
  3  5  2  0  0  0  0
  4 11  1  1  0  0  0
  4  3  1  0  0  0  0
  4  8  1  0  0  0  0
  5 12  1  0  0  0  0
  5 13  1  0  0  0  0
  7  9  1  1  0  0  0
  7 10  1  0  0  0  0
  8 10  1  0  0  0  0
  8 13  1  1  0  0  0
 10  6  1  6  0  0  0
 11  7  1  0  0  0  0
 13  1  1  0  0  0  0
 14  1  1  6  0  0  0
 14 17  1  0  0  0  0
 14 23  1  0  0  0  0
 16 20  1  0  0  0  0
 16 15  1  0  0  0  0
 17 21  2  0  0  0  0
 17 19  1  0  0  0  0
 18 20  2  0  0  0  0
 19 16  2  0  0  0  0
 21 18  1  0  0  0  0
 23 22  2  0  0  0  0
 24 23  1  0  0  0  0
 25 24  1  0  0  0  0
M  END
>  <MODEL>
1

>  <REMARK>
 VINA RESULT:      -6.6      0.000      0.000
  Name = 
  5 active torsions:
  status: ('A' for Active; 'I' for Inactive)
    1  A    between atoms: C_4  and  C_6
    2  A    between atoms: C_4  and  C_21
    3  A    between atoms: C_4  and  C_23
    4  A    between atoms: C_15  and  C_21
    5  A    between atoms: C_23  and  N_24
                            x       y       z     vdW  Elec       q    Type
                         _______ _______ _______ _____ _____    ______ ____

>  <TORSDO>
F 5

$$$$
=
 OpenBabel11072409403D

 25 27  0  0  1  0  0  0  0  0999 V2000
  189.0280  177.3620  144.6440 C   0  0  0  0  0  2  0  0  0  0  0  0
  192.9990  172.9510  145.2590 O   0  0  0  0  0  0  0  0  0  0  0  0
  190.3140  174.0620  145.9050 N   0  0  0  0  0  0  0  0  0  0  0  0
  191.0240  174.2310  144.8330 C   0  0  1  0  0  3  0  0  0  0  0  0
  189.3970  175.1450  145.9150 C   0  0  0  0  0  0  0  0  0  0  0  0
  192.2150  176.9520  142.7420 C   0  0  0  0  0  1  0  0  0  0  0  0
  193.1500  175.1480  144.2090 C   0  0  2  0  0  3  0  0  0  0  0  0
  190.7130  175.4600  144.0660 C   0  0  2  0  0  3  0  0  0  0  0  0
  194.1630  175.6320  145.1300 N   0  0  0  0  0  1  0  0  0  0  0  0
  192.0470  176.2130  144.0540 C   0  0  2  0  0  3  0  0  0  0  0  0
  192.4390  173.9820  144.7970 C   0  0  0  0  0  0  0  0  0  0  0  0
  188.6050  175.4030  146.9480 C   0  0  0  0  0  1  0  0  0  0  0  0
  189.6940  176.0860  144.8930 N   0  0  0  0  0  0  0  0  0  0  0  0
  187.8350  177.2300  143.6910 C   0  0  1  0  0  3  0  0  0  0  0  0
  184.0270  177.2350  146.7460 F   0  0  0  0  0  0  0  0  0  0  0  0
  184.7100  177.8450  145.7490 C   0  0  0  0  0  0  0  0  0  0  0  0
  186.5760  177.8760  144.1970 C   0  0  0  0  0  0  0  0  0  0  0  0
  184.9690  179.6980  144.2140 C   0  0  0  0  0  3  0  0  0  0  0  0
  185.8660  177.2530  145.2300 C   0  0  0  0  0  3  0  0  0  0  0  0
  184.2620  179.0670  145.2410 C   0  0  0  0  0  3  0  0  0  0  0  0
  186.1240  179.1070  143.6940 C   0  0  0  0  0  3  0  0  0  0  0  0
  189.0260  178.3330  141.9580 O   0  0  0  0  0  0  0  0  0  0  0  0
  188.1600  177.5230  142.2530 C   0  0  0  0  0  0  0  0  0  0  0  0
  187.3890  176.8390  141.1760 C   0  0  0  0  0  2  0  0  0  0  0  0
  186.7010  177.7840  140.4150 O   0  0  0  0  0  1  0  0  0  0  0  0
  1 13  1  0  0  0  0
  3  5  2  0  0  0  0
  4 11  1  1  0  0  0
  4  3  1  0  0  0  0
  5 12  1  0  0  0  0
  7 11  1  0  0  0  0
  7  9  1  1  0  0  0
  8  4  1  0  0  0  0
  8 13  1  1  0  0  0
 10  6  1  6  0  0  0
 10  8  1  0  0  0  0
 10  7  1  0  0  0  0
 11  2  2  0  0  0  0
 13  5  1  0  0  0  0
 14 17  1  0  0  0  0
 14  1  1  1  0  0  0
 16 15  1  0  0  0  0
 17 19  1  0  0  0  0
 18 20  2  0  0  0  0
 19 16  2  0  0  0  0
 20 16  1  0  0  0  0
 21 17  2  0  0  0  0
 21 18  1  0  0  0  0
 22 23  2  0  0  0  0
 23 14  1  0  0  0  0
 24 23  1  0  0  0  0
 25 24  1  0  0  0  0
M  END
>  <MODEL>
2

>  <REMARK>
 VINA RESULT:      -6.6      3.202      5.362
  Name = 
  5 active torsions:
  status: ('A' for Active; 'I' for Inactive)
    1  A    between atoms: C_4  and  C_6
    2  A    between atoms: C_4  and  C_21
    3  A    between atoms: C_4  and  C_23
    4  A    between atoms: C_15  and  C_21
    5  A    between atoms: C_23  and  N_24
                            x       y       z     vdW  Elec       q    Type
                         _______ _______ _______ _____ _____    ______ ____

>  <TORSDO>
F 5

$$$$
=
 OpenBabel11072409403D

 25 27  0  0  1  0  0  0  0  0999 V2000
  187.8810  177.7960  142.9470 C   0  0  0  0  0  2  0  0  0  0  0  0
  191.3910  173.3350  144.7840 O   0  0  0  0  0  0  0  0  0  0  0  0
  189.8690  174.6270  142.5770 N   0  0  0  0  0  2  0  0  0  0  0  0
  190.4430  175.1820  143.5970 C   0  0  1  0  0  3  0  0  0  0  0  0
  188.9150  175.5770  142.1270 C   0  0  0  0  0  0  0  0  0  0  0  0
  189.6470  177.5570  146.2280 C   0  0  0  0  0  1  0  0  0  0  0  0
  190.2890  175.1470  145.9900 C   0  0  2  0  0  3  0  0  0  0  0  0
  189.8970  176.5070  143.9760 C   0  0  2  0  0  3  0  0  0  0  0  0
  189.4480  174.2540  146.7680 N   0  0  0  0  0  1  0  0  0  0  0  0
  189.4310  176.2930  145.4200 C   0  0  2  0  0  3  0  0  0  0  0  0
  190.7960  174.4460  144.7800 C   0  0  0  0  0  0  0  0  0  0  0  0
  188.0170  175.3020  141.1900 C   0  0  0  0  0  2  0  0  0  0  0  0
  188.8080  176.6710  143.0280 N   0  0  0  0  0  0  0  0  0  0  0  0
  186.4640  177.4280  143.4000 C   0  0  1  0  0  3  0  0  0  0  0  0
  186.0580  176.1580  148.0960 F   0  0  0  0  0  0  0  0  0  0  0  0
  185.9930  177.1240  147.1500 C   0  0  0  0  0  0  0  0  0  0  0  0
  186.1640  177.7990  144.8250 C   0  0  0  0  0  0  0  0  0  0  0  0
  185.6280  179.4370  146.5380 C   0  0  0  0  0  3  0  0  0  0  0  0
  186.2320  176.8060  145.8090 C   0  0  0  0  0  3  0  0  0  0  0  0
  185.6920  178.4390  147.5140 C   0  0  0  0  0  3  0  0  0  0  0  0
  185.8660  179.1200  145.1970 C   0  0  0  0  0  3  0  0  0  0  0  0
  184.2090  177.7560  142.7310 O   0  0  0  0  0  0  0  0  0  0  0  0
  185.3890  177.7910  142.4140 C   0  0  0  0  0  0  0  0  0  0  0  0
  185.7710  178.1680  141.0230 C   0  0  0  0  0  2  0  0  0  0  0  0
  184.6280  178.4870  140.2890 O   0  0  0  0  0  1  0  0  0  0  0  0
  1 13  1  0  0  0  0
  4  3  1  1  0  0  0
  4  8  1  0  0  0  0
  4 11  1  0  0  0  0
  5  3  1  0  0  0  0
  5 13  1  0  0  0  0
  7  9  1  1  0  0  0
  8 13  1  6  0  0  0
  8 10  1  0  0  0  0
 10  7  1  0  0  0  0
 10  6  1  1  0  0  0
 11  2  2  0  0  0  0
 11  7  1  0  0  0  0
 12  5  2  0  0  0  0
 14  1  1  6  0  0  0
 14 17  1  0  0  0  0
 16 20  1  0  0  0  0
 16 15  1  0  0  0  0
 17 21  2  0  0  0  0
 17 19  1  0  0  0  0
 18 20  2  0  0  0  0
 19 16  2  0  0  0  0
 21 18  1  0  0  0  0
 23 22  2  0  0  0  0
 23 14  1  0  0  0  0
 24 23  1  0  0  0  0
 25 24  1  0  0  0  0
M  END
>  <MODEL>
3

>  <REMARK>
 VINA RESULT:      -6.6      2.535      4.348
  Name = 
  5 active torsions:
  status: ('A' for Active; 'I' for Inactive)
    1  A    between atoms: C_4  and  C_6
    2  A    between atoms: C_4  and  C_21
    3  A    between atoms: C_4  and  C_23
    4  A    between atoms: C_15  and  C_21
    5  A    between atoms: C_23  and  N_24
                            x       y       z     vdW  Elec       q    Type
                         _______ _______ _______ _____ _____    ______ ____

>  <TORSDO>
F 5

$$$$
=
 OpenBabel11072409403D

 25 27  0  0  1  0  0  0  0  0999 V2000
  188.9050  177.0780  145.0740 C   0  0  0  0  0  2  0  0  0  0  0  0
  193.9150  173.8380  145.1330 O   0  0  0  0  0  0  0  0  0  0  0  0
  191.0720  174.1380  145.9630 N   0  0  0  0  0  0  0  0  0  0  0  0
  191.6550  174.5820  144.8940 C   0  0  1  0  0  3  0  0  0  0  0  0
  189.9070  174.9340  146.1070 C   0  0  0  0  0  0  0  0  0  0  0  0
  191.9810  177.6950  143.0500 C   0  0  0  0  0  1  0  0  0  0  0  0
  193.4310  176.0800  144.3020 C   0  0  2  0  0  3  0  0  0  0  0  0
  190.9930  175.7480  144.2620 C   0  0  2  0  0  3  0  0  0  0  0  0
  194.3320  176.7310  145.2380 N   0  0  0  0  0  1  0  0  0  0  0  0
  192.0820  176.8250  144.2870 C   0  0  2  0  0  3  0  0  0  0  0  0
  193.0820  174.7200  144.7930 C   0  0  0  0  0  0  0  0  0  0  0  0
  189.1310  174.8810  147.1830 C   0  0  0  0  0  1  0  0  0  0  0  0
  189.8930  176.0070  145.1760 N   0  0  0  0  0  0  0  0  0  0  0  0
  187.5650  176.5950  144.5060 C   0  0  1  0  0  3  0  0  0  0  0  0
  184.5920  180.4550  144.2140 F   0  0  0  0  0  0  0  0  0  0  0  0
  184.9140  179.2870  144.8180 C   0  0  0  0  0  0  0  0  0  0  0  0
  186.3760  177.3600  145.0140 C   0  0  0  0  0  0  0  0  0  0  0  0
  184.4540  177.5910  146.4820 C   0  0  0  0  0  3  0  0  0  0  0  0
  186.0350  178.5670  144.3940 C   0  0  0  0  0  3  0  0  0  0  0  0
  184.1230  178.7980  145.8620 C   0  0  0  0  0  3  0  0  0  0  0  0
  185.5750  176.8710  146.0590 C   0  0  0  0  0  3  0  0  0  0  0  0
  186.9250  175.4500  142.5270 O   0  0  0  0  0  0  0  0  0  0  0  0
  187.5760  176.3580  143.0220 C   0  0  0  0  0  0  0  0  0  0  0  0
  188.4190  177.2250  142.1500 C   0  0  0  0  0  2  0  0  0  0  0  0
  187.6210  177.8470  141.1890 O   0  0  0  0  0  1  0  0  0  0  0  0
  1 13  1  0  0  0  0
  3  5  2  0  0  0  0
  4 11  1  1  0  0  0
  4  3  1  0  0  0  0
  5 12  1  0  0  0  0
  7 11  1  0  0  0  0
  7  9  1  1  0  0  0
  8 10  1  0  0  0  0
  8  4  1  0  0  0  0
  8 13  1  1  0  0  0
 10  6  1  6  0  0  0
 10  7  1  0  0  0  0
 11  2  2  0  0  0  0
 13  5  1  0  0  0  0
 14 17  1  0  0  0  0
 14  1  1  6  0  0  0
 15 16  1  0  0  0  0
 16 20  1  0  0  0  0
 17 21  2  0  0  0  0
 19 16  2  0  0  0  0
 19 17  1  0  0  0  0
 20 18  2  0  0  0  0
 21 18  1  0  0  0  0
 22 23  2  0  0  0  0
 23 14  1  0  0  0  0
 24 23  1  0  0  0  0
 25 24  1  0  0  0  0
M  END
>  <MODEL>
4

>  <REMARK>
 VINA RESULT:      -6.6      3.330      5.362
  Name = 
  5 active torsions:
  status: ('A' for Active; 'I' for Inactive)
    1  A    between atoms: C_4  and  C_6
    2  A    between atoms: C_4  and  C_21
    3  A    between atoms: C_4  and  C_23
    4  A    between atoms: C_15  and  C_21
    5  A    between atoms: C_23  and  N_24
                            x       y       z     vdW  Elec       q    Type
                         _______ _______ _______ _____ _____    ______ ____

>  <TORSDO>
F 5

$$$$
=
 OpenBabel11072409403D

 25 27  0  0  1  0  0  0  0  0999 V2000
  189.4410  177.0770  145.4050 C   0  0  0  0  0  2  0  0  0  0  0  0
  184.1880  177.9040  142.6990 O   0  0  0  0  0  0  0  0  0  0  0  0
  187.1300  177.5170  142.4720 N   0  0  0  0  0  0  0  0  0  0  0  0
  186.3220  177.0680  143.3810 C   0  0  1  0  0  3  0  0  0  0  0  0
  188.4180  177.4700  143.0670 C   0  0  0  0  0  0  0  0  0  0  0  0
  186.0690  176.9580  147.0030 C   0  0  0  0  0  1  0  0  0  0  0  0
  184.8340  177.9310  145.0520 C   0  0  2  0  0  3  0  0  0  0  0  0
  186.9610  176.7480  144.6800 C   0  0  2  0  0  3  0  0  0  0  0  0
  184.4920  179.3310  145.2350 N   0  0  0  0  0  1  0  0  0  0  0  0
  186.2210  177.6570  145.6670 C   0  0  2  0  0  3  0  0  0  0  0  0
  185.0210  177.6360  143.6060 C   0  0  0  0  0  0  0  0  0  0  0  0
  189.4910  178.0020  142.4950 C   0  0  0  0  0  1  0  0  0  0  0  0
  188.3410  177.1390  144.4460 N   0  0  0  0  0  0  0  0  0  0  0  0
  190.3070  175.8240  145.2310 C   0  0  1  0  0  3  0  0  0  0  0  0
  194.7680  176.3790  143.3270 F   0  0  0  0  0  0  0  0  0  0  0  0
  193.9730  176.3560  144.4230 C   0  0  0  0  0  0  0  0  0  0  0  0
  191.7770  176.0680  145.4170 C   0  0  0  0  0  0  0  0  0  0  0  0
  193.6970  176.5750  146.8170 C   0  0  0  0  0  3  0  0  0  0  0  0
  192.6060  176.0960  144.2890 C   0  0  0  0  0  3  0  0  0  0  0  0
  194.5180  176.5960  145.6870 C   0  0  0  0  0  3  0  0  0  0  0  0
  192.3300  176.3150  146.6840 C   0  0  0  0  0  3  0  0  0  0  0  0
  189.2860  174.6910  147.0510 O   0  0  0  0  0  0  0  0  0  0  0  0
  189.7750  174.6060  145.9350 C   0  0  0  0  0  0  0  0  0  0  0  0
  189.8800  173.2750  145.2710 C   0  0  0  0  0  2  0  0  0  0  0  0
  189.8020  173.4300  143.8870 O   0  0  0  0  0  1  0  0  0  0  0  0
  2 11  2  0  0  0  0
  3  5  2  0  0  0  0
  4  3  1  1  0  0  0
  4 11  1  0  0  0  0
  4  8  1  0  0  0  0
  5 13  1  0  0  0  0
  7  9  1  6  0  0  0
  7 10  1  0  0  0  0
  8 13  1  6  0  0  0
  8 10  1  0  0  0  0
 10  6  1  1  0  0  0
 11  7  1  0  0  0  0
 12  5  1  0  0  0  0
 13  1  1  0  0  0  0
 14  1  1  1  0  0  0
 14 17  1  0  0  0  0
 14 23  1  0  0  0  0
 15 16  1  0  0  0  0
 16 20  1  0  0  0  0
 17 21  2  0  0  0  0
 19 16  2  0  0  0  0
 19 17  1  0  0  0  0
 20 18  2  0  0  0  0
 21 18  1  0  0  0  0
 23 22  2  0  0  0  0
 24 23  1  0  0  0  0
 25 24  1  0  0  0  0
M  END
>  <MODEL>
5

>  <REMARK>
 VINA RESULT:      -6.5      2.675      4.811
  Name = 
  5 active torsions:
  status: ('A' for Active; 'I' for Inactive)
    1  A    between atoms: C_4  and  C_6
    2  A    between atoms: C_4  and  C_21
    3  A    between atoms: C_4  and  C_23
    4  A    between atoms: C_15  and  C_21
    5  A    between atoms: C_23  and  N_24
                            x       y       z     vdW  Elec       q    Type
                         _______ _______ _______ _____ _____    ______ ____

>  <TORSDO>
F 5

$$$$
=
 OpenBabel11072409403D

 25 27  0  0  1  0  0  0  0  0999 V2000
  190.3500  177.5310  145.0270 C   0  0  0  0  0  2  0  0  0  0  0  0
  195.0050  173.8830  145.8140 O   0  0  0  0  0  0  0  0  0  0  0  0
  192.5300  175.1180  146.9120 N   0  0  0  0  0  0  0  0  0  0  0  0
  192.8090  174.8210  145.6820 C   0  0  1  0  0  3  0  0  0  0  0  0
  191.4940  176.0840  146.8330 C   0  0  0  0  0  0  0  0  0  0  0  0
  192.7580  176.3960  142.4090 C   0  0  0  0  0  1  0  0  0  0  0  0
  194.4200  175.4150  144.0080 C   0  0  2  0  0  3  0  0  0  0  0  0
  192.0550  175.5950  144.6670 C   0  0  2  0  0  3  0  0  0  0  0  0
  195.5790  176.2650  144.2170 N   0  0  0  0  0  1  0  0  0  0  0  0
  193.1600  176.2920  143.8670 C   0  0  2  0  0  3  0  0  0  0  0  0
  194.1550  174.6040  145.2260 C   0  0  0  0  0  0  0  0  0  0  0  0
  191.0510  176.7480  147.8940 C   0  0  0  0  0  1  0  0  0  0  0  0
  191.2710  176.4980  145.4920 N   0  0  0  0  0  0  0  0  0  0  0  0
  189.0990  176.9490  144.3590 C   0  0  1  0  0  3  0  0  0  0  0  0
  186.0730  176.4820  148.1610 F   0  0  0  0  0  0  0  0  0  0  0  0
  186.3520  177.0610  146.9690 C   0  0  0  0  0  0  0  0  0  0  0  0
  187.8150  177.3120  145.0490 C   0  0  0  0  0  0  0  0  0  0  0  0
  185.7610  178.6030  145.1990 C   0  0  0  0  0  3  0  0  0  0  0  0
  187.5210  176.7200  146.2830 C   0  0  0  0  0  3  0  0  0  0  0  0
  185.4720  178.0030  146.4280 C   0  0  0  0  0  3  0  0  0  0  0  0
  186.9300  178.2610  144.5120 C   0  0  0  0  0  3  0  0  0  0  0  0
  189.5430  178.0900  142.3230 O   0  0  0  0  0  0  0  0  0  0  0  0
  189.0740  177.0990  142.8630 C   0  0  0  0  0  0  0  0  0  0  0  0
  188.4390  176.0350  142.0340 C   0  0  0  0  0  2  0  0  0  0  0  0
  187.5590  176.6120  141.1180 O   0  0  0  0  0  1  0  0  0  0  0  0
  1 13  1  0  0  0  0
  4 11  1  6  0  0  0
  4  3  1  0  0  0  0
  5  3  2  0  0  0  0
  5 12  1  0  0  0  0
  7  9  1  1  0  0  0
  7 11  1  0  0  0  0
  8 13  1  1  0  0  0
  8  4  1  0  0  0  0
 10  6  1  6  0  0  0
 10  7  1  0  0  0  0
 10  8  1  0  0  0  0
 11  2  2  0  0  0  0
 13  5  1  0  0  0  0
 14  1  1  1  0  0  0
 14 17  1  0  0  0  0
 16 15  1  0  0  0  0
 17 19  1  0  0  0  0
 18 20  2  0  0  0  0
 19 16  2  0  0  0  0
 20 16  1  0  0  0  0
 21 17  2  0  0  0  0
 21 18  1  0  0  0  0
 22 23  2  0  0  0  0
 23 14  1  0  0  0  0
 24 23  1  0  0  0  0
 25 24  1  0  0  0  0
M  END
>  <MODEL>
6

>  <REMARK>
 VINA RESULT:      -6.4      3.511      5.609
  Name = 
  5 active torsions:
  status: ('A' for Active; 'I' for Inactive)
    1  A    between atoms: C_4  and  C_6
    2  A    between atoms: C_4  and  C_21
    3  A    between atoms: C_4  and  C_23
    4  A    between atoms: C_15  and  C_21
    5  A    between atoms: C_23  and  N_24
                            x       y       z     vdW  Elec       q    Type
                         _______ _______ _______ _____ _____    ______ ____

>  <TORSDO>
F 5

$$$$
=
 OpenBabel11072409403D

 25 27  0  0  1  0  0  0  0  0999 V2000
  186.9250  176.8400  144.3140 C   0  0  0  0  0  2  0  0  0  0  0  0
  192.8570  176.2520  144.5780 O   0  0  0  0  0  0  0  0  0  0  0  0
  190.3660  176.1850  142.9500 N   0  0  0  0  0  2  0  0  0  0  0  0
  190.6290  176.9000  143.9990 C   0  0  1  0  0  3  0  0  0  0  0  0
  188.9500  176.1650  142.8620 C   0  0  0  0  0  0  0  0  0  0  0  0
  189.1230  177.7110  147.2030 C   0  0  0  0  0  1  0  0  0  0  0  0
  191.1700  176.5720  146.3110 C   0  0  2  0  0  3  0  0  0  0  0  0
  189.4390  177.3650  144.7510 C   0  0  2  0  0  3  0  0  0  0  0  0
  191.4290  175.2900  146.9430 N   0  0  0  0  0  1  0  0  0  0  0  0
  189.6500  176.7630  146.1440 C   0  0  2  0  0  3  0  0  0  0  0  0
  191.6840  176.5670  144.9160 C   0  0  0  0  0  0  0  0  0  0  0  0
  188.2970  175.3950  142.0000 C   0  0  0  0  0  2  0  0  0  0  0  0
  188.3510  176.7530  144.0080 N   0  0  0  0  0  0  0  0  0  0  0  0
  186.3300  178.2110  143.9740 C   0  0  1  0  0  3  0  0  0  0  0  0
  181.8820  178.3300  141.9660 F   0  0  0  0  0  0  0  0  0  0  0  0
  183.2250  178.2910  141.8000 C   0  0  0  0  0  0  0  0  0  0  0  0
  185.4560  178.2100  142.7520 C   0  0  0  0  0  0  0  0  0  0  0  0
  185.1560  178.2530  140.3410 C   0  0  0  0  0  3  0  0  0  0  0  0
  184.0670  178.2540  142.9150 C   0  0  0  0  0  3  0  0  0  0  0  0
  183.7700  178.2910  140.5130 C   0  0  0  0  0  3  0  0  0  0  0  0
  185.9980  178.2160  141.4560 C   0  0  0  0  0  3  0  0  0  0  0  0
  185.5660  180.1500  145.1110 O   0  0  0  0  0  0  0  0  0  0  0  0
  185.7610  178.9450  145.1560 C   0  0  0  0  0  0  0  0  0  0  0  0
  185.4630  178.1930  146.4080 C   0  0  0  0  0  2  0  0  0  0  0  0
  184.0940  177.9330  146.4880 O   0  0  0  0  0  1  0  0  0  0  0  0
  2 11  2  0  0  0  0
  4  3  1  1  0  0  0
  4  8  1  0  0  0  0
  4 11  1  0  0  0  0
  5  3  1  0  0  0  0
  5 13  1  0  0  0  0
  7  9  1  6  0  0  0
  8 13  1  6  0  0  0
  8 10  1  0  0  0  0
 10  7  1  0  0  0  0
 10  6  1  1  0  0  0
 11  7  1  0  0  0  0
 12  5  2  0  0  0  0
 13  1  1  0  0  0  0
 14  1  1  1  0  0  0
 14 23  1  0  0  0  0
 16 15  1  0  0  0  0
 16 19  1  0  0  0  0
 17 19  2  0  0  0  0
 17 14  1  0  0  0  0
 18 20  1  0  0  0  0
 18 21  2  0  0  0  0
 20 16  2  0  0  0  0
 21 17  1  0  0  0  0
 22 23  2  0  0  0  0
 23 24  1  0  0  0  0
 24 25  1  0  0  0  0
M  END
>  <MODEL>
7

>  <REMARK>
 VINA RESULT:      -6.4      3.289      5.583
  Name = 
  5 active torsions:
  status: ('A' for Active; 'I' for Inactive)
    1  A    between atoms: C_4  and  C_6
    2  A    between atoms: C_4  and  C_21
    3  A    between atoms: C_4  and  C_23
    4  A    between atoms: C_15  and  C_21
    5  A    between atoms: C_23  and  N_24
                            x       y       z     vdW  Elec       q    Type
                         _______ _______ _______ _____ _____    ______ ____

>  <TORSDO>
F 5

$$$$
=
 OpenBabel11072409403D

 25 27  0  0  1  0  0  0  0  0999 V2000
  188.9380  177.1410  144.6660 C   0  0  0  0  0  2  0  0  0  0  0  0
  192.6730  172.4890  144.7170 O   0  0  0  0  0  0  0  0  0  0  0  0
  191.2470  174.6200  146.2280 N   0  0  0  0  0  0  0  0  0  0  0  0
  190.8760  174.0050  145.1490 C   0  0  1  0  0  3  0  0  0  0  0  0
  190.4890  175.8190  146.2510 C   0  0  0  0  0  0  0  0  0  0  0  0
  189.6330  174.8110  141.8330 C   0  0  0  0  0  1  0  0  0  0  0  0
  191.6260  173.7200  142.8900 C   0  0  2  0  0  3  0  0  0  0  0  0
  189.9000  174.7460  144.3150 C   0  0  2  0  0  3  0  0  0  0  0  0
  192.8880  174.1990  142.3540 N   0  0  0  0  0  1  0  0  0  0  0  0
  190.6270  174.8910  142.9740 C   0  0  2  0  0  3  0  0  0  0  0  0
  191.8000  173.2980  144.3060 C   0  0  0  0  0  0  0  0  0  0  0  0
  190.7090  176.7900  147.1280 C   0  0  0  0  0  1  0  0  0  0  0  0
  189.7610  175.9950  145.0430 N   0  0  0  0  0  0  0  0  0  0  0  0
  187.4510  176.7900  144.5550 C   0  0  1  0  0  3  0  0  0  0  0  0
  187.0670  179.2340  148.7640 F   0  0  0  0  0  0  0  0  0  0  0  0
  186.4550  178.6470  147.7080 C   0  0  0  0  0  0  0  0  0  0  0  0
  186.5960  177.4140  145.6220 C   0  0  0  0  0  0  0  0  0  0  0  0
  184.4320  178.0620  146.5160 C   0  0  0  0  0  3  0  0  0  0  0  0
  187.2200  178.0250  146.7160 C   0  0  0  0  0  3  0  0  0  0  0  0
  185.0620  178.6660  147.6080 C   0  0  0  0  0  3  0  0  0  0  0  0
  185.1950  177.4400  145.5240 C   0  0  0  0  0  3  0  0  0  0  0  0
  186.3180  175.9490  142.6450 O   0  0  0  0  0  0  0  0  0  0  0  0
  186.8960  176.8930  143.1620 C   0  0  0  0  0  0  0  0  0  0  0  0
  187.0850  178.1570  142.3930 C   0  0  0  0  0  2  0  0  0  0  0  0
  188.0670  177.9740  141.4190 O   0  0  0  0  0  1  0  0  0  0  0  0
  1 13  1  0  0  0  0
  3  5  2  0  0  0  0
  4 11  1  6  0  0  0
  4  3  1  0  0  0  0
  5 12  1  0  0  0  0
  7  9  1  1  0  0  0
  7 10  1  0  0  0  0
  7 11  1  0  0  0  0
  8 13  1  1  0  0  0
  8  4  1  0  0  0  0
 10  6  1  6  0  0  0
 10  8  1  0  0  0  0
 11  2  2  0  0  0  0
 13  5  1  0  0  0  0
 14  1  1  6  0  0  0
 14 17  1  0  0  0  0
 16 15  1  0  0  0  0
 17 19  1  0  0  0  0
 18 20  2  0  0  0  0
 19 16  2  0  0  0  0
 20 16  1  0  0  0  0
 21 17  2  0  0  0  0
 21 18  1  0  0  0  0
 22 23  2  0  0  0  0
 23 14  1  0  0  0  0
 24 23  1  0  0  0  0
 25 24  1  0  0  0  0
M  END
>  <MODEL>
8

>  <REMARK>
 VINA RESULT:      -6.3      2.721      4.643
  Name = 
  5 active torsions:
  status: ('A' for Active; 'I' for Inactive)
    1  A    between atoms: C_4  and  C_6
    2  A    between atoms: C_4  and  C_21
    3  A    between atoms: C_4  and  C_23
    4  A    between atoms: C_15  and  C_21
    5  A    between atoms: C_23  and  N_24
                            x       y       z     vdW  Elec       q    Type
                         _______ _______ _______ _____ _____    ______ ____

>  <TORSDO>
F 5

$$$$
=
 OpenBabel11072409403D

 25 27  0  0  1  0  0  0  0  0999 V2000
  188.5970  175.4740  144.2850 C   0  0  0  0  0  2  0  0  0  0  0  0
  194.5010  174.7550  143.8080 O   0  0  0  0  0  0  0  0  0  0  0  0
  191.8010  173.5230  144.0380 N   0  0  0  0  0  0  0  0  0  0  0  0
  192.1340  174.6490  143.4880 C   0  0  1  0  0  3  0  0  0  0  0  0
  190.4120  173.6370  144.3030 C   0  0  0  0  0  0  0  0  0  0  0  0
  191.1140  178.1350  143.5580 C   0  0  0  0  0  1  0  0  0  0  0  0
  193.1190  176.7410  144.1210 C   0  0  2  0  0  3  0  0  0  0  0  0
  191.0390  175.6440  143.3940 C   0  0  2  0  0  3  0  0  0  0  0  0
  193.6790  177.0490  145.4260 N   0  0  0  0  0  1  0  0  0  0  0  0
  191.5830  176.8370  144.1870 C   0  0  2  0  0  3  0  0  0  0  0  0
  193.3730  175.3150  143.7800 C   0  0  0  0  0  0  0  0  0  0  0  0
  189.7410  172.7380  145.0120 C   0  0  0  0  0  1  0  0  0  0  0  0
  189.9420  174.9540  144.0520 N   0  0  0  0  0  0  0  0  0  0  0  0
  188.5410  176.4640  145.4540 C   0  0  1  0  0  3  0  0  0  0  0  0
  185.5670  180.0360  143.9610 F   0  0  0  0  0  0  0  0  0  0  0  0
  185.7840  178.9780  144.7780 C   0  0  0  0  0  0  0  0  0  0  0  0
  187.2360  177.2000  145.5670 C   0  0  0  0  0  0  0  0  0  0  0  0
  185.0150  177.4760  146.5130 C   0  0  0  0  0  3  0  0  0  0  0  0
  187.0020  178.2930  144.7240 C   0  0  0  0  0  3  0  0  0  0  0  0
  184.7910  178.5690  145.6720 C   0  0  0  0  0  3  0  0  0  0  0  0
  186.2320  176.7910  146.4600 C   0  0  0  0  0  3  0  0  0  0  0  0
  188.5670  174.9320  147.2680 O   0  0  0  0  0  0  0  0  0  0  0  0
  189.0710  175.9170  146.7500 C   0  0  0  0  0  0  0  0  0  0  0  0
  190.2050  176.6100  147.4260 C   0  0  0  0  0  2  0  0  0  0  0  0
  191.2730  175.7250  147.5820 O   0  0  0  0  0  1  0  0  0  0  0  0
  3  5  2  0  0  0  0
  4 11  1  1  0  0  0
  4  3  1  0  0  0  0
  5 12  1  0  0  0  0
  7 10  1  0  0  0  0
  7  9  1  1  0  0  0
  8  4  1  0  0  0  0
  8 13  1  1  0  0  0
  8 10  1  0  0  0  0
 10  6  1  6  0  0  0
 11  2  2  0  0  0  0
 11  7  1  0  0  0  0
 13  1  1  0  0  0  0
 13  5  1  0  0  0  0
 14  1  1  6  0  0  0
 14 17  1  0  0  0  0
 14 23  1  0  0  0  0
 15 16  1  0  0  0  0
 16 20  1  0  0  0  0
 17 21  2  0  0  0  0
 19 16  2  0  0  0  0
 19 17  1  0  0  0  0
 20 18  2  0  0  0  0
 21 18  1  0  0  0  0
 23 22  2  0  0  0  0
 23 24  1  0  0  0  0
 24 25  1  0  0  0  0
M  END
>  <MODEL>
9

>  <REMARK>
 VINA RESULT:      -6.2      3.225      5.085
  Name = 
  5 active torsions:
  status: ('A' for Active; 'I' for Inactive)
    1  A    between atoms: C_4  and  C_6
    2  A    between atoms: C_4  and  C_21
    3  A    between atoms: C_4  and  C_23
    4  A    between atoms: C_15  and  C_21
    5  A    between atoms: C_23  and  N_24
                            x       y       z     vdW  Elec       q    Type
                         _______ _______ _______ _____ _____    ______ ____

>  <TORSDO>
F 5

$$$$
