=
 OpenBabel11062421093D

 27 29  0  0  1  0  0  0  0  0999 V2000
  186.1060  178.1180  141.2530 N   0  0  0  0  0  0  0  0  0  0  0  0
  186.9960  178.1930  142.1950 C   0  0  0  0  0  0  0  0  0  0  0  0
  186.5840  178.4260  143.5920 C   0  0  0  0  0  3  0  0  0  0  0  0
  184.1960  178.4530  142.9100 C   0  0  0  0  0  2  0  0  0  0  0  0
  185.2970  178.5500  143.9370 C   0  0  0  0  0  0  0  0  0  0  0  0
  184.7040  178.2470  141.5120 C   0  0  0  0  0  0  0  0  0  0  0  0
  183.8860  178.1830  140.5590 O   0  0  0  0  0  0  0  0  0  0  0  0
  188.3780  178.0520  141.8630 N   0  0  0  0  0  2  0  0  0  0  0  0
  184.9330  178.7740  145.3460 C   0  0  0  0  0  0  0  0  0  0  0  0
  183.7240  178.7260  145.7070 O   0  0  0  0  0  0  0  0  0  0  0  0
  185.9360  179.0520  146.2810 O   0  0  0  0  0  0  0  0  0  0  0  0
  186.2130  178.1940  147.3800 C   0  0  0  0  0  2  0  0  0  0  0  0
  186.4620  176.7780  146.8900 C   0  0  0  0  0  2  0  0  0  0  0  0
  187.9260  176.5240  146.8000 C   0  0  0  0  0  0  0  0  0  0  0  0
  188.7120  177.4660  146.5140 O   0  0  0  0  0  0  0  0  0  0  0  0
  188.4310  175.2570  147.0660 O   0  0  0  0  0  1  0  0  0  0  0  0
  189.3870  178.1040  142.8350 N   0  0  0  0  0  2  0  0  0  0  0  0
  190.2090  177.0430  142.6170 O   0  0  0  0  0  0  0  0  0  0  0  0
  192.7700  175.9440  144.6310 C   0  0  2  0  0  3  0  0  0  0  0  0
  192.1180  177.0090  143.9740 O   0  0  0  0  0  0  0  0  0  0  0  0
  190.7410  176.6710  143.8660 C   0  0  2  0  0  3  0  0  0  0  0  0
  192.0750  173.7190  145.1370 O   0  0  0  0  0  0  0  0  0  0  0  0
  190.5020  175.2020  144.1800 C   0  0  0  0  0  2  0  0  0  0  0  0
  191.8070  174.8300  144.7120 C   0  0  0  0  0  0  0  0  0  0  0  0
  194.5120  175.7070  146.3780 C   0  0  0  0  0  2  0  0  0  0  0  0
  193.2030  176.3810  146.0220 C   0  0  0  0  0  3  0  0  0  0  0  0
  194.5060  177.1500  145.9250 C   0  0  0  0  0  2  0  0  0  0  0  0
  1  6  1  0  0  0  0
  1  2  2  0  0  0  0
  2  3  1  0  0  0  0
  3  5  2  0  0  0  0
  4  5  1  0  0  0  0
  5  9  1  0  0  0  0
  6  4  1  0  0  0  0
  7  6  2  0  0  0  0
  8  2  1  0  0  0  0
  8 17  1  0  0  0  0
  9 10  2  0  0  0  0
  9 11  1  0  0  0  0
 11 12  1  0  0  0  0
 13 12  1  0  0  0  0
 14 13  1  0  0  0  0
 14 16  1  0  0  0  0
 15 14  2  0  0  0  0
 18 17  1  0  0  0  0
 19 24  1  0  0  0  0
 19 26  1  1  0  0  0
 20 19  1  0  0  0  0
 21 18  1  6  0  0  0
 21 20  1  0  0  0  0
 21 23  1  0  0  0  0
 23 24  1  0  0  0  0
 24 22  2  0  0  0  0
 26 25  1  0  0  0  0
 27 26  1  0  0  0  0
 27 25  1  0  0  0  0
M  END
>  <MODEL>
1

>  <REMARK>
 VINA RESULT:      -6.8      0.000      0.000
  Name = 
  9 active torsions:
  status: ('A' for Active; 'I' for Inactive)
    1  A    between atoms: C_1  and  C_12
    2  A    between atoms: C_1  and  C_18
    3  A    between atoms: C_4  and  C_22
    4  A    between atoms: N_8  and  O_16
    5  A    between atoms: N_8  and  N_25
    6  A    between atoms: C_10  and  C_13
    7  A    between atoms: C_10  and  O_27
    8  A    between atoms: C_11  and  O_16
    9  A    between atoms: C_12  and  O_27
                            x       y       z     vdW  Elec       q    Type
                         _______ _______ _______ _____ _____    ______ ____

>  <TORSDO>
F 9

$$$$
=
 OpenBabel11062421093D

 27 29  0  0  1  0  0  0  0  0999 V2000
  182.7880  178.6480  142.5310 N   0  0  0  0  0  0  0  0  0  0  0  0
  183.9000  178.6820  143.2000 C   0  0  0  0  0  0  0  0  0  0  0  0
  185.1750  178.3380  142.5420 C   0  0  0  0  0  3  0  0  0  0  0  0
  183.9930  177.9600  140.3910 C   0  0  0  0  0  2  0  0  0  0  0  0
  185.2340  178.0020  141.2490 C   0  0  0  0  0  0  0  0  0  0  0  0
  182.7390  178.2910  141.1460 C   0  0  0  0  0  0  0  0  0  0  0  0
  181.6310  178.2600  140.5500 O   0  0  0  0  0  0  0  0  0  0  0  0
  183.8740  179.0490  144.5800 N   0  0  0  0  0  2  0  0  0  0  0  0
  186.5320  177.6750  140.6340 C   0  0  0  0  0  0  0  0  0  0  0  0
  186.6240  177.5260  139.3830 O   0  0  0  0  0  0  0  0  0  0  0  0
  187.6600  177.5190  141.4460 O   0  0  0  0  0  0  0  0  0  0  0  0
  188.3820  176.2970  141.5230 C   0  0  0  0  0  2  0  0  0  0  0  0
  187.5700  175.2540  142.2720 C   0  0  0  0  0  2  0  0  0  0  0  0
  188.3630  174.0010  142.4100 C   0  0  0  0  0  0  0  0  0  0  0  0
  189.4000  173.9870  143.1250 O   0  0  0  0  0  1  0  0  0  0  0  0
  187.9400  172.8370  141.7810 O   0  0  0  0  0  0  0  0  0  0  0  0
  185.0410  179.1230  145.3530 N   0  0  0  0  0  2  0  0  0  0  0  0
  185.2180  177.9040  145.9300 O   0  0  0  0  0  0  0  0  0  0  0  0
  188.4420  176.8630  145.3450 C   0  0  2  0  0  3  0  0  0  0  0  0
  187.4170  177.8080  145.1280 O   0  0  0  0  0  0  0  0  0  0  0  0
  186.5790  177.8060  146.2770 C   0  0  2  0  0  3  0  0  0  0  0  0
  188.7030  175.1390  146.9730 O   0  0  0  0  0  0  0  0  0  0  0  0
  186.8610  176.6070  147.1700 C   0  0  0  0  0  2  0  0  0  0  0  0
  188.0810  176.1010  146.5550 C   0  0  0  0  0  0  0  0  0  0  0  0
  190.8850  176.7410  144.9410 C   0  0  0  0  0  2  0  0  0  0  0  0
  189.7710  177.5770  145.5390 C   0  0  0  0  0  3  0  0  0  0  0  0
  190.3500  177.9370  144.1840 C   0  0  0  0  0  2  0  0  0  0  0  0
  1  2  2  0  0  0  0
  2  8  1  0  0  0  0
  3  2  1  0  0  0  0
  4  6  1  0  0  0  0
  4  5  1  0  0  0  0
  5  3  2  0  0  0  0
  6  1  1  0  0  0  0
  7  6  2  0  0  0  0
  8 17  1  0  0  0  0
  9  5  1  0  0  0  0
  9 11  1  0  0  0  0
 10  9  2  0  0  0  0
 11 12  1  0  0  0  0
 12 13  1  0  0  0  0
 13 14  1  0  0  0  0
 14 15  1  0  0  0  0
 16 14  2  0  0  0  0
 17 18  1  0  0  0  0
 19 26  1  1  0  0  0
 19 24  1  0  0  0  0
 20 19  1  0  0  0  0
 20 21  1  0  0  0  0
 21 18  1  6  0  0  0
 21 23  1  0  0  0  0
 24 22  2  0  0  0  0
 24 23  1  0  0  0  0
 25 26  1  0  0  0  0
 27 25  1  0  0  0  0
 27 26  1  0  0  0  0
M  END
>  <MODEL>
2

>  <REMARK>
 VINA RESULT:      -6.7      2.579      4.621
  Name = 
  9 active torsions:
  status: ('A' for Active; 'I' for Inactive)
    1  A    between atoms: C_1  and  C_12
    2  A    between atoms: C_1  and  C_18
    3  A    between atoms: C_4  and  C_22
    4  A    between atoms: N_8  and  O_16
    5  A    between atoms: N_8  and  N_25
    6  A    between atoms: C_10  and  C_13
    7  A    between atoms: C_10  and  O_27
    8  A    between atoms: C_11  and  O_16
    9  A    between atoms: C_12  and  O_27
                            x       y       z     vdW  Elec       q    Type
                         _______ _______ _______ _____ _____    ______ ____

>  <TORSDO>
F 9

$$$$
=
 OpenBabel11062421093D

 27 29  0  0  1  0  0  0  0  0999 V2000
  187.8240  177.3870  141.2130 N   0  0  0  0  0  0  0  0  0  0  0  0
  187.9460  177.5910  142.4900 C   0  0  0  0  0  0  0  0  0  0  0  0
  186.7920  178.0540  143.2830 C   0  0  0  0  0  3  0  0  0  0  0  0
  185.3550  178.0260  141.2580 C   0  0  0  0  0  2  0  0  0  0  0  0
  185.5920  178.2610  142.7290 C   0  0  0  0  0  0  0  0  0  0  0  0
  186.5880  177.5880  140.5210 C   0  0  0  0  0  0  0  0  0  0  0  0
  186.5290  177.3900  139.2800 O   0  0  0  0  0  0  0  0  0  0  0  0
  189.2110  177.3670  143.1150 N   0  0  0  0  0  2  0  0  0  0  0  0
  184.4660  178.7150  143.5640 C   0  0  0  0  0  0  0  0  0  0  0  0
  183.2940  178.7330  143.0960 O   0  0  0  0  0  0  0  0  0  0  0  0
  184.7080  179.1390  144.8750 O   0  0  0  0  0  0  0  0  0  0  0  0
  183.9530  178.6640  145.9810 C   0  0  0  0  0  2  0  0  0  0  0  0
  184.8400  178.5380  147.2070 C   0  0  0  0  0  2  0  0  0  0  0  0
  185.9730  177.6150  146.9170 C   0  0  0  0  0  0  0  0  0  0  0  0
  185.7610  176.5240  146.3250 O   0  0  0  0  0  0  0  0  0  0  0  0
  187.2690  177.9740  147.2670 O   0  0  0  0  0  1  0  0  0  0  0  0
  189.4030  177.5500  144.4910 N   0  0  0  0  0  2  0  0  0  0  0  0
  189.0520  176.3880  145.1040 O   0  0  0  0  0  0  0  0  0  0  0  0
  192.4340  175.8410  145.3990 C   0  0  2  0  0  3  0  0  0  0  0  0
  191.3340  176.7180  145.5150 O   0  0  0  0  0  0  0  0  0  0  0  0
  190.1850  175.9330  145.8050 C   0  0  2  0  0  3  0  0  0  0  0  0
  192.5650  173.4670  145.1990 O   0  0  0  0  0  0  0  0  0  0  0  0
  190.4490  174.4520  145.5730 C   0  0  0  0  0  2  0  0  0  0  0  0
  191.8930  174.4680  145.3840 C   0  0  0  0  0  0  0  0  0  0  0  0
  194.7710  175.5890  146.1870 C   0  0  0  0  0  2  0  0  0  0  0  0
  193.3760  176.0330  146.5780 C   0  0  0  0  0  3  0  0  0  0  0  0
  194.4290  177.0620  146.2170 C   0  0  0  0  0  2  0  0  0  0  0  0
  1  2  2  0  0  0  0
  2  8  1  0  0  0  0
  2  3  1  0  0  0  0
  4  5  1  0  0  0  0
  5  3  2  0  0  0  0
  5  9  1  0  0  0  0
  6  1  1  0  0  0  0
  6  4  1  0  0  0  0
  7  6  2  0  0  0  0
  8 17  1  0  0  0  0
  9 11  1  0  0  0  0
 10  9  2  0  0  0  0
 11 12  1  0  0  0  0
 12 13  1  0  0  0  0
 14 13  1  0  0  0  0
 14 16  1  0  0  0  0
 15 14  2  0  0  0  0
 17 18  1  0  0  0  0
 19 20  1  0  0  0  0
 19 26  1  1  0  0  0
 20 21  1  0  0  0  0
 21 18  1  6  0  0  0
 22 24  2  0  0  0  0
 23 21  1  0  0  0  0
 24 19  1  0  0  0  0
 24 23  1  0  0  0  0
 25 27  1  0  0  0  0
 25 26  1  0  0  0  0
 27 26  1  0  0  0  0
M  END
>  <MODEL>
3

>  <REMARK>
 VINA RESULT:      -6.6      1.471      1.942
  Name = 
  9 active torsions:
  status: ('A' for Active; 'I' for Inactive)
    1  A    between atoms: C_1  and  C_12
    2  A    between atoms: C_1  and  C_18
    3  A    between atoms: C_4  and  C_22
    4  A    between atoms: N_8  and  O_16
    5  A    between atoms: N_8  and  N_25
    6  A    between atoms: C_10  and  C_13
    7  A    between atoms: C_10  and  O_27
    8  A    between atoms: C_11  and  O_16
    9  A    between atoms: C_12  and  O_27
                            x       y       z     vdW  Elec       q    Type
                         _______ _______ _______ _____ _____    ______ ____

>  <TORSDO>
F 9

$$$$
=
 OpenBabel11062421093D

 27 29  0  0  1  0  0  0  0  0999 V2000
  189.4140  173.7420  142.6450 N   0  0  0  0  0  0  0  0  0  0  0  0
  189.2030  174.9620  143.0360 C   0  0  0  0  0  0  0  0  0  0  0  0
  189.2930  175.3110  144.4670 C   0  0  0  0  0  3  0  0  0  0  0  0
  189.8910  172.9670  145.0270 C   0  0  0  0  0  2  0  0  0  0  0  0
  189.6070  174.4020  145.3970 C   0  0  0  0  0  0  0  0  0  0  0  0
  189.7460  172.6920  143.5590 C   0  0  0  0  0  0  0  0  0  0  0  0
  189.9250  171.5230  143.1270 O   0  0  0  0  0  0  0  0  0  0  0  0
  188.8780  175.9600  142.0670 N   0  0  0  0  0  2  0  0  0  0  0  0
  189.6930  174.7990  146.8120 C   0  0  0  0  0  0  0  0  0  0  0  0
  188.6430  174.9410  147.4990 O   0  0  0  0  0  0  0  0  0  0  0  0
  190.9470  175.0310  147.3870 O   0  0  0  0  0  0  0  0  0  0  0  0
  191.7250  176.1810  147.0840 C   0  0  0  0  0  2  0  0  0  0  0  0
  193.0320  175.7720  146.4260 C   0  0  0  0  0  2  0  0  0  0  0  0
  193.4090  176.7700  145.3870 C   0  0  0  0  0  0  0  0  0  0  0  0
  194.5870  177.2100  145.3350 O   0  0  0  0  0  1  0  0  0  0  0  0
  192.4710  177.1880  144.4520 O   0  0  0  0  0  0  0  0  0  0  0  0
  188.6570  177.2980  142.4220 N   0  0  0  0  0  2  0  0  0  0  0  0
  187.8660  177.8420  141.4590 O   0  0  0  0  0  0  0  0  0  0  0  0
  185.3770  178.1250  143.8140 C   0  0  2  0  0  3  0  0  0  0  0  0
  186.7480  178.1910  143.4870 O   0  0  0  0  0  0  0  0  0  0  0  0
  186.8480  178.5580  142.1180 C   0  0  2  0  0  3  0  0  0  0  0  0
  183.4140  178.1040  142.4570 O   0  0  0  0  0  0  0  0  0  0  0  0
  185.5070  178.4360  141.4090 C   0  0  0  0  0  2  0  0  0  0  0  0
  184.6250  178.2230  142.5490 C   0  0  0  0  0  0  0  0  0  0  0  0
  184.0010  178.7870  145.7670 C   0  0  0  0  0  2  0  0  0  0  0  0
  185.0110  179.2700  144.7460 C   0  0  0  0  0  3  0  0  0  0  0  0
  185.4570  178.9340  146.1550 C   0  0  0  0  0  2  0  0  0  0  0  0
  1  2  2  0  0  0  0
  1  6  1  0  0  0  0
  2  3  1  0  0  0  0
  3  5  2  0  0  0  0
  4  5  1  0  0  0  0
  5  9  1  0  0  0  0
  6  4  1  0  0  0  0
  7  6  2  0  0  0  0
  8 17  1  0  0  0  0
  8  2  1  0  0  0  0
  9 11  1  0  0  0  0
  9 10  2  0  0  0  0
 12 11  1  0  0  0  0
 13 12  1  0  0  0  0
 14 13  1  0  0  0  0
 15 14  1  0  0  0  0
 16 14  2  0  0  0  0
 18 17  1  0  0  0  0
 19 26  1  1  0  0  0
 20 19  1  0  0  0  0
 21 18  1  6  0  0  0
 21 20  1  0  0  0  0
 22 24  2  0  0  0  0
 23 21  1  0  0  0  0
 23 24  1  0  0  0  0
 24 19  1  0  0  0  0
 25 27  1  0  0  0  0
 26 25  1  0  0  0  0
 26 27  1  0  0  0  0
M  END
>  <MODEL>
4

>  <REMARK>
 VINA RESULT:      -6.5      2.013      6.771
  Name = 
  9 active torsions:
  status: ('A' for Active; 'I' for Inactive)
    1  A    between atoms: C_1  and  C_12
    2  A    between atoms: C_1  and  C_18
    3  A    between atoms: C_4  and  C_22
    4  A    between atoms: N_8  and  O_16
    5  A    between atoms: N_8  and  N_25
    6  A    between atoms: C_10  and  C_13
    7  A    between atoms: C_10  and  O_27
    8  A    between atoms: C_11  and  O_16
    9  A    between atoms: C_12  and  O_27
                            x       y       z     vdW  Elec       q    Type
                         _______ _______ _______ _____ _____    ______ ____

>  <TORSDO>
F 9

$$$$
=
 OpenBabel11062421093D

 27 29  0  0  1  0  0  0  0  0999 V2000
  187.8050  177.5430  140.8690 N   0  0  0  0  0  0  0  0  0  0  0  0
  188.3240  177.9400  141.9910 C   0  0  0  0  0  0  0  0  0  0  0  0
  187.4680  178.5140  143.0460 C   0  0  0  0  0  3  0  0  0  0  0  0
  185.4540  178.1710  141.6330 C   0  0  0  0  0  2  0  0  0  0  0  0
  186.1440  178.6300  142.8950 C   0  0  0  0  0  0  0  0  0  0  0  0
  186.4020  177.6310  140.6020 C   0  0  0  0  0  0  0  0  0  0  0  0
  185.9540  177.2450  139.4910 O   0  0  0  0  0  0  0  0  0  0  0  0
  189.7340  177.8190  142.1890 N   0  0  0  0  0  2  0  0  0  0  0  0
  185.3290  179.2020  143.9800 C   0  0  0  0  0  0  0  0  0  0  0  0
  185.4560  180.4170  144.2990 O   0  0  0  0  0  0  0  0  0  0  0  0
  184.4190  178.3870  144.6620 O   0  0  0  0  0  0  0  0  0  0  0  0
  184.3230  178.3730  146.0800 C   0  0  0  0  0  2  0  0  0  0  0  0
  184.8700  177.0660  146.6300 C   0  0  0  0  0  2  0  0  0  0  0  0
  186.3020  177.2340  146.9990 C   0  0  0  0  0  0  0  0  0  0  0  0
  187.1830  176.5270  146.4420 O   0  0  0  0  0  0  0  0  0  0  0  0
  186.6720  178.1930  147.9330 O   0  0  0  0  0  1  0  0  0  0  0  0
  190.3540  178.2110  143.3840 N   0  0  0  0  0  2  0  0  0  0  0  0
  191.6750  177.9110  143.2680 O   0  0  0  0  0  0  0  0  0  0  0  0
  191.9780  176.5240  146.4000 C   0  0  2  0  0  3  0  0  0  0  0  0
  191.1540  176.9140  145.3220 O   0  0  0  0  0  0  0  0  0  0  0  0
  191.9290  176.8300  144.1340 C   0  0  2  0  0  3  0  0  0  0  0  0
  194.3360  176.2070  146.5690 O   0  0  0  0  0  0  0  0  0  0  0  0
  193.4110  176.6780  144.4450 C   0  0  0  0  0  2  0  0  0  0  0  0
  193.3550  176.4290  145.8790 C   0  0  0  0  0  0  0  0  0  0  0  0
  191.4540  175.2450  148.4570 C   0  0  0  0  0  2  0  0  0  0  0  0
  191.5170  175.1810  146.9450 C   0  0  0  0  0  3  0  0  0  0  0  0
  190.1830  175.3540  147.6440 C   0  0  0  0  0  2  0  0  0  0  0  0
  1  2  2  0  0  0  0
  2  8  1  0  0  0  0
  2  3  1  0  0  0  0
  4  5  1  0  0  0  0
  5  3  2  0  0  0  0
  5  9  1  0  0  0  0
  6  1  1  0  0  0  0
  6  4  1  0  0  0  0
  7  6  2  0  0  0  0
  8 17  1  0  0  0  0
  9 10  2  0  0  0  0
  9 11  1  0  0  0  0
 11 12  1  0  0  0  0
 12 13  1  0  0  0  0
 13 14  1  0  0  0  0
 14 16  1  0  0  0  0
 15 14  2  0  0  0  0
 18 17  1  0  0  0  0
 19 26  1  6  0  0  0
 20 19  1  0  0  0  0
 21 18  1  6  0  0  0
 21 23  1  0  0  0  0
 21 20  1  0  0  0  0
 23 24  1  0  0  0  0
 24 19  1  0  0  0  0
 24 22  2  0  0  0  0
 26 27  1  0  0  0  0
 26 25  1  0  0  0  0
 27 25  1  0  0  0  0
M  END
>  <MODEL>
5

>  <REMARK>
 VINA RESULT:      -6.3      1.720      2.383
  Name = 
  9 active torsions:
  status: ('A' for Active; 'I' for Inactive)
    1  A    between atoms: C_1  and  C_12
    2  A    between atoms: C_1  and  C_18
    3  A    between atoms: C_4  and  C_22
    4  A    between atoms: N_8  and  O_16
    5  A    between atoms: N_8  and  N_25
    6  A    between atoms: C_10  and  C_13
    7  A    between atoms: C_10  and  O_27
    8  A    between atoms: C_11  and  O_16
    9  A    between atoms: C_12  and  O_27
                            x       y       z     vdW  Elec       q    Type
                         _______ _______ _______ _____ _____    ______ ____

>  <TORSDO>
F 9

$$$$
=
 OpenBabel11062421093D

 27 29  0  0  1  0  0  0  0  0999 V2000
  188.3490  175.1540  141.0030 N   0  0  0  0  0  0  0  0  0  0  0  0
  188.0190  176.3500  141.3880 C   0  0  0  0  0  0  0  0  0  0  0  0
  188.8620  177.0810  142.3520 C   0  0  0  0  0  3  0  0  0  0  0  0
  190.4610  175.1820  142.4340 C   0  0  0  0  0  2  0  0  0  0  0  0
  189.9890  176.5560  142.8450 C   0  0  0  0  0  0  0  0  0  0  0  0
  189.5290  174.4970  141.4780 C   0  0  0  0  0  0  0  0  0  0  0  0
  189.7940  173.3310  141.0840 O   0  0  0  0  0  0  0  0  0  0  0  0
  186.8280  176.9450  140.8700 N   0  0  0  0  0  2  0  0  0  0  0  0
  190.8030  177.3280  143.7990 C   0  0  0  0  0  0  0  0  0  0  0  0
  191.1020  178.5300  143.5540 O   0  0  0  0  0  0  0  0  0  0  0  0
  191.2520  176.7160  144.9740 O   0  0  0  0  0  0  0  0  0  0  0  0
  190.5350  176.7990  146.1990 C   0  0  0  0  0  2  0  0  0  0  0  0
  190.8050  175.5690  147.0490 C   0  0  0  0  0  2  0  0  0  0  0  0
  189.7320  174.5590  146.8300 C   0  0  0  0  0  0  0  0  0  0  0  0
  188.8760  174.3440  147.7290 O   0  0  0  0  0  1  0  0  0  0  0  0
  189.6520  173.8790  145.6210 O   0  0  0  0  0  0  0  0  0  0  0  0
  186.4260  178.2390  141.2310 N   0  0  0  0  0  2  0  0  0  0  0  0
  185.2490  178.1200  141.9020 O   0  0  0  0  0  0  0  0  0  0  0  0
  185.3550  177.6520  145.3070 C   0  0  2  0  0  3  0  0  0  0  0  0
  185.9820  177.5340  144.0480 O   0  0  0  0  0  0  0  0  0  0  0  0
  185.4780  178.5700  143.2170 C   0  0  2  0  0  3  0  0  0  0  0  0
  183.4640  178.9120  146.0340 O   0  0  0  0  0  0  0  0  0  0  0  0
  184.2460  179.2230  143.8240 C   0  0  0  0  0  2  0  0  0  0  0  0
  184.2690  178.6400  145.1590 C   0  0  0  0  0  0  0  0  0  0  0  0
  185.8620  177.7580  147.7310 C   0  0  0  0  0  2  0  0  0  0  0  0
  186.3640  178.1150  146.3460 C   0  0  0  0  0  3  0  0  0  0  0  0
  186.9270  176.9090  147.0730 C   0  0  0  0  0  2  0  0  0  0  0  0
  1  2  2  0  0  0  0
  1  6  1  0  0  0  0
  2  3  1  0  0  0  0
  3  5  2  0  0  0  0
  4  5  1  0  0  0  0
  5  9  1  0  0  0  0
  6  4  1  0  0  0  0
  7  6  2  0  0  0  0
  8 17  1  0  0  0  0
  8  2  1  0  0  0  0
  9 11  1  0  0  0  0
 10  9  2  0  0  0  0
 11 12  1  0  0  0  0
 12 13  1  0  0  0  0
 14 13  1  0  0  0  0
 14 15  1  0  0  0  0
 16 14  2  0  0  0  0
 17 18  1  0  0  0  0
 19 26  1  1  0  0  0
 20 19  1  0  0  0  0
 21 18  1  6  0  0  0
 21 23  1  0  0  0  0
 21 20  1  0  0  0  0
 23 24  1  0  0  0  0
 24 19  1  0  0  0  0
 24 22  2  0  0  0  0
 26 27  1  0  0  0  0
 26 25  1  0  0  0  0
 27 25  1  0  0  0  0
M  END
>  <MODEL>
6

>  <REMARK>
 VINA RESULT:      -6.3      2.072      6.053
  Name = 
  9 active torsions:
  status: ('A' for Active; 'I' for Inactive)
    1  A    between atoms: C_1  and  C_12
    2  A    between atoms: C_1  and  C_18
    3  A    between atoms: C_4  and  C_22
    4  A    between atoms: N_8  and  O_16
    5  A    between atoms: N_8  and  N_25
    6  A    between atoms: C_10  and  C_13
    7  A    between atoms: C_10  and  O_27
    8  A    between atoms: C_11  and  O_16
    9  A    between atoms: C_12  and  O_27
                            x       y       z     vdW  Elec       q    Type
                         _______ _______ _______ _____ _____    ______ ____

>  <TORSDO>
F 9

$$$$
=
 OpenBabel11062421093D

 27 29  0  0  1  0  0  0  0  0999 V2000
  185.4860  178.3640  146.6380 N   0  0  0  0  0  0  0  0  0  0  0  0
  186.6070  177.8200  146.2780 C   0  0  0  0  0  0  0  0  0  0  0  0
  186.7850  177.3210  144.9010 C   0  0  0  0  0  3  0  0  0  0  0  0
  184.4920  178.0670  144.3080 C   0  0  0  0  0  2  0  0  0  0  0  0
  185.8190  177.4260  143.9820 C   0  0  0  0  0  0  0  0  0  0  0  0
  184.3850  178.5160  145.7360 C   0  0  0  0  0  0  0  0  0  0  0  0
  183.3140  179.0380  146.1420 O   0  0  0  0  0  0  0  0  0  0  0  0
  187.6650  177.7030  147.2320 N   0  0  0  0  0  2  0  0  0  0  0  0
  186.0460  176.9210  142.6170 C   0  0  0  0  0  0  0  0  0  0  0  0
  185.4970  177.4860  141.6300 O   0  0  0  0  0  0  0  0  0  0  0  0
  186.8650  175.8040  142.4230 O   0  0  0  0  0  0  0  0  0  0  0  0
  187.9800  175.8200  141.5420 C   0  0  0  0  0  2  0  0  0  0  0  0
  189.2640  176.0300  142.3260 C   0  0  0  0  0  2  0  0  0  0  0  0
  189.4520  177.4790  142.6110 C   0  0  0  0  0  0  0  0  0  0  0  0
  190.0710  177.8430  143.6460 O   0  0  0  0  0  1  0  0  0  0  0  0
  188.9750  178.4310  141.7190 O   0  0  0  0  0  0  0  0  0  0  0  0
  188.9070  177.1430  146.9020 N   0  0  0  0  0  2  0  0  0  0  0  0
  188.8410  175.8180  147.2020 O   0  0  0  0  0  0  0  0  0  0  0  0
  192.0250  175.9590  145.9110 C   0  0  2  0  0  3  0  0  0  0  0  0
  191.1170  176.3010  146.9360 O   0  0  0  0  0  0  0  0  0  0  0  0
  190.1270  175.2840  146.9930 C   0  0  2  0  0  3  0  0  0  0  0  0
  191.9150  174.3420  144.1600 O   0  0  0  0  0  0  0  0  0  0  0  0
  190.1830  174.3820  145.7690 C   0  0  0  0  0  2  0  0  0  0  0  0
  191.4350  174.8270  145.1710 C   0  0  0  0  0  0  0  0  0  0  0  0
  194.4510  175.7090  145.4680 C   0  0  0  0  0  2  0  0  0  0  0  0
  193.3640  175.5660  146.5150 C   0  0  0  0  0  3  0  0  0  0  0  0
  194.2820  176.7730  146.5300 C   0  0  0  0  0  2  0  0  0  0  0  0
  2  1  2  0  0  0  0
  2  8  1  0  0  0  0
  3  2  1  0  0  0  0
  4  6  1  0  0  0  0
  5  4  1  0  0  0  0
  5  3  2  0  0  0  0
  6  7  2  0  0  0  0
  6  1  1  0  0  0  0
  9  5  1  0  0  0  0
 10  9  2  0  0  0  0
 11  9  1  0  0  0  0
 12 13  1  0  0  0  0
 12 11  1  0  0  0  0
 13 14  1  0  0  0  0
 14 15  1  0  0  0  0
 16 14  2  0  0  0  0
 17 18  1  0  0  0  0
 17  8  1  0  0  0  0
 19 26  1  1  0  0  0
 19 20  1  0  0  0  0
 20 21  1  0  0  0  0
 21 18  1  6  0  0  0
 22 24  2  0  0  0  0
 23 21  1  0  0  0  0
 24 23  1  0  0  0  0
 24 19  1  0  0  0  0
 25 26  1  0  0  0  0
 25 27  1  0  0  0  0
 26 27  1  0  0  0  0
M  END
>  <MODEL>
7

>  <REMARK>
 VINA RESULT:      -6.2      2.296      3.890
  Name = 
  9 active torsions:
  status: ('A' for Active; 'I' for Inactive)
    1  A    between atoms: C_1  and  C_12
    2  A    between atoms: C_1  and  C_18
    3  A    between atoms: C_4  and  C_22
    4  A    between atoms: N_8  and  O_16
    5  A    between atoms: N_8  and  N_25
    6  A    between atoms: C_10  and  C_13
    7  A    between atoms: C_10  and  O_27
    8  A    between atoms: C_11  and  O_16
    9  A    between atoms: C_12  and  O_27
                            x       y       z     vdW  Elec       q    Type
                         _______ _______ _______ _____ _____    ______ ____

>  <TORSDO>
F 9

$$$$
=
 OpenBabel11062421093D

 27 29  0  0  1  0  0  0  0  0999 V2000
  185.8820  178.2130  145.6890 N   0  0  0  0  0  0  0  0  0  0  0  0
  186.8400  177.3380  145.6450 C   0  0  0  0  0  0  0  0  0  0  0  0
  187.5670  177.0910  144.3860 C   0  0  0  0  0  3  0  0  0  0  0  0
  186.2000  178.8120  143.2300 C   0  0  0  0  0  2  0  0  0  0  0  0
  187.2820  177.7610  143.2630 C   0  0  0  0  0  0  0  0  0  0  0  0
  185.4910  178.9770  144.5430 C   0  0  0  0  0  0  0  0  0  0  0  0
  184.5450  179.8010  144.6360 O   0  0  0  0  0  0  0  0  0  0  0  0
  187.1780  176.6140  146.8300 N   0  0  0  0  0  2  0  0  0  0  0  0
  188.0410  177.4860  142.0310 C   0  0  0  0  0  0  0  0  0  0  0  0
  188.9440  178.2810  141.6490 O   0  0  0  0  0  0  0  0  0  0  0  0
  187.7450  176.3430  141.2810 O   0  0  0  0  0  0  0  0  0  0  0  0
  188.5810  175.1930  141.2820 C   0  0  0  0  0  2  0  0  0  0  0  0
  187.9690  174.1000  142.1420 C   0  0  0  0  0  2  0  0  0  0  0  0
  188.8030  172.8690  142.0630 C   0  0  0  0  0  0  0  0  0  0  0  0
  188.9910  172.1690  143.0940 O   0  0  0  0  0  1  0  0  0  0  0  0
  189.3440  172.4710  140.8470 O   0  0  0  0  0  0  0  0  0  0  0  0
  188.2130  175.6690  146.8550 N   0  0  0  0  0  2  0  0  0  0  0  0
  189.3100  176.2900  147.3660 O   0  0  0  0  0  0  0  0  0  0  0  0
  192.2000  175.9280  145.5390 C   0  0  2  0  0  3  0  0  0  0  0  0
  191.5530  176.3980  146.7020 O   0  0  0  0  0  0  0  0  0  0  0  0
  190.4340  175.5550  146.9420 C   0  0  2  0  0  3  0  0  0  0  0  0
  191.5230  174.3810  143.8530 O   0  0  0  0  0  0  0  0  0  0  0  0
  190.1280  174.6770  145.7380 C   0  0  0  0  0  2  0  0  0  0  0  0
  191.3130  174.9210  144.9270 C   0  0  0  0  0  0  0  0  0  0  0  0
  194.5550  175.6300  144.8260 C   0  0  0  0  0  2  0  0  0  0  0  0
  193.5410  175.3100  145.9050 C   0  0  0  0  0  3  0  0  0  0  0  0
  194.5600  176.4130  146.1200 C   0  0  0  0  0  2  0  0  0  0  0  0
  2  1  2  0  0  0  0
  2  8  1  0  0  0  0
  3  2  1  0  0  0  0
  4  5  1  0  0  0  0
  4  6  1  0  0  0  0
  5  3  2  0  0  0  0
  6  7  2  0  0  0  0
  6  1  1  0  0  0  0
  8 17  1  0  0  0  0
  9  5  1  0  0  0  0
 10  9  2  0  0  0  0
 11 12  1  0  0  0  0
 11  9  1  0  0  0  0
 12 13  1  0  0  0  0
 14 13  1  0  0  0  0
 14 15  1  0  0  0  0
 16 14  2  0  0  0  0
 17 18  1  0  0  0  0
 19 26  1  1  0  0  0
 19 20  1  0  0  0  0
 20 21  1  0  0  0  0
 21 18  1  6  0  0  0
 22 24  2  0  0  0  0
 23 21  1  0  0  0  0
 24 19  1  0  0  0  0
 24 23  1  0  0  0  0
 25 26  1  0  0  0  0
 25 27  1  0  0  0  0
 26 27  1  0  0  0  0
M  END
>  <MODEL>
8

>  <REMARK>
 VINA RESULT:      -6.1      2.698      4.259
  Name = 
  9 active torsions:
  status: ('A' for Active; 'I' for Inactive)
    1  A    between atoms: C_1  and  C_12
    2  A    between atoms: C_1  and  C_18
    3  A    between atoms: C_4  and  C_22
    4  A    between atoms: N_8  and  O_16
    5  A    between atoms: N_8  and  N_25
    6  A    between atoms: C_10  and  C_13
    7  A    between atoms: C_10  and  O_27
    8  A    between atoms: C_11  and  O_16
    9  A    between atoms: C_12  and  O_27
                            x       y       z     vdW  Elec       q    Type
                         _______ _______ _______ _____ _____    ______ ____

>  <TORSDO>
F 9

$$$$
=
 OpenBabel11062421093D

 27 29  0  0  1  0  0  0  0  0999 V2000
  184.9290  178.7250  145.7620 N   0  0  0  0  0  0  0  0  0  0  0  0
  185.7900  178.6380  144.7940 C   0  0  0  0  0  0  0  0  0  0  0  0
  187.1160  178.0360  145.0280 C   0  0  0  0  0  3  0  0  0  0  0  0
  186.5220  177.5870  147.3980 C   0  0  0  0  0  2  0  0  0  0  0  0
  187.4690  177.5490  146.2230 C   0  0  0  0  0  0  0  0  0  0  0  0
  185.2100  178.2440  147.0810 C   0  0  0  0  0  0  0  0  0  0  0  0
  184.3450  178.3680  147.9870 O   0  0  0  0  0  0  0  0  0  0  0  0
  185.4400  179.1370  143.5020 N   0  0  0  0  0  2  0  0  0  0  0  0
  188.8010  176.9490  146.4070 C   0  0  0  0  0  0  0  0  0  0  0  0
  189.7010  177.5750  147.0340 O   0  0  0  0  0  0  0  0  0  0  0  0
  189.0670  175.6840  145.8710 O   0  0  0  0  0  0  0  0  0  0  0  0
  190.1890  174.9080  146.2700 C   0  0  0  0  0  2  0  0  0  0  0  0
  191.2660  174.9540  145.1990 C   0  0  0  0  0  2  0  0  0  0  0  0
  192.3150  175.9390  145.5800 C   0  0  0  0  0  0  0  0  0  0  0  0
  192.8240  176.6880  144.7040 O   0  0  0  0  0  0  0  0  0  0  0  0
  192.7090  176.0590  146.9070 O   0  0  0  0  0  1  0  0  0  0  0  0
  186.3160  179.0570  142.4110 N   0  0  0  0  0  2  0  0  0  0  0  0
  185.8280  178.1020  141.5750 O   0  0  0  0  0  0  0  0  0  0  0  0
  187.9730  175.5140  142.3010 C   0  0  2  0  0  3  0  0  0  0  0  0
  186.7200  175.9500  141.8200 O   0  0  0  0  0  0  0  0  0  0  0  0
  186.8990  177.2440  141.2590 C   0  0  2  0  0  3  0  0  0  0  0  0
  190.0260  176.6710  142.6750 O   0  0  0  0  0  0  0  0  0  0  0  0
  188.2450  177.8370  141.6470 C   0  0  0  0  0  2  0  0  0  0  0  0
  188.8850  176.6720  142.2430 C   0  0  0  0  0  0  0  0  0  0  0  0
  189.4020  173.4890  142.2600 C   0  0  0  0  0  2  0  0  0  0  0  0
  188.4940  174.3780  141.4340 C   0  0  0  0  0  3  0  0  0  0  0  0
  187.9800  173.0580  141.9750 C   0  0  0  0  0  2  0  0  0  0  0  0
  1  6  1  0  0  0  0
  2  3  1  0  0  0  0
  2  1  2  0  0  0  0
  3  5  2  0  0  0  0
  5  9  1  0  0  0  0
  5  4  1  0  0  0  0
  6  4  1  0  0  0  0
  6  7  2  0  0  0  0
  8  2  1  0  0  0  0
  9 10  2  0  0  0  0
 11 12  1  0  0  0  0
 11  9  1  0  0  0  0
 13 14  1  0  0  0  0
 13 12  1  0  0  0  0
 14 16  1  0  0  0  0
 15 14  2  0  0  0  0
 17  8  1  0  0  0  0
 18 17  1  0  0  0  0
 19 26  1  6  0  0  0
 20 19  1  0  0  0  0
 21 18  1  1  0  0  0
 21 23  1  0  0  0  0
 21 20  1  0  0  0  0
 23 24  1  0  0  0  0
 24 19  1  0  0  0  0
 24 22  2  0  0  0  0
 26 27  1  0  0  0  0
 26 25  1  0  0  0  0
 27 25  1  0  0  0  0
M  END
>  <MODEL>
9

>  <REMARK>
 VINA RESULT:      -6.1      2.250      5.127
  Name = 
  9 active torsions:
  status: ('A' for Active; 'I' for Inactive)
    1  A    between atoms: C_1  and  C_12
    2  A    between atoms: C_1  and  C_18
    3  A    between atoms: C_4  and  C_22
    4  A    between atoms: N_8  and  O_16
    5  A    between atoms: N_8  and  N_25
    6  A    between atoms: C_10  and  C_13
    7  A    between atoms: C_10  and  O_27
    8  A    between atoms: C_11  and  O_16
    9  A    between atoms: C_12  and  O_27
                            x       y       z     vdW  Elec       q    Type
                         _______ _______ _______ _____ _____    ______ ____

>  <TORSDO>
F 9

$$$$
