=
 OpenBabel11062420563D

 31 33  0  0  1  0  0  0  0  0999 V2000
  186.4280  177.0780  148.1700 F   0  0  0  0  0  0  0  0  0  0  0  0
  186.9600  177.6570  145.9380 C   0  0  0  0  0  0  0  0  0  0  0  0
  184.0640  179.1070  145.4330 C   0  0  0  0  0  2  0  0  0  0  0  0
  184.3080  178.5590  146.8230 C   0  0  1  0  0  3  0  0  0  0  0  0
  184.4800  177.6580  145.5900 C   0  0  2  0  0  3  0  0  0  0  0  0
  185.6050  179.1570  147.3680 C   0  0  0  0  0  2  0  0  0  0  0  0
  187.8840  178.7610  147.8300 F   0  0  0  0  0  0  0  0  0  0  0  0
  185.9030  177.4520  145.1190 C   0  0  0  0  0  0  0  0  0  0  0  0
  186.7410  178.1440  147.3470 C   0  0  0  0  0  0  0  0  0  0  0  0
  188.3370  177.3580  145.4920 C   0  0  0  0  0  0  0  0  0  0  0  0
  188.8260  178.0140  144.5330 O   0  0  0  0  0  0  0  0  0  0  0  0
  188.5840  175.3250  146.7540 N   0  0  0  0  0  2  0  0  0  0  0  0
  189.1430  176.3150  146.1470 C   0  0  2  0  0  3  0  0  0  0  0  0
  189.5010  174.4330  147.4360 C   0  0  0  0  0  2  0  0  0  0  0  0
  190.7920  175.2030  147.6530 C   0  0  0  0  0  2  0  0  0  0  0  0
  190.9190  176.4170  146.3050 S   0  0  0  0  0  0  0  0  0  0  0  0
  186.1000  176.8560  143.7480 C   0  0  0  0  0  2  0  0  0  0  0  0
  184.4870  177.8700  142.1360 C   0  0  0  0  0  1  0  0  0  0  0  0
  185.9340  177.8550  142.6010 C   0  0  1  0  0  0  0  0  0  0  0  0
  186.3080  179.1390  143.0060 O   0  0  0  0  0  1  0  0  0  0  0  0
  186.8300  177.4060  141.4560 C   0  0  0  0  0  2  0  0  0  0  0  0
  187.7540  176.4130  141.8890 O   0  0  0  0  0  0  0  0  0  0  0  0
  188.1980  175.3890  141.0520 C   0  0  0  0  0  0  0  0  0  0  0  0
  187.7990  175.3600  139.8560 O   0  0  0  0  0  0  0  0  0  0  0  0
  188.6820  173.0690  141.1220 O   0  0  0  0  0  1  0  0  0  0  0  0
  189.1230  174.3220  141.5520 C   0  0  2  0  0  3  0  0  0  0  0  0
  189.1940  174.3590  143.0680 C   0  0  0  0  0  2  0  0  0  0  0  0
  189.6290  172.1110  144.8330 O   0  0  0  0  0  1  0  0  0  0  0  0
  190.7130  172.8590  144.3890 C   0  0  0  0  0  0  0  0  0  0  0  0
  190.5210  173.9650  143.5110 N   0  0  0  0  0  2  0  0  0  0  0  0
  191.8760  172.5550  144.7640 O   0  0  0  0  0  0  0  0  0  0  0  0
  2  9  1  0  0  0  0
  4  3  1  6  0  0  0
  4  6  1  0  0  0  0
  5  3  1  6  0  0  0
  5  4  1  0  0  0  0
  8  5  1  0  0  0  0
  8  2  2  0  0  0  0
  9  6  1  0  0  0  0
  9  7  1  0  0  0  0
  9  1  1  0  0  0  0
 10  2  1  0  0  0  0
 11 10  2  0  0  0  0
 12 14  1  0  0  0  0
 13 10  1  1  0  0  0
 13 16  1  0  0  0  0
 13 12  1  0  0  0  0
 14 15  1  0  0  0  0
 16 15  1  0  0  0  0
 17  8  1  0  0  0  0
 19 18  1  6  0  0  0
 19 20  1  0  0  0  0
 19 17  1  0  0  0  0
 21 22  1  0  0  0  0
 21 19  1  0  0  0  0
 23 26  1  0  0  0  0
 23 22  1  0  0  0  0
 24 23  2  0  0  0  0
 26 25  1  1  0  0  0
 26 27  1  0  0  0  0
 27 30  1  0  0  0  0
 29 31  2  0  0  0  0
 29 28  1  0  0  0  0
 30 29  1  0  0  0  0
M  END
>  <MODEL>
1

>  <REMARK>
 VINA RESULT:      -6.7      0.000      0.000
  Name = 
  10 active torsions:
  status: ('A' for Active; 'I' for Inactive)
    1  A    between atoms: C_4  and  N_18
    2  A    between atoms: C_4  and  C_23
    3  A    between atoms: C_6  and  C_22
    4  A    between atoms: C_7  and  C_12
    5  A    between atoms: C_7  and  C_28
    6  A    between atoms: C_9  and  C_22
    7  A    between atoms: C_12  and  C_14
    8  A    between atoms: C_14  and  O_15
    9  A    between atoms: O_15  and  C_24
   10  A    between atoms: C_23  and  C_24
                            x       y       z     vdW  Elec       q    Type
                         _______ _______ _______ _____ _____    ______ ____

>  <TORSDO>
F 10

$$$$
=
 OpenBabel11062420563D

 31 33  0  0  1  0  0  0  0  0999 V2000
  186.4090  178.9970  143.9510 F   0  0  0  0  0  0  0  0  0  0  0  0
  188.0910  177.3410  144.1270 C   0  0  0  0  0  0  0  0  0  0  0  0
  187.0820  176.3730  147.0910 C   0  0  0  0  0  2  0  0  0  0  0  0
  186.2670  177.4620  146.4270 C   0  0  1  0  0  3  0  0  0  0  0  0
  187.7870  177.6210  146.5970 C   0  0  2  0  0  3  0  0  0  0  0  0
  185.8220  176.9720  145.0490 C   0  0  0  0  0  2  0  0  0  0  0  0
  186.1840  177.1240  142.7230 F   0  0  0  0  0  0  0  0  0  0  0  0
  188.6200  177.3180  145.3710 C   0  0  0  0  0  0  0  0  0  0  0  0
  186.6240  177.6300  143.9350 C   0  0  0  0  0  0  0  0  0  0  0  0
  188.9400  177.1380  142.9340 C   0  0  0  0  0  0  0  0  0  0  0  0
  189.3590  178.1460  142.3020 O   0  0  0  0  0  0  0  0  0  0  0  0
  190.5380  175.4610  142.2840 N   0  0  0  0  0  2  0  0  0  0  0  0
  189.3060  175.7870  142.4770 C   0  0  2  0  0  3  0  0  0  0  0  0
  190.7370  174.1320  141.7400 C   0  0  0  0  0  2  0  0  0  0  0  0
  189.4260  173.7140  141.0960 C   0  0  0  0  0  2  0  0  0  0  0  0
  188.0970  174.5650  141.9980 S   0  0  0  0  0  0  0  0  0  0  0  0
  190.1050  177.1440  145.5690 C   0  0  0  0  0  2  0  0  0  0  0  0
  190.5390  175.7420  147.5870 C   0  0  0  0  0  1  0  0  0  0  0  0
  190.5120  175.7560  146.0680 C   0  0  1  0  0  0  0  0  0  0  0  0
  189.6200  174.7840  145.6060 O   0  0  0  0  0  1  0  0  0  0  0  0
  191.9050  175.4560  145.5320 C   0  0  0  0  0  2  0  0  0  0  0  0
  192.9050  175.8290  146.4750 O   0  0  0  0  0  0  0  0  0  0  0  0
  194.1400  176.3520  146.0870 C   0  0  0  0  0  0  0  0  0  0  0  0
  194.5300  177.4390  146.5930 O   0  0  0  0  0  0  0  0  0  0  0  0
  195.9100  174.8200  145.7180 O   0  0  0  0  0  1  0  0  0  0  0  0
  194.9950  175.6550  145.0740 C   0  0  2  0  0  3  0  0  0  0  0  0
  195.7280  176.6710  144.2180 C   0  0  0  0  0  2  0  0  0  0  0  0
  195.9980  176.8590  141.3460 O   0  0  0  0  0  0  0  0  0  0  0  0
  196.9200  176.1210  142.0780 C   0  0  0  0  0  0  0  0  0  0  0  0
  196.8090  176.0230  143.4950 N   0  0  0  0  0  2  0  0  0  0  0  0
  197.8620  175.5340  141.4840 O   0  0  0  0  0  1  0  0  0  0  0  0
  2  8  2  0  0  0  0
  4  6  1  6  0  0  0
  4  5  1  0  0  0  0
  4  3  1  0  0  0  0
  5  3  1  1  0  0  0
  7  9  1  0  0  0  0
  8 17  1  0  0  0  0
  8  5  1  0  0  0  0
  9  1  1  0  0  0  0
  9  2  1  0  0  0  0
  9  6  1  0  0  0  0
 10  2  1  0  0  0  0
 11 10  2  0  0  0  0
 12 13  1  0  0  0  0
 13 10  1  6  0  0  0
 14 12  1  0  0  0  0
 15 14  1  0  0  0  0
 15 16  1  0  0  0  0
 16 13  1  0  0  0  0
 17 19  1  0  0  0  0
 19 18  1  1  0  0  0
 20 19  1  0  0  0  0
 21 19  1  0  0  0  0
 21 22  1  0  0  0  0
 23 22  1  0  0  0  0
 23 24  2  0  0  0  0
 26 25  1  1  0  0  0
 26 23  1  0  0  0  0
 27 26  1  0  0  0  0
 28 29  2  0  0  0  0
 29 30  1  0  0  0  0
 30 27  1  0  0  0  0
 31 29  1  0  0  0  0
M  END
>  <MODEL>
2

>  <REMARK>
 VINA RESULT:      -6.5      3.913      5.966
  Name = 
  10 active torsions:
  status: ('A' for Active; 'I' for Inactive)
    1  A    between atoms: C_4  and  N_18
    2  A    between atoms: C_4  and  C_23
    3  A    between atoms: C_6  and  C_22
    4  A    between atoms: C_7  and  C_12
    5  A    between atoms: C_7  and  C_28
    6  A    between atoms: C_9  and  C_22
    7  A    between atoms: C_12  and  C_14
    8  A    between atoms: C_14  and  O_15
    9  A    between atoms: O_15  and  C_24
   10  A    between atoms: C_23  and  C_24
                            x       y       z     vdW  Elec       q    Type
                         _______ _______ _______ _____ _____    ______ ____

>  <TORSDO>
F 10

$$$$
=
 OpenBabel11062420563D

 31 33  0  0  1  0  0  0  0  0999 V2000
  192.5760  174.3870  146.8020 F   0  0  0  0  0  0  0  0  0  0  0  0
  191.4890  175.8660  145.3080 C   0  0  0  0  0  0  0  0  0  0  0  0
  188.6250  175.6410  146.8860 C   0  0  0  0  0  2  0  0  0  0  0  0
  189.7840  174.8760  147.4870 C   0  0  1  0  0  3  0  0  0  0  0  0
  189.4010  174.6750  146.0120 C   0  0  2  0  0  3  0  0  0  0  0  0
  190.9430  175.8460  147.7240 C   0  0  0  0  0  2  0  0  0  0  0  0
  193.0470  176.5830  146.9540 F   0  0  0  0  0  0  0  0  0  0  0  0
  190.2480  175.4230  145.0050 C   0  0  0  0  0  0  0  0  0  0  0  0
  192.0470  175.6610  146.6930 C   0  0  0  0  0  0  0  0  0  0  0  0
  192.3390  176.5080  144.2840 C   0  0  0  0  0  0  0  0  0  0  0  0
  192.1430  177.7200  143.9980 O   0  0  0  0  0  0  0  0  0  0  0  0
  193.1490  174.6720  142.9570 N   0  0  0  0  0  2  0  0  0  0  0  0
  193.4060  175.7610  143.5980 C   0  0  2  0  0  3  0  0  0  0  0  0
  194.3120  173.9950  142.4180 C   0  0  0  0  0  2  0  0  0  0  0  0
  195.5190  174.4980  143.1930 C   0  0  0  0  0  2  0  0  0  0  0  0
  195.1330  176.1900  143.7350 S   0  0  0  0  0  0  0  0  0  0  0  0
  189.7230  175.5190  143.5950 C   0  0  0  0  0  2  0  0  0  0  0  0
  188.9030  177.6860  144.5220 C   0  0  0  0  0  1  0  0  0  0  0  0
  188.8270  176.7330  143.3410 C   0  0  1  0  0  0  0  0  0  0  0  0
  189.2170  177.4000  142.1760 O   0  0  0  0  0  1  0  0  0  0  0  0
  187.3970  176.2350  143.1820 C   0  0  0  0  0  2  0  0  0  0  0  0
  186.8450  176.6570  141.9400 O   0  0  0  0  0  0  0  0  0  0  0  0
  185.9100  177.6900  141.8510 C   0  0  0  0  0  0  0  0  0  0  0  0
  185.8350  178.3580  140.7850 O   0  0  0  0  0  0  0  0  0  0  0  0
  183.6760  177.9850  142.5880 O   0  0  0  0  0  1  0  0  0  0  0  0
  185.0100  178.0230  143.0010 C   0  0  2  0  0  3  0  0  0  0  0  0
  185.3480  179.3970  143.5500 C   0  0  0  0  0  2  0  0  0  0  0  0
  183.6570  178.8770  145.8370 O   0  0  0  0  0  0  0  0  0  0  0  0
  185.0270  179.0280  146.0130 C   0  0  0  0  0  0  0  0  0  0  0  0
  185.8790  179.2750  144.8970 N   0  0  0  0  0  2  0  0  0  0  0  0
  185.5210  178.9420  147.1670 O   0  0  0  0  0  1  0  0  0  0  0  0
  2  9  1  0  0  0  0
  4  3  1  1  0  0  0
  4  6  1  0  0  0  0
  5  3  1  1  0  0  0
  5  4  1  0  0  0  0
  8  2  2  0  0  0  0
  8  5  1  0  0  0  0
  9  1  1  0  0  0  0
  9  7  1  0  0  0  0
  9  6  1  0  0  0  0
 10  2  1  0  0  0  0
 11 10  2  0  0  0  0
 12 13  1  0  0  0  0
 13 16  1  0  0  0  0
 13 10  1  1  0  0  0
 14 12  1  0  0  0  0
 14 15  1  0  0  0  0
 15 16  1  0  0  0  0
 17  8  1  0  0  0  0
 19 17  1  0  0  0  0
 19 18  1  1  0  0  0
 20 19  1  0  0  0  0
 21 19  1  0  0  0  0
 22 21  1  0  0  0  0
 23 22  1  0  0  0  0
 23 26  1  0  0  0  0
 24 23  2  0  0  0  0
 26 25  1  6  0  0  0
 26 27  1  0  0  0  0
 27 30  1  0  0  0  0
 28 29  2  0  0  0  0
 29 31  1  0  0  0  0
 30 29  1  0  0  0  0
M  END
>  <MODEL>
3

>  <REMARK>
 VINA RESULT:      -6.4      3.136      5.765
  Name = 
  10 active torsions:
  status: ('A' for Active; 'I' for Inactive)
    1  A    between atoms: C_4  and  N_18
    2  A    between atoms: C_4  and  C_23
    3  A    between atoms: C_6  and  C_22
    4  A    between atoms: C_7  and  C_12
    5  A    between atoms: C_7  and  C_28
    6  A    between atoms: C_9  and  C_22
    7  A    between atoms: C_12  and  C_14
    8  A    between atoms: C_14  and  O_15
    9  A    between atoms: O_15  and  C_24
   10  A    between atoms: C_23  and  C_24
                            x       y       z     vdW  Elec       q    Type
                         _______ _______ _______ _____ _____    ______ ____

>  <TORSDO>
F 10

$$$$
=
 OpenBabel11062420563D

 31 33  0  0  1  0  0  0  0  0999 V2000
  189.1700  173.9960  147.0650 F   0  0  0  0  0  0  0  0  0  0  0  0
  190.4620  174.9360  145.3200 C   0  0  0  0  0  0  0  0  0  0  0  0
  188.4590  177.5080  144.9780 C   0  0  0  0  0  2  0  0  0  0  0  0
  188.1120  176.5280  146.0780 C   0  0  1  0  0  3  0  0  0  0  0  0
  188.3200  176.0370  144.6360 C   0  0  2  0  0  3  0  0  0  0  0  0
  189.3270  176.3660  146.9930 C   0  0  0  0  0  2  0  0  0  0  0  0
  191.1270  174.9690  147.6020 F   0  0  0  0  0  0  0  0  0  0  0  0
  189.6700  175.4230  144.3380 C   0  0  0  0  0  0  0  0  0  0  0  0
  190.0300  175.0360  146.7600 C   0  0  0  0  0  0  0  0  0  0  0  0
  191.7340  174.2530  145.0020 C   0  0  0  0  0  0  0  0  0  0  0  0
  191.7230  173.0120  144.7790 O   0  0  0  0  0  0  0  0  0  0  0  0
  194.1370  174.3790  145.0040 N   0  0  0  0  0  2  0  0  0  0  0  0
  193.0050  174.9940  144.9410 C   0  0  2  0  0  3  0  0  0  0  0  0
  195.2980  175.2460  145.0320 C   0  0  0  0  0  2  0  0  0  0  0  0
  194.8200  176.6160  145.4820 C   0  0  0  0  0  2  0  0  0  0  0  0
  193.0900  176.7770  144.9480 S   0  0  0  0  0  0  0  0  0  0  0  0
  190.0370  175.2270  142.8890 C   0  0  0  0  0  2  0  0  0  0  0  0
  189.8210  173.8000  140.8540 C   0  0  0  0  0  1  0  0  0  0  0  0
  189.1480  174.2270  142.1480 C   0  0  1  0  0  0  0  0  0  0  0  0
  188.9020  173.1020  142.9410 O   0  0  0  0  0  1  0  0  0  0  0  0
  187.8290  174.9190  141.8300 C   0  0  0  0  0  2  0  0  0  0  0  0
  188.0320  176.0310  140.9640 O   0  0  0  0  0  0  0  0  0  0  0  0
  187.5870  177.3150  141.2830 C   0  0  0  0  0  0  0  0  0  0  0  0
  188.4330  178.2390  141.4200 O   0  0  0  0  0  0  0  0  0  0  0  0
  185.5460  177.9430  140.2540 O   0  0  0  0  0  1  0  0  0  0  0  0
  186.1310  177.6070  141.4760 C   0  0  2  0  0  3  0  0  0  0  0  0
  185.9500  178.7390  142.4710 C   0  0  0  0  0  2  0  0  0  0  0  0
  185.7940  179.7270  145.1830 O   0  0  0  0  0  0  0  0  0  0  0  0
  184.7600  178.9540  144.6710 C   0  0  0  0  0  0  0  0  0  0  0  0
  184.8130  178.4650  143.3340 N   0  0  0  0  0  2  0  0  0  0  0  0
  183.7650  178.6840  145.3940 O   0  0  0  0  0  1  0  0  0  0  0  0
  2  9  1  0  0  0  0
  4  3  1  6  0  0  0
  4  6  1  0  0  0  0
  5  3  1  6  0  0  0
  5  4  1  0  0  0  0
  8  5  1  0  0  0  0
  8  2  2  0  0  0  0
  9  6  1  0  0  0  0
  9  1  1  0  0  0  0
  9  7  1  0  0  0  0
 10  2  1  0  0  0  0
 11 10  2  0  0  0  0
 12 14  1  0  0  0  0
 13 16  1  0  0  0  0
 13 10  1  1  0  0  0
 13 12  1  0  0  0  0
 14 15  1  0  0  0  0
 16 15  1  0  0  0  0
 17  8  1  0  0  0  0
 19 18  1  6  0  0  0
 19 17  1  0  0  0  0
 19 20  1  0  0  0  0
 21 19  1  0  0  0  0
 22 23  1  0  0  0  0
 22 21  1  0  0  0  0
 23 24  2  0  0  0  0
 23 26  1  0  0  0  0
 26 25  1  6  0  0  0
 26 27  1  0  0  0  0
 27 30  1  0  0  0  0
 29 28  2  0  0  0  0
 29 31  1  0  0  0  0
 30 29  1  0  0  0  0
M  END
>  <MODEL>
4

>  <REMARK>
 VINA RESULT:      -6.4      2.669      5.400
  Name = 
  10 active torsions:
  status: ('A' for Active; 'I' for Inactive)
    1  A    between atoms: C_4  and  N_18
    2  A    between atoms: C_4  and  C_23
    3  A    between atoms: C_6  and  C_22
    4  A    between atoms: C_7  and  C_12
    5  A    between atoms: C_7  and  C_28
    6  A    between atoms: C_9  and  C_22
    7  A    between atoms: C_12  and  C_14
    8  A    between atoms: C_14  and  O_15
    9  A    between atoms: O_15  and  C_24
   10  A    between atoms: C_23  and  C_24
                            x       y       z     vdW  Elec       q    Type
                         _______ _______ _______ _____ _____    ______ ____

>  <TORSDO>
F 10

$$$$
=
 OpenBabel11062420563D

 31 33  0  0  1  0  0  0  0  0999 V2000
  186.5400  179.0320  144.0450 F   0  0  0  0  0  0  0  0  0  0  0  0
  188.0910  177.2510  144.1980 C   0  0  0  0  0  0  0  0  0  0  0  0
  187.0760  176.3850  147.1920 C   0  0  0  0  0  2  0  0  0  0  0  0
  186.3340  177.5310  146.5370 C   0  0  1  0  0  3  0  0  0  0  0  0
  187.8660  177.5710  146.6720 C   0  0  2  0  0  3  0  0  0  0  0  0
  185.8220  177.0680  145.1730 C   0  0  0  0  0  2  0  0  0  0  0  0
  186.1420  177.1740  142.8390 F   0  0  0  0  0  0  0  0  0  0  0  0
  188.6450  177.1950  145.4310 C   0  0  0  0  0  0  0  0  0  0  0  0
  186.6480  177.6530  144.0360 C   0  0  0  0  0  0  0  0  0  0  0  0
  188.8950  176.9740  142.9890 C   0  0  0  0  0  0  0  0  0  0  0  0
  189.4340  177.9360  142.3790 O   0  0  0  0  0  0  0  0  0  0  0  0
  188.1000  174.7600  142.4860 N   0  0  0  0  0  2  0  0  0  0  0  0
  189.0770  175.6010  142.4910 C   0  0  2  0  0  3  0  0  0  0  0  0
  188.4530  173.4200  142.0610 C   0  0  0  0  0  2  0  0  0  0  0  0
  189.9570  173.2820  142.2280 C   0  0  0  0  0  2  0  0  0  0  0  0
  190.6680  174.9420  142.0210 S   0  0  0  0  0  0  0  0  0  0  0  0
  190.1150  176.9070  145.5970 C   0  0  0  0  0  2  0  0  0  0  0  0
  190.5840  175.4730  147.5850 C   0  0  0  0  0  1  0  0  0  0  0  0
  190.4250  175.4870  146.0740 C   0  0  1  0  0  0  0  0  0  0  0  0
  189.4040  174.6070  145.7030 O   0  0  0  0  0  1  0  0  0  0  0  0
  191.7290  175.0480  145.4230 C   0  0  0  0  0  2  0  0  0  0  0  0
  192.5140  176.1740  145.0410 O   0  0  0  0  0  0  0  0  0  0  0  0
  193.8370  176.3360  145.4530 C   0  0  0  0  0  0  0  0  0  0  0  0
  194.0770  176.5530  146.6720 O   0  0  0  0  0  0  0  0  0  0  0  0
  194.4700  176.2730  143.1700 O   0  0  0  0  0  1  0  0  0  0  0  0
  194.9690  176.2710  144.4740 C   0  0  2  0  0  3  0  0  0  0  0  0
  195.7990  175.0230  144.7140 C   0  0  0  0  0  2  0  0  0  0  0  0
  194.3990  172.7360  145.7930 O   0  0  0  0  0  1  0  0  0  0  0  0
  194.6390  172.8150  144.4270 C   0  0  0  0  0  0  0  0  0  0  0  0
  195.3190  173.9390  143.8740 N   0  0  0  0  0  2  0  0  0  0  0  0
  194.2500  171.8880  143.6700 O   0  0  0  0  0  0  0  0  0  0  0  0
  2  8  2  0  0  0  0
  4  6  1  6  0  0  0
  4  5  1  0  0  0  0
  4  3  1  0  0  0  0
  5  3  1  1  0  0  0
  7  9  1  0  0  0  0
  8 17  1  0  0  0  0
  8  5  1  0  0  0  0
  9  1  1  0  0  0  0
  9  2  1  0  0  0  0
  9  6  1  0  0  0  0
 10  2  1  0  0  0  0
 11 10  2  0  0  0  0
 12 13  1  0  0  0  0
 13 10  1  1  0  0  0
 14 15  1  0  0  0  0
 14 12  1  0  0  0  0
 16 15  1  0  0  0  0
 16 13  1  0  0  0  0
 17 19  1  0  0  0  0
 19 18  1  1  0  0  0
 20 19  1  0  0  0  0
 21 19  1  0  0  0  0
 22 21  1  0  0  0  0
 22 23  1  0  0  0  0
 23 24  2  0  0  0  0
 26 25  1  6  0  0  0
 26 27  1  0  0  0  0
 26 23  1  0  0  0  0
 29 28  1  0  0  0  0
 30 29  1  0  0  0  0
 30 27  1  0  0  0  0
 31 29  2  0  0  0  0
M  END
>  <MODEL>
5

>  <REMARK>
 VINA RESULT:      -6.3      3.135      5.227
  Name = 
  10 active torsions:
  status: ('A' for Active; 'I' for Inactive)
    1  A    between atoms: C_4  and  N_18
    2  A    between atoms: C_4  and  C_23
    3  A    between atoms: C_6  and  C_22
    4  A    between atoms: C_7  and  C_12
    5  A    between atoms: C_7  and  C_28
    6  A    between atoms: C_9  and  C_22
    7  A    between atoms: C_12  and  C_14
    8  A    between atoms: C_14  and  O_15
    9  A    between atoms: O_15  and  C_24
   10  A    between atoms: C_23  and  C_24
                            x       y       z     vdW  Elec       q    Type
                         _______ _______ _______ _____ _____    ______ ____

>  <TORSDO>
F 10

$$$$
=
 OpenBabel11062420563D

 31 33  0  0  1  0  0  0  0  0999 V2000
  185.0490  176.1940  146.2630 F   0  0  0  0  0  0  0  0  0  0  0  0
  186.8130  177.7470  145.9780 C   0  0  0  0  0  0  0  0  0  0  0  0
  185.1740  179.4660  143.7190 C   0  0  0  0  0  2  0  0  0  0  0  0
  184.4400  178.2940  144.3340 C   0  0  1  0  0  3  0  0  0  0  0  0
  185.8280  178.0980  143.7030 C   0  0  2  0  0  3  0  0  0  0  0  0
  184.4420  178.4550  145.8540 C   0  0  0  0  0  2  0  0  0  0  0  0
  185.3910  177.7180  147.8840 F   0  0  0  0  0  0  0  0  0  0  0  0
  186.9890  178.0450  144.6710 C   0  0  0  0  0  0  0  0  0  0  0  0
  185.4270  177.5010  146.5170 C   0  0  0  0  0  0  0  0  0  0  0  0
  187.9670  177.6040  146.8890 C   0  0  0  0  0  0  0  0  0  0  0  0
  188.1120  178.4310  147.8300 O   0  0  0  0  0  0  0  0  0  0  0  0
  188.5660  175.2860  146.6480 N   0  0  0  0  0  2  0  0  0  0  0  0
  188.9450  176.5160  146.7190 C   0  0  2  0  0  3  0  0  0  0  0  0
  189.6450  174.3210  146.5810 C   0  0  0  0  0  2  0  0  0  0  0  0
  190.8900  175.0060  147.1170 C   0  0  0  0  0  2  0  0  0  0  0  0
  190.7100  176.7810  146.7670 S   0  0  0  0  0  0  0  0  0  0  0  0
  188.3760  178.1800  144.0970 C   0  0  0  0  0  2  0  0  0  0  0  0
  187.9540  175.8870  143.2090 C   0  0  0  0  0  1  0  0  0  0  0  0
  188.6860  177.1960  142.9670 C   0  0  1  0  0  0  0  0  0  0  0  0
  188.3010  177.7260  141.7320 O   0  0  0  0  0  1  0  0  0  0  0  0
  190.1870  176.9450  142.9630 C   0  0  0  0  0  2  0  0  0  0  0  0
  190.4790  175.5880  143.2810 O   0  0  0  0  0  0  0  0  0  0  0  0
  191.7840  175.0960  143.3280 C   0  0  0  0  0  0  0  0  0  0  0  0
  192.0060  174.0060  143.9210 O   0  0  0  0  0  0  0  0  0  0  0  0
  193.2210  175.2930  141.4530 O   0  0  0  0  0  1  0  0  0  0  0  0
  192.9190  175.8450  142.7000 C   0  0  2  0  0  3  0  0  0  0  0  0
  194.1390  175.8000  143.6010 C   0  0  0  0  0  2  0  0  0  0  0  0
  195.0420  175.2880  146.2990 O   0  0  0  0  0  0  0  0  0  0  0  0
  194.4510  176.5070  145.9890 C   0  0  0  0  0  0  0  0  0  0  0  0
  194.0080  176.7820  144.6630 N   0  0  0  0  0  2  0  0  0  0  0  0
  194.3080  177.3770  146.8880 O   0  0  0  0  0  1  0  0  0  0  0  0
  1  9  1  0  0  0  0
  2  9  1  0  0  0  0
  2 10  1  0  0  0  0
  4  3  1  6  0  0  0
  4  6  1  0  0  0  0
  5  3  1  6  0  0  0
  5  4  1  0  0  0  0
  5  8  1  0  0  0  0
  6  9  1  0  0  0  0
  8  2  2  0  0  0  0
  9  7  1  0  0  0  0
 10 11  2  0  0  0  0
 12 13  1  0  0  0  0
 13 16  1  0  0  0  0
 13 10  1  1  0  0  0
 14 12  1  0  0  0  0
 14 15  1  0  0  0  0
 16 15  1  0  0  0  0
 17  8  1  0  0  0  0
 19 18  1  1  0  0  0
 19 17  1  0  0  0  0
 20 19  1  0  0  0  0
 21 19  1  0  0  0  0
 21 22  1  0  0  0  0
 22 23  1  0  0  0  0
 23 24  2  0  0  0  0
 26 25  1  6  0  0  0
 26 23  1  0  0  0  0
 26 27  1  0  0  0  0
 27 30  1  0  0  0  0
 29 28  2  0  0  0  0
 29 31  1  0  0  0  0
 30 29  1  0  0  0  0
M  END
>  <MODEL>
6

>  <REMARK>
 VINA RESULT:      -6.2      2.709      3.450
  Name = 
  10 active torsions:
  status: ('A' for Active; 'I' for Inactive)
    1  A    between atoms: C_4  and  N_18
    2  A    between atoms: C_4  and  C_23
    3  A    between atoms: C_6  and  C_22
    4  A    between atoms: C_7  and  C_12
    5  A    between atoms: C_7  and  C_28
    6  A    between atoms: C_9  and  C_22
    7  A    between atoms: C_12  and  C_14
    8  A    between atoms: C_14  and  O_15
    9  A    between atoms: O_15  and  C_24
   10  A    between atoms: C_23  and  C_24
                            x       y       z     vdW  Elec       q    Type
                         _______ _______ _______ _____ _____    ______ ____

>  <TORSDO>
F 10

$$$$
=
 OpenBabel11062420563D

 31 33  0  0  1  0  0  0  0  0999 V2000
  189.5000  173.3580  145.9670 F   0  0  0  0  0  0  0  0  0  0  0  0
  190.1110  175.1210  144.5090 C   0  0  0  0  0  0  0  0  0  0  0  0
  188.5640  177.3840  146.3050 C   0  0  0  0  0  2  0  0  0  0  0  0
  188.5410  175.9690  146.8430 C   0  0  1  0  0  3  0  0  0  0  0  0
  188.0730  176.2640  145.4090 C   0  0  2  0  0  3  0  0  0  0  0  0
  189.9790  175.4640  146.9590 C   0  0  0  0  0  2  0  0  0  0  0  0
  191.6330  174.0770  146.0080 F   0  0  0  0  0  0  0  0  0  0  0  0
  189.0770  175.9700  144.3160 C   0  0  0  0  0  0  0  0  0  0  0  0
  190.3150  174.4710  145.8540 C   0  0  0  0  0  0  0  0  0  0  0  0
  191.0260  174.7710  143.4020 C   0  0  0  0  0  0  0  0  0  0  0  0
  191.9760  175.5510  143.1230 O   0  0  0  0  0  0  0  0  0  0  0  0
  190.4130  173.5620  141.4140 N   0  0  0  0  0  2  0  0  0  0  0  0
  190.8480  173.5320  142.6270 C   0  0  2  0  0  3  0  0  0  0  0  0
  190.1960  172.2610  140.8130 C   0  0  0  0  0  2  0  0  0  0  0  0
  190.0670  171.2620  141.9500 C   0  0  0  0  0  2  0  0  0  0  0  0
  191.0520  171.9060  143.3360 S   0  0  0  0  0  0  0  0  0  0  0  0
  188.7960  176.5360  142.9470 C   0  0  0  0  0  2  0  0  0  0  0  0
  187.4680  176.4250  140.8370 C   0  0  0  0  0  1  0  0  0  0  0  0
  187.5280  175.9870  142.2910 C   0  0  1  0  0  0  0  0  0  0  0  0
  187.5000  174.5910  142.3610 O   0  0  0  0  0  1  0  0  0  0  0  0
  186.3300  176.5530  143.0410 C   0  0  0  0  0  2  0  0  0  0  0  0
  185.9700  177.8350  142.5350 O   0  0  0  0  0  0  0  0  0  0  0  0
  184.7440  178.4350  142.8260 C   0  0  0  0  0  0  0  0  0  0  0  0
  183.7310  178.1210  142.1450 O   0  0  0  0  0  0  0  0  0  0  0  0
  185.8850  179.8710  144.3290 O   0  0  0  0  0  1  0  0  0  0  0  0
  184.6170  179.4510  143.9200 C   0  0  2  0  0  3  0  0  0  0  0  0
  183.8570  178.8640  145.0950 C   0  0  0  0  0  2  0  0  0  0  0  0
  184.7950  176.5610  146.5700 O   0  0  0  0  0  0  0  0  0  0  0  0
  185.0930  177.8390  147.0260 C   0  0  0  0  0  0  0  0  0  0  0  0
  184.6470  178.9870  146.3080 N   0  0  0  0  0  2  0  0  0  0  0  0
  185.7630  177.9850  148.0810 O   0  0  0  0  0  1  0  0  0  0  0  0
  2  9  1  0  0  0  0
  4  3  1  1  0  0  0
  4  6  1  0  0  0  0
  5  3  1  1  0  0  0
  5  4  1  0  0  0  0
  8  2  2  0  0  0  0
  8  5  1  0  0  0  0
  9  1  1  0  0  0  0
  9  7  1  0  0  0  0
  9  6  1  0  0  0  0
 10  2  1  0  0  0  0
 11 10  2  0  0  0  0
 12 13  1  0  0  0  0
 13 16  1  0  0  0  0
 13 10  1  1  0  0  0
 14 12  1  0  0  0  0
 14 15  1  0  0  0  0
 15 16  1  0  0  0  0
 17  8  1  0  0  0  0
 19 18  1  6  0  0  0
 19 20  1  0  0  0  0
 19 17  1  0  0  0  0
 19 21  1  0  0  0  0
 22 23  1  0  0  0  0
 22 21  1  0  0  0  0
 23 26  1  0  0  0  0
 24 23  2  0  0  0  0
 26 25  1  1  0  0  0
 26 27  1  0  0  0  0
 27 30  1  0  0  0  0
 28 29  2  0  0  0  0
 29 31  1  0  0  0  0
 30 29  1  0  0  0  0
M  END
>  <MODEL>
7

>  <REMARK>
 VINA RESULT:      -6.2      2.857      5.627
  Name = 
  10 active torsions:
  status: ('A' for Active; 'I' for Inactive)
    1  A    between atoms: C_4  and  N_18
    2  A    between atoms: C_4  and  C_23
    3  A    between atoms: C_6  and  C_22
    4  A    between atoms: C_7  and  C_12
    5  A    between atoms: C_7  and  C_28
    6  A    between atoms: C_9  and  C_22
    7  A    between atoms: C_12  and  C_14
    8  A    between atoms: C_14  and  O_15
    9  A    between atoms: O_15  and  C_24
   10  A    between atoms: C_23  and  C_24
                            x       y       z     vdW  Elec       q    Type
                         _______ _______ _______ _____ _____    ______ ____

>  <TORSDO>
F 10

$$$$
=
 OpenBabel11062420563D

 31 33  0  0  1  0  0  0  0  0999 V2000
  186.1860  178.9780  144.1030 F   0  0  0  0  0  0  0  0  0  0  0  0
  187.8460  177.2910  144.1310 C   0  0  0  0  0  0  0  0  0  0  0  0
  187.2270  176.4820  147.2460 C   0  0  0  0  0  2  0  0  0  0  0  0
  186.3510  177.5600  146.6460 C   0  0  1  0  0  3  0  0  0  0  0  0
  187.8820  177.6880  146.6030 C   0  0  2  0  0  3  0  0  0  0  0  0
  185.7150  177.0200  145.3640 C   0  0  0  0  0  2  0  0  0  0  0  0
  185.7640  177.0580  143.0060 F   0  0  0  0  0  0  0  0  0  0  0  0
  188.5380  177.3100  145.2930 C   0  0  0  0  0  0  0  0  0  0  0  0
  186.3720  177.6070  144.1230 C   0  0  0  0  0  0  0  0  0  0  0  0
  188.5230  177.0130  142.8460 C   0  0  0  0  0  0  0  0  0  0  0  0
  188.9520  177.9790  142.1590 O   0  0  0  0  0  0  0  0  0  0  0  0
  187.7190  174.8060  142.3260 N   0  0  0  0  0  2  0  0  0  0  0  0
  188.7050  175.6350  142.3610 C   0  0  2  0  0  3  0  0  0  0  0  0
  188.0710  173.4600  141.9190 C   0  0  0  0  0  2  0  0  0  0  0  0
  189.5660  173.3050  142.1390 C   0  0  0  0  0  2  0  0  0  0  0  0
  190.3040  174.9560  141.9490 S   0  0  0  0  0  0  0  0  0  0  0  0
  190.0310  177.1080  145.2980 C   0  0  0  0  0  2  0  0  0  0  0  0
  190.7610  175.7640  147.2700 C   0  0  0  0  0  1  0  0  0  0  0  0
  190.4750  175.7250  145.7780 C   0  0  1  0  0  0  0  0  0  0  0  0
  189.4880  174.7700  145.5150 O   0  0  0  0  0  1  0  0  0  0  0  0
  191.7470  175.3550  145.0280 C   0  0  0  0  0  2  0  0  0  0  0  0
  192.4810  174.3560  145.7290 O   0  0  0  0  0  0  0  0  0  0  0  0
  192.9370  173.1910  145.1100 C   0  0  0  0  0  0  0  0  0  0  0  0
  192.0960  172.3860  144.6260 O   0  0  0  0  0  0  0  0  0  0  0  0
  194.6770  171.7040  145.7250 O   0  0  0  0  0  1  0  0  0  0  0  0
  194.3990  172.8790  145.0240 C   0  0  2  0  0  3  0  0  0  0  0  0
  195.2150  174.0280  145.5880 C   0  0  0  0  0  2  0  0  0  0  0  0
  194.9350  176.8900  145.2870 O   0  0  0  0  0  1  0  0  0  0  0  0
  195.6940  176.1720  144.3710 C   0  0  0  0  0  0  0  0  0  0  0  0
  195.8510  174.7620  144.5070 N   0  0  0  0  0  2  0  0  0  0  0  0
  196.2480  176.7720  143.4140 O   0  0  0  0  0  0  0  0  0  0  0  0
  1  9  1  0  0  0  0
  2  8  2  0  0  0  0
  4  6  1  6  0  0  0
  4  3  1  0  0  0  0
  5  4  1  0  0  0  0
  5  3  1  1  0  0  0
  7  9  1  0  0  0  0
  8 17  1  0  0  0  0
  8  5  1  0  0  0  0
  9  2  1  0  0  0  0
  9  6  1  0  0  0  0
 10  2  1  0  0  0  0
 11 10  2  0  0  0  0
 12 13  1  0  0  0  0
 13 10  1  1  0  0  0
 14 15  1  0  0  0  0
 14 12  1  0  0  0  0
 16 15  1  0  0  0  0
 16 13  1  0  0  0  0
 17 19  1  0  0  0  0
 19 18  1  1  0  0  0
 20 19  1  0  0  0  0
 21 22  1  0  0  0  0
 21 19  1  0  0  0  0
 23 22  1  0  0  0  0
 24 23  2  0  0  0  0
 26 23  1  0  0  0  0
 26 27  1  0  0  0  0
 26 25  1  1  0  0  0
 29 30  1  0  0  0  0
 29 28  1  0  0  0  0
 30 27  1  0  0  0  0
 31 29  2  0  0  0  0
M  END
>  <MODEL>
8

>  <REMARK>
 VINA RESULT:      -6.2      3.153      5.366
  Name = 
  10 active torsions:
  status: ('A' for Active; 'I' for Inactive)
    1  A    between atoms: C_4  and  N_18
    2  A    between atoms: C_4  and  C_23
    3  A    between atoms: C_6  and  C_22
    4  A    between atoms: C_7  and  C_12
    5  A    between atoms: C_7  and  C_28
    6  A    between atoms: C_9  and  C_22
    7  A    between atoms: C_12  and  C_14
    8  A    between atoms: C_14  and  O_15
    9  A    between atoms: O_15  and  C_24
   10  A    between atoms: C_23  and  C_24
                            x       y       z     vdW  Elec       q    Type
                         _______ _______ _______ _____ _____    ______ ____

>  <TORSDO>
F 10

$$$$
=
 OpenBabel11062420563D

 31 33  0  0  1  0  0  0  0  0999 V2000
  186.9670  176.3510  146.9740 F   0  0  0  0  0  0  0  0  0  0  0  0
  187.9730  177.6760  145.2910 C   0  0  0  0  0  0  0  0  0  0  0  0
  185.3350  179.5930  144.9690 C   0  0  0  0  0  2  0  0  0  0  0  0
  185.2580  178.5180  146.0320 C   0  0  1  0  0  3  0  0  0  0  0  0
  185.6200  178.1550  144.5820 C   0  0  2  0  0  3  0  0  0  0  0  0
  186.4520  178.6710  146.9730 C   0  0  0  0  0  2  0  0  0  0  0  0
  188.5620  177.8150  147.5900 F   0  0  0  0  0  0  0  0  0  0  0  0
  187.0940  177.9560  144.3030 C   0  0  0  0  0  0  0  0  0  0  0  0
  187.5050  177.6000  146.7210 C   0  0  0  0  0  0  0  0  0  0  0  0
  189.3910  177.3890  144.9880 C   0  0  0  0  0  0  0  0  0  0  0  0
  190.1990  178.3490  144.8710 O   0  0  0  0  0  0  0  0  0  0  0  0
  189.1580  175.0040  145.2080 N   0  0  0  0  0  2  0  0  0  0  0  0
  189.8730  176.0070  144.8260 C   0  0  2  0  0  3  0  0  0  0  0  0
  189.8030  173.7120  145.0760 C   0  0  0  0  0  2  0  0  0  0  0  0
  191.2990  173.9670  144.9990 C   0  0  0  0  0  2  0  0  0  0  0  0
  191.5180  175.6130  144.2570 S   0  0  0  0  0  0  0  0  0  0  0  0
  187.5260  177.9220  142.8590 C   0  0  0  0  0  2  0  0  0  0  0  0
  186.4440  175.6750  142.9580 C   0  0  0  0  0  1  0  0  0  0  0  0
  186.8820  176.8030  142.0380 C   0  0  1  0  0  0  0  0  0  0  0  0
  185.7770  177.2840  141.3290 O   0  0  0  0  0  1  0  0  0  0  0  0
  187.9230  176.2820  141.0570 C   0  0  0  0  0  2  0  0  0  0  0  0
  188.9500  175.5660  141.7350 O   0  0  0  0  0  0  0  0  0  0  0  0
  189.3920  174.3130  141.3090 C   0  0  0  0  0  0  0  0  0  0  0  0
  190.6210  174.1400  141.0860 O   0  0  0  0  0  0  0  0  0  0  0  0
  188.6420  172.1960  142.0690 O   0  0  0  0  0  1  0  0  0  0  0  0
  188.4340  173.1800  141.1010 C   0  0  2  0  0  3  0  0  0  0  0  0
  188.6090  172.5930  139.7130 C   0  0  0  0  0  2  0  0  0  0  0  0
  190.2180  173.3450  137.4320 O   0  0  0  0  0  1  0  0  0  0  0  0
  188.9570  173.9030  137.5990 C   0  0  0  0  0  0  0  0  0  0  0  0
  188.1440  173.5390  138.7120 N   0  0  0  0  0  2  0  0  0  0  0  0
  188.5270  174.7370  136.7600 O   0  0  0  0  0  0  0  0  0  0  0  0
  2  9  1  0  0  0  0
  4  3  1  6  0  0  0
  4  6  1  0  0  0  0
  5  3  1  6  0  0  0
  5  4  1  0  0  0  0
  8  5  1  0  0  0  0
  8  2  2  0  0  0  0
  9  6  1  0  0  0  0
  9  1  1  0  0  0  0
  9  7  1  0  0  0  0
 10  2  1  0  0  0  0
 11 10  2  0  0  0  0
 13 10  1  1  0  0  0
 13 12  1  0  0  0  0
 14 12  1  0  0  0  0
 15 14  1  0  0  0  0
 16 13  1  0  0  0  0
 16 15  1  0  0  0  0
 17  8  1  0  0  0  0
 19 17  1  0  0  0  0
 19 18  1  1  0  0  0
 20 19  1  0  0  0  0
 21 22  1  0  0  0  0
 21 19  1  0  0  0  0
 23 22  1  0  0  0  0
 24 23  2  0  0  0  0
 26 23  1  0  0  0  0
 26 25  1  1  0  0  0
 27 26  1  0  0  0  0
 28 29  1  0  0  0  0
 29 30  1  0  0  0  0
 30 27  1  0  0  0  0
 31 29  2  0  0  0  0
M  END
>  <MODEL>
9

>  <REMARK>
 VINA RESULT:      -6.2      2.037      3.211
  Name = 
  10 active torsions:
  status: ('A' for Active; 'I' for Inactive)
    1  A    between atoms: C_4  and  N_18
    2  A    between atoms: C_4  and  C_23
    3  A    between atoms: C_6  and  C_22
    4  A    between atoms: C_7  and  C_12
    5  A    between atoms: C_7  and  C_28
    6  A    between atoms: C_9  and  C_22
    7  A    between atoms: C_12  and  C_14
    8  A    between atoms: C_14  and  O_15
    9  A    between atoms: O_15  and  C_24
   10  A    between atoms: C_23  and  C_24
                            x       y       z     vdW  Elec       q    Type
                         _______ _______ _______ _____ _____    ______ ____

>  <TORSDO>
F 10

$$$$
