=
 OpenBabel11062418413D

 69 73  0  0  1  0  0  0  0  0999 V2000
  189.9630  171.1450  139.2380 C   0  0  1  0  0  3  0  0  0  0  0  0
  191.0990  171.9150  141.0780 C   0  0  0  0  0  0  0  0  0  0  0  0
  187.8140  172.2990  139.7970 C   0  0  0  0  0  1  0  0  0  0  0  0
  191.9810  171.9490  141.9750 O   0  0  0  0  0  0  0  0  0  0  0  0
  191.1170  171.0030  140.0460 O   0  0  0  0  0  0  0  0  0  0  0  0
  189.9200  172.8060  141.0350 C   0  0  2  0  0  3  0  0  0  0  0  0
  189.3130  172.4650  139.6760 C   0  0  1  0  0  3  0  0  0  0  0  0
  190.3360  171.1170  137.7570 C   0  0  2  0  0  3  0  0  0  0  0  0
  191.4300  170.2790  137.5270 O   0  0  0  0  0  1  0  0  0  0  0  0
  190.6310  172.5160  137.2450 C   0  0  0  0  0  2  0  0  0  0  0  0
  194.8120  174.9870  135.2690 C   0  0  0  0  0  0  0  0  0  0  0  0
  192.3440  174.1260  137.5890 C   0  0  0  0  0  2  0  0  0  0  0  0
  196.1590  175.3180  135.1540 O   0  0  0  0  0  1  0  0  0  0  0  0
  194.4670  173.7480  135.4610 C   0  0  0  0  0  0  0  0  0  0  0  0
  192.5180  172.4020  135.8430 C   0  0  0  0  0  2  0  0  0  0  0  0
  193.0220  176.1720  136.4610 N   0  0  0  0  0  2  0  0  0  0  0  0
  191.9760  175.1590  136.5210 C   0  0  0  0  0  2  0  0  0  0  0  0
  192.0680  172.7300  137.2020 N   0  0  0  0  0  0  0  0  0  0  0  0
  193.7310  176.0360  135.1890 C   0  0  1  0  0  3  0  0  0  0  0  0
  194.0000  172.5520  135.6810 C   0  0  0  0  0  0  0  0  0  0  0  0
  196.1650  171.7540  135.1010 O   0  0  0  0  0  1  0  0  0  0  0  0
  194.8800  171.3640  135.4810 C   0  0  1  0  0  3  0  0  0  0  0  0
  194.9260  170.4900  136.7030 C   0  0  0  0  0  0  0  0  0  0  0  0
  194.0760  169.6210  136.8560 O   0  0  0  0  0  0  0  0  0  0  0  0
  196.0460  169.4780  138.6960 C   0  0  0  0  0  3  0  0  0  0  0  0
  195.9910  171.8910  138.3800 O   0  0  0  0  0  0  0  0  0  0  0  0
  197.3650  170.5790  136.9580 C   0  0  0  0  0  1  0  0  0  0  0  0
  195.6410  169.6280  139.9110 N   0  0  0  0  0  0  0  0  0  0  0  0
  196.0500  170.6370  137.7130 C   0  0  2  0  0  0  0  0  0  0  0  0
  194.9220  171.8820  139.3030 C   0  0  1  0  0  3  0  0  0  0  0  0
  195.2410  170.9160  140.4390 C   0  0  0  0  0  2  0  0  0  0  0  0
  194.6920  173.2890  139.8320 C   0  0  0  0  0  2  0  0  0  0  0  0
  196.9200  173.9760  140.3390 O   0  0  0  0  0  0  0  0  0  0  0  0
  195.8940  175.1490  138.6180 N   0  0  0  0  0  1  0  0  0  0  0  0
  195.9020  174.1370  139.6180 C   0  0  0  0  0  0  0  0  0  0  0  0
  193.6160  178.4290  135.4150 O   0  0  0  0  0  1  0  0  0  0  0  0
  194.2590  177.3930  134.7320 C   0  0  0  0  0  2  0  0  0  0  0  0
  190.3320  174.2700  141.0600 C   0  0  0  0  0  2  0  0  0  0  0  0
  189.5900  175.0120  142.1620 C   0  0  1  0  0  3  0  0  0  0  0  0
  188.2090  175.4200  141.6390 C   0  0  1  0  0  3  0  0  0  0  0  0
  187.2020  175.2370  142.5940 O   0  0  0  0  0  1  0  0  0  0  0  0
  188.4440  177.9180  142.0640 C   0  0  0  0  0  1  0  0  0  0  0  0
  188.1880  176.8250  141.0360 C   0  0  2  0  0  3  0  0  0  0  0  0
  185.7700  177.6000  141.0200 N   0  0  0  0  0  1  0  0  0  0  0  0
  186.7910  176.7730  139.1050 O   0  0  0  0  0  0  0  0  0  0  0  0
  186.8960  177.0710  140.3220 C   0  0  0  0  0  0  0  0  0  0  0  0
  189.5260  174.1480  143.4250 C   0  0  0  0  0  2  0  0  0  0  0  0
  189.4420  174.9930  144.6890 C   0  0  0  0  0  2  0  0  0  0  0  0
  190.1850  176.2340  144.5360 N   0  0  0  0  0  0  0  0  0  0  0  0
  189.6370  177.1360  145.5350 C   0  0  0  0  0  2  0  0  0  0  0  0
  188.4340  176.5040  146.2320 C   0  0  0  0  0  2  0  0  0  0  0  0
  186.9230  178.1720  147.4250 C   0  0  0  0  0  3  0  0  0  0  0  0
  185.2680  178.3020  145.1770 C   0  0  0  0  0  0  0  0  0  0  0  0
  186.3990  177.4780  145.1650 C   0  0  0  0  0  3  0  0  0  0  0  0
  184.9660  179.0600  146.3120 C   0  0  0  0  0  3  0  0  0  0  0  0
  184.3860  178.3700  143.9840 C   0  0  0  0  0  1  0  0  0  0  0  0
  185.7930  178.9940  147.4350 C   0  0  0  0  0  3  0  0  0  0  0  0
  187.2350  177.4080  146.2860 C   0  0  0  0  0  0  0  0  0  0  0  0
  191.5580  175.9410  144.9260 C   0  0  0  0  0  2  0  0  0  0  0  0
  191.6560  174.5150  145.4500 C   0  0  0  0  0  2  0  0  0  0  0  0
  193.0040  174.2700  146.1050 C   0  0  0  0  0  2  0  0  0  0  0  0
  194.0060  173.7050  145.1060 C   0  0  1  0  0  0  0  0  0  0  0  0
  195.3290  173.7970  145.5660 O   0  0  0  0  0  0  0  0  0  0  0  0
  194.7640  172.5050  145.5060 C   0  0  0  0  0  2  0  0  0  0  0  0
  193.8910  173.9960  143.6160 C   0  0  0  0  0  2  0  0  0  0  0  0
  195.0130  174.9190  143.1640 C   0  0  0  0  0  2  0  0  0  0  0  0
  195.3190  176.7190  141.6240 F   0  0  0  0  0  0  0  0  0  0  0  0
  194.4680  176.2220  142.5960 C   0  0  0  0  0  3  0  0  0  0  0  0
  193.2030  176.0350  142.0710 F   0  0  0  0  0  0  0  0  0  0  0  0
  1  8  1  6  0  0  0
  1  7  1  0  0  0  0
  1  5  1  0  0  0  0
  2  4  2  0  0  0  0
  5  2  1  0  0  0  0
  6 38  1  6  0  0  0
  6  2  1  0  0  0  0
  7  3  1  1  0  0  0
  7  6  1  0  0  0  0
  8  9  1  1  0  0  0
 10  8  1  0  0  0  0
 11 14  2  0  0  0  0
 13 11  1  0  0  0  0
 14 20  2  0  0  0  0
 15 18  1  0  0  0  0
 16 17  1  0  0  0  0
 17 12  1  0  0  0  0
 18 10  1  0  0  0  0
 18 12  1  0  0  0  0
 19 37  1  1  0  0  0
 19 11  1  0  0  0  0
 19 16  1  0  0  0  0
 20 15  1  0  0  0  0
 22 21  1  1  0  0  0
 22 20  1  0  0  0  0
 22 23  1  0  0  0  0
 23 24  2  0  0  0  0
 23 29  1  0  0  0  0
 25 28  2  0  0  0  0
 26 30  1  0  0  0  0
 28 31  1  0  0  0  0
 29 27  1  6  0  0  0
 29 26  1  0  0  0  0
 29 25  1  0  0  0  0
 30 32  1  1  0  0  0
 30 31  1  0  0  0  0
 34 35  1  0  0  0  0
 35 32  1  0  0  0  0
 35 33  2  0  0  0  0
 37 36  1  0  0  0  0
 39 38  1  6  0  0  0
 39 47  1  0  0  0  0
 40 39  1  0  0  0  0
 40 41  1  1  0  0  0
 43 40  1  0  0  0  0
 43 42  1  1  0  0  0
 45 46  2  0  0  0  0
 46 44  1  0  0  0  0
 46 43  1  0  0  0  0
 47 48  1  0  0  0  0
 49 48  1  0  0  0  0
 49 59  1  0  0  0  0
 49 50  1  0  0  0  0
 50 51  1  0  0  0  0
 51 58  1  0  0  0  0
 52 57  1  0  0  0  0
 53 55  1  0  0  0  0
 54 53  2  0  0  0  0
 54 58  1  0  0  0  0
 55 57  2  0  0  0  0
 56 53  1  0  0  0  0
 58 52  2  0  0  0  0
 59 60  1  0  0  0  0
 60 61  1  0  0  0  0
 62 65  1  6  0  0  0
 62 64  1  0  0  0  0
 62 63  1  0  0  0  0
 62 61  1  0  0  0  0
 64 63  1  0  0  0  0
 66 65  1  0  0  0  0
 67 68  1  0  0  0  0
 68 66  1  0  0  0  0
 69 68  1  0  0  0  0
M  END
>  <MODEL>
1

>  <REMARK>
 VINA RESULT:      -5.4      0.000      0.000
  Name = 
  27 active torsions:
  status: ('A' for Active; 'I' for Inactive)
    1  A    between atoms: C_1  and  N_15
    2  A    between atoms: C_1  and  C_54
    3  A    between atoms: C_2  and  C_6
    4  A    between atoms: C_2  and  C_54
    5  A    between atoms: C_6  and  C_27
    6  A    between atoms: C_10  and  C_61
    7  A    between atoms: C_10  and  C_69
    8  A    between atoms: N_15  and  C_61
    9  A    between atoms: N_15  and  C_66
   10  A    between atoms: C_18  and  C_36
   11  A    between atoms: C_23  and  C_42
   12  A    between atoms: C_23  and  C_46
   13  A    between atoms: C_25  and  C_30
   14  A    between atoms: C_25  and  C_67
   15  A    between atoms: C_26  and  C_39
   16  A    between atoms: C_26  and  C_51
   17  A    between atoms: C_27  and  C_36
   18  A    between atoms: C_29  and  C_43
   19  A    between atoms: C_35  and  C_51
   20  A    between atoms: C_35  and  C_66
   21  A    between atoms: C_39  and  C_53
   22  A    between atoms: C_42  and  C_60
   23  A    between atoms: C_43  and  C_50
   24  A    between atoms: C_45  and  C_55
   25  A    between atoms: C_51  and  C_68
   26  A    between atoms: N_52  and  C_67
   27  A    between atoms: C_64  and  C_68
                            x       y       z     vdW  Elec       q    Type
                         _______ _______ _______ _____ _____    ______ ____

>  <TORSDO>
F 27

$$$$
=
 OpenBabel11062418413D

 69 73  0  0  1  0  0  0  0  0999 V2000
  190.8820  172.6850  141.7880 C   0  0  1  0  0  3  0  0  0  0  0  0
  191.9000  170.8900  142.7920 C   0  0  0  0  0  0  0  0  0  0  0  0
  193.0140  173.7940  141.0870 C   0  0  0  0  0  1  0  0  0  0  0  0
  192.0310  169.9020  143.5620 O   0  0  0  0  0  0  0  0  0  0  0  0
  190.7140  171.5760  142.6530 O   0  0  0  0  0  0  0  0  0  0  0  0
  192.9940  171.4640  141.9800 C   0  0  2  0  0  3  0  0  0  0  0  0
  192.2520  172.4860  141.1240 C   0  0  1  0  0  3  0  0  0  0  0  0
  189.7320  172.7660  140.7870 C   0  0  2  0  0  3  0  0  0  0  0  0
  190.1570  172.4220  139.5010 O   0  0  0  0  0  1  0  0  0  0  0  0
  189.1130  174.1530  140.7800 C   0  0  0  0  0  2  0  0  0  0  0  0
  187.6760  177.7910  144.2720 C   0  0  0  0  0  0  0  0  0  0  0  0
  187.9070  174.6450  142.7670 C   0  0  0  0  0  2  0  0  0  0  0  0
  187.6510  178.4300  145.5070 O   0  0  0  0  0  1  0  0  0  0  0  0
  188.8040  177.3480  143.7970 C   0  0  0  0  0  0  0  0  0  0  0  0
  189.6790  176.1290  141.9260 C   0  0  0  0  0  2  0  0  0  0  0  0
  186.0930  176.1630  143.3370 N   0  0  0  0  0  2  0  0  0  0  0  0
  186.8510  175.6100  142.2210 C   0  0  0  0  0  2  0  0  0  0  0  0
  189.2200  174.7450  142.1030 N   0  0  0  0  0  0  0  0  0  0  0  0
  186.4190  177.5840  143.4630 C   0  0  1  0  0  3  0  0  0  0  0  0
  189.8620  176.8410  143.2320 C   0  0  0  0  0  0  0  0  0  0  0  0
  191.3510  178.6040  143.8070 O   0  0  0  0  0  1  0  0  0  0  0  0
  191.2180  177.2170  143.7240 C   0  0  1  0  0  3  0  0  0  0  0  0
  191.5350  176.5690  145.0430 C   0  0  0  0  0  0  0  0  0  0  0  0
  191.0590  177.0320  146.0720 O   0  0  0  0  0  0  0  0  0  0  0  0
  193.1100  175.2140  146.4340 C   0  0  0  0  0  3  0  0  0  0  0  0
  193.2960  175.2520  144.0070 O   0  0  0  0  0  0  0  0  0  0  0  0
  191.4630  174.1170  144.9990 C   0  0  0  0  0  1  0  0  0  0  0  0
  194.3740  175.4460  146.5340 N   0  0  0  0  0  0  0  0  0  0  0  0
  192.3890  175.3150  145.0990 C   0  0  2  0  0  0  0  0  0  0  0  0
  194.3370  176.1860  144.2060 C   0  0  1  0  0  3  0  0  0  0  0  0
  195.2000  175.7390  145.3810 C   0  0  0  0  0  2  0  0  0  0  0  0
  195.1650  176.3060  142.9360 C   0  0  0  0  0  2  0  0  0  0  0  0
  196.0960  174.1290  142.6540 O   0  0  0  0  0  0  0  0  0  0  0  0
  197.5990  175.7630  143.3320 N   0  0  0  0  0  1  0  0  0  0  0  0
  196.2970  175.3340  142.9510 C   0  0  0  0  0  0  0  0  0  0  0  0
  184.1220  178.2380  143.1730 O   0  0  0  0  0  1  0  0  0  0  0  0
  185.2250  178.3510  144.0230 C   0  0  0  0  0  2  0  0  0  0  0  0
  193.6320  170.4110  141.0870 C   0  0  0  0  0  2  0  0  0  0  0  0
  195.1240  170.3070  141.3690 C   0  0  1  0  0  3  0  0  0  0  0  0
  195.5090  168.8280  141.4550 C   0  0  1  0  0  3  0  0  0  0  0  0
  196.5000  168.4800  140.5280 O   0  0  0  0  0  1  0  0  0  0  0  0
  194.6340  168.1660  143.7500 C   0  0  0  0  0  1  0  0  0  0  0  0
  195.8600  168.3810  142.8750 C   0  0  2  0  0  3  0  0  0  0  0  0
  196.4530  169.9880  144.7500 N   0  0  0  0  0  1  0  0  0  0  0  0
  197.8740  169.6560  142.9420 O   0  0  0  0  0  0  0  0  0  0  0  0
  196.7940  169.3590  143.5160 C   0  0  0  0  0  0  0  0  0  0  0  0
  195.9130  171.0770  140.3050 C   0  0  0  0  0  2  0  0  0  0  0  0
  195.0810  171.3360  139.0560 C   0  0  0  0  0  2  0  0  0  0  0  0
  195.9010  171.2450  137.8580 N   0  0  0  0  0  0  0  0  0  0  0  0
  195.1720  170.3660  136.9600 C   0  0  0  0  0  2  0  0  0  0  0  0
  194.3220  171.1770  135.9820 C   0  0  0  0  0  2  0  0  0  0  0  0
  192.3000  169.7900  136.6730 C   0  0  0  0  0  3  0  0  0  0  0  0
  190.6040  171.9110  136.0160 C   0  0  0  0  0  0  0  0  0  0  0  0
  191.9870  172.0470  135.8530 C   0  0  0  0  0  3  0  0  0  0  0  0
  190.0700  170.7160  136.5080 C   0  0  0  0  0  3  0  0  0  0  0  0
  189.7010  173.0360  135.6650 C   0  0  0  0  0  1  0  0  0  0  0  0
  190.9190  169.6560  136.8350 C   0  0  0  0  0  3  0  0  0  0  0  0
  192.8450  170.9900  136.1820 C   0  0  0  0  0  0  0  0  0  0  0  0
  195.8990  172.5730  137.2580 C   0  0  0  0  0  2  0  0  0  0  0  0
  195.4280  173.6020  138.2760 C   0  0  0  0  0  2  0  0  0  0  0  0
  195.7700  175.0100  137.8200 C   0  0  0  0  0  2  0  0  0  0  0  0
  195.5600  175.1680  136.3190 C   0  0  1  0  0  0  0  0  0  0  0  0
  196.2030  176.3060  135.8060 O   0  0  0  0  0  0  0  0  0  0  0  0
  196.7470  175.0530  135.4490 C   0  0  0  0  0  2  0  0  0  0  0  0
  194.1980  174.9360  135.6790 C   0  0  0  0  0  2  0  0  0  0  0  0
  193.1460  175.8270  136.3230 C   0  0  0  0  0  2  0  0  0  0  0  0
  191.2230  176.8150  135.3090 F   0  0  0  0  0  0  0  0  0  0  0  0
  192.6060  176.8530  135.3380 C   0  0  0  0  0  3  0  0  0  0  0  0
  193.0410  178.1230  135.6670 F   0  0  0  0  0  0  0  0  0  0  0  0
  1  8  1  6  0  0  0
  1  5  1  0  0  0  0
  2  4  2  0  0  0  0
  5  2  1  0  0  0  0
  6 38  1  6  0  0  0
  6  2  1  0  0  0  0
  7  3  1  1  0  0  0
  7  1  1  0  0  0  0
  7  6  1  0  0  0  0
  8  9  1  6  0  0  0
 10  8  1  0  0  0  0
 10 18  1  0  0  0  0
 11 13  1  0  0  0  0
 14 11  2  0  0  0  0
 15 18  1  0  0  0  0
 15 20  1  0  0  0  0
 16 19  1  0  0  0  0
 17 12  1  0  0  0  0
 17 16  1  0  0  0  0
 18 12  1  0  0  0  0
 19 37  1  1  0  0  0
 19 11  1  0  0  0  0
 20 22  1  0  0  0  0
 20 14  2  0  0  0  0
 22 21  1  1  0  0  0
 22 23  1  0  0  0  0
 23 29  1  0  0  0  0
 23 24  2  0  0  0  0
 25 28  2  0  0  0  0
 26 30  1  0  0  0  0
 26 29  1  0  0  0  0
 29 27  1  6  0  0  0
 29 25  1  0  0  0  0
 30 32  1  6  0  0  0
 30 31  1  0  0  0  0
 31 28  1  0  0  0  0
 32 35  1  0  0  0  0
 33 35  2  0  0  0  0
 35 34  1  0  0  0  0
 36 37  1  0  0  0  0
 38 39  1  0  0  0  0
 39 47  1  6  0  0  0
 39 40  1  0  0  0  0
 40 41  1  6  0  0  0
 40 43  1  0  0  0  0
 43 46  1  0  0  0  0
 43 42  1  1  0  0  0
 45 46  2  0  0  0  0
 46 44  1  0  0  0  0
 48 47  1  0  0  0  0
 49 48  1  0  0  0  0
 50 49  1  0  0  0  0
 51 58  1  0  0  0  0
 51 50  1  0  0  0  0
 52 57  1  0  0  0  0
 53 55  1  0  0  0  0
 54 53  2  0  0  0  0
 54 58  1  0  0  0  0
 55 57  2  0  0  0  0
 56 53  1  0  0  0  0
 58 52  2  0  0  0  0
 59 49  1  0  0  0  0
 59 60  1  0  0  0  0
 61 60  1  0  0  0  0
 62 65  1  6  0  0  0
 62 61  1  0  0  0  0
 63 62  1  0  0  0  0
 64 63  1  0  0  0  0
 64 62  1  0  0  0  0
 65 66  1  0  0  0  0
 67 68  1  0  0  0  0
 68 69  1  0  0  0  0
 68 66  1  0  0  0  0
M  END
>  <MODEL>
2

>  <REMARK>
 VINA RESULT:      -5.0      2.715      9.502
  Name = 
  27 active torsions:
  status: ('A' for Active; 'I' for Inactive)
    1  A    between atoms: C_1  and  N_15
    2  A    between atoms: C_1  and  C_54
    3  A    between atoms: C_2  and  C_6
    4  A    between atoms: C_2  and  C_54
    5  A    between atoms: C_6  and  C_27
    6  A    between atoms: C_10  and  C_61
    7  A    between atoms: C_10  and  C_69
    8  A    between atoms: N_15  and  C_61
    9  A    between atoms: N_15  and  C_66
   10  A    between atoms: C_18  and  C_36
   11  A    between atoms: C_23  and  C_42
   12  A    between atoms: C_23  and  C_46
   13  A    between atoms: C_25  and  C_30
   14  A    between atoms: C_25  and  C_67
   15  A    between atoms: C_26  and  C_39
   16  A    between atoms: C_26  and  C_51
   17  A    between atoms: C_27  and  C_36
   18  A    between atoms: C_29  and  C_43
   19  A    between atoms: C_35  and  C_51
   20  A    between atoms: C_35  and  C_66
   21  A    between atoms: C_39  and  C_53
   22  A    between atoms: C_42  and  C_60
   23  A    between atoms: C_43  and  C_50
   24  A    between atoms: C_45  and  C_55
   25  A    between atoms: C_51  and  C_68
   26  A    between atoms: N_52  and  C_67
   27  A    between atoms: C_64  and  C_68
                            x       y       z     vdW  Elec       q    Type
                         _______ _______ _______ _____ _____    ______ ____

>  <TORSDO>
F 27

$$$$
=
 OpenBabel11062418413D

 69 73  0  0  1  0  0  0  0  0999 V2000
  192.3600  168.9370  137.9910 C   0  0  1  0  0  3  0  0  0  0  0  0
  193.2190  168.6510  140.1000 C   0  0  0  0  0  0  0  0  0  0  0  0
  190.2170  169.9810  138.7570 C   0  0  0  0  0  1  0  0  0  0  0  0
  193.9410  168.1670  141.0110 O   0  0  0  0  0  0  0  0  0  0  0  0
  193.3550  168.3030  138.7750 O   0  0  0  0  0  0  0  0  0  0  0  0
  192.1170  169.6090  140.3320 C   0  0  2  0  0  3  0  0  0  0  0  0
  191.7240  169.9920  138.9080 C   0  0  1  0  0  3  0  0  0  0  0  0
  192.9700  169.5290  136.7230 C   0  0  2  0  0  3  0  0  0  0  0  0
  194.2720  169.9830  136.9520 O   0  0  0  0  0  1  0  0  0  0  0  0
  192.1100  170.6580  136.1810 C   0  0  0  0  0  2  0  0  0  0  0  0
  192.5790  175.8250  135.4210 C   0  0  0  0  0  0  0  0  0  0  0  0
  191.6210  172.8430  136.9730 C   0  0  0  0  0  2  0  0  0  0  0  0
  193.0340  177.1130  135.6810 O   0  0  0  0  0  1  0  0  0  0  0  0
  193.3980  174.8180  135.5200 C   0  0  0  0  0  0  0  0  0  0  0  0
  193.4270  172.4250  135.3570 C   0  0  0  0  0  2  0  0  0  0  0  0
  190.4540  174.7730  136.0620 N   0  0  0  0  0  2  0  0  0  0  0  0
  190.7350  173.3610  135.8370 C   0  0  0  0  0  2  0  0  0  0  0  0
  192.6990  171.9380  136.5360 N   0  0  0  0  0  0  0  0  0  0  0  0
  191.1450  175.5550  135.0370 C   0  0  1  0  0  3  0  0  0  0  0  0
  194.1130  173.7340  135.6110 C   0  0  0  0  0  0  0  0  0  0  0  0
  196.1090  174.4200  134.5150 O   0  0  0  0  0  1  0  0  0  0  0  0
  195.6000  173.8280  135.6720 C   0  0  1  0  0  3  0  0  0  0  0  0
  196.0650  174.5630  136.8970 C   0  0  0  0  0  0  0  0  0  0  0  0
  196.0190  175.7860  136.9210 O   0  0  0  0  0  0  0  0  0  0  0  0
  195.6610  172.5740  138.3580 C   0  0  0  0  0  3  0  0  0  0  0  0
  196.5830  174.6330  139.2720 O   0  0  0  0  0  0  0  0  0  0  0  0
  197.9400  173.3000  137.8520 C   0  0  0  0  0  1  0  0  0  0  0  0
  194.7970  172.5380  139.3130 N   0  0  0  0  0  0  0  0  0  0  0  0
  196.5320  173.7970  138.1230 C   0  0  2  0  0  0  0  0  0  0  0  0
  195.2710  174.9000  139.7180 C   0  0  1  0  0  3  0  0  0  0  0  0
  194.6510  173.6190  140.2660 C   0  0  0  0  0  2  0  0  0  0  0  0
  195.3030  175.9880  140.7790 C   0  0  0  0  0  2  0  0  0  0  0  0
  196.5450  174.5080  142.1780 O   0  0  0  0  0  0  0  0  0  0  0  0
  197.0970  176.7540  142.3840 N   0  0  0  0  0  1  0  0  0  0  0  0
  196.3470  175.6930  141.8050 C   0  0  0  0  0  0  0  0  0  0  0  0
  188.9900  176.5940  134.7760 O   0  0  0  0  0  1  0  0  0  0  0  0
  190.3670  176.8320  134.7330 C   0  0  0  0  0  2  0  0  0  0  0  0
  192.6020  170.8400  141.0810 C   0  0  0  0  0  2  0  0  0  0  0  0
  191.5250  171.3430  142.0310 C   0  0  1  0  0  3  0  0  0  0  0  0
  192.1070  171.4130  143.4460 C   0  0  1  0  0  3  0  0  0  0  0  0
  191.1590  171.1070  144.4290 O   0  0  0  0  0  1  0  0  0  0  0  0
  193.1770  169.2870  144.3450 C   0  0  0  0  0  1  0  0  0  0  0  0
  193.3930  170.5990  143.6050 C   0  0  2  0  0  3  0  0  0  0  0  0
  194.2890  171.8250  145.6410 N   0  0  0  0  0  1  0  0  0  0  0  0
  195.4680  171.7720  143.6400 O   0  0  0  0  0  0  0  0  0  0  0  0
  194.4480  171.4150  144.2830 C   0  0  0  0  0  0  0  0  0  0  0  0
  190.9740  172.6840  141.5380 C   0  0  0  0  0  2  0  0  0  0  0  0
  189.8540  173.2030  142.4290 C   0  0  0  0  0  2  0  0  0  0  0  0
  190.0620  174.6030  142.7630 N   0  0  0  0  0  0  0  0  0  0  0  0
  191.3210  174.9660  142.1340 C   0  0  0  0  0  2  0  0  0  0  0  0
  191.8100  176.3190  142.6480 C   0  0  0  0  0  2  0  0  0  0  0  0
  193.7860  176.5630  144.2380 C   0  0  0  0  0  3  0  0  0  0  0  0
  192.1830  175.7470  146.3770 C   0  0  0  0  0  0  0  0  0  0  0  0
  191.6390  175.8360  145.0900 C   0  0  0  0  0  3  0  0  0  0  0  0
  193.5270  176.0660  146.5920 C   0  0  0  0  0  3  0  0  0  0  0  0
  191.3340  175.3110  147.5140 C   0  0  0  0  0  1  0  0  0  0  0  0
  194.3280  176.4730  145.5230 C   0  0  0  0  0  3  0  0  0  0  0  0
  192.4340  176.2460  144.0130 C   0  0  0  0  0  0  0  0  0  0  0  0
  189.0100  175.3480  142.0830 C   0  0  0  0  0  2  0  0  0  0  0  0
  187.6710  175.0920  142.7610 C   0  0  0  0  0  2  0  0  0  0  0  0
  186.6980  176.2250  142.4830 C   0  0  0  0  0  2  0  0  0  0  0  0
  187.2760  177.5650  142.9230 C   0  0  1  0  0  0  0  0  0  0  0  0
  187.8900  178.2540  141.8650 O   0  0  0  0  0  0  0  0  0  0  0  0
  186.6760  178.7850  142.3520 C   0  0  0  0  0  2  0  0  0  0  0  0
  188.0450  177.7070  144.2300 C   0  0  0  0  0  2  0  0  0  0  0  0
  187.1420  177.4050  145.4160 C   0  0  0  0  0  2  0  0  0  0  0  0
  188.9590  177.1260  146.9410 F   0  0  0  0  0  0  0  0  0  0  0  0
  187.8350  176.5030  146.4280 C   0  0  0  0  0  3  0  0  0  0  0  0
  186.9700  176.1620  147.4510 F   0  0  0  0  0  0  0  0  0  0  0  0
  1  8  1  6  0  0  0
  1  5  1  0  0  0  0
  1  7  1  0  0  0  0
  2  6  1  0  0  0  0
  2  4  2  0  0  0  0
  5  2  1  0  0  0  0
  6 38  1  1  0  0  0
  7  3  1  1  0  0  0
  7  6  1  0  0  0  0
  8  9  1  1  0  0  0
 10 18  1  0  0  0  0
 10  8  1  0  0  0  0
 11 14  2  0  0  0  0
 11 13  1  0  0  0  0
 14 20  2  0  0  0  0
 15 20  1  0  0  0  0
 15 18  1  0  0  0  0
 17 16  1  0  0  0  0
 17 12  1  0  0  0  0
 18 12  1  0  0  0  0
 19 37  1  1  0  0  0
 19 11  1  0  0  0  0
 19 16  1  0  0  0  0
 20 22  1  0  0  0  0
 22 21  1  6  0  0  0
 22 23  1  0  0  0  0
 23 24  2  0  0  0  0
 23 29  1  0  0  0  0
 25 28  2  0  0  0  0
 26 30  1  0  0  0  0
 28 31  1  0  0  0  0
 29 27  1  6  0  0  0
 29 25  1  0  0  0  0
 29 26  1  0  0  0  0
 30 31  1  0  0  0  0
 30 32  1  1  0  0  0
 32 35  1  0  0  0  0
 35 33  2  0  0  0  0
 35 34  1  0  0  0  0
 37 36  1  0  0  0  0
 39 38  1  6  0  0  0
 39 40  1  0  0  0  0
 40 43  1  0  0  0  0
 40 41  1  1  0  0  0
 43 46  1  0  0  0  0
 43 42  1  1  0  0  0
 45 46  2  0  0  0  0
 46 44  1  0  0  0  0
 47 39  1  0  0  0  0
 47 48  1  0  0  0  0
 48 49  1  0  0  0  0
 50 51  1  0  0  0  0
 50 49  1  0  0  0  0
 51 58  1  0  0  0  0
 52 57  1  0  0  0  0
 53 55  1  0  0  0  0
 53 56  1  0  0  0  0
 54 53  2  0  0  0  0
 57 55  2  0  0  0  0
 58 52  2  0  0  0  0
 58 54  1  0  0  0  0
 59 60  1  0  0  0  0
 59 49  1  0  0  0  0
 61 60  1  0  0  0  0
 62 61  1  6  0  0  0
 62 65  1  0  0  0  0
 63 64  1  0  0  0  0
 63 62  1  0  0  0  0
 64 62  1  0  0  0  0
 65 66  1  0  0  0  0
 66 68  1  0  0  0  0
 68 67  1  0  0  0  0
 68 69  1  0  0  0  0
M  END
>  <MODEL>
3

>  <REMARK>
 VINA RESULT:      -4.9      2.553      5.628
  Name = 
  27 active torsions:
  status: ('A' for Active; 'I' for Inactive)
    1  A    between atoms: C_1  and  N_15
    2  A    between atoms: C_1  and  C_54
    3  A    between atoms: C_2  and  C_6
    4  A    between atoms: C_2  and  C_54
    5  A    between atoms: C_6  and  C_27
    6  A    between atoms: C_10  and  C_61
    7  A    between atoms: C_10  and  C_69
    8  A    between atoms: N_15  and  C_61
    9  A    between atoms: N_15  and  C_66
   10  A    between atoms: C_18  and  C_36
   11  A    between atoms: C_23  and  C_42
   12  A    between atoms: C_23  and  C_46
   13  A    between atoms: C_25  and  C_30
   14  A    between atoms: C_25  and  C_67
   15  A    between atoms: C_26  and  C_39
   16  A    between atoms: C_26  and  C_51
   17  A    between atoms: C_27  and  C_36
   18  A    between atoms: C_29  and  C_43
   19  A    between atoms: C_35  and  C_51
   20  A    between atoms: C_35  and  C_66
   21  A    between atoms: C_39  and  C_53
   22  A    between atoms: C_42  and  C_60
   23  A    between atoms: C_43  and  C_50
   24  A    between atoms: C_45  and  C_55
   25  A    between atoms: C_51  and  C_68
   26  A    between atoms: N_52  and  C_67
   27  A    between atoms: C_64  and  C_68
                            x       y       z     vdW  Elec       q    Type
                         _______ _______ _______ _____ _____    ______ ____

>  <TORSDO>
F 27

$$$$
=
 OpenBabel11062418413D

 69 73  0  0  1  0  0  0  0  0999 V2000
  190.2960  173.1900  141.4860 C   0  0  1  0  0  3  0  0  0  0  0  0
  190.1800  172.9330  139.2080 C   0  0  0  0  0  0  0  0  0  0  0  0
  189.6220  175.6010  141.4780 C   0  0  0  0  0  1  0  0  0  0  0  0
  190.4110  172.4310  138.0770 O   0  0  0  0  0  0  0  0  0  0  0  0
  190.6320  172.3710  140.3810 O   0  0  0  0  0  0  0  0  0  0  0  0
  189.4400  174.1950  139.4250 C   0  0  2  0  0  3  0  0  0  0  0  0
  189.2960  174.2220  140.9440 C   0  0  1  0  0  3  0  0  0  0  0  0
  189.7340  172.3480  142.6290 C   0  0  2  0  0  3  0  0  0  0  0  0
  188.4400  171.9050  142.3410 O   0  0  0  0  0  1  0  0  0  0  0  0
  189.7410  173.1260  143.9330 C   0  0  0  0  0  2  0  0  0  0  0  0
  194.4040  174.7820  145.6690 C   0  0  0  0  0  0  0  0  0  0  0  0
  191.0530  173.7970  145.7970 C   0  0  0  0  0  2  0  0  0  0  0  0
  195.6120  174.6940  146.3520 O   0  0  0  0  0  1  0  0  0  0  0  0
  193.9710  173.7610  144.9870 C   0  0  0  0  0  0  0  0  0  0  0  0
  192.0800  173.0660  143.6860 C   0  0  0  0  0  2  0  0  0  0  0  0
  192.2910  175.8070  146.3860 N   0  0  0  0  0  2  0  0  0  0  0  0
  191.3440  175.2530  145.4250 C   0  0  0  0  0  2  0  0  0  0  0  0
  190.9840  172.8790  144.6450 N   0  0  0  0  0  0  0  0  0  0  0  0
  193.5650  176.0360  145.7060 C   0  0  1  0  0  3  0  0  0  0  0  0
  193.4240  172.8020  144.2970 C   0  0  0  0  0  0  0  0  0  0  0  0
  193.4230  170.5070  143.6720 O   0  0  0  0  0  1  0  0  0  0  0  0
  194.2370  171.6190  143.8960 C   0  0  1  0  0  3  0  0  0  0  0  0
  195.0900  171.9080  142.6920 C   0  0  0  0  0  0  0  0  0  0  0  0
  194.5630  172.3080  141.6620 O   0  0  0  0  0  0  0  0  0  0  0  0
  197.0400  171.4270  144.1820 C   0  0  0  0  0  3  0  0  0  0  0  0
  197.2580  172.9270  142.2770 O   0  0  0  0  0  0  0  0  0  0  0  0
  197.0010  170.6000  141.8820 C   0  0  0  0  0  1  0  0  0  0  0  0
  197.6110  172.3030  144.9350 N   0  0  0  0  0  0  0  0  0  0  0  0
  196.6000  171.7660  142.7670 C   0  0  2  0  0  0  0  0  0  0  0  0
  197.1310  173.9720  143.2170 C   0  0  1  0  0  3  0  0  0  0  0  0
  197.9400  173.6320  144.4640 C   0  0  0  0  0  2  0  0  0  0  0  0
  197.6040  175.2770  142.5980 C   0  0  0  0  0  2  0  0  0  0  0  0
  196.7550  176.3670  140.6540 O   0  0  0  0  0  0  0  0  0  0  0  0
  195.2040  176.0220  142.3480 N   0  0  0  0  0  1  0  0  0  0  0  0
  196.5130  175.9090  141.8000 C   0  0  0  0  0  0  0  0  0  0  0  0
  195.1980  177.7830  145.4330 O   0  0  0  0  0  1  0  0  0  0  0  0
  194.2960  177.2150  146.3390 C   0  0  0  0  0  2  0  0  0  0  0  0
  188.0640  174.1480  138.7790 C   0  0  0  0  0  2  0  0  0  0  0  0
  187.6070  175.5490  138.4000 C   0  0  1  0  0  3  0  0  0  0  0  0
  187.0030  175.5080  136.9930 C   0  0  1  0  0  3  0  0  0  0  0  0
  185.6300  175.7770  136.9930 O   0  0  0  0  0  1  0  0  0  0  0  0
  186.8720  176.9390  134.8930 C   0  0  0  0  0  1  0  0  0  0  0  0
  187.7650  176.3750  135.9890 C   0  0  2  0  0  3  0  0  0  0  0  0
  189.9630  176.2900  134.7210 N   0  0  0  0  0  1  0  0  0  0  0  0
  188.9110  174.3540  135.4550 O   0  0  0  0  0  0  0  0  0  0  0  0
  188.9050  175.6100  135.3940 C   0  0  0  0  0  0  0  0  0  0  0  0
  186.6380  176.0880  139.4570 C   0  0  0  0  0  2  0  0  0  0  0  0
  186.1980  177.5130  139.1510 C   0  0  0  0  0  2  0  0  0  0  0  0
  185.5540  178.1180  140.3070 N   0  0  0  0  0  0  0  0  0  0  0  0
  184.1410  177.8100  140.1650 C   0  0  0  0  0  2  0  0  0  0  0  0
  183.2910  178.8060  140.9530 C   0  0  0  0  0  2  0  0  0  0  0  0
  181.2110  177.8870  139.8040 C   0  0  0  0  0  3  0  0  0  0  0  0
  179.6660  178.5590  142.0330 C   0  0  0  0  0  0  0  0  0  0  0  0
  181.0390  178.8270  142.0290 C   0  0  0  0  0  3  0  0  0  0  0  0
  179.0670  177.9550  140.9240 C   0  0  0  0  0  3  0  0  0  0  0  0
  178.8430  178.9180  143.2160 C   0  0  0  0  0  1  0  0  0  0  0  0
  179.8400  177.6200  139.8100 C   0  0  0  0  0  3  0  0  0  0  0  0
  181.8220  178.4920  140.9170 C   0  0  0  0  0  0  0  0  0  0  0  0
  186.0390  177.3900  141.4730 C   0  0  0  0  0  2  0  0  0  0  0  0
  186.8630  178.3150  142.3570 C   0  0  0  0  0  2  0  0  0  0  0  0
  186.0030  178.9300  143.4480 C   0  0  0  0  0  2  0  0  0  0  0  0
  186.3140  178.3140  144.8060 C   0  0  1  0  0  0  0  0  0  0  0  0
  185.4910  178.8200  145.8250 O   0  0  0  0  0  0  0  0  0  0  0  0
  185.2700  177.4820  145.4330 C   0  0  0  0  0  2  0  0  0  0  0  0
  187.7490  178.1070  145.2730 C   0  0  0  0  0  2  0  0  0  0  0  0
  188.0250  176.6300  145.5120 C   0  0  0  0  0  2  0  0  0  0  0  0
  188.1880  174.9570  147.2100 F   0  0  0  0  0  0  0  0  0  0  0  0
  188.1800  176.3250  146.9950 C   0  0  0  0  0  3  0  0  0  0  0  0
  189.3380  176.8920  147.4930 F   0  0  0  0  0  0  0  0  0  0  0  0
  1  8  1  1  0  0  0
  2  6  1  0  0  0  0
  2  5  1  0  0  0  0
  4  2  2  0  0  0  0
  5  1  1  0  0  0  0
  6 38  1  6  0  0  0
  6  7  1  0  0  0  0
  7  3  1  1  0  0  0
  7  1  1  0  0  0  0
  8  9  1  6  0  0  0
  8 10  1  0  0  0  0
 10 18  1  0  0  0  0
 11 19  1  0  0  0  0
 11 13  1  0  0  0  0
 14 11  2  0  0  0  0
 15 20  1  0  0  0  0
 15 18  1  0  0  0  0
 17 12  1  0  0  0  0
 17 16  1  0  0  0  0
 18 12  1  0  0  0  0
 19 37  1  1  0  0  0
 19 16  1  0  0  0  0
 20 14  2  0  0  0  0
 22 21  1  6  0  0  0
 22 20  1  0  0  0  0
 23 29  1  0  0  0  0
 23 22  1  0  0  0  0
 24 23  2  0  0  0  0
 25 28  2  0  0  0  0
 26 29  1  0  0  0  0
 26 30  1  0  0  0  0
 29 27  1  6  0  0  0
 29 25  1  0  0  0  0
 30 32  1  6  0  0  0
 30 31  1  0  0  0  0
 31 28  1  0  0  0  0
 33 35  2  0  0  0  0
 35 34  1  0  0  0  0
 35 32  1  0  0  0  0
 36 37  1  0  0  0  0
 39 38  1  1  0  0  0
 39 47  1  0  0  0  0
 40 41  1  1  0  0  0
 40 39  1  0  0  0  0
 43 42  1  6  0  0  0
 43 40  1  0  0  0  0
 44 46  1  0  0  0  0
 46 45  2  0  0  0  0
 46 43  1  0  0  0  0
 48 47  1  0  0  0  0
 48 49  1  0  0  0  0
 49 59  1  0  0  0  0
 50 49  1  0  0  0  0
 50 51  1  0  0  0  0
 52 57  2  0  0  0  0
 52 58  1  0  0  0  0
 53 56  1  0  0  0  0
 54 53  1  0  0  0  0
 55 53  2  0  0  0  0
 57 55  1  0  0  0  0
 58 51  1  0  0  0  0
 58 54  2  0  0  0  0
 59 60  1  0  0  0  0
 60 61  1  0  0  0  0
 62 61  1  6  0  0  0
 62 65  1  0  0  0  0
 62 64  1  0  0  0  0
 62 63  1  0  0  0  0
 64 63  1  0  0  0  0
 65 66  1  0  0  0  0
 66 68  1  0  0  0  0
 68 67  1  0  0  0  0
 68 69  1  0  0  0  0
M  END
>  <MODEL>
4

>  <REMARK>
 VINA RESULT:      -4.7      3.467      7.104
  Name = 
  27 active torsions:
  status: ('A' for Active; 'I' for Inactive)
    1  A    between atoms: C_1  and  N_15
    2  A    between atoms: C_1  and  C_54
    3  A    between atoms: C_2  and  C_6
    4  A    between atoms: C_2  and  C_54
    5  A    between atoms: C_6  and  C_27
    6  A    between atoms: C_10  and  C_61
    7  A    between atoms: C_10  and  C_69
    8  A    between atoms: N_15  and  C_61
    9  A    between atoms: N_15  and  C_66
   10  A    between atoms: C_18  and  C_36
   11  A    between atoms: C_23  and  C_42
   12  A    between atoms: C_23  and  C_46
   13  A    between atoms: C_25  and  C_30
   14  A    between atoms: C_25  and  C_67
   15  A    between atoms: C_26  and  C_39
   16  A    between atoms: C_26  and  C_51
   17  A    between atoms: C_27  and  C_36
   18  A    between atoms: C_29  and  C_43
   19  A    between atoms: C_35  and  C_51
   20  A    between atoms: C_35  and  C_66
   21  A    between atoms: C_39  and  C_53
   22  A    between atoms: C_42  and  C_60
   23  A    between atoms: C_43  and  C_50
   24  A    between atoms: C_45  and  C_55
   25  A    between atoms: C_51  and  C_68
   26  A    between atoms: N_52  and  C_67
   27  A    between atoms: C_64  and  C_68
                            x       y       z     vdW  Elec       q    Type
                         _______ _______ _______ _____ _____    ______ ____

>  <TORSDO>
F 27

$$$$
=
 OpenBabel11062418413D

 69 73  0  0  1  0  0  0  0  0999 V2000
  189.7750  174.5880  142.7530 C   0  0  1  0  0  3  0  0  0  0  0  0
  189.0470  175.8620  144.5180 C   0  0  0  0  0  0  0  0  0  0  0  0
  187.4840  174.0420  141.9040 C   0  0  0  0  0  1  0  0  0  0  0  0
  189.0870  176.4380  145.6350 O   0  0  0  0  0  0  0  0  0  0  0  0
  190.1320  175.2120  143.9720 O   0  0  0  0  0  0  0  0  0  0  0  0
  187.8370  175.7680  143.6720 C   0  0  2  0  0  3  0  0  0  0  0  0
  188.3920  175.1510  142.3910 C   0  0  1  0  0  3  0  0  0  0  0  0
  190.8320  174.8520  141.6830 C   0  0  2  0  0  3  0  0  0  0  0  0
  190.9020  173.7950  140.7710 O   0  0  0  0  0  1  0  0  0  0  0  0
  192.1940  175.0920  142.3110 C   0  0  0  0  0  2  0  0  0  0  0  0
  196.0580  171.6770  143.2610 C   0  0  0  0  0  0  0  0  0  0  0  0
  192.8360  172.8140  142.5260 C   0  0  0  0  0  2  0  0  0  0  0  0
  196.9770  170.6780  142.9570 O   0  0  0  0  0  1  0  0  0  0  0  0
  195.8580  172.6490  142.4180 C   0  0  0  0  0  0  0  0  0  0  0  0
  194.4850  174.5920  142.1190 C   0  0  0  0  0  2  0  0  0  0  0  0
  193.8390  171.4780  144.2930 N   0  0  0  0  0  2  0  0  0  0  0  0
  193.2500  172.7780  144.0000 C   0  0  0  0  0  2  0  0  0  0  0  0
  193.1340  174.0870  141.8430 N   0  0  0  0  0  0  0  0  0  0  0  0
  195.2680  171.6600  144.5460 C   0  0  1  0  0  3  0  0  0  0  0  0
  195.5530  173.6520  141.6470 C   0  0  0  0  0  0  0  0  0  0  0  0
  197.7800  173.9870  140.8820 O   0  0  0  0  0  1  0  0  0  0  0  0
  196.4380  174.0020  140.4990 C   0  0  1  0  0  3  0  0  0  0  0  0
  196.2090  173.0990  139.3200 C   0  0  0  0  0  0  0  0  0  0  0  0
  196.4550  171.9030  139.4190 O   0  0  0  0  0  0  0  0  0  0  0  0
  194.8390  174.9250  138.3000 C   0  0  0  0  0  3  0  0  0  0  0  0
  194.8220  172.6760  137.3680 O   0  0  0  0  0  0  0  0  0  0  0  0
  196.7690  174.0090  137.1120 C   0  0  0  0  0  1  0  0  0  0  0  0
  193.5510  174.9420  138.2810 N   0  0  0  0  0  0  0  0  0  0  0  0
  195.6190  173.6480  138.0330 C   0  0  2  0  0  0  0  0  0  0  0  0
  193.6060  172.5090  138.0650 C   0  0  1  0  0  3  0  0  0  0  0  0
  192.7670  173.7760  137.9300 C   0  0  0  0  0  2  0  0  0  0  0  0
  192.8630  171.3030  137.5150 C   0  0  0  0  0  2  0  0  0  0  0  0
  193.0950  170.4780  139.7410 O   0  0  0  0  0  0  0  0  0  0  0  0
  191.8570  169.1280  138.3140 N   0  0  0  0  0  1  0  0  0  0  0  0
  192.6140  170.3000  138.5930 C   0  0  0  0  0  0  0  0  0  0  0  0
  194.7270  170.1600  146.3480 O   0  0  0  0  0  1  0  0  0  0  0  0
  195.7680  170.6070  145.5310 C   0  0  0  0  0  2  0  0  0  0  0  0
  187.2630  177.1440  143.3730 C   0  0  0  0  0  2  0  0  0  0  0  0
  186.0030  177.3840  144.1920 C   0  0  1  0  0  3  0  0  0  0  0  0
  186.2900  178.4700  145.2330 C   0  0  1  0  0  3  0  0  0  0  0  0
  185.8440  179.7310  144.8240 O   0  0  0  0  0  1  0  0  0  0  0  0
  184.2940  178.2980  146.8010 C   0  0  0  0  0  1  0  0  0  0  0  0
  185.7940  178.1030  146.6330 C   0  0  2  0  0  3  0  0  0  0  0  0
  187.8410  178.4600  148.0920 N   0  0  0  0  0  1  0  0  0  0  0  0
  186.0050  179.8790  148.2090 O   0  0  0  0  0  0  0  0  0  0  0  0
  186.5420  178.8760  147.6730 C   0  0  0  0  0  0  0  0  0  0  0  0
  184.8330  177.7290  143.2660 C   0  0  0  0  0  2  0  0  0  0  0  0
  185.3080  178.1750  141.8900 C   0  0  0  0  0  2  0  0  0  0  0  0
  184.3370  177.8260  140.8660 N   0  0  0  0  0  0  0  0  0  0  0  0
  183.2400  178.7640  141.0400 C   0  0  0  0  0  2  0  0  0  0  0  0
  181.9360  178.0210  141.3300 C   0  0  0  0  0  2  0  0  0  0  0  0
  180.4930  180.0630  140.8390 C   0  0  0  0  0  3  0  0  0  0  0  0
  178.6650  178.4570  139.4650 C   0  0  0  0  0  0  0  0  0  0  0  0
  179.8070  177.8830  140.0360 C   0  0  0  0  0  3  0  0  0  0  0  0
  178.4390  179.8310  139.5800 C   0  0  0  0  0  3  0  0  0  0  0  0
  177.6910  177.6040  138.7370 C   0  0  0  0  0  1  0  0  0  0  0  0
  179.3530  180.6330  140.2680 C   0  0  0  0  0  3  0  0  0  0  0  0
  180.7300  178.6810  140.7250 C   0  0  0  0  0  0  0  0  0  0  0  0
  184.9640  178.1300  139.5850 C   0  0  0  0  0  2  0  0  0  0  0  0
  186.0530  177.1100  139.2860 C   0  0  0  0  0  2  0  0  0  0  0  0
  185.8130  176.4380  137.9440 C   0  0  0  0  0  2  0  0  0  0  0  0
  187.0930  175.8100  137.4080 C   0  0  1  0  0  0  0  0  0  0  0  0
  186.9210  175.2550  136.1290 O   0  0  0  0  0  0  0  0  0  0  0  0
  187.7070  176.4250  136.2160 C   0  0  0  0  0  2  0  0  0  0  0  0
  187.9880  174.9530  138.2940 C   0  0  0  0  0  2  0  0  0  0  0  0
  188.8480  174.0260  137.4460 C   0  0  0  0  0  2  0  0  0  0  0  0
  189.7290  171.8100  137.5710 F   0  0  0  0  0  0  0  0  0  0  0  0
  188.5880  172.5650  137.7800 C   0  0  0  0  0  3  0  0  0  0  0  0
  188.1600  172.4300  139.0870 F   0  0  0  0  0  0  0  0  0  0  0  0
  1  8  1  6  0  0  0
  1  5  1  0  0  0  0
  2  4  2  0  0  0  0
  5  2  1  0  0  0  0
  6 38  1  6  0  0  0
  6  2  1  0  0  0  0
  7  3  1  1  0  0  0
  7  1  1  0  0  0  0
  7  6  1  0  0  0  0
  8  9  1  6  0  0  0
  8 10  1  0  0  0  0
 11 19  1  0  0  0  0
 12 17  1  0  0  0  0
 13 11  1  0  0  0  0
 14 11  2  0  0  0  0
 16 19  1  0  0  0  0
 17 16  1  0  0  0  0
 18 15  1  0  0  0  0
 18 10  1  0  0  0  0
 18 12  1  0  0  0  0
 19 37  1  1  0  0  0
 20 15  1  0  0  0  0
 20 14  2  0  0  0  0
 22 21  1  1  0  0  0
 22 20  1  0  0  0  0
 23 24  2  0  0  0  0
 23 22  1  0  0  0  0
 26 29  1  0  0  0  0
 26 30  1  0  0  0  0
 28 25  2  0  0  0  0
 29 27  1  6  0  0  0
 29 25  1  0  0  0  0
 29 23  1  0  0  0  0
 30 32  1  6  0  0  0
 31 30  1  0  0  0  0
 31 28  1  0  0  0  0
 32 35  1  0  0  0  0
 34 35  1  0  0  0  0
 35 33  2  0  0  0  0
 37 36  1  0  0  0  0
 38 39  1  0  0  0  0
 39 47  1  6  0  0  0
 39 40  1  0  0  0  0
 40 41  1  6  0  0  0
 40 43  1  0  0  0  0
 43 42  1  6  0  0  0
 43 46  1  0  0  0  0
 46 44  1  0  0  0  0
 46 45  2  0  0  0  0
 48 47  1  0  0  0  0
 49 50  1  0  0  0  0
 49 48  1  0  0  0  0
 50 51  1  0  0  0  0
 53 55  2  0  0  0  0
 53 54  1  0  0  0  0
 54 58  2  0  0  0  0
 55 57  1  0  0  0  0
 56 53  1  0  0  0  0
 57 52  2  0  0  0  0
 58 52  1  0  0  0  0
 58 51  1  0  0  0  0
 59 49  1  0  0  0  0
 60 59  1  0  0  0  0
 61 60  1  0  0  0  0
 62 61  1  1  0  0  0
 62 65  1  0  0  0  0
 63 64  1  0  0  0  0
 63 62  1  0  0  0  0
 64 62  1  0  0  0  0
 66 68  1  0  0  0  0
 66 65  1  0  0  0  0
 67 68  1  0  0  0  0
 68 69  1  0  0  0  0
M  END
>  <MODEL>
5

>  <REMARK>
 VINA RESULT:      -4.6      3.502      7.414
  Name = 
  27 active torsions:
  status: ('A' for Active; 'I' for Inactive)
    1  A    between atoms: C_1  and  N_15
    2  A    between atoms: C_1  and  C_54
    3  A    between atoms: C_2  and  C_6
    4  A    between atoms: C_2  and  C_54
    5  A    between atoms: C_6  and  C_27
    6  A    between atoms: C_10  and  C_61
    7  A    between atoms: C_10  and  C_69
    8  A    between atoms: N_15  and  C_61
    9  A    between atoms: N_15  and  C_66
   10  A    between atoms: C_18  and  C_36
   11  A    between atoms: C_23  and  C_42
   12  A    between atoms: C_23  and  C_46
   13  A    between atoms: C_25  and  C_30
   14  A    between atoms: C_25  and  C_67
   15  A    between atoms: C_26  and  C_39
   16  A    between atoms: C_26  and  C_51
   17  A    between atoms: C_27  and  C_36
   18  A    between atoms: C_29  and  C_43
   19  A    between atoms: C_35  and  C_51
   20  A    between atoms: C_35  and  C_66
   21  A    between atoms: C_39  and  C_53
   22  A    between atoms: C_42  and  C_60
   23  A    between atoms: C_43  and  C_50
   24  A    between atoms: C_45  and  C_55
   25  A    between atoms: C_51  and  C_68
   26  A    between atoms: N_52  and  C_67
   27  A    between atoms: C_64  and  C_68
                            x       y       z     vdW  Elec       q    Type
                         _______ _______ _______ _____ _____    ______ ____

>  <TORSDO>
F 27

$$$$
=
 OpenBabel11062418413D

 69 73  0  0  1  0  0  0  0  0999 V2000
  194.5960  171.3910  145.0600 C   0  0  1  0  0  3  0  0  0  0  0  0
  194.7850  173.6080  145.6220 C   0  0  0  0  0  0  0  0  0  0  0  0
  192.0980  171.4110  144.8920 C   0  0  0  0  0  1  0  0  0  0  0  0
  195.3040  174.6510  146.0980 O   0  0  0  0  0  0  0  0  0  0  0  0
  195.4480  172.4020  145.5670 O   0  0  0  0  0  0  0  0  0  0  0  0
  193.4020  173.5280  145.1040 C   0  0  2  0  0  3  0  0  0  0  0  0
  193.3710  172.1280  144.4970 C   0  0  1  0  0  3  0  0  0  0  0  0
  195.3230  170.5460  144.0180 C   0  0  2  0  0  3  0  0  0  0  0  0
  195.0620  169.1840  144.2000 O   0  0  0  0  0  1  0  0  0  0  0  0
  196.8200  170.8010  144.0580 C   0  0  0  0  0  2  0  0  0  0  0  0
  196.5730  173.4700  139.5510 C   0  0  0  0  0  0  0  0  0  0  0  0
  197.8090  172.4440  142.6550 C   0  0  0  0  0  2  0  0  0  0  0  0
  196.9660  173.8450  138.2700 O   0  0  0  0  0  1  0  0  0  0  0  0
  196.5920  172.2150  139.8910 C   0  0  0  0  0  0  0  0  0  0  0  0
  196.1990  170.7990  141.7880 C   0  0  0  0  0  2  0  0  0  0  0  0
  197.0640  174.5530  141.7000 N   0  0  0  0  0  2  0  0  0  0  0  0
  196.7090  173.5090  142.6540 C   0  0  0  0  0  2  0  0  0  0  0  0
  197.3100  171.0580  142.7140 N   0  0  0  0  0  0  0  0  0  0  0  0
  196.1340  174.4910  140.5730 C   0  0  1  0  0  3  0  0  0  0  0  0
  196.5930  170.9980  140.3550 C   0  0  0  0  0  0  0  0  0  0  0  0
  195.5600  169.0350  139.4960 O   0  0  0  0  0  1  0  0  0  0  0  0
  196.6940  169.8450  139.4150 C   0  0  1  0  0  3  0  0  0  0  0  0
  196.9300  170.2960  138.0010 C   0  0  0  0  0  0  0  0  0  0  0  0
  197.9170  170.9720  137.7390 O   0  0  0  0  0  0  0  0  0  0  0  0
  196.5890  170.1740  135.5260 C   0  0  0  0  0  3  0  0  0  0  0  0
  194.7030  170.4600  137.0390 O   0  0  0  0  0  0  0  0  0  0  0  0
  195.8160  168.3640  136.9770 C   0  0  0  0  0  1  0  0  0  0  0  0
  196.1560  171.1500  134.8040 N   0  0  0  0  0  0  0  0  0  0  0  0
  195.9870  169.8690  136.8890 C   0  0  2  0  0  0  0  0  0  0  0  0
  194.7720  171.8280  136.7000 C   0  0  1  0  0  3  0  0  0  0  0  0
  195.0280  171.9660  135.2020 C   0  0  0  0  0  2  0  0  0  0  0  0
  193.4770  172.5190  137.0970 C   0  0  0  0  0  2  0  0  0  0  0  0
  191.6380  172.8900  135.6240 O   0  0  0  0  0  0  0  0  0  0  0  0
  192.0490  170.6660  136.1460 N   0  0  0  0  0  1  0  0  0  0  0  0
  192.3470  172.0540  136.2410 C   0  0  0  0  0  0  0  0  0  0  0  0
  195.0960  176.6520  140.7760 O   0  0  0  0  0  1  0  0  0  0  0  0
  195.9380  175.8790  139.9720 C   0  0  0  0  0  2  0  0  0  0  0  0
  193.1550  174.5640  144.0190 C   0  0  0  0  0  2  0  0  0  0  0  0
  191.8270  175.2700  144.2500 C   0  0  1  0  0  3  0  0  0  0  0  0
  192.0710  176.5130  145.1120 C   0  0  1  0  0  3  0  0  0  0  0  0
  191.6260  177.6860  144.4920 O   0  0  0  0  0  1  0  0  0  0  0  0
  191.7500  174.9760  147.1140 C   0  0  0  0  0  1  0  0  0  0  0  0
  191.5350  176.3680  146.5370 C   0  0  2  0  0  3  0  0  0  0  0  0
  189.0760  175.7610  146.3510 N   0  0  0  0  0  1  0  0  0  0  0  0
  189.7580  177.9330  146.8170 O   0  0  0  0  0  0  0  0  0  0  0  0
  190.0870  176.7390  146.5920 C   0  0  0  0  0  0  0  0  0  0  0  0
  191.1610  175.5860  142.9080 C   0  0  0  0  0  2  0  0  0  0  0  0
  189.8550  174.8250  142.7270 C   0  0  0  0  0  2  0  0  0  0  0  0
  189.2660  175.1060  141.4270 N   0  0  0  0  0  0  0  0  0  0  0  0
  188.4170  173.9630  141.1350 C   0  0  0  0  0  2  0  0  0  0  0  0
  189.0090  173.1260  140.0020 C   0  0  0  0  0  2  0  0  0  0  0  0
  191.5560  173.0930  140.0490 C   0  0  0  0  0  3  0  0  0  0  0  0
  191.5130  170.6200  141.3500 C   0  0  0  0  0  0  0  0  0  0  0  0
  190.3110  171.2500  141.0080 C   0  0  0  0  0  3  0  0  0  0  0  0
  192.7340  171.2270  141.0420 C   0  0  0  0  0  3  0  0  0  0  0  0
  191.4930  169.3050  142.0390 C   0  0  0  0  0  1  0  0  0  0  0  0
  192.7550  172.4630  140.3910 C   0  0  0  0  0  3  0  0  0  0  0  0
  190.3230  172.4900  140.3580 C   0  0  0  0  0  0  0  0  0  0  0  0
  188.3910  176.2570  141.6130 C   0  0  0  0  0  2  0  0  0  0  0  0
  187.8570  176.2780  143.0390 C   0  0  0  0  0  2  0  0  0  0  0  0
  186.3480  176.1110  143.0550 C   0  0  0  0  0  2  0  0  0  0  0  0
  185.6550  177.4120  143.4400 C   0  0  1  0  0  0  0  0  0  0  0  0
  186.2190  178.5280  142.8000 O   0  0  0  0  0  0  0  0  0  0  0  0
  184.9290  178.1370  142.3800 C   0  0  0  0  0  2  0  0  0  0  0  0
  185.2680  177.7090  144.8830 C   0  0  0  0  0  2  0  0  0  0  0  0
  186.5030  178.0210  145.7140 C   0  0  0  0  0  2  0  0  0  0  0  0
  185.5500  179.7280  147.0860 F   0  0  0  0  0  0  0  0  0  0  0  0
  186.1300  178.4720  147.1190 C   0  0  0  0  0  3  0  0  0  0  0  0
  185.2720  177.5660  147.7120 F   0  0  0  0  0  0  0  0  0  0  0  0
  1  8  1  6  0  0  0
  1  5  1  0  0  0  0
  2  4  2  0  0  0  0
  5  2  1  0  0  0  0
  6 38  1  6  0  0  0
  6  2  1  0  0  0  0
  7  3  1  1  0  0  0
  7  1  1  0  0  0  0
  7  6  1  0  0  0  0
  8 10  1  0  0  0  0
  8  9  1  1  0  0  0
 11 14  2  0  0  0  0
 11 19  1  0  0  0  0
 12 18  1  0  0  0  0
 13 11  1  0  0  0  0
 14 20  2  0  0  0  0
 15 18  1  0  0  0  0
 16 17  1  0  0  0  0
 17 12  1  0  0  0  0
 18 10  1  0  0  0  0
 19 37  1  6  0  0  0
 19 16  1  0  0  0  0
 20 15  1  0  0  0  0
 22 21  1  6  0  0  0
 22 20  1  0  0  0  0
 23 22  1  0  0  0  0
 24 23  2  0  0  0  0
 25 29  1  0  0  0  0
 28 31  1  0  0  0  0
 28 25  2  0  0  0  0
 29 27  1  1  0  0  0
 29 26  1  0  0  0  0
 29 23  1  0  0  0  0
 30 26  1  0  0  0  0
 30 32  1  6  0  0  0
 31 30  1  0  0  0  0
 33 35  2  0  0  0  0
 34 35  1  0  0  0  0
 35 32  1  0  0  0  0
 37 36  1  0  0  0  0
 38 39  1  0  0  0  0
 39 47  1  6  0  0  0
 39 40  1  0  0  0  0
 40 41  1  6  0  0  0
 40 43  1  0  0  0  0
 43 46  1  0  0  0  0
 43 42  1  6  0  0  0
 44 46  1  0  0  0  0
 46 45  2  0  0  0  0
 48 47  1  0  0  0  0
 49 59  1  0  0  0  0
 49 48  1  0  0  0  0
 50 49  1  0  0  0  0
 51 58  1  0  0  0  0
 51 50  1  0  0  0  0
 52 58  2  0  0  0  0
 52 57  1  0  0  0  0
 53 56  1  0  0  0  0
 54 53  2  0  0  0  0
 55 53  1  0  0  0  0
 57 55  2  0  0  0  0
 58 54  1  0  0  0  0
 59 60  1  0  0  0  0
 60 61  1  0  0  0  0
 62 61  1  6  0  0  0
 62 65  1  0  0  0  0
 63 62  1  0  0  0  0
 64 63  1  0  0  0  0
 64 62  1  0  0  0  0
 65 66  1  0  0  0  0
 66 68  1  0  0  0  0
 67 68  1  0  0  0  0
 68 69  1  0  0  0  0
M  END
>  <MODEL>
6

>  <REMARK>
 VINA RESULT:      -4.4      3.000      7.052
  Name = 
  27 active torsions:
  status: ('A' for Active; 'I' for Inactive)
    1  A    between atoms: C_1  and  N_15
    2  A    between atoms: C_1  and  C_54
    3  A    between atoms: C_2  and  C_6
    4  A    between atoms: C_2  and  C_54
    5  A    between atoms: C_6  and  C_27
    6  A    between atoms: C_10  and  C_61
    7  A    between atoms: C_10  and  C_69
    8  A    between atoms: N_15  and  C_61
    9  A    between atoms: N_15  and  C_66
   10  A    between atoms: C_18  and  C_36
   11  A    between atoms: C_23  and  C_42
   12  A    between atoms: C_23  and  C_46
   13  A    between atoms: C_25  and  C_30
   14  A    between atoms: C_25  and  C_67
   15  A    between atoms: C_26  and  C_39
   16  A    between atoms: C_26  and  C_51
   17  A    between atoms: C_27  and  C_36
   18  A    between atoms: C_29  and  C_43
   19  A    between atoms: C_35  and  C_51
   20  A    between atoms: C_35  and  C_66
   21  A    between atoms: C_39  and  C_53
   22  A    between atoms: C_42  and  C_60
   23  A    between atoms: C_43  and  C_50
   24  A    between atoms: C_45  and  C_55
   25  A    between atoms: C_51  and  C_68
   26  A    between atoms: N_52  and  C_67
   27  A    between atoms: C_64  and  C_68
                            x       y       z     vdW  Elec       q    Type
                         _______ _______ _______ _____ _____    ______ ____

>  <TORSDO>
F 27

$$$$
=
 OpenBabel11062418413D

 69 73  0  0  1  0  0  0  0  0999 V2000
  189.9040  174.5840  140.9280 C   0  0  1  0  0  3  0  0  0  0  0  0
  191.9140  173.6440  140.3420 C   0  0  0  0  0  0  0  0  0  0  0  0
  188.5140  172.6500  140.1570 C   0  0  0  0  0  1  0  0  0  0  0  0
  193.1320  173.5940  140.0280 O   0  0  0  0  0  0  0  0  0  0  0  0
  191.2850  174.8110  140.7120 O   0  0  0  0  0  0  0  0  0  0  0  0
  190.9990  172.4830  140.3140 C   0  0  2  0  0  3  0  0  0  0  0  0
  189.7360  173.0580  140.9510 C   0  0  1  0  0  3  0  0  0  0  0  0
  189.4410  175.2620  142.2160 C   0  0  2  0  0  3  0  0  0  0  0  0
  188.5980  174.4240  142.9520 O   0  0  0  0  0  1  0  0  0  0  0  0
  188.7440  176.5770  141.9190 C   0  0  0  0  0  2  0  0  0  0  0  0
  183.9670  178.6130  142.6480 C   0  0  0  0  0  0  0  0  0  0  0  0
  186.3940  176.2380  141.8210 C   0  0  0  0  0  2  0  0  0  0  0  0
  182.7280  178.7650  143.2630 O   0  0  0  0  0  1  0  0  0  0  0  0
  185.0340  178.4530  143.3760 C   0  0  0  0  0  0  0  0  0  0  0  0
  187.3880  178.0490  143.1560 C   0  0  0  0  0  2  0  0  0  0  0  0
  184.5560  177.3160  140.6480 N   0  0  0  0  0  2  0  0  0  0  0  0
  186.0100  177.2550  140.7430 C   0  0  0  0  0  2  0  0  0  0  0  0
  187.5120  176.6630  142.6840 N   0  0  0  0  0  0  0  0  0  0  0  0
  184.1110  178.6180  141.1460 C   0  0  1  0  0  3  0  0  0  0  0  0
  186.1630  178.2580  143.9950 C   0  0  0  0  0  0  0  0  0  0  0  0
  185.2730  179.4230  145.8680 O   0  0  0  0  0  1  0  0  0  0  0  0
  186.2650  178.5310  145.4570 C   0  0  1  0  0  3  0  0  0  0  0  0
  186.2160  177.2670  146.2680 C   0  0  0  0  0  0  0  0  0  0  0  0
  185.5920  176.3020  145.8430 O   0  0  0  0  0  0  0  0  0  0  0  0
  187.8220  178.4040  147.8100 C   0  0  0  0  0  3  0  0  0  0  0  0
  187.7710  175.9780  147.6210 O   0  0  0  0  0  0  0  0  0  0  0  0
  185.9690  177.0820  148.7020 C   0  0  0  0  0  1  0  0  0  0  0  0
  189.1020  178.3880  147.6660 N   0  0  0  0  0  0  0  0  0  0  0  0
  186.9820  177.1590  147.5750 C   0  0  2  0  0  0  0  0  0  0  0  0
  188.8880  176.1250  146.7710 C   0  0  1  0  0  3  0  0  0  0  0  0
  189.8300  177.1760  147.3490 C   0  0  0  0  0  2  0  0  0  0  0  0
  189.5930  174.7870  146.6180 C   0  0  0  0  0  2  0  0  0  0  0  0
  191.0900  175.4990  144.9030 O   0  0  0  0  0  0  0  0  0  0  0  0
  192.1020  174.5250  146.7520 N   0  0  0  0  0  1  0  0  0  0  0  0
  190.9560  174.9720  146.0370 C   0  0  0  0  0  0  0  0  0  0  0  0
  182.0640  177.9310  140.0820 O   0  0  0  0  0  1  0  0  0  0  0  0
  182.8310  179.0450  140.4340 C   0  0  0  0  0  2  0  0  0  0  0  0
  191.5290  171.3390  141.1640 C   0  0  0  0  0  2  0  0  0  0  0  0
  192.0410  170.2120  140.2800 C   0  0  1  0  0  3  0  0  0  0  0  0
  192.5010  170.8020  138.9430 C   0  0  1  0  0  3  0  0  0  0  0  0
  193.8940  170.8960  138.8530 O   0  0  0  0  0  1  0  0  0  0  0  0
  191.5110  171.0540  136.6130 C   0  0  0  0  0  1  0  0  0  0  0  0
  191.8870  170.0950  137.7340 C   0  0  2  0  0  3  0  0  0  0  0  0
  189.3770  169.7860  137.9630 N   0  0  0  0  0  1  0  0  0  0  0  0
  190.8710  168.1660  138.6970 O   0  0  0  0  0  0  0  0  0  0  0  0
  190.7000  169.2840  138.1480 C   0  0  0  0  0  0  0  0  0  0  0  0
  193.1420  169.4340  141.0070 C   0  0  0  0  0  2  0  0  0  0  0  0
  193.3730  169.9580  142.4180 C   0  0  0  0  0  2  0  0  0  0  0  0
  194.7730  170.2880  142.6280 N   0  0  0  0  0  0  0  0  0  0  0  0
  195.5210  169.2810  141.8940 C   0  0  0  0  0  2  0  0  0  0  0  0
  196.3710  168.4400  142.8460 C   0  0  0  0  0  2  0  0  0  0  0  0
  197.2930  169.9380  144.6890 C   0  0  0  0  0  3  0  0  0  0  0  0
  195.4240  168.8980  146.4880 C   0  0  0  0  0  0  0  0  0  0  0  0
  195.4460  168.4450  145.1640 C   0  0  0  0  0  3  0  0  0  0  0  0
  196.3350  169.8700  146.9100 C   0  0  0  0  0  3  0  0  0  0  0  0
  194.4340  168.3430  147.4460 C   0  0  0  0  0  1  0  0  0  0  0  0
  197.2690  170.3890  146.0110 C   0  0  0  0  0  3  0  0  0  0  0  0
  196.3780  168.9620  144.2550 C   0  0  0  0  0  0  0  0  0  0  0  0
  194.9980  171.5640  141.9580 C   0  0  0  0  0  2  0  0  0  0  0  0
  194.7910  172.7090  142.9400 C   0  0  0  0  0  2  0  0  0  0  0  0
  195.9620  173.6760  142.8990 C   0  0  0  0  0  2  0  0  0  0  0  0
  195.4800  175.1190  142.8190 C   0  0  1  0  0  0  0  0  0  0  0  0
  196.5380  176.0290  142.6680 O   0  0  0  0  0  0  0  0  0  0  0  0
  195.6960  175.8400  141.5500 C   0  0  0  0  0  2  0  0  0  0  0  0
  194.3930  175.6460  143.7470 C   0  0  0  0  0  2  0  0  0  0  0  0
  194.9020  175.7150  145.1800 C   0  0  0  0  0  2  0  0  0  0  0  0
  193.6570  177.7500  145.0730 F   0  0  0  0  0  0  0  0  0  0  0  0
  194.6090  177.0680  145.8110 C   0  0  0  0  0  3  0  0  0  0  0  0
  194.1810  176.9170  147.1160 F   0  0  0  0  0  0  0  0  0  0  0  0
  1  7  1  0  0  0  0
  1  8  1  1  0  0  0
  2  5  1  0  0  0  0
  4  2  2  0  0  0  0
  5  1  1  0  0  0  0
  6  2  1  0  0  0  0
  6  7  1  0  0  0  0
  6 38  1  1  0  0  0
  7  3  1  6  0  0  0
  8  9  1  6  0  0  0
 10  8  1  0  0  0  0
 10 18  1  0  0  0  0
 11 13  1  0  0  0  0
 11 14  2  0  0  0  0
 12 18  1  0  0  0  0
 14 20  2  0  0  0  0
 15 20  1  0  0  0  0
 16 17  1  0  0  0  0
 16 19  1  0  0  0  0
 17 12  1  0  0  0  0
 18 15  1  0  0  0  0
 19 37  1  6  0  0  0
 19 11  1  0  0  0  0
 20 22  1  0  0  0  0
 22 21  1  1  0  0  0
 22 23  1  0  0  0  0
 23 29  1  0  0  0  0
 24 23  2  0  0  0  0
 28 25  2  0  0  0  0
 29 26  1  0  0  0  0
 29 25  1  0  0  0  0
 29 27  1  1  0  0  0
 30 32  1  1  0  0  0
 30 31  1  0  0  0  0
 30 26  1  0  0  0  0
 31 28  1  0  0  0  0
 33 35  2  0  0  0  0
 35 32  1  0  0  0  0
 35 34  1  0  0  0  0
 36 37  1  0  0  0  0
 39 47  1  1  0  0  0
 39 38  1  0  0  0  0
 40 41  1  6  0  0  0
 40 39  1  0  0  0  0
 43 42  1  6  0  0  0
 43 46  1  0  0  0  0
 43 40  1  0  0  0  0
 44 46  1  0  0  0  0
 46 45  2  0  0  0  0
 47 48  1  0  0  0  0
 48 49  1  0  0  0  0
 50 49  1  0  0  0  0
 50 51  1  0  0  0  0
 51 58  1  0  0  0  0
 52 57  1  0  0  0  0
 53 55  1  0  0  0  0
 53 56  1  0  0  0  0
 54 53  2  0  0  0  0
 57 55  2  0  0  0  0
 58 52  2  0  0  0  0
 58 54  1  0  0  0  0
 59 49  1  0  0  0  0
 59 60  1  0  0  0  0
 61 60  1  0  0  0  0
 62 61  1  1  0  0  0
 62 65  1  0  0  0  0
 63 62  1  0  0  0  0
 64 63  1  0  0  0  0
 64 62  1  0  0  0  0
 65 66  1  0  0  0  0
 66 68  1  0  0  0  0
 67 68  1  0  0  0  0
 68 69  1  0  0  0  0
M  END
>  <MODEL>
7

>  <REMARK>
 VINA RESULT:      -3.9      3.139      9.961
  Name = 
  27 active torsions:
  status: ('A' for Active; 'I' for Inactive)
    1  A    between atoms: C_1  and  N_15
    2  A    between atoms: C_1  and  C_54
    3  A    between atoms: C_2  and  C_6
    4  A    between atoms: C_2  and  C_54
    5  A    between atoms: C_6  and  C_27
    6  A    between atoms: C_10  and  C_61
    7  A    between atoms: C_10  and  C_69
    8  A    between atoms: N_15  and  C_61
    9  A    between atoms: N_15  and  C_66
   10  A    between atoms: C_18  and  C_36
   11  A    between atoms: C_23  and  C_42
   12  A    between atoms: C_23  and  C_46
   13  A    between atoms: C_25  and  C_30
   14  A    between atoms: C_25  and  C_67
   15  A    between atoms: C_26  and  C_39
   16  A    between atoms: C_26  and  C_51
   17  A    between atoms: C_27  and  C_36
   18  A    between atoms: C_29  and  C_43
   19  A    between atoms: C_35  and  C_51
   20  A    between atoms: C_35  and  C_66
   21  A    between atoms: C_39  and  C_53
   22  A    between atoms: C_42  and  C_60
   23  A    between atoms: C_43  and  C_50
   24  A    between atoms: C_45  and  C_55
   25  A    between atoms: C_51  and  C_68
   26  A    between atoms: N_52  and  C_67
   27  A    between atoms: C_64  and  C_68
                            x       y       z     vdW  Elec       q    Type
                         _______ _______ _______ _____ _____    ______ ____

>  <TORSDO>
F 27

$$$$
=
 OpenBabel11062418413D

 69 74  0  0  1  0  0  0  0  0999 V2000
  195.6670  174.2950  139.8720 C   0  0  1  0  0  3  0  0  0  0  0  0
  196.6220  175.5180  141.5630 C   0  0  0  0  0  0  0  0  0  0  0  0
  195.4120  172.2010  141.2200 C   0  0  0  0  0  1  0  0  0  0  0  0
  197.2960  176.4330  142.1050 O   0  0  0  0  0  0  0  0  0  0  0  0
  196.3780  175.4730  140.2090 O   0  0  0  0  0  0  0  0  0  0  0  0
  196.0470  174.3650  142.2890 C   0  0  2  0  0  3  0  0  0  0  0  0
  195.1980  173.7000  141.2080 C   0  0  1  0  0  3  0  0  0  0  0  0
  194.5190  174.6130  138.9170 C   0  0  2  0  0  3  0  0  0  0  0  0
  193.3780  173.8700  139.2350 O   0  0  0  0  0  0  0  0  0  0  0  0
  194.9230  174.3600  137.4760 C   0  0  0  0  0  2  0  0  0  0  0  0
  189.9740  173.2930  136.1140 C   0  0  0  0  0  0  0  0  0  0  0  0
  193.3180  174.2310  135.7290 C   0  0  0  0  0  2  0  0  0  0  0  0
  188.9460  172.5770  135.5090 O   0  0  0  0  0  1  0  0  0  0  0  0
  190.9300  172.6570  136.7260 C   0  0  0  0  0  0  0  0  0  0  0  0
  192.9960  173.0700  137.8730 C   0  0  2  0  0  3  0  0  0  0  0  0
  191.1650  175.2800  135.3020 N   0  0  0  0  0  2  0  0  0  0  0  0
  192.3310  175.3130  136.1760 C   0  0  0  0  0  2  0  0  0  0  0  0
  193.9490  173.4910  136.8370 N   0  0  2  0  0  0  0  0  0  0  0  0
  190.0180  174.8000  136.0720 C   0  0  1  0  0  3  0  0  0  0  0  0
  191.9530  172.1350  137.3410 C   0  0  0  0  0  0  0  0  0  0  0  0
  191.6850  169.8750  136.6470 O   0  0  0  0  0  1  0  0  0  0  0  0
  191.9200  170.7000  137.7480 C   0  0  1  0  0  3  0  0  0  0  0  0
  193.1780  170.2930  138.4640 C   0  0  0  0  0  0  0  0  0  0  0  0
  194.2480  170.7850  138.1290 O   0  0  0  0  0  0  0  0  0  0  0  0
  191.9210  168.3990  139.5060 C   0  0  0  0  0  3  0  0  0  0  0  0
  193.1220  170.0120  140.8780 O   0  0  0  0  0  0  0  0  0  0  0  0
  194.3640  168.4590  139.5820 C   0  0  0  0  0  1  0  0  0  0  0  0
  190.8790  168.5420  140.2510 N   0  0  0  0  0  0  0  0  0  0  0  0
  193.1190  169.3260  139.6330 C   0  0  2  0  0  0  0  0  0  0  0  0
  191.8630  170.6180  141.0840 C   0  0  1  0  0  3  0  0  0  0  0  0
  190.8110  169.5360  141.3030 C   0  0  0  0  0  2  0  0  0  0  0  0
  191.9360  171.5560  142.2770 C   0  0  0  0  0  2  0  0  0  0  0  0
  189.6160  172.0870  142.1160 O   0  0  0  0  0  0  0  0  0  0  0  0
  190.3820  171.6570  144.2650 N   0  0  0  0  0  1  0  0  0  0  0  0
  190.5800  171.7730  142.8610 C   0  0  0  0  0  0  0  0  0  0  0  0
  187.7540  175.4730  136.5350 O   0  0  0  0  0  1  0  0  0  0  0  0
  188.7280  175.4130  135.5350 C   0  0  0  0  0  2  0  0  0  0  0  0
  195.1550  174.8210  143.4340 C   0  0  0  0  0  2  0  0  0  0  0  0
  194.7510  173.6340  144.2970 C   0  0  1  0  0  3  0  0  0  0  0  0
  196.0170  172.9390  144.8060 C   0  0  1  0  0  3  0  0  0  0  0  0
  196.4070  173.4000  146.0680 O   0  0  0  0  0  1  0  0  0  0  0  0
  195.3260  170.8040  146.0060 C   0  0  0  0  0  1  0  0  0  0  0  0
  195.9260  171.4130  144.7470 C   0  0  2  0  0  3  0  0  0  0  0  0
  197.9370  170.0350  145.4580 N   0  0  0  0  0  1  0  0  0  0  0  0
  197.8360  171.0440  143.3680 O   0  0  0  0  0  0  0  0  0  0  0  0
  197.2710  170.8190  144.4690 C   0  0  0  0  0  0  0  0  0  0  0  0
  193.8210  174.0980  145.4230 C   0  0  0  0  0  2  0  0  0  0  0  0
  192.7420  175.0450  144.9170 C   0  0  0  0  0  2  0  0  0  0  0  0
  193.0150  176.4120  145.3320 N   0  0  0  0  0  0  0  0  0  0  0  0
  191.8050  177.1570  145.0230 C   0  0  0  0  0  2  0  0  0  0  0  0
  191.4820  177.0660  143.5320 C   0  0  0  0  0  2  0  0  0  0  0  0
  189.5690  175.4060  143.2570 C   0  0  0  0  0  3  0  0  0  0  0  0
  187.8090  177.5050  142.7030 C   0  0  0  0  0  0  0  0  0  0  0  0
  189.1560  177.7750  142.9740 C   0  0  0  0  0  3  0  0  0  0  0  0
  187.3450  176.1870  142.7090 C   0  0  0  0  0  3  0  0  0  0  0  0
  186.8740  178.6190  142.4050 C   0  0  0  0  0  1  0  0  0  0  0  0
  188.2250  175.1380  142.9860 C   0  0  0  0  0  3  0  0  0  0  0  0
  190.0440  176.7300  143.2550 C   0  0  0  0  0  0  0  0  0  0  0  0
  193.1430  176.3820  146.7830 C   0  0  0  0  0  2  0  0  0  0  0  0
  191.8340  176.8150  147.4290 C   0  0  0  0  0  2  0  0  0  0  0  0
  191.0670  175.6150  147.9560 C   0  0  0  0  0  2  0  0  0  0  0  0
  189.7200  175.4740  147.2570 C   0  0  1  0  0  0  0  0  0  0  0  0
  189.6520  174.3250  146.4530 O   0  0  0  0  0  0  0  0  0  0  0  0
  188.8750  174.3250  147.6320 C   0  0  0  0  0  2  0  0  0  0  0  0
  189.0300  176.6710  146.6150 C   0  0  0  0  0  2  0  0  0  0  0  0
  187.5220  176.4670  146.5890 C   0  0  0  0  0  2  0  0  0  0  0  0
  185.7900  177.8160  145.6500 F   0  0  0  0  0  0  0  0  0  0  0  0
  186.7800  177.7950  146.6160 C   0  0  0  0  0  3  0  0  0  0  0  0
  186.2330  178.0240  147.8650 F   0  0  0  0  0  0  0  0  0  0  0  0
  1  5  1  1  0  0  0
  1  7  1  0  0  0  0
  2  4  2  0  0  0  0
  2  6  1  0  0  0  0
  5  2  1  0  0  0  0
  6 38  1  1  0  0  0
  7  3  1  6  0  0  0
  7  6  1  0  0  0  0
  8 10  1  6  0  0  0
  8  9  1  0  0  0  0
  8  1  1  0  0  0  0
 11 14  2  0  0  0  0
 12 17  1  0  0  0  0
 13 11  1  0  0  0  0
 14 20  2  0  0  0  0
 15 20  1  6  0  0  0
 15  9  1  0  0  0  0
 16 19  1  0  0  0  0
 16 17  1  0  0  0  0
 18 12  1  6  0  0  0
 18 10  1  0  0  0  0
 18 15  1  0  0  0  0
 19 37  1  6  0  0  0
 19 11  1  0  0  0  0
 20 22  1  0  0  0  0
 22 21  1  6  0  0  0
 22 23  1  0  0  0  0
 23 29  1  0  0  0  0
 24 23  2  0  0  0  0
 25 29  1  0  0  0  0
 25 28  2  0  0  0  0
 26 30  1  0  0  0  0
 28 31  1  0  0  0  0
 29 27  1  6  0  0  0
 29 26  1  0  0  0  0
 30 31  1  0  0  0  0
 30 32  1  1  0  0  0
 32 35  1  0  0  0  0
 33 35  2  0  0  0  0
 35 34  1  0  0  0  0
 37 36  1  0  0  0  0
 39 38  1  1  0  0  0
 39 40  1  0  0  0  0
 39 47  1  0  0  0  0
 40 41  1  1  0  0  0
 43 40  1  0  0  0  0
 43 42  1  1  0  0  0
 45 46  2  0  0  0  0
 46 43  1  0  0  0  0
 46 44  1  0  0  0  0
 48 49  1  0  0  0  0
 48 47  1  0  0  0  0
 49 59  1  0  0  0  0
 50 49  1  0  0  0  0
 51 50  1  0  0  0  0
 53 55  2  0  0  0  0
 53 54  1  0  0  0  0
 54 58  2  0  0  0  0
 55 57  1  0  0  0  0
 56 53  1  0  0  0  0
 57 52  2  0  0  0  0
 58 52  1  0  0  0  0
 58 51  1  0  0  0  0
 59 60  1  0  0  0  0
 60 61  1  0  0  0  0
 62 65  1  6  0  0  0
 62 64  1  0  0  0  0
 62 61  1  0  0  0  0
 63 62  1  0  0  0  0
 63 64  1  0  0  0  0
 66 65  1  0  0  0  0
 66 68  1  0  0  0  0
 67 68  1  0  0  0  0
 68 69  1  0  0  0  0
M  END
>  <MODEL>
8

>  <REMARK>
 VINA RESULT:      -3.8      2.988      6.299
  Name = 
  27 active torsions:
  status: ('A' for Active; 'I' for Inactive)
    1  A    between atoms: C_1  and  N_15
    2  A    between atoms: C_1  and  C_54
    3  A    between atoms: C_2  and  C_6
    4  A    between atoms: C_2  and  C_54
    5  A    between atoms: C_6  and  C_27
    6  A    between atoms: C_10  and  C_61
    7  A    between atoms: C_10  and  C_69
    8  A    between atoms: N_15  and  C_61
    9  A    between atoms: N_15  and  C_66
   10  A    between atoms: C_18  and  C_36
   11  A    between atoms: C_23  and  C_42
   12  A    between atoms: C_23  and  C_46
   13  A    between atoms: C_25  and  C_30
   14  A    between atoms: C_25  and  C_67
   15  A    between atoms: C_26  and  C_39
   16  A    between atoms: C_26  and  C_51
   17  A    between atoms: C_27  and  C_36
   18  A    between atoms: C_29  and  C_43
   19  A    between atoms: C_35  and  C_51
   20  A    between atoms: C_35  and  C_66
   21  A    between atoms: C_39  and  C_53
   22  A    between atoms: C_42  and  C_60
   23  A    between atoms: C_43  and  C_50
   24  A    between atoms: C_45  and  C_55
   25  A    between atoms: C_51  and  C_68
   26  A    between atoms: N_52  and  C_67
   27  A    between atoms: C_64  and  C_68
                            x       y       z     vdW  Elec       q    Type
                         _______ _______ _______ _____ _____    ______ ____

>  <TORSDO>
F 27

$$$$
=
 OpenBabel11062418413D

 69 73  0  0  1  0  0  0  0  0999 V2000
  191.5480  173.9080  142.3580 C   0  0  1  0  0  3  0  0  0  0  0  0
  190.3530  172.9030  144.0400 C   0  0  0  0  0  0  0  0  0  0  0  0
  189.5490  174.4640  140.9570 C   0  0  0  0  0  1  0  0  0  0  0  0
  190.1300  172.1570  145.0280 O   0  0  0  0  0  0  0  0  0  0  0  0
  191.6100  173.0860  143.5090 O   0  0  0  0  0  0  0  0  0  0  0  0
  189.3050  173.6400  143.3000 C   0  0  2  0  0  3  0  0  0  0  0  0
  190.1330  174.5050  142.3530 C   0  0  1  0  0  3  0  0  0  0  0  0
  192.6490  174.9660  142.3920 C   0  0  2  0  0  3  0  0  0  0  0  0
  192.1120  176.2490  142.5310 O   0  0  0  0  0  1  0  0  0  0  0  0
  193.5130  174.8930  141.1450 C   0  0  0  0  0  2  0  0  0  0  0  0
  195.4630  171.2620  137.9040 C   0  0  0  0  0  0  0  0  0  0  0  0
  194.8570  172.9490  140.9040 C   0  0  0  0  0  2  0  0  0  0  0  0
  195.6100  169.9910  137.3560 O   0  0  0  0  0  1  0  0  0  0  0  0
  194.2760  171.7010  138.2060 C   0  0  0  0  0  0  0  0  0  0  0  0
  193.1970  173.5940  139.2080 C   0  0  0  0  0  2  0  0  0  0  0  0
  196.8340  172.3840  139.6040 N   0  0  0  0  0  2  0  0  0  0  0  0
  195.9730  173.4900  140.0060 C   0  0  0  0  0  2  0  0  0  0  0  0
  193.5290  173.5310  140.6380 N   0  0  0  0  0  0  0  0  0  0  0  0
  196.6530  172.1500  138.1710 C   0  0  1  0  0  3  0  0  0  0  0  0
  193.1470  172.2370  138.5740 C   0  0  0  0  0  0  0  0  0  0  0  0
  191.0480  171.3040  139.1910 O   0  0  0  0  0  1  0  0  0  0  0  0
  191.8590  171.6480  138.1080 C   0  0  1  0  0  3  0  0  0  0  0  0
  191.1330  172.5660  137.1660 C   0  0  0  0  0  0  0  0  0  0  0  0
  190.5120  173.5220  137.6130 O   0  0  0  0  0  0  0  0  0  0  0  0
  192.0830  171.1450  135.3410 C   0  0  0  0  0  3  0  0  0  0  0  0
  191.6670  173.5180  134.9940 O   0  0  0  0  0  0  0  0  0  0  0  0
  189.8160  172.0420  135.1630 C   0  0  0  0  0  1  0  0  0  0  0  0
  193.2690  171.2830  134.8560 N   0  0  0  0  0  0  0  0  0  0  0  0
  191.2140  172.3500  135.6650 C   0  0  2  0  0  0  0  0  0  0  0  0
  193.0490  173.6880  135.2250 C   0  0  1  0  0  3  0  0  0  0  0  0
  193.8210  172.5780  134.5180 C   0  0  0  0  0  2  0  0  0  0  0  0
  193.4860  175.0570  134.7290 C   0  0  0  0  0  2  0  0  0  0  0  0
  193.0690  175.7780  136.9650 O   0  0  0  0  0  0  0  0  0  0  0  0
  193.0710  177.4650  135.3690 N   0  0  0  0  0  1  0  0  0  0  0  0
  193.2090  176.1030  135.7580 C   0  0  0  0  0  0  0  0  0  0  0  0
  197.6740  170.9260  136.3680 O   0  0  0  0  0  1  0  0  0  0  0  0
  197.9410  171.6090  137.5580 C   0  0  0  0  0  2  0  0  0  0  0  0
  188.4920  174.5280  144.2280 C   0  0  0  0  0  2  0  0  0  0  0  0
  189.2320  175.8280  144.5050 C   0  0  1  0  0  3  0  0  0  0  0  0
  188.3440  177.0020  144.0830 C   0  0  1  0  0  3  0  0  0  0  0  0
  188.7560  177.5750  142.8750 O   0  0  0  0  0  1  0  0  0  0  0  0
  186.3430  176.2240  142.7180 C   0  0  0  0  0  1  0  0  0  0  0  0
  186.8540  176.6570  144.0850 C   0  0  2  0  0  3  0  0  0  0  0  0
  184.6810  177.9630  144.2320 N   0  0  0  0  0  1  0  0  0  0  0  0
  186.5970  178.6650  145.3440 O   0  0  0  0  0  0  0  0  0  0  0  0
  186.0500  177.8070  144.6030 C   0  0  0  0  0  0  0  0  0  0  0  0
  189.6550  175.8880  145.9760 C   0  0  0  0  0  2  0  0  0  0  0  0
  190.3090  177.2170  146.3270 C   0  0  0  0  0  2  0  0  0  0  0  0
  191.3490  177.0380  147.3270 N   0  0  0  0  0  0  0  0  0  0  0  0
  190.6800  177.1910  148.6090 C   0  0  0  0  0  2  0  0  0  0  0  0
  191.5790  177.9260  149.6020 C   0  0  0  0  0  2  0  0  0  0  0  0
  191.8870  175.8780  151.0840 C   0  0  0  0  0  3  0  0  0  0  0  0
  191.5210  177.4540  153.3620 C   0  0  0  0  0  0  0  0  0  0  0  0
  191.4680  178.0390  152.0920 C   0  0  0  0  0  3  0  0  0  0  0  0
  191.7570  176.0820  153.4920 C   0  0  0  0  0  3  0  0  0  0  0  0
  191.3230  178.2890  154.5740 C   0  0  0  0  0  1  0  0  0  0  0  0
  191.9400  175.2950  152.3520 C   0  0  0  0  0  3  0  0  0  0  0  0
  191.6530  177.2570  150.9450 C   0  0  0  0  0  0  0  0  0  0  0  0
  191.7770  175.6480  147.2290 C   0  0  0  0  0  2  0  0  0  0  0  0
  193.2680  175.5840  146.9290 C   0  0  0  0  0  2  0  0  0  0  0  0
  193.5840  176.2600  145.6060 C   0  0  0  0  0  2  0  0  0  0  0  0
  195.0300  176.0130  145.1950 C   0  0  1  0  0  0  0  0  0  0  0  0
  195.2320  176.1900  143.8170 O   0  0  0  0  0  0  0  0  0  0  0  0
  195.7960  177.1610  144.6740 C   0  0  0  0  0  2  0  0  0  0  0  0
  195.8230  174.8360  145.7480 C   0  0  0  0  0  2  0  0  0  0  0  0
  195.2330  173.5190  145.2630 C   0  0  0  0  0  2  0  0  0  0  0  0
  197.2270  172.6840  146.2780 F   0  0  0  0  0  0  0  0  0  0  0  0
  196.2500  172.3900  145.3420 C   0  0  0  0  0  3  0  0  0  0  0  0
  195.6310  171.1960  145.6590 F   0  0  0  0  0  0  0  0  0  0  0  0
  1  8  1  1  0  0  0
  1  5  1  0  0  0  0
  2  4  2  0  0  0  0
  5  2  1  0  0  0  0
  6  2  1  0  0  0  0
  6 38  1  1  0  0  0
  7  3  1  6  0  0  0
  7  1  1  0  0  0  0
  7  6  1  0  0  0  0
  8  9  1  6  0  0  0
 10  8  1  0  0  0  0
 11 19  1  0  0  0  0
 11 14  2  0  0  0  0
 13 11  1  0  0  0  0
 14 20  2  0  0  0  0
 15 18  1  0  0  0  0
 16 17  1  0  0  0  0
 17 12  1  0  0  0  0
 18 12  1  0  0  0  0
 18 10  1  0  0  0  0
 19 37  1  1  0  0  0
 19 16  1  0  0  0  0
 20 15  1  0  0  0  0
 22 20  1  0  0  0  0
 22 21  1  1  0  0  0
 23 24  2  0  0  0  0
 23 22  1  0  0  0  0
 25 29  1  0  0  0  0
 26 30  1  0  0  0  0
 26 29  1  0  0  0  0
 28 25  2  0  0  0  0
 29 27  1  6  0  0  0
 29 23  1  0  0  0  0
 30 32  1  6  0  0  0
 31 28  1  0  0  0  0
 31 30  1  0  0  0  0
 32 35  1  0  0  0  0
 34 35  1  0  0  0  0
 35 33  2  0  0  0  0
 36 37  1  0  0  0  0
 39 38  1  1  0  0  0
 39 47  1  0  0  0  0
 40 41  1  6  0  0  0
 40 43  1  0  0  0  0
 40 39  1  0  0  0  0
 43 42  1  6  0  0  0
 43 46  1  0  0  0  0
 44 46  1  0  0  0  0
 46 45  2  0  0  0  0
 47 48  1  0  0  0  0
 48 49  1  0  0  0  0
 49 50  1  0  0  0  0
 50 51  1  0  0  0  0
 51 58  1  0  0  0  0
 52 57  1  0  0  0  0
 53 55  1  0  0  0  0
 53 56  1  0  0  0  0
 54 53  2  0  0  0  0
 57 55  2  0  0  0  0
 58 52  2  0  0  0  0
 58 54  1  0  0  0  0
 59 49  1  0  0  0  0
 60 59  1  0  0  0  0
 61 60  1  0  0  0  0
 62 61  1  1  0  0  0
 62 65  1  0  0  0  0
 63 64  1  0  0  0  0
 63 62  1  0  0  0  0
 64 62  1  0  0  0  0
 66 68  1  0  0  0  0
 66 65  1  0  0  0  0
 68 69  1  0  0  0  0
 68 67  1  0  0  0  0
M  END
>  <MODEL>
9

>  <REMARK>
 VINA RESULT:      -3.7      3.226      5.408
  Name = 
  27 active torsions:
  status: ('A' for Active; 'I' for Inactive)
    1  A    between atoms: C_1  and  N_15
    2  A    between atoms: C_1  and  C_54
    3  A    between atoms: C_2  and  C_6
    4  A    between atoms: C_2  and  C_54
    5  A    between atoms: C_6  and  C_27
    6  A    between atoms: C_10  and  C_61
    7  A    between atoms: C_10  and  C_69
    8  A    between atoms: N_15  and  C_61
    9  A    between atoms: N_15  and  C_66
   10  A    between atoms: C_18  and  C_36
   11  A    between atoms: C_23  and  C_42
   12  A    between atoms: C_23  and  C_46
   13  A    between atoms: C_25  and  C_30
   14  A    between atoms: C_25  and  C_67
   15  A    between atoms: C_26  and  C_39
   16  A    between atoms: C_26  and  C_51
   17  A    between atoms: C_27  and  C_36
   18  A    between atoms: C_29  and  C_43
   19  A    between atoms: C_35  and  C_51
   20  A    between atoms: C_35  and  C_66
   21  A    between atoms: C_39  and  C_53
   22  A    between atoms: C_42  and  C_60
   23  A    between atoms: C_43  and  C_50
   24  A    between atoms: C_45  and  C_55
   25  A    between atoms: C_51  and  C_68
   26  A    between atoms: N_52  and  C_67
   27  A    between atoms: C_64  and  C_68
                            x       y       z     vdW  Elec       q    Type
                         _______ _______ _______ _____ _____    ______ ____

>  <TORSDO>
F 27

$$$$
