=
 OpenBabel11062420353D

 32 35  0  0  1  0  0  0  0  0999 V2000
  189.5590  175.2750  142.0580 C   0  0  0  0  0  2  0  0  0  0  0  0
  190.4980  175.9750  143.0220 C   0  0  1  0  0  3  0  0  0  0  0  0
  188.9970  176.0890  143.2040 C   0  0  1  0  0  3  0  0  0  0  0  0
  188.5510  177.4440  142.7010 C   0  0  0  0  0  2  0  0  0  0  0  0
  185.5610  177.4590  142.2080 N   0  0  0  0  0  0  0  0  0  0  0  0
  184.2540  178.0620  142.0160 C   0  0  0  0  0  1  0  0  0  0  0  0
  186.1590  177.7070  139.9650 O   0  0  0  0  0  0  0  0  0  0  0  0
  187.9320  177.3000  141.3930 N   0  0  0  0  0  2  0  0  0  0  0  0
  186.5360  177.5020  141.1480 C   0  0  0  0  0  0  0  0  0  0  0  0
  185.7890  176.7190  143.4480 C   0  0  0  0  0  2  0  0  0  0  0  0
  186.8340  176.7920  146.6030 C   0  0  0  0  0  2  0  0  0  0  0  0
  185.8640  179.0360  147.0460 C   0  0  0  0  0  2  0  0  0  0  0  0
  185.4320  179.5200  145.6680 C   0  0  0  0  0  2  0  0  0  0  0  0
  185.6510  177.5240  147.2230 C   0  0  1  0  0  3  0  0  0  0  0  0
  185.4750  176.6950  145.9400 C   0  0  1  0  0  3  0  0  0  0  0  0
  185.3500  177.5420  144.6510 C   0  0  1  0  0  3  0  0  0  0  0  0
  186.0740  178.7430  144.7020 O   0  0  0  0  0  0  0  0  0  0  0  0
  191.0570  174.9770  144.0340 C   0  0  2  0  0  3  0  0  0  0  0  0
  192.2520  175.5470  144.7450 C   0  0  0  0  0  0  0  0  0  0  0  0
  191.0300  175.5610  146.8400 O   0  0  0  0  0  1  0  0  0  0  0  0
  194.5600  176.3350  144.7060 C   0  0  0  0  0  0  0  0  0  0  0  0
  193.3030  176.3520  146.7770 C   0  0  0  0  0  3  0  0  0  0  0  0
  193.4420  175.8030  144.0480 C   0  0  0  0  0  3  0  0  0  0  0  0
  194.4840  176.6030  146.0740 C   0  0  0  0  0  3  0  0  0  0  0  0
  192.1900  175.8240  146.1180 C   0  0  0  0  0  0  0  0  0  0  0  0
  196.6740  174.4660  143.8720 O   0  0  0  0  0  1  0  0  0  0  0  0
  196.8000  175.6960  143.6380 C   0  0  0  0  0  0  0  0  0  0  0  0
  195.7790  176.6310  144.0100 N   0  0  0  0  0  2  0  0  0  0  0  0
  197.9400  176.1600  142.9960 O   0  0  0  0  0  0  0  0  0  0  0  0
  191.4220  173.6630  143.3590 C   0  0  0  0  0  2  0  0  0  0  0  0
  190.9410  172.4850  144.1820 C   0  0  0  0  0  2  0  0  0  0  0  0
  189.8390  172.9030  145.0260 N   0  0  0  0  0  1  0  0  0  0  0  0
  1  2  1  0  0  0  0
  1  3  1  0  0  0  0
  2  3  1  0  0  0  0
  2 18  1  1  0  0  0
  3  4  1  6  0  0  0
  5 10  1  0  0  0  0
  6  5  1  0  0  0  0
  7  9  2  0  0  0  0
  8  4  1  0  0  0  0
  9  8  1  0  0  0  0
  9  5  1  0  0  0  0
 12 14  1  0  0  0  0
 13 12  1  0  0  0  0
 14 11  1  6  0  0  0
 15 11  1  6  0  0  0
 15 14  1  0  0  0  0
 16 10  1  6  0  0  0
 16 17  1  0  0  0  0
 16 15  1  0  0  0  0
 17 13  1  0  0  0  0
 18 30  1  6  0  0  0
 18 19  1  0  0  0  0
 19 25  1  0  0  0  0
 21 24  2  0  0  0  0
 23 21  1  0  0  0  0
 23 19  2  0  0  0  0
 24 22  1  0  0  0  0
 25 22  2  0  0  0  0
 25 20  1  0  0  0  0
 27 26  1  0  0  0  0
 27 28  1  0  0  0  0
 28 21  1  0  0  0  0
 29 27  2  0  0  0  0
 30 31  1  0  0  0  0
 31 32  1  0  0  0  0
M  END
>  <MODEL>
1

>  <REMARK>
 VINA RESULT:      -7.3      0.000      0.000
  Name = 
  9 active torsions:
  status: ('A' for Active; 'I' for Inactive)
    1  A    between atoms: C_1  and  N_17
    2  A    between atoms: C_1  and  C_31
    3  A    between atoms: C_2  and  C_14
    4  A    between atoms: C_3  and  N_5
    5  A    between atoms: C_3  and  C_28
    6  A    between atoms: C_9  and  C_14
    7  A    between atoms: C_10  and  N_30
    8  A    between atoms: C_11  and  C_14
    9  A    between atoms: C_11  and  C_16
                            x       y       z     vdW  Elec       q    Type
                         _______ _______ _______ _____ _____    ______ ____

>  <TORSDO>
F 9

$$$$
=
 OpenBabel11062420353D

 32 35  0  0  1  0  0  0  0  0999 V2000
  190.1220  177.8410  145.1410 C   0  0  0  0  0  2  0  0  0  0  0  0
  189.7170  176.4570  144.6720 C   0  0  1  0  0  3  0  0  0  0  0  0
  190.5990  177.3280  143.7990 C   0  0  1  0  0  3  0  0  0  0  0  0
  189.7520  177.9180  142.6940 C   0  0  0  0  0  2  0  0  0  0  0  0
  186.8100  177.9280  141.9640 N   0  0  0  0  0  0  0  0  0  0  0  0
  185.6430  178.2830  141.1770 C   0  0  0  0  0  1  0  0  0  0  0  0
  187.3830  176.1490  140.5640 O   0  0  0  0  0  0  0  0  0  0  0  0
  189.0800  176.8510  141.9700 N   0  0  0  0  0  2  0  0  0  0  0  0
  187.7450  176.9520  141.4630 C   0  0  0  0  0  0  0  0  0  0  0  0
  186.9230  178.4990  143.3040 C   0  0  0  0  0  2  0  0  0  0  0  0
  186.6180  177.2650  146.3750 C   0  0  0  0  0  2  0  0  0  0  0  0
  184.2620  178.0100  146.6200 C   0  0  0  0  0  2  0  0  0  0  0  0
  184.0370  178.9010  145.4050 C   0  0  0  0  0  2  0  0  0  0  0  0
  185.1660  176.8100  146.3010 C   0  0  1  0  0  3  0  0  0  0  0  0
  186.0240  176.9090  145.0280 C   0  0  1  0  0  3  0  0  0  0  0  0
  185.7060  178.1380  144.1450 C   0  0  1  0  0  3  0  0  0  0  0  0
  185.2800  179.2560  144.8790 O   0  0  0  0  0  0  0  0  0  0  0  0
  190.5740  175.3940  145.3560 C   0  0  2  0  0  3  0  0  0  0  0  0
  190.7650  174.2010  144.4630 C   0  0  0  0  0  0  0  0  0  0  0  0
  192.8940  173.7200  145.5220 O   0  0  0  0  0  1  0  0  0  0  0  0
  189.9670  172.7460  142.6760 C   0  0  0  0  0  0  0  0  0  0  0  0
  192.0970  172.3060  143.7430 C   0  0  0  0  0  3  0  0  0  0  0  0
  189.7930  173.8570  143.5130 C   0  0  0  0  0  3  0  0  0  0  0  0
  191.1230  171.9720  142.8010 C   0  0  0  0  0  3  0  0  0  0  0  0
  191.9210  173.4160  144.5750 C   0  0  0  0  0  0  0  0  0  0  0  0
  189.7130  173.7960  139.9400 O   0  0  0  0  0  1  0  0  0  0  0  0
  188.8920  172.9390  140.3590 C   0  0  0  0  0  0  0  0  0  0  0  0
  189.0000  172.3890  141.6780 N   0  0  0  0  0  2  0  0  0  0  0  0
  187.8690  172.5050  139.5270 O   0  0  0  0  0  0  0  0  0  0  0  0
  189.9560  174.9660  146.6800 C   0  0  0  0  0  2  0  0  0  0  0  0
  190.8380  175.3750  147.8410 C   0  0  0  0  0  2  0  0  0  0  0  0
  191.9660  176.1390  147.3460 N   0  0  0  0  0  1  0  0  0  0  0  0
  2  1  1  0  0  0  0
  2 18  1  1  0  0  0
  3  4  1  6  0  0  0
  3  2  1  0  0  0  0
  3  1  1  0  0  0  0
  5 10  1  0  0  0  0
  6  5  1  0  0  0  0
  7  9  2  0  0  0  0
  8  4  1  0  0  0  0
  9  5  1  0  0  0  0
  9  8  1  0  0  0  0
 13 12  1  0  0  0  0
 14 11  1  1  0  0  0
 14 12  1  0  0  0  0
 15 14  1  0  0  0  0
 15 11  1  1  0  0  0
 16 10  1  1  0  0  0
 16 17  1  0  0  0  0
 16 15  1  0  0  0  0
 17 13  1  0  0  0  0
 18 30  1  1  0  0  0
 19 25  1  0  0  0  0
 19 18  1  0  0  0  0
 21 24  2  0  0  0  0
 21 23  1  0  0  0  0
 22 25  2  0  0  0  0
 23 19  2  0  0  0  0
 24 22  1  0  0  0  0
 25 20  1  0  0  0  0
 26 27  1  0  0  0  0
 27 28  1  0  0  0  0
 28 21  1  0  0  0  0
 29 27  2  0  0  0  0
 30 31  1  0  0  0  0
 32 31  1  0  0  0  0
M  END
>  <MODEL>
2

>  <REMARK>
 VINA RESULT:      -7.0      2.667      4.336
  Name = 
  9 active torsions:
  status: ('A' for Active; 'I' for Inactive)
    1  A    between atoms: C_1  and  N_17
    2  A    between atoms: C_1  and  C_31
    3  A    between atoms: C_2  and  C_14
    4  A    between atoms: C_3  and  N_5
    5  A    between atoms: C_3  and  C_28
    6  A    between atoms: C_9  and  C_14
    7  A    between atoms: C_10  and  N_30
    8  A    between atoms: C_11  and  C_14
    9  A    between atoms: C_11  and  C_16
                            x       y       z     vdW  Elec       q    Type
                         _______ _______ _______ _____ _____    ______ ____

>  <TORSDO>
F 9

$$$$
=
 OpenBabel11062420353D

 32 35  0  0  1  0  0  0  0  0999 V2000
  189.2710  172.5130  143.3470 C   0  0  0  0  0  2  0  0  0  0  0  0
  189.1000  174.0170  143.2620 C   0  0  1  0  0  3  0  0  0  0  0  0
  190.4620  173.4210  143.5660 C   0  0  1  0  0  3  0  0  0  0  0  0
  190.7310  173.5650  145.0480 C   0  0  0  0  0  2  0  0  0  0  0  0
  190.4490  176.1040  146.6790 N   0  0  0  0  0  0  0  0  0  0  0  0
  190.4020  176.8990  147.8930 C   0  0  0  0  0  1  0  0  0  0  0  0
  192.7800  176.1710  146.5600 O   0  0  0  0  0  0  0  0  0  0  0  0
  191.7980  174.5300  145.2590 N   0  0  0  0  0  2  0  0  0  0  0  0
  191.7130  175.6190  146.1840 C   0  0  0  0  0  0  0  0  0  0  0  0
  189.2030  175.9290  145.9360 C   0  0  0  0  0  2  0  0  0  0  0  0
  186.3330  176.9910  144.6380 C   0  0  0  0  0  2  0  0  0  0  0  0
  185.3990  177.6710  146.8360 C   0  0  0  0  0  2  0  0  0  0  0  0
  186.3950  177.1080  147.8410 C   0  0  0  0  0  2  0  0  0  0  0  0
  186.0860  178.1780  145.5590 C   0  0  1  0  0  3  0  0  0  0  0  0
  187.5140  177.6750  145.2950 C   0  0  1  0  0  3  0  0  0  0  0  0
  188.1280  176.8690  146.4640 C   0  0  1  0  0  3  0  0  0  0  0  0
  187.1770  176.1450  147.2010 O   0  0  0  0  0  0  0  0  0  0  0  0
  189.0580  174.4630  141.8020 C   0  0  2  0  0  3  0  0  0  0  0  0
  188.5560  175.8750  141.6860 C   0  0  0  0  0  0  0  0  0  0  0  0
  190.5880  176.7070  142.7190 O   0  0  0  0  0  1  0  0  0  0  0  0
  186.8350  177.4590  140.9960 C   0  0  0  0  0  0  0  0  0  0  0  0
  188.8690  178.2530  142.0480 C   0  0  0  0  0  3  0  0  0  0  0  0
  187.3090  176.1440  141.1050 C   0  0  0  0  0  3  0  0  0  0  0  0
  187.6250  178.5110  141.4670 C   0  0  0  0  0  3  0  0  0  0  0  0
  189.3370  176.9400  142.1570 C   0  0  0  0  0  0  0  0  0  0  0  0
  184.3650  178.2120  142.4040 O   0  0  0  0  0  1  0  0  0  0  0  0
  184.3600  178.1010  141.1500 C   0  0  0  0  0  0  0  0  0  0  0  0
  185.5510  177.7580  140.4310 N   0  0  0  0  0  2  0  0  0  0  0  0
  183.1850  178.3260  140.4460 O   0  0  0  0  0  0  0  0  0  0  0  0
  188.1910  173.5270  140.9720 C   0  0  0  0  0  2  0  0  0  0  0  0
  188.9030  173.1270  139.6960 C   0  0  0  0  0  2  0  0  0  0  0  0
  188.2230  173.7140  138.5590 N   0  0  0  0  0  1  0  0  0  0  0  0
  1  3  1  0  0  0  0
  2 18  1  6  0  0  0
  2  1  1  0  0  0  0
  2  3  1  0  0  0  0
  3  4  1  1  0  0  0
  4  8  1  0  0  0  0
  5  6  1  0  0  0  0
  8  9  1  0  0  0  0
  9  7  2  0  0  0  0
  9  5  1  0  0  0  0
 10  5  1  0  0  0  0
 12 13  1  0  0  0  0
 14 11  1  6  0  0  0
 14 12  1  0  0  0  0
 15 11  1  6  0  0  0
 15 14  1  0  0  0  0
 15 16  1  0  0  0  0
 16 10  1  6  0  0  0
 16 17  1  0  0  0  0
 17 13  1  0  0  0  0
 18 30  1  6  0  0  0
 19 18  1  0  0  0  0
 19 25  1  0  0  0  0
 21 23  1  0  0  0  0
 21 24  2  0  0  0  0
 22 25  2  0  0  0  0
 23 19  2  0  0  0  0
 24 22  1  0  0  0  0
 25 20  1  0  0  0  0
 27 26  1  0  0  0  0
 28 21  1  0  0  0  0
 28 27  1  0  0  0  0
 29 27  2  0  0  0  0
 31 30  1  0  0  0  0
 32 31  1  0  0  0  0
M  END
>  <MODEL>
3

>  <REMARK>
 VINA RESULT:      -6.8      2.589      6.859
  Name = 
  9 active torsions:
  status: ('A' for Active; 'I' for Inactive)
    1  A    between atoms: C_1  and  N_17
    2  A    between atoms: C_1  and  C_31
    3  A    between atoms: C_2  and  C_14
    4  A    between atoms: C_3  and  N_5
    5  A    between atoms: C_3  and  C_28
    6  A    between atoms: C_9  and  C_14
    7  A    between atoms: C_10  and  N_30
    8  A    between atoms: C_11  and  C_14
    9  A    between atoms: C_11  and  C_16
                            x       y       z     vdW  Elec       q    Type
                         _______ _______ _______ _____ _____    ______ ____

>  <TORSDO>
F 9

$$$$
=
 OpenBabel11062420353D

 32 35  0  0  1  0  0  0  0  0999 V2000
  190.8980  178.1740  143.6630 C   0  0  0  0  0  2  0  0  0  0  0  0
  190.3540  176.8380  144.1300 C   0  0  1  0  0  3  0  0  0  0  0  0
  189.9770  177.3770  142.7640 C   0  0  1  0  0  3  0  0  0  0  0  0
  188.5750  177.9400  142.8380 C   0  0  0  0  0  2  0  0  0  0  0  0
  185.5980  177.5810  142.4010 N   0  0  0  0  0  0  0  0  0  0  0  0
  184.2140  178.0080  142.2960 C   0  0  0  0  0  1  0  0  0  0  0  0
  186.0830  178.1430  140.1870 O   0  0  0  0  0  0  0  0  0  0  0  0
  187.9410  177.8460  141.5330 N   0  0  0  0  0  2  0  0  0  0  0  0
  186.5230  177.8720  141.3350 C   0  0  0  0  0  0  0  0  0  0  0  0
  185.9670  176.7570  143.5500 C   0  0  0  0  0  2  0  0  0  0  0  0
  187.2140  176.7840  146.6310 C   0  0  0  0  0  2  0  0  0  0  0  0
  185.8990  178.7730  147.3240 C   0  0  0  0  0  2  0  0  0  0  0  0
  185.2860  179.2720  146.0220 C   0  0  0  0  0  2  0  0  0  0  0  0
  185.9700  177.2400  147.3820 C   0  0  1  0  0  3  0  0  0  0  0  0
  185.8490  176.4900  146.0450 C   0  0  1  0  0  3  0  0  0  0  0  0
  185.4800  177.3930  144.8440 C   0  0  1  0  0  3  0  0  0  0  0  0
  185.9810  178.7000  144.9550 O   0  0  0  0  0  0  0  0  0  0  0  0
  191.4140  175.7500  143.9700 C   0  0  2  0  0  3  0  0  0  0  0  0
  190.7760  174.4110  143.7240 C   0  0  0  0  0  0  0  0  0  0  0  0
  190.1290  174.2660  146.0580 O   0  0  0  0  0  1  0  0  0  0  0  0
  190.1860  172.5940  142.2080 C   0  0  0  0  0  0  0  0  0  0  0  0
  189.5730  172.4730  144.5490 C   0  0  0  0  0  3  0  0  0  0  0  0
  190.7790  173.8430  142.4420 C   0  0  0  0  0  3  0  0  0  0  0  0
  189.5800  171.9160  143.2690 C   0  0  0  0  0  3  0  0  0  0  0  0
  190.1660  173.7180  144.7790 C   0  0  0  0  0  0  0  0  0  0  0  0
  188.2880  172.9830  139.9950 O   0  0  0  0  0  1  0  0  0  0  0  0
  189.2450  172.1760  139.8630 C   0  0  0  0  0  0  0  0  0  0  0  0
  190.2000  171.9790  140.9120 N   0  0  0  0  0  2  0  0  0  0  0  0
  189.3880  171.4700  138.6760 O   0  0  0  0  0  0  0  0  0  0  0  0
  192.3180  175.6860  145.1930 C   0  0  0  0  0  2  0  0  0  0  0  0
  193.7640  175.9090  144.8030 C   0  0  0  0  0  2  0  0  0  0  0  0
  194.2540  177.1180  145.4360 N   0  0  0  0  0  1  0  0  0  0  0  0
  1  2  1  0  0  0  0
  2 18  1  6  0  0  0
  3  4  1  1  0  0  0
  3  1  1  0  0  0  0
  3  2  1  0  0  0  0
  5 10  1  0  0  0  0
  6  5  1  0  0  0  0
  7  9  2  0  0  0  0
  8  4  1  0  0  0  0
  9  8  1  0  0  0  0
  9  5  1  0  0  0  0
 12 14  1  0  0  0  0
 13 12  1  0  0  0  0
 14 11  1  6  0  0  0
 15 11  1  6  0  0  0
 15 14  1  0  0  0  0
 16 10  1  6  0  0  0
 16 17  1  0  0  0  0
 16 15  1  0  0  0  0
 17 13  1  0  0  0  0
 18 30  1  1  0  0  0
 19 18  1  0  0  0  0
 19 25  1  0  0  0  0
 21 23  1  0  0  0  0
 21 24  2  0  0  0  0
 22 25  2  0  0  0  0
 23 19  2  0  0  0  0
 24 22  1  0  0  0  0
 25 20  1  0  0  0  0
 27 26  1  0  0  0  0
 27 28  1  0  0  0  0
 28 21  1  0  0  0  0
 29 27  2  0  0  0  0
 31 30  1  0  0  0  0
 31 32  1  0  0  0  0
M  END
>  <MODEL>
4

>  <REMARK>
 VINA RESULT:      -6.8      2.379      4.303
  Name = 
  9 active torsions:
  status: ('A' for Active; 'I' for Inactive)
    1  A    between atoms: C_1  and  N_17
    2  A    between atoms: C_1  and  C_31
    3  A    between atoms: C_2  and  C_14
    4  A    between atoms: C_3  and  N_5
    5  A    between atoms: C_3  and  C_28
    6  A    between atoms: C_9  and  C_14
    7  A    between atoms: C_10  and  N_30
    8  A    between atoms: C_11  and  C_14
    9  A    between atoms: C_11  and  C_16
                            x       y       z     vdW  Elec       q    Type
                         _______ _______ _______ _____ _____    ______ ____

>  <TORSDO>
F 9

$$$$
=
 OpenBabel11062420353D

 32 35  0  0  1  0  0  0  0  0999 V2000
  189.8010  175.5990  144.5870 C   0  0  0  0  0  2  0  0  0  0  0  0
  191.2380  176.0400  144.3880 C   0  0  1  0  0  3  0  0  0  0  0  0
  190.1220  177.0670  144.4110 C   0  0  1  0  0  3  0  0  0  0  0  0
  189.8260  177.4890  142.9890 C   0  0  0  0  0  2  0  0  0  0  0  0
  187.0250  177.7520  141.8600 N   0  0  0  0  0  0  0  0  0  0  0  0
  186.0230  178.1390  140.8840 C   0  0  0  0  0  1  0  0  0  0  0  0
  187.5240  175.7540  140.7600 O   0  0  0  0  0  0  0  0  0  0  0  0
  189.1120  176.4250  142.3020 N   0  0  0  0  0  2  0  0  0  0  0  0
  187.8760  176.6170  141.6060 C   0  0  0  0  0  0  0  0  0  0  0  0
  187.0460  178.4730  143.1310 C   0  0  0  0  0  2  0  0  0  0  0  0
  186.8020  177.3810  146.2600 C   0  0  0  0  0  2  0  0  0  0  0  0
  184.4050  177.9980  146.4640 C   0  0  0  0  0  2  0  0  0  0  0  0
  184.1340  178.8110  145.2060 C   0  0  0  0  0  2  0  0  0  0  0  0
  185.3800  176.8390  146.2080 C   0  0  1  0  0  3  0  0  0  0  0  0
  186.2360  176.9230  144.9330 C   0  0  1  0  0  3  0  0  0  0  0  0
  185.8490  178.0840  143.9870 C   0  0  1  0  0  3  0  0  0  0  0  0
  185.3560  179.2120  144.6630 O   0  0  0  0  0  0  0  0  0  0  0  0
  191.9750  176.0640  145.7250 C   0  0  2  0  0  3  0  0  0  0  0  0
  193.2140  175.2160  145.6700 C   0  0  0  0  0  0  0  0  0  0  0  0
  194.6040  177.2050  145.6870 O   0  0  0  0  0  1  0  0  0  0  0  0
  194.2750  173.0220  145.5960 C   0  0  0  0  0  0  0  0  0  0  0  0
  195.6320  175.0300  145.5950 C   0  0  0  0  0  3  0  0  0  0  0  0
  193.1220  173.8170  145.6480 C   0  0  0  0  0  3  0  0  0  0  0  0
  195.5290  173.6370  145.5740 C   0  0  0  0  0  3  0  0  0  0  0  0
  194.4790  175.8200  145.6450 C   0  0  0  0  0  0  0  0  0  0  0  0
  193.8530  171.3090  143.2420 O   0  0  0  0  0  0  0  0  0  0  0  0
  193.9770  170.7870  144.3800 C   0  0  0  0  0  0  0  0  0  0  0  0
  194.2070  171.5890  145.5450 N   0  0  0  0  0  2  0  0  0  0  0  0
  193.9040  169.4070  144.5140 O   0  0  0  0  0  1  0  0  0  0  0  0
  191.0670  175.5970  146.8550 C   0  0  0  0  0  2  0  0  0  0  0  0
  191.2100  176.4970  148.0650 C   0  0  0  0  0  2  0  0  0  0  0  0
  190.3590  177.6600  147.9040 N   0  0  0  0  0  1  0  0  0  0  0  0
  2  3  1  0  0  0  0
  2  1  1  0  0  0  0
  2 18  1  1  0  0  0
  3  4  1  6  0  0  0
  3  1  1  0  0  0  0
  5 10  1  0  0  0  0
  6  5  1  0  0  0  0
  7  9  2  0  0  0  0
  8  4  1  0  0  0  0
  9  5  1  0  0  0  0
  9  8  1  0  0  0  0
 13 12  1  0  0  0  0
 14 11  1  1  0  0  0
 14 12  1  0  0  0  0
 15 14  1  0  0  0  0
 15 11  1  1  0  0  0
 16 10  1  1  0  0  0
 16 17  1  0  0  0  0
 16 15  1  0  0  0  0
 17 13  1  0  0  0  0
 18 30  1  1  0  0  0
 19 18  1  0  0  0  0
 21 23  2  0  0  0  0
 22 25  1  0  0  0  0
 23 19  1  0  0  0  0
 24 22  2  0  0  0  0
 24 21  1  0  0  0  0
 25 19  2  0  0  0  0
 25 20  1  0  0  0  0
 26 27  2  0  0  0  0
 27 29  1  0  0  0  0
 27 28  1  0  0  0  0
 28 21  1  0  0  0  0
 30 31  1  0  0  0  0
 32 31  1  0  0  0  0
M  END
>  <MODEL>
5

>  <REMARK>
 VINA RESULT:      -6.8      2.520      3.257
  Name = 
  9 active torsions:
  status: ('A' for Active; 'I' for Inactive)
    1  A    between atoms: C_1  and  N_17
    2  A    between atoms: C_1  and  C_31
    3  A    between atoms: C_2  and  C_14
    4  A    between atoms: C_3  and  N_5
    5  A    between atoms: C_3  and  C_28
    6  A    between atoms: C_9  and  C_14
    7  A    between atoms: C_10  and  N_30
    8  A    between atoms: C_11  and  C_14
    9  A    between atoms: C_11  and  C_16
                            x       y       z     vdW  Elec       q    Type
                         _______ _______ _______ _____ _____    ______ ____

>  <TORSDO>
F 9

$$$$
=
 OpenBabel11062420353D

 32 35  0  0  1  0  0  0  0  0999 V2000
  192.0560  176.0850  146.1530 C   0  0  0  0  0  2  0  0  0  0  0  0
  192.1240  174.6410  145.6950 C   0  0  1  0  0  3  0  0  0  0  0  0
  191.3480  175.6610  144.8840 C   0  0  1  0  0  3  0  0  0  0  0  0
  189.8720  175.4730  145.1590 C   0  0  0  0  0  2  0  0  0  0  0  0
  188.4450  177.2000  143.1170 N   0  0  0  0  0  0  0  0  0  0  0  0
  188.3450  178.0900  141.9750 C   0  0  0  0  0  1  0  0  0  0  0  0
  188.4950  175.2790  141.7910 O   0  0  0  0  0  0  0  0  0  0  0  0
  189.2140  174.9630  143.9660 N   0  0  0  0  0  2  0  0  0  0  0  0
  188.7150  175.7980  142.9160 C   0  0  0  0  0  0  0  0  0  0  0  0
  188.1430  177.7530  144.4360 C   0  0  0  0  0  2  0  0  0  0  0  0
  186.2970  177.2980  147.1620 C   0  0  0  0  0  2  0  0  0  0  0  0
  184.3140  178.4540  146.2140 C   0  0  0  0  0  2  0  0  0  0  0  0
  184.8400  179.0770  144.9280 C   0  0  0  0  0  2  0  0  0  0  0  0
  184.9460  177.0820  146.4950 C   0  0  1  0  0  3  0  0  0  0  0  0
  186.2500  176.7540  145.7500 C   0  0  1  0  0  3  0  0  0  0  0  0
  186.6400  177.7910  144.6700 C   0  0  1  0  0  3  0  0  0  0  0  0
  186.2350  179.0990  144.9830 O   0  0  0  0  0  0  0  0  0  0  0  0
  193.4630  174.3660  145.0120 C   0  0  2  0  0  3  0  0  0  0  0  0
  193.6510  172.8940  144.7750 C   0  0  0  0  0  0  0  0  0  0  0  0
  192.5860  173.0840  142.6030 O   0  0  0  0  0  1  0  0  0  0  0  0
  194.4610  170.7170  145.5180 C   0  0  0  0  0  0  0  0  0  0  0  0
  193.3750  170.9400  143.3640 C   0  0  0  0  0  3  0  0  0  0  0  0
  194.2830  172.0910  145.7350 C   0  0  0  0  0  3  0  0  0  0  0  0
  194.0070  170.1490  144.3260 C   0  0  0  0  0  3  0  0  0  0  0  0
  193.1980  172.3090  143.5840 C   0  0  0  0  0  0  0  0  0  0  0  0
  197.3320  170.2480  145.9580 O   0  0  0  0  0  0  0  0  0  0  0  0
  196.4850  169.6470  146.6680 C   0  0  0  0  0  0  0  0  0  0  0  0
  195.0800  169.8690  146.4970 N   0  0  0  0  0  2  0  0  0  0  0  0
  196.9150  168.7610  147.6470 O   0  0  0  0  0  1  0  0  0  0  0  0
  194.6170  174.9180  145.8370 C   0  0  0  0  0  2  0  0  0  0  0  0
  195.7190  175.4370  144.9360 C   0  0  0  0  0  2  0  0  0  0  0  0
  195.1390  176.2270  143.8680 N   0  0  0  0  0  1  0  0  0  0  0  0
  2 18  1  6  0  0  0
  2  1  1  0  0  0  0
  3  4  1  1  0  0  0
  3  2  1  0  0  0  0
  3  1  1  0  0  0  0
  5 10  1  0  0  0  0
  6  5  1  0  0  0  0
  7  9  2  0  0  0  0
  8  4  1  0  0  0  0
  9  5  1  0  0  0  0
  9  8  1  0  0  0  0
 13 17  1  0  0  0  0
 13 12  1  0  0  0  0
 14 12  1  6  0  0  0
 14 11  1  0  0  0  0
 15 14  1  0  0  0  0
 15 11  1  1  0  0  0
 16 10  1  1  0  0  0
 16 17  1  0  0  0  0
 16 15  1  0  0  0  0
 18 30  1  1  0  0  0
 19 18  1  0  0  0  0
 19 23  1  0  0  0  0
 20 25  1  0  0  0  0
 21 23  2  0  0  0  0
 21 28  1  0  0  0  0
 22 25  1  0  0  0  0
 22 24  2  0  0  0  0
 24 21  1  0  0  0  0
 25 19  2  0  0  0  0
 26 27  2  0  0  0  0
 27 29  1  0  0  0  0
 28 27  1  0  0  0  0
 31 30  1  0  0  0  0
 32 31  1  0  0  0  0
M  END
>  <MODEL>
6

>  <REMARK>
 VINA RESULT:      -6.7      3.015      4.416
  Name = 
  9 active torsions:
  status: ('A' for Active; 'I' for Inactive)
    1  A    between atoms: C_1  and  N_17
    2  A    between atoms: C_1  and  C_31
    3  A    between atoms: C_2  and  C_14
    4  A    between atoms: C_3  and  N_5
    5  A    between atoms: C_3  and  C_28
    6  A    between atoms: C_9  and  C_14
    7  A    between atoms: C_10  and  N_30
    8  A    between atoms: C_11  and  C_14
    9  A    between atoms: C_11  and  C_16
                            x       y       z     vdW  Elec       q    Type
                         _______ _______ _______ _____ _____    ______ ____

>  <TORSDO>
F 9

$$$$
=
 OpenBabel11062420353D

 32 35  0  0  1  0  0  0  0  0999 V2000
  190.4160  177.0700  145.5440 C   0  0  0  0  0  2  0  0  0  0  0  0
  190.4000  175.9510  144.5200 C   0  0  1  0  0  3  0  0  0  0  0  0
  190.3160  177.3970  144.0690 C   0  0  1  0  0  3  0  0  0  0  0  0
  188.8800  177.7070  143.7090 C   0  0  0  0  0  2  0  0  0  0  0  0
  186.1950  177.4350  142.3290 N   0  0  0  0  0  0  0  0  0  0  0  0
  184.9400  177.9050  141.7710 C   0  0  0  0  0  1  0  0  0  0  0  0
  187.3980  177.9140  140.3860 O   0  0  0  0  0  0  0  0  0  0  0  0
  188.7020  177.5950  142.2700 N   0  0  0  0  0  2  0  0  0  0  0  0
  187.4290  177.6620  141.6190 C   0  0  0  0  0  0  0  0  0  0  0  0
  186.1360  176.6330  143.5500 C   0  0  0  0  0  2  0  0  0  0  0  0
  186.8740  176.9480  146.7750 C   0  0  0  0  0  2  0  0  0  0  0  0
  185.5670  179.0430  147.0400 C   0  0  0  0  0  2  0  0  0  0  0  0
  185.1970  179.4210  145.6120 C   0  0  0  0  0  2  0  0  0  0  0  0
  185.5500  177.5230  147.2620 C   0  0  1  0  0  3  0  0  0  0  0  0
  185.6070  176.6390  146.0050 C   0  0  1  0  0  3  0  0  0  0  0  0
  185.4810  177.4210  144.6760 C   0  0  1  0  0  3  0  0  0  0  0  0
  186.0230  178.7140  144.7370 O   0  0  0  0  0  0  0  0  0  0  0  0
  191.8160  175.4290  144.2850 C   0  0  2  0  0  3  0  0  0  0  0  0
  191.9530  174.8550  142.9020 C   0  0  0  0  0  0  0  0  0  0  0  0
  194.1750  175.8090  142.7030 O   0  0  0  0  0  1  0  0  0  0  0  0
  191.0420  173.5570  141.0490 C   0  0  0  0  0  0  0  0  0  0  0  0
  193.2510  174.5400  140.8770 C   0  0  0  0  0  3  0  0  0  0  0  0
  190.9190  174.0940  142.3390 C   0  0  0  0  0  3  0  0  0  0  0  0
  192.2150  173.7820  140.3250 C   0  0  0  0  0  3  0  0  0  0  0  0
  193.1240  175.0750  142.1620 C   0  0  0  0  0  0  0  0  0  0  0  0
  188.5030  174.5450  139.9400 O   0  0  0  0  0  1  0  0  0  0  0  0
  188.7520  173.3110  139.9290 C   0  0  0  0  0  0  0  0  0  0  0  0
  189.9880  172.7980  140.4400 N   0  0  0  0  0  2  0  0  0  0  0  0
  187.8200  172.4280  139.4010 O   0  0  0  0  0  0  0  0  0  0  0  0
  192.1910  174.3850  145.3270 C   0  0  0  0  0  2  0  0  0  0  0  0
  193.5250  174.7170  145.9620 C   0  0  0  0  0  2  0  0  0  0  0  0
  193.6930  176.1560  146.0110 N   0  0  0  0  0  1  0  0  0  0  0  0
  2 18  1  6  0  0  0
  2  1  1  0  0  0  0
  3  4  1  1  0  0  0
  3  2  1  0  0  0  0
  3  1  1  0  0  0  0
  5 10  1  0  0  0  0
  6  5  1  0  0  0  0
  7  9  2  0  0  0  0
  8  4  1  0  0  0  0
  9  8  1  0  0  0  0
  9  5  1  0  0  0  0
 12 14  1  0  0  0  0
 13 12  1  0  0  0  0
 14 11  1  1  0  0  0
 15 11  1  6  0  0  0
 15 14  1  0  0  0  0
 16 10  1  6  0  0  0
 16 17  1  0  0  0  0
 16 15  1  0  0  0  0
 17 13  1  0  0  0  0
 18 30  1  1  0  0  0
 19 18  1  0  0  0  0
 21 23  2  0  0  0  0
 22 25  1  0  0  0  0
 23 19  1  0  0  0  0
 24 22  2  0  0  0  0
 24 21  1  0  0  0  0
 25 20  1  0  0  0  0
 25 19  2  0  0  0  0
 27 26  1  0  0  0  0
 27 28  1  0  0  0  0
 28 21  1  0  0  0  0
 29 27  2  0  0  0  0
 30 31  1  0  0  0  0
 31 32  1  0  0  0  0
M  END
>  <MODEL>
7

>  <REMARK>
 VINA RESULT:      -6.6      2.162      4.370
  Name = 
  9 active torsions:
  status: ('A' for Active; 'I' for Inactive)
    1  A    between atoms: C_1  and  N_17
    2  A    between atoms: C_1  and  C_31
    3  A    between atoms: C_2  and  C_14
    4  A    between atoms: C_3  and  N_5
    5  A    between atoms: C_3  and  C_28
    6  A    between atoms: C_9  and  C_14
    7  A    between atoms: C_10  and  N_30
    8  A    between atoms: C_11  and  C_14
    9  A    between atoms: C_11  and  C_16
                            x       y       z     vdW  Elec       q    Type
                         _______ _______ _______ _____ _____    ______ ____

>  <TORSDO>
F 9

$$$$
=
 OpenBabel11062420353D

 32 35  0  0  1  0  0  0  0  0999 V2000
  188.3200  178.2450  141.6330 C   0  0  0  0  0  2  0  0  0  0  0  0
  187.9670  177.2610  142.7320 C   0  0  1  0  0  3  0  0  0  0  0  0
  189.0920  178.2580  142.9350 C   0  0  1  0  0  3  0  0  0  0  0  0
  190.4110  177.5390  142.7560 C   0  0  0  0  0  2  0  0  0  0  0  0
  191.8640  175.3820  144.3110 N   0  0  0  0  0  0  0  0  0  0  0  0
  192.9280  174.4290  144.5760 C   0  0  0  0  0  1  0  0  0  0  0  0
  193.0430  177.1670  145.2480 O   0  0  0  0  0  0  0  0  0  0  0  0
  191.2640  177.7880  143.9070 N   0  0  0  0  0  2  0  0  0  0  0  0
  192.0940  176.7900  144.5110 C   0  0  0  0  0  0  0  0  0  0  0  0
  190.5490  174.8490  143.9630 C   0  0  0  0  0  2  0  0  0  0  0  0
  188.3720  173.8780  141.6470 C   0  0  0  0  0  2  0  0  0  0  0  0
  190.1300  173.0290  140.1120 C   0  0  0  0  0  2  0  0  0  0  0  0
  191.4270  173.5170  140.7440 C   0  0  0  0  0  2  0  0  0  0  0  0
  189.0880  172.6230  141.1650 C   0  0  1  0  0  3  0  0  0  0  0  0
  189.3050  173.1510  142.5930 C   0  0  1  0  0  3  0  0  0  0  0  0
  190.6590  173.8670  142.8040 C   0  0  1  0  0  3  0  0  0  0  0  0
  191.1230  174.5290  141.6560 O   0  0  0  0  0  0  0  0  0  0  0  0
  186.7280  177.7350  143.4890 C   0  0  2  0  0  3  0  0  0  0  0  0
  186.7830  177.3080  144.9290 C   0  0  0  0  0  0  0  0  0  0  0  0
  184.6920  178.4560  145.3730 O   0  0  0  0  0  1  0  0  0  0  0  0
  187.8980  176.1190  146.7430 C   0  0  0  0  0  0  0  0  0  0  0  0
  185.8190  177.2920  147.1540 C   0  0  0  0  0  3  0  0  0  0  0  0
  187.8430  176.5200  145.4000 C   0  0  0  0  0  3  0  0  0  0  0  0
  186.8780  176.5070  147.6140 C   0  0  0  0  0  3  0  0  0  0  0  0
  185.7670  177.6920  145.8160 C   0  0  0  0  0  0  0  0  0  0  0  0
  190.5620  177.0440  147.5800 O   0  0  0  0  0  0  0  0  0  0  0  0
  190.2810  175.8190  147.6340 C   0  0  0  0  0  0  0  0  0  0  0  0
  188.9860  175.3360  147.2560 N   0  0  0  0  0  2  0  0  0  0  0  0
  191.2360  174.9150  148.0800 O   0  0  0  0  0  1  0  0  0  0  0  0
  185.4570  177.2150  142.8330 C   0  0  0  0  0  2  0  0  0  0  0  0
  184.8230  178.2840  141.9680 C   0  0  0  0  0  2  0  0  0  0  0  0
  183.3890  178.2900  142.1800 N   0  0  0  0  0  1  0  0  0  0  0  0
  1  2  1  0  0  0  0
  1  3  1  0  0  0  0
  2  3  1  0  0  0  0
  2 18  1  1  0  0  0
  3  4  1  6  0  0  0
  4  8  1  0  0  0  0
  5  9  1  0  0  0  0
  5  6  1  0  0  0  0
  8  9  1  0  0  0  0
  9  7  2  0  0  0  0
 10  5  1  0  0  0  0
 12 13  1  0  0  0  0
 13 17  1  0  0  0  0
 14 12  1  6  0  0  0
 14 11  1  0  0  0  0
 14 15  1  0  0  0  0
 15 11  1  6  0  0  0
 15 16  1  0  0  0  0
 16 10  1  1  0  0  0
 17 16  1  0  0  0  0
 18 30  1  6  0  0  0
 18 19  1  0  0  0  0
 19 23  2  0  0  0  0
 19 25  1  0  0  0  0
 20 25  1  0  0  0  0
 21 28  1  0  0  0  0
 21 24  2  0  0  0  0
 22 24  1  0  0  0  0
 23 21  1  0  0  0  0
 25 22  2  0  0  0  0
 26 27  2  0  0  0  0
 27 29  1  0  0  0  0
 28 27  1  0  0  0  0
 31 32  1  0  0  0  0
 31 30  1  0  0  0  0
M  END
>  <MODEL>
8

>  <REMARK>
 VINA RESULT:      -6.5      2.594      7.027
  Name = 
  9 active torsions:
  status: ('A' for Active; 'I' for Inactive)
    1  A    between atoms: C_1  and  N_17
    2  A    between atoms: C_1  and  C_31
    3  A    between atoms: C_2  and  C_14
    4  A    between atoms: C_3  and  N_5
    5  A    between atoms: C_3  and  C_28
    6  A    between atoms: C_9  and  C_14
    7  A    between atoms: C_10  and  N_30
    8  A    between atoms: C_11  and  C_14
    9  A    between atoms: C_11  and  C_16
                            x       y       z     vdW  Elec       q    Type
                         _______ _______ _______ _____ _____    ______ ____

>  <TORSDO>
F 9

$$$$
=
 OpenBabel11062420353D

 32 35  0  0  1  0  0  0  0  0999 V2000
  191.3430  175.6380  147.6970 C   0  0  0  0  0  2  0  0  0  0  0  0
  191.1810  175.1550  146.2680 C   0  0  1  0  0  3  0  0  0  0  0  0
  190.5910  176.4860  146.6940 C   0  0  1  0  0  3  0  0  0  0  0  0
  189.1010  176.3120  146.8900 C   0  0  0  0  0  2  0  0  0  0  0  0
  186.2490  177.1280  146.2680 N   0  0  0  0  0  0  0  0  0  0  0  0
  184.8110  177.1640  146.4610 C   0  0  0  0  0  1  0  0  0  0  0  0
  186.6380  178.8320  147.8160 O   0  0  0  0  0  0  0  0  0  0  0  0
  188.5070  177.5830  147.2730 N   0  0  0  0  0  2  0  0  0  0  0  0
  187.1120  177.8780  147.1460 C   0  0  0  0  0  0  0  0  0  0  0  0
  186.7580  176.4160  145.0980 C   0  0  0  0  0  2  0  0  0  0  0  0
  188.8460  176.4890  142.5130 C   0  0  0  0  0  2  0  0  0  0  0  0
  187.3520  177.9150  141.1340 C   0  0  0  0  0  2  0  0  0  0  0  0
  186.0520  177.9490  141.9270 C   0  0  0  0  0  2  0  0  0  0  0  0
  188.5890  177.9160  142.0460 C   0  0  1  0  0  3  0  0  0  0  0  0
  188.3660  177.5190  143.5150 C   0  0  1  0  0  3  0  0  0  0  0  0
  186.8790  177.3570  143.9080 C   0  0  1  0  0  3  0  0  0  0  0  0
  186.0700  176.9040  142.8530 O   0  0  0  0  0  0  0  0  0  0  0  0
  192.4640  175.4000  145.4780 C   0  0  2  0  0  3  0  0  0  0  0  0
  192.3570  174.8330  144.0900 C   0  0  0  0  0  0  0  0  0  0  0  0
  192.4940  177.0620  143.1430 O   0  0  0  0  0  1  0  0  0  0  0  0
  192.1490  172.9140  142.5990 C   0  0  0  0  0  0  0  0  0  0  0  0
  192.2690  175.1570  141.6880 C   0  0  0  0  0  3  0  0  0  0  0  0
  192.2500  173.4490  143.8910 C   0  0  0  0  0  3  0  0  0  0  0  0
  192.1630  173.7770  141.5000 C   0  0  0  0  0  3  0  0  0  0  0  0
  192.3680  175.6860  142.9780 C   0  0  0  0  0  0  0  0  0  0  0  0
  189.6800  171.3900  142.1120 O   0  0  0  0  0  1  0  0  0  0  0  0
  190.7860  170.7900  142.1570 C   0  0  0  0  0  0  0  0  0  0  0  0
  192.0100  171.5050  142.3700 N   0  0  0  0  0  2  0  0  0  0  0  0
  190.8280  169.4130  141.9860 O   0  0  0  0  0  0  0  0  0  0  0  0
  193.6680  174.8080  146.1970 C   0  0  0  0  0  2  0  0  0  0  0  0
  194.9250  175.5860  145.8700 C   0  0  0  0  0  2  0  0  0  0  0  0
  196.0060  174.6610  145.5870 N   0  0  0  0  0  1  0  0  0  0  0  0
  2 18  1  6  0  0  0
  2  3  1  0  0  0  0
  2  1  1  0  0  0  0
  3  4  1  1  0  0  0
  3  1  1  0  0  0  0
  4  8  1  0  0  0  0
  5  6  1  0  0  0  0
  5  9  1  0  0  0  0
  9  8  1  0  0  0  0
  9  7  2  0  0  0  0
 10  5  1  0  0  0  0
 12 13  1  0  0  0  0
 13 17  1  0  0  0  0
 14 12  1  6  0  0  0
 14 11  1  0  0  0  0
 14 15  1  0  0  0  0
 15 11  1  6  0  0  0
 15 16  1  0  0  0  0
 16 10  1  1  0  0  0
 17 16  1  0  0  0  0
 18 30  1  1  0  0  0
 19 18  1  0  0  0  0
 21 23  2  0  0  0  0
 22 25  1  0  0  0  0
 23 19  1  0  0  0  0
 24 22  2  0  0  0  0
 24 21  1  0  0  0  0
 25 20  1  0  0  0  0
 25 19  2  0  0  0  0
 26 27  1  0  0  0  0
 27 28  1  0  0  0  0
 28 21  1  0  0  0  0
 29 27  2  0  0  0  0
 31 30  1  0  0  0  0
 32 31  1  0  0  0  0
M  END
>  <MODEL>
9

>  <REMARK>
 VINA RESULT:      -6.5      2.824      5.204
  Name = 
  9 active torsions:
  status: ('A' for Active; 'I' for Inactive)
    1  A    between atoms: C_1  and  N_17
    2  A    between atoms: C_1  and  C_31
    3  A    between atoms: C_2  and  C_14
    4  A    between atoms: C_3  and  N_5
    5  A    between atoms: C_3  and  C_28
    6  A    between atoms: C_9  and  C_14
    7  A    between atoms: C_10  and  N_30
    8  A    between atoms: C_11  and  C_14
    9  A    between atoms: C_11  and  C_16
                            x       y       z     vdW  Elec       q    Type
                         _______ _______ _______ _____ _____    ______ ____

>  <TORSDO>
F 9

$$$$
