=
 OpenBabel11062421283D

 31 38  0  0  1  0  0  0  0  0999 V2000
  186.0280  177.2220  141.1680 C   0  0  0  0  0  3  0  0  0  0  0  0
  187.6480  177.6640  145.7750 O   0  0  0  0  0  0  0  0  0  0  0  0
  186.7280  177.0830  144.8960 C   0  0  1  0  0  3  0  0  0  0  0  0
  187.4880  177.0640  147.0490 C   0  0  0  0  0  2  0  0  0  0  0  0
  186.1310  177.3230  142.5590 C   0  0  0  0  0  0  0  0  0  0  0  0
  188.6440  177.1570  143.0660 C   0  0  2  0  0  3  0  0  0  0  0  0
  184.4790  177.7180  145.7730 C   0  0  0  0  0  2  0  0  0  0  0  0
  187.5400  174.8730  142.1590 O   0  0  0  0  0  0  0  0  0  0  0  0
  190.6920  175.8420  143.5060 C   0  0  0  0  0  0  0  0  0  0  0  0
  185.5460  178.0430  144.7450 C   0  0  2  0  0  3  0  0  0  0  0  0
  184.0080  178.4630  142.7050 C   0  0  0  0  0  3  0  0  0  0  0  0
  190.4540  177.5390  144.9630 N   0  0  0  0  0  2  0  0  0  0  0  0
  191.7550  175.6880  144.5310 C   0  0  0  0  0  2  0  0  0  0  0  0
  188.0820  175.6830  143.1770 C   0  0  2  0  0  0  0  0  0  0  0  0
  190.5840  173.7060  142.3550 O   0  0  0  0  0  0  0  0  0  0  0  0
  182.6700  178.9110  140.6400 C   0  0  0  0  0  1  0  0  0  0  0  0
  185.1390  177.9150  143.3130 C   0  0  0  0  0  0  0  0  0  0  0  0
  184.8810  177.7390  140.5480 C   0  0  0  0  0  3  0  0  0  0  0  0
  189.9570  176.9000  143.8140 C   0  0  0  0  0  0  0  0  0  0  0  0
  188.8210  175.3430  141.8880 C   0  0  1  0  0  3  0  0  0  0  0  0
  186.0370  176.8490  147.5560 C   0  0  0  0  0  2  0  0  0  0  0  0
  190.0910  174.8440  142.5650 C   0  0  0  0  0  0  0  0  0  0  0  0
  187.2220  176.8860  143.4660 C   0  0  1  0  0  0  0  0  0  0  0  0
  183.8730  178.3540  141.3130 C   0  0  0  0  0  0  0  0  0  0  0  0
  185.0480  177.9530  147.1750 C   0  0  0  0  0  2  0  0  0  0  0  0
  191.5940  176.8560  145.4410 N   0  0  2  0  0  0  0  0  0  0  0  0
  190.7040  175.1240  147.1050 C   0  0  0  0  0  2  0  0  0  0  0  0
  192.1800  175.3650  147.4250 C   0  0  0  0  0  2  0  0  0  0  0  0
  191.3320  176.4790  146.8460 C   0  0  0  0  0  0  0  0  0  0  0  0
  191.6910  177.4340  149.0040 O   0  0  0  0  0  1  0  0  0  0  0  0
  190.9630  177.5830  147.8230 C   0  0  0  0  0  2  0  0  0  0  0  0
  1  5  1  0  0  0  0
  2  4  1  0  0  0  0
  3  2  1  1  0  0  0
  4 21  1  0  0  0  0
  5 17  2  0  0  0  0
  6 14  1  0  0  0  0
  6 23  1  0  0  0  0
  6 19  1  1  0  0  0
  7 25  1  0  0  0  0
  9 19  2  0  0  0  0
  9 13  1  0  0  0  0
 10  3  1  0  0  0  0
 10  7  1  1  0  0  0
 11 17  1  0  0  0  0
 12 26  1  0  0  0  0
 14  8  1  1  0  0  0
 14 23  1  0  0  0  0
 15 22  2  0  0  0  0
 16 24  1  0  0  0  0
 17 10  1  0  0  0  0
 18  1  2  0  0  0  0
 18 24  1  0  0  0  0
 19 12  1  0  0  0  0
 20  8  1  1  0  0  0
 20 22  1  0  0  0  0
 20 14  1  0  0  0  0
 22  9  1  0  0  0  0
 23  5  1  6  0  0  0
 23  3  1  0  0  0  0
 24 11  2  0  0  0  0
 25 21  1  0  0  0  0
 26 13  1  6  0  0  0
 26 29  1  0  0  0  0
 27 28  1  0  0  0  0
 29 27  1  0  0  0  0
 29 28  1  0  0  0  0
 29 31  1  0  0  0  0
 31 30  1  0  0  0  0
M  END
>  <MODEL>
1

>  <REMARK>
 VINA RESULT:      -8.5      0.000      0.000
  Name = 
  2 active torsions:
  status: ('A' for Active; 'I' for Inactive)
    1  A    between atoms: C_26  and  C_31
    2  A    between atoms: N_30  and  C_31
                            x       y       z     vdW  Elec       q    Type
                         _______ _______ _______ _____ _____    ______ ____

>  <TORSDO>
F 2

$$$$
=
 OpenBabel11062421283D

 31 38  0  0  1  0  0  0  0  0999 V2000
  187.0850  176.3600  142.4540 C   0  0  0  0  0  3  0  0  0  0  0  0
  191.2030  176.7260  145.0900 O   0  0  0  0  0  0  0  0  0  0  0  0
  189.8750  176.2930  145.0270 C   0  0  1  0  0  3  0  0  0  0  0  0
  191.7730  176.2430  146.2960 C   0  0  0  0  0  2  0  0  0  0  0  0
  188.0210  176.5160  143.4810 C   0  0  0  0  0  0  0  0  0  0  0  0
  190.2820  175.8780  142.4420 C   0  0  2  0  0  3  0  0  0  0  0  0
  188.7190  177.4140  146.9340 C   0  0  0  0  0  2  0  0  0  0  0  0
  188.5760  173.8150  142.7450 O   0  0  0  0  0  0  0  0  0  0  0  0
  191.9910  174.2060  141.8100 C   0  0  0  0  0  0  0  0  0  0  0  0
  188.9760  177.4600  145.4390 C   0  0  2  0  0  3  0  0  0  0  0  0
  186.5850  178.0660  144.6500 C   0  0  0  0  0  3  0  0  0  0  0  0
  192.9010  175.9950  142.8250 N   0  0  0  0  0  2  0  0  0  0  0  0
  193.4270  173.8990  142.0280 C   0  0  0  0  0  2  0  0  0  0  0  0
  189.7210  174.5550  143.1020 C   0  0  2  0  0  0  0  0  0  0  0  0
  190.9390  172.0730  141.3130 O   0  0  0  0  0  0  0  0  0  0  0  0
  184.3410  178.6560  143.7190 C   0  0  0  0  0  1  0  0  0  0  0  0
  187.7720  177.3370  144.5620 C   0  0  0  0  0  0  0  0  0  0  0  0
  185.8740  177.0610  142.5460 C   0  0  0  0  0  3  0  0  0  0  0  0
  191.7340  175.4050  142.3090 C   0  0  0  0  0  0  0  0  0  0  0  0
  189.4780  174.0020  141.7020 C   0  0  1  0  0  3  0  0  0  0  0  0
  190.9120  176.3520  147.5830 C   0  0  0  0  0  2  0  0  0  0  0  0
  190.8230  173.2970  141.5800 C   0  0  0  0  0  0  0  0  0  0  0  0
  189.3720  175.9210  143.6360 C   0  0  1  0  0  0  0  0  0  0  0  0
  185.6220  177.9080  143.6420 C   0  0  0  0  0  0  0  0  0  0  0  0
  190.0440  177.6090  147.6750 C   0  0  0  0  0  2  0  0  0  0  0  0
  193.9990  175.1250  142.6510 N   0  0  2  0  0  0  0  0  0  0  0  0
  193.9890  173.7960  144.8410 C   0  0  0  0  0  2  0  0  0  0  0  0
  195.3490  173.5870  144.1720 C   0  0  0  0  0  2  0  0  0  0  0  0
  194.5960  174.8880  143.9830 C   0  0  0  0  0  0  0  0  0  0  0  0
  196.0740  176.7600  143.9090 O   0  0  0  0  0  1  0  0  0  0  0  0
  195.1720  176.0810  144.7280 C   0  0  0  0  0  2  0  0  0  0  0  0
  1 18  2  0  0  0  0
  1  5  1  0  0  0  0
  2  4  1  0  0  0  0
  3  2  1  6  0  0  0
  3 10  1  0  0  0  0
  4 21  1  0  0  0  0
  5 17  2  0  0  0  0
  6 19  1  1  0  0  0
  6 14  1  0  0  0  0
  6 23  1  0  0  0  0
  7 25  1  0  0  0  0
  9 13  1  0  0  0  0
  9 19  2  0  0  0  0
 10  7  1  1  0  0  0
 14  8  1  1  0  0  0
 14 23  1  0  0  0  0
 15 22  2  0  0  0  0
 17 11  1  0  0  0  0
 17 10  1  0  0  0  0
 18 24  1  0  0  0  0
 19 12  1  0  0  0  0
 20 22  1  1  0  0  0
 20  8  1  0  0  0  0
 20 14  1  0  0  0  0
 21 25  1  0  0  0  0
 22  9  1  0  0  0  0
 23  5  1  6  0  0  0
 23  3  1  0  0  0  0
 24 16  1  0  0  0  0
 24 11  2  0  0  0  0
 26 13  1  1  0  0  0
 26 12  1  0  0  0  0
 26 29  1  0  0  0  0
 28 27  1  0  0  0  0
 29 28  1  0  0  0  0
 29 31  1  0  0  0  0
 29 27  1  0  0  0  0
 30 31  1  0  0  0  0
M  END
>  <MODEL>
2

>  <REMARK>
 VINA RESULT:      -8.0      2.403      3.599
  Name = 
  2 active torsions:
  status: ('A' for Active; 'I' for Inactive)
    1  A    between atoms: C_26  and  C_31
    2  A    between atoms: N_30  and  C_31
                            x       y       z     vdW  Elec       q    Type
                         _______ _______ _______ _____ _____    ______ ____

>  <TORSDO>
F 2

$$$$
=
 OpenBabel11062421283D

 31 38  0  0  1  0  0  0  0  0999 V2000
  193.1910  175.8200  146.2880 C   0  0  0  0  0  3  0  0  0  0  0  0
  190.2850  175.4270  142.3590 O   0  0  0  0  0  0  0  0  0  0  0  0
  190.9000  174.7910  143.4430 C   0  0  1  0  0  3  0  0  0  0  0  0
  189.3970  174.5050  141.7470 C   0  0  0  0  0  2  0  0  0  0  0  0
  192.5300  175.3820  145.1370 C   0  0  0  0  0  0  0  0  0  0  0  0
  190.6430  177.0820  144.7500 C   0  0  2  0  0  3  0  0  0  0  0  0
  192.2620  172.9510  142.4470 C   0  0  0  0  0  2  0  0  0  0  0  0
  190.3120  175.5300  146.9270 O   0  0  0  0  0  0  0  0  0  0  0  0
  188.3500  177.9150  145.1520 C   0  0  0  0  0  0  0  0  0  0  0  0
  192.3020  174.3620  143.0050 C   0  0  2  0  0  3  0  0  0  0  0  0
  194.4810  174.1710  144.3910 C   0  0  0  0  0  3  0  0  0  0  0  0
  188.8710  177.9140  142.9640 N   0  0  0  0  0  0  0  0  0  0  0  0
  187.1130  178.2650  144.4090 C   0  0  0  0  0  3  0  0  0  0  0  0
  190.0050  175.9160  145.6070 C   0  0  2  0  0  0  0  0  0  0  0  0
  187.6160  177.3160  147.3890 O   0  0  0  0  0  0  0  0  0  0  0  0
  196.5660  174.1630  145.7710 C   0  0  0  0  0  1  0  0  0  0  0  0
  193.1530  174.5640  144.2170 C   0  0  0  0  0  0  0  0  0  0  0  0
  194.5160  175.4060  146.4920 C   0  0  0  0  0  3  0  0  0  0  0  0
  189.3200  177.6960  144.2780 C   0  0  0  0  0  0  0  0  0  0  0  0
  189.9520  176.8680  146.7960 C   0  0  1  0  0  3  0  0  0  0  0  0
  189.9100  173.0550  141.5420 C   0  0  0  0  0  2  0  0  0  0  0  0
  188.5360  177.3650  146.5320 C   0  0  0  0  0  0  0  0  0  0  0  0
  191.1540  175.6730  144.6620 C   0  0  1  0  0  0  0  0  0  0  0  0
  195.1580  174.5820  145.5490 C   0  0  0  0  0  0  0  0  0  0  0  0
  191.3940  172.9380  141.1860 C   0  0  0  0  0  2  0  0  0  0  0  0
  187.5150  178.3040  142.9760 N   0  0  0  0  0  0  0  0  0  0  0  0
  186.3030  176.0580  142.7630 C   0  0  0  0  0  2  0  0  0  0  0  0
  185.2980  177.1660  142.4370 C   0  0  0  0  0  2  0  0  0  0  0  0
  186.7690  177.3520  142.1260 C   0  0  0  0  0  0  0  0  0  0  0  0
  186.0050  177.5490  139.8730 O   0  0  0  0  0  1  0  0  0  0  0  0
  187.1310  177.2790  140.6510 C   0  0  0  0  0  2  0  0  0  0  0  0
  1 18  1  0  0  0  0
  3  2  1  6  0  0  0
  3 23  1  0  0  0  0
  4  2  1  0  0  0  0
  5  1  2  0  0  0  0
  6 19  1  6  0  0  0
  6 14  1  0  0  0  0
  9 22  1  0  0  0  0
 10  7  1  1  0  0  0
 10  3  1  0  0  0  0
 10 17  1  0  0  0  0
 11 24  1  0  0  0  0
 12 26  1  0  0  0  0
 12 19  2  0  0  0  0
 13  9  2  0  0  0  0
 14 20  1  0  0  0  0
 14  8  1  6  0  0  0
 17 11  2  0  0  0  0
 17  5  1  0  0  0  0
 19  9  1  0  0  0  0
 20 22  1  1  0  0  0
 20  8  1  0  0  0  0
 21  4  1  0  0  0  0
 22 15  2  0  0  0  0
 23  6  1  0  0  0  0
 23  5  1  1  0  0  0
 23 14  1  0  0  0  0
 24 16  1  0  0  0  0
 24 18  2  0  0  0  0
 25 21  1  0  0  0  0
 25  7  1  0  0  0  0
 26 13  1  0  0  0  0
 28 27  1  0  0  0  0
 29 28  1  0  0  0  0
 29 27  1  0  0  0  0
 29 26  1  0  0  0  0
 30 31  1  0  0  0  0
 31 29  1  0  0  0  0
M  END
>  <MODEL>
3

>  <REMARK>
 VINA RESULT:      -8.0      2.240      7.750
  Name = 
  2 active torsions:
  status: ('A' for Active; 'I' for Inactive)
    1  A    between atoms: C_26  and  C_31
    2  A    between atoms: N_30  and  C_31
                            x       y       z     vdW  Elec       q    Type
                         _______ _______ _______ _____ _____    ______ ____

>  <TORSDO>
F 2

$$$$
=
 OpenBabel11062421283D

 31 38  0  0  1  0  0  0  0  0999 V2000
  188.3630  177.0410  146.3920 C   0  0  0  0  0  3  0  0  0  0  0  0
  187.3970  175.5490  141.8230 O   0  0  0  0  0  0  0  0  0  0  0  0
  187.7910  176.5920  142.6670 C   0  0  1  0  0  3  0  0  0  0  0  0
  187.5410  175.9840  140.4810 C   0  0  0  0  0  2  0  0  0  0  0  0
  187.9540  176.9570  145.0580 C   0  0  0  0  0  0  0  0  0  0  0  0
  188.9250  174.7430  144.1900 C   0  0  2  0  0  3  0  0  0  0  0  0
  186.1470  178.4270  142.2670 C   0  0  0  0  0  2  0  0  0  0  0  0
  190.7690  176.6370  144.7090 O   0  0  0  0  0  0  0  0  0  0  0  0
  190.7570  173.4130  143.1950 C   0  0  0  0  0  0  0  0  0  0  0  0
  186.5290  177.2830  143.1870 C   0  0  2  0  0  3  0  0  0  0  0  0
  186.0970  178.4480  145.4590 C   0  0  0  0  0  3  0  0  0  0  0  0
  188.7830  173.0020  142.1970 N   0  0  0  0  0  0  0  0  0  0  0  0
  191.0330  172.5400  142.0260 C   0  0  0  0  0  3  0  0  0  0  0  0
  189.9930  175.8530  143.8320 C   0  0  2  0  0  0  0  0  0  0  0  0
  192.9110  174.3270  143.8460 O   0  0  0  0  0  0  0  0  0  0  0  0
  185.7240  179.4160  147.7340 C   0  0  0  0  0  1  0  0  0  0  0  0
  186.8570  177.6550  144.5970 C   0  0  0  0  0  0  0  0  0  0  0  0
  187.6280  177.8600  147.2620 C   0  0  0  0  0  3  0  0  0  0  0  0
  189.4590  173.6720  143.2320 C   0  0  0  0  0  0  0  0  0  0  0  0
  190.9070  175.2660  144.9010 C   0  0  1  0  0  3  0  0  0  0  0  0
  187.0510  177.4160  140.1410 C   0  0  0  0  0  2  0  0  0  0  0  0
  191.6580  174.3290  143.9630 C   0  0  0  0  0  0  0  0  0  0  0  0
  188.5220  176.1680  143.9370 C   0  0  1  0  0  0  0  0  0  0  0  0
  186.5020  178.5640  146.7980 C   0  0  0  0  0  0  0  0  0  0  0  0
  185.7920  177.8630  140.8890 C   0  0  0  0  0  2  0  0  0  0  0  0
  189.7000  172.2510  141.4290 N   0  0  0  0  0  0  0  0  0  0  0  0
  190.5030  173.7910  139.5460 C   0  0  0  0  0  2  0  0  0  0  0  0
  190.7150  172.3450  139.0920 C   0  0  0  0  0  2  0  0  0  0  0  0
  189.5730  172.6940  140.0240 C   0  0  0  0  0  0  0  0  0  0  0  0
  188.2010  173.3940  138.2010 O   0  0  0  0  0  1  0  0  0  0  0  0
  188.1910  172.6660  139.3910 C   0  0  0  0  0  2  0  0  0  0  0  0
  1 18  1  0  0  0  0
  3  2  1  6  0  0  0
  3 10  1  0  0  0  0
  3 23  1  0  0  0  0
  4  2  1  0  0  0  0
  5  1  2  0  0  0  0
  6 19  1  6  0  0  0
  8 20  1  0  0  0  0
  9 19  1  0  0  0  0
  9 22  1  0  0  0  0
 10  7  1  6  0  0  0
 10 17  1  0  0  0  0
 11 24  1  0  0  0  0
 12 19  2  0  0  0  0
 13  9  2  0  0  0  0
 14 23  1  0  0  0  0
 14  6  1  0  0  0  0
 14  8  1  6  0  0  0
 14 20  1  0  0  0  0
 15 22  2  0  0  0  0
 17  5  1  0  0  0  0
 17 11  2  0  0  0  0
 20 22  1  6  0  0  0
 21  4  1  0  0  0  0
 21 25  1  0  0  0  0
 23  6  1  0  0  0  0
 23  5  1  1  0  0  0
 24 18  2  0  0  0  0
 24 16  1  0  0  0  0
 25  7  1  0  0  0  0
 26 13  1  0  0  0  0
 26 12  1  0  0  0  0
 27 29  1  0  0  0  0
 28 27  1  0  0  0  0
 28 29  1  0  0  0  0
 29 26  1  0  0  0  0
 30 31  1  0  0  0  0
 31 29  1  0  0  0  0
M  END
>  <MODEL>
4

>  <REMARK>
 VINA RESULT:      -7.9      2.564      5.716
  Name = 
  2 active torsions:
  status: ('A' for Active; 'I' for Inactive)
    1  A    between atoms: C_26  and  C_31
    2  A    between atoms: N_30  and  C_31
                            x       y       z     vdW  Elec       q    Type
                         _______ _______ _______ _____ _____    ______ ____

>  <TORSDO>
F 2

$$$$
=
 OpenBabel11062421283D

 31 38  0  0  1  0  0  0  0  0999 V2000
  187.0410  176.4820  142.4970 C   0  0  0  0  0  3  0  0  0  0  0  0
  191.1230  176.9050  145.1800 O   0  0  0  0  0  0  0  0  0  0  0  0
  189.8060  176.4420  145.0970 C   0  0  1  0  0  3  0  0  0  0  0  0
  191.6910  176.4170  146.3840 C   0  0  0  0  0  2  0  0  0  0  0  0
  187.9620  176.6460  143.5350 C   0  0  0  0  0  0  0  0  0  0  0  0
  190.2470  176.0730  142.5100 C   0  0  2  0  0  3  0  0  0  0  0  0
  188.6060  177.5100  147.0080 C   0  0  0  0  0  2  0  0  0  0  0  0
  188.5860  173.9680  142.7680 O   0  0  0  0  0  0  0  0  0  0  0  0
  192.0000  174.4500  141.8730 C   0  0  0  0  0  0  0  0  0  0  0  0
  188.8760  177.5830  145.5160 C   0  0  2  0  0  3  0  0  0  0  0  0
  186.4800  178.1450  144.7120 C   0  0  0  0  0  3  0  0  0  0  0  0
  192.8600  176.2440  142.9220 N   0  0  0  0  0  2  0  0  0  0  0  0
  193.4410  174.1720  142.1010 C   0  0  0  0  0  2  0  0  0  0  0  0
  189.7100  174.7290  143.1460 C   0  0  2  0  0  0  0  0  0  0  0  0
  191.0020  172.3010  141.3360 O   0  0  0  0  0  0  0  0  0  0  0  0
  184.2320  178.6980  143.7660 C   0  0  0  0  0  1  0  0  0  0  0  0
  187.6840  177.4450  144.6250 C   0  0  0  0  0  0  0  0  0  0  0  0
  185.8130  177.1550  142.5870 C   0  0  0  0  0  3  0  0  0  0  0  0
  191.7110  175.6350  142.3860 C   0  0  0  0  0  0  0  0  0  0  0  0
  189.4940  174.1910  141.7370 C   0  0  1  0  0  3  0  0  0  0  0  0
  190.8160  176.4890  147.6630 C   0  0  0  0  0  2  0  0  0  0  0  0
  190.8560  173.5180  141.6180 C   0  0  0  0  0  0  0  0  0  0  0  0
  189.3250  176.0790  143.6960 C   0  0  1  0  0  0  0  0  0  0  0  0
  185.5310  177.9800  143.6910 C   0  0  0  0  0  0  0  0  0  0  0  0
  189.9190  177.7250  147.7650 C   0  0  0  0  0  2  0  0  0  0  0  0
  193.9790  175.4020  142.7470 N   0  0  2  0  0  0  0  0  0  0  0  0
  196.0390  175.4770  144.2680 C   0  0  0  0  0  2  0  0  0  0  0  0
  194.9680  176.3810  144.8830 C   0  0  0  0  0  2  0  0  0  0  0  0
  194.5680  175.1600  144.0810 C   0  0  0  0  0  0  0  0  0  0  0  0
  195.0610  173.1230  145.2240 O   0  0  0  0  0  1  0  0  0  0  0  0
  194.0250  174.0000  144.9000 C   0  0  0  0  0  2  0  0  0  0  0  0
  1 18  2  0  0  0  0
  1  5  1  0  0  0  0
  2  4  1  0  0  0  0
  3  2  1  6  0  0  0
  3 10  1  0  0  0  0
  4 21  1  0  0  0  0
  5 17  2  0  0  0  0
  6 19  1  1  0  0  0
  6 14  1  0  0  0  0
  6 23  1  0  0  0  0
  7 25  1  0  0  0  0
  9 13  1  0  0  0  0
  9 19  2  0  0  0  0
 10  7  1  1  0  0  0
 14  8  1  1  0  0  0
 14 23  1  0  0  0  0
 15 22  2  0  0  0  0
 17 11  1  0  0  0  0
 17 10  1  0  0  0  0
 18 24  1  0  0  0  0
 19 12  1  0  0  0  0
 20 22  1  1  0  0  0
 20  8  1  0  0  0  0
 20 14  1  0  0  0  0
 21 25  1  0  0  0  0
 22  9  1  0  0  0  0
 23  5  1  6  0  0  0
 23  3  1  0  0  0  0
 24 16  1  0  0  0  0
 24 11  2  0  0  0  0
 26 13  1  1  0  0  0
 26 12  1  0  0  0  0
 26 29  1  0  0  0  0
 27 28  1  0  0  0  0
 29 27  1  0  0  0  0
 29 28  1  0  0  0  0
 29 31  1  0  0  0  0
 31 30  1  0  0  0  0
M  END
>  <MODEL>
5

>  <REMARK>
 VINA RESULT:      -7.8      2.252      3.559
  Name = 
  2 active torsions:
  status: ('A' for Active; 'I' for Inactive)
    1  A    between atoms: C_26  and  C_31
    2  A    between atoms: N_30  and  C_31
                            x       y       z     vdW  Elec       q    Type
                         _______ _______ _______ _____ _____    ______ ____

>  <TORSDO>
F 2

$$$$
=
 OpenBabel11062421283D

 31 38  0  0  1  0  0  0  0  0999 V2000
  187.3060  176.7120  140.8290 C   0  0  0  0  0  3  0  0  0  0  0  0
  189.5330  176.7360  145.1970 O   0  0  0  0  0  0  0  0  0  0  0  0
  188.4930  176.2420  144.4040 C   0  0  1  0  0  3  0  0  0  0  0  0
  189.5310  176.0280  146.4260 C   0  0  0  0  0  2  0  0  0  0  0  0
  187.5950  176.6910  142.1970 C   0  0  0  0  0  0  0  0  0  0  0  0
  190.1490  176.4590  142.3470 C   0  0  2  0  0  3  0  0  0  0  0  0
  186.3940  176.8170  145.6260 C   0  0  0  0  0  2  0  0  0  0  0  0
  188.8890  174.2720  141.4040 O   0  0  0  0  0  0  0  0  0  0  0  0
  192.2110  175.0930  142.3930 C   0  0  0  0  0  0  0  0  0  0  0  0
  187.3210  177.2210  144.4950 C   0  0  2  0  0  3  0  0  0  0  0  0
  185.5340  177.8320  142.7230 C   0  0  0  0  0  3  0  0  0  0  0  0
  192.2030  176.6580  144.0090 N   0  0  0  0  0  2  0  0  0  0  0  0
  193.3970  174.8400  143.2500 C   0  0  0  0  0  2  0  0  0  0  0  0
  189.5780  174.9850  142.4050 C   0  0  2  0  0  0  0  0  0  0  0  0
  191.9080  173.0660  141.0890 O   0  0  0  0  0  0  0  0  0  0  0  0
  183.9440  178.4700  140.9020 C   0  0  0  0  0  1  0  0  0  0  0  0
  186.7240  177.2230  143.1250 C   0  0  0  0  0  0  0  0  0  0  0  0
  186.0980  177.2910  140.4140 C   0  0  0  0  0  3  0  0  0  0  0  0
  191.5450  176.1260  142.8860 C   0  0  0  0  0  0  0  0  0  0  0  0
  190.1320  174.7540  141.0040 C   0  0  1  0  0  3  0  0  0  0  0  0
  188.1560  175.7820  147.1030 C   0  0  0  0  0  2  0  0  0  0  0  0
  191.4700  174.1860  141.4600 C   0  0  0  0  0  0  0  0  0  0  0  0
  188.7880  176.1660  142.9090 C   0  0  1  0  0  0  0  0  0  0  0  0
  185.2130  177.8460  141.3570 C   0  0  0  0  0  0  0  0  0  0  0  0
  187.1490  176.9240  146.9530 C   0  0  0  0  0  2  0  0  0  0  0  0
  193.3820  175.9260  144.2700 N   0  0  2  0  0  0  0  0  0  0  0  0
  192.5640  174.1280  145.9000 C   0  0  0  0  0  2  0  0  0  0  0  0
  194.0910  174.1790  145.9860 C   0  0  0  0  0  2  0  0  0  0  0  0
  193.3010  175.4300  145.6600 C   0  0  0  0  0  0  0  0  0  0  0  0
  194.3540  177.2770  146.7440 O   0  0  0  0  0  1  0  0  0  0  0  0
  193.2270  176.4560  146.7790 C   0  0  0  0  0  2  0  0  0  0  0  0
  1  5  1  0  0  0  0
  2  4  1  0  0  0  0
  3 10  1  0  0  0  0
  3  2  1  1  0  0  0
  4 21  1  0  0  0  0
  5 17  2  0  0  0  0
  6 14  1  0  0  0  0
  6 19  1  1  0  0  0
  6 23  1  0  0  0  0
  7 25  1  0  0  0  0
  9 19  2  0  0  0  0
  9 13  1  0  0  0  0
 10  7  1  1  0  0  0
 11 17  1  0  0  0  0
 12 26  1  0  0  0  0
 14  8  1  1  0  0  0
 14 23  1  0  0  0  0
 15 22  2  0  0  0  0
 16 24  1  0  0  0  0
 17 10  1  0  0  0  0
 18  1  2  0  0  0  0
 18 24  1  0  0  0  0
 19 12  1  0  0  0  0
 20  8  1  6  0  0  0
 20 22  1  0  0  0  0
 20 14  1  0  0  0  0
 22  9  1  0  0  0  0
 23  5  1  6  0  0  0
 23  3  1  0  0  0  0
 24 11  2  0  0  0  0
 25 21  1  0  0  0  0
 26 13  1  6  0  0  0
 26 29  1  0  0  0  0
 27 28  1  0  0  0  0
 29 27  1  0  0  0  0
 29 28  1  0  0  0  0
 29 31  1  0  0  0  0
 30 31  1  0  0  0  0
M  END
>  <MODEL>
6

>  <REMARK>
 VINA RESULT:      -7.8      1.635      2.091
  Name = 
  2 active torsions:
  status: ('A' for Active; 'I' for Inactive)
    1  A    between atoms: C_26  and  C_31
    2  A    between atoms: N_30  and  C_31
                            x       y       z     vdW  Elec       q    Type
                         _______ _______ _______ _____ _____    ______ ____

>  <TORSDO>
F 2

$$$$
=
 OpenBabel11062421283D

 31 38  0  0  1  0  0  0  0  0999 V2000
  187.2820  177.3350  147.1390 C   0  0  0  0  0  3  0  0  0  0  0  0
  188.8770  174.7990  143.2580 O   0  0  0  0  0  0  0  0  0  0  0  0
  188.4900  176.0360  143.7840 C   0  0  1  0  0  3  0  0  0  0  0  0
  189.3940  175.0120  141.9540 C   0  0  0  0  0  2  0  0  0  0  0  0
  187.5150  176.8440  145.8510 C   0  0  0  0  0  0  0  0  0  0  0  0
  189.4750  175.2010  146.0980 C   0  0  2  0  0  3  0  0  0  0  0  0
  186.6210  176.8220  142.3270 C   0  0  0  0  0  2  0  0  0  0  0  0
  190.1360  177.7840  146.4800 O   0  0  0  0  0  0  0  0  0  0  0  0
  191.8950  174.7000  146.1930 C   0  0  0  0  0  0  0  0  0  0  0  0
  186.9710  176.1550  143.6450 C   0  0  2  0  0  3  0  0  0  0  0  0
  185.2620  177.3700  145.1640 C   0  0  0  0  0  3  0  0  0  0  0  0
  190.7940  173.2700  144.8510 N   0  0  0  0  0  0  0  0  0  0  0  0
  192.9170  173.8600  145.5190 C   0  0  0  0  0  3  0  0  0  0  0  0
  190.1240  176.5940  145.7260 C   0  0  2  0  0  0  0  0  0  0  0  0
  193.1100  176.5920  147.1120 O   0  0  0  0  0  0  0  0  0  0  0  0
  183.6700  178.4410  146.7680 C   0  0  0  0  0  1  0  0  0  0  0  0
  186.5360  176.8740  144.8810 C   0  0  0  0  0  0  0  0  0  0  0  0
  186.0160  177.8670  147.4280 C   0  0  0  0  0  3  0  0  0  0  0  0
  190.6980  174.3420  145.7560 C   0  0  0  0  0  0  0  0  0  0  0  0
  190.6620  176.6830  147.1490 C   0  0  1  0  0  3  0  0  0  0  0  0
  188.6120  175.9810  141.0280 C   0  0  0  0  0  2  0  0  0  0  0  0
  192.0100  176.0430  146.8440 C   0  0  0  0  0  0  0  0  0  0  0  0
  188.7340  176.2180  145.2790 C   0  0  1  0  0  0  0  0  0  0  0  0
  185.0110  177.8880  146.4430 C   0  0  0  0  0  0  0  0  0  0  0  0
  187.0900  175.9290  141.1760 C   0  0  0  0  0  2  0  0  0  0  0  0
  192.1450  172.8980  144.6850 N   0  0  0  0  0  0  0  0  0  0  0  0
  192.9230  174.3200  142.7020 C   0  0  0  0  0  2  0  0  0  0  0  0
  193.9140  173.1660  142.8680 C   0  0  0  0  0  2  0  0  0  0  0  0
  192.4580  172.9830  143.2420 C   0  0  0  0  0  0  0  0  0  0  0  0
  191.8600  172.5440  140.9740 O   0  0  0  0  0  1  0  0  0  0  0  0
  191.6500  172.1200  142.2870 C   0  0  0  0  0  2  0  0  0  0  0  0
  1 18  1  0  0  0  0
  3  2  1  1  0  0  0
  3 23  1  0  0  0  0
  4  2  1  0  0  0  0
  5  1  2  0  0  0  0
  6 19  1  6  0  0  0
  9 22  1  0  0  0  0
 10  7  1  6  0  0  0
 10  3  1  0  0  0  0
 10 17  1  0  0  0  0
 11 24  1  0  0  0  0
 12 19  2  0  0  0  0
 13  9  2  0  0  0  0
 14  6  1  0  0  0  0
 14  8  1  6  0  0  0
 14 20  1  0  0  0  0
 17 11  2  0  0  0  0
 17  5  1  0  0  0  0
 19  9  1  0  0  0  0
 20  8  1  6  0  0  0
 21 25  1  0  0  0  0
 21  4  1  0  0  0  0
 22 15  2  0  0  0  0
 22 20  1  0  0  0  0
 23 14  1  0  0  0  0
 23  5  1  1  0  0  0
 23  6  1  0  0  0  0
 24 16  1  0  0  0  0
 24 18  2  0  0  0  0
 25  7  1  0  0  0  0
 26 12  1  0  0  0  0
 26 13  1  0  0  0  0
 27 28  1  0  0  0  0
 27 29  1  0  0  0  0
 28 29  1  0  0  0  0
 29 26  1  0  0  0  0
 30 31  1  0  0  0  0
 31 29  1  0  0  0  0
M  END
>  <MODEL>
7

>  <REMARK>
 VINA RESULT:      -7.6      2.072      5.089
  Name = 
  2 active torsions:
  status: ('A' for Active; 'I' for Inactive)
    1  A    between atoms: C_26  and  C_31
    2  A    between atoms: N_30  and  C_31
                            x       y       z     vdW  Elec       q    Type
                         _______ _______ _______ _____ _____    ______ ____

>  <TORSDO>
F 2

$$$$
=
 OpenBabel11062421283D

 31 38  0  0  1  0  0  0  0  0999 V2000
  186.5470  176.5290  142.1870 C   0  0  0  0  0  3  0  0  0  0  0  0
  190.5750  175.7210  144.8630 O   0  0  0  0  0  0  0  0  0  0  0  0
  189.1960  175.5360  144.7170 C   0  0  1  0  0  3  0  0  0  0  0  0
  191.0140  174.9410  145.9640 C   0  0  0  0  0  2  0  0  0  0  0  0
  187.4590  176.3400  143.2290 C   0  0  0  0  0  0  0  0  0  0  0  0
  189.6180  175.5240  142.1010 C   0  0  2  0  0  3  0  0  0  0  0  0
  188.1760  176.4800  146.7910 C   0  0  0  0  0  2  0  0  0  0  0  0
  187.5860  173.7580  142.0190 O   0  0  0  0  0  0  0  0  0  0  0  0
  191.0490  173.7270  141.1850 C   0  0  0  0  0  0  0  0  0  0  0  0
  188.4880  176.7460  145.3300 C   0  0  2  0  0  3  0  0  0  0  0  0
  186.2600  177.8770  144.6530 C   0  0  0  0  0  3  0  0  0  0  0  0
  192.2060  175.1270  142.5110 N   0  0  0  0  0  2  0  0  0  0  0  0
  192.4060  173.1480  141.3500 C   0  0  0  0  0  2  0  0  0  0  0  0
  188.8240  174.2190  142.5090 C   0  0  2  0  0  0  0  0  0  0  0  0
  189.6770  171.9250  140.3060 O   0  0  0  0  0  0  0  0  0  0  0  0
  184.1780  178.9940  143.8340 C   0  0  0  0  0  1  0  0  0  0  0  0
  187.3120  176.9860  144.4390 C   0  0  0  0  0  0  0  0  0  0  0  0
  185.4660  177.3970  142.3990 C   0  0  0  0  0  3  0  0  0  0  0  0
  190.9760  174.8440  141.8920 C   0  0  0  0  0  0  0  0  0  0  0  0
  188.5420  173.9730  141.0310 C   0  0  1  0  0  3  0  0  0  0  0  0
  190.1390  174.9640  147.2460 C   0  0  0  0  0  2  0  0  0  0  0  0
  189.7550  173.0840  140.7890 C   0  0  0  0  0  0  0  0  0  0  0  0
  188.6870  175.5070  143.2790 C   0  0  1  0  0  0  0  0  0  0  0  0
  185.3200  178.0660  143.6280 C   0  0  0  0  0  0  0  0  0  0  0  0
  189.4880  176.3130  147.5600 C   0  0  0  0  0  2  0  0  0  0  0  0
  193.1510  174.1290  142.1870 N   0  0  2  0  0  0  0  0  0  0  0  0
  192.8560  172.4390  144.0890 C   0  0  0  0  0  2  0  0  0  0  0  0
  194.1940  172.1470  143.4060 C   0  0  0  0  0  2  0  0  0  0  0  0
  193.6540  173.5620  143.4560 C   0  0  0  0  0  0  0  0  0  0  0  0
  194.4070  173.9270  145.6910 O   0  0  0  0  0  1  0  0  0  0  0  0
  194.3740  174.4940  144.4170 C   0  0  0  0  0  2  0  0  0  0  0  0
  1 18  2  0  0  0  0
  1  5  1  0  0  0  0
  2  4  1  0  0  0  0
  3  2  1  6  0  0  0
  3 10  1  0  0  0  0
  4 21  1  0  0  0  0
  5 17  2  0  0  0  0
  6 19  1  1  0  0  0
  6 14  1  0  0  0  0
  6 23  1  0  0  0  0
  7 25  1  0  0  0  0
  9 13  1  0  0  0  0
  9 19  2  0  0  0  0
 10  7  1  1  0  0  0
 14  8  1  1  0  0  0
 14 23  1  0  0  0  0
 15 22  2  0  0  0  0
 17 11  1  0  0  0  0
 17 10  1  0  0  0  0
 18 24  1  0  0  0  0
 19 12  1  0  0  0  0
 20 22  1  1  0  0  0
 20  8  1  0  0  0  0
 20 14  1  0  0  0  0
 21 25  1  0  0  0  0
 22  9  1  0  0  0  0
 23  5  1  6  0  0  0
 23  3  1  0  0  0  0
 24 16  1  0  0  0  0
 24 11  2  0  0  0  0
 26 13  1  6  0  0  0
 26 12  1  0  0  0  0
 26 29  1  0  0  0  0
 28 29  1  0  0  0  0
 28 27  1  0  0  0  0
 29 27  1  0  0  0  0
 29 31  1  0  0  0  0
 31 30  1  0  0  0  0
M  END
>  <MODEL>
8

>  <REMARK>
 VINA RESULT:      -7.5      2.350      3.577
  Name = 
  2 active torsions:
  status: ('A' for Active; 'I' for Inactive)
    1  A    between atoms: C_26  and  C_31
    2  A    between atoms: N_30  and  C_31
                            x       y       z     vdW  Elec       q    Type
                         _______ _______ _______ _____ _____    ______ ____

>  <TORSDO>
F 2

$$$$
=
 OpenBabel11062421283D

 31 38  0  0  1  0  0  0  0  0999 V2000
  193.0510  170.5690  144.0500 C   0  0  0  0  0  3  0  0  0  0  0  0
  191.8540  175.1790  145.2120 O   0  0  0  0  0  0  0  0  0  0  0  0
  192.7750  174.3110  144.6160 C   0  0  1  0  0  3  0  0  0  0  0  0
  192.2580  176.5110  144.9420 C   0  0  0  0  0  2  0  0  0  0  0  0
  193.0720  171.9120  144.4350 C   0  0  0  0  0  0  0  0  0  0  0  0
  190.7050  172.7910  143.9620 C   0  0  2  0  0  3  0  0  0  0  0  0
  194.9350  174.7210  145.7990 C   0  0  0  0  0  2  0  0  0  0  0  0
  192.1340  172.2050  141.7550 O   0  0  0  0  0  0  0  0  0  0  0  0
  189.0080  173.7650  142.4490 C   0  0  0  0  0  0  0  0  0  0  0  0
  193.7250  173.8090  145.7050 C   0  0  2  0  0  3  0  0  0  0  0  0
  194.9360  171.5300  145.9210 C   0  0  0  0  0  3  0  0  0  0  0  0
  189.0580  174.8110  144.4400 N   0  0  0  0  0  2  0  0  0  0  0  0
  188.1060  174.9400  142.3460 C   0  0  0  0  0  2  0  0  0  0  0  0
  191.5510  173.1100  142.6650 C   0  0  2  0  0  0  0  0  0  0  0  0
  189.4120  173.0540  140.1620 O   0  0  0  0  0  0  0  0  0  0  0  0
  195.9430  169.2500  146.1250 C   0  0  0  0  0  1  0  0  0  0  0  0
  194.0020  172.3870  145.3370 C   0  0  0  0  0  0  0  0  0  0  0  0
  194.0050  169.7030  144.6040 C   0  0  0  0  0  3  0  0  0  0  0  0
  189.5500  173.7520  143.6570 C   0  0  0  0  0  0  0  0  0  0  0  0
  190.7650  172.0300  141.9310 C   0  0  1  0  0  3  0  0  0  0  0  0
  193.7670  176.8410  145.0920 C   0  0  0  0  0  2  0  0  0  0  0  0
  189.6930  172.9640  141.3850 C   0  0  0  0  0  0  0  0  0  0  0  0
  192.1860  173.0320  144.0300 C   0  0  1  0  0  0  0  0  0  0  0  0
  194.9470  170.1820  145.5330 C   0  0  0  0  0  0  0  0  0  0  0  0
  194.4770  176.1140  146.2370 C   0  0  0  0  0  2  0  0  0  0  0  0
  188.1290  175.5700  143.6950 N   0  0  2  0  0  0  0  0  0  0  0  0
  187.6540  178.0350  144.2040 C   0  0  0  0  0  2  0  0  0  0  0  0
  188.8680  177.6100  145.0330 C   0  0  0  0  0  2  0  0  0  0  0  0
  188.6010  176.9700  143.6860 C   0  0  0  0  0  0  0  0  0  0  0  0
  188.9330  178.3800  141.7890 O   0  0  0  0  0  1  0  0  0  0  0  0
  189.5410  177.3980  142.5710 C   0  0  0  0  0  2  0  0  0  0  0  0
  1  5  2  0  0  0  0
  1 18  1  0  0  0  0
  3  2  1  1  0  0  0
  3 10  1  0  0  0  0
  4 21  1  0  0  0  0
  4  2  1  0  0  0  0
  5 17  1  0  0  0  0
  6 19  1  1  0  0  0
  6 23  1  0  0  0  0
  7 25  1  0  0  0  0
  8 20  1  0  0  0  0
  9 19  2  0  0  0  0
 10  7  1  6  0  0  0
 13  9  1  0  0  0  0
 14  8  1  6  0  0  0
 14  6  1  0  0  0  0
 14 23  1  0  0  0  0
 15 22  2  0  0  0  0
 17 10  1  0  0  0  0
 17 11  2  0  0  0  0
 18 24  2  0  0  0  0
 19 12  1  0  0  0  0
 20 22  1  6  0  0  0
 20 14  1  0  0  0  0
 21 25  1  0  0  0  0
 22  9  1  0  0  0  0
 23  5  1  1  0  0  0
 23  3  1  0  0  0  0
 24 11  1  0  0  0  0
 24 16  1  0  0  0  0
 26 13  1  6  0  0  0
 26 12  1  0  0  0  0
 27 28  1  0  0  0  0
 29 26  1  0  0  0  0
 29 27  1  0  0  0  0
 29 28  1  0  0  0  0
 30 31  1  0  0  0  0
 31 29  1  0  0  0  0
M  END
>  <MODEL>
9

>  <REMARK>
 VINA RESULT:      -7.4      3.394      7.953
  Name = 
  2 active torsions:
  status: ('A' for Active; 'I' for Inactive)
    1  A    between atoms: C_26  and  C_31
    2  A    between atoms: N_30  and  C_31
                            x       y       z     vdW  Elec       q    Type
                         _______ _______ _______ _____ _____    ______ ____

>  <TORSDO>
F 2

$$$$
