=
 OpenBabel11062419483D

 46 50  0  0  1  0  0  0  0  0999 V2000
  192.1360  173.9300  142.6660 C   0  0  2  0  0  3  0  0  0  0  0  0
  190.1930  171.8660  140.3510 C   0  0  0  0  0  0  0  0  0  0  0  0
  191.2900  171.1240  140.4670 C   0  0  0  0  0  0  0  0  0  0  0  0
  191.1870  175.1120  142.7730 C   0  0  0  0  0  3  0  0  0  0  0  0
  188.7140  173.3000  138.9600 C   0  0  0  0  0  2  0  0  0  0  0  0
  190.0280  175.1810  142.0790 C   0  0  0  0  0  0  0  0  0  0  0  0
  188.4440  174.1050  140.2620 C   0  0  0  0  0  2  0  0  0  0  0  0
  191.7410  170.1090  139.4740 C   0  0  0  0  0  1  0  0  0  0  0  0
  191.4680  172.7640  142.0770 N   0  0  0  0  0  0  0  0  0  0  0  0
  189.3390  171.9920  139.2150 N   0  0  0  0  0  2  0  0  0  0  0  0
  190.2870  172.9130  141.3190 C   0  0  0  0  0  0  0  0  0  0  0  0
  192.1100  171.6370  141.5350 N   0  0  0  0  0  0  0  0  0  0  0  0
  189.6110  174.0460  141.2260 C   0  0  0  0  0  0  0  0  0  0  0  0
  192.7400  173.5960  143.9990 C   0  0  0  0  0  0  0  0  0  0  0  0
  192.0420  172.9480  144.9330 C   0  0  0  0  0  2  0  0  0  0  0  0
  194.1180  174.0670  144.3130 C   0  0  0  0  0  1  0  0  0  0  0  0
  189.1780  176.3300  142.1770 N   0  0  0  0  0  2  0  0  0  0  0  0
  188.0100  176.4210  143.0550 C   0  0  2  0  0  3  0  0  0  0  0  0
  186.6800  176.7110  142.3180 C   0  0  2  0  0  3  0  0  0  0  0  0
  186.8760  177.4590  141.0080 C   0  0  0  0  0  2  0  0  0  0  0  0
  186.3670  178.1970  142.2200 C   0  0  1  0  0  3  0  0  0  0  0  0
  184.8660  178.3750  142.1230 C   0  0  0  0  0  2  0  0  0  0  0  0
  184.3050  178.7950  143.4700 C   0  0  0  0  0  2  0  0  0  0  0  0
  185.2960  179.6710  144.2150 C   0  0  0  0  0  2  0  0  0  0  0  0
  185.4940  179.1470  145.6220 C   0  0  0  0  0  2  0  0  0  0  0  0
  185.1820  176.9610  146.6670 C   0  0  0  0  0  2  0  0  0  0  0  0
  184.7550  177.8650  145.7940 C   0  0  0  0  0  3  0  0  0  0  0  0
  188.2890  177.2890  144.2880 C   0  0  0  0  0  2  0  0  0  0  0  0
  190.0670  177.0990  145.9970 C   0  0  1  0  0  3  0  0  0  0  0  0
  188.7950  176.4680  145.4640 C   0  0  1  0  0  3  0  0  0  0  0  0
  188.7510  177.3170  146.7140 C   0  0  0  0  0  2  0  0  0  0  0  0
  190.8600  176.0380  146.7290 C   0  0  0  0  0  2  0  0  0  0  0  0
  192.3370  176.3520  146.6360 C   0  0  0  0  0  1  0  0  0  0  0  0
  193.5270  171.3520  141.7110 C   0  0  0  0  0  2  0  0  0  0  0  0
  192.5040  169.9120  143.3280 O   0  0  0  0  0  1  0  0  0  0  0  0
  193.7190  170.2170  142.7110 C   0  0  2  0  0  3  0  0  0  0  0  0
  194.7790  170.5380  143.7730 C   0  0  1  0  0  3  0  0  0  0  0  0
  195.3020  168.9230  145.4740 O   0  0  0  0  0  1  0  0  0  0  0  0
  194.4960  170.9470  146.1280 F   0  0  0  0  0  0  0  0  0  0  0  0
  194.4350  169.9680  145.1500 C   0  0  1  0  0  3  0  0  0  0  0  0
  196.1840  170.1200  143.3420 C   0  0  0  0  0  2  0  0  0  0  0  0
  197.1240  171.3150  143.2960 C   0  0  0  0  0  2  0  0  0  0  0  0
  197.8430  171.4960  144.6220 C   0  0  0  0  0  2  0  0  0  0  0  0
  196.9450  172.8310  146.3770 O   0  0  0  0  0  0  0  0  0  0  0  0
  197.6980  174.0120  144.5250 N   0  0  0  0  0  1  0  0  0  0  0  0
  197.4600  172.7990  145.2280 C   0  0  0  0  0  0  0  0  0  0  0  0
  1  4  1  0  0  0  0
  1 14  1  1  0  0  0
  2  3  2  0  0  0  0
  2 11  1  0  0  0  0
  3 12  1  0  0  0  0
  5 10  1  0  0  0  0
  5  7  1  0  0  0  0
  6 17  1  0  0  0  0
  6  4  2  0  0  0  0
  7 13  1  0  0  0  0
  8  3  1  0  0  0  0
  9  1  1  0  0  0  0
 10  2  1  0  0  0  0
 11  9  1  0  0  0  0
 12 34  1  0  0  0  0
 12  9  1  0  0  0  0
 13 11  2  0  0  0  0
 13  6  1  0  0  0  0
 14 16  1  0  0  0  0
 14 15  2  0  0  0  0
 17 18  1  0  0  0  0
 18 28  1  1  0  0  0
 19 18  1  1  0  0  0
 20 21  1  0  0  0  0
 20 19  1  0  0  0  0
 21 22  1  6  0  0  0
 21 19  1  0  0  0  0
 22 23  1  0  0  0  0
 23 24  1  0  0  0  0
 24 25  1  0  0  0  0
 25 27  1  0  0  0  0
 27 26  2  0  0  0  0
 29 31  1  0  0  0  0
 29 32  1  1  0  0  0
 30 28  1  6  0  0  0
 30 29  1  0  0  0  0
 30 31  1  0  0  0  0
 33 32  1  0  0  0  0
 34 36  1  0  0  0  0
 36 35  1  1  0  0  0
 36 37  1  0  0  0  0
 37 41  1  6  0  0  0
 37 40  1  0  0  0  0
 40 38  1  1  0  0  0
 40 39  1  0  0  0  0
 42 41  1  0  0  0  0
 42 43  1  0  0  0  0
 43 46  1  0  0  0  0
 45 46  1  0  0  0  0
 46 44  2  0  0  0  0
M  END
>  <MODEL>
1

>  <REMARK>
 VINA RESULT:      -5.9      0.000      0.000
  Name = 
  20 active torsions:
  status: ('A' for Active; 'I' for Inactive)
    1  A    between atoms: C_1  and  C_22
    2  A    between atoms: C_1  and  N_42
    3  A    between atoms: C_2  and  C_25
    4  A    between atoms: C_4  and  C_31
    5  A    between atoms: C_6  and  C_8
    6  A    between atoms: C_6  and  C_26
    7  A    between atoms: C_8  and  C_19
    8  A    between atoms: C_8  and  C_22
    9  A    between atoms: C_9  and  C_40
   10  A    between atoms: C_9  and  C_45
   11  A    between atoms: C_10  and  C_20
   12  A    between atoms: N_12  and  C_24
   13  A    between atoms: N_12  and  C_31
   14  A    between atoms: C_23  and  C_28
   15  A    between atoms: C_23  and  C_46
   16  A    between atoms: C_26  and  C_35
   17  A    between atoms: C_29  and  C_38
   18  A    between atoms: C_31  and  C_38
   19  A    between atoms: C_35  and  C_41
   20  A    between atoms: C_40  and  C_46
                            x       y       z     vdW  Elec       q    Type
                         _______ _______ _______ _____ _____    ______ ____

>  <TORSDO>
F 20

$$$$
=
 OpenBabel11062419483D

 46 50  0  0  1  0  0  0  0  0999 V2000
  191.6640  173.2680  143.7260 C   0  0  2  0  0  3  0  0  0  0  0  0
  192.2490  176.6360  145.0340 C   0  0  0  0  0  0  0  0  0  0  0  0
  191.2220  176.8710  144.2210 C   0  0  0  0  0  0  0  0  0  0  0  0
  192.8240  172.5540  144.4020 C   0  0  0  0  0  3  0  0  0  0  0  0
  194.6530  176.9340  145.5880 C   0  0  0  0  0  2  0  0  0  0  0  0
  193.7190  173.1990  145.1850 C   0  0  0  0  0  0  0  0  0  0  0  0
  194.5930  175.4900  146.1600 C   0  0  0  0  0  2  0  0  0  0  0  0
  190.8830  178.2000  143.6390 C   0  0  0  0  0  1  0  0  0  0  0  0
  191.4170  174.5770  144.3400 N   0  0  0  0  0  0  0  0  0  0  0  0
  193.3200  177.5170  145.3650 N   0  0  0  0  0  2  0  0  0  0  0  0
  192.4140  175.2180  145.1040 C   0  0  0  0  0  0  0  0  0  0  0  0
  190.6650  175.6200  143.7730 N   0  0  0  0  0  0  0  0  0  0  0  0
  193.5480  174.6410  145.4670 C   0  0  0  0  0  0  0  0  0  0  0  0
  190.4260  172.4190  143.7340 C   0  0  0  0  0  0  0  0  0  0  0  0
  189.6880  172.2810  144.8380 C   0  0  0  0  0  2  0  0  0  0  0  0
  190.0590  171.6530  142.5110 C   0  0  0  0  0  1  0  0  0  0  0  0
  194.8210  172.4980  145.7730 N   0  0  0  0  0  2  0  0  0  0  0  0
  196.1470  172.3820  145.1630 C   0  0  2  0  0  3  0  0  0  0  0  0
  196.3250  173.2030  143.8630 C   0  0  2  0  0  3  0  0  0  0  0  0
  197.7080  173.0470  143.2460 C   0  0  0  0  0  2  0  0  0  0  0  0
  197.3630  174.3080  143.9960 C   0  0  1  0  0  3  0  0  0  0  0  0
  197.0260  175.4150  143.0180 C   0  0  0  0  0  2  0  0  0  0  0  0
  197.9410  175.3350  141.8080 C   0  0  0  0  0  2  0  0  0  0  0  0
  197.1630  175.5830  140.5290 C   0  0  0  0  0  2  0  0  0  0  0  0
  197.0550  174.2990  139.7330 C   0  0  0  0  0  2  0  0  0  0  0  0
  195.5970  172.4260  140.3080 C   0  0  0  0  0  2  0  0  0  0  0  0
  195.7090  173.6930  139.9280 C   0  0  0  0  0  3  0  0  0  0  0  0
  196.6220  170.9260  145.0990 C   0  0  0  0  0  2  0  0  0  0  0  0
  195.0370  169.3670  144.0140 C   0  0  1  0  0  3  0  0  0  0  0  0
  195.4880  169.9420  145.3420 C   0  0  1  0  0  3  0  0  0  0  0  0
  195.9350  168.5590  144.9270 C   0  0  0  0  0  2  0  0  0  0  0  0
  193.6120  168.8770  144.1590 C   0  0  0  0  0  2  0  0  0  0  0  0
  192.8400  169.1740  142.8920 C   0  0  0  0  0  1  0  0  0  0  0  0
  189.8110  175.4580  142.6040 C   0  0  0  0  0  2  0  0  0  0  0  0
  187.6870  174.3940  142.2980 O   0  0  0  0  0  1  0  0  0  0  0  0
  188.3460  175.3890  143.0240 C   0  0  2  0  0  3  0  0  0  0  0  0
  187.6190  176.7290  142.8550 C   0  0  1  0  0  3  0  0  0  0  0  0
  186.3640  177.6130  141.0050 O   0  0  0  0  0  1  0  0  0  0  0  0
  188.5070  178.3210  141.2820 F   0  0  0  0  0  0  0  0  0  0  0  0
  187.6470  177.2440  141.4140 C   0  0  1  0  0  3  0  0  0  0  0  0
  186.1910  176.6940  143.3970 C   0  0  0  0  0  2  0  0  0  0  0  0
  186.0490  177.5720  144.6300 C   0  0  0  0  0  2  0  0  0  0  0  0
  185.9790  176.7340  145.8950 C   0  0  0  0  0  2  0  0  0  0  0  0
  187.5340  177.8710  147.2940 O   0  0  0  0  0  0  0  0  0  0  0  0
  188.1810  175.7440  146.6230 N   0  0  0  0  0  1  0  0  0  0  0  0
  187.2650  176.8320  146.6350 C   0  0  0  0  0  0  0  0  0  0  0  0
  1 14  1  1  0  0  0
  1  9  1  0  0  0  0
  1  4  1  0  0  0  0
  2 11  1  0  0  0  0
  2 10  1  0  0  0  0
  3  2  2  0  0  0  0
  4  6  2  0  0  0  0
  5  7  1  0  0  0  0
  6 13  1  0  0  0  0
  6 17  1  0  0  0  0
  8  3  1  0  0  0  0
  9 11  1  0  0  0  0
 10  5  1  0  0  0  0
 11 13  2  0  0  0  0
 12  3  1  0  0  0  0
 12  9  1  0  0  0  0
 13  7  1  0  0  0  0
 14 15  2  0  0  0  0
 16 14  1  0  0  0  0
 18 28  1  6  0  0  0
 18 17  1  0  0  0  0
 19 21  1  0  0  0  0
 19 18  1  1  0  0  0
 20 19  1  0  0  0  0
 20 21  1  0  0  0  0
 21 22  1  6  0  0  0
 23 22  1  0  0  0  0
 24 23  1  0  0  0  0
 25 27  1  0  0  0  0
 25 24  1  0  0  0  0
 27 26  2  0  0  0  0
 29 32  1  1  0  0  0
 29 31  1  0  0  0  0
 29 30  1  0  0  0  0
 30 28  1  6  0  0  0
 31 30  1  0  0  0  0
 33 32  1  0  0  0  0
 34 36  1  0  0  0  0
 34 12  1  0  0  0  0
 36 35  1  6  0  0  0
 37 36  1  0  0  0  0
 37 41  1  6  0  0  0
 39 40  1  0  0  0  0
 40 38  1  1  0  0  0
 40 37  1  0  0  0  0
 41 42  1  0  0  0  0
 42 43  1  0  0  0  0
 43 46  1  0  0  0  0
 45 46  1  0  0  0  0
 46 44  2  0  0  0  0
M  END
>  <MODEL>
2

>  <REMARK>
 VINA RESULT:      -5.7      3.688      9.534
  Name = 
  20 active torsions:
  status: ('A' for Active; 'I' for Inactive)
    1  A    between atoms: C_1  and  C_22
    2  A    between atoms: C_1  and  N_42
    3  A    between atoms: C_2  and  C_25
    4  A    between atoms: C_4  and  C_31
    5  A    between atoms: C_6  and  C_8
    6  A    between atoms: C_6  and  C_26
    7  A    between atoms: C_8  and  C_19
    8  A    between atoms: C_8  and  C_22
    9  A    between atoms: C_9  and  C_40
   10  A    between atoms: C_9  and  C_45
   11  A    between atoms: C_10  and  C_20
   12  A    between atoms: N_12  and  C_24
   13  A    between atoms: N_12  and  C_31
   14  A    between atoms: C_23  and  C_28
   15  A    between atoms: C_23  and  C_46
   16  A    between atoms: C_26  and  C_35
   17  A    between atoms: C_29  and  C_38
   18  A    between atoms: C_31  and  C_38
   19  A    between atoms: C_35  and  C_41
   20  A    between atoms: C_40  and  C_46
                            x       y       z     vdW  Elec       q    Type
                         _______ _______ _______ _____ _____    ______ ____

>  <TORSDO>
F 20

$$$$
=
 OpenBabel11062419483D

 46 50  0  0  1  0  0  0  0  0999 V2000
  192.2010  172.3810  142.7790 C   0  0  2  0  0  3  0  0  0  0  0  0
  189.5740  173.5070  140.4920 C   0  0  0  0  0  0  0  0  0  0  0  0
  190.5120  173.1480  139.6190 C   0  0  0  0  0  0  0  0  0  0  0  0
  191.5250  172.7300  144.0960 C   0  0  0  0  0  3  0  0  0  0  0  0
  188.2140  175.2900  141.5620 C   0  0  0  0  0  2  0  0  0  0  0  0
  190.3130  173.3260  144.1560 C   0  0  0  0  0  0  0  0  0  0  0  0
  188.3000  174.4350  142.8570 C   0  0  0  0  0  2  0  0  0  0  0  0
  190.6060  173.6450  138.2180 C   0  0  0  0  0  1  0  0  0  0  0  0
  191.2400  172.3880  141.6710 N   0  0  0  0  0  0  0  0  0  0  0  0
  188.6030  174.5430  140.3560 N   0  0  0  0  0  2  0  0  0  0  0  0
  190.0120  173.0750  141.7830 C   0  0  0  0  0  0  0  0  0  0  0  0
  191.5630  172.4400  140.3040 N   0  0  0  0  0  0  0  0  0  0  0  0
  189.5620  173.5990  142.9100 C   0  0  0  0  0  0  0  0  0  0  0  0
  192.9180  171.0650  142.8690 C   0  0  0  0  0  0  0  0  0  0  0  0
  194.2410  171.0070  143.0320 C   0  0  0  0  0  2  0  0  0  0  0  0
  192.1480  169.8020  142.6920 C   0  0  0  0  0  1  0  0  0  0  0  0
  189.7260  173.6750  145.4150 N   0  0  0  0  0  2  0  0  0  0  0  0
  189.9410  174.9490  146.1030 C   0  0  2  0  0  3  0  0  0  0  0  0
  191.2840  175.0430  146.8660 C   0  0  2  0  0  3  0  0  0  0  0  0
  191.3330  176.2080  147.8440 C   0  0  0  0  0  2  0  0  0  0  0  0
  192.0690  176.3030  146.5330 C   0  0  1  0  0  3  0  0  0  0  0  0
  193.5440  176.0310  146.7480 C   0  0  0  0  0  2  0  0  0  0  0  0
  194.3480  176.5690  145.5770 C   0  0  0  0  0  2  0  0  0  0  0  0
  193.4280  177.1230  144.5040 C   0  0  0  0  0  2  0  0  0  0  0  0
  193.2760  176.1160  143.3830 C   0  0  0  0  0  2  0  0  0  0  0  0
  191.1440  177.2680  143.0780 C   0  0  0  0  0  2  0  0  0  0  0  0
  191.9240  176.2380  142.7710 C   0  0  0  0  0  3  0  0  0  0  0  0
  188.7000  175.3920  146.8870 C   0  0  0  0  0  2  0  0  0  0  0  0
  186.5770  176.6620  146.8870 C   0  0  1  0  0  3  0  0  0  0  0  0
  187.8190  176.3350  146.0810 C   0  0  1  0  0  3  0  0  0  0  0  0
  187.7170  177.6570  146.8060 C   0  0  0  0  0  2  0  0  0  0  0  0
  185.4810  177.0850  145.9330 C   0  0  0  0  0  2  0  0  0  0  0  0
  184.5230  178.0180  146.6410 C   0  0  0  0  0  1  0  0  0  0  0  0
  192.9080  172.2370  139.7840 C   0  0  0  0  0  2  0  0  0  0  0  0
  193.2590  174.6060  139.8460 O   0  0  0  0  0  1  0  0  0  0  0  0
  193.8210  173.3810  140.2130 C   0  0  2  0  0  3  0  0  0  0  0  0
  195.2350  173.2590  139.6320 C   0  0  1  0  0  3  0  0  0  0  0  0
  196.9070  174.4880  138.4180 O   0  0  0  0  0  1  0  0  0  0  0  0
  194.9820  173.9400  137.3370 F   0  0  0  0  0  0  0  0  0  0  0  0
  195.5300  174.3060  138.5560 C   0  0  1  0  0  3  0  0  0  0  0  0
  196.3150  173.2650  140.7130 C   0  0  0  0  0  2  0  0  0  0  0  0
  195.9170  174.1480  141.8850 C   0  0  0  0  0  2  0  0  0  0  0  0
  196.5600  175.5190  141.7800 C   0  0  0  0  0  2  0  0  0  0  0  0
  197.1060  177.1740  143.4020 O   0  0  0  0  0  0  0  0  0  0  0  0
  197.4310  174.9790  144.0840 N   0  0  0  0  0  1  0  0  0  0  0  0
  197.0500  175.9490  143.1170 C   0  0  0  0  0  0  0  0  0  0  0  0
  1 14  1  1  0  0  0
  1  4  1  0  0  0  0
  2 11  1  0  0  0  0
  3 12  1  0  0  0  0
  3  2  2  0  0  0  0
  4  6  2  0  0  0  0
  5  7  1  0  0  0  0
  6 17  1  0  0  0  0
  7 13  1  0  0  0  0
  8  3  1  0  0  0  0
  9 11  1  0  0  0  0
  9  1  1  0  0  0  0
 10  2  1  0  0  0  0
 10  5  1  0  0  0  0
 11 13  2  0  0  0  0
 12  9  1  0  0  0  0
 13  6  1  0  0  0  0
 14 15  2  0  0  0  0
 16 14  1  0  0  0  0
 17 18  1  0  0  0  0
 18 28  1  1  0  0  0
 19 18  1  6  0  0  0
 19 20  1  0  0  0  0
 21 22  1  1  0  0  0
 21 19  1  0  0  0  0
 21 20  1  0  0  0  0
 23 22  1  0  0  0  0
 24 23  1  0  0  0  0
 25 24  1  0  0  0  0
 27 26  2  0  0  0  0
 27 25  1  0  0  0  0
 29 32  1  6  0  0  0
 30 31  1  0  0  0  0
 30 28  1  1  0  0  0
 30 29  1  0  0  0  0
 31 29  1  0  0  0  0
 32 33  1  0  0  0  0
 34 36  1  0  0  0  0
 34 12  1  0  0  0  0
 36 35  1  6  0  0  0
 37 36  1  0  0  0  0
 37 41  1  1  0  0  0
 38 40  1  0  0  0  0
 40 39  1  6  0  0  0
 40 37  1  0  0  0  0
 41 42  1  0  0  0  0
 43 42  1  0  0  0  0
 43 46  1  0  0  0  0
 46 44  2  0  0  0  0
 46 45  1  0  0  0  0
M  END
>  <MODEL>
3

>  <REMARK>
 VINA RESULT:      -5.7      2.958      5.363
  Name = 
  20 active torsions:
  status: ('A' for Active; 'I' for Inactive)
    1  A    between atoms: C_1  and  C_22
    2  A    between atoms: C_1  and  N_42
    3  A    between atoms: C_2  and  C_25
    4  A    between atoms: C_4  and  C_31
    5  A    between atoms: C_6  and  C_8
    6  A    between atoms: C_6  and  C_26
    7  A    between atoms: C_8  and  C_19
    8  A    between atoms: C_8  and  C_22
    9  A    between atoms: C_9  and  C_40
   10  A    between atoms: C_9  and  C_45
   11  A    between atoms: C_10  and  C_20
   12  A    between atoms: N_12  and  C_24
   13  A    between atoms: N_12  and  C_31
   14  A    between atoms: C_23  and  C_28
   15  A    between atoms: C_23  and  C_46
   16  A    between atoms: C_26  and  C_35
   17  A    between atoms: C_29  and  C_38
   18  A    between atoms: C_31  and  C_38
   19  A    between atoms: C_35  and  C_41
   20  A    between atoms: C_40  and  C_46
                            x       y       z     vdW  Elec       q    Type
                         _______ _______ _______ _____ _____    ______ ____

>  <TORSDO>
F 20

$$$$
=
 OpenBabel11062419483D

 46 50  0  0  1  0  0  0  0  0999 V2000
  192.6290  175.4180  145.2650 C   0  0  2  0  0  3  0  0  0  0  0  0
  192.9910  171.8120  144.7500 C   0  0  0  0  0  0  0  0  0  0  0  0
  194.2360  172.1290  145.0930 C   0  0  0  0  0  0  0  0  0  0  0  0
  191.1750  175.5660  144.8460 C   0  0  0  0  0  3  0  0  0  0  0  0
  191.3760  171.0260  143.0320 C   0  0  0  0  0  2  0  0  0  0  0  0
  190.4370  174.5240  144.4000 C   0  0  0  0  0  0  0  0  0  0  0  0
  190.3510  171.9780  143.7100 C   0  0  0  0  0  2  0  0  0  0  0  0
  195.4430  171.3230  144.7590 C   0  0  0  0  0  1  0  0  0  0  0  0
  192.9710  174.0120  145.5070 N   0  0  0  0  0  0  0  0  0  0  0  0
  192.5640  170.7780  143.8640 N   0  0  0  0  0  2  0  0  0  0  0  0
  192.1850  172.9720  144.9680 C   0  0  0  0  0  0  0  0  0  0  0  0
  194.2720  173.4850  145.5800 N   0  0  0  0  0  0  0  0  0  0  0  0
  191.0200  173.1640  144.3710 C   0  0  0  0  0  0  0  0  0  0  0  0
  192.9380  176.2680  146.4620 C   0  0  0  0  0  0  0  0  0  0  0  0
  194.0700  176.9720  146.5390 C   0  0  0  0  0  2  0  0  0  0  0  0
  192.0030  176.2630  147.6210 C   0  0  0  0  0  1  0  0  0  0  0  0
  189.0810  174.7100  143.9780 N   0  0  0  0  0  2  0  0  0  0  0  0
  188.6560  175.6740  142.9600 C   0  0  2  0  0  3  0  0  0  0  0  0
  187.1320  175.9390  142.9290 C   0  0  2  0  0  3  0  0  0  0  0  0
  186.7040  176.8200  141.7640 C   0  0  0  0  0  2  0  0  0  0  0  0
  186.7790  177.4020  143.1520 C   0  0  1  0  0  3  0  0  0  0  0  0
  185.3900  177.4830  143.7530 C   0  0  0  0  0  2  0  0  0  0  0  0
  185.3370  178.5920  144.7900 C   0  0  0  0  0  2  0  0  0  0  0  0
  184.6480  178.1120  146.0550 C   0  0  0  0  0  2  0  0  0  0  0  0
  185.2580  176.8030  146.5100 C   0  0  0  0  0  2  0  0  0  0  0  0
  187.6350  176.3380  146.8240 C   0  0  0  0  0  2  0  0  0  0  0  0
  186.5720  177.0560  147.1640 C   0  0  0  0  0  3  0  0  0  0  0  0
  189.3090  175.3940  141.6020 C   0  0  0  0  0  2  0  0  0  0  0  0
  189.3170  174.0310  139.5380 C   0  0  1  0  0  3  0  0  0  0  0  0
  188.7300  174.1580  140.9300 C   0  0  1  0  0  3  0  0  0  0  0  0
  189.8430  173.1710  140.6680 C   0  0  0  0  0  2  0  0  0  0  0  0
  188.3700  173.2090  138.6890 C   0  0  0  0  0  2  0  0  0  0  0  0
  188.3520  173.7520  137.2780 C   0  0  0  0  0  1  0  0  0  0  0  0
  195.4720  174.3050  145.6780 C   0  0  0  0  0  2  0  0  0  0  0  0
  197.5000  174.1020  144.4190 O   0  0  0  0  0  1  0  0  0  0  0  0
  196.1450  174.4240  144.3140 C   0  0  2  0  0  3  0  0  0  0  0  0
  195.9840  175.8190  143.6950 C   0  0  1  0  0  3  0  0  0  0  0  0
  197.2300  176.2240  141.6800 O   0  0  0  0  0  1  0  0  0  0  0  0
  197.4990  177.6680  143.4170 F   0  0  0  0  0  0  0  0  0  0  0  0
  197.2770  176.3460  143.0710 C   0  0  1  0  0  3  0  0  0  0  0  0
  194.8260  175.8880  142.7010 C   0  0  0  0  0  2  0  0  0  0  0  0
  194.4500  174.5040  142.1960 C   0  0  0  0  0  2  0  0  0  0  0  0
  193.2800  174.5730  141.2300 C   0  0  0  0  0  2  0  0  0  0  0  0
  194.9990  174.4710  139.5860 O   0  0  0  0  0  0  0  0  0  0  0  0
  192.8470  174.1240  138.7870 N   0  0  0  0  0  1  0  0  0  0  0  0
  193.7660  174.3990  139.8360 C   0  0  0  0  0  0  0  0  0  0  0  0
  1  9  1  0  0  0  0
  1 14  1  1  0  0  0
  2 11  1  0  0  0  0
  2  3  2  0  0  0  0
  3 12  1  0  0  0  0
  4  1  1  0  0  0  0
  5  7  1  0  0  0  0
  5 10  1  0  0  0  0
  6  4  2  0  0  0  0
  7 13  1  0  0  0  0
  8  3  1  0  0  0  0
  9 12  1  0  0  0  0
 10  2  1  0  0  0  0
 11  9  1  0  0  0  0
 12 34  1  0  0  0  0
 13  6  1  0  0  0  0
 13 11  2  0  0  0  0
 14 15  2  0  0  0  0
 14 16  1  0  0  0  0
 17  6  1  0  0  0  0
 18 28  1  6  0  0  0
 18 17  1  0  0  0  0
 19 18  1  6  0  0  0
 19 21  1  0  0  0  0
 20 19  1  0  0  0  0
 20 21  1  0  0  0  0
 21 22  1  1  0  0  0
 22 23  1  0  0  0  0
 23 24  1  0  0  0  0
 24 25  1  0  0  0  0
 25 27  1  0  0  0  0
 26 27  2  0  0  0  0
 29 32  1  6  0  0  0
 29 31  1  0  0  0  0
 29 30  1  0  0  0  0
 30 28  1  1  0  0  0
 31 30  1  0  0  0  0
 33 32  1  0  0  0  0
 36 35  1  1  0  0  0
 36 34  1  0  0  0  0
 37 41  1  6  0  0  0
 37 36  1  0  0  0  0
 40 38  1  6  0  0  0
 40 39  1  0  0  0  0
 40 37  1  0  0  0  0
 42 41  1  0  0  0  0
 43 42  1  0  0  0  0
 44 46  2  0  0  0  0
 45 46  1  0  0  0  0
 46 43  1  0  0  0  0
M  END
>  <MODEL>
4

>  <REMARK>
 VINA RESULT:      -5.7      2.597      5.252
  Name = 
  20 active torsions:
  status: ('A' for Active; 'I' for Inactive)
    1  A    between atoms: C_1  and  C_22
    2  A    between atoms: C_1  and  N_42
    3  A    between atoms: C_2  and  C_25
    4  A    between atoms: C_4  and  C_31
    5  A    between atoms: C_6  and  C_8
    6  A    between atoms: C_6  and  C_26
    7  A    between atoms: C_8  and  C_19
    8  A    between atoms: C_8  and  C_22
    9  A    between atoms: C_9  and  C_40
   10  A    between atoms: C_9  and  C_45
   11  A    between atoms: C_10  and  C_20
   12  A    between atoms: N_12  and  C_24
   13  A    between atoms: N_12  and  C_31
   14  A    between atoms: C_23  and  C_28
   15  A    between atoms: C_23  and  C_46
   16  A    between atoms: C_26  and  C_35
   17  A    between atoms: C_29  and  C_38
   18  A    between atoms: C_31  and  C_38
   19  A    between atoms: C_35  and  C_41
   20  A    between atoms: C_40  and  C_46
                            x       y       z     vdW  Elec       q    Type
                         _______ _______ _______ _____ _____    ______ ____

>  <TORSDO>
F 20

$$$$
=
 OpenBabel11062419483D

 46 50  0  0  1  0  0  0  0  0999 V2000
  190.8190  175.1840  143.4170 C   0  0  2  0  0  3  0  0  0  0  0  0
  192.8330  176.0190  146.3570 C   0  0  0  0  0  0  0  0  0  0  0  0
  191.6210  175.9740  146.9030 C   0  0  0  0  0  0  0  0  0  0  0  0
  191.9180  175.2180  142.3670 C   0  0  0  0  0  3  0  0  0  0  0  0
  194.8300  177.3340  145.6810 C   0  0  0  0  0  2  0  0  0  0  0  0
  193.1980  175.5380  142.6640 C   0  0  0  0  0  0  0  0  0  0  0  0
  194.9350  176.3590  144.4750 C   0  0  0  0  0  2  0  0  0  0  0  0
  191.2340  176.6520  148.1720 C   0  0  0  0  0  1  0  0  0  0  0  0
  191.3800  175.1310  144.7710 N   0  0  0  0  0  0  0  0  0  0  0  0
  193.9350  176.8410  146.7390 N   0  0  0  0  0  2  0  0  0  0  0  0
  192.7100  175.5290  145.0190 C   0  0  0  0  0  0  0  0  0  0  0  0
  190.6850  175.4190  145.9590 N   0  0  0  0  0  0  0  0  0  0  0  0
  193.5860  175.8040  144.0670 C   0  0  0  0  0  0  0  0  0  0  0  0
  189.8720  174.0440  143.1740 C   0  0  0  0  0  0  0  0  0  0  0  0
  190.1560  172.8080  143.5880 C   0  0  0  0  0  2  0  0  0  0  0  0
  188.6300  174.2830  142.3880 C   0  0  0  0  0  1  0  0  0  0  0  0
  194.1990  175.5970  141.6410 N   0  0  0  0  0  2  0  0  0  0  0  0
  195.0550  174.4730  141.2550 C   0  0  2  0  0  3  0  0  0  0  0  0
  196.4070  174.4140  142.0050 C   0  0  2  0  0  3  0  0  0  0  0  0
  197.3090  173.2890  141.5190 C   0  0  0  0  0  2  0  0  0  0  0  0
  196.5750  173.1450  142.8280 C   0  0  1  0  0  3  0  0  0  0  0  0
  197.5150  173.4310  143.9810 C   0  0  0  0  0  2  0  0  0  0  0  0
  197.1010  172.6260  145.2010 C   0  0  0  0  0  2  0  0  0  0  0  0
  195.6980  173.0030  145.6430 C   0  0  0  0  0  2  0  0  0  0  0  0
  194.8110  171.7760  145.6490 C   0  0  0  0  0  2  0  0  0  0  0  0
  193.1320  170.9090  144.1020 C   0  0  0  0  0  2  0  0  0  0  0  0
  193.6830  171.9610  144.6960 C   0  0  0  0  0  3  0  0  0  0  0  0
  195.1330  174.3100  139.7330 C   0  0  0  0  0  2  0  0  0  0  0  0
  194.0210  174.6940  137.5570 C   0  0  1  0  0  3  0  0  0  0  0  0
  194.0580  175.1110  139.0140 C   0  0  1  0  0  3  0  0  0  0  0  0
  192.9820  174.1690  138.5250 C   0  0  0  0  0  2  0  0  0  0  0  0
  193.4190  175.8230  136.7480 C   0  0  0  0  0  2  0  0  0  0  0  0
  193.5770  175.5310  135.2720 C   0  0  0  0  0  1  0  0  0  0  0  0
  189.2380  175.5650  146.0330 C   0  0  0  0  0  2  0  0  0  0  0  0
  189.4530  177.8940  145.5150 O   0  0  0  0  0  1  0  0  0  0  0  0
  188.7770  176.7260  145.1570 C   0  0  2  0  0  3  0  0  0  0  0  0
  187.2620  176.9550  145.2290 C   0  0  1  0  0  3  0  0  0  0  0  0
  186.8350  178.0160  147.3430 O   0  0  0  0  0  1  0  0  0  0  0  0
  185.3750  176.4250  146.6270 F   0  0  0  0  0  0  0  0  0  0  0  0
  186.7050  176.8120  146.6470 C   0  0  1  0  0  3  0  0  0  0  0  0
  186.8400  178.2840  144.6040 C   0  0  0  0  0  2  0  0  0  0  0  0
  185.6600  178.1000  143.6630 C   0  0  0  0  0  2  0  0  0  0  0  0
  185.9210  176.9800  142.6710 C   0  0  0  0  0  2  0  0  0  0  0  0
  185.1570  178.3780  140.9020 O   0  0  0  0  0  0  0  0  0  0  0  0
  187.0640  177.1400  140.4300 N   0  0  0  0  0  1  0  0  0  0  0  0
  186.0080  177.5360  141.2950 C   0  0  0  0  0  0  0  0  0  0  0  0
  1 14  1  6  0  0  0
  1  9  1  0  0  0  0
  2 10  1  0  0  0  0
  2  3  2  0  0  0  0
  3  8  1  0  0  0  0
  4  6  2  0  0  0  0
  4  1  1  0  0  0  0
  5 10  1  0  0  0  0
  6 13  1  0  0  0  0
  7  5  1  0  0  0  0
  9 11  1  0  0  0  0
  9 12  1  0  0  0  0
 11  2  1  0  0  0  0
 12 34  1  0  0  0  0
 12  3  1  0  0  0  0
 13  7  1  0  0  0  0
 13 11  2  0  0  0  0
 14 15  2  0  0  0  0
 16 14  1  0  0  0  0
 17  6  1  0  0  0  0
 18 28  1  6  0  0  0
 18 17  1  0  0  0  0
 19 18  1  6  0  0  0
 19 21  1  0  0  0  0
 20 19  1  0  0  0  0
 20 21  1  0  0  0  0
 21 22  1  1  0  0  0
 22 23  1  0  0  0  0
 23 24  1  0  0  0  0
 24 25  1  0  0  0  0
 26 27  2  0  0  0  0
 27 25  1  0  0  0  0
 29 32  1  6  0  0  0
 29 31  1  0  0  0  0
 29 30  1  0  0  0  0
 30 28  1  1  0  0  0
 31 30  1  0  0  0  0
 33 32  1  0  0  0  0
 36 37  1  0  0  0  0
 36 35  1  1  0  0  0
 36 34  1  0  0  0  0
 37 41  1  1  0  0  0
 37 40  1  0  0  0  0
 40 39  1  6  0  0  0
 40 38  1  0  0  0  0
 42 41  1  0  0  0  0
 43 42  1  0  0  0  0
 44 46  2  0  0  0  0
 45 46  1  0  0  0  0
 46 43  1  0  0  0  0
M  END
>  <MODEL>
5

>  <REMARK>
 VINA RESULT:      -5.6      4.097      9.669
  Name = 
  20 active torsions:
  status: ('A' for Active; 'I' for Inactive)
    1  A    between atoms: C_1  and  C_22
    2  A    between atoms: C_1  and  N_42
    3  A    between atoms: C_2  and  C_25
    4  A    between atoms: C_4  and  C_31
    5  A    between atoms: C_6  and  C_8
    6  A    between atoms: C_6  and  C_26
    7  A    between atoms: C_8  and  C_19
    8  A    between atoms: C_8  and  C_22
    9  A    between atoms: C_9  and  C_40
   10  A    between atoms: C_9  and  C_45
   11  A    between atoms: C_10  and  C_20
   12  A    between atoms: N_12  and  C_24
   13  A    between atoms: N_12  and  C_31
   14  A    between atoms: C_23  and  C_28
   15  A    between atoms: C_23  and  C_46
   16  A    between atoms: C_26  and  C_35
   17  A    between atoms: C_29  and  C_38
   18  A    between atoms: C_31  and  C_38
   19  A    between atoms: C_35  and  C_41
   20  A    between atoms: C_40  and  C_46
                            x       y       z     vdW  Elec       q    Type
                         _______ _______ _______ _____ _____    ______ ____

>  <TORSDO>
F 20

$$$$
=
 OpenBabel11062419483D

 46 50  0  0  1  0  0  0  0  0999 V2000
  190.7690  173.4520  142.7290 C   0  0  2  0  0  3  0  0  0  0  0  0
  190.1710  172.0210  139.4140 C   0  0  0  0  0  0  0  0  0  0  0  0
  191.2130  171.2930  139.8030 C   0  0  0  0  0  0  0  0  0  0  0  0
  189.7200  174.5520  142.6990 C   0  0  0  0  0  3  0  0  0  0  0  0
  189.2050  173.7410  137.9020 C   0  0  0  0  0  2  0  0  0  0  0  0
  188.9340  174.7780  141.6220 C   0  0  0  0  0  0  0  0  0  0  0  0
  188.3440  174.1790  139.1200 C   0  0  0  0  0  2  0  0  0  0  0  0
  192.1400  170.5750  138.8850 C   0  0  0  0  0  1  0  0  0  0  0  0
  190.5360  172.4670  141.6690 N   0  0  0  0  0  0  0  0  0  0  0  0
  189.8300  172.4220  138.0880 N   0  0  0  0  0  2  0  0  0  0  0  0
  189.7450  172.7860  140.5450 C   0  0  0  0  0  0  0  0  0  0  0  0
  191.4720  171.5270  141.2010 N   0  0  0  0  0  0  0  0  0  0  0  0
  189.0300  173.8940  140.4390 C   0  0  0  0  0  0  0  0  0  0  0  0
  190.8300  172.7970  144.0780 C   0  0  0  0  0  0  0  0  0  0  0  0
  191.8570  173.0030  144.9040 C   0  0  0  0  0  2  0  0  0  0  0  0
  189.7620  171.8340  144.4700 C   0  0  0  0  0  1  0  0  0  0  0  0
  187.9830  175.8490  141.6170 N   0  0  0  0  0  2  0  0  0  0  0  0
  187.8710  176.8610  142.6690 C   0  0  2  0  0  3  0  0  0  0  0  0
  186.4490  177.4450  142.8440 C   0  0  2  0  0  3  0  0  0  0  0  0
  186.4150  178.9640  142.7680 C   0  0  0  0  0  2  0  0  0  0  0  0
  186.3010  178.2820  144.1070 C   0  0  1  0  0  3  0  0  0  0  0  0
  184.8520  178.2490  144.5480 C   0  0  0  0  0  2  0  0  0  0  0  0
  184.7620  177.8170  146.0010 C   0  0  0  0  0  2  0  0  0  0  0  0
  186.0910  178.0180  146.7060 C   0  0  0  0  0  2  0  0  0  0  0  0
  186.6690  176.6780  147.1120 C   0  0  0  0  0  2  0  0  0  0  0  0
  188.6720  175.4590  146.4290 C   0  0  0  0  0  2  0  0  0  0  0  0
  188.1130  176.6180  146.7520 C   0  0  0  0  0  3  0  0  0  0  0  0
  189.0060  177.8890  142.5960 C   0  0  0  0  0  2  0  0  0  0  0  0
  191.1920  177.2820  143.5830 C   0  0  1  0  0  3  0  0  0  0  0  0
  189.8420  177.9120  143.8660 C   0  0  1  0  0  3  0  0  0  0  0  0
  191.0530  178.7890  143.6450 C   0  0  0  0  0  2  0  0  0  0  0  0
  191.7740  176.7830  144.8880 C   0  0  0  0  0  2  0  0  0  0  0  0
  193.2780  176.9430  144.8680 C   0  0  0  0  0  1  0  0  0  0  0  0
  192.7260  171.2300  141.8790 C   0  0  0  0  0  2  0  0  0  0  0  0
  194.7210  171.4780  140.5770 O   0  0  0  0  0  1  0  0  0  0  0  0
  193.8260  172.1700  141.3960 C   0  0  2  0  0  3  0  0  0  0  0  0
  194.5810  172.8380  142.5520 C   0  0  1  0  0  3  0  0  0  0  0  0
  196.7930  173.6500  143.0280 O   0  0  0  0  0  1  0  0  0  0  0  0
  196.3980  171.4200  143.2450 F   0  0  0  0  0  0  0  0  0  0  0  0
  196.0850  172.5580  142.5210 C   0  0  1  0  0  3  0  0  0  0  0  0
  194.3040  174.3380  142.6430 C   0  0  0  0  0  2  0  0  0  0  0  0
  193.8110  174.8890  141.3140 C   0  0  0  0  0  2  0  0  0  0  0  0
  194.7360  175.9760  140.7950 C   0  0  0  0  0  2  0  0  0  0  0  0
  195.5510  174.5010  139.1130 O   0  0  0  0  0  0  0  0  0  0  0  0
  197.1730  175.7780  140.1760 N   0  0  0  0  0  1  0  0  0  0  0  0
  195.8250  175.3670  139.9860 C   0  0  0  0  0  0  0  0  0  0  0  0
  1 14  1  1  0  0  0
  2  3  2  0  0  0  0
  2 11  1  0  0  0  0
  3 12  1  0  0  0  0
  4  1  1  0  0  0  0
  5 10  1  0  0  0  0
  5  7  1  0  0  0  0
  6  4  2  0  0  0  0
  7 13  1  0  0  0  0
  8  3  1  0  0  0  0
  9  1  1  0  0  0  0
 10  2  1  0  0  0  0
 11  9  1  0  0  0  0
 12  9  1  0  0  0  0
 12 34  1  0  0  0  0
 13 11  2  0  0  0  0
 13  6  1  0  0  0  0
 14 16  1  0  0  0  0
 14 15  2  0  0  0  0
 17  6  1  0  0  0  0
 17 18  1  0  0  0  0
 18 28  1  6  0  0  0
 19 18  1  1  0  0  0
 19 21  1  0  0  0  0
 20 19  1  0  0  0  0
 20 21  1  0  0  0  0
 21 22  1  6  0  0  0
 22 23  1  0  0  0  0
 23 24  1  0  0  0  0
 24 25  1  0  0  0  0
 26 27  2  0  0  0  0
 27 25  1  0  0  0  0
 29 31  1  0  0  0  0
 29 30  1  0  0  0  0
 29 32  1  1  0  0  0
 30 28  1  6  0  0  0
 31 30  1  0  0  0  0
 33 32  1  0  0  0  0
 36 35  1  1  0  0  0
 36 34  1  0  0  0  0
 36 37  1  0  0  0  0
 37 41  1  6  0  0  0
 40 37  1  0  0  0  0
 40 38  1  1  0  0  0
 40 39  1  0  0  0  0
 42 41  1  0  0  0  0
 43 42  1  0  0  0  0
 44 46  2  0  0  0  0
 46 45  1  0  0  0  0
 46 43  1  0  0  0  0
M  END
>  <MODEL>
6

>  <REMARK>
 VINA RESULT:      -5.6      2.243      3.156
  Name = 
  20 active torsions:
  status: ('A' for Active; 'I' for Inactive)
    1  A    between atoms: C_1  and  C_22
    2  A    between atoms: C_1  and  N_42
    3  A    between atoms: C_2  and  C_25
    4  A    between atoms: C_4  and  C_31
    5  A    between atoms: C_6  and  C_8
    6  A    between atoms: C_6  and  C_26
    7  A    between atoms: C_8  and  C_19
    8  A    between atoms: C_8  and  C_22
    9  A    between atoms: C_9  and  C_40
   10  A    between atoms: C_9  and  C_45
   11  A    between atoms: C_10  and  C_20
   12  A    between atoms: N_12  and  C_24
   13  A    between atoms: N_12  and  C_31
   14  A    between atoms: C_23  and  C_28
   15  A    between atoms: C_23  and  C_46
   16  A    between atoms: C_26  and  C_35
   17  A    between atoms: C_29  and  C_38
   18  A    between atoms: C_31  and  C_38
   19  A    between atoms: C_35  and  C_41
   20  A    between atoms: C_40  and  C_46
                            x       y       z     vdW  Elec       q    Type
                         _______ _______ _______ _____ _____    ______ ____

>  <TORSDO>
F 20

$$$$
=
 OpenBabel11062419483D

 46 50  0  0  1  0  0  0  0  0999 V2000
  193.5430  175.5450  143.6110 C   0  0  2  0  0  3  0  0  0  0  0  0
  192.0780  172.3210  144.5380 C   0  0  0  0  0  0  0  0  0  0  0  0
  193.3690  172.0530  144.7080 C   0  0  0  0  0  0  0  0  0  0  0  0
  192.2710  176.2650  143.1920 C   0  0  0  0  0  3  0  0  0  0  0  0
  189.9610  171.9530  143.2890 C   0  0  0  0  0  2  0  0  0  0  0  0
  191.0590  175.6650  143.2000 C   0  0  0  0  0  0  0  0  0  0  0  0
  189.6610  173.4540  143.5590 C   0  0  0  0  0  2  0  0  0  0  0  0
  193.9640  170.6880  144.6950 C   0  0  0  0  0  1  0  0  0  0  0  0
  193.2390  174.3310  144.3770 N   0  0  0  0  0  0  0  0  0  0  0  0
  191.0440  171.4250  144.1320 N   0  0  0  0  0  2  0  0  0  0  0  0
  191.9660  173.7270  144.2990 C   0  0  0  0  0  0  0  0  0  0  0  0
  194.1300  173.2740  144.6280 N   0  0  0  0  0  0  0  0  0  0  0  0
  190.9260  174.2760  143.6940 C   0  0  0  0  0  0  0  0  0  0  0  0
  194.4560  176.4570  144.3770 C   0  0  0  0  0  0  0  0  0  0  0  0
  194.0630  177.0370  145.5130 C   0  0  0  0  0  2  0  0  0  0  0  0
  195.7970  176.7850  143.8170 C   0  0  0  0  0  1  0  0  0  0  0  0
  189.8890  176.3640  142.7620 N   0  0  0  0  0  2  0  0  0  0  0  0
  188.7410  176.6730  143.6170 C   0  0  2  0  0  3  0  0  0  0  0  0
  187.4790  177.1340  142.8480 C   0  0  2  0  0  3  0  0  0  0  0  0
  187.8050  177.8750  141.5590 C   0  0  0  0  0  2  0  0  0  0  0  0
  187.3520  178.6490  142.7710 C   0  0  1  0  0  3  0  0  0  0  0  0
  185.8870  179.0090  142.6340 C   0  0  0  0  0  2  0  0  0  0  0  0
  185.4070  179.7190  143.8890 C   0  0  0  0  0  2  0  0  0  0  0  0
  184.1840  179.0260  144.4630 C   0  0  0  0  0  2  0  0  0  0  0  0
  184.5720  178.2220  145.6860 C   0  0  0  0  0  2  0  0  0  0  0  0
  185.9990  178.9620  147.5250 C   0  0  0  0  0  2  0  0  0  0  0  0
  185.8690  178.7160  146.2270 C   0  0  0  0  0  3  0  0  0  0  0  0
  189.1390  177.5370  144.8180 C   0  0  0  0  0  2  0  0  0  0  0  0
  190.4830  176.6710  146.7060 C   0  0  1  0  0  3  0  0  0  0  0  0
  189.0850  176.7620  146.1260 C   0  0  1  0  0  3  0  0  0  0  0  0
  189.4930  177.6750  147.2590 C   0  0  0  0  0  2  0  0  0  0  0  0
  190.5440  175.4730  147.6300 C   0  0  0  0  0  2  0  0  0  0  0  0
  191.9460  174.9070  147.6360 C   0  0  0  0  0  1  0  0  0  0  0  0
  195.5630  173.3490  144.3780 C   0  0  0  0  0  2  0  0  0  0  0  0
  197.2270  171.9210  143.4130 O   0  0  0  0  0  1  0  0  0  0  0  0
  195.9460  172.4410  143.2130 C   0  0  2  0  0  3  0  0  0  0  0  0
  195.8770  173.1570  141.8580 C   0  0  1  0  0  3  0  0  0  0  0  0
  197.1870  173.9220  139.9940 O   0  0  0  0  0  1  0  0  0  0  0  0
  197.7080  174.7070  142.0650 F   0  0  0  0  0  0  0  0  0  0  0  0
  197.2480  173.6110  141.3540 C   0  0  1  0  0  3  0  0  0  0  0  0
  195.1470  172.3340  140.7980 C   0  0  0  0  0  2  0  0  0  0  0  0
  193.7130  172.0460  141.2160 C   0  0  0  0  0  2  0  0  0  0  0  0
  192.7630  172.1800  140.0390 C   0  0  0  0  0  2  0  0  0  0  0  0
  192.6750  174.5500  140.2420 O   0  0  0  0  0  0  0  0  0  0  0  0
  190.6140  173.4990  140.0480 N   0  0  0  0  0  1  0  0  0  0  0  0
  192.0330  173.4730  140.1250 C   0  0  0  0  0  0  0  0  0  0  0  0
  1  9  1  0  0  0  0
  1 14  1  1  0  0  0
  2  3  2  0  0  0  0
  4  6  2  0  0  0  0
  4  1  1  0  0  0  0
  5  7  1  0  0  0  0
  5 10  1  0  0  0  0
  6 13  1  0  0  0  0
  7 13  1  0  0  0  0
  8  3  1  0  0  0  0
  9 12  1  0  0  0  0
 10  2  1  0  0  0  0
 11  9  1  0  0  0  0
 11  2  1  0  0  0  0
 12  3  1  0  0  0  0
 13 11  2  0  0  0  0
 14 15  2  0  0  0  0
 16 14  1  0  0  0  0
 17  6  1  0  0  0  0
 17 18  1  0  0  0  0
 18 28  1  1  0  0  0
 19 18  1  1  0  0  0
 20 21  1  0  0  0  0
 20 19  1  0  0  0  0
 21 22  1  6  0  0  0
 21 19  1  0  0  0  0
 22 23  1  0  0  0  0
 23 24  1  0  0  0  0
 24 25  1  0  0  0  0
 25 27  1  0  0  0  0
 27 26  2  0  0  0  0
 29 31  1  0  0  0  0
 29 32  1  1  0  0  0
 30 28  1  6  0  0  0
 30 29  1  0  0  0  0
 30 31  1  0  0  0  0
 32 33  1  0  0  0  0
 34 12  1  0  0  0  0
 36 35  1  1  0  0  0
 36 34  1  0  0  0  0
 37 41  1  6  0  0  0
 37 36  1  0  0  0  0
 40 38  1  6  0  0  0
 40 37  1  0  0  0  0
 40 39  1  0  0  0  0
 41 42  1  0  0  0  0
 43 46  1  0  0  0  0
 43 42  1  0  0  0  0
 45 46  1  0  0  0  0
 46 44  2  0  0  0  0
M  END
>  <MODEL>
7

>  <REMARK>
 VINA RESULT:      -5.5      2.365      3.981
  Name = 
  20 active torsions:
  status: ('A' for Active; 'I' for Inactive)
    1  A    between atoms: C_1  and  C_22
    2  A    between atoms: C_1  and  N_42
    3  A    between atoms: C_2  and  C_25
    4  A    between atoms: C_4  and  C_31
    5  A    between atoms: C_6  and  C_8
    6  A    between atoms: C_6  and  C_26
    7  A    between atoms: C_8  and  C_19
    8  A    between atoms: C_8  and  C_22
    9  A    between atoms: C_9  and  C_40
   10  A    between atoms: C_9  and  C_45
   11  A    between atoms: C_10  and  C_20
   12  A    between atoms: N_12  and  C_24
   13  A    between atoms: N_12  and  C_31
   14  A    between atoms: C_23  and  C_28
   15  A    between atoms: C_23  and  C_46
   16  A    between atoms: C_26  and  C_35
   17  A    between atoms: C_29  and  C_38
   18  A    between atoms: C_31  and  C_38
   19  A    between atoms: C_35  and  C_41
   20  A    between atoms: C_40  and  C_46
                            x       y       z     vdW  Elec       q    Type
                         _______ _______ _______ _____ _____    ______ ____

>  <TORSDO>
F 20

$$$$
=
 OpenBabel11062419483D

 46 50  0  0  1  0  0  0  0  0999 V2000
  191.0420  174.6250  142.6430 C   0  0  2  0  0  3  0  0  0  0  0  0
  191.5070  175.8880  146.0470 C   0  0  0  0  0  0  0  0  0  0  0  0
  190.3500  176.4660  145.7350 C   0  0  0  0  0  0  0  0  0  0  0  0
  192.3520  173.8690  142.4960 C   0  0  0  0  0  3  0  0  0  0  0  0
  193.9300  176.0860  146.5630 C   0  0  0  0  0  2  0  0  0  0  0  0
  193.2930  173.8480  143.4680 C   0  0  0  0  0  0  0  0  0  0  0  0
  194.0920  174.7270  145.8250 C   0  0  0  0  0  2  0  0  0  0  0  0
  189.8050  177.6880  146.3890 C   0  0  0  0  0  1  0  0  0  0  0  0
  190.7720  174.9520  144.0470 N   0  0  0  0  0  0  0  0  0  0  0  0
  192.5310  176.3880  146.9050 N   0  0  0  0  0  2  0  0  0  0  0  0
  191.8120  174.9620  145.0010 C   0  0  0  0  0  0  0  0  0  0  0  0
  189.8490  175.9090  144.5040 N   0  0  0  0  0  0  0  0  0  0  0  0
  193.0360  174.5230  144.7590 C   0  0  0  0  0  0  0  0  0  0  0  0
  189.9030  173.8610  142.0330 C   0  0  0  0  0  0  0  0  0  0  0  0
  189.4400  174.1590  140.8180 C   0  0  0  0  0  2  0  0  0  0  0  0
  189.2240  172.8020  142.8330 C   0  0  0  0  0  1  0  0  0  0  0  0
  194.5330  173.1560  143.2770 N   0  0  0  0  0  2  0  0  0  0  0  0
  194.6540  171.7050  143.1220 C   0  0  2  0  0  3  0  0  0  0  0  0
  193.3330  170.9280  143.3360 C   0  0  2  0  0  3  0  0  0  0  0  0
  193.5100  169.4190  143.2570 C   0  0  0  0  0  2  0  0  0  0  0  0
  192.8890  170.1590  142.1000 C   0  0  1  0  0  3  0  0  0  0  0  0
  191.3830  170.0030  142.1370 C   0  0  0  0  0  2  0  0  0  0  0  0
  190.7980  170.2880  140.7640 C   0  0  0  0  0  2  0  0  0  0  0  0
  191.9010  170.4660  139.7370 C   0  0  0  0  0  2  0  0  0  0  0  0
  191.6630  171.7310  138.9380 C   0  0  0  0  0  2  0  0  0  0  0  0
  193.3480  170.7620  137.4590 C   0  0  0  0  0  2  0  0  0  0  0  0
  192.6660  171.8350  137.8420 C   0  0  0  0  0  3  0  0  0  0  0  0
  195.8770  171.1520  143.8620 C   0  0  0  0  0  2  0  0  0  0  0  0
  196.3670  169.6640  145.7760 C   0  0  1  0  0  3  0  0  0  0  0  0
  195.5870  170.8850  145.3310 C   0  0  1  0  0  3  0  0  0  0  0  0
  196.8610  171.0520  146.1260 C   0  0  0  0  0  2  0  0  0  0  0  0
  195.6770  169.0650  146.9830 C   0  0  0  0  0  2  0  0  0  0  0  0
  196.6710  168.2560  147.7880 C   0  0  0  0  0  1  0  0  0  0  0  0
  188.8440  176.5330  143.6540 C   0  0  0  0  0  2  0  0  0  0  0  0
  186.9080  175.4110  142.8000 O   0  0  0  0  0  1  0  0  0  0  0  0
  187.4630  175.9600  143.9580 C   0  0  2  0  0  3  0  0  0  0  0  0
  186.5090  177.0030  144.5530 C   0  0  1  0  0  3  0  0  0  0  0  0
  186.4290  177.9790  146.7480 O   0  0  0  0  0  1  0  0  0  0  0  0
  184.9670  176.3050  146.2650 F   0  0  0  0  0  0  0  0  0  0  0  0
  186.2460  176.7870  146.0450 C   0  0  1  0  0  3  0  0  0  0  0  0
  186.9620  178.4360  144.2770 C   0  0  0  0  0  2  0  0  0  0  0  0
  185.9140  179.2010  143.4850 C   0  0  0  0  0  2  0  0  0  0  0  0
  184.8470  178.2670  142.9430 C   0  0  0  0  0  2  0  0  0  0  0  0
  185.9590  177.9620  140.8610 O   0  0  0  0  0  0  0  0  0  0  0  0
  183.7220  178.5630  140.7060 N   0  0  0  0  0  1  0  0  0  0  0  0
  184.8910  178.2600  141.4570 C   0  0  0  0  0  0  0  0  0  0  0  0
  1 14  1  1  0  0  0
  1  9  1  0  0  0  0
  2 10  1  0  0  0  0
  3  2  2  0  0  0  0
  3  8  1  0  0  0  0
  4  1  1  0  0  0  0
  4  6  2  0  0  0  0
  5 10  1  0  0  0  0
  6 13  1  0  0  0  0
  7  5  1  0  0  0  0
  9 12  1  0  0  0  0
  9 11  1  0  0  0  0
 11  2  1  0  0  0  0
 12  3  1  0  0  0  0
 13 11  2  0  0  0  0
 13  7  1  0  0  0  0
 14 16  1  0  0  0  0
 15 14  2  0  0  0  0
 17  6  1  0  0  0  0
 18 17  1  0  0  0  0
 18 28  1  1  0  0  0
 19 18  1  6  0  0  0
 20 19  1  0  0  0  0
 21 22  1  1  0  0  0
 21 20  1  0  0  0  0
 21 19  1  0  0  0  0
 23 22  1  0  0  0  0
 24 23  1  0  0  0  0
 25 24  1  0  0  0  0
 26 27  2  0  0  0  0
 27 25  1  0  0  0  0
 29 31  1  0  0  0  0
 29 32  1  1  0  0  0
 30 28  1  6  0  0  0
 30 29  1  0  0  0  0
 30 31  1  0  0  0  0
 32 33  1  0  0  0  0
 34 36  1  0  0  0  0
 34 12  1  0  0  0  0
 36 35  1  6  0  0  0
 36 37  1  0  0  0  0
 37 41  1  1  0  0  0
 37 40  1  0  0  0  0
 40 39  1  6  0  0  0
 40 38  1  0  0  0  0
 42 41  1  0  0  0  0
 43 42  1  0  0  0  0
 44 46  2  0  0  0  0
 45 46  1  0  0  0  0
 46 43  1  0  0  0  0
M  END
>  <MODEL>
8

>  <REMARK>
 VINA RESULT:      -5.5      3.592      9.675
  Name = 
  20 active torsions:
  status: ('A' for Active; 'I' for Inactive)
    1  A    between atoms: C_1  and  C_22
    2  A    between atoms: C_1  and  N_42
    3  A    between atoms: C_2  and  C_25
    4  A    between atoms: C_4  and  C_31
    5  A    between atoms: C_6  and  C_8
    6  A    between atoms: C_6  and  C_26
    7  A    between atoms: C_8  and  C_19
    8  A    between atoms: C_8  and  C_22
    9  A    between atoms: C_9  and  C_40
   10  A    between atoms: C_9  and  C_45
   11  A    between atoms: C_10  and  C_20
   12  A    between atoms: N_12  and  C_24
   13  A    between atoms: N_12  and  C_31
   14  A    between atoms: C_23  and  C_28
   15  A    between atoms: C_23  and  C_46
   16  A    between atoms: C_26  and  C_35
   17  A    between atoms: C_29  and  C_38
   18  A    between atoms: C_31  and  C_38
   19  A    between atoms: C_35  and  C_41
   20  A    between atoms: C_40  and  C_46
                            x       y       z     vdW  Elec       q    Type
                         _______ _______ _______ _____ _____    ______ ____

>  <TORSDO>
F 20

$$$$
=
 OpenBabel11062419483D

 46 50  0  0  1  0  0  0  0  0999 V2000
  190.5220  174.2140  143.2250 C   0  0  2  0  0  3  0  0  0  0  0  0
  191.7510  175.7500  146.3120 C   0  0  0  0  0  0  0  0  0  0  0  0
  190.4720  176.1120  146.3590 C   0  0  0  0  0  0  0  0  0  0  0  0
  191.8410  173.6720  142.6960 C   0  0  0  0  0  3  0  0  0  0  0  0
  194.1450  176.3710  146.0650 C   0  0  0  0  0  2  0  0  0  0  0  0
  193.0160  173.8670  143.3360 C   0  0  0  0  0  0  0  0  0  0  0  0
  194.3140  175.0130  145.3290 C   0  0  0  0  0  2  0  0  0  0  0  0
  189.9420  177.2680  147.1340 C   0  0  0  0  0  1  0  0  0  0  0  0
  190.6290  174.5820  144.6410 N   0  0  0  0  0  0  0  0  0  0  0  0
  192.8810  176.4640  146.8120 N   0  0  0  0  0  2  0  0  0  0  0  0
  191.8870  174.8210  145.2340 C   0  0  0  0  0  0  0  0  0  0  0  0
  189.7320  175.4030  145.3460 N   0  0  0  0  0  0  0  0  0  0  0  0
  193.0410  174.5720  144.6370 C   0  0  0  0  0  0  0  0  0  0  0  0
  189.4050  173.2370  143.0000 C   0  0  0  0  0  0  0  0  0  0  0  0
  189.3100  172.1150  143.7150 C   0  0  0  0  0  2  0  0  0  0  0  0
  188.4290  173.4870  141.9020 C   0  0  0  0  0  1  0  0  0  0  0  0
  194.2440  173.3740  142.7860 N   0  0  0  0  0  2  0  0  0  0  0  0
  194.7120  171.9930  142.9140 C   0  0  2  0  0  3  0  0  0  0  0  0
  193.5920  170.9650  143.2070 C   0  0  2  0  0  3  0  0  0  0  0  0
  194.0190  169.5280  142.9430 C   0  0  0  0  0  2  0  0  0  0  0  0
  193.1180  170.2320  141.9610 C   0  0  1  0  0  3  0  0  0  0  0  0
  191.6840  169.7910  142.1690 C   0  0  0  0  0  2  0  0  0  0  0  0
  190.8350  170.2080  140.9800 C   0  0  0  0  0  2  0  0  0  0  0  0
  191.6510  170.1780  139.7000 C   0  0  0  0  0  2  0  0  0  0  0  0
  190.9990  171.0530  138.6510 C   0  0  0  0  0  2  0  0  0  0  0  0
  190.5540  173.4500  138.4970 C   0  0  0  0  0  2  0  0  0  0  0  0
  190.6080  172.3590  139.2510 C   0  0  0  0  0  3  0  0  0  0  0  0
  195.9550  171.8900  143.8040 C   0  0  0  0  0  2  0  0  0  0  0  0
  196.4980  170.3870  145.6920 C   0  0  1  0  0  3  0  0  0  0  0  0
  195.6060  171.5260  145.2390 C   0  0  1  0  0  3  0  0  0  0  0  0
  196.7980  171.8070  146.1250 C   0  0  0  0  0  2  0  0  0  0  0  0
  195.8100  169.6580  146.8270 C   0  0  0  0  0  2  0  0  0  0  0  0
  196.8360  168.9060  147.6440 C   0  0  0  0  0  1  0  0  0  0  0  0
  188.4280  175.8000  144.8340 C   0  0  0  0  0  2  0  0  0  0  0  0
  189.4180  177.8010  143.9650 O   0  0  0  0  0  1  0  0  0  0  0  0
  188.5900  176.7260  143.6330 C   0  0  2  0  0  3  0  0  0  0  0  0
  187.2470  177.2450  143.1010 C   0  0  1  0  0  3  0  0  0  0  0  0
  186.3460  177.8910  140.9690 O   0  0  0  0  0  1  0  0  0  0  0  0
  188.1730  176.5370  140.9950 F   0  0  0  0  0  0  0  0  0  0  0  0
  186.9920  176.8540  141.6440 C   0  0  1  0  0  3  0  0  0  0  0  0
  186.0710  176.8440  143.9910 C   0  0  0  0  0  2  0  0  0  0  0  0
  185.2490  178.0570  144.3960 C   0  0  0  0  0  2  0  0  0  0  0  0
  185.9240  178.8260  145.5180 C   0  0  0  0  0  2  0  0  0  0  0  0
  184.1060  178.0990  146.8720 O   0  0  0  0  0  0  0  0  0  0  0  0
  186.0940  178.4780  148.0100 N   0  0  0  0  0  1  0  0  0  0  0  0
  185.3130  178.4560  146.8220 C   0  0  0  0  0  0  0  0  0  0  0  0
  1 14  1  1  0  0  0
  1  9  1  0  0  0  0
  2  3  2  0  0  0  0
  2 10  1  0  0  0  0
  3  8  1  0  0  0  0
  4  1  1  0  0  0  0
  4  6  2  0  0  0  0
  5 10  1  0  0  0  0
  6 13  1  0  0  0  0
  7  5  1  0  0  0  0
  9 11  1  0  0  0  0
  9 12  1  0  0  0  0
 11  2  1  0  0  0  0
 12  3  1  0  0  0  0
 13 11  2  0  0  0  0
 13  7  1  0  0  0  0
 14 15  2  0  0  0  0
 16 14  1  0  0  0  0
 17 18  1  0  0  0  0
 17  6  1  0  0  0  0
 18 28  1  1  0  0  0
 19 18  1  6  0  0  0
 20 19  1  0  0  0  0
 21 22  1  1  0  0  0
 21 20  1  0  0  0  0
 21 19  1  0  0  0  0
 23 22  1  0  0  0  0
 24 23  1  0  0  0  0
 25 27  1  0  0  0  0
 25 24  1  0  0  0  0
 26 27  2  0  0  0  0
 29 31  1  0  0  0  0
 29 32  1  1  0  0  0
 30 28  1  6  0  0  0
 30 29  1  0  0  0  0
 30 31  1  0  0  0  0
 32 33  1  0  0  0  0
 34 12  1  0  0  0  0
 36 35  1  1  0  0  0
 36 34  1  0  0  0  0
 37 36  1  0  0  0  0
 37 41  1  1  0  0  0
 39 40  1  0  0  0  0
 40 38  1  6  0  0  0
 40 37  1  0  0  0  0
 41 42  1  0  0  0  0
 42 43  1  0  0  0  0
 43 46  1  0  0  0  0
 46 44  2  0  0  0  0
 46 45  1  0  0  0  0
M  END
>  <MODEL>
9

>  <REMARK>
 VINA RESULT:      -5.5      3.695      9.379
  Name = 
  20 active torsions:
  status: ('A' for Active; 'I' for Inactive)
    1  A    between atoms: C_1  and  C_22
    2  A    between atoms: C_1  and  N_42
    3  A    between atoms: C_2  and  C_25
    4  A    between atoms: C_4  and  C_31
    5  A    between atoms: C_6  and  C_8
    6  A    between atoms: C_6  and  C_26
    7  A    between atoms: C_8  and  C_19
    8  A    between atoms: C_8  and  C_22
    9  A    between atoms: C_9  and  C_40
   10  A    between atoms: C_9  and  C_45
   11  A    between atoms: C_10  and  C_20
   12  A    between atoms: N_12  and  C_24
   13  A    between atoms: N_12  and  C_31
   14  A    between atoms: C_23  and  C_28
   15  A    between atoms: C_23  and  C_46
   16  A    between atoms: C_26  and  C_35
   17  A    between atoms: C_29  and  C_38
   18  A    between atoms: C_31  and  C_38
   19  A    between atoms: C_35  and  C_41
   20  A    between atoms: C_40  and  C_46
                            x       y       z     vdW  Elec       q    Type
                         _______ _______ _______ _____ _____    ______ ____

>  <TORSDO>
F 20

$$$$
