=
 OpenBabel11072408343D

 26 28  0  0  1  0  0  0  0  0999 V2000
  189.6800  176.9610  144.0600 C   0  0  1  0  0  3  0  0  0  0  0  0
  190.2870  176.1320  146.2130 C   0  0  2  0  0  0  0  0  0  0  0  0
  188.8010  177.5300  145.1910 C   0  0  2  0  0  3  0  0  0  0  0  0
  190.8210  176.3320  144.8130 C   0  0  0  0  0  2  0  0  0  0  0  0
  189.2620  177.0610  146.4430 O   0  0  0  0  0  0  0  0  0  0  0  0
  187.0070  178.2360  147.2850 O   0  0  0  0  0  1  0  0  0  0  0  0
  184.2380  177.6750  146.8870 O   0  0  0  0  0  0  0  0  0  0  0  0
  186.5990  178.3670  144.2000 C   0  0  0  0  0  2  0  0  0  0  0  0
  185.1170  177.6150  146.0430 C   0  0  0  0  0  0  0  0  0  0  0  0
  184.8170  178.0680  144.3390 S   0  0  0  0  0  0  0  0  0  0  0  0
  187.2780  177.3120  145.0660 C   0  0  2  0  0  3  0  0  0  0  0  0
  186.5180  177.2700  146.3990 C   0  0  1  0  0  3  0  0  0  0  0  0
  188.9620  175.9660  143.1240 C   0  0  1  0  0  3  0  0  0  0  0  0
  188.6000  174.5260  140.5760 C   0  0  2  0  0  3  0  0  0  0  0  0
  187.7620  175.7570  140.9300 C   0  0  1  0  0  3  0  0  0  0  0  0
  187.8540  173.6550  139.7840 O   0  0  0  0  0  1  0  0  0  0  0  0
  189.0350  173.8050  141.8460 C   0  0  0  0  0  2  0  0  0  0  0  0
  188.5630  176.6880  141.8400 C   0  0  0  0  0  2  0  0  0  0  0  0
  189.8190  174.7490  142.7490 C   0  0  0  0  0  2  0  0  0  0  0  0
  187.4060  176.4470  139.7670 O   0  0  0  0  0  0  0  0  0  0  0  0
  186.6570  177.5400  140.2110 C   0  0  0  0  0  1  0  0  0  0  0  0
  193.2500  176.1170  147.0610 O   0  0  0  0  0  1  0  0  0  0  0  0
  191.3200  177.0410  148.7630 O   0  0  0  0  0  0  0  0  0  0  0  0
  191.6220  176.4170  147.4190 P   0  0  1  0  0  4  0  0  0  0  0  0
  189.7150  174.7290  146.3870 C   0  0  0  0  0  2  0  0  0  0  0  0
  188.9410  174.6420  147.5490 O   0  0  0  0  0  1  0  0  0  0  0  0
  1  4  1  1  0  0  0
  1  3  1  0  0  0  0
  2 25  1  1  0  0  0
  2  5  1  0  0  0  0
  2 24  1  0  0  0  0
  3  5  1  1  0  0  0
  4  2  1  0  0  0  0
  8 10  1  0  0  0  0
  9 12  1  0  0  0  0
  9  7  2  0  0  0  0
 10  9  1  0  0  0  0
 11  8  1  6  0  0  0
 11  3  1  0  0  0  0
 11 12  1  0  0  0  0
 12  6  1  1  0  0  0
 13 18  1  6  0  0  0
 13  1  1  0  0  0  0
 14 16  1  6  0  0  0
 14 15  1  0  0  0  0
 14 17  1  0  0  0  0
 15 20  1  6  0  0  0
 15 18  1  0  0  0  0
 17 19  1  0  0  0  0
 19 13  1  0  0  0  0
 20 21  1  0  0  0  0
 24 22  1  6  0  0  0
 24 23  2  0  0  0  0
 25 26  1  0  0  0  0
M  END
>  <MODEL>
1

>  <REMARK>
 VINA RESULT:      -6.4      0.000      0.000
  Name = 
  5 active torsions:
  status: ('A' for Active; 'I' for Inactive)
    1  A    between atoms: C_2  and  C_5
    2  A    between atoms: C_6  and  C_7
    3  A    between atoms: C_7  and  P_26
    4  A    between atoms: O_9  and  C_11
    5  A    between atoms: C_15  and  C_20
                            x       y       z     vdW  Elec       q    Type
                         _______ _______ _______ _____ _____    ______ ____

>  <TORSDO>
F 5

$$$$
=
 OpenBabel11072408343D

 26 28  0  0  1  0  0  0  0  0999 V2000
  188.8670  177.5320  143.9990 C   0  0  1  0  0  3  0  0  0  0  0  0
  186.4860  177.5000  143.8600 C   0  0  2  0  0  0  0  0  0  0  0  0
  188.3500  176.8500  142.7160 C   0  0  2  0  0  3  0  0  0  0  0  0
  187.6360  178.2190  144.5260 C   0  0  0  0  0  2  0  0  0  0  0  0
  186.9400  176.9340  142.6610 O   0  0  0  0  0  0  0  0  0  0  0  0
  187.8640  175.5260  140.2440 O   0  0  0  0  0  1  0  0  0  0  0  0
  188.7230  172.8150  140.0150 O   0  0  0  0  0  0  0  0  0  0  0  0
  190.3020  175.2930  142.1690 C   0  0  0  0  0  2  0  0  0  0  0  0
  189.0040  173.5890  140.9150 C   0  0  0  0  0  0  0  0  0  0  0  0
  190.6080  173.5680  141.7080 S   0  0  0  0  0  0  0  0  0  0  0  0
  188.8100  175.3980  142.4670 C   0  0  2  0  0  3  0  0  0  0  0  0
  188.0750  174.6720  141.3320 C   0  0  1  0  0  3  0  0  0  0  0  0
  189.5040  176.5740  145.0270 C   0  0  1  0  0  3  0  0  0  0  0  0
  190.9010  175.9540  147.5490 C   0  0  2  0  0  3  0  0  0  0  0  0
  191.6430  176.0060  146.2100 C   0  0  1  0  0  3  0  0  0  0  0  0
  191.5040  175.0200  148.3900 O   0  0  0  0  0  1  0  0  0  0  0  0
  189.4440  175.5640  147.3260 C   0  0  0  0  0  2  0  0  0  0  0  0
  190.9500  176.9930  145.2710 C   0  0  0  0  0  2  0  0  0  0  0  0
  188.7730  176.5480  146.3760 C   0  0  0  0  0  2  0  0  0  0  0  0
  192.9660  176.4130  146.4100 O   0  0  0  0  0  0  0  0  0  0  0  0
  193.4080  176.8300  145.1520 C   0  0  0  0  0  1  0  0  0  0  0  0
  183.7290  178.2390  142.7000 O   0  0  0  0  0  1  0  0  0  0  0  0
  185.2530  180.1190  143.9700 O   0  0  0  0  0  0  0  0  0  0  0  0
  185.1590  178.6900  143.4860 P   0  0  1  0  0  4  0  0  0  0  0  0
  185.9500  176.3810  144.7490 C   0  0  0  0  0  2  0  0  0  0  0  0
  185.2420  176.9000  145.8380 O   0  0  0  0  0  1  0  0  0  0  0  0
  1  4  1  1  0  0  0
  1 13  1  0  0  0  0
  2  4  1  0  0  0  0
  2 25  1  1  0  0  0
  3  5  1  1  0  0  0
  3  1  1  0  0  0  0
  5  2  1  0  0  0  0
  7  9  2  0  0  0  0
  9 12  1  0  0  0  0
  9 10  1  0  0  0  0
 10  8  1  0  0  0  0
 11  8  1  6  0  0  0
 11  3  1  0  0  0  0
 12  6  1  6  0  0  0
 12 11  1  0  0  0  0
 13 18  1  1  0  0  0
 13 19  1  0  0  0  0
 14 16  1  1  0  0  0
 15 20  1  1  0  0  0
 15 14  1  0  0  0  0
 17 14  1  0  0  0  0
 18 15  1  0  0  0  0
 19 17  1  0  0  0  0
 21 20  1  0  0  0  0
 24 22  1  1  0  0  0
 24  2  1  0  0  0  0
 24 23  2  0  0  0  0
 25 26  1  0  0  0  0
M  END
>  <MODEL>
2

>  <REMARK>
 VINA RESULT:      -6.0      2.794      6.500
  Name = 
  5 active torsions:
  status: ('A' for Active; 'I' for Inactive)
    1  A    between atoms: C_2  and  C_5
    2  A    between atoms: C_6  and  C_7
    3  A    between atoms: C_7  and  P_26
    4  A    between atoms: O_9  and  C_11
    5  A    between atoms: C_15  and  C_20
                            x       y       z     vdW  Elec       q    Type
                         _______ _______ _______ _____ _____    ______ ____

>  <TORSDO>
F 5

$$$$
=
 OpenBabel11072408343D

 26 28  0  0  1  0  0  0  0  0999 V2000
  188.9220  177.4000  143.1350 C   0  0  1  0  0  3  0  0  0  0  0  0
  186.6180  177.0660  142.6160 C   0  0  2  0  0  0  0  0  0  0  0  0
  188.7070  176.4040  141.9790 C   0  0  2  0  0  3  0  0  0  0  0  0
  187.5670  178.0380  143.2780 C   0  0  0  0  0  2  0  0  0  0  0  0
  187.3300  176.3110  141.6720 O   0  0  0  0  0  0  0  0  0  0  0  0
  188.5370  174.4340  139.9310 O   0  0  0  0  0  1  0  0  0  0  0  0
  189.6480  171.8660  140.4830 O   0  0  0  0  0  0  0  0  0  0  0  0
  190.8260  174.9750  141.9720 C   0  0  0  0  0  2  0  0  0  0  0  0
  189.7880  172.8740  141.1560 C   0  0  0  0  0  0  0  0  0  0  0  0
  191.3200  173.2320  142.0080 S   0  0  0  0  0  0  0  0  0  0  0  0
  189.3120  174.9950  142.1530 C   0  0  2  0  0  3  0  0  0  0  0  0
  188.7360  173.9220  141.2180 C   0  0  1  0  0  3  0  0  0  0  0  0
  189.4250  176.7660  144.4490 C   0  0  1  0  0  3  0  0  0  0  0  0
  190.7130  176.8490  147.1000 C   0  0  2  0  0  3  0  0  0  0  0  0
  191.4650  176.3710  145.8550 C   0  0  1  0  0  3  0  0  0  0  0  0
  191.1860  176.1780  148.2270 O   0  0  0  0  0  1  0  0  0  0  0  0
  189.2200  176.5810  146.9450 C   0  0  0  0  0  2  0  0  0  0  0  0
  190.9100  177.0690  144.6140 C   0  0  0  0  0  2  0  0  0  0  0  0
  188.6860  177.2700  145.6960 C   0  0  0  0  0  2  0  0  0  0  0  0
  192.8270  176.6630  145.9760 O   0  0  0  0  0  0  0  0  0  0  0  0
  193.3160  176.6510  144.6670 C   0  0  0  0  0  1  0  0  0  0  0  0
  183.8730  178.4630  142.5390 O   0  0  0  0  0  1  0  0  0  0  0  0
  185.4930  178.4560  140.3360 O   0  0  0  0  0  0  0  0  0  0  0  0
  185.3010  177.9880  141.7610 P   0  0  1  0  0  4  0  0  0  0  0  0
  186.0100  176.1110  143.6380 C   0  0  0  0  0  2  0  0  0  0  0  0
  185.5690  176.8010  144.7720 O   0  0  0  0  0  1  0  0  0  0  0  0
  1  4  1  1  0  0  0
  1 13  1  0  0  0  0
  2  4  1  0  0  0  0
  2 25  1  1  0  0  0
  3  5  1  1  0  0  0
  3 11  1  0  0  0  0
  3  1  1  0  0  0  0
  5  2  1  0  0  0  0
  7  9  2  0  0  0  0
  8 10  1  0  0  0  0
  9 12  1  0  0  0  0
  9 10  1  0  0  0  0
 11  8  1  6  0  0  0
 12  6  1  6  0  0  0
 12 11  1  0  0  0  0
 13 18  1  1  0  0  0
 13 19  1  0  0  0  0
 14 16  1  1  0  0  0
 15 20  1  1  0  0  0
 15 14  1  0  0  0  0
 17 14  1  0  0  0  0
 18 15  1  0  0  0  0
 19 17  1  0  0  0  0
 21 20  1  0  0  0  0
 24 23  2  1  0  0  0
 24 22  1  0  0  0  0
 24  2  1  0  0  0  0
 25 26  1  0  0  0  0
M  END
>  <MODEL>
3

>  <REMARK>
 VINA RESULT:      -6.0      2.940      6.832
  Name = 
  5 active torsions:
  status: ('A' for Active; 'I' for Inactive)
    1  A    between atoms: C_2  and  C_5
    2  A    between atoms: C_6  and  C_7
    3  A    between atoms: C_7  and  P_26
    4  A    between atoms: O_9  and  C_11
    5  A    between atoms: C_15  and  C_20
                            x       y       z     vdW  Elec       q    Type
                         _______ _______ _______ _____ _____    ______ ____

>  <TORSDO>
F 5

$$$$
=
 OpenBabel11072408343D

 26 28  0  0  1  0  0  0  0  0999 V2000
  188.5660  175.6690  145.2860 C   0  0  1  0  0  3  0  0  0  0  0  0
  190.7260  175.7010  144.2740 C   0  0  2  0  0  0  0  0  0  0  0  0
  188.5080  175.5890  143.7470 C   0  0  2  0  0  3  0  0  0  0  0  0
  190.0180  175.4040  145.5760 C   0  0  0  0  0  2  0  0  0  0  0  0
  189.8190  175.5350  143.2180 O   0  0  0  0  0  0  0  0  0  0  0  0
  188.1910  175.5980  140.9180 O   0  0  0  0  0  1  0  0  0  0  0  0
  186.6980  177.7400  139.7710 O   0  0  0  0  0  0  0  0  0  0  0  0
  186.1800  176.4510  143.1390 C   0  0  0  0  0  2  0  0  0  0  0  0
  186.7820  177.4720  140.9580 C   0  0  0  0  0  0  0  0  0  0  0  0
  185.3990  177.6900  142.0720 S   0  0  0  0  0  0  0  0  0  0  0  0
  187.6840  176.6760  143.0240 C   0  0  2  0  0  3  0  0  0  0  0  0
  187.9990  176.8410  141.5310 C   0  0  1  0  0  3  0  0  0  0  0  0
  188.0710  177.0030  145.8810 C   0  0  1  0  0  3  0  0  0  0  0  0
  186.7820  178.6540  147.9570 C   0  0  2  0  0  3  0  0  0  0  0  0
  186.0350  178.2280  146.6900 C   0  0  1  0  0  3  0  0  0  0  0  0
  186.3160  179.8960  148.3870 O   0  0  0  0  0  1  0  0  0  0  0  0
  188.2770  178.7460  147.6790 C   0  0  0  0  0  2  0  0  0  0  0  0
  186.5810  176.8910  146.1910 C   0  0  0  0  0  2  0  0  0  0  0  0
  188.8030  177.4100  147.1670 C   0  0  0  0  0  2  0  0  0  0  0  0
  184.6690  178.0950  146.9590 O   0  0  0  0  0  0  0  0  0  0  0  0
  184.0280  178.6660  145.8570 C   0  0  0  0  0  1  0  0  0  0  0  0
  192.8430  173.7410  145.3560 O   0  0  0  0  0  1  0  0  0  0  0  0
  192.5770  174.1580  142.6670 O   0  0  0  0  0  0  0  0  0  0  0  0
  192.1080  174.5360  144.0540 P   0  0  1  0  0  4  0  0  0  0  0  0
  191.2410  177.1360  144.2450 C   0  0  0  0  0  2  0  0  0  0  0  0
  191.2170  177.6540  142.9460 O   0  0  0  0  0  1  0  0  0  0  0  0
  1  4  1  6  0  0  0
  1 13  1  0  0  0  0
  2 25  1  1  0  0  0
  2  4  1  0  0  0  0
  3  5  1  6  0  0  0
  3  1  1  0  0  0  0
  5  2  1  0  0  0  0
  7  9  2  0  0  0  0
  9 12  1  0  0  0  0
  9 10  1  0  0  0  0
 10  8  1  0  0  0  0
 11  8  1  6  0  0  0
 11  3  1  0  0  0  0
 12  6  1  6  0  0  0
 12 11  1  0  0  0  0
 13 18  1  1  0  0  0
 13 19  1  0  0  0  0
 14 16  1  6  0  0  0
 15 20  1  1  0  0  0
 15 14  1  0  0  0  0
 17 14  1  0  0  0  0
 18 15  1  0  0  0  0
 19 17  1  0  0  0  0
 21 20  1  0  0  0  0
 24 23  2  6  0  0  0
 24  2  1  0  0  0  0
 24 22  1  0  0  0  0
 26 25  1  0  0  0  0
M  END
>  <MODEL>
4

>  <REMARK>
 VINA RESULT:      -5.8      2.280      5.469
  Name = 
  5 active torsions:
  status: ('A' for Active; 'I' for Inactive)
    1  A    between atoms: C_2  and  C_5
    2  A    between atoms: C_6  and  C_7
    3  A    between atoms: C_7  and  P_26
    4  A    between atoms: O_9  and  C_11
    5  A    between atoms: C_15  and  C_20
                            x       y       z     vdW  Elec       q    Type
                         _______ _______ _______ _____ _____    ______ ____

>  <TORSDO>
F 5

$$$$
=
 OpenBabel11072408343D

 26 28  0  0  1  0  0  0  0  0999 V2000
  190.4560  175.4340  146.1370 C   0  0  1  0  0  3  0  0  0  0  0  0
  192.6480  176.0620  145.4350 C   0  0  2  0  0  0  0  0  0  0  0  0
  191.1930  174.3040  145.3910 C   0  0  2  0  0  3  0  0  0  0  0  0
  191.5600  176.4160  146.4230 C   0  0  0  0  0  2  0  0  0  0  0  0
  192.5080  174.7150  145.0720 O   0  0  0  0  0  0  0  0  0  0  0  0
  192.5620  172.6100  143.5580 O   0  0  0  0  0  1  0  0  0  0  0  0
  191.1170  171.7120  141.2690 O   0  0  0  0  0  0  0  0  0  0  0  0
  189.5830  172.5490  144.4650 C   0  0  0  0  0  2  0  0  0  0  0  0
  190.6500  172.2830  142.2410 C   0  0  0  0  0  0  0  0  0  0  0  0
  189.0250  171.8850  142.8750 S   0  0  0  0  0  0  0  0  0  0  0  0
  190.4960  173.7260  144.1410 C   0  0  2  0  0  3  0  0  0  0  0  0
  191.4450  173.2620  143.0260 C   0  0  1  0  0  3  0  0  0  0  0  0
  189.2830  176.0640  145.3590 C   0  0  1  0  0  3  0  0  0  0  0  0
  187.1040  178.0160  144.9840 C   0  0  2  0  0  3  0  0  0  0  0  0
  186.8320  176.5880  145.4660 C   0  0  1  0  0  3  0  0  0  0  0  0
  186.0230  178.4800  144.2380 O   0  0  0  0  0  1  0  0  0  0  0  0
  188.3610  178.0460  144.1220 C   0  0  0  0  0  2  0  0  0  0  0  0
  188.0390  176.0610  146.2410 C   0  0  0  0  0  2  0  0  0  0  0  0
  189.5520  177.5050  144.9040 C   0  0  0  0  0  2  0  0  0  0  0  0
  185.7070  176.5690  146.2980 O   0  0  0  0  0  0  0  0  0  0  0  0
  186.1480  177.1060  147.5110 C   0  0  0  0  0  1  0  0  0  0  0  0
  195.4980  175.1260  146.1380 O   0  0  0  0  0  1  0  0  0  0  0  0
  194.6300  177.6140  146.8700 O   0  0  0  0  0  0  0  0  0  0  0  0
  194.2770  176.2980  146.2130 P   0  0  1  0  0  4  0  0  0  0  0  0
  192.5420  176.9150  144.1740 C   0  0  0  0  0  2  0  0  0  0  0  0
  193.2370  176.3290  143.1110 O   0  0  0  0  0  1  0  0  0  0  0  0
  1  4  1  6  0  0  0
  2 25  1  6  0  0  0
  2 24  1  0  0  0  0
  2  4  1  0  0  0  0
  3  5  1  6  0  0  0
  3  1  1  0  0  0  0
  5  2  1  0  0  0  0
  7  9  2  0  0  0  0
  9 10  1  0  0  0  0
  9 12  1  0  0  0  0
 10  8  1  0  0  0  0
 11  8  1  1  0  0  0
 11  3  1  0  0  0  0
 12  6  1  1  0  0  0
 12 11  1  0  0  0  0
 13 19  1  1  0  0  0
 13  1  1  0  0  0  0
 13 18  1  0  0  0  0
 14 16  1  6  0  0  0
 14 15  1  0  0  0  0
 15 18  1  0  0  0  0
 15 20  1  1  0  0  0
 17 19  1  0  0  0  0
 17 14  1  0  0  0  0
 20 21  1  0  0  0  0
 24 22  1  6  0  0  0
 24 23  2  0  0  0  0
 26 25  1  0  0  0  0
M  END
>  <MODEL>
5

>  <REMARK>
 VINA RESULT:      -5.7      3.073      5.696
  Name = 
  5 active torsions:
  status: ('A' for Active; 'I' for Inactive)
    1  A    between atoms: C_2  and  C_5
    2  A    between atoms: C_6  and  C_7
    3  A    between atoms: C_7  and  P_26
    4  A    between atoms: O_9  and  C_11
    5  A    between atoms: C_15  and  C_20
                            x       y       z     vdW  Elec       q    Type
                         _______ _______ _______ _____ _____    ______ ____

>  <TORSDO>
F 5

$$$$
=
 OpenBabel11072408343D

 26 28  0  0  1  0  0  0  0  0999 V2000
  190.4290  177.0360  144.7060 C   0  0  1  0  0  3  0  0  0  0  0  0
  188.4900  176.4110  145.9470 C   0  0  2  0  0  0  0  0  0  0  0  0
  189.3800  176.3010  143.8480 C   0  0  2  0  0  3  0  0  0  0  0  0
  189.6600  177.3680  145.9560 C   0  0  0  0  0  2  0  0  0  0  0  0
  188.2290  176.0280  144.6240 O   0  0  0  0  0  0  0  0  0  0  0  0
  187.6960  174.9110  142.0210 O   0  0  0  0  0  1  0  0  0  0  0  0
  188.7230  172.5250  140.8430 O   0  0  0  0  0  0  0  0  0  0  0  0
  190.7840  175.3170  141.9520 C   0  0  0  0  0  2  0  0  0  0  0  0
  189.3550  173.3400  141.4950 C   0  0  0  0  0  0  0  0  0  0  0  0
  191.0560  173.7370  141.1090 S   0  0  0  0  0  0  0  0  0  0  0  0
  189.8490  175.0230  143.1200 C   0  0  2  0  0  3  0  0  0  0  0  0
  188.7190  174.1360  142.5770 C   0  0  1  0  0  3  0  0  0  0  0  0
  191.7120  176.2270  144.9900 C   0  0  1  0  0  3  0  0  0  0  0  0
  194.5420  175.9490  145.7720 C   0  0  2  0  0  3  0  0  0  0  0  0
  194.1060  175.9220  144.3050 C   0  0  1  0  0  3  0  0  0  0  0  0
  195.6650  175.1440  145.9490 O   0  0  0  0  0  1  0  0  0  0  0  0
  193.4130  175.4420  146.6630 C   0  0  0  0  0  2  0  0  0  0  0  0
  192.8440  176.7650  144.1210 C   0  0  0  0  0  2  0  0  0  0  0  0
  192.1590  176.2830  146.4580 C   0  0  0  0  0  2  0  0  0  0  0  0
  195.1230  176.4350  143.4920 O   0  0  0  0  0  0  0  0  0  0  0  0
  194.8530  175.9310  142.2170 C   0  0  0  0  0  1  0  0  0  0  0  0
  185.4420  176.7810  146.2060 O   0  0  0  0  0  1  0  0  0  0  0  0
  187.1610  178.3200  147.6730 O   0  0  0  0  0  0  0  0  0  0  0  0
  187.0180  177.2430  146.6220 P   0  0  1  0  0  4  0  0  0  0  0  0
  188.8000  175.1570  146.7590 C   0  0  0  0  0  2  0  0  0  0  0  0
  187.9910  175.0820  147.8970 O   0  0  0  0  0  1  0  0  0  0  0  0
  1 13  1  0  0  0  0
  1  4  1  1  0  0  0
  2  4  1  0  0  0  0
  2 24  1  0  0  0  0
  2 25  1  1  0  0  0
  3  5  1  1  0  0  0
  3  1  1  0  0  0  0
  5  2  1  0  0  0  0
  7  9  2  0  0  0  0
  9 12  1  0  0  0  0
 10  9  1  0  0  0  0
 10  8  1  0  0  0  0
 11  8  1  6  0  0  0
 11  3  1  0  0  0  0
 12  6  1  6  0  0  0
 12 11  1  0  0  0  0
 13 18  1  6  0  0  0
 13 19  1  0  0  0  0
 14 16  1  6  0  0  0
 14 17  1  0  0  0  0
 15 20  1  6  0  0  0
 15 14  1  0  0  0  0
 18 15  1  0  0  0  0
 19 17  1  0  0  0  0
 21 20  1  0  0  0  0
 24 22  1  1  0  0  0
 24 23  2  0  0  0  0
 25 26  1  0  0  0  0
M  END
>  <MODEL>
6

>  <REMARK>
 VINA RESULT:      -5.6      2.857      5.930
  Name = 
  5 active torsions:
  status: ('A' for Active; 'I' for Inactive)
    1  A    between atoms: C_2  and  C_5
    2  A    between atoms: C_6  and  C_7
    3  A    between atoms: C_7  and  P_26
    4  A    between atoms: O_9  and  C_11
    5  A    between atoms: C_15  and  C_20
                            x       y       z     vdW  Elec       q    Type
                         _______ _______ _______ _____ _____    ______ ____

>  <TORSDO>
F 5

$$$$
=
 OpenBabel11072408343D

 26 28  0  0  1  0  0  0  0  0999 V2000
  188.1130  174.9240  142.8850 C   0  0  1  0  0  3  0  0  0  0  0  0
  187.5630  177.2450  142.8350 C   0  0  2  0  0  0  0  0  0  0  0  0
  188.9340  175.7570  143.8900 C   0  0  2  0  0  3  0  0  0  0  0  0
  187.0240  175.8790  142.4780 C   0  0  0  0  0  2  0  0  0  0  0  0
  188.5060  177.1040  143.8630 O   0  0  0  0  0  0  0  0  0  0  0  0
  190.6510  177.4010  145.4560 O   0  0  0  0  0  1  0  0  0  0  0  0
  193.4590  177.1660  145.0130 O   0  0  0  0  0  0  0  0  0  0  0  0
  191.0640  174.4720  144.4790 C   0  0  0  0  0  2  0  0  0  0  0  0
  192.5930  176.4250  144.5760 C   0  0  0  0  0  0  0  0  0  0  0  0
  192.8640  174.6660  144.3960 S   0  0  0  0  0  0  0  0  0  0  0  0
  190.4710  175.6810  143.7640 C   0  0  2  0  0  3  0  0  0  0  0  0
  191.2240  176.9180  144.2750 C   0  0  1  0  0  3  0  0  0  0  0  0
  188.9170  174.3870  141.6830 C   0  0  1  0  0  3  0  0  0  0  0  0
  189.3860  172.5460  139.4280 C   0  0  2  0  0  3  0  0  0  0  0  0
  190.0910  172.3650  140.7740 C   0  0  1  0  0  3  0  0  0  0  0  0
  190.2080  172.0950  138.3960 O   0  0  0  0  0  1  0  0  0  0  0  0
  189.0570  174.0170  139.2020 C   0  0  0  0  0  2  0  0  0  0  0  0
  189.2110  172.9060  141.9000 C   0  0  0  0  0  2  0  0  0  0  0  0
  188.1910  174.5460  140.3400 C   0  0  0  0  0  2  0  0  0  0  0  0
  190.3480  171.0090  141.0030 O   0  0  0  0  0  0  0  0  0  0  0  0
  190.4980  170.9000  142.3880 C   0  0  0  0  0  1  0  0  0  0  0  0
  184.7920  178.5560  142.5200 O   0  0  0  0  0  1  0  0  0  0  0  0
  186.2460  178.9070  144.8090 O   0  0  0  0  0  0  0  0  0  0  0  0
  186.2020  178.3010  143.4240 P   0  0  1  0  0  4  0  0  0  0  0  0
  188.2490  177.8940  141.6380 C   0  0  0  0  0  2  0  0  0  0  0  0
  187.4030  177.9160  140.5240 O   0  0  0  0  0  1  0  0  0  0  0  0
  1  4  1  6  0  0  0
  1  3  1  0  0  0  0
  2 25  1  6  0  0  0
  2 24  1  0  0  0  0
  2  5  1  0  0  0  0
  3  5  1  6  0  0  0
  4  2  1  0  0  0  0
  9  7  2  0  0  0  0
 10  8  1  0  0  0  0
 10  9  1  0  0  0  0
 11  3  1  0  0  0  0
 11 12  1  0  0  0  0
 11  8  1  1  0  0  0
 12  9  1  0  0  0  0
 12  6  1  1  0  0  0
 13 19  1  6  0  0  0
 13 18  1  0  0  0  0
 13  1  1  0  0  0  0
 14 16  1  6  0  0  0
 14 15  1  0  0  0  0
 15 20  1  1  0  0  0
 15 18  1  0  0  0  0
 17 14  1  0  0  0  0
 17 19  1  0  0  0  0
 20 21  1  0  0  0  0
 24 22  1  1  0  0  0
 24 23  2  0  0  0  0
 26 25  1  0  0  0  0
M  END
>  <MODEL>
7

>  <REMARK>
 VINA RESULT:      -5.5      3.156      5.679
  Name = 
  5 active torsions:
  status: ('A' for Active; 'I' for Inactive)
    1  A    between atoms: C_2  and  C_5
    2  A    between atoms: C_6  and  C_7
    3  A    between atoms: C_7  and  P_26
    4  A    between atoms: O_9  and  C_11
    5  A    between atoms: C_15  and  C_20
                            x       y       z     vdW  Elec       q    Type
                         _______ _______ _______ _____ _____    ______ ____

>  <TORSDO>
F 5

$$$$
=
 OpenBabel11072408343D

 26 28  0  0  1  0  0  0  0  0999 V2000
  191.4040  176.6000  143.9330 C   0  0  1  0  0  3  0  0  0  0  0  0
  189.2630  176.2790  144.9350 C   0  0  2  0  0  0  0  0  0  0  0  0
  190.4170  175.8540  143.0120 C   0  0  2  0  0  3  0  0  0  0  0  0
  190.5060  177.1350  145.0150 C   0  0  0  0  0  2  0  0  0  0  0  0
  189.1510  175.7660  143.6350 O   0  0  0  0  0  0  0  0  0  0  0  0
  188.8000  174.3300  141.2330 O   0  0  0  0  0  1  0  0  0  0  0  0
  189.7600  171.7560  140.4660 O   0  0  0  0  0  0  0  0  0  0  0  0
  191.9030  174.5520  141.3910 C   0  0  0  0  0  2  0  0  0  0  0  0
  190.3890  172.6140  141.0630 C   0  0  0  0  0  0  0  0  0  0  0  0
  192.1390  172.8620  140.7840 S   0  0  0  0  0  0  0  0  0  0  0  0
  190.8580  174.4680  142.4980 C   0  0  2  0  0  3  0  0  0  0  0  0
  189.7210  173.5800  141.9730 C   0  0  1  0  0  3  0  0  0  0  0  0
  192.5530  175.7320  144.4850 C   0  0  1  0  0  3  0  0  0  0  0  0
  195.2470  175.3190  145.6130 C   0  0  2  0  0  3  0  0  0  0  0  0
  194.9510  175.0830  144.1300 C   0  0  1  0  0  3  0  0  0  0  0  0
  196.2490  174.4500  146.0420 O   0  0  0  0  0  1  0  0  0  0  0  0
  193.9890  175.0840  146.4420 C   0  0  0  0  0  2  0  0  0  0  0  0
  193.8170  176.0000  143.6730 C   0  0  0  0  0  2  0  0  0  0  0  0
  192.8630  175.9940  145.9650 C   0  0  0  0  0  2  0  0  0  0  0  0
  196.0920  175.3480  143.3650 O   0  0  0  0  0  0  0  0  0  0  0  0
  196.3050  176.7220  143.5000 C   0  0  0  0  0  1  0  0  0  0  0  0
  187.0350  177.2900  146.8090 O   0  0  0  0  0  1  0  0  0  0  0  0
  187.2740  178.2790  144.2710 O   0  0  0  0  0  0  0  0  0  0  0  0
  187.7980  177.2980  145.2960 P   0  0  1  0  0  4  0  0  0  0  0  0
  189.3390  175.1090  145.9100 C   0  0  0  0  0  2  0  0  0  0  0  0
  189.7330  175.5380  147.1820 O   0  0  0  0  0  1  0  0  0  0  0  0
  1 13  1  0  0  0  0
  1  4  1  1  0  0  0
  2  4  1  0  0  0  0
  2 24  1  0  0  0  0
  2 25  1  1  0  0  0
  3  5  1  1  0  0  0
  3  1  1  0  0  0  0
  5  2  1  0  0  0  0
  7  9  2  0  0  0  0
  9 12  1  0  0  0  0
 10  9  1  0  0  0  0
 10  8  1  0  0  0  0
 11  8  1  6  0  0  0
 11  3  1  0  0  0  0
 12  6  1  6  0  0  0
 12 11  1  0  0  0  0
 13 18  1  6  0  0  0
 13 19  1  0  0  0  0
 14 16  1  1  0  0  0
 14 17  1  0  0  0  0
 15 20  1  6  0  0  0
 15 14  1  0  0  0  0
 18 15  1  0  0  0  0
 19 17  1  0  0  0  0
 20 21  1  0  0  0  0
 24 23  2  1  0  0  0
 24 22  1  0  0  0  0
 25 26  1  0  0  0  0
M  END
>  <MODEL>
8

>  <REMARK>
 VINA RESULT:      -5.3      3.421      6.600
  Name = 
  5 active torsions:
  status: ('A' for Active; 'I' for Inactive)
    1  A    between atoms: C_2  and  C_5
    2  A    between atoms: C_6  and  C_7
    3  A    between atoms: C_7  and  P_26
    4  A    between atoms: O_9  and  C_11
    5  A    between atoms: C_15  and  C_20
                            x       y       z     vdW  Elec       q    Type
                         _______ _______ _______ _____ _____    ______ ____

>  <TORSDO>
F 5

$$$$
=
 OpenBabel11072408343D

 26 28  0  0  1  0  0  0  0  0999 V2000
  189.2170  176.0980  142.4770 C   0  0  1  0  0  3  0  0  0  0  0  0
  188.7330  174.2160  141.0920 C   0  0  2  0  0  0  0  0  0  0  0  0
  190.4050  175.1240  142.3510 C   0  0  2  0  0  3  0  0  0  0  0  0
  188.2920  175.6320  141.3850 C   0  0  0  0  0  2  0  0  0  0  0  0
  190.0780  174.0770  141.4600 O   0  0  0  0  0  0  0  0  0  0  0  0
  192.1980  172.9140  142.3690 O   0  0  0  0  0  1  0  0  0  0  0  0
  193.0730  171.9520  144.9080 O   0  0  0  0  0  0  0  0  0  0  0  0
  192.1020  175.4000  144.2430 C   0  0  0  0  0  2  0  0  0  0  0  0
  192.4610  172.9870  144.6980 C   0  0  0  0  0  0  0  0  0  0  0  0
  192.7710  174.4710  145.6480 S   0  0  0  0  0  0  0  0  0  0  0  0
  190.9750  174.5500  143.6650 C   0  0  2  0  0  3  0  0  0  0  0  0
  191.5050  173.1120  143.5680 C   0  0  1  0  0  3  0  0  0  0  0  0
  188.5420  176.1170  143.8640 C   0  0  1  0  0  3  0  0  0  0  0  0
  187.2970  177.4530  146.1790 C   0  0  2  0  0  3  0  0  0  0  0  0
  188.7550  176.9870  146.2070 C   0  0  1  0  0  3  0  0  0  0  0  0
  186.7490  177.3760  147.4590 O   0  0  0  0  0  1  0  0  0  0  0  0
  186.4850  176.5770  145.2310 C   0  0  0  0  0  2  0  0  0  0  0  0
  189.3390  177.0230  144.7960 C   0  0  0  0  0  2  0  0  0  0  0  0
  187.0890  176.6120  143.8320 C   0  0  0  0  0  2  0  0  0  0  0  0
  189.5090  177.8220  147.0380 O   0  0  0  0  0  0  0  0  0  0  0  0
  190.5620  177.0230  147.4910 C   0  0  0  0  0  1  0  0  0  0  0  0
  187.7300  174.9210  138.2650 O   0  0  0  0  0  1  0  0  0  0  0  0
  189.2830  172.7090  138.6800 O   0  0  0  0  0  0  0  0  0  0  0  0
  188.5700  173.8850  139.3090 P   0  0  1  0  0  4  0  0  0  0  0  0
  187.9090  173.2100  141.8890 C   0  0  0  0  0  2  0  0  0  0  0  0
  188.6630  172.0720  142.1960 O   0  0  0  0  0  1  0  0  0  0  0  0
  1  4  1  6  0  0  0
  1 13  1  0  0  0  0
  2  4  1  0  0  0  0
  2  5  1  0  0  0  0
  2 25  1  1  0  0  0
  3  5  1  6  0  0  0
  3  1  1  0  0  0  0
  3 11  1  0  0  0  0
  8 10  1  0  0  0  0
  9  7  2  0  0  0  0
  9 10  1  0  0  0  0
 11  8  1  6  0  0  0
 12  6  1  6  0  0  0
 12 11  1  0  0  0  0
 12  9  1  0  0  0  0
 13 19  1  6  0  0  0
 13 18  1  0  0  0  0
 14 15  1  0  0  0  0
 14 16  1  1  0  0  0
 15 20  1  1  0  0  0
 17 14  1  0  0  0  0
 18 15  1  0  0  0  0
 19 17  1  0  0  0  0
 20 21  1  0  0  0  0
 23 24  2  0  0  0  0
 24 22  1  6  0  0  0
 24  2  1  0  0  0  0
 25 26  1  0  0  0  0
M  END
>  <MODEL>
9

>  <REMARK>
 VINA RESULT:      -5.3      3.234      6.976
  Name = 
  5 active torsions:
  status: ('A' for Active; 'I' for Inactive)
    1  A    between atoms: C_2  and  C_5
    2  A    between atoms: C_6  and  C_7
    3  A    between atoms: C_7  and  P_26
    4  A    between atoms: O_9  and  C_11
    5  A    between atoms: C_15  and  C_20
                            x       y       z     vdW  Elec       q    Type
                         _______ _______ _______ _____ _____    ______ ____

>  <TORSDO>
F 5

$$$$
