=
 OpenBabel11062421573D

 35 40  0  0  1  0  0  0  0  0999 V2000
  187.8460  174.6000  142.2810 C   0  0  0  0  0  2  0  0  0  0  0  0
  190.9620  174.9410  142.5460 C   0  0  2  0  0  3  0  0  0  0  0  0
  190.3510  173.6450  138.2400 C   0  0  0  0  0  3  0  0  0  0  0  0
  188.8900  173.8520  139.9360 C   0  0  0  0  0  0  0  0  0  0  0  0
  190.5320  173.6200  142.9670 O   0  0  0  0  0  0  0  0  0  0  0  0
  189.1080  173.8700  137.7440 O   0  0  0  0  0  0  0  0  0  0  0  0
  188.2480  174.0440  138.7260 C   0  0  0  0  0  3  0  0  0  0  0  0
  191.1750  173.5340  140.5770 C   0  0  0  0  0  2  0  0  0  0  0  0
  190.1990  173.5960  139.5070 C   0  0  0  0  0  0  0  0  0  0  0  0
  188.9310  174.5660  141.2350 C   0  0  2  0  0  3  0  0  0  0  0  0
  190.2470  174.0310  141.6610 C   0  0  2  0  0  0  0  0  0  0  0  0
  191.7880  175.2980  143.8530 C   0  0  1  0  0  3  0  0  0  0  0  0
  191.0010  176.2210  144.7200 C   0  0  2  0  0  3  0  0  0  0  0  0
  190.7000  177.4480  144.0840 O   0  0  0  0  0  1  0  0  0  0  0  0
  192.1940  175.1700  146.6660 C   0  0  0  0  0  2  0  0  0  0  0  0
  192.5660  174.2200  144.2880 O   0  0  0  0  0  0  0  0  0  0  0  0
  191.8170  176.4820  146.0030 C   0  0  0  0  0  2  0  0  0  0  0  0
  192.9650  174.2830  145.7170 C   0  0  0  0  0  2  0  0  0  0  0  0
  185.5210  177.4420  142.0370 N   0  0  0  0  0  0  0  0  0  0  0  0
  187.2280  177.1090  140.2190 C   0  0  0  0  0  2  0  0  0  0  0  0
  186.0220  176.4020  142.8720 C   0  0  0  0  0  2  0  0  0  0  0  0
  188.1100  176.9690  141.4100 C   0  0  0  0  0  2  0  0  0  0  0  0
  187.4900  176.0680  142.4950 C   0  0  2  0  0  3  0  0  0  0  0  0
  185.7940  177.4390  140.5680 C   0  0  0  0  0  2  0  0  0  0  0  0
  183.8870  178.5240  143.3450 O   0  0  0  0  0  1  0  0  0  0  0  0
  185.0830  178.7000  142.6580 C   0  0  1  0  0  3  0  0  0  0  0  0
  186.2130  179.2310  143.5790 C   0  0  0  0  0  2  0  0  0  0  0  0
  185.7110  179.5830  144.9940 C   0  0  0  0  0  2  0  0  0  0  0  0
  187.3730  177.0390  146.9740 C   0  0  2  0  0  3  0  0  0  0  0  0
  185.4260  178.2420  147.2240 C   0  0  1  0  0  3  0  0  0  0  0  0
  188.2530  175.7730  146.8030 C   0  0  0  0  0  1  0  0  0  0  0  0
  183.9780  178.1930  146.7540 C   0  0  0  0  0  1  0  0  0  0  0  0
  185.9410  176.8450  147.4510 C   0  0  0  0  0  2  0  0  0  0  0  0
  187.2880  177.8070  145.7600 N   0  0  0  0  0  2  0  0  0  0  0  0
  186.3670  178.8600  146.1690 C   0  0  1  0  0  3  0  0  0  0  0  0
  2  5  1  1  0  0  0
  2 12  1  0  0  0  0
  3  9  2  0  0  0  0
  4 10  1  0  0  0  0
  6  3  1  0  0  0  0
  6  7  1  0  0  0  0
  7  4  2  0  0  0  0
  9  4  1  0  0  0  0
  9  8  1  0  0  0  0
 10 11  1  0  0  0  0
 10  1  1  1  0  0  0
 11  8  1  6  0  0  0
 11  2  1  0  0  0  0
 11  5  1  0  0  0  0
 12 16  1  1  0  0  0
 12 13  1  0  0  0  0
 13 14  1  6  0  0  0
 13 17  1  0  0  0  0
 16 18  1  0  0  0  0
 17 15  1  0  0  0  0
 18 15  1  0  0  0  0
 19 26  1  0  0  0  0
 19 21  1  0  0  0  0
 20 24  1  0  0  0  0
 20 22  1  0  0  0  0
 22 23  1  0  0  0  0
 23  1  1  6  0  0  0
 23 21  1  0  0  0  0
 24 19  1  0  0  0  0
 26 25  1  1  0  0  0
 26 27  1  0  0  0  0
 27 28  1  0  0  0  0
 29 31  1  6  0  0  0
 29 33  1  0  0  0  0
 30 32  1  6  0  0  0
 30 33  1  0  0  0  0
 34 35  1  0  0  0  0
 34 29  1  0  0  0  0
 35 28  1  6  0  0  0
 35 30  1  0  0  0  0
M  END
>  <MODEL>
1

>  <REMARK>
 VINA RESULT:      -8.0      0.000      0.000
  Name = 
  7 active torsions:
  status: ('A' for Active; 'I' for Inactive)
    1  A    between atoms: C_1  and  C_8
    2  A    between atoms: N_2  and  C_34
    3  A    between atoms: C_22  and  C_25
    4  A    between atoms: C_25  and  C_27
    5  A    between atoms: C_32  and  C_33
    6  A    between atoms: C_32  and  C_34
    7  A    between atoms: C_33  and  C_35
                            x       y       z     vdW  Elec       q    Type
                         _______ _______ _______ _____ _____    ______ ____

>  <TORSDO>
F 7

$$$$
=
 OpenBabel11062421573D

 35 40  0  0  1  0  0  0  0  0999 V2000
  191.3390  176.7830  144.1070 C   0  0  0  0  0  2  0  0  0  0  0  0
  191.7160  174.0560  142.5850 C   0  0  2  0  0  3  0  0  0  0  0  0
  195.4450  174.4210  145.1440 C   0  0  0  0  0  3  0  0  0  0  0  0
  193.7470  175.8540  144.8050 C   0  0  0  0  0  0  0  0  0  0  0  0
  192.1910  175.1770  141.7960 O   0  0  0  0  0  0  0  0  0  0  0  0
  195.3280  175.2480  146.2130 O   0  0  0  0  0  0  0  0  0  0  0  0
  194.3060  176.0620  146.0520 C   0  0  0  0  0  3  0  0  0  0  0  0
  194.0880  174.2330  143.0760 C   0  0  0  0  0  2  0  0  0  0  0  0
  194.5500  174.8130  144.3220 C   0  0  0  0  0  0  0  0  0  0  0  0
  192.3700  175.6970  144.2770 C   0  0  2  0  0  3  0  0  0  0  0  0
  192.7620  174.9560  143.0530 C   0  0  2  0  0  0  0  0  0  0  0  0
  190.7700  173.4290  141.4750 C   0  0  1  0  0  3  0  0  0  0  0  0
  189.3430  173.7080  141.8020 C   0  0  2  0  0  3  0  0  0  0  0  0
  188.9430  173.1480  143.0380 O   0  0  0  0  0  1  0  0  0  0  0  0
  188.9280  173.6900  139.3230 C   0  0  0  0  0  2  0  0  0  0  0  0
  191.3520  173.4830  140.2050 O   0  0  0  0  0  0  0  0  0  0  0  0
  188.4730  173.1390  140.6620 C   0  0  0  0  0  2  0  0  0  0  0  0
  190.3880  173.3880  139.0790 C   0  0  0  0  0  2  0  0  0  0  0  0
  188.7420  177.5690  146.5940 N   0  0  0  0  0  0  0  0  0  0  0  0
  190.8950  176.5250  147.3730 C   0  0  0  0  0  2  0  0  0  0  0  0
  189.0470  177.4650  145.2050 C   0  0  0  0  0  2  0  0  0  0  0  0
  190.5840  175.6200  146.2330 C   0  0  0  0  0  2  0  0  0  0  0  0
  190.1450  176.3930  144.9740 C   0  0  2  0  0  3  0  0  0  0  0  0
  189.8320  177.5740  147.6150 C   0  0  0  0  0  2  0  0  0  0  0  0
  186.6990  178.4500  147.3690 O   0  0  0  0  0  1  0  0  0  0  0  0
  187.3720  177.2790  147.0410 C   0  0  1  0  0  3  0  0  0  0  0  0
  186.6390  176.4720  145.9370 C   0  0  0  0  0  2  0  0  0  0  0  0
  185.3950  177.2050  145.3940 C   0  0  0  0  0  2  0  0  0  0  0  0
  186.2060  177.2430  141.8590 C   0  0  2  0  0  3  0  0  0  0  0  0
  185.1920  178.7410  143.2840 C   0  0  1  0  0  3  0  0  0  0  0  0
  187.2830  176.7230  140.8720 C   0  0  0  0  0  1  0  0  0  0  0  0
  185.5860  179.8100  144.2950 C   0  0  0  0  0  1  0  0  0  0  0  0
  186.1620  178.7400  142.1320 C   0  0  0  0  0  2  0  0  0  0  0  0
  186.2990  176.6060  143.1460 N   0  0  0  0  0  2  0  0  0  0  0  0
  185.2580  177.3180  143.8770 C   0  0  1  0  0  3  0  0  0  0  0  0
  2  5  1  1  0  0  0
  2 11  1  0  0  0  0
  3  6  1  0  0  0  0
  4  7  2  0  0  0  0
  5 11  1  0  0  0  0
  7  6  1  0  0  0  0
  8  9  1  0  0  0  0
  9  4  1  0  0  0  0
  9  3  2  0  0  0  0
 10  1  1  6  0  0  0
 10  4  1  0  0  0  0
 11  8  1  6  0  0  0
 11 10  1  0  0  0  0
 12 16  1  6  0  0  0
 12 13  1  0  0  0  0
 12  2  1  0  0  0  0
 13 14  1  1  0  0  0
 15 17  1  0  0  0  0
 17 13  1  0  0  0  0
 18 15  1  0  0  0  0
 18 16  1  0  0  0  0
 19 26  1  0  0  0  0
 19 24  1  0  0  0  0
 20 24  1  0  0  0  0
 21 19  1  0  0  0  0
 22 20  1  0  0  0  0
 23  1  1  1  0  0  0
 23 21  1  0  0  0  0
 23 22  1  0  0  0  0
 26 25  1  6  0  0  0
 27 26  1  0  0  0  0
 28 27  1  0  0  0  0
 29 31  1  6  0  0  0
 29 33  1  0  0  0  0
 29 34  1  0  0  0  0
 30 35  1  0  0  0  0
 30 32  1  1  0  0  0
 33 30  1  0  0  0  0
 34 35  1  0  0  0  0
 35 28  1  1  0  0  0
M  END
>  <MODEL>
2

>  <REMARK>
 VINA RESULT:      -7.6      1.898      5.664
  Name = 
  7 active torsions:
  status: ('A' for Active; 'I' for Inactive)
    1  A    between atoms: C_1  and  C_8
    2  A    between atoms: N_2  and  C_34
    3  A    between atoms: C_22  and  C_25
    4  A    between atoms: C_25  and  C_27
    5  A    between atoms: C_32  and  C_33
    6  A    between atoms: C_32  and  C_34
    7  A    between atoms: C_33  and  C_35
                            x       y       z     vdW  Elec       q    Type
                         _______ _______ _______ _____ _____    ______ ____

>  <TORSDO>
F 7

$$$$
=
 OpenBabel11062421573D

 35 40  0  0  1  0  0  0  0  0999 V2000
  190.7330  173.8700  144.4870 C   0  0  0  0  0  2  0  0  0  0  0  0
  193.6200  173.6070  145.7110 C   0  0  2  0  0  3  0  0  0  0  0  0
  191.7630  177.0670  147.9840 C   0  0  0  0  0  3  0  0  0  0  0  0
  190.9920  175.8640  146.2500 C   0  0  0  0  0  0  0  0  0  0  0  0
  193.6190  174.4360  144.5190 O   0  0  0  0  0  0  0  0  0  0  0  0
  190.4070  177.0940  147.9800 O   0  0  0  0  0  0  0  0  0  0  0  0
  189.9370  176.3520  146.9990 C   0  0  0  0  0  3  0  0  0  0  0  0
  193.3710  175.8870  146.5100 C   0  0  0  0  0  2  0  0  0  0  0  0
  192.0850  176.3860  146.9530 C   0  0  0  0  0  0  0  0  0  0  0  0
  191.3600  174.5450  145.6800 C   0  0  2  0  0  3  0  0  0  0  0  0
  192.8170  174.8180  145.5990 C   0  0  2  0  0  0  0  0  0  0  0  0
  194.7770  172.6200  145.2550 C   0  0  1  0  0  3  0  0  0  0  0  0
  196.0790  173.0570  145.8330 C   0  0  2  0  0  3  0  0  0  0  0  0
  196.4610  174.3510  145.4100 O   0  0  0  0  0  1  0  0  0  0  0  0
  196.7290  170.6300  145.8170 C   0  0  0  0  0  2  0  0  0  0  0  0
  194.3230  171.3020  145.1450 O   0  0  0  0  0  0  0  0  0  0  0  0
  197.1530  172.0300  145.4180 C   0  0  0  0  0  2  0  0  0  0  0  0
  195.3910  170.2730  145.2130 C   0  0  0  0  0  2  0  0  0  0  0  0
  188.2860  175.3040  142.1420 N   0  0  0  0  0  0  0  0  0  0  0  0
  190.2630  174.0520  141.2200 C   0  0  0  0  0  2  0  0  0  0  0  0
  188.7260  175.2530  143.4970 C   0  0  0  0  0  2  0  0  0  0  0  0
  190.9650  174.9320  142.1930 C   0  0  0  0  0  2  0  0  0  0  0  0
  190.2520  174.9810  143.5580 C   0  0  2  0  0  3  0  0  0  0  0  0
  188.7740  174.3060  141.1440 C   0  0  0  0  0  2  0  0  0  0  0  0
  187.3750  176.4400  140.2900 O   0  0  0  0  0  1  0  0  0  0  0  0
  187.6770  176.5450  141.6420 C   0  0  1  0  0  3  0  0  0  0  0  0
  186.4250  176.8770  142.4970 C   0  0  0  0  0  2  0  0  0  0  0  0
  186.3320  178.3730  142.8580 C   0  0  0  0  0  2  0  0  0  0  0  0
  186.0300  178.0620  146.4600 C   0  0  2  0  0  3  0  0  0  0  0  0
  184.8680  179.2310  144.8520 C   0  0  1  0  0  3  0  0  0  0  0  0
  186.2390  177.0250  147.5940 C   0  0  0  0  0  1  0  0  0  0  0  0
  183.7490  178.9950  143.8450 C   0  0  0  0  0  1  0  0  0  0  0  0
  184.6000  178.4490  146.1110 C   0  0  0  0  0  2  0  0  0  0  0  0
  186.6420  177.6450  145.2260 N   0  0  0  0  0  2  0  0  0  0  0  0
  186.2350  178.7290  144.3410 C   0  0  1  0  0  3  0  0  0  0  0  0
  2  5  1  6  0  0  0
  4  9  1  0  0  0  0
  4  7  2  0  0  0  0
  5 11  1  0  0  0  0
  6  3  1  0  0  0  0
  7  6  1  0  0  0  0
  8  9  1  0  0  0  0
  9  3  2  0  0  0  0
 10  1  1  6  0  0  0
 10  4  1  0  0  0  0
 11 10  1  0  0  0  0
 11  2  1  0  0  0  0
 11  8  1  1  0  0  0
 12 16  1  1  0  0  0
 12  2  1  0  0  0  0
 12 13  1  0  0  0  0
 13 14  1  6  0  0  0
 16 18  1  0  0  0  0
 17 15  1  0  0  0  0
 17 13  1  0  0  0  0
 18 15  1  0  0  0  0
 19 21  1  0  0  0  0
 20 22  1  0  0  0  0
 21 23  1  0  0  0  0
 22 23  1  0  0  0  0
 23  1  1  6  0  0  0
 24 20  1  0  0  0  0
 24 19  1  0  0  0  0
 26 25  1  6  0  0  0
 26 19  1  0  0  0  0
 26 27  1  0  0  0  0
 27 28  1  0  0  0  0
 29 31  1  1  0  0  0
 30 32  1  6  0  0  0
 30 33  1  0  0  0  0
 33 29  1  0  0  0  0
 34 29  1  0  0  0  0
 35 28  1  6  0  0  0
 35 30  1  0  0  0  0
 35 34  1  0  0  0  0
M  END
>  <MODEL>
3

>  <REMARK>
 VINA RESULT:      -7.6      2.368      5.212
  Name = 
  7 active torsions:
  status: ('A' for Active; 'I' for Inactive)
    1  A    between atoms: C_1  and  C_8
    2  A    between atoms: N_2  and  C_34
    3  A    between atoms: C_22  and  C_25
    4  A    between atoms: C_25  and  C_27
    5  A    between atoms: C_32  and  C_33
    6  A    between atoms: C_32  and  C_34
    7  A    between atoms: C_33  and  C_35
                            x       y       z     vdW  Elec       q    Type
                         _______ _______ _______ _____ _____    ______ ____

>  <TORSDO>
F 7

$$$$
=
 OpenBabel11062421573D

 35 40  0  0  1  0  0  0  0  0999 V2000
  193.0670  176.4870  143.3990 C   0  0  0  0  0  2  0  0  0  0  0  0
  191.9760  173.5690  142.9590 C   0  0  2  0  0  3  0  0  0  0  0  0
  195.7620  172.9830  145.3900 C   0  0  0  0  0  3  0  0  0  0  0  0
  194.8650  174.8360  144.4890 C   0  0  0  0  0  0  0  0  0  0  0  0
  192.8000  174.0040  141.8460 O   0  0  0  0  0  0  0  0  0  0  0  0
  196.1680  174.0710  146.0910 O   0  0  0  0  0  0  0  0  0  0  0  0
  195.6110  175.1610  145.6060 C   0  0  0  0  0  3  0  0  0  0  0  0
  194.2150  172.7730  143.4630 C   0  0  0  0  0  2  0  0  0  0  0  0
  195.0430  173.4470  144.4430 C   0  0  0  0  0  0  0  0  0  0  0  0
  193.5100  175.1730  143.9890 C   0  0  2  0  0  3  0  0  0  0  0  0
  193.3660  173.9750  143.1250 C   0  0  2  0  0  0  0  0  0  0  0  0
  190.7160  173.1270  142.1010 C   0  0  1  0  0  3  0  0  0  0  0  0
  189.5440  172.8970  142.9920 C   0  0  2  0  0  3  0  0  0  0  0  0
  189.7690  171.8710  143.9400 O   0  0  0  0  0  1  0  0  0  0  0  0
  188.1160  173.6040  141.0490 C   0  0  0  0  0  2  0  0  0  0  0  0
  190.6920  173.7540  140.8510 O   0  0  0  0  0  0  0  0  0  0  0  0
  188.3340  172.5370  142.1060 C   0  0  0  0  0  2  0  0  0  0  0  0
  189.3550  173.7940  140.2060 C   0  0  0  0  0  2  0  0  0  0  0  0
  190.1040  176.1030  145.5480 N   0  0  0  0  0  0  0  0  0  0  0  0
  189.7880  176.8410  143.1630 C   0  0  0  0  0  2  0  0  0  0  0  0
  191.5280  176.1480  145.5060 C   0  0  0  0  0  2  0  0  0  0  0  0
  190.8820  177.7690  143.5630 C   0  0  0  0  0  2  0  0  0  0  0  0
  192.0040  177.0520  144.3370 C   0  0  2  0  0  3  0  0  0  0  0  0
  189.3090  175.9560  144.2920 C   0  0  0  0  0  2  0  0  0  0  0  0
  190.2790  177.3260  147.5530 O   0  0  0  0  0  1  0  0  0  0  0  0
  189.4160  176.5880  146.7520 C   0  0  1  0  0  3  0  0  0  0  0  0
  188.1680  177.4070  146.3280 C   0  0  0  0  0  2  0  0  0  0  0  0
  186.8450  176.7230  146.7310 C   0  0  0  0  0  2  0  0  0  0  0  0
  184.7520  177.9190  144.0200 C   0  0  2  0  0  3  0  0  0  0  0  0
  184.5350  177.8810  146.3120 C   0  0  1  0  0  3  0  0  0  0  0  0
  184.8670  178.5580  142.6110 C   0  0  0  0  0  1  0  0  0  0  0  0
  184.9730  178.6990  147.5200 C   0  0  0  0  0  1  0  0  0  0  0  0
  184.2370  178.7960  145.1520 C   0  0  0  0  0  2  0  0  0  0  0  0
  186.0080  177.3800  144.4730 N   0  0  0  0  0  2  0  0  0  0  0  0
  185.6430  176.9320  145.8110 C   0  0  1  0  0  3  0  0  0  0  0  0
  2  5  1  6  0  0  0
  2 11  1  0  0  0  0
  3  6  1  0  0  0  0
  4  7  2  0  0  0  0
  5 11  1  0  0  0  0
  7  6  1  0  0  0  0
  8  9  1  0  0  0  0
  9  4  1  0  0  0  0
  9  3  2  0  0  0  0
 10  1  1  6  0  0  0
 10  4  1  0  0  0  0
 11  8  1  1  0  0  0
 11 10  1  0  0  0  0
 12 16  1  6  0  0  0
 12  2  1  0  0  0  0
 12 13  1  0  0  0  0
 13 14  1  1  0  0  0
 15 17  1  0  0  0  0
 17 13  1  0  0  0  0
 18 16  1  0  0  0  0
 18 15  1  0  0  0  0
 19 26  1  0  0  0  0
 20 22  1  0  0  0  0
 20 24  1  0  0  0  0
 21 19  1  0  0  0  0
 22 23  1  0  0  0  0
 23  1  1  6  0  0  0
 23 21  1  0  0  0  0
 24 19  1  0  0  0  0
 26 25  1  6  0  0  0
 27 28  1  0  0  0  0
 27 26  1  0  0  0  0
 29 31  1  6  0  0  0
 29 34  1  0  0  0  0
 29 33  1  0  0  0  0
 30 32  1  1  0  0  0
 33 30  1  0  0  0  0
 34 35  1  0  0  0  0
 35 30  1  0  0  0  0
 35 28  1  1  0  0  0
M  END
>  <MODEL>
4

>  <REMARK>
 VINA RESULT:      -7.5      2.323      5.546
  Name = 
  7 active torsions:
  status: ('A' for Active; 'I' for Inactive)
    1  A    between atoms: C_1  and  C_8
    2  A    between atoms: N_2  and  C_34
    3  A    between atoms: C_22  and  C_25
    4  A    between atoms: C_25  and  C_27
    5  A    between atoms: C_32  and  C_33
    6  A    between atoms: C_32  and  C_34
    7  A    between atoms: C_33  and  C_35
                            x       y       z     vdW  Elec       q    Type
                         _______ _______ _______ _____ _____    ______ ____

>  <TORSDO>
F 7

$$$$
=
 OpenBabel11062421573D

 35 40  0  0  1  0  0  0  0  0999 V2000
  191.9990  177.8330  143.8900 C   0  0  0  0  0  2  0  0  0  0  0  0
  194.3450  175.9340  144.7760 C   0  0  2  0  0  3  0  0  0  0  0  0
  191.1750  175.3430  147.9680 C   0  0  0  0  0  3  0  0  0  0  0  0
  191.2600  176.7570  146.2240 C   0  0  0  0  0  0  0  0  0  0  0  0
  194.5380  177.2850  145.2690 O   0  0  0  0  0  0  0  0  0  0  0  0
  189.9150  175.6790  147.5950 O   0  0  0  0  0  0  0  0  0  0  0  0
  189.9460  176.4690  146.5410 C   0  0  0  0  0  3  0  0  0  0  0  0
  193.3760  175.9550  147.0040 C   0  0  0  0  0  2  0  0  0  0  0  0
  191.9400  176.0070  147.1920 C   0  0  0  0  0  0  0  0  0  0  0  0
  192.0620  176.7900  144.9770 C   0  0  2  0  0  3  0  0  0  0  0  0
  193.3770  176.5990  145.6380 C   0  0  2  0  0  0  0  0  0  0  0  0
  195.7700  175.7750  144.0950 C   0  0  1  0  0  3  0  0  0  0  0  0
  196.3460  174.4390  144.4190 C   0  0  2  0  0  3  0  0  0  0  0  0
  196.5380  174.2470  145.8080 O   0  0  0  0  0  1  0  0  0  0  0  0
  197.5120  174.5690  142.1970 C   0  0  0  0  0  2  0  0  0  0  0  0
  195.8290  176.4210  142.8560 O   0  0  0  0  0  0  0  0  0  0  0  0
  197.6940  174.3100  143.6810 C   0  0  0  0  0  2  0  0  0  0  0  0
  196.9010  175.9290  141.9540 C   0  0  0  0  0  2  0  0  0  0  0  0
  188.7780  176.3560  142.8940 N   0  0  0  0  0  0  0  0  0  0  0  0
  190.7550  174.8390  143.2430 C   0  0  0  0  0  2  0  0  0  0  0  0
  189.5160  177.5640  143.0620 C   0  0  0  0  0  2  0  0  0  0  0  0
  191.3930  175.8780  142.3890 C   0  0  0  0  0  2  0  0  0  0  0  0
  191.0290  177.3070  142.8350 C   0  0  2  0  0  3  0  0  0  0  0  0
  189.2780  175.0720  143.4700 C   0  0  0  0  0  2  0  0  0  0  0  0
  187.8860  175.1320  141.0900 O   0  0  0  0  0  1  0  0  0  0  0  0
  187.7530  176.2930  141.8420 C   0  0  1  0  0  3  0  0  0  0  0  0
  186.3500  176.4100  142.4940 C   0  0  0  0  0  2  0  0  0  0  0  0
  185.9390  177.8730  142.7590 C   0  0  0  0  0  2  0  0  0  0  0  0
  186.0990  178.0130  146.3800 C   0  0  2  0  0  3  0  0  0  0  0  0
  184.9250  179.1860  144.7830 C   0  0  1  0  0  3  0  0  0  0  0  0
  186.2960  177.0850  147.6060 C   0  0  0  0  0  1  0  0  0  0  0  0
  183.6530  179.0420  143.9570 C   0  0  0  0  0  1  0  0  0  0  0  0
  184.7150  178.6050  146.1570 C   0  0  0  0  0  2  0  0  0  0  0  0
  186.4570  177.3630  145.1470 N   0  0  0  0  0  2  0  0  0  0  0  0
  186.1090  178.4000  144.1830 C   0  0  1  0  0  3  0  0  0  0  0  0
  2  5  1  6  0  0  0
  2 11  1  0  0  0  0
  4  7  2  0  0  0  0
  4  9  1  0  0  0  0
  5 11  1  0  0  0  0
  6  3  1  0  0  0  0
  7  6  1  0  0  0  0
  8  9  1  0  0  0  0
  9  3  2  0  0  0  0
 10  1  1  1  0  0  0
 10 11  1  0  0  0  0
 10  4  1  0  0  0  0
 11  8  1  1  0  0  0
 12 16  1  6  0  0  0
 12 13  1  0  0  0  0
 12  2  1  0  0  0  0
 13 14  1  1  0  0  0
 15 17  1  0  0  0  0
 17 13  1  0  0  0  0
 18 15  1  0  0  0  0
 18 16  1  0  0  0  0
 19 21  1  0  0  0  0
 19 24  1  0  0  0  0
 20 24  1  0  0  0  0
 22 23  1  0  0  0  0
 22 20  1  0  0  0  0
 23 21  1  0  0  0  0
 23  1  1  1  0  0  0
 26 25  1  1  0  0  0
 26 27  1  0  0  0  0
 26 19  1  0  0  0  0
 27 28  1  0  0  0  0
 29 31  1  1  0  0  0
 30 32  1  6  0  0  0
 30 33  1  0  0  0  0
 33 29  1  0  0  0  0
 34 29  1  0  0  0  0
 35 28  1  6  0  0  0
 35 30  1  0  0  0  0
 35 34  1  0  0  0  0
M  END
>  <MODEL>
5

>  <REMARK>
 VINA RESULT:      -7.5      2.708      5.426
  Name = 
  7 active torsions:
  status: ('A' for Active; 'I' for Inactive)
    1  A    between atoms: C_1  and  C_8
    2  A    between atoms: N_2  and  C_34
    3  A    between atoms: C_22  and  C_25
    4  A    between atoms: C_25  and  C_27
    5  A    between atoms: C_32  and  C_33
    6  A    between atoms: C_32  and  C_34
    7  A    between atoms: C_33  and  C_35
                            x       y       z     vdW  Elec       q    Type
                         _______ _______ _______ _____ _____    ______ ____

>  <TORSDO>
F 7

$$$$
=
 OpenBabel11062421573D

 35 40  0  0  1  0  0  0  0  0999 V2000
  193.1160  173.6670  142.9620 C   0  0  0  0  0  2  0  0  0  0  0  0
  192.5850  176.0440  144.9530 C   0  0  2  0  0  3  0  0  0  0  0  0
  196.7360  176.8740  143.3190 C   0  0  0  0  0  3  0  0  0  0  0  0
  195.3560  175.1270  143.0110 C   0  0  0  0  0  0  0  0  0  0  0  0
  193.1250  174.8850  145.6390 O   0  0  0  0  0  0  0  0  0  0  0  0
  197.0150  176.2780  142.1330 O   0  0  0  0  0  0  0  0  0  0  0  0
  196.1820  175.2820  141.9140 C   0  0  0  0  0  3  0  0  0  0  0  0
  194.9880  176.3900  145.0110 C   0  0  0  0  0  2  0  0  0  0  0  0
  195.8030  176.1700  143.8320 C   0  0  0  0  0  0  0  0  0  0  0  0
  193.9010  174.9280  143.2190 C   0  0  2  0  0  3  0  0  0  0  0  0
  193.8720  175.4580  144.6040 C   0  0  2  0  0  0  0  0  0  0  0  0
  191.3250  176.2530  145.8950 C   0  0  1  0  0  3  0  0  0  0  0  0
  190.2070  176.8690  145.1270 C   0  0  2  0  0  3  0  0  0  0  0  0
  190.5360  178.1420  144.6040 O   0  0  0  0  0  1  0  0  0  0  0  0
  188.6600  175.6380  146.6790 C   0  0  0  0  0  2  0  0  0  0  0  0
  191.2100  175.2320  146.8440 O   0  0  0  0  0  0  0  0  0  0  0  0
  188.9900  176.9870  146.0670 C   0  0  0  0  0  2  0  0  0  0  0  0
  189.8500  175.0710  147.4170 C   0  0  0  0  0  2  0  0  0  0  0  0
  189.5880  173.2280  142.0110 N   0  0  0  0  0  0  0  0  0  0  0  0
  191.3740  172.2140  140.5570 C   0  0  0  0  0  2  0  0  0  0  0  0
  190.4980  173.9100  142.8710 C   0  0  0  0  0  2  0  0  0  0  0  0
  191.9370  173.5830  140.7160 C   0  0  0  0  0  2  0  0  0  0  0  0
  191.8750  174.0760  142.1740 C   0  0  2  0  0  3  0  0  0  0  0  0
  190.0290  172.0360  141.2260 C   0  0  0  0  0  2  0  0  0  0  0  0
  187.2360  173.1530  141.9160 O   0  0  0  0  0  1  0  0  0  0  0  0
  188.3550  173.9140  141.5990 C   0  0  1  0  0  3  0  0  0  0  0  0
  188.3130  175.3190  142.2550 C   0  0  0  0  0  2  0  0  0  0  0  0
  186.8760  175.7860  142.5660 C   0  0  0  0  0  2  0  0  0  0  0  0
  185.4630  178.3700  144.6840 C   0  0  2  0  0  3  0  0  0  0  0  0
  186.3960  178.3590  142.5780 C   0  0  1  0  0  3  0  0  0  0  0  0
  184.3540  178.5710  145.7490 C   0  0  0  0  0  1  0  0  0  0  0  0
  185.9820  178.0670  141.1420 C   0  0  0  0  0  1  0  0  0  0  0  0
  185.2570  179.0100  143.3190 C   0  0  0  0  0  2  0  0  0  0  0  0
  185.7270  176.9770  144.4340 N   0  0  0  0  0  2  0  0  0  0  0  0
  186.7180  177.0750  143.3710 C   0  0  1  0  0  3  0  0  0  0  0  0
  2  5  1  6  0  0  0
  2 12  1  0  0  0  0
  3  9  2  0  0  0  0
  4 10  1  0  0  0  0
  4  9  1  0  0  0  0
  6  3  1  0  0  0  0
  7  6  1  0  0  0  0
  7  4  2  0  0  0  0
  9  8  1  0  0  0  0
 10  1  1  1  0  0  0
 10 11  1  0  0  0  0
 11  2  1  0  0  0  0
 11  8  1  1  0  0  0
 11  5  1  0  0  0  0
 12 16  1  6  0  0  0
 13 14  1  1  0  0  0
 13 12  1  0  0  0  0
 13 17  1  0  0  0  0
 15 18  1  0  0  0  0
 16 18  1  0  0  0  0
 17 15  1  0  0  0  0
 19 21  1  0  0  0  0
 20 22  1  0  0  0  0
 20 24  1  0  0  0  0
 22 23  1  0  0  0  0
 23 21  1  0  0  0  0
 23  1  1  1  0  0  0
 24 19  1  0  0  0  0
 26 25  1  1  0  0  0
 26 19  1  0  0  0  0
 26 27  1  0  0  0  0
 27 28  1  0  0  0  0
 29 31  1  1  0  0  0
 30 32  1  6  0  0  0
 30 33  1  0  0  0  0
 30 35  1  0  0  0  0
 33 29  1  0  0  0  0
 34 29  1  0  0  0  0
 35 28  1  6  0  0  0
 35 34  1  0  0  0  0
M  END
>  <MODEL>
6

>  <REMARK>
 VINA RESULT:      -7.5      2.520      5.343
  Name = 
  7 active torsions:
  status: ('A' for Active; 'I' for Inactive)
    1  A    between atoms: C_1  and  C_8
    2  A    between atoms: N_2  and  C_34
    3  A    between atoms: C_22  and  C_25
    4  A    between atoms: C_25  and  C_27
    5  A    between atoms: C_32  and  C_33
    6  A    between atoms: C_32  and  C_34
    7  A    between atoms: C_33  and  C_35
                            x       y       z     vdW  Elec       q    Type
                         _______ _______ _______ _____ _____    ______ ____

>  <TORSDO>
F 7

$$$$
=
 OpenBabel11062421573D

 35 40  0  0  1  0  0  0  0  0999 V2000
  190.1860  172.9320  144.9480 C   0  0  0  0  0  2  0  0  0  0  0  0
  192.7850  172.3370  143.2780 C   0  0  2  0  0  3  0  0  0  0  0  0
  189.4320  172.1040  140.2300 C   0  0  0  0  0  3  0  0  0  0  0  0
  189.3770  172.3830  142.4590 C   0  0  0  0  0  0  0  0  0  0  0  0
  192.2600  171.1330  143.8940 O   0  0  0  0  0  0  0  0  0  0  0  0
  188.2940  172.7550  140.5780 O   0  0  0  0  0  0  0  0  0  0  0  0
  188.2700  172.9710  141.8770 C   0  0  0  0  0  3  0  0  0  0  0  0
  191.3470  171.3260  141.6020 C   0  0  0  0  0  2  0  0  0  0  0  0
  190.0260  171.8590  141.3330 C   0  0  0  0  0  0  0  0  0  0  0  0
  190.3890  172.7980  143.4600 C   0  0  2  0  0  3  0  0  0  0  0  0
  191.4380  171.8460  143.0160 C   0  0  2  0  0  0  0  0  0  0  0  0
  194.2710  172.1950  143.8180 C   0  0  1  0  0  3  0  0  0  0  0  0
  194.3180  172.5060  145.2750 C   0  0  2  0  0  3  0  0  0  0  0  0
  193.9040  173.8270  145.5680 O   0  0  0  0  0  1  0  0  0  0  0  0
  196.2400  170.8930  145.4050 C   0  0  0  0  0  2  0  0  0  0  0  0
  194.9640  171.1680  143.1710 O   0  0  0  0  0  0  0  0  0  0  0  0
  195.7650  172.2880  145.7630 C   0  0  0  0  0  2  0  0  0  0  0  0
  196.1380  170.6480  143.9180 C   0  0  0  0  0  2  0  0  0  0  0  0
  190.6870  176.5770  145.0490 N   0  0  0  0  0  0  0  0  0  0  0  0
  190.9490  175.2550  147.1730 C   0  0  0  0  0  2  0  0  0  0  0  0
  190.2290  175.4740  144.2700 C   0  0  0  0  0  2  0  0  0  0  0  0
  189.6550  174.6950  146.6950 C   0  0  0  0  0  2  0  0  0  0  0  0
  189.6840  174.3520  145.1940 C   0  0  2  0  0  3  0  0  0  0  0  0
  191.4920  176.3530  146.2870 C   0  0  0  0  0  2  0  0  0  0  0  0
  190.8310  178.7090  144.0560 O   0  0  0  0  0  1  0  0  0  0  0  0
  190.0500  177.8880  144.8620 C   0  0  1  0  0  3  0  0  0  0  0  0
  188.6260  177.6820  144.2820 C   0  0  0  0  0  2  0  0  0  0  0  0
  187.5500  177.5580  145.3800 C   0  0  0  0  0  2  0  0  0  0  0  0
  184.4410  177.9140  143.5440 C   0  0  2  0  0  3  0  0  0  0  0  0
  185.0050  178.0290  145.7740 C   0  0  1  0  0  3  0  0  0  0  0  0
  183.9070  178.4290  142.1820 C   0  0  0  0  0  1  0  0  0  0  0  0
  185.5700  179.0400  146.7640 C   0  0  0  0  0  1  0  0  0  0  0  0
  184.1040  178.7250  144.7870 C   0  0  0  0  0  2  0  0  0  0  0  0
  185.8730  177.7650  143.5420 N   0  0  0  0  0  2  0  0  0  0  0  0
  186.1050  177.3600  144.9230 C   0  0  1  0  0  3  0  0  0  0  0  0
  2 12  1  0  0  0  0
  2  5  1  1  0  0  0
  3  6  1  0  0  0  0
  3  9  2  0  0  0  0
  4 10  1  0  0  0  0
  6  7  1  0  0  0  0
  7  4  2  0  0  0  0
  9  8  1  0  0  0  0
  9  4  1  0  0  0  0
 10  1  1  1  0  0  0
 11  8  1  6  0  0  0
 11  2  1  0  0  0  0
 11 10  1  0  0  0  0
 11  5  1  0  0  0  0
 12 16  1  1  0  0  0
 12 13  1  0  0  0  0
 13 14  1  6  0  0  0
 13 17  1  0  0  0  0
 15 17  1  0  0  0  0
 16 18  1  0  0  0  0
 18 15  1  0  0  0  0
 19 24  1  0  0  0  0
 21 19  1  0  0  0  0
 21 23  1  0  0  0  0
 22 20  1  0  0  0  0
 23  1  1  1  0  0  0
 23 22  1  0  0  0  0
 24 20  1  0  0  0  0
 26 25  1  6  0  0  0
 26 19  1  0  0  0  0
 27 26  1  0  0  0  0
 27 28  1  0  0  0  0
 29 31  1  6  0  0  0
 29 33  1  0  0  0  0
 30 32  1  1  0  0  0
 33 30  1  0  0  0  0
 34 29  1  0  0  0  0
 34 35  1  0  0  0  0
 35 28  1  1  0  0  0
 35 30  1  0  0  0  0
M  END
>  <MODEL>
7

>  <REMARK>
 VINA RESULT:      -7.5      2.536      4.523
  Name = 
  7 active torsions:
  status: ('A' for Active; 'I' for Inactive)
    1  A    between atoms: C_1  and  C_8
    2  A    between atoms: N_2  and  C_34
    3  A    between atoms: C_22  and  C_25
    4  A    between atoms: C_25  and  C_27
    5  A    between atoms: C_32  and  C_33
    6  A    between atoms: C_32  and  C_34
    7  A    between atoms: C_33  and  C_35
                            x       y       z     vdW  Elec       q    Type
                         _______ _______ _______ _____ _____    ______ ____

>  <TORSDO>
F 7

$$$$
=
 OpenBabel11062421573D

 35 40  0  0  1  0  0  0  0  0999 V2000
  189.4370  175.0070  144.8620 C   0  0  0  0  0  2  0  0  0  0  0  0
  187.0370  176.8510  144.0010 C   0  0  2  0  0  3  0  0  0  0  0  0
  188.1920  174.6810  140.1870 C   0  0  0  0  0  3  0  0  0  0  0  0
  189.1380  174.6770  142.2250 C   0  0  0  0  0  0  0  0  0  0  0  0
  188.3020  177.5590  143.9390 O   0  0  0  0  0  0  0  0  0  0  0  0
  188.8720  173.5210  140.3700 O   0  0  0  0  0  0  0  0  0  0  0  0
  189.3910  173.4820  141.5790 C   0  0  0  0  0  3  0  0  0  0  0  0
  187.8070  176.6000  141.7110 C   0  0  0  0  0  2  0  0  0  0  0  0
  188.3910  175.3550  141.2530 C   0  0  0  0  0  0  0  0  0  0  0  0
  188.6580  175.0690  143.5730 C   0  0  2  0  0  3  0  0  0  0  0  0
  188.1460  176.4020  143.1690 C   0  0  2  0  0  0  0  0  0  0  0  0
  186.2670  177.9150  144.8920 C   0  0  1  0  0  3  0  0  0  0  0  0
  184.8170  177.9160  144.5510 C   0  0  2  0  0  3  0  0  0  0  0  0
  184.5710  178.2650  143.2020 O   0  0  0  0  0  1  0  0  0  0  0  0
  184.4070  178.5840  146.9380 C   0  0  0  0  0  2  0  0  0  0  0  0
  186.8130  178.0100  146.1770 O   0  0  0  0  0  0  0  0  0  0  0  0
  184.1070  178.9140  145.4880 C   0  0  0  0  0  2  0  0  0  0  0  0
  185.8960  178.5790  147.1970 C   0  0  0  0  0  2  0  0  0  0  0  0
  193.0760  174.5920  145.2290 N   0  0  0  0  0  0  0  0  0  0  0  0
  191.9050  176.3360  146.6140 C   0  0  0  0  0  2  0  0  0  0  0  0
  191.9240  174.2480  144.4620 C   0  0  0  0  0  2  0  0  0  0  0  0
  191.3230  176.6530  145.2810 C   0  0  0  0  0  2  0  0  0  0  0  0
  190.8750  175.3900  144.5220 C   0  0  2  0  0  3  0  0  0  0  0  0
  192.9340  175.2280  146.5730 C   0  0  0  0  0  2  0  0  0  0  0  0
  194.4960  173.7090  143.5700 O   0  0  0  0  0  1  0  0  0  0  0  0
  194.3760  174.6880  144.5490 C   0  0  1  0  0  3  0  0  0  0  0  0
  194.5430  176.1180  143.9710 C   0  0  0  0  0  2  0  0  0  0  0  0
  196.0110  176.5890  143.9670 C   0  0  0  0  0  2  0  0  0  0  0  0
  196.8960  175.6860  140.5670 C   0  0  2  0  0  3  0  0  0  0  0  0
  197.9410  175.4600  142.6070 C   0  0  1  0  0  3  0  0  0  0  0  0
  196.2380  175.2150  139.2440 C   0  0  0  0  0  1  0  0  0  0  0  0
  197.9340  174.5140  143.8010 C   0  0  0  0  0  1  0  0  0  0  0  0
  197.7430  174.6800  141.3320 C   0  0  0  0  0  2  0  0  0  0  0  0
  195.9250  176.1850  141.5060 N   0  0  0  0  0  2  0  0  0  0  0  0
  196.7790  176.4730  142.6520 C   0  0  1  0  0  3  0  0  0  0  0  0
  2  5  1  1  0  0  0
  2 12  1  0  0  0  0
  3  6  1  0  0  0  0
  3  9  2  0  0  0  0
  4 10  1  0  0  0  0
  6  7  1  0  0  0  0
  7  4  2  0  0  0  0
  9  8  1  0  0  0  0
  9  4  1  0  0  0  0
 10  1  1  1  0  0  0
 11  8  1  6  0  0  0
 11 10  1  0  0  0  0
 11  5  1  0  0  0  0
 11  2  1  0  0  0  0
 12 16  1  1  0  0  0
 13 14  1  6  0  0  0
 13 12  1  0  0  0  0
 13 17  1  0  0  0  0
 15 18  1  0  0  0  0
 16 18  1  0  0  0  0
 17 15  1  0  0  0  0
 19 24  1  0  0  0  0
 21 23  1  0  0  0  0
 21 19  1  0  0  0  0
 22 20  1  0  0  0  0
 23  1  1  1  0  0  0
 23 22  1  0  0  0  0
 24 20  1  0  0  0  0
 26 25  1  6  0  0  0
 26 19  1  0  0  0  0
 27 26  1  0  0  0  0
 28 27  1  0  0  0  0
 29 31  1  6  0  0  0
 29 33  1  0  0  0  0
 29 34  1  0  0  0  0
 30 35  1  0  0  0  0
 30 32  1  1  0  0  0
 33 30  1  0  0  0  0
 34 35  1  0  0  0  0
 35 28  1  1  0  0  0
M  END
>  <MODEL>
8

>  <REMARK>
 VINA RESULT:      -7.5      3.516      8.149
  Name = 
  7 active torsions:
  status: ('A' for Active; 'I' for Inactive)
    1  A    between atoms: C_1  and  C_8
    2  A    between atoms: N_2  and  C_34
    3  A    between atoms: C_22  and  C_25
    4  A    between atoms: C_25  and  C_27
    5  A    between atoms: C_32  and  C_33
    6  A    between atoms: C_32  and  C_34
    7  A    between atoms: C_33  and  C_35
                            x       y       z     vdW  Elec       q    Type
                         _______ _______ _______ _____ _____    ______ ____

>  <TORSDO>
F 7

$$$$
=
 OpenBabel11062421573D

 35 40  0  0  1  0  0  0  0  0999 V2000
  189.7470  175.0050  144.9250 C   0  0  0  0  0  2  0  0  0  0  0  0
  187.2300  176.7150  144.1280 C   0  0  2  0  0  3  0  0  0  0  0  0
  188.3610  174.5560  140.3000 C   0  0  0  0  0  3  0  0  0  0  0  0
  189.3750  174.6270  142.3040 C   0  0  0  0  0  0  0  0  0  0  0  0
  188.4550  177.4850  144.0140 O   0  0  0  0  0  0  0  0  0  0  0  0
  189.1040  173.4350  140.4730 O   0  0  0  0  0  0  0  0  0  0  0  0
  189.6660  173.4370  141.6640 C   0  0  0  0  0  3  0  0  0  0  0  0
  187.9320  176.4730  141.8150 C   0  0  0  0  0  2  0  0  0  0  0  0
  188.5620  175.2530  141.3510 C   0  0  0  0  0  0  0  0  0  0  0  0
  188.9220  175.0110  143.6630 C   0  0  2  0  0  3  0  0  0  0  0  0
  188.3300  176.3110  143.2630 C   0  0  2  0  0  0  0  0  0  0  0  0
  186.4380  177.7510  145.0330 C   0  0  1  0  0  3  0  0  0  0  0  0
  185.0120  177.8190  144.6070 C   0  0  2  0  0  3  0  0  0  0  0  0
  184.8580  178.2510  143.2690 O   0  0  0  0  0  1  0  0  0  0  0  0
  184.4780  178.3630  147.0020 C   0  0  0  0  0  2  0  0  0  0  0  0
  186.9080  177.7550  146.3500 O   0  0  0  0  0  0  0  0  0  0  0  0
  184.2750  178.7840  145.5580 C   0  0  0  0  0  2  0  0  0  0  0  0
  185.9470  178.2950  147.3470 C   0  0  0  0  0  2  0  0  0  0  0  0
  193.4230  174.8620  145.0410 N   0  0  0  0  0  0  0  0  0  0  0  0
  192.2130  176.3500  146.6690 C   0  0  0  0  0  2  0  0  0  0  0  0
  192.2550  174.5020  144.3070 C   0  0  0  0  0  2  0  0  0  0  0  0
  191.5230  176.7520  145.4130 C   0  0  0  0  0  2  0  0  0  0  0  0
  191.1260  175.5400  144.5490 C   0  0  2  0  0  3  0  0  0  0  0  0
  193.3190  175.3420  146.4510 C   0  0  0  0  0  2  0  0  0  0  0  0
  194.8670  176.5020  144.1620 O   0  0  0  0  0  1  0  0  0  0  0  0
  194.6650  175.1350  144.3040 C   0  0  1  0  0  3  0  0  0  0  0  0
  195.8480  174.4400  145.0290 C   0  0  0  0  0  2  0  0  0  0  0  0
  196.0060  172.9600  144.6250 C   0  0  0  0  0  2  0  0  0  0  0  0
  196.5430  169.9280  146.5420 C   0  0  2  0  0  3  0  0  0  0  0  0
  194.6690  171.0410  145.8000 C   0  0  1  0  0  3  0  0  0  0  0  0
  197.5440  168.7500  146.6640 C   0  0  0  0  0  1  0  0  0  0  0  0
  193.8250  171.1530  144.5370 C   0  0  0  0  0  1  0  0  0  0  0  0
  195.1680  169.6290  145.9620 C   0  0  0  0  0  2  0  0  0  0  0  0
  197.0770  171.0130  145.7620 N   0  0  0  0  0  2  0  0  0  0  0  0
  195.9360  171.9200  145.7410 C   0  0  1  0  0  3  0  0  0  0  0  0
  2  5  1  1  0  0  0
  2 12  1  0  0  0  0
  3  6  1  0  0  0  0
  3  9  2  0  0  0  0
  4 10  1  0  0  0  0
  6  7  1  0  0  0  0
  7  4  2  0  0  0  0
  9  8  1  0  0  0  0
  9  4  1  0  0  0  0
 10  1  1  1  0  0  0
 11  8  1  6  0  0  0
 11 10  1  0  0  0  0
 11  5  1  0  0  0  0
 11  2  1  0  0  0  0
 12 16  1  1  0  0  0
 13 14  1  6  0  0  0
 13 12  1  0  0  0  0
 13 17  1  0  0  0  0
 15 18  1  0  0  0  0
 16 18  1  0  0  0  0
 17 15  1  0  0  0  0
 19 24  1  0  0  0  0
 21 23  1  0  0  0  0
 21 19  1  0  0  0  0
 22 20  1  0  0  0  0
 23  1  1  1  0  0  0
 23 22  1  0  0  0  0
 24 20  1  0  0  0  0
 26 25  1  1  0  0  0
 26 27  1  0  0  0  0
 26 19  1  0  0  0  0
 28 27  1  0  0  0  0
 29 31  1  6  0  0  0
 30 32  1  6  0  0  0
 30 33  1  0  0  0  0
 33 29  1  0  0  0  0
 34 29  1  0  0  0  0
 35 28  1  6  0  0  0
 35 34  1  0  0  0  0
 35 30  1  0  0  0  0
M  END
>  <MODEL>
9

>  <REMARK>
 VINA RESULT:      -7.4      3.535      8.114
  Name = 
  7 active torsions:
  status: ('A' for Active; 'I' for Inactive)
    1  A    between atoms: C_1  and  C_8
    2  A    between atoms: N_2  and  C_34
    3  A    between atoms: C_22  and  C_25
    4  A    between atoms: C_25  and  C_27
    5  A    between atoms: C_32  and  C_33
    6  A    between atoms: C_32  and  C_34
    7  A    between atoms: C_33  and  C_35
                            x       y       z     vdW  Elec       q    Type
                         _______ _______ _______ _____ _____    ______ ____

>  <TORSDO>
F 7

$$$$
