=
 OpenBabel11062418413D

 69 76  0  0  1  0  0  0  0  0999 V2000
  190.6980  176.6470  143.3710 C   0  0  1  0  0  3  0  0  0  0  0  0
  193.3310  177.0270  142.1910 O   0  0  0  0  0  1  0  0  0  0  0  0
  193.0550  175.9050  142.9850 C   0  0  1  0  0  3  0  0  0  0  0  0
  192.0180  176.2500  144.0430 C   0  0  0  0  0  2  0  0  0  0  0  0
  191.0310  174.8200  141.8750 C   0  0  2  0  0  3  0  0  0  0  0  0
  192.5400  174.7380  142.1390 C   0  0  2  0  0  0  0  0  0  0  0  0
  192.6690  173.4590  142.9400 C   0  0  1  0  0  3  0  0  0  0  0  0
  191.3070  172.8040  142.8360 C   0  0  2  0  0  3  0  0  0  0  0  0
  193.2250  174.6630  140.9210 O   0  0  0  0  0  1  0  0  0  0  0  0
  190.4280  176.0940  142.0870 O   0  0  0  0  0  0  0  0  0  0  0  0
  190.3550  173.7990  142.5710 O   0  0  0  0  0  0  0  0  0  0  0  0
  195.5470  170.9340  138.9560 O   0  0  0  0  0  0  0  0  0  0  0  0
  193.8260  172.5040  142.6130 C   0  0  1  0  0  3  0  0  0  0  0  0
  197.1430  171.2450  137.2040 C   0  0  0  0  0  1  0  0  0  0  0  0
  194.3010  169.2020  137.9700 C   0  0  0  0  0  2  0  0  0  0  0  0
  195.5910  170.3400  142.7310 C   0  0  1  0  0  3  0  0  0  0  0  0
  193.1610  171.0700  139.3000 C   0  0  2  0  0  3  0  0  0  0  0  0
  195.6020  171.5800  143.4120 O   0  0  0  0  0  0  0  0  0  0  0  0
  194.3520  171.8670  143.7460 O   0  0  0  0  0  0  0  0  0  0  0  0
  195.1250  169.8540  136.8950 C   0  0  0  0  0  2  0  0  0  0  0  0
  194.3980  170.1400  139.1580 C   0  0  2  0  0  0  0  0  0  0  0  0
  194.5800  169.3500  140.4520 C   0  0  0  0  0  2  0  0  0  0  0  0
  193.4750  171.4590  141.5620 C   0  0  1  0  0  3  0  0  0  0  0  0
  195.6810  171.0820  137.5650 C   0  0  1  0  0  3  0  0  0  0  0  0
  193.4390  172.0580  140.2790 O   0  0  0  0  0  0  0  0  0  0  0  0
  194.4840  170.2940  141.6510 C   0  0  2  0  0  3  0  0  0  0  0  0
  197.5020  168.9720  142.2580 O   0  0  0  0  0  1  0  0  0  0  0  0
  197.5860  171.1210  141.4610 O   0  0  0  0  0  0  0  0  0  0  0  0
  196.9440  170.0980  142.1420 C   0  0  0  0  0  0  0  0  0  0  0  0
  191.4220  170.6070  140.8790 O   0  0  0  0  0  1  0  0  0  0  0  0
  191.7450  170.4620  139.5280 C   0  0  1  0  0  3  0  0  0  0  0  0
  191.1840  169.4350  136.9640 O   0  0  0  0  0  1  0  0  0  0  0  0
  190.6180  171.0300  138.6530 C   0  0  1  0  0  3  0  0  0  0  0  0
  191.0490  172.1740  137.9720 O   0  0  0  0  0  0  0  0  0  0  0  0
  189.7740  170.7820  135.3020 F   0  0  0  0  0  0  0  0  0  0  0  0
  190.1120  170.0960  137.5780 C   0  0  1  0  0  3  0  0  0  0  0  0
  189.5320  171.1100  136.6300 C   0  0  1  0  0  3  0  0  0  0  0  0
  190.0870  172.4130  137.0340 N   0  0  2  0  0  0  0  0  0  0  0  0
  189.9690  174.3710  135.5010 C   0  0  1  0  0  0  0  0  0  0  0  0
  190.7290  173.1070  135.9140 C   0  0  1  0  0  3  0  0  0  0  0  0
  191.2160  174.4760  136.3570 C   0  0  1  0  0  3  0  0  0  0  0  0
  190.9410  175.5110  135.2870 C   0  0  0  0  0  2  0  0  0  0  0  0
  188.8060  174.7830  136.3890 C   0  0  0  0  0  1  0  0  0  0  0  0
  190.9230  172.0280  144.1010 C   0  0  0  0  0  0  0  0  0  0  0  0
  191.5430  172.5820  145.2100 F   0  0  0  0  0  0  0  0  0  0  0  0
  191.3770  170.7280  143.9680 F   0  0  0  0  0  0  0  0  0  0  0  0
  189.2960  171.8590  145.5730 F   0  0  0  0  0  0  0  0  0  0  0  0
  189.5270  171.9890  144.2720 O   0  0  0  0  0  0  0  0  0  0  0  0
  189.7730  177.6670  145.3340 O   0  0  0  0  0  1  0  0  0  0  0  0
  189.4680  176.7750  144.3000 C   0  0  1  0  0  0  0  0  0  0  0  0
  188.2910  177.3690  143.4930 C   0  0  1  0  0  3  0  0  0  0  0  0
  188.5110  177.2430  142.1120 O   0  0  0  0  0  0  0  0  0  0  0  0
  187.4520  177.9210  141.5130 C   0  0  0  0  0  1  0  0  0  0  0  0
  187.0880  176.6850  143.8330 O   0  0  0  0  0  0  0  0  0  0  0  0
  186.2550  177.1000  144.8760 C   0  0  0  0  0  0  0  0  0  0  0  0
  185.5790  176.2620  145.5310 O   0  0  0  0  0  0  0  0  0  0  0  0
  186.2040  178.5430  145.2580 C   0  0  1  0  0  3  0  0  0  0  0  0
  184.3680  178.0260  143.3280 O   0  0  0  0  0  1  0  0  0  0  0  0
  183.5820  178.9830  145.5740 O   0  0  0  0  0  1  0  0  0  0  0  0
  184.7770  179.3550  144.3660 P   0  0  0  0  0  0  0  0  0  0  0  0
  187.1800  178.2320  147.4190 O   0  0  0  0  0  1  0  0  0  0  0  0
  186.0290  178.6680  146.7620 C   0  0  0  0  0  2  0  0  0  0  0  0
  189.1230  175.4300  144.9630 C   0  0  0  0  0  2  0  0  0  0  0  0
  189.1140  175.4500  146.4880 C   0  0  0  0  0  2  0  0  0  0  0  0
  190.2880  174.6600  147.0450 C   0  0  0  0  0  2  0  0  0  0  0  0
  191.2470  175.5260  147.8540 C   0  0  0  0  0  0  0  0  0  0  0  0
  191.4970  174.9410  149.0820 F   0  0  0  0  0  0  0  0  0  0  0  0
  192.4380  175.6350  147.1580 F   0  0  0  0  0  0  0  0  0  0  0  0
  190.7150  176.7890  148.0360 F   0  0  0  0  0  0  0  0  0  0  0  0
  1  4  1  0  0  0  0
  1 50  1  1  0  0  0
  3  2  1  6  0  0  0
  3  4  1  0  0  0  0
  5 10  1  1  0  0  0
  5  6  1  0  0  0  0
  5 11  1  0  0  0  0
  6  9  1  6  0  0  0
  6  7  1  0  0  0  0
  6  3  1  0  0  0  0
  7 13  1  6  0  0  0
  8  7  1  0  0  0  0
  8 44  1  1  0  0  0
 10  1  1  0  0  0  0
 11  8  1  0  0  0  0
 12 21  1  0  0  0  0
 13 19  1  1  0  0  0
 16 29  1  6  0  0  0
 16 18  1  0  0  0  0
 17 31  1  1  0  0  0
 17 25  1  0  0  0  0
 18 19  1  0  0  0  0
 20 24  1  0  0  0  0
 20 15  1  0  0  0  0
 21 15  1  6  0  0  0
 21 17  1  0  0  0  0
 21 22  1  0  0  0  0
 23 25  1  6  0  0  0
 23 26  1  0  0  0  0
 23 13  1  0  0  0  0
 24 14  1  1  0  0  0
 24 12  1  0  0  0  0
 26 22  1  6  0  0  0
 26 16  1  0  0  0  0
 28 29  2  0  0  0  0
 29 27  1  0  0  0  0
 31 30  1  1  0  0  0
 33 31  1  6  0  0  0
 34 33  1  0  0  0  0
 36 32  1  6  0  0  0
 36 33  1  0  0  0  0
 37 35  1  6  0  0  0
 37 38  1  0  0  0  0
 37 36  1  0  0  0  0
 38 34  1  1  0  0  0
 39 40  1  0  0  0  0
 39 41  1  0  0  0  0
 39 43  1  1  0  0  0
 40 41  1  0  0  0  0
 40 38  1  1  0  0  0
 41 42  1  6  0  0  0
 42 39  1  0  0  0  0
 44 48  1  0  0  0  0
 44 45  1  0  0  0  0
 46 44  1  0  0  0  0
 48 47  1  0  0  0  0
 50 63  1  0  0  0  0
 50 49  1  1  0  0  0
 51 52  1  6  0  0  0
 51 54  1  0  0  0  0
 51 50  1  0  0  0  0
 53 52  1  0  0  0  0
 54 55  1  0  0  0  0
 55 57  1  0  0  0  0
 55 56  2  0  0  0  0
 57 62  1  1  0  0  0
 58 60  1  0  0  0  0
 60 57  1  0  0  0  0
 60 59  1  0  0  0  0
 62 61  1  0  0  0  0
 63 64  1  0  0  0  0
 64 65  1  0  0  0  0
 65 66  1  0  0  0  0
 66 69  1  0  0  0  0
 66 67  1  0  0  0  0
 68 66  1  0  0  0  0
M  END
>  <MODEL>
1

>  <REMARK>
 VINA RESULT:      -6.5      0.000      0.000
  Name = 
  19 active torsions:
  status: ('A' for Active; 'I' for Inactive)
    1  A    between atoms: C_1  and  C_41
    2  A    between atoms: C_7  and  C_57
    3  A    between atoms: C_10  and  C_37
    4  A    between atoms: C_16  and  C_49
    5  A    between atoms: C_17  and  C_33
    6  A    between atoms: C_18  and  C_57
    7  A    between atoms: C_18  and  C_63
    8  A    between atoms: C_19  and  O_21
    9  A    between atoms: C_19  and  C_41
   10  A    between atoms: C_19  and  O_43
   11  A    between atoms: C_22  and  C_33
   12  A    between atoms: C_25  and  N_62
   13  A    between atoms: C_36  and  C_45
   14  A    between atoms: C_36  and  O_69
   15  A    between atoms: P_40  and  C_66
   16  A    between atoms: C_41  and  C_63
   17  A    between atoms: O_43  and  C_47
   18  A    between atoms: C_47  and  C_66
   19  A    between atoms: C_60  and  C_66
                            x       y       z     vdW  Elec       q    Type
                         _______ _______ _______ _____ _____    ______ ____

>  <TORSDO>
F 19

$$$$
=
 OpenBabel11062418413D

 69 76  0  0  1  0  0  0  0  0999 V2000
  188.5870  176.1410  145.5660 C   0  0  1  0  0  3  0  0  0  0  0  0
  189.6720  174.0920  147.3250 O   0  0  0  0  0  1  0  0  0  0  0  0
  190.2000  174.2900  146.0420 C   0  0  1  0  0  3  0  0  0  0  0  0
  189.1160  174.7810  145.0950 C   0  0  0  0  0  2  0  0  0  0  0  0
  190.8510  176.7560  145.9950 C   0  0  2  0  0  3  0  0  0  0  0  0
  191.3450  175.3050  146.0630 C   0  0  2  0  0  0  0  0  0  0  0  0
  192.1470  175.1670  144.7850 C   0  0  1  0  0  3  0  0  0  0  0  0
  192.2610  176.5800  144.2500 C   0  0  2  0  0  3  0  0  0  0  0  0
  192.1430  175.1370  147.2010 O   0  0  0  0  0  1  0  0  0  0  0  0
  189.4770  176.9640  146.3140 O   0  0  0  0  0  0  0  0  0  0  0  0
  191.1920  177.3340  144.7570 O   0  0  0  0  0  0  0  0  0  0  0  0
  195.9250  172.2950  141.9570 O   0  0  0  0  0  0  0  0  0  0  0  0
  193.4930  174.4300  144.8420 C   0  0  1  0  0  3  0  0  0  0  0  0
  197.6460  172.4300  140.3030 C   0  0  0  0  0  1  0  0  0  0  0  0
  195.1570  170.1290  141.4630 C   0  0  0  0  0  2  0  0  0  0  0  0
  195.5970  172.8190  145.7280 C   0  0  1  0  0  3  0  0  0  0  0  0
  193.5320  172.0080  142.0830 C   0  0  2  0  0  3  0  0  0  0  0  0
  195.2920  174.1740  145.9990 O   0  0  0  0  0  0  0  0  0  0  0  0
  193.9790  174.2690  146.1470 O   0  0  0  0  0  0  0  0  0  0  0  0
  195.9760  170.6100  140.2970 C   0  0  0  0  0  2  0  0  0  0  0  0
  194.9280  171.3630  142.3140 C   0  0  2  0  0  0  0  0  0  0  0  0
  195.0850  171.0310  143.7950 C   0  0  0  0  0  2  0  0  0  0  0  0
  193.4780  173.0790  144.1370 C   0  0  1  0  0  3  0  0  0  0  0  0
  196.2060  172.0670  140.5990 C   0  0  1  0  0  3  0  0  0  0  0  0
  193.4950  173.2680  142.7320 O   0  0  0  0  0  0  0  0  0  0  0  0
  194.6650  172.2320  144.6420 C   0  0  2  0  0  3  0  0  0  0  0  0
  197.6780  173.7420  144.9750 O   0  0  0  0  0  0  0  0  0  0  0  0
  197.6670  171.4820  145.3610 O   0  0  0  0  0  1  0  0  0  0  0  0
  197.0360  172.7160  145.3320 C   0  0  0  0  0  0  0  0  0  0  0  0
  191.6920  171.6860  143.5820 O   0  0  0  0  0  1  0  0  0  0  0  0
  192.2350  171.2000  142.3910 C   0  0  1  0  0  3  0  0  0  0  0  0
  192.2290  169.2840  140.3240 O   0  0  0  0  0  1  0  0  0  0  0  0
  191.1660  171.1960  141.2880 C   0  0  1  0  0  3  0  0  0  0  0  0
  191.4910  172.1110  140.2800 O   0  0  0  0  0  0  0  0  0  0  0  0
  190.8670  169.6750  138.1900 F   0  0  0  0  0  0  0  0  0  0  0  0
  190.9850  169.8730  140.5800 C   0  0  1  0  0  3  0  0  0  0  0  0
  190.3840  170.3680  139.2930 C   0  0  1  0  0  3  0  0  0  0  0  0
  190.6470  171.8170  139.2490 N   0  0  2  0  0  0  0  0  0  0  0  0
  190.5390  173.2940  137.2470 C   0  0  1  0  0  0  0  0  0  0  0  0
  191.3170  172.2160  138.0070 C   0  0  1  0  0  3  0  0  0  0  0  0
  191.7440  173.6710  138.0870 C   0  0  1  0  0  3  0  0  0  0  0  0
  191.4850  174.3740  136.7710 C   0  0  0  0  0  2  0  0  0  0  0  0
  189.3270  173.8790  137.9530 C   0  0  0  0  0  1  0  0  0  0  0  0
  192.2700  176.6350  142.7180 C   0  0  0  0  0  0  0  0  0  0  0  0
  193.5560  176.4470  142.2390 F   0  0  0  0  0  0  0  0  0  0  0  0
  191.8510  177.8930  142.3260 F   0  0  0  0  0  0  0  0  0  0  0  0
  192.0290  175.0750  141.1840 F   0  0  0  0  0  0  0  0  0  0  0  0
  191.3850  175.6890  142.1690 O   0  0  0  0  0  0  0  0  0  0  0  0
  187.9630  178.2650  144.6450 O   0  0  0  0  0  1  0  0  0  0  0  0
  187.6700  176.8990  144.5780 C   0  0  1  0  0  0  0  0  0  0  0  0
  187.9770  176.4180  143.1410 C   0  0  1  0  0  3  0  0  0  0  0  0
  187.0850  175.4100  142.7430 O   0  0  0  0  0  0  0  0  0  0  0  0
  187.8630  174.4960  142.0360 C   0  0  0  0  0  1  0  0  0  0  0  0
  187.8660  177.5160  142.2390 O   0  0  0  0  0  0  0  0  0  0  0  0
  186.6360  178.0810  141.8890 C   0  0  0  0  0  0  0  0  0  0  0  0
  186.2840  179.1970  142.3580 O   0  0  0  0  0  0  0  0  0  0  0  0
  185.7520  177.3860  140.9060 C   0  0  1  0  0  3  0  0  0  0  0  0
  184.4240  179.5490  139.9470 O   0  0  0  0  0  1  0  0  0  0  0  0
  183.3860  177.2210  139.6630 O   0  0  0  0  0  1  0  0  0  0  0  0
  184.0600  178.1790  140.9480 P   0  0  0  0  0  0  0  0  0  0  0  0
  187.1010  176.3510  139.2240 O   0  0  0  0  0  1  0  0  0  0  0  0
  186.3520  177.4920  139.5140 C   0  0  0  0  0  2  0  0  0  0  0  0
  186.1870  176.7450  144.9590 C   0  0  0  0  0  2  0  0  0  0  0  0
  185.9180  176.6320  146.4560 C   0  0  0  0  0  2  0  0  0  0  0  0
  185.0320  177.7730  146.9330 C   0  0  0  0  0  2  0  0  0  0  0  0
  185.8190  179.0480  147.2140 C   0  0  0  0  0  0  0  0  0  0  0  0
  185.8600  179.8420  146.0820 F   0  0  0  0  0  0  0  0  0  0  0  0
  185.1850  179.7440  148.2280 F   0  0  0  0  0  0  0  0  0  0  0  0
  187.1050  178.7390  147.6160 F   0  0  0  0  0  0  0  0  0  0  0  0
  1 50  1  6  0  0  0
  1 10  1  0  0  0  0
  3  6  1  0  0  0  0
  3  2  1  1  0  0  0
  4  1  1  0  0  0  0
  4  3  1  0  0  0  0
  5 11  1  6  0  0  0
  5  6  1  0  0  0  0
  5 10  1  0  0  0  0
  6  9  1  1  0  0  0
  7 13  1  1  0  0  0
  7  6  1  0  0  0  0
  8 44  1  6  0  0  0
  8 11  1  0  0  0  0
  8  7  1  0  0  0  0
 12 21  1  0  0  0  0
 13 19  1  1  0  0  0
 16 29  1  6  0  0  0
 16 18  1  0  0  0  0
 17 21  1  0  0  0  0
 17 31  1  1  0  0  0
 17 25  1  0  0  0  0
 18 19  1  0  0  0  0
 20 24  1  0  0  0  0
 20 15  1  0  0  0  0
 21 15  1  6  0  0  0
 21 22  1  0  0  0  0
 23 25  1  6  0  0  0
 23 26  1  0  0  0  0
 23 13  1  0  0  0  0
 24 14  1  1  0  0  0
 24 12  1  0  0  0  0
 26 22  1  6  0  0  0
 26 16  1  0  0  0  0
 27 29  2  0  0  0  0
 29 28  1  0  0  0  0
 31 30  1  1  0  0  0
 33 31  1  1  0  0  0
 34 33  1  0  0  0  0
 36 32  1  6  0  0  0
 36 33  1  0  0  0  0
 37 35  1  6  0  0  0
 37 36  1  0  0  0  0
 38 37  1  0  0  0  0
 38 34  1  1  0  0  0
 39 43  1  1  0  0  0
 39 40  1  0  0  0  0
 39 41  1  0  0  0  0
 40 41  1  0  0  0  0
 40 38  1  1  0  0  0
 41 42  1  6  0  0  0
 42 39  1  0  0  0  0
 45 44  1  0  0  0  0
 46 44  1  0  0  0  0
 47 48  1  0  0  0  0
 48 44  1  0  0  0  0
 50 49  1  1  0  0  0
 50 63  1  0  0  0  0
 51 54  1  6  0  0  0
 51 50  1  0  0  0  0
 52 51  1  0  0  0  0
 53 52  1  0  0  0  0
 55 54  1  0  0  0  0
 55 56  2  0  0  0  0
 57 62  1  6  0  0  0
 57 60  1  0  0  0  0
 57 55  1  0  0  0  0
 58 60  1  0  0  0  0
 59 60  1  0  0  0  0
 61 62  1  0  0  0  0
 63 64  1  0  0  0  0
 64 65  1  0  0  0  0
 65 66  1  0  0  0  0
 66 69  1  0  0  0  0
 66 68  1  0  0  0  0
 67 66  1  0  0  0  0
M  END
>  <MODEL>
2

>  <REMARK>
 VINA RESULT:      -6.4      2.621      4.262
  Name = 
  19 active torsions:
  status: ('A' for Active; 'I' for Inactive)
    1  A    between atoms: C_1  and  C_41
    2  A    between atoms: C_7  and  C_57
    3  A    between atoms: C_10  and  C_37
    4  A    between atoms: C_16  and  C_49
    5  A    between atoms: C_17  and  C_33
    6  A    between atoms: C_18  and  C_57
    7  A    between atoms: C_18  and  C_63
    8  A    between atoms: C_19  and  O_21
    9  A    between atoms: C_19  and  C_41
   10  A    between atoms: C_19  and  O_43
   11  A    between atoms: C_22  and  C_33
   12  A    between atoms: C_25  and  N_62
   13  A    between atoms: C_36  and  C_45
   14  A    between atoms: C_36  and  O_69
   15  A    between atoms: P_40  and  C_66
   16  A    between atoms: C_41  and  C_63
   17  A    between atoms: O_43  and  C_47
   18  A    between atoms: C_47  and  C_66
   19  A    between atoms: C_60  and  C_66
                            x       y       z     vdW  Elec       q    Type
                         _______ _______ _______ _____ _____    ______ ____

>  <TORSDO>
F 19

$$$$
=
 OpenBabel11062418413D

 69 76  0  0  1  0  0  0  0  0999 V2000
  189.7560  175.5730  145.1170 C   0  0  1  0  0  3  0  0  0  0  0  0
  189.2250  173.2970  143.3830 O   0  0  0  0  0  1  0  0  0  0  0  0
  190.5080  173.8560  143.4610 C   0  0  1  0  0  3  0  0  0  0  0  0
  190.4180  175.3460  143.7520 C   0  0  0  0  0  2  0  0  0  0  0  0
  191.0870  173.7750  145.9430 C   0  0  2  0  0  3  0  0  0  0  0  0
  191.3420  173.1810  144.5520 C   0  0  2  0  0  0  0  0  0  0  0  0
  192.8040  173.4990  144.3180 C   0  0  1  0  0  3  0  0  0  0  0  0
  193.3090  173.9900  145.6590 C   0  0  2  0  0  3  0  0  0  0  0  0
  191.1050  171.8020  144.5830 O   0  0  0  0  0  1  0  0  0  0  0  0
  189.8930  174.5400  146.0870 O   0  0  0  0  0  0  0  0  0  0  0  0
  192.2190  174.4850  146.3890 O   0  0  0  0  0  0  0  0  0  0  0  0
  195.8900  172.0430  139.9720 O   0  0  0  0  0  0  0  0  0  0  0  0
  193.6980  172.4170  143.6940 C   0  0  1  0  0  3  0  0  0  0  0  0
  197.9410  172.4440  138.8110 C   0  0  0  0  0  1  0  0  0  0  0  0
  194.5520  171.5170  138.1130 C   0  0  0  0  0  2  0  0  0  0  0  0
  194.6890  169.9230  142.9160 C   0  0  1  0  0  3  0  0  0  0  0  0
  193.6390  172.9120  140.0570 C   0  0  2  0  0  3  0  0  0  0  0  0
  194.8460  170.6440  144.1220 O   0  0  0  0  0  0  0  0  0  0  0  0
  193.6810  171.2100  144.4070 O   0  0  0  0  0  0  0  0  0  0  0  0
  195.7940  172.2000  137.6140 C   0  0  0  0  0  2  0  0  0  0  0  0
  194.5600  171.7400  139.6130 C   0  0  2  0  0  0  0  0  0  0  0  0
  194.1390  170.4700  140.3470 C   0  0  0  0  0  2  0  0  0  0  0  0
  193.3880  172.1430  142.2280 C   0  0  1  0  0  3  0  0  0  0  0  0
  196.4510  172.7090  138.8690 C   0  0  1  0  0  3  0  0  0  0  0  0
  193.8860  173.1980  141.4240 O   0  0  0  0  0  0  0  0  0  0  0  0
  193.9680  170.7670  141.8370 C   0  0  2  0  0  3  0  0  0  0  0  0
  196.2020  168.2800  142.0440 O   0  0  0  0  0  0  0  0  0  0  0  0
  197.0990  170.3500  142.4530 O   0  0  0  0  0  1  0  0  0  0  0  0
  196.0330  169.4640  142.4470 C   0  0  0  0  0  0  0  0  0  0  0  0
  191.4830  173.8080  140.5870 O   0  0  0  0  0  1  0  0  0  0  0  0
  192.1060  172.8520  139.7820 C   0  0  1  0  0  3  0  0  0  0  0  0
  189.3950  172.8420  139.0110 O   0  0  0  0  0  1  0  0  0  0  0  0
  191.6760  173.0330  138.3200 C   0  0  1  0  0  3  0  0  0  0  0  0
  191.7560  171.8200  137.6260 O   0  0  0  0  0  0  0  0  0  0  0  0
  188.7410  172.4980  136.5590 F   0  0  0  0  0  0  0  0  0  0  0  0
  190.2540  173.5070  138.1270 C   0  0  1  0  0  3  0  0  0  0  0  0
  190.0220  173.0100  136.7260 C   0  0  1  0  0  3  0  0  0  0  0  0
  191.0930  172.0370  136.4530 N   0  0  2  0  0  0  0  0  0  0  0  0
  191.3930  170.1380  134.8700 C   0  0  1  0  0  0  0  0  0  0  0  0
  190.5620  170.7470  136.0040 C   0  0  1  0  0  3  0  0  0  0  0  0
  191.5620  169.6400  136.2930 C   0  0  1  0  0  3  0  0  0  0  0  0
  191.6280  168.6670  135.1340 C   0  0  0  0  0  2  0  0  0  0  0  0
  192.6830  170.8590  134.5140 C   0  0  0  0  0  1  0  0  0  0  0  0
  194.3920  175.0670  145.5280 C   0  0  0  0  0  0  0  0  0  0  0  0
  195.5830  174.5000  145.1040 F   0  0  0  0  0  0  0  0  0  0  0  0
  194.6080  175.6220  146.7760 F   0  0  0  0  0  0  0  0  0  0  0  0
  194.7270  175.9940  143.5600 F   0  0  0  0  0  0  0  0  0  0  0  0
  193.9860  176.0950  144.6570 O   0  0  0  0  0  0  0  0  0  0  0  0
  191.0550  177.1930  146.3140 O   0  0  0  0  0  1  0  0  0  0  0  0
  189.8220  177.0120  145.6790 C   0  0  1  0  0  0  0  0  0  0  0  0
  189.7430  178.0130  144.5030 C   0  0  1  0  0  3  0  0  0  0  0  0
  190.9600  178.6890  144.3320 O   0  0  0  0  0  0  0  0  0  0  0  0
  191.4840  178.1970  143.1390 C   0  0  0  0  0  1  0  0  0  0  0  0
  189.4310  177.3110  143.3030 O   0  0  0  0  0  0  0  0  0  0  0  0
  188.3520  177.6590  142.4850 C   0  0  0  0  0  0  0  0  0  0  0  0
  188.5150  178.4250  141.4970 O   0  0  0  0  0  0  0  0  0  0  0  0
  187.0030  177.0750  142.7460 C   0  0  1  0  0  3  0  0  0  0  0  0
  184.3310  177.5460  142.7870 O   0  0  0  0  0  1  0  0  0  0  0  0
  185.9510  179.5290  142.9500 O   0  0  0  0  0  1  0  0  0  0  0  0
  185.7110  178.1460  141.9240 P   0  0  0  0  0  0  0  0  0  0  0  0
  187.7740  175.5380  141.0840 O   0  0  0  0  0  1  0  0  0  0  0  0
  186.9440  175.6580  142.1990 C   0  0  0  0  0  2  0  0  0  0  0  0
  188.7370  177.2490  146.7440 C   0  0  0  0  0  2  0  0  0  0  0  0
  187.3250  176.8550  146.3180 C   0  0  0  0  0  2  0  0  0  0  0  0
  186.4450  178.0870  146.1680 C   0  0  0  0  0  2  0  0  0  0  0  0
  185.7340  178.4610  147.4630 C   0  0  0  0  0  0  0  0  0  0  0  0
  184.3800  178.6240  147.2330 F   0  0  0  0  0  0  0  0  0  0  0  0
  185.9140  177.4370  148.3770 F   0  0  0  0  0  0  0  0  0  0  0  0
  186.2660  179.6260  147.9830 F   0  0  0  0  0  0  0  0  0  0  0  0
  1 50  1  1  0  0  0
  1 10  1  0  0  0  0
  3  2  1  1  0  0  0
  3  4  1  0  0  0  0
  3  6  1  0  0  0  0
  4  1  1  0  0  0  0
  5 10  1  6  0  0  0
  5 11  1  0  0  0  0
  6  9  1  1  0  0  0
  6  5  1  0  0  0  0
  7 13  1  1  0  0  0
  7  6  1  0  0  0  0
  7  8  1  0  0  0  0
  8 44  1  6  0  0  0
  8 11  1  0  0  0  0
 13 19  1  1  0  0  0
 16 29  1  6  0  0  0
 16 18  1  0  0  0  0
 17 31  1  1  0  0  0
 17 25  1  0  0  0  0
 18 19  1  0  0  0  0
 20 15  1  0  0  0  0
 20 24  1  0  0  0  0
 21 15  1  6  0  0  0
 21 12  1  0  0  0  0
 21 17  1  0  0  0  0
 21 22  1  0  0  0  0
 23 25  1  6  0  0  0
 23 13  1  0  0  0  0
 24 14  1  6  0  0  0
 24 12  1  0  0  0  0
 26 22  1  6  0  0  0
 26 23  1  0  0  0  0
 26 16  1  0  0  0  0
 27 29  2  0  0  0  0
 29 28  1  0  0  0  0
 31 30  1  1  0  0  0
 33 31  1  1  0  0  0
 34 33  1  0  0  0  0
 36 33  1  0  0  0  0
 36 32  1  1  0  0  0
 37 35  1  1  0  0  0
 37 36  1  0  0  0  0
 38 37  1  0  0  0  0
 38 34  1  1  0  0  0
 39 43  1  6  0  0  0
 39 42  1  0  0  0  0
 39 40  1  0  0  0  0
 39 41  1  0  0  0  0
 40 41  1  0  0  0  0
 40 38  1  1  0  0  0
 41 42  1  6  0  0  0
 44 46  1  0  0  0  0
 45 44  1  0  0  0  0
 47 48  1  0  0  0  0
 48 44  1  0  0  0  0
 50 49  1  1  0  0  0
 50 63  1  0  0  0  0
 51 54  1  6  0  0  0
 51 50  1  0  0  0  0
 52 51  1  0  0  0  0
 53 52  1  0  0  0  0
 55 57  1  0  0  0  0
 55 54  1  0  0  0  0
 56 55  2  0  0  0  0
 57 62  1  6  0  0  0
 60 57  1  0  0  0  0
 60 58  1  0  0  0  0
 60 59  1  0  0  0  0
 61 62  1  0  0  0  0
 64 63  1  0  0  0  0
 65 64  1  0  0  0  0
 65 66  1  0  0  0  0
 66 69  1  0  0  0  0
 66 68  1  0  0  0  0
 67 66  1  0  0  0  0
M  END
>  <MODEL>
3

>  <REMARK>
 VINA RESULT:      -6.1      2.288      3.788
  Name = 
  19 active torsions:
  status: ('A' for Active; 'I' for Inactive)
    1  A    between atoms: C_1  and  C_41
    2  A    between atoms: C_7  and  C_57
    3  A    between atoms: C_10  and  C_37
    4  A    between atoms: C_16  and  C_49
    5  A    between atoms: C_17  and  C_33
    6  A    between atoms: C_18  and  C_57
    7  A    between atoms: C_18  and  C_63
    8  A    between atoms: C_19  and  O_21
    9  A    between atoms: C_19  and  C_41
   10  A    between atoms: C_19  and  O_43
   11  A    between atoms: C_22  and  C_33
   12  A    between atoms: C_25  and  N_62
   13  A    between atoms: C_36  and  C_45
   14  A    between atoms: C_36  and  O_69
   15  A    between atoms: P_40  and  C_66
   16  A    between atoms: C_41  and  C_63
   17  A    between atoms: O_43  and  C_47
   18  A    between atoms: C_47  and  C_66
   19  A    between atoms: C_60  and  C_66
                            x       y       z     vdW  Elec       q    Type
                         _______ _______ _______ _____ _____    ______ ____

>  <TORSDO>
F 19

$$$$
=
 OpenBabel11062418413D

 69 76  0  0  1  0  0  0  0  0999 V2000
  192.6430  170.1510  139.7020 C   0  0  1  0  0  3  0  0  0  0  0  0
  192.6580  169.8550  142.5970 O   0  0  0  0  0  1  0  0  0  0  0  0
  193.3780  170.8850  141.9770 C   0  0  1  0  0  3  0  0  0  0  0  0
  193.8510  170.4440  140.6000 C   0  0  0  0  0  2  0  0  0  0  0  0
  191.6400  172.1270  140.5820 C   0  0  2  0  0  3  0  0  0  0  0  0
  192.5270  172.1490  141.8340 C   0  0  2  0  0  0  0  0  0  0  0  0
  193.4410  173.3280  141.5720 C   0  0  1  0  0  3  0  0  0  0  0  0
  192.8410  174.0170  140.3630 C   0  0  2  0  0  3  0  0  0  0  0  0
  191.7300  172.3480  142.9670 O   0  0  0  0  0  1  0  0  0  0  0  0
  191.4350  170.8490  139.9850 O   0  0  0  0  0  0  0  0  0  0  0  0
  192.0900  173.0760  139.6440 O   0  0  0  0  0  0  0  0  0  0  0  0
  191.5580  175.6480  146.2190 O   0  0  0  0  0  0  0  0  0  0  0  0
  193.7440  174.2910  142.7290 C   0  0  1  0  0  3  0  0  0  0  0  0
  191.0200  175.2620  148.5160 C   0  0  0  0  0  1  0  0  0  0  0  0
  189.9190  177.2680  145.7610 C   0  0  0  0  0  2  0  0  0  0  0  0
  194.6600  176.5090  144.1600 C   0  0  1  0  0  3  0  0  0  0  0  0
  190.5240  175.4660  144.0460 C   0  0  2  0  0  3  0  0  0  0  0  0
  195.3230  175.3210  143.7720 O   0  0  0  0  0  0  0  0  0  0  0  0
  194.9250  175.0220  142.5430 O   0  0  0  0  0  0  0  0  0  0  0  0
  189.5360  176.5660  147.0340 C   0  0  0  0  0  2  0  0  0  0  0  0
  191.0260  176.4210  145.1660 C   0  0  2  0  0  0  0  0  0  0  0  0
  192.1370  177.3050  144.6060 C   0  0  0  0  0  2  0  0  0  0  0  0
  192.5990  175.2490  143.0390 C   0  0  1  0  0  3  0  0  0  0  0  0
  190.4930  175.4060  147.1040 C   0  0  1  0  0  3  0  0  0  0  0  0
  191.5630  174.5590  143.7160 O   0  0  0  0  0  0  0  0  0  0  0  0
  193.1470  176.4460  143.8440 C   0  0  2  0  0  3  0  0  0  0  0  0
  194.8630  175.7940  146.4400 O   0  0  0  0  0  1  0  0  0  0  0  0
  195.1930  178.0320  146.0590 O   0  0  0  0  0  0  0  0  0  0  0  0
  194.9080  176.7490  145.6160 C   0  0  0  0  0  0  0  0  0  0  0  0
  190.3750  175.3320  141.6590 O   0  0  0  0  0  1  0  0  0  0  0  0
  189.8780  176.0470  142.7520 C   0  0  1  0  0  3  0  0  0  0  0  0
  188.4480  177.8000  141.0710 O   0  0  0  0  0  1  0  0  0  0  0  0
  188.3440  176.0670  142.7150 C   0  0  1  0  0  3  0  0  0  0  0  0
  187.8330  176.8420  143.7630 O   0  0  0  0  0  0  0  0  0  0  0  0
  185.9630  178.2660  141.4890 F   0  0  0  0  0  0  0  0  0  0  0  0
  187.7430  176.6540  141.4590 C   0  0  1  0  0  3  0  0  0  0  0  0
  186.3930  177.0460  141.9960 C   0  0  1  0  0  3  0  0  0  0  0  0
  186.5140  177.0190  143.4640 N   0  0  2  0  0  0  0  0  0  0  0  0
  185.2290  178.0690  145.3210 C   0  0  1  0  0  0  0  0  0  0  0  0
  186.0910  178.2830  144.0730 C   0  0  1  0  0  3  0  0  0  0  0  0
  186.6970  178.4250  145.4590 C   0  0  1  0  0  3  0  0  0  0  0  0
  185.6820  178.9970  146.4270 C   0  0  0  0  0  2  0  0  0  0  0  0
  185.0900  176.6360  145.8100 C   0  0  0  0  0  1  0  0  0  0  0  0
  193.9010  174.6530  139.4560 C   0  0  0  0  0  0  0  0  0  0  0  0
  194.2060  175.9300  139.8990 F   0  0  0  0  0  0  0  0  0  0  0  0
  193.3740  174.7620  138.1820 F   0  0  0  0  0  0  0  0  0  0  0  0
  195.8870  174.4430  138.5320 F   0  0  0  0  0  0  0  0  0  0  0  0
  195.0580  173.8550  139.3850 O   0  0  0  0  0  0  0  0  0  0  0  0
  193.5400  168.6910  138.0250 O   0  0  0  0  0  1  0  0  0  0  0  0
  192.9420  169.9430  138.1990 C   0  0  1  0  0  0  0  0  0  0  0  0
  191.6070  169.9420  137.4190 C   0  0  1  0  0  3  0  0  0  0  0  0
  190.5510  169.4880  138.2240 O   0  0  0  0  0  0  0  0  0  0  0  0
  190.3200  168.1770  137.8140 C   0  0  0  0  0  1  0  0  0  0  0  0
  191.3140  171.2650  136.9770 O   0  0  0  0  0  0  0  0  0  0  0  0
  190.6460  171.5290  135.7780 C   0  0  0  0  0  0  0  0  0  0  0  0
  190.9380  170.8980  134.7270 O   0  0  0  0  0  0  0  0  0  0  0  0
  189.5350  172.5260  135.7500 C   0  0  1  0  0  3  0  0  0  0  0  0
  188.3290  174.6620  136.9110 O   0  0  0  0  0  1  0  0  0  0  0  0
  188.6460  172.5130  138.2760 O   0  0  0  0  0  1  0  0  0  0  0  0
  189.6210  173.5700  137.2980 P   0  0  0  0  0  0  0  0  0  0  0  0
  190.8820  174.0790  134.5290 O   0  0  0  0  0  1  0  0  0  0  0  0
  189.6640  173.4010  134.5140 C   0  0  0  0  0  2  0  0  0  0  0  0
  193.9420  170.9890  137.6760 C   0  0  0  0  0  2  0  0  0  0  0  0
  194.4620  170.7290  136.2650 C   0  0  0  0  0  2  0  0  0  0  0  0
  195.9350  170.3490  136.2940 C   0  0  0  0  0  2  0  0  0  0  0  0
  196.8540  171.5650  136.2750 C   0  0  0  0  0  0  0  0  0  0  0  0
  196.1490  172.6890  135.8830 F   0  0  0  0  0  0  0  0  0  0  0  0
  197.3470  171.7670  137.5520 F   0  0  0  0  0  0  0  0  0  0  0  0
  197.9140  171.3520  135.4130 F   0  0  0  0  0  0  0  0  0  0  0  0
  1 50  1  6  0  0  0
  1 10  1  0  0  0  0
  1  4  1  0  0  0  0
  3  2  1  6  0  0  0
  4  3  1  0  0  0  0
  5 11  1  6  0  0  0
  5  6  1  0  0  0  0
  6  3  1  0  0  0  0
  6  9  1  1  0  0  0
  7  6  1  0  0  0  0
  7 13  1  1  0  0  0
  8 44  1  6  0  0  0
  8  7  1  0  0  0  0
 10  5  1  0  0  0  0
 11  8  1  0  0  0  0
 12 24  1  0  0  0  0
 13 19  1  6  0  0  0
 13 23  1  0  0  0  0
 15 20  1  0  0  0  0
 16 29  1  1  0  0  0
 17 31  1  6  0  0  0
 17 21  1  0  0  0  0
 18 16  1  0  0  0  0
 19 18  1  0  0  0  0
 20 24  1  0  0  0  0
 21 22  1  6  0  0  0
 21 15  1  0  0  0  0
 21 12  1  0  0  0  0
 23 25  1  1  0  0  0
 23 26  1  0  0  0  0
 24 14  1  1  0  0  0
 25 17  1  0  0  0  0
 26 16  1  0  0  0  0
 26 22  1  1  0  0  0
 29 28  2  0  0  0  0
 29 27  1  0  0  0  0
 31 30  1  6  0  0  0
 33 31  1  6  0  0  0
 33 34  1  0  0  0  0
 36 32  1  1  0  0  0
 36 37  1  0  0  0  0
 36 33  1  0  0  0  0
 37 35  1  6  0  0  0
 37 38  1  0  0  0  0
 38 34  1  6  0  0  0
 39 41  1  0  0  0  0
 39 43  1  1  0  0  0
 39 42  1  0  0  0  0
 40 38  1  6  0  0  0
 40 39  1  0  0  0  0
 40 41  1  0  0  0  0
 41 42  1  1  0  0  0
 44 45  1  0  0  0  0
 46 44  1  0  0  0  0
 47 48  1  0  0  0  0
 48 44  1  0  0  0  0
 50 49  1  6  0  0  0
 51 54  1  1  0  0  0
 51 50  1  0  0  0  0
 51 52  1  0  0  0  0
 53 52  1  0  0  0  0
 55 54  1  0  0  0  0
 56 55  2  0  0  0  0
 57 62  1  6  0  0  0
 57 55  1  0  0  0  0
 57 60  1  0  0  0  0
 58 60  1  0  0  0  0
 60 59  1  0  0  0  0
 62 61  1  0  0  0  0
 63 50  1  0  0  0  0
 64 65  1  0  0  0  0
 64 63  1  0  0  0  0
 66 65  1  0  0  0  0
 66 68  1  0  0  0  0
 67 66  1  0  0  0  0
 69 66  1  0  0  0  0
M  END
>  <MODEL>
4

>  <REMARK>
 VINA RESULT:      -6.1      3.571      9.367
  Name = 
  19 active torsions:
  status: ('A' for Active; 'I' for Inactive)
    1  A    between atoms: C_1  and  C_41
    2  A    between atoms: C_7  and  C_57
    3  A    between atoms: C_10  and  C_37
    4  A    between atoms: C_16  and  C_49
    5  A    between atoms: C_17  and  C_33
    6  A    between atoms: C_18  and  C_57
    7  A    between atoms: C_18  and  C_63
    8  A    between atoms: C_19  and  O_21
    9  A    between atoms: C_19  and  C_41
   10  A    between atoms: C_19  and  O_43
   11  A    between atoms: C_22  and  C_33
   12  A    between atoms: C_25  and  N_62
   13  A    between atoms: C_36  and  C_45
   14  A    between atoms: C_36  and  O_69
   15  A    between atoms: P_40  and  C_66
   16  A    between atoms: C_41  and  C_63
   17  A    between atoms: O_43  and  C_47
   18  A    between atoms: C_47  and  C_66
   19  A    between atoms: C_60  and  C_66
                            x       y       z     vdW  Elec       q    Type
                         _______ _______ _______ _____ _____    ______ ____

>  <TORSDO>
F 19

$$$$
=
 OpenBabel11062418413D

 69 76  0  0  1  0  0  0  0  0999 V2000
  191.8160  170.4160  139.0950 C   0  0  1  0  0  3  0  0  0  0  0  0
  191.7360  169.8170  141.9410 O   0  0  0  0  0  1  0  0  0  0  0  0
  192.5980  170.8010  141.4390 C   0  0  1  0  0  3  0  0  0  0  0  0
  193.0350  170.4480  140.0250 C   0  0  0  0  0  2  0  0  0  0  0  0
  191.0680  172.4040  140.1780 C   0  0  2  0  0  3  0  0  0  0  0  0
  191.9260  172.1750  141.4290 C   0  0  2  0  0  0  0  0  0  0  0  0
  192.9940  173.2420  141.2990 C   0  0  1  0  0  3  0  0  0  0  0  0
  192.5140  174.1290  140.1690 C   0  0  2  0  0  3  0  0  0  0  0  0
  191.1410  172.3580  142.5730 O   0  0  0  0  0  1  0  0  0  0  0  0
  190.7060  171.2370  139.4460 O   0  0  0  0  0  0  0  0  0  0  0  0
  191.6580  173.3790  139.3490 O   0  0  0  0  0  0  0  0  0  0  0  0
  191.3450  175.2990  146.1550 O   0  0  0  0  0  0  0  0  0  0  0  0
  193.3990  174.0280  142.5540 C   0  0  1  0  0  3  0  0  0  0  0  0
  190.7110  174.7510  148.3940 C   0  0  0  0  0  1  0  0  0  0  0  0
  189.9510  177.1680  145.8610 C   0  0  0  0  0  2  0  0  0  0  0  0
  194.5780  175.9370  144.2200 C   0  0  1  0  0  3  0  0  0  0  0  0
  190.3420  175.4890  143.9670 C   0  0  2  0  0  3  0  0  0  0  0  0
  195.0820  174.7160  143.7120 O   0  0  0  0  0  0  0  0  0  0  0  0
  194.6730  174.6050  142.4560 O   0  0  0  0  0  0  0  0  0  0  0  0
  189.4500  176.3960  147.0490 C   0  0  0  0  0  2  0  0  0  0  0  0
  190.9450  176.2430  145.1860 C   0  0  2  0  0  0  0  0  0  0  0  0
  192.1780  177.0200  144.7320 C   0  0  0  0  0  2  0  0  0  0  0  0
  192.3900  175.0960  142.9570 C   0  0  1  0  0  3  0  0  0  0  0  0
  190.2380  175.1140  147.0010 C   0  0  1  0  0  3  0  0  0  0  0  0
  191.2550  174.4880  143.5500 O   0  0  0  0  0  0  0  0  0  0  0  0
  193.0780  176.1150  143.8890 C   0  0  2  0  0  3  0  0  0  0  0  0
  195.4730  175.0670  146.2680 O   0  0  0  0  0  0  0  0  0  0  0  0
  194.3400  177.0540  146.4340 O   0  0  0  0  0  1  0  0  0  0  0  0
  194.8260  175.9860  145.6950 C   0  0  0  0  0  0  0  0  0  0  0  0
  190.3380  175.7070  141.5820 O   0  0  0  0  0  1  0  0  0  0  0  0
  189.8090  176.2850  142.7380 C   0  0  1  0  0  3  0  0  0  0  0  0
  188.5740  178.3710  141.2990 O   0  0  0  0  0  1  0  0  0  0  0  0
  188.2820  176.4000  142.6190 C   0  0  1  0  0  3  0  0  0  0  0  0
  187.7430  177.0190  143.7520 O   0  0  0  0  0  0  0  0  0  0  0  0
  186.0930  178.9030  141.6490 F   0  0  0  0  0  0  0  0  0  0  0  0
  187.7920  177.2180  141.4480 C   0  0  1  0  0  3  0  0  0  0  0  0
  186.4310  177.5930  141.9670 C   0  0  1  0  0  3  0  0  0  0  0  0
  186.4550  177.3180  143.4140 N   0  0  2  0  0  0  0  0  0  0  0  0
  185.3640  178.0960  145.5130 C   0  0  1  0  0  0  0  0  0  0  0  0
  186.0540  178.4870  144.2020 C   0  0  1  0  0  3  0  0  0  0  0  0
  186.8200  178.5220  145.5130 C   0  0  1  0  0  3  0  0  0  0  0  0
  185.9090  178.9310  146.6510 C   0  0  0  0  0  2  0  0  0  0  0  0
  185.3530  176.6160  145.8570 C   0  0  0  0  0  1  0  0  0  0  0  0
  193.6660  174.7100  139.3400 C   0  0  0  0  0  0  0  0  0  0  0  0
  194.7990  173.9250  139.4790 F   0  0  0  0  0  0  0  0  0  0  0  0
  193.9610  175.9690  139.8290 F   0  0  0  0  0  0  0  0  0  0  0  0
  194.3070  175.4570  137.3720 F   0  0  0  0  0  0  0  0  0  0  0  0
  193.3060  174.8390  137.9860 O   0  0  0  0  0  0  0  0  0  0  0  0
  192.9410  171.3990  137.2200 O   0  0  0  0  0  1  0  0  0  0  0  0
  192.1130  170.3300  137.5800 C   0  0  1  0  0  0  0  0  0  0  0  0
  192.8810  169.0190  137.2940 C   0  0  1  0  0  3  0  0  0  0  0  0
  192.1340  168.1660  136.4660 O   0  0  0  0  0  0  0  0  0  0  0  0
  192.7840  168.1950  135.2350 C   0  0  0  0  0  1  0  0  0  0  0  0
  194.1160  169.3220  136.6510 O   0  0  0  0  0  0  0  0  0  0  0  0
  195.3240  169.4220  137.3470 C   0  0  0  0  0  0  0  0  0  0  0  0
  195.4960  168.7960  138.4280 O   0  0  0  0  0  0  0  0  0  0  0  0
  196.4440  170.2310  136.7810 C   0  0  1  0  0  3  0  0  0  0  0  0
  197.5670  171.3190  134.5640 O   0  0  0  0  0  1  0  0  0  0  0  0
  197.6230  168.7730  134.8700 O   0  0  0  0  0  1  0  0  0  0  0  0
  196.4420  170.0480  134.9210 P   0  0  0  0  0  0  0  0  0  0  0  0
  197.4620  172.1990  137.6810 O   0  0  0  0  0  1  0  0  0  0  0  0
  196.2680  171.6900  137.1700 C   0  0  0  0  0  2  0  0  0  0  0  0
  190.8270  170.4670  136.7470 C   0  0  0  0  0  2  0  0  0  0  0  0
  190.6050  171.8440  136.1300 C   0  0  0  0  0  2  0  0  0  0  0  0
  189.2710  172.4260  136.5750 C   0  0  0  0  0  2  0  0  0  0  0  0
  189.3320  173.9340  136.7880 C   0  0  0  0  0  0  0  0  0  0  0  0
  188.8890  174.2520  138.0600 F   0  0  0  0  0  0  0  0  0  0  0  0
  190.6450  174.3470  136.6530 F   0  0  0  0  0  0  0  0  0  0  0  0
  188.5570  174.5840  135.8460 F   0  0  0  0  0  0  0  0  0  0  0  0
  1 50  1  6  0  0  0
  1 10  1  0  0  0  0
  1  4  1  0  0  0  0
  3  2  1  6  0  0  0
  4  3  1  0  0  0  0
  5 11  1  6  0  0  0
  5  6  1  0  0  0  0
  6  3  1  0  0  0  0
  6  9  1  1  0  0  0
  7  6  1  0  0  0  0
  7 13  1  1  0  0  0
  8 44  1  6  0  0  0
  8  7  1  0  0  0  0
 10  5  1  0  0  0  0
 11  8  1  0  0  0  0
 12 24  1  0  0  0  0
 13 19  1  6  0  0  0
 13 23  1  0  0  0  0
 15 20  1  0  0  0  0
 16 29  1  1  0  0  0
 17 31  1  6  0  0  0
 17 21  1  0  0  0  0
 18 16  1  0  0  0  0
 19 18  1  0  0  0  0
 21 22  1  6  0  0  0
 21 15  1  0  0  0  0
 21 12  1  0  0  0  0
 23 25  1  1  0  0  0
 23 26  1  0  0  0  0
 24 20  1  0  0  0  0
 24 14  1  1  0  0  0
 25 17  1  0  0  0  0
 26 16  1  0  0  0  0
 26 22  1  1  0  0  0
 29 27  2  0  0  0  0
 29 28  1  0  0  0  0
 31 30  1  6  0  0  0
 33 31  1  1  0  0  0
 33 34  1  0  0  0  0
 36 32  1  1  0  0  0
 36 37  1  0  0  0  0
 36 33  1  0  0  0  0
 37 35  1  1  0  0  0
 37 38  1  0  0  0  0
 38 34  1  1  0  0  0
 39 43  1  1  0  0  0
 39 42  1  0  0  0  0
 40 38  1  6  0  0  0
 40 41  1  0  0  0  0
 40 39  1  0  0  0  0
 41 39  1  0  0  0  0
 41 42  1  1  0  0  0
 44 45  1  0  0  0  0
 44 46  1  0  0  0  0
 47 48  1  0  0  0  0
 48 44  1  0  0  0  0
 50 49  1  6  0  0  0
 51 52  1  6  0  0  0
 51 50  1  0  0  0  0
 53 52  1  0  0  0  0
 54 51  1  0  0  0  0
 54 55  1  0  0  0  0
 55 56  2  0  0  0  0
 57 62  1  6  0  0  0
 57 55  1  0  0  0  0
 58 60  1  0  0  0  0
 59 60  1  0  0  0  0
 60 57  1  0  0  0  0
 62 61  1  0  0  0  0
 63 50  1  0  0  0  0
 64 65  1  0  0  0  0
 64 63  1  0  0  0  0
 65 66  1  0  0  0  0
 66 67  1  0  0  0  0
 68 66  1  0  0  0  0
 69 66  1  0  0  0  0
M  END
>  <MODEL>
5

>  <REMARK>
 VINA RESULT:      -5.7      3.874     10.022
  Name = 
  19 active torsions:
  status: ('A' for Active; 'I' for Inactive)
    1  A    between atoms: C_1  and  C_41
    2  A    between atoms: C_7  and  C_57
    3  A    between atoms: C_10  and  C_37
    4  A    between atoms: C_16  and  C_49
    5  A    between atoms: C_17  and  C_33
    6  A    between atoms: C_18  and  C_57
    7  A    between atoms: C_18  and  C_63
    8  A    between atoms: C_19  and  O_21
    9  A    between atoms: C_19  and  C_41
   10  A    between atoms: C_19  and  O_43
   11  A    between atoms: C_22  and  C_33
   12  A    between atoms: C_25  and  N_62
   13  A    between atoms: C_36  and  C_45
   14  A    between atoms: C_36  and  O_69
   15  A    between atoms: P_40  and  C_66
   16  A    between atoms: C_41  and  C_63
   17  A    between atoms: O_43  and  C_47
   18  A    between atoms: C_47  and  C_66
   19  A    between atoms: C_60  and  C_66
                            x       y       z     vdW  Elec       q    Type
                         _______ _______ _______ _____ _____    ______ ____

>  <TORSDO>
F 19

$$$$
=
 OpenBabel11062418413D

 69 76  0  0  1  0  0  0  0  0999 V2000
  187.8450  174.6950  142.4820 C   0  0  1  0  0  3  0  0  0  0  0  0
  187.7370  171.8310  142.9860 O   0  0  0  0  0  1  0  0  0  0  0  0
  188.7460  172.3810  142.1830 C   0  0  1  0  0  3  0  0  0  0  0  0
  188.2310  173.6170  141.4610 C   0  0  0  0  0  2  0  0  0  0  0  0
  189.8440  174.1470  143.6600 C   0  0  2  0  0  3  0  0  0  0  0  0
  189.9730  172.7610  143.0150 C   0  0  2  0  0  0  0  0  0  0  0  0
  191.1580  172.9350  142.0880 C   0  0  1  0  0  3  0  0  0  0  0  0
  191.7500  174.2760  142.4710 C   0  0  2  0  0  3  0  0  0  0  0  0
  190.2210  171.8050  144.0060 O   0  0  0  0  0  1  0  0  0  0  0  0
  188.5250  174.6820  143.7330 O   0  0  0  0  0  0  0  0  0  0  0  0
  190.7430  175.0520  143.0640 O   0  0  0  0  0  0  0  0  0  0  0  0
  194.8380  169.9070  144.8840 O   0  0  0  0  0  0  0  0  0  0  0  0
  192.2020  171.8110  142.0160 C   0  0  1  0  0  3  0  0  0  0  0  0
  195.1100  168.1670  146.5000 C   0  0  0  0  0  1  0  0  0  0  0  0
  196.7440  171.1680  145.4280 C   0  0  0  0  0  2  0  0  0  0  0  0
  194.2880  170.1850  141.1120 C   0  0  1  0  0  3  0  0  0  0  0  0
  194.5320  172.3000  144.8110 C   0  0  2  0  0  3  0  0  0  0  0  0
  192.9030  170.1560  140.8270 O   0  0  0  0  0  0  0  0  0  0  0  0
  192.4910  171.4100  140.7040 O   0  0  0  0  0  0  0  0  0  0  0  0
  196.4660  170.2300  146.5690 C   0  0  0  0  0  2  0  0  0  0  0  0
  195.5010  171.1100  144.5620 C   0  0  2  0  0  0  0  0  0  0  0  0
  195.8770  171.0730  143.0830 C   0  0  0  0  0  2  0  0  0  0  0  0
  193.5010  172.1390  142.7420 C   0  0  1  0  0  3  0  0  0  0  0  0
  195.1130  169.6590  146.2400 C   0  0  1  0  0  3  0  0  0  0  0  0
  193.3080  172.0430  144.1430 O   0  0  0  0  0  0  0  0  0  0  0  0
  194.6180  171.2070  142.2260 C   0  0  2  0  0  3  0  0  0  0  0  0
  194.1630  168.1740  142.4110 O   0  0  0  0  0  1  0  0  0  0  0  0
  195.7860  168.2210  140.7910 O   0  0  0  0  0  0  0  0  0  0  0  0
  194.7350  168.8060  141.4810 C   0  0  0  0  0  0  0  0  0  0  0  0
  195.4210  173.8470  143.2130 O   0  0  0  0  0  1  0  0  0  0  0  0
  195.0010  173.7620  144.5430 C   0  0  1  0  0  3  0  0  0  0  0  0
  195.2550  175.4700  146.7700 O   0  0  0  0  0  1  0  0  0  0  0  0
  193.9760  174.8650  144.8430 C   0  0  1  0  0  3  0  0  0  0  0  0
  192.8680  174.3410  145.5180 O   0  0  0  0  0  0  0  0  0  0  0  0
  193.2510  176.8330  147.6000 F   0  0  0  0  0  0  0  0  0  0  0  0
  194.4830  175.9850  145.7220 C   0  0  1  0  0  3  0  0  0  0  0  0
  193.1690  176.4850  146.2580 C   0  0  1  0  0  3  0  0  0  0  0  0
  192.1820  175.4280  145.9740 N   0  0  2  0  0  0  0  0  0  0  0  0
  190.1700  175.8210  147.3870 C   0  0  1  0  0  0  0  0  0  0  0  0
  191.4570  175.0170  147.1800 C   0  0  1  0  0  3  0  0  0  0  0  0
  190.1110  174.4220  146.8030 C   0  0  1  0  0  3  0  0  0  0  0  0
  189.0360  174.8910  147.7610 C   0  0  0  0  0  2  0  0  0  0  0  0
  189.7750  176.7680  146.2660 C   0  0  0  0  0  1  0  0  0  0  0  0
  192.3560  175.0200  141.2750 C   0  0  0  0  0  0  0  0  0  0  0  0
  192.4230  176.3780  141.5390 F   0  0  0  0  0  0  0  0  0  0  0  0
  191.5260  174.8410  140.1840 F   0  0  0  0  0  0  0  0  0  0  0  0
  193.5720  174.1080  139.6830 F   0  0  0  0  0  0  0  0  0  0  0  0
  193.6260  174.5090  140.9470 O   0  0  0  0  0  0  0  0  0  0  0  0
  186.1860  176.3750  142.0650 O   0  0  0  0  0  1  0  0  0  0  0  0
  187.5490  176.1020  141.9120 C   0  0  1  0  0  0  0  0  0  0  0  0
  188.3360  177.1490  142.7340 C   0  0  1  0  0  3  0  0  0  0  0  0
  189.3520  177.7370  141.9640 O   0  0  0  0  0  0  0  0  0  0  0  0
  190.2260  178.3040  142.8880 C   0  0  0  0  0  1  0  0  0  0  0  0
  187.4470  178.1690  143.1800 O   0  0  0  0  0  0  0  0  0  0  0  0
  187.0400  178.2850  144.5120 C   0  0  0  0  0  0  0  0  0  0  0  0
  187.8800  178.5220  145.4220 O   0  0  0  0  0  0  0  0  0  0  0  0
  185.5910  178.1830  144.8590 C   0  0  1  0  0  3  0  0  0  0  0  0
  183.6590  178.3320  146.7570 O   0  0  0  0  0  1  0  0  0  0  0  0
  185.7010  176.8350  147.1700 O   0  0  0  0  0  1  0  0  0  0  0  0
  185.3860  178.4780  146.6930 P   0  0  0  0  0  0  0  0  0  0  0  0
  183.7970  178.5830  143.3290 O   0  0  0  0  0  1  0  0  0  0  0  0
  184.8020  179.2110  144.0650 C   0  0  0  0  0  2  0  0  0  0  0  0
  187.8490  176.1720  140.4050 C   0  0  0  0  0  2  0  0  0  0  0  0
  186.7940  176.8960  139.5740 C   0  0  0  0  0  2  0  0  0  0  0  0
  187.2520  177.0420  138.1310 C   0  0  0  0  0  2  0  0  0  0  0  0
  186.4920  176.1250  137.1800 C   0  0  0  0  0  0  0  0  0  0  0  0
  186.6120  176.5820  135.8800 F   0  0  0  0  0  0  0  0  0  0  0  0
  187.0370  174.8550  137.2620 F   0  0  0  0  0  0  0  0  0  0  0  0
  185.1570  176.0640  137.5340 F   0  0  0  0  0  0  0  0  0  0  0  0
  1 50  1  6  0  0  0
  1 10  1  0  0  0  0
  3  2  1  1  0  0  0
  3  6  1  0  0  0  0
  4  3  1  0  0  0  0
  4  1  1  0  0  0  0
  5 11  1  6  0  0  0
  5 10  1  0  0  0  0
  6  5  1  0  0  0  0
  6  9  1  1  0  0  0
  7 13  1  1  0  0  0
  7  8  1  0  0  0  0
  7  6  1  0  0  0  0
  8 44  1  6  0  0  0
  8 11  1  0  0  0  0
 12 24  1  0  0  0  0
 13 19  1  6  0  0  0
 13 23  1  0  0  0  0
 15 20  1  0  0  0  0
 16 29  1  1  0  0  0
 16 26  1  0  0  0  0
 17 31  1  6  0  0  0
 18 16  1  0  0  0  0
 19 18  1  0  0  0  0
 21 22  1  6  0  0  0
 21 17  1  0  0  0  0
 21 12  1  0  0  0  0
 21 15  1  0  0  0  0
 23 25  1  1  0  0  0
 24 14  1  6  0  0  0
 24 20  1  0  0  0  0
 25 17  1  0  0  0  0
 26 23  1  0  0  0  0
 26 22  1  1  0  0  0
 28 29  2  0  0  0  0
 29 27  1  0  0  0  0
 31 30  1  6  0  0  0
 33 31  1  1  0  0  0
 33 34  1  0  0  0  0
 33 36  1  0  0  0  0
 36 37  1  0  0  0  0
 36 32  1  1  0  0  0
 37 35  1  1  0  0  0
 38 34  1  1  0  0  0
 38 37  1  0  0  0  0
 39 43  1  6  0  0  0
 39 42  1  0  0  0  0
 40 38  1  6  0  0  0
 40 39  1  0  0  0  0
 41 40  1  0  0  0  0
 41 39  1  0  0  0  0
 41 42  1  1  0  0  0
 44 45  1  0  0  0  0
 46 44  1  0  0  0  0
 47 48  1  0  0  0  0
 48 44  1  0  0  0  0
 50 49  1  1  0  0  0
 50 51  1  0  0  0  0
 51 52  1  6  0  0  0
 51 54  1  0  0  0  0
 52 53  1  0  0  0  0
 54 55  1  0  0  0  0
 55 57  1  0  0  0  0
 55 56  2  0  0  0  0
 57 62  1  6  0  0  0
 57 60  1  0  0  0  0
 60 58  1  0  0  0  0
 60 59  1  0  0  0  0
 61 62  1  0  0  0  0
 63 50  1  0  0  0  0
 64 63  1  0  0  0  0
 65 64  1  0  0  0  0
 66 68  1  0  0  0  0
 66 69  1  0  0  0  0
 66 65  1  0  0  0  0
 67 66  1  0  0  0  0
M  END
>  <MODEL>
6

>  <REMARK>
 VINA RESULT:      -5.2      3.082      6.980
  Name = 
  19 active torsions:
  status: ('A' for Active; 'I' for Inactive)
    1  A    between atoms: C_1  and  C_41
    2  A    between atoms: C_7  and  C_57
    3  A    between atoms: C_10  and  C_37
    4  A    between atoms: C_16  and  C_49
    5  A    between atoms: C_17  and  C_33
    6  A    between atoms: C_18  and  C_57
    7  A    between atoms: C_18  and  C_63
    8  A    between atoms: C_19  and  O_21
    9  A    between atoms: C_19  and  C_41
   10  A    between atoms: C_19  and  O_43
   11  A    between atoms: C_22  and  C_33
   12  A    between atoms: C_25  and  N_62
   13  A    between atoms: C_36  and  C_45
   14  A    between atoms: C_36  and  O_69
   15  A    between atoms: P_40  and  C_66
   16  A    between atoms: C_41  and  C_63
   17  A    between atoms: O_43  and  C_47
   18  A    between atoms: C_47  and  C_66
   19  A    between atoms: C_60  and  C_66
                            x       y       z     vdW  Elec       q    Type
                         _______ _______ _______ _____ _____    ______ ____

>  <TORSDO>
F 19

$$$$
=
 OpenBabel11062418413D

 69 76  0  0  1  0  0  0  0  0999 V2000
  189.4170  174.8920  144.7270 C   0  0  1  0  0  3  0  0  0  0  0  0
  189.4020  172.5130  143.0520 O   0  0  0  0  0  1  0  0  0  0  0  0
  190.5380  173.3310  143.1270 C   0  0  1  0  0  3  0  0  0  0  0  0
  190.1320  174.7760  143.3760 C   0  0  0  0  0  2  0  0  0  0  0  0
  191.0830  173.4360  145.6160 C   0  0  2  0  0  3  0  0  0  0  0  0
  191.4780  172.8750  144.2440 C   0  0  2  0  0  0  0  0  0  0  0  0
  192.8440  173.4870  144.0150 C   0  0  1  0  0  3  0  0  0  0  0  0
  193.2150  174.1060  145.3470 C   0  0  2  0  0  3  0  0  0  0  0  0
  191.5360  171.4780  144.3100 O   0  0  0  0  0  1  0  0  0  0  0  0
  189.7530  173.9350  145.7270 O   0  0  0  0  0  0  0  0  0  0  0  0
  192.0340  174.3790  146.0530 O   0  0  0  0  0  0  0  0  0  0  0  0
  196.0760  172.4690  139.6510 O   0  0  0  0  0  0  0  0  0  0  0  0
  193.9540  172.6020  143.4300 C   0  0  1  0  0  3  0  0  0  0  0  0
  197.9410  173.2520  138.3770 C   0  0  0  0  0  1  0  0  0  0  0  0
  194.8560  171.4970  137.8930 C   0  0  0  0  0  2  0  0  0  0  0  0
  195.4940  170.3600  142.7850 C   0  0  1  0  0  3  0  0  0  0  0  0
  193.6860  172.7840  139.7730 C   0  0  2  0  0  3  0  0  0  0  0  0
  195.5040  171.1900  143.9300 O   0  0  0  0  0  0  0  0  0  0  0  0
  194.2460  171.4850  144.2250 O   0  0  0  0  0  0  0  0  0  0  0  0
  195.8850  172.4140  137.2940 C   0  0  0  0  0  2  0  0  0  0  0  0
  194.8480  171.8320  139.3720 C   0  0  2  0  0  0  0  0  0  0  0  0
  194.7630  170.5600  140.2110 C   0  0  0  0  0  2  0  0  0  0  0  0
  193.6820  172.1480  142.0010 C   0  0  1  0  0  3  0  0  0  0  0  0
  196.4330  173.1610  138.4810 C   0  0  1  0  0  3  0  0  0  0  0  0
  193.8930  173.2260  141.1040 O   0  0  0  0  0  0  0  0  0  0  0  0
  194.5640  170.9230  141.6830 C   0  0  2  0  0  3  0  0  0  0  0  0
  197.3370  169.0580  141.9750 O   0  0  0  0  0  0  0  0  0  0  0  0
  197.7150  171.3110  142.1780 O   0  0  0  0  0  1  0  0  0  0  0  0
  196.8960  170.1970  142.2910 C   0  0  0  0  0  0  0  0  0  0  0  0
  191.6300  172.1590  140.8300 O   0  0  0  0  0  1  0  0  0  0  0  0
  192.2050  172.3420  139.5700 C   0  0  1  0  0  3  0  0  0  0  0  0
  190.4550  171.3630  137.5900 O   0  0  0  0  0  1  0  0  0  0  0  0
  191.3320  173.2770  138.7220 C   0  0  1  0  0  3  0  0  0  0  0  0
  192.0640  173.8010  137.6510 O   0  0  0  0  0  0  0  0  0  0  0  0
  189.5210  172.9290  135.7900 F   0  0  0  0  0  0  0  0  0  0  0  0
  190.1220  172.6270  138.0950 C   0  0  1  0  0  3  0  0  0  0  0  0
  189.8950  173.5840  136.9570 C   0  0  1  0  0  3  0  0  0  0  0  0
  191.1350  174.3690  136.8290 N   0  0  2  0  0  0  0  0  0  0  0  0
  192.8320  175.3100  135.2690 C   0  0  1  0  0  0  0  0  0  0  0  0
  191.6710  174.3310  135.4660 C   0  0  1  0  0  3  0  0  0  0  0  0
  193.1060  173.8340  135.4820 C   0  0  1  0  0  3  0  0  0  0  0  0
  193.9570  174.6330  134.5170 C   0  0  0  0  0  2  0  0  0  0  0  0
  193.3360  176.0210  136.5150 C   0  0  0  0  0  1  0  0  0  0  0  0
  194.0490  175.3830  145.1960 C   0  0  0  0  0  0  0  0  0  0  0  0
  193.3250  176.3520  144.5190 F   0  0  0  0  0  0  0  0  0  0  0  0
  195.1680  175.0850  144.4400 F   0  0  0  0  0  0  0  0  0  0  0  0
  193.4890  176.5810  146.9560 F   0  0  0  0  0  0  0  0  0  0  0  0
  194.4810  175.8620  146.4470 O   0  0  0  0  0  0  0  0  0  0  0  0
  190.1480  176.6340  146.2030 O   0  0  0  0  0  1  0  0  0  0  0  0
  189.1710  176.3270  145.2510 C   0  0  1  0  0  0  0  0  0  0  0  0
  189.3240  177.3210  144.0760 C   0  0  1  0  0  3  0  0  0  0  0  0
  190.6320  177.3060  143.5690 O   0  0  0  0  0  0  0  0  0  0  0  0
  191.0690  178.6270  143.6520 C   0  0  0  0  0  1  0  0  0  0  0  0
  188.4200  176.9660  143.0330 O   0  0  0  0  0  0  0  0  0  0  0  0
  187.4680  177.8550  142.5270 C   0  0  0  0  0  0  0  0  0  0  0  0
  187.6120  179.0990  142.6660 O   0  0  0  0  0  0  0  0  0  0  0  0
  186.2960  177.3330  141.7630 C   0  0  1  0  0  3  0  0  0  0  0  0
  185.1750  179.3970  143.1210 O   0  0  0  0  0  1  0  0  0  0  0  0
  183.8270  178.2440  141.2670 O   0  0  0  0  0  1  0  0  0  0  0  0
  184.7290  177.7800  142.6790 P   0  0  0  0  0  0  0  0  0  0  0  0
  186.1790  176.9300  139.4080 O   0  0  0  0  0  1  0  0  0  0  0  0
  186.2840  177.9370  140.3680 C   0  0  0  0  0  2  0  0  0  0  0  0
  187.8100  176.4390  145.9590 C   0  0  0  0  0  2  0  0  0  0  0  0
  187.4800  177.8290  146.4970 C   0  0  0  0  0  2  0  0  0  0  0  0
  186.3600  177.7580  147.5240 C   0  0  0  0  0  2  0  0  0  0  0  0
  185.0280  178.2530  146.9740 C   0  0  0  0  0  0  0  0  0  0  0  0
  185.2330  179.3320  146.1320 F   0  0  0  0  0  0  0  0  0  0  0  0
  184.4380  177.2290  146.2550 F   0  0  0  0  0  0  0  0  0  0  0  0
  184.1870  178.6190  148.0080 F   0  0  0  0  0  0  0  0  0  0  0  0
  1 50  1  1  0  0  0
  1 10  1  0  0  0  0
  3  2  1  1  0  0  0
  3  4  1  0  0  0  0
  3  6  1  0  0  0  0
  4  1  1  0  0  0  0
  5 10  1  6  0  0  0
  5 11  1  0  0  0  0
  6  9  1  1  0  0  0
  6  5  1  0  0  0  0
  7 13  1  1  0  0  0
  7  6  1  0  0  0  0
  7  8  1  0  0  0  0
  8 44  1  6  0  0  0
  8 11  1  0  0  0  0
 13 19  1  1  0  0  0
 16 29  1  6  0  0  0
 16 18  1  0  0  0  0
 17 31  1  1  0  0  0
 17 25  1  0  0  0  0
 18 19  1  0  0  0  0
 20 15  1  0  0  0  0
 20 24  1  0  0  0  0
 21 15  1  6  0  0  0
 21 12  1  0  0  0  0
 21 17  1  0  0  0  0
 21 22  1  0  0  0  0
 23 25  1  6  0  0  0
 23 13  1  0  0  0  0
 24 14  1  6  0  0  0
 24 12  1  0  0  0  0
 26 22  1  6  0  0  0
 26 23  1  0  0  0  0
 26 16  1  0  0  0  0
 27 29  2  0  0  0  0
 28 29  1  0  0  0  0
 31 30  1  1  0  0  0
 33 31  1  6  0  0  0
 34 33  1  0  0  0  0
 36 32  1  6  0  0  0
 36 33  1  0  0  0  0
 37 35  1  6  0  0  0
 37 36  1  0  0  0  0
 38 37  1  0  0  0  0
 38 34  1  1  0  0  0
 39 40  1  0  0  0  0
 39 41  1  0  0  0  0
 39 43  1  1  0  0  0
 40 41  1  0  0  0  0
 40 38  1  1  0  0  0
 41 42  1  6  0  0  0
 42 39  1  0  0  0  0
 44 48  1  0  0  0  0
 45 44  1  0  0  0  0
 46 44  1  0  0  0  0
 48 47  1  0  0  0  0
 50 63  1  0  0  0  0
 50 49  1  1  0  0  0
 51 54  1  6  0  0  0
 51 50  1  0  0  0  0
 52 53  1  0  0  0  0
 52 51  1  0  0  0  0
 55 56  2  0  0  0  0
 55 54  1  0  0  0  0
 57 62  1  6  0  0  0
 57 55  1  0  0  0  0
 57 60  1  0  0  0  0
 59 60  1  0  0  0  0
 60 58  1  0  0  0  0
 61 62  1  0  0  0  0
 63 64  1  0  0  0  0
 64 65  1  0  0  0  0
 66 65  1  0  0  0  0
 66 69  1  0  0  0  0
 67 66  1  0  0  0  0
 68 66  1  0  0  0  0
M  END
>  <MODEL>
7

>  <REMARK>
 VINA RESULT:      -5.2      2.316      3.662
  Name = 
  19 active torsions:
  status: ('A' for Active; 'I' for Inactive)
    1  A    between atoms: C_1  and  C_41
    2  A    between atoms: C_7  and  C_57
    3  A    between atoms: C_10  and  C_37
    4  A    between atoms: C_16  and  C_49
    5  A    between atoms: C_17  and  C_33
    6  A    between atoms: C_18  and  C_57
    7  A    between atoms: C_18  and  C_63
    8  A    between atoms: C_19  and  O_21
    9  A    between atoms: C_19  and  C_41
   10  A    between atoms: C_19  and  O_43
   11  A    between atoms: C_22  and  C_33
   12  A    between atoms: C_25  and  N_62
   13  A    between atoms: C_36  and  C_45
   14  A    between atoms: C_36  and  O_69
   15  A    between atoms: P_40  and  C_66
   16  A    between atoms: C_41  and  C_63
   17  A    between atoms: O_43  and  C_47
   18  A    between atoms: C_47  and  C_66
   19  A    between atoms: C_60  and  C_66
                            x       y       z     vdW  Elec       q    Type
                         _______ _______ _______ _____ _____    ______ ____

>  <TORSDO>
F 19

$$$$
=
 OpenBabel11062418413D

 69 76  0  0  1  0  0  0  0  0999 V2000
  195.5510  170.5970  143.5700 C   0  0  1  0  0  3  0  0  0  0  0  0
  192.7570  169.9320  143.0980 O   0  0  0  0  0  1  0  0  0  0  0  0
  193.4890  170.6680  142.1560 C   0  0  1  0  0  3  0  0  0  0  0  0
  194.5490  171.5090  142.8510 C   0  0  0  0  0  2  0  0  0  0  0  0
  195.5110  169.2030  141.6360 C   0  0  2  0  0  3  0  0  0  0  0  0
  194.1660  169.7480  141.1380 C   0  0  2  0  0  0  0  0  0  0  0  0
  194.5670  170.5670  139.9280 C   0  0  1  0  0  3  0  0  0  0  0  0
  196.0200  170.2110  139.6900 C   0  0  2  0  0  3  0  0  0  0  0  0
  193.3280  168.6810  140.7930 O   0  0  0  0  0  1  0  0  0  0  0  0
  195.7380  169.2880  143.0400 O   0  0  0  0  0  0  0  0  0  0  0  0
  196.5720  169.7650  140.8990 O   0  0  0  0  0  0  0  0  0  0  0  0
  190.9170  173.1220  136.6600 O   0  0  0  0  0  0  0  0  0  0  0  0
  193.7040  170.4710  138.6610 C   0  0  1  0  0  3  0  0  0  0  0  0
  190.6210  174.8680  135.0550 C   0  0  0  0  0  1  0  0  0  0  0  0
  188.7990  173.2370  137.6720 C   0  0  0  0  0  2  0  0  0  0  0  0
  192.0220  169.4640  136.6700 C   0  0  1  0  0  3  0  0  0  0  0  0
  190.9140  172.8240  139.0560 C   0  0  2  0  0  3  0  0  0  0  0  0
  193.4260  169.3870  136.8190 O   0  0  0  0  0  0  0  0  0  0  0  0
  193.6840  169.1850  138.1040 O   0  0  0  0  0  0  0  0  0  0  0  0
  189.0120  174.5050  136.8930 C   0  0  0  0  0  2  0  0  0  0  0  0
  190.1620  172.5740  137.7180 C   0  0  2  0  0  0  0  0  0  0  0  0
  190.0350  171.0690  137.4910 C   0  0  0  0  0  2  0  0  0  0  0  0
  192.2740  170.9590  138.8600 C   0  0  1  0  0  3  0  0  0  0  0  0
  190.4640  174.4430  136.5000 C   0  0  1  0  0  3  0  0  0  0  0  0
  192.2520  172.3750  138.9220 O   0  0  0  0  0  0  0  0  0  0  0  0
  191.3870  170.3950  137.7300 C   0  0  2  0  0  3  0  0  0  0  0  0
  191.0040  169.2000  134.5150 O   0  0  0  0  0  0  0  0  0  0  0  0
  192.1880  171.1380  134.8330 O   0  0  0  0  0  1  0  0  0  0  0  0
  191.7060  169.9170  135.2800 C   0  0  0  0  0  0  0  0  0  0  0  0
  190.6890  170.9970  140.5870 O   0  0  0  0  0  1  0  0  0  0  0  0
  190.3060  172.3270  140.4020 C   0  0  1  0  0  3  0  0  0  0  0  0
  189.1520  171.8000  142.9190 O   0  0  0  0  0  1  0  0  0  0  0  0
  190.6560  173.1550  141.6470 C   0  0  1  0  0  3  0  0  0  0  0  0
  189.9080  174.3370  141.6810 O   0  0  0  0  0  0  0  0  0  0  0  0
  189.2460  173.5520  144.7860 F   0  0  0  0  0  0  0  0  0  0  0  0
  190.3800  172.4720  142.9660 C   0  0  1  0  0  3  0  0  0  0  0  0
  190.2610  173.6860  143.8460 C   0  0  1  0  0  3  0  0  0  0  0  0
  190.0870  174.8340  142.9400 N   0  0  2  0  0  0  0  0  0  0  0  0
  189.2140  177.1110  143.4450 C   0  0  1  0  0  0  0  0  0  0  0  0
  188.8970  175.6220  143.2740 C   0  0  1  0  0  3  0  0  0  0  0  0
  188.5910  176.6060  142.1580 C   0  0  1  0  0  3  0  0  0  0  0  0
  188.1750  177.9450  142.7280 C   0  0  0  0  0  2  0  0  0  0  0  0
  190.6270  177.5470  143.0910 C   0  0  0  0  0  1  0  0  0  0  0  0
  196.8350  171.3860  139.1380 C   0  0  0  0  0  0  0  0  0  0  0  0
  197.2880  171.0980  137.8600 F   0  0  0  0  0  0  0  0  0  0  0  0
  197.9410  171.5680  139.9480 F   0  0  0  0  0  0  0  0  0  0  0  0
  196.9490  173.5840  139.1620 F   0  0  0  0  0  0  0  0  0  0  0  0
  196.0850  172.5770  139.1480 O   0  0  0  0  0  0  0  0  0  0  0  0
  197.6390  171.6380  143.0210 O   0  0  0  0  0  1  0  0  0  0  0  0
  196.8330  171.2760  144.1050 C   0  0  1  0  0  0  0  0  0  0  0  0
  196.4380  172.5690  144.8560 C   0  0  1  0  0  3  0  0  0  0  0  0
  197.5100  173.0600  145.6160 O   0  0  0  0  0  0  0  0  0  0  0  0
  196.9200  173.7510  146.6720 C   0  0  0  0  0  1  0  0  0  0  0  0
  196.0470  173.5640  143.9130 O   0  0  0  0  0  0  0  0  0  0  0  0
  195.0550  174.5110  144.1860 C   0  0  0  0  0  0  0  0  0  0  0  0
  193.9680  174.1670  144.7240 O   0  0  0  0  0  0  0  0  0  0  0  0
  195.3040  175.9530  143.8900 C   0  0  1  0  0  3  0  0  0  0  0  0
  196.2010  176.5250  141.3940 O   0  0  0  0  0  1  0  0  0  0  0  0
  194.4430  174.6820  141.6970 O   0  0  0  0  0  1  0  0  0  0  0  0
  194.6650  176.3380  142.1770 P   0  0  0  0  0  0  0  0  0  0  0  0
  195.0930  176.5380  146.2000 O   0  0  0  0  0  1  0  0  0  0  0  0
  194.6010  176.8160  144.9250 C   0  0  0  0  0  2  0  0  0  0  0  0
  197.6610  170.3090  144.9700 C   0  0  0  0  0  2  0  0  0  0  0  0
  197.0630  170.0020  146.3390 C   0  0  0  0  0  2  0  0  0  0  0  0
  196.2950  168.6890  146.3100 C   0  0  0  0  0  2  0  0  0  0  0  0
  194.8400  168.8510  146.7320 C   0  0  0  0  0  0  0  0  0  0  0  0
  194.4880  170.1890  146.7230 F   0  0  0  0  0  0  0  0  0  0  0  0
  194.0400  168.1710  145.8310 F   0  0  0  0  0  0  0  0  0  0  0  0
  194.6430  168.3230  147.9950 F   0  0  0  0  0  0  0  0  0  0  0  0
  1 50  1  6  0  0  0
  3  4  1  0  0  0  0
  3  2  1  1  0  0  0
  4  1  1  0  0  0  0
  5 11  1  6  0  0  0
  5 10  1  0  0  0  0
  6  9  1  6  0  0  0
  6  5  1  0  0  0  0
  6  3  1  0  0  0  0
  7 13  1  6  0  0  0
  7  6  1  0  0  0  0
  8 44  1  1  0  0  0
  8  7  1  0  0  0  0
  8 11  1  0  0  0  0
 10  1  1  0  0  0  0
 12 21  1  0  0  0  0
 13 19  1  1  0  0  0
 13 23  1  0  0  0  0
 15 21  1  0  0  0  0
 16 29  1  6  0  0  0
 16 18  1  0  0  0  0
 16 26  1  0  0  0  0
 17 31  1  1  0  0  0
 18 19  1  0  0  0  0
 20 15  1  0  0  0  0
 21 22  1  6  0  0  0
 21 17  1  0  0  0  0
 23 25  1  6  0  0  0
 24 14  1  6  0  0  0
 24 12  1  0  0  0  0
 24 20  1  0  0  0  0
 25 17  1  0  0  0  0
 26 22  1  6  0  0  0
 26 23  1  0  0  0  0
 27 29  2  0  0  0  0
 28 29  1  0  0  0  0
 31 30  1  1  0  0  0
 33 31  1  6  0  0  0
 33 34  1  0  0  0  0
 33 36  1  0  0  0  0
 36 32  1  6  0  0  0
 36 37  1  0  0  0  0
 37 35  1  1  0  0  0
 38 34  1  6  0  0  0
 38 37  1  0  0  0  0
 39 43  1  6  0  0  0
 40 38  1  6  0  0  0
 40 39  1  0  0  0  0
 41 42  1  1  0  0  0
 41 40  1  0  0  0  0
 41 39  1  0  0  0  0
 42 39  1  0  0  0  0
 44 48  1  0  0  0  0
 44 46  1  0  0  0  0
 45 44  1  0  0  0  0
 48 47  1  0  0  0  0
 50 49  1  6  0  0  0
 50 51  1  0  0  0  0
 50 63  1  0  0  0  0
 51 54  1  6  0  0  0
 51 52  1  0  0  0  0
 52 53  1  0  0  0  0
 54 55  1  0  0  0  0
 55 56  2  0  0  0  0
 57 55  1  0  0  0  0
 57 62  1  1  0  0  0
 58 60  1  0  0  0  0
 59 60  1  0  0  0  0
 60 57  1  0  0  0  0
 62 61  1  0  0  0  0
 63 64  1  0  0  0  0
 65 64  1  0  0  0  0
 65 66  1  0  0  0  0
 66 69  1  0  0  0  0
 67 66  1  0  0  0  0
 68 66  1  0  0  0  0
M  END
>  <MODEL>
8

>  <REMARK>
 VINA RESULT:      -5.1      3.356      7.770
  Name = 
  19 active torsions:
  status: ('A' for Active; 'I' for Inactive)
    1  A    between atoms: C_1  and  C_41
    2  A    between atoms: C_7  and  C_57
    3  A    between atoms: C_10  and  C_37
    4  A    between atoms: C_16  and  C_49
    5  A    between atoms: C_17  and  C_33
    6  A    between atoms: C_18  and  C_57
    7  A    between atoms: C_18  and  C_63
    8  A    between atoms: C_19  and  O_21
    9  A    between atoms: C_19  and  C_41
   10  A    between atoms: C_19  and  O_43
   11  A    between atoms: C_22  and  C_33
   12  A    between atoms: C_25  and  N_62
   13  A    between atoms: C_36  and  C_45
   14  A    between atoms: C_36  and  O_69
   15  A    between atoms: P_40  and  C_66
   16  A    between atoms: C_41  and  C_63
   17  A    between atoms: O_43  and  C_47
   18  A    between atoms: C_47  and  C_66
   19  A    between atoms: C_60  and  C_66
                            x       y       z     vdW  Elec       q    Type
                         _______ _______ _______ _____ _____    ______ ____

>  <TORSDO>
F 19

$$$$
=
 OpenBabel11062418413D

 69 76  0  0  1  0  0  0  0  0999 V2000
  188.9220  174.6320  142.4690 C   0  0  1  0  0  3  0  0  0  0  0  0
  188.1720  173.3090  139.9890 O   0  0  0  0  0  1  0  0  0  0  0  0
  189.2940  174.1470  140.0440 C   0  0  1  0  0  3  0  0  0  0  0  0
  189.0820  175.2470  141.0730 C   0  0  0  0  0  2  0  0  0  0  0  0
  190.7250  173.1720  141.9180 C   0  0  2  0  0  3  0  0  0  0  0  0
  190.5570  173.3610  140.4040 C   0  0  2  0  0  0  0  0  0  0  0  0
  191.7710  174.1890  140.0370 C   0  0  1  0  0  3  0  0  0  0  0  0
  192.6370  174.1720  141.2790 C   0  0  2  0  0  3  0  0  0  0  0  0
  190.5660  172.1110  139.7740 O   0  0  0  0  0  1  0  0  0  0  0  0
  189.5560  173.3790  142.7060 O   0  0  0  0  0  0  0  0  0  0  0  0
  191.8150  173.9280  142.3890 O   0  0  0  0  0  0  0  0  0  0  0  0
  194.2310  170.1810  137.1360 O   0  0  0  0  0  0  0  0  0  0  0  0
  192.5410  173.8300  138.7570 C   0  0  1  0  0  3  0  0  0  0  0  0
  193.8680  168.2290  135.8050 C   0  0  0  0  0  1  0  0  0  0  0  0
  196.2640  169.5370  138.1230 C   0  0  0  0  0  2  0  0  0  0  0  0
  194.3310  173.9650  136.6150 C   0  0  1  0  0  3  0  0  0  0  0  0
  194.4730  170.7880  139.4600 C   0  0  2  0  0  3  0  0  0  0  0  0
  193.0320  174.5050  136.7710 O   0  0  0  0  0  0  0  0  0  0  0  0
  192.9290  174.9530  138.0140 O   0  0  0  0  0  0  0  0  0  0  0  0
  195.6180  168.3090  137.5460 C   0  0  0  0  0  2  0  0  0  0  0  0
  195.1830  170.6000  138.0890 C   0  0  2  0  0  0  0  0  0  0  0  0
  195.7600  171.9390  137.6380 C   0  0  0  0  0  2  0  0  0  0  0  0
  193.7560  172.9440  139.0060 C   0  0  1  0  0  3  0  0  0  0  0  0
  194.2380  168.7760  137.1680 C   0  0  1  0  0  3  0  0  0  0  0  0
  193.3370  171.6170  139.2780 O   0  0  0  0  0  0  0  0  0  0  0  0
  194.7050  173.0350  137.7930 C   0  0  2  0  0  3  0  0  0  0  0  0
  193.4430  172.5310  134.9110 O   0  0  0  0  0  1  0  0  0  0  0  0
  195.5360  173.3800  134.5150 O   0  0  0  0  0  0  0  0  0  0  0  0
  194.4030  173.2490  135.3040 C   0  0  0  0  0  0  0  0  0  0  0  0
  194.9280  172.5620  141.0030 O   0  0  0  0  0  1  0  0  0  0  0  0
  195.2870  171.2450  140.7080 C   0  0  1  0  0  3  0  0  0  0  0  0
  192.8320  170.0780  141.4520 O   0  0  0  0  0  1  0  0  0  0  0  0
  195.1500  170.3680  141.9600 C   0  0  1  0  0  3  0  0  0  0  0  0
  194.9870  171.1590  143.1030 O   0  0  0  0  0  0  0  0  0  0  0  0
  192.4820  169.1850  143.8280 F   0  0  0  0  0  0  0  0  0  0  0  0
  193.9660  169.4290  141.9560 C   0  0  1  0  0  3  0  0  0  0  0  0
  193.8150  169.2220  143.4380 C   0  0  1  0  0  3  0  0  0  0  0  0
  194.5960  170.2920  144.0820 N   0  0  2  0  0  0  0  0  0  0  0  0
  194.6360  172.0550  145.8410 C   0  0  1  0  0  0  0  0  0  0  0  0
  193.7950  171.0520  145.0460 C   0  0  1  0  0  3  0  0  0  0  0  0
  193.7870  172.5250  144.6750 C   0  0  1  0  0  3  0  0  0  0  0  0
  193.9200  173.3860  145.9140 C   0  0  0  0  0  2  0  0  0  0  0  0
  196.0840  172.2180  145.4060 C   0  0  0  0  0  1  0  0  0  0  0  0
  193.4190  175.4760  141.4750 C   0  0  0  0  0  0  0  0  0  0  0  0
  192.5450  176.5340  141.6680 F   0  0  0  0  0  0  0  0  0  0  0  0
  194.1400  175.7280  140.3220 F   0  0  0  0  0  0  0  0  0  0  0  0
  193.9260  176.2190  143.4840 F   0  0  0  0  0  0  0  0  0  0  0  0
  194.3260  175.3710  142.5450 O   0  0  0  0  0  0  0  0  0  0  0  0
  189.6130  176.7880  143.2590 O   0  0  0  0  0  1  0  0  0  0  0  0
  188.9580  175.6190  143.6600 C   0  0  1  0  0  0  0  0  0  0  0  0
  187.5080  175.9950  144.0410 C   0  0  1  0  0  3  0  0  0  0  0  0
  187.3020  175.8770  145.4250 O   0  0  0  0  0  0  0  0  0  0  0  0
  187.3090  177.1840  145.9060 C   0  0  0  0  0  1  0  0  0  0  0  0
  187.2470  177.3400  143.6490 O   0  0  0  0  0  0  0  0  0  0  0  0
  186.5630  177.6620  142.4730 C   0  0  0  0  0  0  0  0  0  0  0  0
  187.1950  177.9540  141.4220 O   0  0  0  0  0  0  0  0  0  0  0  0
  185.0710  177.6070  142.4410 C   0  0  1  0  0  3  0  0  0  0  0  0
  184.4320  177.9770  145.0520 O   0  0  0  0  0  1  0  0  0  0  0  0
  185.9160  179.7060  143.8740 O   0  0  0  0  0  1  0  0  0  0  0  0
  184.3940  178.9140  143.5930 P   0  0  0  0  0  0  0  0  0  0  0  0
  183.1970  178.0220  141.0150 O   0  0  0  0  0  1  0  0  0  0  0  0
  184.5810  177.8440  141.0230 C   0  0  0  0  0  2  0  0  0  0  0  0
  189.7600  175.0440  144.8410 C   0  0  0  0  0  2  0  0  0  0  0  0
  190.8460  175.9660  145.3870 C   0  0  0  0  0  2  0  0  0  0  0  0
  190.4710  176.4830  146.7670 C   0  0  0  0  0  2  0  0  0  0  0  0
  191.6180  176.3760  147.7650 C   0  0  0  0  0  0  0  0  0  0  0  0
  191.4340  175.2780  148.5870 F   0  0  0  0  0  0  0  0  0  0  0  0
  192.8010  176.2180  147.0630 F   0  0  0  0  0  0  0  0  0  0  0  0
  191.7000  177.5250  148.5290 F   0  0  0  0  0  0  0  0  0  0  0  0
  1 10  1  0  0  0  0
  1 50  1  1  0  0  0
  3  2  1  1  0  0  0
  3  6  1  0  0  0  0
  3  4  1  0  0  0  0
  4  1  1  0  0  0  0
  5 11  1  1  0  0  0
  5 10  1  0  0  0  0
  6  9  1  6  0  0  0
  6  5  1  0  0  0  0
  7 13  1  6  0  0  0
  7  6  1  0  0  0  0
  7  8  1  0  0  0  0
  8 44  1  1  0  0  0
  8 11  1  0  0  0  0
 12 24  1  0  0  0  0
 12 21  1  0  0  0  0
 13 19  1  1  0  0  0
 13 23  1  0  0  0  0
 16 29  1  6  0  0  0
 16 18  1  0  0  0  0
 16 26  1  0  0  0  0
 17 31  1  1  0  0  0
 18 19  1  0  0  0  0
 20 15  1  0  0  0  0
 21 22  1  6  0  0  0
 21 15  1  0  0  0  0
 21 17  1  0  0  0  0
 23 25  1  6  0  0  0
 24 14  1  6  0  0  0
 24 20  1  0  0  0  0
 25 17  1  0  0  0  0
 26 22  1  6  0  0  0
 26 23  1  0  0  0  0
 27 29  1  0  0  0  0
 28 29  2  0  0  0  0
 31 30  1  1  0  0  0
 33 31  1  6  0  0  0
 33 34  1  0  0  0  0
 36 32  1  1  0  0  0
 36 33  1  0  0  0  0
 36 37  1  0  0  0  0
 37 35  1  1  0  0  0
 37 38  1  0  0  0  0
 38 34  1  6  0  0  0
 39 43  1  6  0  0  0
 39 42  1  0  0  0  0
 40 38  1  6  0  0  0
 40 39  1  0  0  0  0
 41 40  1  0  0  0  0
 41 39  1  0  0  0  0
 41 42  1  1  0  0  0
 44 45  1  0  0  0  0
 44 48  1  0  0  0  0
 46 44  1  0  0  0  0
 48 47  1  0  0  0  0
 50 49  1  6  0  0  0
 50 51  1  0  0  0  0
 50 63  1  0  0  0  0
 51 54  1  1  0  0  0
 51 52  1  0  0  0  0
 52 53  1  0  0  0  0
 55 54  1  0  0  0  0
 56 55  2  0  0  0  0
 57 62  1  6  0  0  0
 57 55  1  0  0  0  0
 57 60  1  0  0  0  0
 60 59  1  0  0  0  0
 60 58  1  0  0  0  0
 61 62  1  0  0  0  0
 63 64  1  0  0  0  0
 64 65  1  0  0  0  0
 65 66  1  0  0  0  0
 66 69  1  0  0  0  0
 66 67  1  0  0  0  0
 68 66  1  0  0  0  0
M  END
>  <MODEL>
9

>  <REMARK>
 VINA RESULT:      -4.7      2.605      5.346
  Name = 
  19 active torsions:
  status: ('A' for Active; 'I' for Inactive)
    1  A    between atoms: C_1  and  C_41
    2  A    between atoms: C_7  and  C_57
    3  A    between atoms: C_10  and  C_37
    4  A    between atoms: C_16  and  C_49
    5  A    between atoms: C_17  and  C_33
    6  A    between atoms: C_18  and  C_57
    7  A    between atoms: C_18  and  C_63
    8  A    between atoms: C_19  and  O_21
    9  A    between atoms: C_19  and  C_41
   10  A    between atoms: C_19  and  O_43
   11  A    between atoms: C_22  and  C_33
   12  A    between atoms: C_25  and  N_62
   13  A    between atoms: C_36  and  C_45
   14  A    between atoms: C_36  and  O_69
   15  A    between atoms: P_40  and  C_66
   16  A    between atoms: C_41  and  C_63
   17  A    between atoms: O_43  and  C_47
   18  A    between atoms: C_47  and  C_66
   19  A    between atoms: C_60  and  C_66
                            x       y       z     vdW  Elec       q    Type
                         _______ _______ _______ _____ _____    ______ ____

>  <TORSDO>
F 19

$$$$
