=
 OpenBabel11072409023D

 47 49  0  0  1  0  0  0  0  0999 V2000
  189.6500  177.2290  144.4400 C   0  0  0  0  0  2  0  0  0  0  0  0
  193.6470  175.6030  146.2220 C   0  0  0  0  0  0  0  0  0  0  0  0
  192.7670  174.4170  146.1250 C   0  0  1  0  0  3  0  0  0  0  0  0
  190.2260  174.3270  145.5610 C   0  0  0  0  0  2  0  0  0  0  0  0
  192.9700  176.8380  146.0840 N   0  0  0  0  0  2  0  0  0  0  0  0
  191.1400  176.9310  144.4900 C   0  0  0  0  0  2  0  0  0  0  0  0
  191.5540  176.5770  145.9130 C   0  0  1  0  0  3  0  0  0  0  0  0
  188.9300  175.1190  145.6010 C   0  0  0  0  0  2  0  0  0  0  0  0
  188.8070  175.9580  144.3310 C   0  0  1  0  0  3  0  0  0  0  0  0
  191.3790  175.0750  146.2380 C   0  0  2  0  0  3  0  0  0  0  0  0
  194.8900  175.5360  146.4010 O   0  0  0  0  0  0  0  0  0  0  0  0
  187.3440  176.3360  144.0700 C   0  0  2  0  0  3  0  0  0  0  0  0
  186.9180  175.9530  142.7270 N   0  0  0  0  0  2  0  0  0  0  0  0
  187.3630  177.4510  140.6330 C   0  0  0  0  0  3  0  0  0  0  0  0
  187.1600  176.7580  141.6000 C   0  0  0  0  0  0  0  0  0  0  0  0
  187.1490  177.7720  144.2530 N   0  0  0  0  0  2  0  0  0  0  0  0
  185.7170  178.0100  144.3870 C   0  0  1  0  0  3  0  0  0  0  0  0
  186.1970  176.7700  147.6570 C   0  0  0  0  0  2  0  0  0  0  0  0
  185.2910  176.6760  146.4730 C   0  0  0  0  0  2  0  0  0  0  0  0
  186.2270  178.8680  146.5830 O   0  0  0  0  0  0  0  0  0  0  0  0
  183.9160  178.6850  146.0350 C   0  0  0  0  0  1  0  0  0  0  0  0
  187.0150  177.9940  147.3540 C   0  0  0  0  0  2  0  0  0  0  0  0
  185.3020  178.0730  145.8720 C   0  0  1  0  0  0  0  0  0  0  0  0
  185.3010  179.2190  143.5850 C   0  0  0  0  0  3  0  0  0  0  0  0
  185.7090  180.3340  143.8700 O   0  0  0  0  0  0  0  0  0  0  0  0
  193.0270  173.7520  144.7710 C   0  0  0  0  0  2  0  0  0  0  0  0
  193.9990  172.5810  144.8580 C   0  0  0  0  0  2  0  0  0  0  0  0
  193.2910  171.2430  144.7340 C   0  0  0  0  0  2  0  0  0  0  0  0
  192.2960  171.2940  143.5940 C   0  0  0  0  0  2  0  0  0  0  0  0
  192.9050  170.7610  142.3880 N   0  0  0  0  0  2  0  0  0  0  0  0
  192.5610  171.6590  141.2940 C   0  0  2  0  0  3  0  0  0  0  0  0
  191.9270  169.9180  139.7870 O   0  0  0  0  0  0  0  0  0  0  0  0
  191.6020  170.9850  140.3720 C   0  0  0  0  0  0  0  0  0  0  0  0
  190.1170  172.4000  139.2210 N   0  0  0  0  0  0  0  0  0  0  0  0
  190.3140  171.5640  140.1600 N   0  0  0  0  0  0  0  0  0  0  0  0
  188.8340  172.9860  138.9990 C   0  0  0  0  0  0  0  0  0  0  0  0
  187.8480  172.6020  139.6810 O   0  0  0  0  0  0  0  0  0  0  0  0
  188.6400  174.0430  137.9650 C   0  0  0  0  0  1  0  0  0  0  0  0
  193.8130  172.0720  140.5290 C   0  0  0  0  0  2  0  0  0  0  0  0
  194.7310  172.7670  141.4140 N   0  0  0  0  0  2  0  0  0  0  0  0
  194.4830  174.1920  141.2660 C   0  0  0  0  0  2  0  0  0  0  0  0
  195.7630  174.9870  141.5000 C   0  0  2  0  0  3  0  0  0  0  0  0
  196.7550  175.8480  143.6190 O   0  0  0  0  0  1  0  0  0  0  0  0
  194.6030  176.3910  143.0590 O   0  0  0  0  0  0  0  0  0  0  0  0
  195.6670  175.7840  142.7630 C   0  0  0  0  0  0  0  0  0  0  0  0
  196.2560  175.0340  139.2100 C   0  0  0  0  0  1  0  0  0  0  0  0
  195.9950  175.8740  140.3700 N   0  0  0  0  0  2  0  0  0  0  0  0
  1  6  1  0  0  0  0
  2 11  2  0  0  0  0
  3 26  1  6  0  0  0
  3  2  1  0  0  0  0
  3 10  1  0  0  0  0
  4  8  1  0  0  0  0
  5  2  1  0  0  0  0
  7  6  1  6  0  0  0
  7  5  1  0  0  0  0
  7 10  1  0  0  0  0
  9 12  1  1  0  0  0
  9  1  1  0  0  0  0
  9  8  1  0  0  0  0
 10  4  1  6  0  0  0
 12 13  1  6  0  0  0
 12 16  1  0  0  0  0
 14 15  3  0  0  0  0
 15 13  1  0  0  0  0
 16 17  1  0  0  0  0
 17 24  1  1  0  0  0
 17 23  1  0  0  0  0
 19 18  1  0  0  0  0
 20 22  1  0  0  0  0
 22 18  1  0  0  0  0
 23 21  1  1  0  0  0
 23 19  1  0  0  0  0
 23 20  1  0  0  0  0
 24 25  2  0  0  0  0
 26 27  1  0  0  0  0
 28 27  1  0  0  0  0
 29 28  1  0  0  0  0
 30 29  1  0  0  0  0
 31 39  1  6  0  0  0
 31 30  1  0  0  0  0
 32 33  2  0  0  0  0
 33 31  1  0  0  0  0
 34 35  2  0  0  0  0
 35 33  1  0  0  0  0
 36 34  1  0  0  0  0
 36 37  2  0  0  0  0
 38 36  1  0  0  0  0
 39 40  1  0  0  0  0
 41 40  1  0  0  0  0
 42 41  1  6  0  0  0
 42 45  1  0  0  0  0
 45 44  2  0  0  0  0
 45 43  1  0  0  0  0
 46 47  1  0  0  0  0
 47 42  1  0  0  0  0
M  END
>  <MODEL>
1

>  <REMARK>
 VINA RESULT:      -5.8      0.000      0.000
  Name = 
  22 active torsions:
  status: ('A' for Active; 'I' for Inactive)
    1  A    between atoms: C_1  and  CA_19
    2  A    between atoms: C_1  and  N_27
    3  A    between atoms: C_3  and  N_28
    4  A    between atoms: C_3  and  C_39
    5  A    between atoms: CA_4  and  N_11
    6  A    between atoms: CA_4  and  C_22
    7  A    between atoms: CA_4  and  C_41
    8  A    between atoms: C_7  and  C_10
    9  A    between atoms: C_7  and  C_12
   10  A    between atoms: C_10  and  C_39
   11  A    between atoms: N_11  and  C_14
   12  A    between atoms: N_13  and  C_14
   13  A    between atoms: N_13  and  C_42
   14  A    between atoms: C_14  and  C_40
   15  A    between atoms: CA_19  and  C_37
   16  A    between atoms: CA_19  and  N_47
   17  A    between atoms: C_20  and  C_24
   18  A    between atoms: C_20  and  N_43
   19  A    between atoms: C_21  and  N_23
   20  A    between atoms: C_24  and  N_28
   21  A    between atoms: C_24  and  C_32
   22  A    between atoms: N_27  and  C_32
                            x       y       z     vdW  Elec       q    Type
                         _______ _______ _______ _____ _____    ______ ____

>  <TORSDO>
F 22

$$$$
=
 OpenBabel11072409023D

 47 49  0  0  1  0  0  0  0  0999 V2000
  189.9960  177.0130  143.7560 C   0  0  0  0  0  2  0  0  0  0  0  0
  193.7020  175.5590  146.1940 C   0  0  0  0  0  0  0  0  0  0  0  0
  192.9960  174.3190  145.8070 C   0  0  1  0  0  3  0  0  0  0  0  0
  190.6470  174.0670  144.7090 C   0  0  0  0  0  2  0  0  0  0  0  0
  192.9370  176.7370  146.0260 N   0  0  0  0  0  2  0  0  0  0  0  0
  191.4690  176.8440  144.0950 C   0  0  0  0  0  2  0  0  0  0  0  0
  191.6220  176.3720  145.5360 C   0  0  1  0  0  3  0  0  0  0  0  0
  189.2920  174.7320  144.5430 C   0  0  0  0  0  2  0  0  0  0  0  0
  189.3370  175.6930  143.3570 C   0  0  1  0  0  3  0  0  0  0  0  0
  191.5500  174.8340  145.6810 C   0  0  2  0  0  3  0  0  0  0  0  0
  194.8830  175.5830  146.6270 O   0  0  0  0  0  0  0  0  0  0  0  0
  187.9250  175.9660  142.8250 C   0  0  2  0  0  3  0  0  0  0  0  0
  187.8400  175.7560  141.3830 N   0  0  0  0  0  2  0  0  0  0  0  0
  188.8750  173.6660  140.2050 C   0  0  0  0  0  3  0  0  0  0  0  0
  188.3980  174.6300  140.7510 C   0  0  0  0  0  0  0  0  0  0  0  0
  187.5180  177.3320  143.1440 N   0  0  0  0  0  2  0  0  0  0  0  0
  186.1730  177.2730  143.7060 C   0  0  1  0  0  3  0  0  0  0  0  0
  186.0020  176.9150  147.2140 C   0  0  0  0  0  2  0  0  0  0  0  0
  185.1730  177.2240  146.0100 C   0  0  0  0  0  2  0  0  0  0  0  0
  187.4050  177.9870  145.6530 O   0  0  0  0  0  0  0  0  0  0  0  0
  185.6300  179.4120  144.9490 C   0  0  0  0  0  1  0  0  0  0  0  0
  187.4060  177.0390  146.6910 C   0  0  0  0  0  2  0  0  0  0  0  0
  186.1150  177.9730  145.0800 C   0  0  1  0  0  0  0  0  0  0  0  0
  185.1590  177.7870  142.7150 C   0  0  0  0  0  3  0  0  0  0  0  0
  185.5090  178.2840  141.6560 O   0  0  0  0  0  0  0  0  0  0  0  0
  193.5950  173.8320  144.4850 C   0  0  0  0  0  2  0  0  0  0  0  0
  194.1500  172.4140  144.5670 C   0  0  0  0  0  2  0  0  0  0  0  0
  193.1720  171.3880  144.0200 C   0  0  0  0  0  2  0  0  0  0  0  0
  192.9760  171.6090  142.5360 C   0  0  0  0  0  2  0  0  0  0  0  0
  194.2560  171.5280  141.8550 N   0  0  0  0  0  2  0  0  0  0  0  0
  194.2140  172.4610  140.7370 C   0  0  2  0  0  3  0  0  0  0  0  0
  196.0570  173.4670  139.5980 O   0  0  0  0  0  0  0  0  0  0  0  0
  195.4760  173.2550  140.6960 C   0  0  0  0  0  0  0  0  0  0  0  0
  196.1850  175.0170  142.0810 N   0  0  0  0  0  0  0  0  0  0  0  0
  196.0180  173.7680  141.9130 N   0  0  0  0  0  0  0  0  0  0  0  0
  196.7280  175.5420  143.2940 C   0  0  0  0  0  0  0  0  0  0  0  0
  196.6850  176.7820  143.5090 O   0  0  0  0  0  0  0  0  0  0  0  0
  197.3510  174.6450  144.3090 C   0  0  0  0  0  1  0  0  0  0  0  0
  193.0170  173.3950  140.8670 C   0  0  0  0  0  2  0  0  0  0  0  0
  192.8590  174.1750  139.6520 N   0  0  0  0  0  2  0  0  0  0  0  0
  192.2020  173.3250  138.6720 C   0  0  0  0  0  2  0  0  0  0  0  0
  191.6800  174.1550  137.5040 C   0  0  2  0  0  3  0  0  0  0  0  0
  189.3150  174.0920  136.7170 O   0  0  0  0  0  1  0  0  0  0  0  0
  190.6880  172.2960  136.3610 O   0  0  0  0  0  0  0  0  0  0  0  0
  190.5420  173.4570  136.8270 C   0  0  0  0  0  0  0  0  0  0  0  0
  192.8390  175.8220  136.3350 C   0  0  0  0  0  1  0  0  0  0  0  0
  192.7570  174.3840  136.5540 N   0  0  0  0  0  2  0  0  0  0  0  0
  1  6  1  0  0  0  0
  2 11  2  0  0  0  0
  3 26  1  6  0  0  0
  3  2  1  0  0  0  0
  5  2  1  0  0  0  0
  7  6  1  6  0  0  0
  7 10  1  0  0  0  0
  7  5  1  0  0  0  0
  8  4  1  0  0  0  0
  9 12  1  1  0  0  0
  9  1  1  0  0  0  0
  9  8  1  0  0  0  0
 10  4  1  6  0  0  0
 10  3  1  0  0  0  0
 12 13  1  6  0  0  0
 12 16  1  0  0  0  0
 14 15  3  0  0  0  0
 15 13  1  0  0  0  0
 16 17  1  0  0  0  0
 17 24  1  6  0  0  0
 17 23  1  0  0  0  0
 19 18  1  0  0  0  0
 20 22  1  0  0  0  0
 22 18  1  0  0  0  0
 23 21  1  6  0  0  0
 23 20  1  0  0  0  0
 23 19  1  0  0  0  0
 25 24  2  0  0  0  0
 26 27  1  0  0  0  0
 28 27  1  0  0  0  0
 29 28  1  0  0  0  0
 30 29  1  0  0  0  0
 31 39  1  1  0  0  0
 31 30  1  0  0  0  0
 32 33  2  0  0  0  0
 33 31  1  0  0  0  0
 33 35  1  0  0  0  0
 34 36  1  0  0  0  0
 35 34  2  0  0  0  0
 36 37  2  0  0  0  0
 36 38  1  0  0  0  0
 40 39  1  0  0  0  0
 41 40  1  0  0  0  0
 42 41  1  1  0  0  0
 43 45  1  0  0  0  0
 44 45  2  0  0  0  0
 45 42  1  0  0  0  0
 46 47  1  0  0  0  0
 47 42  1  0  0  0  0
M  END
>  <MODEL>
2

>  <REMARK>
 VINA RESULT:      -5.7      2.010      4.327
  Name = 
  22 active torsions:
  status: ('A' for Active; 'I' for Inactive)
    1  A    between atoms: C_1  and  CA_19
    2  A    between atoms: C_1  and  N_27
    3  A    between atoms: C_3  and  N_28
    4  A    between atoms: C_3  and  C_39
    5  A    between atoms: CA_4  and  N_11
    6  A    between atoms: CA_4  and  C_22
    7  A    between atoms: CA_4  and  C_41
    8  A    between atoms: C_7  and  C_10
    9  A    between atoms: C_7  and  C_12
   10  A    between atoms: C_10  and  C_39
   11  A    between atoms: N_11  and  C_14
   12  A    between atoms: N_13  and  C_14
   13  A    between atoms: N_13  and  C_42
   14  A    between atoms: C_14  and  C_40
   15  A    between atoms: CA_19  and  C_37
   16  A    between atoms: CA_19  and  N_47
   17  A    between atoms: C_20  and  C_24
   18  A    between atoms: C_20  and  N_43
   19  A    between atoms: C_21  and  N_23
   20  A    between atoms: C_24  and  N_28
   21  A    between atoms: C_24  and  C_32
   22  A    between atoms: N_27  and  C_32
                            x       y       z     vdW  Elec       q    Type
                         _______ _______ _______ _____ _____    ______ ____

>  <TORSDO>
F 22

$$$$
=
 OpenBabel11072409023D

 47 49  0  0  1  0  0  0  0  0999 V2000
  190.3160  178.0610  143.9550 C   0  0  0  0  0  2  0  0  0  0  0  0
  194.5450  176.0860  144.0650 C   0  0  0  0  0  0  0  0  0  0  0  0
  193.7270  175.1800  143.2290 C   0  0  1  0  0  3  0  0  0  0  0  0
  191.1540  175.2250  142.8300 C   0  0  0  0  0  2  0  0  0  0  0  0
  193.7910  177.0230  144.8090 N   0  0  0  0  0  2  0  0  0  0  0  0
  191.8190  177.9600  143.7460 C   0  0  0  0  0  2  0  0  0  0  0  0
  192.3810  176.7970  144.5530 C   0  0  1  0  0  3  0  0  0  0  0  0
  189.8250  175.6530  143.4300 C   0  0  0  0  0  2  0  0  0  0  0  0
  189.5380  177.1040  143.0520 C   0  0  1  0  0  3  0  0  0  0  0  0
  192.3220  175.4500  143.7960 C   0  0  2  0  0  3  0  0  0  0  0  0
  195.8010  176.0460  144.1140 O   0  0  0  0  0  0  0  0  0  0  0  0
  188.0390  177.4070  143.1560 C   0  0  2  0  0  3  0  0  0  0  0  0
  187.5930  178.3030  142.0930 N   0  0  0  0  0  2  0  0  0  0  0  0
  186.2610  177.4580  140.0110 C   0  0  0  0  0  3  0  0  0  0  0  0
  186.8760  177.8460  140.9740 C   0  0  0  0  0  0  0  0  0  0  0  0
  187.7300  177.9980  144.4550 N   0  0  0  0  0  2  0  0  0  0  0  0
  186.8740  177.0610  145.1750 C   0  0  1  0  0  3  0  0  0  0  0  0
  189.5790  175.9450  147.1490 C   0  0  0  0  0  2  0  0  0  0  0  0
  188.2590  175.5190  146.5960 C   0  0  0  0  0  2  0  0  0  0  0  0
  188.2290  177.8700  146.9990 O   0  0  0  0  0  0  0  0  0  0  0  0
  186.2880  176.6270  147.6010 C   0  0  0  0  0  1  0  0  0  0  0  0
  189.5640  177.4330  146.9390 C   0  0  0  0  0  2  0  0  0  0  0  0
  187.4200  176.7870  146.5930 C   0  0  1  0  0  0  0  0  0  0  0  0
  185.4390  177.5250  145.1520 C   0  0  0  0  0  3  0  0  0  0  0  0
  184.8950  177.8400  144.1050 O   0  0  0  0  0  0  0  0  0  0  0  0
  193.8970  175.6120  141.7690 C   0  0  0  0  0  2  0  0  0  0  0  0
  194.4240  174.4950  140.8740 C   0  0  0  0  0  2  0  0  0  0  0  0
  193.3010  173.7390  140.1850 C   0  0  0  0  0  2  0  0  0  0  0  0
  193.5230  172.2490  140.3300 C   0  0  0  0  0  2  0  0  0  0  0  0
  192.2470  171.5580  140.2770 N   0  0  0  0  0  2  0  0  0  0  0  0
  191.5460  171.8410  141.5230 C   0  0  2  0  0  3  0  0  0  0  0  0
  191.4000  169.5540  142.1970 O   0  0  0  0  0  0  0  0  0  0  0  0
  191.7640  170.7250  142.4870 C   0  0  0  0  0  0  0  0  0  0  0  0
  193.4380  171.7090  143.8120 N   0  0  0  0  0  0  0  0  0  0  0  0
  192.3860  170.9980  143.7420 N   0  0  0  0  0  0  0  0  0  0  0  0
  194.0700  171.9890  145.0630 C   0  0  0  0  0  0  0  0  0  0  0  0
  193.5610  172.8370  145.8410 O   0  0  0  0  0  0  0  0  0  0  0  0
  195.3310  171.2980  145.4590 C   0  0  0  0  0  1  0  0  0  0  0  0
  190.0550  172.0220  141.2660 C   0  0  0  0  0  2  0  0  0  0  0  0
  189.8470  172.9690  140.1850 N   0  0  0  0  0  2  0  0  0  0  0  0
  188.7960  172.4350  139.3350 C   0  0  0  0  0  2  0  0  0  0  0  0
  189.2650  172.3560  137.8850 C   0  0  2  0  0  3  0  0  0  0  0  0
  191.1210  171.0340  136.8730 O   0  0  0  0  0  0  0  0  0  0  0  0
  189.4860  169.9770  138.0760 O   0  0  0  0  0  1  0  0  0  0  0  0
  189.9570  171.0550  137.6250 C   0  0  0  0  0  0  0  0  0  0  0  0
  189.5250  174.3040  136.6100 C   0  0  0  0  0  1  0  0  0  0  0  0
  190.1690  173.4620  137.6090 N   0  0  0  0  0  2  0  0  0  0  0  0
  2 11  2  0  0  0  0
  2  5  1  0  0  0  0
  3 26  1  6  0  0  0
  3 10  1  0  0  0  0
  3  2  1  0  0  0  0
  4  8  1  0  0  0  0
  6  1  1  0  0  0  0
  7  6  1  6  0  0  0
  7  5  1  0  0  0  0
  9 12  1  1  0  0  0
  9  8  1  0  0  0  0
  9  1  1  0  0  0  0
 10  4  1  6  0  0  0
 10  7  1  0  0  0  0
 12 13  1  6  0  0  0
 12 16  1  0  0  0  0
 14 15  3  0  0  0  0
 15 13  1  0  0  0  0
 16 17  1  0  0  0  0
 17 24  1  1  0  0  0
 17 23  1  0  0  0  0
 19 18  1  0  0  0  0
 22 20  1  0  0  0  0
 22 18  1  0  0  0  0
 23 19  1  0  0  0  0
 23 20  1  0  0  0  0
 23 21  1  1  0  0  0
 25 24  2  0  0  0  0
 27 26  1  0  0  0  0
 28 29  1  0  0  0  0
 28 27  1  0  0  0  0
 30 29  1  0  0  0  0
 30 31  1  0  0  0  0
 31 39  1  6  0  0  0
 31 33  1  0  0  0  0
 32 33  2  0  0  0  0
 33 35  1  0  0  0  0
 34 36  1  0  0  0  0
 35 34  2  0  0  0  0
 36 38  1  0  0  0  0
 36 37  2  0  0  0  0
 40 39  1  0  0  0  0
 41 40  1  0  0  0  0
 42 41  1  1  0  0  0
 43 45  2  0  0  0  0
 45 42  1  0  0  0  0
 45 44  1  0  0  0  0
 46 47  1  0  0  0  0
 47 42  1  0  0  0  0
M  END
>  <MODEL>
3

>  <REMARK>
 VINA RESULT:      -5.6      1.892      4.697
  Name = 
  22 active torsions:
  status: ('A' for Active; 'I' for Inactive)
    1  A    between atoms: C_1  and  CA_19
    2  A    between atoms: C_1  and  N_27
    3  A    between atoms: C_3  and  N_28
    4  A    between atoms: C_3  and  C_39
    5  A    between atoms: CA_4  and  N_11
    6  A    between atoms: CA_4  and  C_22
    7  A    between atoms: CA_4  and  C_41
    8  A    between atoms: C_7  and  C_10
    9  A    between atoms: C_7  and  C_12
   10  A    between atoms: C_10  and  C_39
   11  A    between atoms: N_11  and  C_14
   12  A    between atoms: N_13  and  C_14
   13  A    between atoms: N_13  and  C_42
   14  A    between atoms: C_14  and  C_40
   15  A    between atoms: CA_19  and  C_37
   16  A    between atoms: CA_19  and  N_47
   17  A    between atoms: C_20  and  C_24
   18  A    between atoms: C_20  and  N_43
   19  A    between atoms: C_21  and  N_23
   20  A    between atoms: C_24  and  N_28
   21  A    between atoms: C_24  and  C_32
   22  A    between atoms: N_27  and  C_32
                            x       y       z     vdW  Elec       q    Type
                         _______ _______ _______ _____ _____    ______ ____

>  <TORSDO>
F 22

$$$$
=
 OpenBabel11072409023D

 47 49  0  0  1  0  0  0  0  0999 V2000
  190.4140  178.0090  143.6640 C   0  0  0  0  0  2  0  0  0  0  0  0
  194.4000  175.8630  144.8040 C   0  0  0  0  0  0  0  0  0  0  0  0
  193.6540  174.8700  144.0000 C   0  0  1  0  0  3  0  0  0  0  0  0
  191.1870  174.9810  143.1710 C   0  0  0  0  0  2  0  0  0  0  0  0
  193.6160  176.9530  145.2480 N   0  0  0  0  0  2  0  0  0  0  0  0
  191.9180  177.7940  143.7300 C   0  0  0  0  0  2  0  0  0  0  0  0
  192.2510  176.7600  144.7990 C   0  0  1  0  0  3  0  0  0  0  0  0
  189.8190  175.5760  143.4620 C   0  0  0  0  0  2  0  0  0  0  0  0
  189.7130  176.9530  142.8100 C   0  0  1  0  0  3  0  0  0  0  0  0
  192.2030  175.3080  144.2710 C   0  0  2  0  0  3  0  0  0  0  0  0
  195.6250  175.7660  145.0690 O   0  0  0  0  0  0  0  0  0  0  0  0
  188.2450  177.3480  142.6110 C   0  0  2  0  0  3  0  0  0  0  0  0
  188.0380  178.0360  141.3400 N   0  0  0  0  0  2  0  0  0  0  0  0
  186.2170  177.2940  139.6210 C   0  0  0  0  0  3  0  0  0  0  0  0
  187.0570  177.6350  140.4170 C   0  0  0  0  0  0  0  0  0  0  0  0
  187.7950  178.2000  143.7070 N   0  0  0  0  0  2  0  0  0  0  0  0
  186.5360  177.6550  144.2040 C   0  0  1  0  0  3  0  0  0  0  0  0
  184.8630  178.5120  147.1920 C   0  0  0  0  0  2  0  0  0  0  0  0
  186.0030  178.9120  146.3130 C   0  0  0  0  0  2  0  0  0  0  0  0
  185.6820  176.5520  146.1720 O   0  0  0  0  0  0  0  0  0  0  0  0
  187.9220  177.3510  146.3020 C   0  0  0  0  0  1  0  0  0  0  0  0
  184.5110  177.1430  146.6790 C   0  0  0  0  0  2  0  0  0  0  0  0
  186.5250  177.6000  145.7460 C   0  0  1  0  0  0  0  0  0  0  0  0
  185.3640  178.3960  143.6110 C   0  0  0  0  0  3  0  0  0  0  0  0
  184.4530  177.7980  143.0610 O   0  0  0  0  0  0  0  0  0  0  0  0
  194.0840  175.0320  142.5390 C   0  0  0  0  0  2  0  0  0  0  0  0
  194.7520  173.7840  141.9720 C   0  0  0  0  0  2  0  0  0  0  0  0
  193.7350  172.7790  141.4580 C   0  0  0  0  0  2  0  0  0  0  0  0
  194.0230  171.4140  142.0450 C   0  0  0  0  0  2  0  0  0  0  0  0
  193.8710  170.3980  141.0190 N   0  0  0  0  0  2  0  0  0  0  0  0
  192.5250  170.5260  140.4760 C   0  0  2  0  0  3  0  0  0  0  0  0
  191.7690  168.3820  141.2100 O   0  0  0  0  0  0  0  0  0  0  0  0
  191.5940  169.6300  141.2210 C   0  0  0  0  0  0  0  0  0  0  0  0
  190.2470  171.4450  141.8670 N   0  0  0  0  0  0  0  0  0  0  0  0
  190.5030  170.2010  141.9420 N   0  0  0  0  0  0  0  0  0  0  0  0
  189.1580  172.0290  142.5850 C   0  0  0  0  0  0  0  0  0  0  0  0
  189.1080  171.9180  143.8380 O   0  0  0  0  0  0  0  0  0  0  0  0
  188.0730  172.7630  141.8730 C   0  0  0  0  0  1  0  0  0  0  0  0
  192.5130  170.1710  138.9940 C   0  0  0  0  0  2  0  0  0  0  0  0
  191.3710  170.7880  138.3430 N   0  0  0  0  0  2  0  0  0  0  0  0
  191.7790  172.1170  137.9170 C   0  0  0  0  0  2  0  0  0  0  0  0
  190.7420  172.7220  136.9760 C   0  0  2  0  0  3  0  0  0  0  0  0
  191.4420  171.4410  134.9560 O   0  0  0  0  0  0  0  0  0  0  0  0
  189.2820  171.3110  135.7020 O   0  0  0  0  0  1  0  0  0  0  0  0
  190.4400  171.7850  135.8490 C   0  0  0  0  0  0  0  0  0  0  0  0
  192.2840  174.4440  137.3600 C   0  0  0  0  0  1  0  0  0  0  0  0
  191.2420  173.9840  136.4520 N   0  0  0  0  0  2  0  0  0  0  0  0
  1  6  1  0  0  0  0
  2 11  2  0  0  0  0
  2  5  1  0  0  0  0
  3 26  1  6  0  0  0
  3 10  1  0  0  0  0
  3  2  1  0  0  0  0
  4  8  1  0  0  0  0
  7  6  1  6  0  0  0
  7  5  1  0  0  0  0
  9 12  1  1  0  0  0
  9  8  1  0  0  0  0
  9  1  1  0  0  0  0
 10  4  1  6  0  0  0
 10  7  1  0  0  0  0
 12 13  1  6  0  0  0
 12 16  1  0  0  0  0
 14 15  3  0  0  0  0
 15 13  1  0  0  0  0
 16 17  1  0  0  0  0
 17 24  1  1  0  0  0
 17 23  1  0  0  0  0
 19 18  1  0  0  0  0
 20 22  1  0  0  0  0
 22 18  1  0  0  0  0
 23 20  1  0  0  0  0
 23 21  1  1  0  0  0
 23 19  1  0  0  0  0
 25 24  2  0  0  0  0
 27 26  1  0  0  0  0
 28 27  1  0  0  0  0
 28 29  1  0  0  0  0
 30 29  1  0  0  0  0
 31 39  1  6  0  0  0
 31 30  1  0  0  0  0
 31 33  1  0  0  0  0
 32 33  2  0  0  0  0
 33 35  1  0  0  0  0
 34 35  2  0  0  0  0
 34 36  1  0  0  0  0
 36 37  2  0  0  0  0
 38 36  1  0  0  0  0
 40 39  1  0  0  0  0
 41 40  1  0  0  0  0
 42 41  1  1  0  0  0
 43 45  2  0  0  0  0
 44 45  1  0  0  0  0
 45 42  1  0  0  0  0
 47 42  1  0  0  0  0
 47 46  1  0  0  0  0
M  END
>  <MODEL>
4

>  <REMARK>
 VINA RESULT:      -5.5      2.247      3.887
  Name = 
  22 active torsions:
  status: ('A' for Active; 'I' for Inactive)
    1  A    between atoms: C_1  and  CA_19
    2  A    between atoms: C_1  and  N_27
    3  A    between atoms: C_3  and  N_28
    4  A    between atoms: C_3  and  C_39
    5  A    between atoms: CA_4  and  N_11
    6  A    between atoms: CA_4  and  C_22
    7  A    between atoms: CA_4  and  C_41
    8  A    between atoms: C_7  and  C_10
    9  A    between atoms: C_7  and  C_12
   10  A    between atoms: C_10  and  C_39
   11  A    between atoms: N_11  and  C_14
   12  A    between atoms: N_13  and  C_14
   13  A    between atoms: N_13  and  C_42
   14  A    between atoms: C_14  and  C_40
   15  A    between atoms: CA_19  and  C_37
   16  A    between atoms: CA_19  and  N_47
   17  A    between atoms: C_20  and  C_24
   18  A    between atoms: C_20  and  N_43
   19  A    between atoms: C_21  and  N_23
   20  A    between atoms: C_24  and  N_28
   21  A    between atoms: C_24  and  C_32
   22  A    between atoms: N_27  and  C_32
                            x       y       z     vdW  Elec       q    Type
                         _______ _______ _______ _____ _____    ______ ____

>  <TORSDO>
F 22

$$$$
=
 OpenBabel11072409023D

 47 49  0  0  1  0  0  0  0  0999 V2000
  189.8940  176.8030  144.0990 C   0  0  0  0  0  2  0  0  0  0  0  0
  193.8410  175.5320  146.2460 C   0  0  0  0  0  0  0  0  0  0  0  0
  193.2400  174.2630  145.7780 C   0  0  1  0  0  3  0  0  0  0  0  0
  190.8760  173.8680  144.7590 C   0  0  0  0  0  2  0  0  0  0  0  0
  192.9570  176.6360  146.2140 N   0  0  0  0  0  2  0  0  0  0  0  0
  191.3920  176.7560  144.3620 C   0  0  0  0  0  2  0  0  0  0  0  0
  191.6610  176.1820  145.7470 C   0  0  1  0  0  3  0  0  0  0  0  0
  189.4560  174.4040  144.7080 C   0  0  0  0  0  2  0  0  0  0  0  0
  189.3480  175.4610  143.6110 C   0  0  1  0  0  3  0  0  0  0  0  0
  191.7470  174.6390  145.7570 C   0  0  2  0  0  3  0  0  0  0  0  0
  195.0330  175.6390  146.6300 O   0  0  0  0  0  0  0  0  0  0  0  0
  187.8920  175.6340  143.1630 C   0  0  2  0  0  3  0  0  0  0  0  0
  187.7530  175.5100  141.7150 N   0  0  0  0  0  2  0  0  0  0  0  0
  187.0510  177.5160  140.1950 C   0  0  0  0  0  3  0  0  0  0  0  0
  187.3770  176.5910  140.8990 C   0  0  0  0  0  0  0  0  0  0  0  0
  187.3790  176.9320  143.5950 N   0  0  0  0  0  2  0  0  0  0  0  0
  186.1010  176.7030  144.2600 C   0  0  1  0  0  3  0  0  0  0  0  0
  185.4420  179.1780  146.6890 C   0  0  0  0  0  2  0  0  0  0  0  0
  186.5400  178.5820  145.8690 C   0  0  0  0  0  2  0  0  0  0  0  0
  184.9070  176.9090  146.3460 O   0  0  0  0  0  0  0  0  0  0  0  0
  187.2010  176.2850  146.5030 C   0  0  0  0  0  1  0  0  0  0  0  0
  184.3310  178.1780  146.5360 C   0  0  0  0  0  2  0  0  0  0  0  0
  186.1690  177.1120  145.7470 C   0  0  1  0  0  0  0  0  0  0  0  0
  184.9780  177.3600  143.4960 C   0  0  0  0  0  3  0  0  0  0  0  0
  185.1500  178.4160  142.9070 O   0  0  0  0  0  0  0  0  0  0  0  0
  193.8180  173.9540  144.3950 C   0  0  0  0  0  2  0  0  0  0  0  0
  194.8050  172.7900  144.4060 C   0  0  0  0  0  2  0  0  0  0  0  0
  194.0990  171.4460  144.4550 C   0  0  0  0  0  2  0  0  0  0  0  0
  193.6910  171.0320  143.0580 C   0  0  0  0  0  2  0  0  0  0  0  0
  194.8490  171.0560  142.1830 N   0  0  0  0  0  2  0  0  0  0  0  0
  194.4200  171.6170  140.9080 C   0  0  2  0  0  3  0  0  0  0  0  0
  195.8940  172.4470  139.2230 O   0  0  0  0  0  0  0  0  0  0  0  0
  195.4560  172.5600  140.3990 C   0  0  0  0  0  0  0  0  0  0  0  0
  195.8250  174.8170  140.9490 N   0  0  0  0  0  0  0  0  0  0  0  0
  195.9470  173.5890  141.2580 N   0  0  0  0  0  0  0  0  0  0  0  0
  196.3130  175.8550  141.8000 C   0  0  0  0  0  0  0  0  0  0  0  0
  196.1660  177.0580  141.4610 O   0  0  0  0  0  0  0  0  0  0  0  0
  197.0010  175.5360  143.0840 C   0  0  0  0  0  1  0  0  0  0  0  0
  193.0890  172.3430  141.0670 C   0  0  0  0  0  2  0  0  0  0  0  0
  192.5030  172.6010  139.7640 N   0  0  0  0  0  2  0  0  0  0  0  0
  191.1320  173.0310  139.9810 C   0  0  0  0  0  2  0  0  0  0  0  0
  190.1870  172.3220  139.0150 C   0  0  2  0  0  3  0  0  0  0  0  0
  188.7460  174.3120  138.5950 O   0  0  0  0  0  0  0  0  0  0  0  0
  187.8150  172.3650  139.3570 O   0  0  0  0  0  1  0  0  0  0  0  0
  188.8480  172.9910  138.9990 C   0  0  0  0  0  0  0  0  0  0  0  0
  190.3000  170.1160  138.2330 C   0  0  0  0  0  1  0  0  0  0  0  0
  190.0420  170.9310  139.4130 N   0  0  0  0  0  2  0  0  0  0  0  0
  1  6  1  0  0  0  0
  2 11  2  0  0  0  0
  3 26  1  6  0  0  0
  3  2  1  0  0  0  0
  5  2  1  0  0  0  0
  7  6  1  6  0  0  0
  7 10  1  0  0  0  0
  7  5  1  0  0  0  0
  8  4  1  0  0  0  0
  9 12  1  1  0  0  0
  9  1  1  0  0  0  0
  9  8  1  0  0  0  0
 10  4  1  6  0  0  0
 10  3  1  0  0  0  0
 12 13  1  6  0  0  0
 12 16  1  0  0  0  0
 14 15  3  0  0  0  0
 15 13  1  0  0  0  0
 16 17  1  0  0  0  0
 17 24  1  6  0  0  0
 17 23  1  0  0  0  0
 19 18  1  0  0  0  0
 20 22  1  0  0  0  0
 22 18  1  0  0  0  0
 23 19  1  0  0  0  0
 23 20  1  0  0  0  0
 23 21  1  1  0  0  0
 25 24  2  0  0  0  0
 26 27  1  0  0  0  0
 27 28  1  0  0  0  0
 29 28  1  0  0  0  0
 30 29  1  0  0  0  0
 31 39  1  1  0  0  0
 31 30  1  0  0  0  0
 32 33  2  0  0  0  0
 33 31  1  0  0  0  0
 33 35  1  0  0  0  0
 34 35  2  0  0  0  0
 34 36  1  0  0  0  0
 36 38  1  0  0  0  0
 37 36  2  0  0  0  0
 40 41  1  0  0  0  0
 40 39  1  0  0  0  0
 42 47  1  0  0  0  0
 42 41  1  1  0  0  0
 43 45  2  0  0  0  0
 45 42  1  0  0  0  0
 45 44  1  0  0  0  0
 46 47  1  0  0  0  0
M  END
>  <MODEL>
5

>  <REMARK>
 VINA RESULT:      -5.4      1.521      4.338
  Name = 
  22 active torsions:
  status: ('A' for Active; 'I' for Inactive)
    1  A    between atoms: C_1  and  CA_19
    2  A    between atoms: C_1  and  N_27
    3  A    between atoms: C_3  and  N_28
    4  A    between atoms: C_3  and  C_39
    5  A    between atoms: CA_4  and  N_11
    6  A    between atoms: CA_4  and  C_22
    7  A    between atoms: CA_4  and  C_41
    8  A    between atoms: C_7  and  C_10
    9  A    between atoms: C_7  and  C_12
   10  A    between atoms: C_10  and  C_39
   11  A    between atoms: N_11  and  C_14
   12  A    between atoms: N_13  and  C_14
   13  A    between atoms: N_13  and  C_42
   14  A    between atoms: C_14  and  C_40
   15  A    between atoms: CA_19  and  C_37
   16  A    between atoms: CA_19  and  N_47
   17  A    between atoms: C_20  and  C_24
   18  A    between atoms: C_20  and  N_43
   19  A    between atoms: C_21  and  N_23
   20  A    between atoms: C_24  and  N_28
   21  A    between atoms: C_24  and  C_32
   22  A    between atoms: N_27  and  C_32
                            x       y       z     vdW  Elec       q    Type
                         _______ _______ _______ _____ _____    ______ ____

>  <TORSDO>
F 22

$$$$
=
 OpenBabel11072409023D

 47 49  0  0  1  0  0  0  0  0999 V2000
  194.4420  173.4700  139.5130 C   0  0  0  0  0  2  0  0  0  0  0  0
  196.1180  176.4990  142.6450 C   0  0  0  0  0  0  0  0  0  0  0  0
  194.8420  176.0240  143.2250 C   0  0  1  0  0  3  0  0  0  0  0  0
  192.9970  174.5670  142.1050 C   0  0  0  0  0  2  0  0  0  0  0  0
  196.2800  176.1890  141.2750 N   0  0  0  0  0  2  0  0  0  0  0  0
  195.4350  174.0450  140.5100 C   0  0  0  0  0  2  0  0  0  0  0  0
  195.0930  175.5000  140.8080 C   0  0  1  0  0  3  0  0  0  0  0  0
  192.3830  174.1730  140.7720 C   0  0  0  0  0  2  0  0  0  0  0  0
  193.1540  172.9930  140.1850 C   0  0  1  0  0  3  0  0  0  0  0  0
  194.0620  175.6580  141.9490 C   0  0  2  0  0  3  0  0  0  0  0  0
  196.9950  177.1160  143.3020 O   0  0  0  0  0  0  0  0  0  0  0  0
  192.2950  172.2360  139.1650 C   0  0  2  0  0  3  0  0  0  0  0  0
  191.3720  173.1270  138.4680 N   0  0  0  0  0  2  0  0  0  0  0  0
  190.8220  172.8590  135.9280 C   0  0  0  0  0  3  0  0  0  0  0  0
  191.0730  172.9830  137.1020 C   0  0  0  0  0  0  0  0  0  0  0  0
  191.5430  171.1720  139.8240 N   0  0  0  0  0  2  0  0  0  0  0  0
  192.4770  170.4170  140.6520 C   0  0  1  0  0  3  0  0  0  0  0  0
  191.3950  171.5490  143.8160 C   0  0  0  0  0  2  0  0  0  0  0  0
  192.5170  170.8410  143.1290 C   0  0  0  0  0  2  0  0  0  0  0  0
  190.4710  170.3800  141.9910 O   0  0  0  0  0  0  0  0  0  0  0  0
  191.9840  168.5680  142.3110 C   0  0  0  0  0  1  0  0  0  0  0  0
  190.3050  171.5310  142.7810 C   0  0  0  0  0  2  0  0  0  0  0  0
  191.8450  170.0550  142.0130 C   0  0  1  0  0  0  0  0  0  0  0  0
  193.0200  169.2300  139.8960 C   0  0  0  0  0  3  0  0  0  0  0  0
  194.0970  169.2860  139.3240 O   0  0  0  0  0  0  0  0  0  0  0  0
  195.1540  174.8250  144.1230 C   0  0  0  0  0  2  0  0  0  0  0  0
  194.5480  174.9490  145.5180 C   0  0  0  0  0  2  0  0  0  0  0  0
  193.4650  173.9120  145.7620 C   0  0  0  0  0  2  0  0  0  0  0  0
  192.2170  174.5900  146.2830 C   0  0  0  0  0  2  0  0  0  0  0  0
  192.0610  175.8860  145.6470 N   0  0  0  0  0  2  0  0  0  0  0  0
  190.6530  176.0360  145.3040 C   0  0  2  0  0  3  0  0  0  0  0  0
  190.5130  177.1170  147.4290 O   0  0  0  0  0  0  0  0  0  0  0  0
  189.9810  176.9130  146.3050 C   0  0  0  0  0  0  0  0  0  0  0  0
  187.6310  176.9840  146.3400 N   0  0  0  0  0  0  0  0  0  0  0  0
  188.7290  177.5150  145.9780 N   0  0  0  0  0  0  0  0  0  0  0  0
  186.3710  177.5760  146.0170 C   0  0  0  0  0  0  0  0  0  0  0  0
  186.3400  178.6770  145.4080 O   0  0  0  0  0  0  0  0  0  0  0  0
  185.0900  176.9140  146.3970 C   0  0  0  0  0  1  0  0  0  0  0  0
  189.9670  174.6760  145.2620 C   0  0  0  0  0  2  0  0  0  0  0  0
  189.1830  174.5500  144.0460 N   0  0  0  0  0  2  0  0  0  0  0  0
  189.6930  175.5250  143.0960 C   0  0  0  0  0  2  0  0  0  0  0  0
  188.6630  175.8040  142.0060 C   0  0  2  0  0  3  0  0  0  0  0  0
  186.3430  176.4940  142.6040 O   0  0  0  0  0  0  0  0  0  0  0  0
  188.0530  178.0130  142.7080 O   0  0  0  0  0  1  0  0  0  0  0  0
  187.6790  176.8360  142.4610 C   0  0  0  0  0  0  0  0  0  0  0  0
  188.5730  174.0570  140.4480 C   0  0  0  0  0  1  0  0  0  0  0  0
  187.9690  174.5700  141.6700 N   0  0  0  0  0  2  0  0  0  0  0  0
  1  9  1  0  0  0  0
  1  6  1  0  0  0  0
  2  3  1  0  0  0  0
  2 11  2  0  0  0  0
  3 26  1  1  0  0  0
  5  2  1  0  0  0  0
  7  6  1  1  0  0  0
  7  5  1  0  0  0  0
  7 10  1  0  0  0  0
  8  4  1  0  0  0  0
  9 12  1  6  0  0  0
  9  8  1  0  0  0  0
 10  4  1  1  0  0  0
 10  3  1  0  0  0  0
 12 13  1  1  0  0  0
 12 16  1  0  0  0  0
 14 15  3  0  0  0  0
 15 13  1  0  0  0  0
 16 17  1  0  0  0  0
 17 24  1  6  0  0  0
 17 23  1  0  0  0  0
 19 18  1  0  0  0  0
 20 23  1  0  0  0  0
 20 22  1  0  0  0  0
 22 18  1  0  0  0  0
 23 21  1  1  0  0  0
 23 19  1  0  0  0  0
 25 24  2  0  0  0  0
 26 27  1  0  0  0  0
 27 28  1  0  0  0  0
 28 29  1  0  0  0  0
 30 29  1  0  0  0  0
 31 39  1  1  0  0  0
 31 30  1  0  0  0  0
 31 33  1  0  0  0  0
 33 32  2  0  0  0  0
 35 33  1  0  0  0  0
 35 34  2  0  0  0  0
 36 34  1  0  0  0  0
 36 38  1  0  0  0  0
 37 36  2  0  0  0  0
 40 39  1  0  0  0  0
 41 40  1  0  0  0  0
 42 45  1  0  0  0  0
 42 41  1  1  0  0  0
 45 43  2  0  0  0  0
 45 44  1  0  0  0  0
 46 47  1  0  0  0  0
 47 42  1  0  0  0  0
M  END
>  <MODEL>
6

>  <REMARK>
 VINA RESULT:      -5.4      1.993      8.013
  Name = 
  22 active torsions:
  status: ('A' for Active; 'I' for Inactive)
    1  A    between atoms: C_1  and  CA_19
    2  A    between atoms: C_1  and  N_27
    3  A    between atoms: C_3  and  N_28
    4  A    between atoms: C_3  and  C_39
    5  A    between atoms: CA_4  and  N_11
    6  A    between atoms: CA_4  and  C_22
    7  A    between atoms: CA_4  and  C_41
    8  A    between atoms: C_7  and  C_10
    9  A    between atoms: C_7  and  C_12
   10  A    between atoms: C_10  and  C_39
   11  A    between atoms: N_11  and  C_14
   12  A    between atoms: N_13  and  C_14
   13  A    between atoms: N_13  and  C_42
   14  A    between atoms: C_14  and  C_40
   15  A    between atoms: CA_19  and  C_37
   16  A    between atoms: CA_19  and  N_47
   17  A    between atoms: C_20  and  C_24
   18  A    between atoms: C_20  and  N_43
   19  A    between atoms: C_21  and  N_23
   20  A    between atoms: C_24  and  N_28
   21  A    between atoms: C_24  and  C_32
   22  A    between atoms: N_27  and  C_32
                            x       y       z     vdW  Elec       q    Type
                         _______ _______ _______ _____ _____    ______ ____

>  <TORSDO>
F 22

$$$$
=
 OpenBabel11072409023D

 47 49  0  0  1  0  0  0  0  0999 V2000
  194.6590  172.9490  145.0550 C   0  0  0  0  0  2  0  0  0  0  0  0
  191.7090  176.1370  146.7670 C   0  0  0  0  0  0  0  0  0  0  0  0
  192.4310  176.8360  145.6820 C   0  0  1  0  0  3  0  0  0  0  0  0
  194.5060  176.0260  144.3320 C   0  0  0  0  0  2  0  0  0  0  0  0
  192.3070  174.9190  147.1680 N   0  0  0  0  0  2  0  0  0  0  0  0
  193.3150  173.5500  145.4350 C   0  0  0  0  0  2  0  0  0  0  0  0
  193.5160  174.7160  146.3940 C   0  0  1  0  0  3  0  0  0  0  0  0
  195.7260  175.1220  144.3810 C   0  0  0  0  0  2  0  0  0  0  0  0
  195.3400  173.7180  143.9230 C   0  0  1  0  0  3  0  0  0  0  0  0
  193.7610  176.0610  145.6710 C   0  0  2  0  0  3  0  0  0  0  0  0
  190.6500  176.5680  147.2910 O   0  0  0  0  0  0  0  0  0  0  0  0
  196.5740  172.9420  143.4480 C   0  0  2  0  0  3  0  0  0  0  0  0
  197.4220  172.5390  144.5660 N   0  0  0  0  0  2  0  0  0  0  0  0
  197.6260  170.0520  145.3400 C   0  0  0  0  0  3  0  0  0  0  0  0
  197.5350  171.2010  144.9830 C   0  0  0  0  0  0  0  0  0  0  0  0
  197.3520  173.7470  142.5110 N   0  0  0  0  0  2  0  0  0  0  0  0
  196.9020  173.4150  141.1630 C   0  0  1  0  0  3  0  0  0  0  0  0
  195.1650  174.9240  138.4860 C   0  0  0  0  0  2  0  0  0  0  0  0
  196.4850  174.3330  138.8620 C   0  0  0  0  0  2  0  0  0  0  0  0
  195.4850  175.3300  140.7850 O   0  0  0  0  0  0  0  0  0  0  0  0
  197.8210  175.6680  140.4590 C   0  0  0  0  0  1  0  0  0  0  0  0
  194.4900  175.1060  139.8170 C   0  0  0  0  0  2  0  0  0  0  0  0
  196.6580  174.6910  140.3300 C   0  0  1  0  0  0  0  0  0  0  0  0
  197.8450  172.4330  140.5150 C   0  0  0  0  0  3  0  0  0  0  0  0
  197.5950  171.2380  140.4950 O   0  0  0  0  0  0  0  0  0  0  0  0
  191.6130  176.6760  144.3970 C   0  0  0  0  0  2  0  0  0  0  0  0
  191.1760  178.0090  143.7980 C   0  0  0  0  0  2  0  0  0  0  0  0
  189.6700  178.0850  143.6170 C   0  0  0  0  0  2  0  0  0  0  0  0
  189.3250  177.9810  142.1470 C   0  0  0  0  0  2  0  0  0  0  0  0
  187.9350  178.3500  141.9430 N   0  0  0  0  0  2  0  0  0  0  0  0
  187.1250  177.1770  142.2430 C   0  0  2  0  0  3  0  0  0  0  0  0
  187.4390  176.0630  140.1530 O   0  0  0  0  0  0  0  0  0  0  0  0
  187.5740  176.0280  141.4050 C   0  0  0  0  0  0  0  0  0  0  0  0
  189.0150  174.1700  141.4350 N   0  0  0  0  0  0  0  0  0  0  0  0
  188.1550  174.8880  142.0380 N   0  0  0  0  0  0  0  0  0  0  0  0
  189.6030  173.0260  142.0570 C   0  0  0  0  0  0  0  0  0  0  0  0
  189.5120  171.9000  141.5020 O   0  0  0  0  0  0  0  0  0  0  0  0
  190.3180  173.1420  143.3610 C   0  0  0  0  0  1  0  0  0  0  0  0
  185.6520  177.4660  141.9810 C   0  0  0  0  0  2  0  0  0  0  0  0
  184.9350  177.5770  143.2390 N   0  0  0  0  0  2  0  0  0  0  0  0
  185.9000  177.3860  144.3090 C   0  0  0  0  0  2  0  0  0  0  0  0
  185.1890  177.1470  145.6370 C   0  0  2  0  0  3  0  0  0  0  0  0
  184.7640  178.5760  147.6350 O   0  0  0  0  0  1  0  0  0  0  0  0
  184.4310  179.4190  145.5330 O   0  0  0  0  0  0  0  0  0  0  0  0
  184.7760  178.4460  146.2560 C   0  0  0  0  0  0  0  0  0  0  0  0
  187.4220  176.9440  146.3180 C   0  0  0  0  0  1  0  0  0  0  0  0
  186.0770  176.4290  146.5390 N   0  0  0  0  0  2  0  0  0  0  0  0
  1  6  1  0  0  0  0
  2  5  1  0  0  0  0
  2 11  2  0  0  0  0
  3 26  1  6  0  0  0
  3  2  1  0  0  0  0
  4  8  1  0  0  0  0
  7  6  1  6  0  0  0
  7  5  1  0  0  0  0
  9 12  1  1  0  0  0
  9  8  1  0  0  0  0
  9  1  1  0  0  0  0
 10  4  1  6  0  0  0
 10  3  1  0  0  0  0
 10  7  1  0  0  0  0
 12 16  1  6  0  0  0
 12 13  1  0  0  0  0
 13 15  1  0  0  0  0
 15 14  3  0  0  0  0
 17 24  1  6  0  0  0
 17 16  1  0  0  0  0
 18 19  1  0  0  0  0
 18 22  1  0  0  0  0
 19 23  1  0  0  0  0
 22 20  1  0  0  0  0
 23 21  1  1  0  0  0
 23 20  1  0  0  0  0
 23 17  1  0  0  0  0
 25 24  2  0  0  0  0
 27 26  1  0  0  0  0
 28 27  1  0  0  0  0
 29 28  1  0  0  0  0
 30 29  1  0  0  0  0
 30 31  1  0  0  0  0
 31 39  1  6  0  0  0
 32 33  2  0  0  0  0
 33 35  1  0  0  0  0
 33 31  1  0  0  0  0
 34 35  2  0  0  0  0
 34 36  1  0  0  0  0
 36 38  1  0  0  0  0
 37 36  2  0  0  0  0
 39 40  1  0  0  0  0
 40 41  1  0  0  0  0
 42 41  1  6  0  0  0
 42 45  1  0  0  0  0
 42 47  1  0  0  0  0
 44 45  2  0  0  0  0
 45 43  1  0  0  0  0
 46 47  1  0  0  0  0
M  END
>  <MODEL>
7

>  <REMARK>
 VINA RESULT:      -5.2      2.398      9.401
  Name = 
  22 active torsions:
  status: ('A' for Active; 'I' for Inactive)
    1  A    between atoms: C_1  and  CA_19
    2  A    between atoms: C_1  and  N_27
    3  A    between atoms: C_3  and  N_28
    4  A    between atoms: C_3  and  C_39
    5  A    between atoms: CA_4  and  N_11
    6  A    between atoms: CA_4  and  C_22
    7  A    between atoms: CA_4  and  C_41
    8  A    between atoms: C_7  and  C_10
    9  A    between atoms: C_7  and  C_12
   10  A    between atoms: C_10  and  C_39
   11  A    between atoms: N_11  and  C_14
   12  A    between atoms: N_13  and  C_14
   13  A    between atoms: N_13  and  C_42
   14  A    between atoms: C_14  and  C_40
   15  A    between atoms: CA_19  and  C_37
   16  A    between atoms: CA_19  and  N_47
   17  A    between atoms: C_20  and  C_24
   18  A    between atoms: C_20  and  N_43
   19  A    between atoms: C_21  and  N_23
   20  A    between atoms: C_24  and  N_28
   21  A    between atoms: C_24  and  C_32
   22  A    between atoms: N_27  and  C_32
                            x       y       z     vdW  Elec       q    Type
                         _______ _______ _______ _____ _____    ______ ____

>  <TORSDO>
F 22

$$$$
=
 OpenBabel11072409023D

 47 49  0  0  1  0  0  0  0  0999 V2000
  194.3240  173.5670  139.9030 C   0  0  0  0  0  2  0  0  0  0  0  0
  189.8130  172.3630  139.9110 C   0  0  0  0  0  0  0  0  0  0  0  0
  190.3800  171.7060  141.1080 C   0  0  1  0  0  3  0  0  0  0  0  0
  192.8800  171.4940  141.8080 C   0  0  0  0  0  2  0  0  0  0  0  0
  190.7830  172.8410  138.9990 N   0  0  0  0  0  2  0  0  0  0  0  0
  192.8180  173.7820  139.9310 C   0  0  0  0  0  2  0  0  0  0  0  0
  192.1010  172.5070  139.5030 C   0  0  1  0  0  3  0  0  0  0  0  0
  194.3050  171.4660  141.2810 C   0  0  0  0  0  2  0  0  0  0  0  0
  194.8380  172.8930  141.1750 C   0  0  1  0  0  3  0  0  0  0  0  0
  191.8480  171.5320  140.6760 C   0  0  2  0  0  3  0  0  0  0  0  0
  188.5790  172.5030  139.7110 O   0  0  0  0  0  0  0  0  0  0  0  0
  196.3710  172.9020  141.1750 C   0  0  2  0  0  3  0  0  0  0  0  0
  196.9190  171.6830  140.5880 N   0  0  0  0  0  2  0  0  0  0  0  0
  197.8090  171.5830  138.1340 C   0  0  0  0  0  3  0  0  0  0  0  0
  197.3950  171.6290  139.2670 C   0  0  0  0  0  0  0  0  0  0  0  0
  196.8790  173.0620  142.5340 N   0  0  0  0  0  2  0  0  0  0  0  0
  195.8890  173.8230  143.2900 C   0  0  1  0  0  3  0  0  0  0  0  0
  194.1450  171.6010  145.4060 C   0  0  0  0  0  2  0  0  0  0  0  0
  194.2450  173.0400  145.0210 C   0  0  0  0  0  2  0  0  0  0  0  0
  196.3860  172.0110  144.8020 O   0  0  0  0  0  0  0  0  0  0  0  0
  196.3060  174.1900  145.7610 C   0  0  0  0  0  1  0  0  0  0  0  0
  195.3970  171.0110  144.8190 C   0  0  0  0  0  2  0  0  0  0  0  0
  195.7190  173.2520  144.7130 C   0  0  1  0  0  0  0  0  0  0  0  0
  196.2130  175.2960  143.2570 C   0  0  0  0  0  3  0  0  0  0  0  0
  195.5160  176.0810  142.6340 O   0  0  0  0  0  0  0  0  0  0  0  0
  190.1950  172.6550  142.2950 C   0  0  0  0  0  2  0  0  0  0  0  0
  189.3200  172.0670  143.3980 C   0  0  0  0  0  2  0  0  0  0  0  0
  189.6960  172.6020  144.7680 C   0  0  0  0  0  2  0  0  0  0  0  0
  190.6020  173.8050  144.6180 C   0  0  0  0  0  2  0  0  0  0  0  0
  189.9230  174.9930  145.1030 N   0  0  0  0  0  2  0  0  0  0  0  0
  189.8770  175.9480  144.0040 C   0  0  2  0  0  3  0  0  0  0  0  0
  191.6530  175.9800  142.4070 O   0  0  0  0  0  0  0  0  0  0  0  0
  191.2630  176.2800  143.5670 C   0  0  0  0  0  0  0  0  0  0  0  0
  193.0420  176.2910  145.1050 N   0  0  0  0  0  0  0  0  0  0  0  0
  192.1440  176.9370  144.4780 N   0  0  0  0  0  0  0  0  0  0  0  0
  193.9280  176.9380  146.0200 C   0  0  0  0  0  0  0  0  0  0  0  0
  193.8240  176.7090  147.2530 O   0  0  0  0  0  0  0  0  0  0  0  0
  194.9730  177.8870  145.5380 C   0  0  0  0  0  1  0  0  0  0  0  0
  189.1490  177.2170  144.4300 C   0  0  0  0  0  2  0  0  0  0  0  0
  188.0980  176.8930  145.3800 N   0  0  0  0  0  2  0  0  0  0  0  0
  186.8560  176.7810  144.6330 C   0  0  0  0  0  2  0  0  0  0  0  0
  186.5820  178.0600  143.8490 C   0  0  2  0  0  3  0  0  0  0  0  0
  185.1960  178.5860  145.8530 O   0  0  0  0  0  1  0  0  0  0  0  0
  185.5620  180.1900  144.2610 O   0  0  0  0  0  0  0  0  0  0  0  0
  185.7570  179.0100  144.6590 C   0  0  0  0  0  0  0  0  0  0  0  0
  186.8500  177.8830  141.5280 C   0  0  0  0  0  1  0  0  0  0  0  0
  185.8900  177.7310  142.6120 N   0  0  0  0  0  2  0  0  0  0  0  0
  1  6  1  0  0  0  0
  1  9  1  0  0  0  0
  2  3  1  0  0  0  0
  3 26  1  1  0  0  0
  5  7  1  0  0  0  0
  5  2  1  0  0  0  0
  7  6  1  1  0  0  0
  7 10  1  0  0  0  0
  8  4  1  0  0  0  0
  9 12  1  6  0  0  0
  9  8  1  0  0  0  0
 10  3  1  0  0  0  0
 10  4  1  1  0  0  0
 11  2  2  0  0  0  0
 12 13  1  1  0  0  0
 12 16  1  0  0  0  0
 14 15  3  0  0  0  0
 15 13  1  0  0  0  0
 16 17  1  0  0  0  0
 17 24  1  1  0  0  0
 17 23  1  0  0  0  0
 19 18  1  0  0  0  0
 20 22  1  0  0  0  0
 22 18  1  0  0  0  0
 23 20  1  0  0  0  0
 23 19  1  0  0  0  0
 23 21  1  1  0  0  0
 25 24  2  0  0  0  0
 26 27  1  0  0  0  0
 27 28  1  0  0  0  0
 29 28  1  0  0  0  0
 29 30  1  0  0  0  0
 31 39  1  1  0  0  0
 31 30  1  0  0  0  0
 32 33  2  0  0  0  0
 33 31  1  0  0  0  0
 33 35  1  0  0  0  0
 34 36  1  0  0  0  0
 35 34  2  0  0  0  0
 36 37  2  0  0  0  0
 38 36  1  0  0  0  0
 39 40  1  0  0  0  0
 41 40  1  0  0  0  0
 42 41  1  1  0  0  0
 42 45  1  0  0  0  0
 44 45  2  0  0  0  0
 45 43  1  0  0  0  0
 46 47  1  0  0  0  0
 47 42  1  0  0  0  0
M  END
>  <MODEL>
8

>  <REMARK>
 VINA RESULT:      -5.2      1.980      9.114
  Name = 
  22 active torsions:
  status: ('A' for Active; 'I' for Inactive)
    1  A    between atoms: C_1  and  CA_19
    2  A    between atoms: C_1  and  N_27
    3  A    between atoms: C_3  and  N_28
    4  A    between atoms: C_3  and  C_39
    5  A    between atoms: CA_4  and  N_11
    6  A    between atoms: CA_4  and  C_22
    7  A    between atoms: CA_4  and  C_41
    8  A    between atoms: C_7  and  C_10
    9  A    between atoms: C_7  and  C_12
   10  A    between atoms: C_10  and  C_39
   11  A    between atoms: N_11  and  C_14
   12  A    between atoms: N_13  and  C_14
   13  A    between atoms: N_13  and  C_42
   14  A    between atoms: C_14  and  C_40
   15  A    between atoms: CA_19  and  C_37
   16  A    between atoms: CA_19  and  N_47
   17  A    between atoms: C_20  and  C_24
   18  A    between atoms: C_20  and  N_43
   19  A    between atoms: C_21  and  N_23
   20  A    between atoms: C_24  and  N_28
   21  A    between atoms: C_24  and  C_32
   22  A    between atoms: N_27  and  C_32
                            x       y       z     vdW  Elec       q    Type
                         _______ _______ _______ _____ _____    ______ ____

>  <TORSDO>
F 22

$$$$
=
 OpenBabel11072409023D

 47 49  0  0  1  0  0  0  0  0999 V2000
  196.3770  173.0100  140.6820 C   0  0  0  0  0  2  0  0  0  0  0  0
  196.9150  173.8830  145.2370 C   0  0  0  0  0  0  0  0  0  0  0  0
  196.5430  175.1860  144.6450 C   0  0  1  0  0  3  0  0  0  0  0  0
  196.3440  175.8250  142.1280 C   0  0  0  0  0  2  0  0  0  0  0  0
  197.3040  172.9080  144.2890 N   0  0  0  0  0  2  0  0  0  0  0  0
  196.1130  172.8740  142.1740 C   0  0  0  0  0  2  0  0  0  0  0  0
  197.2550  173.4980  142.9660 C   0  0  1  0  0  3  0  0  0  0  0  0
  196.8340  175.4810  140.7320 C   0  0  0  0  0  2  0  0  0  0  0  0
  195.9590  174.3780  140.1410 C   0  0  1  0  0  3  0  0  0  0  0  0
  197.0670  175.0130  143.2080 C   0  0  2  0  0  3  0  0  0  0  0  0
  196.8840  173.6430  146.4710 O   0  0  0  0  0  0  0  0  0  0  0  0
  196.0510  174.3710  138.6110 C   0  0  2  0  0  3  0  0  0  0  0  0
  197.0670  175.3000  138.1260 N   0  0  0  0  0  2  0  0  0  0  0  0
  197.2610  175.9840  135.6120 C   0  0  0  0  0  3  0  0  0  0  0  0
  197.1690  175.6680  136.7730 C   0  0  0  0  0  0  0  0  0  0  0  0
  194.7580  174.7110  138.0230 N   0  0  0  0  0  2  0  0  0  0  0  0
  194.1280  173.4670  137.5920 C   0  0  1  0  0  3  0  0  0  0  0  0
  191.7150  171.7770  139.5360 C   0  0  0  0  0  2  0  0  0  0  0  0
  192.2010  171.9490  138.1340 C   0  0  0  0  0  2  0  0  0  0  0  0
  192.5550  173.9710  139.3500 O   0  0  0  0  0  0  0  0  0  0  0  0
  191.7360  174.1570  137.1210 C   0  0  0  0  0  1  0  0  0  0  0  0
  192.3790  172.9140  140.2610 C   0  0  0  0  0  2  0  0  0  0  0  0
  192.6600  173.3970  138.0650 C   0  0  1  0  0  0  0  0  0  0  0  0
  194.3010  173.2700  136.1070 C   0  0  0  0  0  3  0  0  0  0  0  0
  194.8450  172.2710  135.6630 O   0  0  0  0  0  0  0  0  0  0  0  0
  195.0200  175.3220  144.7340 C   0  0  0  0  0  2  0  0  0  0  0  0
  194.5740  176.6500  145.3380 C   0  0  0  0  0  2  0  0  0  0  0  0
  193.8920  176.4640  146.6820 C   0  0  0  0  0  2  0  0  0  0  0  0
  192.6500  175.6160  146.5130 C   0  0  0  0  0  2  0  0  0  0  0  0
  191.4910  176.3430  147.0010 N   0  0  0  0  0  2  0  0  0  0  0  0
  190.5490  176.4520  145.8950 C   0  0  2  0  0  3  0  0  0  0  0  0
  189.0530  175.1460  147.2230 O   0  0  0  0  0  0  0  0  0  0  0  0
  189.1890  176.0450  146.3500 C   0  0  0  0  0  0  0  0  0  0  0  0
  187.1430  177.1920  146.5260 N   0  0  0  0  0  0  0  0  0  0  0  0
  188.0430  176.6820  145.7850 N   0  0  0  0  0  0  0  0  0  0  0  0
  185.9920  177.8310  145.9710 C   0  0  0  0  0  0  0  0  0  0  0  0
  186.1260  178.6150  144.9960 O   0  0  0  0  0  0  0  0  0  0  0  0
  184.6320  177.5890  146.5340 C   0  0  0  0  0  1  0  0  0  0  0  0
  190.9900  175.5740  144.7300 C   0  0  0  0  0  2  0  0  0  0  0  0
  190.5780  176.1710  143.4720 N   0  0  0  0  0  2  0  0  0  0  0  0
  190.2990  175.0850  142.5460 C   0  0  0  0  0  2  0  0  0  0  0  0
  188.8340  174.6680  142.6330 C   0  0  2  0  0  3  0  0  0  0  0  0
  187.4690  172.7020  141.9370 O   0  0  0  0  0  0  0  0  0  0  0  0
  189.6550  172.4180  142.5540 O   0  0  0  0  0  1  0  0  0  0  0  0
  188.6860  173.2020  142.3730 C   0  0  0  0  0  0  0  0  0  0  0  0
  186.9960  176.1010  142.3950 C   0  0  0  0  0  1  0  0  0  0  0  0
  188.0570  175.4250  141.6620 N   0  0  0  0  0  2  0  0  0  0  0  0
  1  6  1  0  0  0  0
  2 11  2  0  0  0  0
  3 26  1  6  0  0  0
  3  2  1  0  0  0  0
  5  2  1  0  0  0  0
  7  6  1  6  0  0  0
  7 10  1  0  0  0  0
  7  5  1  0  0  0  0
  8  4  1  0  0  0  0
  9 12  1  6  0  0  0
  9  1  1  0  0  0  0
  9  8  1  0  0  0  0
 10  4  1  6  0  0  0
 10  3  1  0  0  0  0
 12 16  1  6  0  0  0
 13 12  1  0  0  0  0
 14 15  3  0  0  0  0
 15 13  1  0  0  0  0
 17 24  1  6  0  0  0
 17 16  1  0  0  0  0
 17 23  1  0  0  0  0
 18 22  1  0  0  0  0
 19 18  1  0  0  0  0
 20 22  1  0  0  0  0
 23 21  1  6  0  0  0
 23 19  1  0  0  0  0
 23 20  1  0  0  0  0
 25 24  2  0  0  0  0
 26 27  1  0  0  0  0
 27 28  1  0  0  0  0
 29 28  1  0  0  0  0
 29 30  1  0  0  0  0
 31 39  1  6  0  0  0
 31 33  1  0  0  0  0
 31 30  1  0  0  0  0
 33 32  2  0  0  0  0
 35 33  1  0  0  0  0
 35 34  2  0  0  0  0
 36 34  1  0  0  0  0
 36 38  1  0  0  0  0
 37 36  2  0  0  0  0
 40 39  1  0  0  0  0
 41 40  1  0  0  0  0
 42 41  1  6  0  0  0
 43 45  2  0  0  0  0
 45 44  1  0  0  0  0
 45 42  1  0  0  0  0
 47 46  1  0  0  0  0
 47 42  1  0  0  0  0
M  END
>  <MODEL>
9

>  <REMARK>
 VINA RESULT:      -5.1      2.575      8.795
  Name = 
  22 active torsions:
  status: ('A' for Active; 'I' for Inactive)
    1  A    between atoms: C_1  and  CA_19
    2  A    between atoms: C_1  and  N_27
    3  A    between atoms: C_3  and  N_28
    4  A    between atoms: C_3  and  C_39
    5  A    between atoms: CA_4  and  N_11
    6  A    between atoms: CA_4  and  C_22
    7  A    between atoms: CA_4  and  C_41
    8  A    between atoms: C_7  and  C_10
    9  A    between atoms: C_7  and  C_12
   10  A    between atoms: C_10  and  C_39
   11  A    between atoms: N_11  and  C_14
   12  A    between atoms: N_13  and  C_14
   13  A    between atoms: N_13  and  C_42
   14  A    between atoms: C_14  and  C_40
   15  A    between atoms: CA_19  and  C_37
   16  A    between atoms: CA_19  and  N_47
   17  A    between atoms: C_20  and  C_24
   18  A    between atoms: C_20  and  N_43
   19  A    between atoms: C_21  and  N_23
   20  A    between atoms: C_24  and  N_28
   21  A    between atoms: C_24  and  C_32
   22  A    between atoms: N_27  and  C_32
                            x       y       z     vdW  Elec       q    Type
                         _______ _______ _______ _____ _____    ______ ____

>  <TORSDO>
F 22

$$$$
