=
 OpenBabel11072409393D

 25 26  0  0  1  0  0  0  0  0999 V2000
  191.5800  176.5950  145.1710 C   0  0  0  0  0  3  0  0  0  0  0  0
  190.5340  175.8880  145.4570 N   0  0  0  0  0  0  0  0  0  0  0  0
  195.1660  176.4090  141.7950 Cl  0  0  0  0  0  0  0  0  0  0  0  0
  197.0130  175.0770  143.7470 O   0  0  0  0  0  1  0  0  0  0  0  0
  194.0310  173.6620  145.4760 C   0  0  0  0  0  2  0  0  0  0  0  0
  195.6570  174.7770  143.9150 C   0  0  2  0  0  3  0  0  0  0  0  0
  194.8260  175.9990  143.4960 C   0  0  2  0  0  3  0  0  0  0  0  0
  192.9240  175.9600  145.0980 C   0  0  2  0  0  3  0  0  0  0  0  0
  193.3250  175.7860  143.6420 C   0  0  0  0  0  2  0  0  0  0  0  0
  192.9150  174.6310  145.8620 C   0  0  0  0  0  2  0  0  0  0  0  0
  195.3920  174.3420  145.3710 C   0  0  2  0  0  3  0  0  0  0  0  0
  196.5560  172.1040  145.2840 N   0  0  0  0  0  1  0  0  0  0  0  0
  196.4400  173.3950  145.8690 C   0  0  0  0  0  0  0  0  0  0  0  0
  197.2250  173.7340  146.7950 O   0  0  0  0  0  0  0  0  0  0  0  0
  189.2150  176.4400  145.5420 C   0  0  0  0  0  0  0  0  0  0  0  0
  186.6080  177.4810  145.7560 C   0  0  0  0  0  0  0  0  0  0  0  0
  187.0940  176.5760  146.7110 C   0  0  0  0  0  3  0  0  0  0  0  0
  187.4440  177.8770  144.7010 C   0  0  0  0  0  3  0  0  0  0  0  0
  188.3870  176.0570  146.6010 C   0  0  0  0  0  3  0  0  0  0  0  0
  188.7370  177.3580  144.5910 C   0  0  0  0  0  3  0  0  0  0  0  0
  185.2300  178.0690  145.9020 C   0  0  0  0  0  0  0  0  0  0  0  0
  185.3020  179.2510  146.6190 F   0  0  0  0  0  0  0  0  0  0  0  0
  184.3980  177.1980  146.5890 F   0  0  0  0  0  0  0  0  0  0  0  0
  184.4990  179.7440  144.3410 O   0  0  0  0  0  1  0  0  0  0  0  0
  184.6290  178.3680  144.5340 C   0  0  0  0  0  2  0  0  0  0  0  0
  1  2  2  0  0  0  0
  2 15  1  0  0  0  0
  5 10  1  0  0  0  0
  6  4  1  1  0  0  0
  6 11  1  0  0  0  0
  7  3  1  6  0  0  0
  7  9  1  0  0  0  0
  7  6  1  0  0  0  0
  8  1  1  6  0  0  0
  8 10  1  0  0  0  0
  9  8  1  0  0  0  0
 11  5  1  0  0  0  0
 11 13  1  6  0  0  0
 12 13  1  0  0  0  0
 13 14  2  0  0  0  0
 15 19  1  0  0  0  0
 16 21  1  0  0  0  0
 16 17  1  0  0  0  0
 18 16  2  0  0  0  0
 19 17  2  0  0  0  0
 20 18  1  0  0  0  0
 20 15  2  0  0  0  0
 21 23  1  0  0  0  0
 21 22  1  0  0  0  0
 24 25  1  0  0  0  0
 25 21  1  0  0  0  0
M  END
>  <MODEL>
1

>  <REMARK>
 VINA RESULT:      -6.9      0.000      0.000
  Name = 
  5 active torsions:
  status: ('A' for Active; 'I' for Inactive)
    1  A    between atoms: C_1  and  C_7
    2  A    between atoms: C_1  and  C_14
    3  A    between atoms: C_3  and  N_12
    4  A    between atoms: C_5  and  C_17
    5  A    between atoms: C_19  and  C_24
                            x       y       z     vdW  Elec       q    Type
                         _______ _______ _______ _____ _____    ______ ____

>  <TORSDO>
F 5

$$$$
=
 OpenBabel11072409393D

 25 26  0  0  1  0  0  0  0  0999 V2000
  191.2990  176.3790  145.4360 C   0  0  0  0  0  3  0  0  0  0  0  0
  190.1530  175.8410  145.1650 N   0  0  0  0  0  0  0  0  0  0  0  0
  192.4510  171.7020  144.3960 Cl  0  0  0  0  0  0  0  0  0  0  0  0
  195.2890  172.4710  143.8080 O   0  0  0  0  0  1  0  0  0  0  0  0
  194.9150  175.3310  146.1660 C   0  0  0  0  0  2  0  0  0  0  0  0
  194.6560  173.2470  144.7850 C   0  0  2  0  0  3  0  0  0  0  0  0
  193.1590  173.3360  144.4480 C   0  0  2  0  0  3  0  0  0  0  0  0
  192.5630  175.6450  145.1570 C   0  0  2  0  0  3  0  0  0  0  0  0
  192.3650  174.1650  145.4480 C   0  0  0  0  0  2  0  0  0  0  0  0
  193.7100  176.2510  145.9720 C   0  0  0  0  0  2  0  0  0  0  0  0
  195.3330  174.6290  144.8780 C   0  0  2  0  0  3  0  0  0  0  0  0
  197.5540  175.0670  143.7620 N   0  0  0  0  0  1  0  0  0  0  0  0
  196.8270  174.5200  144.8550 C   0  0  0  0  0  0  0  0  0  0  0  0
  197.4460  173.9560  145.7970 O   0  0  0  0  0  0  0  0  0  0  0  0
  188.9030  176.4970  145.4090 C   0  0  0  0  0  0  0  0  0  0  0  0
  186.4340  177.7410  145.9380 C   0  0  0  0  0  0  0  0  0  0  0  0
  186.9590  176.7940  146.8290 C   0  0  0  0  0  3  0  0  0  0  0  0
  187.1640  178.0750  144.7870 C   0  0  0  0  0  3  0  0  0  0  0  0
  188.1830  176.1740  146.5630 C   0  0  0  0  0  3  0  0  0  0  0  0
  188.3870  177.4560  144.5210 C   0  0  0  0  0  3  0  0  0  0  0  0
  185.1350  178.4360  146.2490 C   0  0  0  0  0  0  0  0  0  0  0  0
  185.2760  179.1860  147.4050 F   0  0  0  0  0  0  0  0  0  0  0  0
  184.1240  177.5100  146.4570 F   0  0  0  0  0  0  0  0  0  0  0  0
  183.8380  178.7430  144.2500 O   0  0  0  0  0  1  0  0  0  0  0  0
  184.7420  179.3680  145.1100 C   0  0  0  0  0  2  0  0  0  0  0  0
  2 15  1  0  0  0  0
  2  1  2  0  0  0  0
  6  4  1  6  0  0  0
  6 11  1  0  0  0  0
  7  3  1  1  0  0  0
  7  6  1  0  0  0  0
  7  9  1  0  0  0  0
  8  1  1  1  0  0  0
  8  9  1  0  0  0  0
  8 10  1  0  0  0  0
 10  5  1  0  0  0  0
 11 13  1  1  0  0  0
 11  5  1  0  0  0  0
 12 13  1  0  0  0  0
 13 14  2  0  0  0  0
 15 19  1  0  0  0  0
 16 21  1  0  0  0  0
 16 17  1  0  0  0  0
 18 16  2  0  0  0  0
 19 17  2  0  0  0  0
 20 18  1  0  0  0  0
 20 15  2  0  0  0  0
 21 23  1  0  0  0  0
 21 22  1  0  0  0  0
 24 25  1  0  0  0  0
 25 21  1  0  0  0  0
M  END
>  <MODEL>
2

>  <REMARK>
 VINA RESULT:      -6.9      1.721      1.962
  Name = 
  5 active torsions:
  status: ('A' for Active; 'I' for Inactive)
    1  A    between atoms: C_1  and  C_7
    2  A    between atoms: C_1  and  C_14
    3  A    between atoms: C_3  and  N_12
    4  A    between atoms: C_5  and  C_17
    5  A    between atoms: C_19  and  C_24
                            x       y       z     vdW  Elec       q    Type
                         _______ _______ _______ _____ _____    ______ ____

>  <TORSDO>
F 5

$$$$
=
 OpenBabel11072409393D

 25 26  0  0  1  0  0  0  0  0999 V2000
  190.8040  176.7300  144.8510 C   0  0  0  0  0  3  0  0  0  0  0  0
  191.2380  175.9180  145.7620 N   0  0  0  0  0  0  0  0  0  0  0  0
  186.9460  176.0530  147.8420 Cl  0  0  0  0  0  0  0  0  0  0  0  0
  185.4520  178.2900  146.5160 O   0  0  0  0  0  1  0  0  0  0  0  0
  187.3670  177.6070  143.3940 C   0  0  0  0  0  2  0  0  0  0  0  0
  186.3210  177.5820  145.6800 C   0  0  2  0  0  3  0  0  0  0  0  0
  187.5170  177.0940  146.5130 C   0  0  2  0  0  3  0  0  0  0  0  0
  189.4180  177.2690  144.9190 C   0  0  2  0  0  3  0  0  0  0  0  0
  188.5370  176.3070  145.7000 C   0  0  0  0  0  2  0  0  0  0  0  0
  188.8890  177.5270  143.5040 C   0  0  0  0  0  2  0  0  0  0  0  0
  186.7420  178.4650  144.4880 C   0  0  2  0  0  3  0  0  0  0  0  0
  184.5800  178.4970  143.1840 N   0  0  0  0  0  1  0  0  0  0  0  0
  185.5770  179.2080  143.9080 C   0  0  0  0  0  0  0  0  0  0  0  0
  185.4680  180.4540  144.0610 O   0  0  0  0  0  0  0  0  0  0  0  0
  192.5590  175.3650  145.7530 C   0  0  0  0  0  0  0  0  0  0  0  0
  195.1810  174.3410  145.7480 C   0  0  0  0  0  0  0  0  0  0  0  0
  194.9310  175.6530  146.1750 C   0  0  0  0  0  3  0  0  0  0  0  0
  194.1060  173.5370  145.3410 C   0  0  0  0  0  3  0  0  0  0  0  0
  193.6290  176.1620  146.1730 C   0  0  0  0  0  3  0  0  0  0  0  0
  192.8040  174.0450  145.3390 C   0  0  0  0  0  3  0  0  0  0  0  0
  196.5800  173.7850  145.7910 C   0  0  0  0  0  0  0  0  0  0  0  0
  197.0230  173.7430  147.1010 F   0  0  0  0  0  0  0  0  0  0  0  0
  197.4470  174.5900  145.0680 F   0  0  0  0  0  0  0  0  0  0  0  0
  196.8240  171.4360  146.2370 O   0  0  0  0  0  1  0  0  0  0  0  0
  196.6100  172.3710  145.2230 C   0  0  0  0  0  2  0  0  0  0  0  0
  1  2  2  0  0  0  0
  5 10  1  0  0  0  0
  5 11  1  0  0  0  0
  6  7  1  0  0  0  0
  6  4  1  1  0  0  0
  7  3  1  1  0  0  0
  8  1  1  6  0  0  0
  8  9  1  0  0  0  0
  9  7  1  0  0  0  0
 10  8  1  0  0  0  0
 11 13  1  6  0  0  0
 11  6  1  0  0  0  0
 12 13  1  0  0  0  0
 13 14  2  0  0  0  0
 15  2  1  0  0  0  0
 15 19  1  0  0  0  0
 16 21  1  0  0  0  0
 16 17  1  0  0  0  0
 18 16  2  0  0  0  0
 19 17  2  0  0  0  0
 20 18  1  0  0  0  0
 20 15  2  0  0  0  0
 21 22  1  0  0  0  0
 23 21  1  0  0  0  0
 25 21  1  0  0  0  0
 25 24  1  0  0  0  0
M  END
>  <MODEL>
3

>  <REMARK>
 VINA RESULT:      -6.8      4.648      9.715
  Name = 
  5 active torsions:
  status: ('A' for Active; 'I' for Inactive)
    1  A    between atoms: C_1  and  C_7
    2  A    between atoms: C_1  and  C_14
    3  A    between atoms: C_3  and  N_12
    4  A    between atoms: C_5  and  C_17
    5  A    between atoms: C_19  and  C_24
                            x       y       z     vdW  Elec       q    Type
                         _______ _______ _______ _____ _____    ______ ____

>  <TORSDO>
F 5

$$$$
=
 OpenBabel11072409393D

 25 26  0  0  1  0  0  0  0  0999 V2000
  190.6040  175.4320  144.9300 C   0  0  0  0  0  3  0  0  0  0  0  0
  191.5450  175.7640  145.7560 N   0  0  0  0  0  0  0  0  0  0  0  0
  187.9520  178.3280  141.9520 Cl  0  0  0  0  0  0  0  0  0  0  0  0
  185.5690  178.1010  143.7590 O   0  0  0  0  0  1  0  0  0  0  0  0
  187.8940  177.5550  146.6180 C   0  0  0  0  0  2  0  0  0  0  0  0
  186.8090  178.0450  144.4040 C   0  0  2  0  0  3  0  0  0  0  0  0
  187.8260  177.3860  143.4590 C   0  0  2  0  0  3  0  0  0  0  0  0
  189.2660  176.0800  145.0100 C   0  0  2  0  0  3  0  0  0  0  0  0
  189.2190  177.2680  144.0620 C   0  0  0  0  0  2  0  0  0  0  0  0
  188.9660  176.4780  146.4590 C   0  0  0  0  0  2  0  0  0  0  0  0
  186.6690  177.3000  145.7470 C   0  0  2  0  0  3  0  0  0  0  0  0
  185.4000  179.0340  147.0730 N   0  0  0  0  0  1  0  0  0  0  0  0
  185.4470  177.7330  146.4990 C   0  0  0  0  0  0  0  0  0  0  0  0
  184.4590  176.9610  146.6210 O   0  0  0  0  0  0  0  0  0  0  0  0
  192.8520  175.1790  145.7290 C   0  0  0  0  0  0  0  0  0  0  0  0
  195.4470  174.0900  145.6800 C   0  0  0  0  0  0  0  0  0  0  0  0
  195.2520  175.4510  145.9550 C   0  0  0  0  0  3  0  0  0  0  0  0
  194.3310  173.2720  145.4470 C   0  0  0  0  0  3  0  0  0  0  0  0
  193.9630  175.9910  145.9750 C   0  0  0  0  0  3  0  0  0  0  0  0
  193.0430  173.8110  145.4670 C   0  0  0  0  0  3  0  0  0  0  0  0
  196.8340  173.5050  145.6990 C   0  0  0  0  0  0  0  0  0  0  0  0
  197.2590  173.3610  147.0090 F   0  0  0  0  0  0  0  0  0  0  0  0
  197.7260  174.3430  145.0470 F   0  0  0  0  0  0  0  0  0  0  0  0
  197.1060  171.1320  145.9670 O   0  0  0  0  0  1  0  0  0  0  0  0
  196.8460  172.1350  145.0320 C   0  0  0  0  0  2  0  0  0  0  0  0
  1  2  2  0  0  0  0
  6  4  1  6  0  0  0
  6 11  1  0  0  0  0
  7  3  1  6  0  0  0
  7  9  1  0  0  0  0
  7  6  1  0  0  0  0
  8  1  1  1  0  0  0
  8 10  1  0  0  0  0
  9  8  1  0  0  0  0
 10  5  1  0  0  0  0
 11 13  1  1  0  0  0
 11  5  1  0  0  0  0
 13 14  2  0  0  0  0
 13 12  1  0  0  0  0
 15  2  1  0  0  0  0
 15 19  1  0  0  0  0
 16 21  1  0  0  0  0
 16 17  1  0  0  0  0
 17 19  2  0  0  0  0
 18 20  1  0  0  0  0
 18 16  2  0  0  0  0
 20 15  2  0  0  0  0
 21 22  1  0  0  0  0
 23 21  1  0  0  0  0
 25 21  1  0  0  0  0
 25 24  1  0  0  0  0
M  END
>  <MODEL>
4

>  <REMARK>
 VINA RESULT:      -6.8      4.536      9.531
  Name = 
  5 active torsions:
  status: ('A' for Active; 'I' for Inactive)
    1  A    between atoms: C_1  and  C_7
    2  A    between atoms: C_1  and  C_14
    3  A    between atoms: C_3  and  N_12
    4  A    between atoms: C_5  and  C_17
    5  A    between atoms: C_19  and  C_24
                            x       y       z     vdW  Elec       q    Type
                         _______ _______ _______ _____ _____    ______ ____

>  <TORSDO>
F 5

$$$$
=
 OpenBabel11072409393D

 25 26  0  0  1  0  0  0  0  0999 V2000
  186.1010  177.6350  144.4830 C   0  0  0  0  0  3  0  0  0  0  0  0
  185.9430  177.9770  143.2440 N   0  0  0  0  0  0  0  0  0  0  0  0
  190.5640  176.8860  142.5310 Cl  0  0  0  0  0  0  0  0  0  0  0  0
  191.8440  177.0890  145.2360 O   0  0  0  0  0  1  0  0  0  0  0  0
  188.6560  175.8840  146.7430 C   0  0  0  0  0  2  0  0  0  0  0  0
  190.5490  176.5600  145.2320 C   0  0  2  0  0  3  0  0  0  0  0  0
  189.7560  177.2080  144.0860 C   0  0  2  0  0  3  0  0  0  0  0  0
  187.4630  177.4020  145.0330 C   0  0  2  0  0  3  0  0  0  0  0  0
  188.3210  176.7060  143.9880 C   0  0  0  0  0  2  0  0  0  0  0  0
  187.3690  176.6020  146.3370 C   0  0  0  0  0  2  0  0  0  0  0  0
  189.8910  176.7690  146.6110 C   0  0  2  0  0  3  0  0  0  0  0  0
  191.2300  177.4780  148.6300 N   0  0  0  0  0  1  0  0  0  0  0  0
  190.8320  176.4490  147.7310 C   0  0  0  0  0  0  0  0  0  0  0  0
  191.2680  175.2770  147.8900 O   0  0  0  0  0  0  0  0  0  0  0  0
  184.6590  178.2170  142.6550 C   0  0  0  0  0  0  0  0  0  0  0  0
  182.1100  178.6930  141.5590 C   0  0  0  0  0  0  0  0  0  0  0  0
  182.3460  178.8970  142.9270 C   0  0  0  0  0  3  0  0  0  0  0  0
  183.1650  178.2660  140.7390 C   0  0  0  0  0  3  0  0  0  0  0  0
  183.6110  178.6560  143.4700 C   0  0  0  0  0  3  0  0  0  0  0  0
  184.4300  178.0250  141.2820 C   0  0  0  0  0  3  0  0  0  0  0  0
  180.7570  178.9930  140.9720 C   0  0  0  0  0  0  0  0  0  0  0  0
  180.5030  178.1250  139.9240 F   0  0  0  0  0  0  0  0  0  0  0  0
  180.7150  180.2880  140.4780 F   0  0  0  0  0  0  0  0  0  0  0  0
  179.2980  177.4750  142.1300 O   0  0  0  0  0  1  0  0  0  0  0  0
  179.6670  178.8170  142.0230 C   0  0  0  0  0  2  0  0  0  0  0  0
  2  1  2  0  0  0  0
  6  4  1  1  0  0  0
  6 11  1  0  0  0  0
  7  3  1  6  0  0  0
  7  6  1  0  0  0  0
  8  1  1  6  0  0  0
  8 10  1  0  0  0  0
  9  7  1  0  0  0  0
  9  8  1  0  0  0  0
 10  5  1  0  0  0  0
 11  5  1  0  0  0  0
 11 13  1  1  0  0  0
 13 14  2  0  0  0  0
 13 12  1  0  0  0  0
 15  2  1  0  0  0  0
 15 19  1  0  0  0  0
 16 17  1  0  0  0  0
 17 19  2  0  0  0  0
 18 20  1  0  0  0  0
 18 16  2  0  0  0  0
 20 15  2  0  0  0  0
 21 16  1  0  0  0  0
 21 25  1  0  0  0  0
 22 21  1  0  0  0  0
 23 21  1  0  0  0  0
 25 24  1  0  0  0  0
M  END
>  <MODEL>
5

>  <REMARK>
 VINA RESULT:      -6.3      4.544      6.175
  Name = 
  5 active torsions:
  status: ('A' for Active; 'I' for Inactive)
    1  A    between atoms: C_1  and  C_7
    2  A    between atoms: C_1  and  C_14
    3  A    between atoms: C_3  and  N_12
    4  A    between atoms: C_5  and  C_17
    5  A    between atoms: C_19  and  C_24
                            x       y       z     vdW  Elec       q    Type
                         _______ _______ _______ _____ _____    ______ ____

>  <TORSDO>
F 5

$$$$
=
 OpenBabel11072409393D

 25 26  0  0  1  0  0  0  0  0999 V2000
  189.4990  177.4740  144.1760 C   0  0  0  0  0  3  0  0  0  0  0  0
  189.8970  176.2430  144.1090 N   0  0  0  0  0  0  0  0  0  0  0  0
  185.5670  178.8940  146.7850 Cl  0  0  0  0  0  0  0  0  0  0  0  0
  184.0350  179.4690  144.2710 O   0  0  0  0  0  1  0  0  0  0  0  0
  186.0850  176.8910  142.5310 C   0  0  0  0  0  2  0  0  0  0  0  0
  184.9600  178.4250  144.1750 C   0  0  2  0  0  3  0  0  0  0  0  0
  186.1430  178.7270  145.1070 C   0  0  2  0  0  3  0  0  0  0  0  0
  188.0920  177.8310  143.8470 C   0  0  2  0  0  3  0  0  0  0  0  0
  187.2210  177.6520  145.0810 C   0  0  0  0  0  2  0  0  0  0  0  0
  187.6040  176.9910  142.6620 C   0  0  0  0  0  2  0  0  0  0  0  0
  185.3880  178.2360  142.7050 C   0  0  2  0  0  3  0  0  0  0  0  0
  184.4250  178.6190  140.4030 N   0  0  0  0  0  1  0  0  0  0  0  0
  184.2170  178.2930  141.7730 C   0  0  0  0  0  0  0  0  0  0  0  0
  183.0520  178.0490  142.1870 O   0  0  0  0  0  0  0  0  0  0  0  0
  191.2360  175.8360  144.4130 C   0  0  0  0  0  0  0  0  0  0  0  0
  193.8460  175.0080  145.0670 C   0  0  0  0  0  0  0  0  0  0  0  0
  192.7470  174.5450  145.8040 C   0  0  0  0  0  3  0  0  0  0  0  0
  193.6280  175.8760  143.9860 C   0  0  0  0  0  3  0  0  0  0  0  0
  191.4520  174.9600  145.4810 C   0  0  0  0  0  3  0  0  0  0  0  0
  192.3340  176.2910  143.6630 C   0  0  0  0  0  3  0  0  0  0  0  0
  195.2340  174.5260  145.3930 C   0  0  0  0  0  0  0  0  0  0  0  0
  195.2270  173.1480  145.5310 F   0  0  0  0  0  0  0  0  0  0  0  0
  195.6730  175.0760  146.5880 F   0  0  0  0  0  0  0  0  0  0  0  0
  197.5100  174.5420  144.6220 O   0  0  0  0  0  1  0  0  0  0  0  0
  196.2050  174.8970  144.2790 C   0  0  0  0  0  2  0  0  0  0  0  0
  2  1  2  0  0  0  0
  2 15  1  0  0  0  0
  5 10  1  0  0  0  0
  5 11  1  0  0  0  0
  6  4  1  6  0  0  0
  6  7  1  0  0  0  0
  7  3  1  1  0  0  0
  8  1  1  1  0  0  0
  8  9  1  0  0  0  0
  9  7  1  0  0  0  0
 10  8  1  0  0  0  0
 11 13  1  6  0  0  0
 11  6  1  0  0  0  0
 12 13  1  0  0  0  0
 13 14  2  0  0  0  0
 15 19  1  0  0  0  0
 16 21  1  0  0  0  0
 16 17  1  0  0  0  0
 18 16  2  0  0  0  0
 19 17  2  0  0  0  0
 20 18  1  0  0  0  0
 20 15  2  0  0  0  0
 21 22  1  0  0  0  0
 21 23  1  0  0  0  0
 25 24  1  0  0  0  0
 25 21  1  0  0  0  0
M  END
>  <MODEL>
6

>  <REMARK>
 VINA RESULT:      -6.3      4.484      9.782
  Name = 
  5 active torsions:
  status: ('A' for Active; 'I' for Inactive)
    1  A    between atoms: C_1  and  C_7
    2  A    between atoms: C_1  and  C_14
    3  A    between atoms: C_3  and  N_12
    4  A    between atoms: C_5  and  C_17
    5  A    between atoms: C_19  and  C_24
                            x       y       z     vdW  Elec       q    Type
                         _______ _______ _______ _____ _____    ______ ____

>  <TORSDO>
F 5

$$$$
=
 OpenBabel11072409393D

 25 26  0  0  1  0  0  0  0  0999 V2000
  191.6180  175.1800  144.6650 C   0  0  0  0  0  3  0  0  0  0  0  0
  190.8280  176.1570  144.3520 N   0  0  0  0  0  0  0  0  0  0  0  0
  196.2730  174.1770  145.9360 Cl  0  0  0  0  0  0  0  0  0  0  0  0
  197.0270  173.7560  143.0640 O   0  0  0  0  0  1  0  0  0  0  0  0
  194.3050  176.1070  142.0910 C   0  0  0  0  0  2  0  0  0  0  0  0
  196.0170  174.7000  143.2780 C   0  0  2  0  0  3  0  0  0  0  0  0
  195.2050  174.2800  144.5130 C   0  0  2  0  0  3  0  0  0  0  0  0
  192.8890  174.9690  143.9210 C   0  0  2  0  0  3  0  0  0  0  0  0
  194.0680  175.2390  144.8420 C   0  0  0  0  0  2  0  0  0  0  0  0
  192.9130  175.8510  142.6680 C   0  0  0  0  0  2  0  0  0  0  0  0
  195.1510  174.8410  142.0100 C   0  0  2  0  0  3  0  0  0  0  0  0
  196.9050  175.9750  140.5920 N   0  0  0  0  0  1  0  0  0  0  0  0
  195.9870  174.9020  140.7690 C   0  0  0  0  0  0  0  0  0  0  0  0
  195.8920  174.0090  139.8840 O   0  0  0  0  0  0  0  0  0  0  0  0
  189.5920  176.4140  145.0300 C   0  0  0  0  0  0  0  0  0  0  0  0
  187.1530  176.9680  146.3210 C   0  0  0  0  0  0  0  0  0  0  0  0
  187.4710  177.5880  145.1030 C   0  0  0  0  0  3  0  0  0  0  0  0
  188.0580  176.0540  146.8800 C   0  0  0  0  0  3  0  0  0  0  0  0
  188.6850  177.3140  144.4650 C   0  0  0  0  0  3  0  0  0  0  0  0
  189.2710  175.7800  146.2420 C   0  0  0  0  0  3  0  0  0  0  0  0
  185.8280  177.2350  146.9820 C   0  0  0  0  0  0  0  0  0  0  0  0
  185.9280  176.9860  148.3410 F   0  0  0  0  0  0  0  0  0  0  0  0
  184.8470  176.4040  146.4640 F   0  0  0  0  0  0  0  0  0  0  0  0
  186.0200  179.5080  147.7390 O   0  0  0  0  0  1  0  0  0  0  0  0
  185.4150  178.6890  146.7850 C   0  0  0  0  0  2  0  0  0  0  0  0
  2  1  2  0  0  0  0
  2 15  1  0  0  0  0
  5 10  1  0  0  0  0
  6  4  1  6  0  0  0
  6  7  1  0  0  0  0
  7  9  1  0  0  0  0
  7  3  1  1  0  0  0
  8  1  1  1  0  0  0
  8  9  1  0  0  0  0
 10  8  1  0  0  0  0
 11 13  1  6  0  0  0
 11  5  1  0  0  0  0
 11  6  1  0  0  0  0
 12 13  1  0  0  0  0
 14 13  2  0  0  0  0
 15 20  1  0  0  0  0
 16 18  1  0  0  0  0
 16 21  1  0  0  0  0
 17 16  2  0  0  0  0
 19 15  2  0  0  0  0
 19 17  1  0  0  0  0
 20 18  2  0  0  0  0
 21 22  1  0  0  0  0
 23 21  1  0  0  0  0
 25 21  1  0  0  0  0
 25 24  1  0  0  0  0
M  END
>  <MODEL>
7

>  <REMARK>
 VINA RESULT:      -6.3      2.284      3.169
  Name = 
  5 active torsions:
  status: ('A' for Active; 'I' for Inactive)
    1  A    between atoms: C_1  and  C_7
    2  A    between atoms: C_1  and  C_14
    3  A    between atoms: C_3  and  N_12
    4  A    between atoms: C_5  and  C_17
    5  A    between atoms: C_19  and  C_24
                            x       y       z     vdW  Elec       q    Type
                         _______ _______ _______ _____ _____    ______ ____

>  <TORSDO>
F 5

$$$$
=
 OpenBabel11072409393D

 25 26  0  0  1  0  0  0  0  0999 V2000
  191.4220  175.2020  145.1400 C   0  0  0  0  0  3  0  0  0  0  0  0
  190.2120  174.9640  145.5340 N   0  0  0  0  0  0  0  0  0  0  0  0
  196.3480  175.1970  144.9920 Cl  0  0  0  0  0  0  0  0  0  0  0  0
  196.4290  172.3290  145.8670 O   0  0  0  0  0  1  0  0  0  0  0  0
  193.0800  171.8460  144.3070 C   0  0  0  0  0  2  0  0  0  0  0  0
  195.3150  172.6830  145.0970 C   0  0  2  0  0  3  0  0  0  0  0  0
  194.9620  174.1500  145.3870 C   0  0  2  0  0  3  0  0  0  0  0  0
  192.4770  174.1610  145.2700 C   0  0  2  0  0  3  0  0  0  0  0  0
  193.7550  174.6450  144.6020 C   0  0  0  0  0  2  0  0  0  0  0  0
  191.9780  172.8360  144.6830 C   0  0  0  0  0  2  0  0  0  0  0  0
  194.1490  171.7170  145.3870 C   0  0  2  0  0  3  0  0  0  0  0  0
  195.0320  169.6450  144.2450 N   0  0  0  0  0  1  0  0  0  0  0  0
  194.6060  170.2910  145.4390 C   0  0  0  0  0  0  0  0  0  0  0  0
  194.6260  169.6610  146.5310 O   0  0  0  0  0  0  0  0  0  0  0  0
  189.1530  175.9230  145.4340 C   0  0  0  0  0  0  0  0  0  0  0  0
  187.1020  177.8350  145.1860 C   0  0  0  0  0  0  0  0  0  0  0  0
  188.0440  177.6650  144.1610 C   0  0  0  0  0  3  0  0  0  0  0  0
  187.1820  177.0280  146.3310 C   0  0  0  0  0  3  0  0  0  0  0  0
  189.0640  176.7180  144.2880 C   0  0  0  0  0  3  0  0  0  0  0  0
  188.2020  176.0810  146.4570 C   0  0  0  0  0  3  0  0  0  0  0  0
  185.9810  178.8280  145.0270 C   0  0  0  0  0  0  0  0  0  0  0  0
  186.1490  179.5320  143.8470 F   0  0  0  0  0  0  0  0  0  0  0  0
  185.9810  179.7360  146.0750 F   0  0  0  0  0  0  0  0  0  0  0  0
  183.6930  178.7800  145.7600 O   0  0  0  0  0  1  0  0  0  0  0  0
  184.6370  178.1120  144.9780 C   0  0  0  0  0  2  0  0  0  0  0  0
  1  2  2  0  0  0  0
  5 10  1  0  0  0  0
  5 11  1  0  0  0  0
  6  7  1  0  0  0  0
  6 11  1  0  0  0  0
  6  4  1  1  0  0  0
  7  3  1  6  0  0  0
  8  1  1  6  0  0  0
  9  8  1  0  0  0  0
  9  7  1  0  0  0  0
 10  8  1  0  0  0  0
 11 13  1  6  0  0  0
 12 13  1  0  0  0  0
 13 14  2  0  0  0  0
 15  2  1  0  0  0  0
 15 20  1  0  0  0  0
 16 18  1  0  0  0  0
 17 19  1  0  0  0  0
 17 16  2  0  0  0  0
 18 20  2  0  0  0  0
 19 15  2  0  0  0  0
 21 16  1  0  0  0  0
 21 23  1  0  0  0  0
 22 21  1  0  0  0  0
 25 21  1  0  0  0  0
 25 24  1  0  0  0  0
M  END
>  <MODEL>
8

>  <REMARK>
 VINA RESULT:      -6.3      2.016      2.536
  Name = 
  5 active torsions:
  status: ('A' for Active; 'I' for Inactive)
    1  A    between atoms: C_1  and  C_7
    2  A    between atoms: C_1  and  C_14
    3  A    between atoms: C_3  and  N_12
    4  A    between atoms: C_5  and  C_17
    5  A    between atoms: C_19  and  C_24
                            x       y       z     vdW  Elec       q    Type
                         _______ _______ _______ _____ _____    ______ ____

>  <TORSDO>
F 5

$$$$
=
 OpenBabel11072409393D

 25 26  0  0  1  0  0  0  0  0999 V2000
  190.8320  175.5460  144.0070 C   0  0  0  0  0  3  0  0  0  0  0  0
  190.4430  176.6780  144.5010 N   0  0  0  0  0  0  0  0  0  0  0  0
  193.5970  171.6940  142.6630 Cl  0  0  0  0  0  0  0  0  0  0  0  0
  195.7760  173.5190  141.7050 O   0  0  0  0  0  1  0  0  0  0  0  0
  194.6280  176.0540  144.1830 C   0  0  0  0  0  2  0  0  0  0  0  0
  195.0310  174.0030  142.7850 C   0  0  2  0  0  3  0  0  0  0  0  0
  193.5920  173.4760  142.6670 C   0  0  2  0  0  3  0  0  0  0  0  0
  192.2300  175.3710  143.5280 C   0  0  2  0  0  3  0  0  0  0  0  0
  192.6840  173.9450  143.7970 C   0  0  0  0  0  2  0  0  0  0  0  0
  193.1420  176.4080  144.1920 C   0  0  0  0  0  2  0  0  0  0  0  0
  195.1040  175.5430  142.8270 C   0  0  2  0  0  3  0  0  0  0  0  0
  197.5330  175.6900  143.4990 N   0  0  0  0  0  1  0  0  0  0  0  0
  196.4970  176.0400  142.5890 C   0  0  0  0  0  0  0  0  0  0  0  0
  196.7610  176.7590  141.5880 O   0  0  0  0  0  0  0  0  0  0  0  0
  189.1130  176.9090  144.9790 C   0  0  0  0  0  0  0  0  0  0  0  0
  186.4890  177.4060  145.8700 C   0  0  0  0  0  0  0  0  0  0  0  0
  186.9290  177.9070  144.6360 C   0  0  0  0  0  3  0  0  0  0  0  0
  187.3670  176.6370  146.6480 C   0  0  0  0  0  3  0  0  0  0  0  0
  188.2340  177.6630  144.1970 C   0  0  0  0  0  3  0  0  0  0  0  0
  188.6710  176.3930  146.2090 C   0  0  0  0  0  3  0  0  0  0  0  0
  185.0710  177.6380  146.3190 C   0  0  0  0  0  0  0  0  0  0  0  0
  184.4400  176.4210  146.5100 F   0  0  0  0  0  0  0  0  0  0  0  0
  184.3640  178.3430  145.3570 F   0  0  0  0  0  0  0  0  0  0  0  0
  185.8930  179.5180  147.5700 O   0  0  0  0  0  1  0  0  0  0  0  0
  185.0460  178.4100  147.6320 C   0  0  0  0  0  2  0  0  0  0  0  0
  1  2  2  0  0  0  0
  2 15  1  0  0  0  0
  5 10  1  0  0  0  0
  6  4  1  6  0  0  0
  6 11  1  0  0  0  0
  7  3  1  1  0  0  0
  7  6  1  0  0  0  0
  7  9  1  0  0  0  0
  8  9  1  0  0  0  0
  8  1  1  1  0  0  0
  8 10  1  0  0  0  0
 11 13  1  1  0  0  0
 11  5  1  0  0  0  0
 13 12  1  0  0  0  0
 14 13  2  0  0  0  0
 15 20  1  0  0  0  0
 16 21  1  0  0  0  0
 16 18  1  0  0  0  0
 17 16  2  0  0  0  0
 19 17  1  0  0  0  0
 19 15  2  0  0  0  0
 20 18  2  0  0  0  0
 21 22  1  0  0  0  0
 21 25  1  0  0  0  0
 23 21  1  0  0  0  0
 24 25  1  0  0  0  0
M  END
>  <MODEL>
9

>  <REMARK>
 VINA RESULT:      -6.1      2.330      2.879
  Name = 
  5 active torsions:
  status: ('A' for Active; 'I' for Inactive)
    1  A    between atoms: C_1  and  C_7
    2  A    between atoms: C_1  and  C_14
    3  A    between atoms: C_3  and  N_12
    4  A    between atoms: C_5  and  C_17
    5  A    between atoms: C_19  and  C_24
                            x       y       z     vdW  Elec       q    Type
                         _______ _______ _______ _____ _____    ______ ____

>  <TORSDO>
F 5

$$$$
