=
 OpenBabel11072408303D

 56 62  0  0  1  0  0  0  0  0999 V2000
  194.0970  174.0170  141.2060 C   0  0  0  0  0  3  0  0  0  0  0  0
  195.9320  175.5310  140.5410 C   0  0  0  0  0  3  0  0  0  0  0  0
  193.5870  174.9340  142.0360 C   0  0  0  0  0  0  0  0  0  0  0  0
  195.8410  173.2510  139.4580 C   0  0  1  0  0  3  0  0  0  0  0  0
  193.9040  173.6630  138.0710 C   0  0  2  0  0  3  0  0  0  0  0  0
  195.2620  172.9870  138.0770 C   0  0  0  0  0  2  0  0  0  0  0  0
  194.1010  174.8860  138.9540 C   0  0  0  0  0  2  0  0  0  0  0  0
  195.0230  174.4150  140.0810 C   0  0  1  0  0  0  0  0  0  0  0  0
  195.4960  176.4400  141.4370 C   0  0  0  0  0  3  0  0  0  0  0  0
  194.0790  176.3690  141.9480 C   0  0  0  0  0  2  0  0  0  0  0  0
  195.9240  171.6850  140.4100 P   0  0  2  0  0  0  0  0  0  0  0  0
  196.6120  170.6230  139.5870 O   0  0  0  0  0  0  0  0  0  0  0  0
  194.3630  171.1650  140.7870 O   0  0  0  0  0  1  0  0  0  0  0  0
  196.8390  171.9680  141.8910 N   0  0  0  0  0  2  0  0  0  0  0  0
  196.6300  170.6210  142.9820 S   0  0  0  0  0  0  0  0  0  0  0  0
  197.9410  170.3280  143.6820 O   0  0  0  0  0  0  0  0  0  0  0  0
  196.2100  169.3650  142.2630 O   0  0  0  0  0  0  0  0  0  0  0  0
  195.4210  171.0140  144.1540 N   0  0  0  0  0  0  0  0  0  0  0  0
  194.6720  174.8080  145.9790 C   0  0  2  0  0  3  0  0  0  0  0  0
  194.0840  170.4150  144.1600 C   0  0  0  0  0  3  0  0  0  0  0  0
  193.2400  171.3600  144.8880 N   0  0  0  0  0  0  0  0  0  0  0  0
  196.3590  173.3390  144.8050 C   0  0  0  0  0  2  0  0  0  0  0  0
  194.0640  172.4740  145.2050 C   0  0  0  0  0  0  0  0  0  0  0  0
  195.2860  172.2920  144.7430 C   0  0  0  0  0  0  0  0  0  0  0  0
  195.7370  174.7340  144.8650 C   0  0  0  0  0  2  0  0  0  0  0  0
  193.5510  173.7920  145.7090 C   0  0  0  0  0  2  0  0  0  0  0  0
  194.8720  177.3340  145.6530 N   0  0  0  0  0  1  0  0  0  0  0  0
  194.1190  176.2100  146.1010 C   0  0  0  0  0  0  0  0  0  0  0  0
  192.5560  176.4380  146.5180 S   0  0  0  0  0  0  0  0  0  0  0  0
  192.8280  172.7410  138.6110 C   0  0  0  0  0  3  0  0  0  0  0  0
  191.6060  172.7770  138.0900 C   0  0  0  0  0  2  0  0  0  0  0  0
  192.4580  174.5820  142.7950 O   0  0  0  0  0  0  0  0  0  0  0  0
  188.1190  175.9900  144.4530 C   0  0  2  0  0  3  0  0  0  0  0  0
  189.7240  177.8680  143.6100 C   0  0  0  0  0  2  0  0  0  0  0  0
  191.1130  174.7370  142.3280 C   0  0  2  0  0  3  0  0  0  0  0  0
  190.8240  176.9470  143.1030 C   0  0  0  0  0  2  0  0  0  0  0  0
  188.0020  174.8940  142.1490 C   0  0  0  0  0  2  0  0  0  0  0  0
  190.3410  175.5750  143.2660 N   0  0  1  0  0  0  0  0  0  0  0  0
  189.4470  173.3210  140.9290 C   0  0  0  0  0  2  0  0  0  0  0  0
  188.6740  174.6320  140.8160 C   0  0  0  0  0  2  0  0  0  0  0  0
  188.8660  175.6660  143.1530 C   0  0  2  0  0  0  0  0  0  0  0  0
  188.4270  177.0920  143.4040 C   0  0  1  0  0  3  0  0  0  0  0  0
  190.8480  172.3940  142.6040 O   0  0  0  0  0  0  0  0  0  0  0  0
  190.4820  173.4040  142.0150 C   0  0  0  0  0  0  0  0  0  0  0  0
  188.9980  176.0040  145.7070 C   0  0  0  0  0  2  0  0  0  0  0  0
  188.2700  176.6710  146.8640 C   0  0  0  0  0  2  0  0  0  0  0  0
  186.8890  176.3040  146.8700 O   0  0  0  0  0  0  0  0  0  0  0  0
  185.8510  177.2400  146.8190 C   0  0  0  0  0  0  0  0  0  0  0  0
  185.6370  178.0270  147.7870 O   0  0  0  0  0  0  0  0  0  0  0  0
  185.0110  177.3010  145.7070 O   0  0  0  0  0  0  0  0  0  0  0  0
  184.3660  178.5130  145.3640 C   0  0  0  0  0  2  0  0  0  0  0  0
  185.3240  179.4200  144.6720 C   0  0  0  0  0  3  0  0  0  0  0  0
  185.5840  179.3850  143.3560 C   0  0  0  0  0  3  0  0  0  0  0  0
  184.9410  178.5220  142.4040 N   0  0  0  0  0  0  0  0  0  0  0  0
  185.7200  178.0900  141.2490 C   0  0  0  0  0  1  0  0  0  0  0  0
  183.4980  178.3550  142.3370 C   0  0  0  0  0  1  0  0  0  0  0  0
  1  3  2  0  0  0  0
  2  9  2  0  0  0  0
  3 32  1  0  0  0  0
  4  8  1  0  0  0  0
  4 11  1  1  0  0  0
  5  6  1  0  0  0  0
  5 30  1  1  0  0  0
  5  7  1  0  0  0  0
  6  4  1  0  0  0  0
  8  7  1  6  0  0  0
  8  2  1  0  0  0  0
  8  1  1  0  0  0  0
  9 10  1  0  0  0  0
 10  3  1  0  0  0  0
 11 12  2  6  0  0  0
 11 13  1  0  0  0  0
 11 14  1  0  0  0  0
 14 15  1  0  0  0  0
 15 16  2  0  0  0  0
 15 18  1  0  0  0  0
 17 15  2  0  0  0  0
 18 20  1  0  0  0  0
 18 24  1  0  0  0  0
 19 28  1  6  0  0  0
 20 21  2  0  0  0  0
 21 23  1  0  0  0  0
 22 25  1  0  0  0  0
 23 26  1  0  0  0  0
 24 22  1  0  0  0  0
 24 23  2  0  0  0  0
 25 19  1  0  0  0  0
 26 19  1  0  0  0  0
 27 28  1  0  0  0  0
 28 29  2  0  0  0  0
 31 30  2  0  0  0  0
 33 45  1  1  0  0  0
 35 32  1  1  0  0  0
 35 38  1  0  0  0  0
 36 34  1  0  0  0  0
 38 36  1  6  0  0  0
 39 44  1  0  0  0  0
 40 39  1  0  0  0  0
 40 37  1  0  0  0  0
 41 37  1  6  0  0  0
 41 38  1  0  0  0  0
 41 42  1  0  0  0  0
 41 33  1  0  0  0  0
 42 34  1  1  0  0  0
 42 33  1  0  0  0  0
 44 35  1  0  0  0  0
 44 43  2  0  0  0  0
 45 46  1  0  0  0  0
 46 47  1  0  0  0  0
 48 47  1  0  0  0  0
 48 49  2  0  0  0  0
 50 48  1  0  0  0  0
 51 50  1  0  0  0  0
 52 51  1  0  0  0  0
 53 52  2  0  0  0  0
 54 53  1  0  0  0  0
 55 54  1  0  0  0  0
 56 54  1  0  0  0  0
M  END
>  <MODEL>
1

>  <REMARK>
 VINA RESULT:      -6.9      0.000      0.000
  Name = 
  16 active torsions:
  status: ('A' for Active; 'I' for Inactive)
    1  A    between atoms: C_1  and  C_25
    2  A    between atoms: S_2  and  N_3
    3  A    between atoms: S_2  and  N_6
    4  A    between atoms: C_4  and  C_41
    5  A    between atoms: N_6  and  P_10
    6  A    between atoms: C_7  and  O_56
    7  A    between atoms: C_9  and  C_25
    8  A    between atoms: C_9  and  O_31
    9  A    between atoms: P_10  and  C_18
   10  A    between atoms: N_12  and  C_16
   11  A    between atoms: C_15  and  C_54
   12  A    between atoms: C_17  and  O_56
   13  A    between atoms: C_21  and  C_23
   14  A    between atoms: C_29  and  O_31
   15  A    between atoms: C_29  and  O_37
   16  A    between atoms: O_37  and  C_54
                            x       y       z     vdW  Elec       q    Type
                         _______ _______ _______ _____ _____    ______ ____

>  <TORSDO>
F 16

$$$$
=
 OpenBabel11072408303D

 56 62  0  0  1  0  0  0  0  0999 V2000
  193.7580  174.1230  142.1880 C   0  0  0  0  0  3  0  0  0  0  0  0
  194.0410  172.0320  140.9040 C   0  0  0  0  0  3  0  0  0  0  0  0
  192.4360  173.9350  142.2800 C   0  0  0  0  0  0  0  0  0  0  0  0
  196.1130  173.3760  141.4290 C   0  0  1  0  0  3  0  0  0  0  0  0
  196.1840  172.8920  143.7970 C   0  0  2  0  0  3  0  0  0  0  0  0
  197.0650  173.0630  142.5730 C   0  0  0  0  0  2  0  0  0  0  0  0
  194.9060  172.2800  143.2450 C   0  0  0  0  0  2  0  0  0  0  0  0
  194.6890  172.9700  141.8950 C   0  0  1  0  0  0  0  0  0  0  0  0
  192.7030  171.8630  140.9000 C   0  0  0  0  0  3  0  0  0  0  0  0
  191.8530  172.5800  141.9190 C   0  0  0  0  0  2  0  0  0  0  0  0
  196.3500  175.1100  140.8780 P   0  0  2  0  0  0  0  0  0  0  0  0
  197.7900  175.3270  140.4790 O   0  0  0  0  0  0  0  0  0  0  0  0
  195.9630  176.1640  142.1380 O   0  0  0  0  0  1  0  0  0  0  0  0
  195.3020  175.4140  139.4930 N   0  0  0  0  0  2  0  0  0  0  0  0
  196.0610  174.8250  138.0350 S   0  0  0  0  0  0  0  0  0  0  0  0
  196.4360  173.3690  138.2120 O   0  0  0  0  0  0  0  0  0  0  0  0
  197.3220  175.5810  137.7040 O   0  0  0  0  0  0  0  0  0  0  0  0
  194.9600  174.9850  136.7100 N   0  0  0  0  0  0  0  0  0  0  0  0
  190.7930  174.0330  136.6320 C   0  0  2  0  0  3  0  0  0  0  0  0
  195.0320  176.0760  135.7350 C   0  0  0  0  0  3  0  0  0  0  0  0
  193.6890  176.1760  135.1670 N   0  0  0  0  0  0  0  0  0  0  0  0
  193.0220  173.6150  137.7450 C   0  0  0  0  0  2  0  0  0  0  0  0
  192.8890  175.2260  135.8580 C   0  0  0  0  0  0  0  0  0  0  0  0
  193.6050  174.5900  136.7650 C   0  0  0  0  0  0  0  0  0  0  0  0
  191.5410  173.9150  137.9760 C   0  0  0  0  0  2  0  0  0  0  0  0
  191.3900  175.1720  135.7900 C   0  0  0  0  0  2  0  0  0  0  0  0
  188.5390  175.0290  135.9560 N   0  0  0  0  0  1  0  0  0  0  0  0
  189.3120  174.2400  136.8570 C   0  0  0  0  0  0  0  0  0  0  0  0
  188.5280  173.3650  137.9910 S   0  0  0  0  0  0  0  0  0  0  0  0
  195.9280  174.2210  144.4800 C   0  0  0  0  0  3  0  0  0  0  0  0
  196.0240  174.3140  145.8020 C   0  0  0  0  0  2  0  0  0  0  0  0
  191.6730  174.9240  142.9230 O   0  0  0  0  0  0  0  0  0  0  0  0
  189.0850  176.3470  146.7750 C   0  0  2  0  0  3  0  0  0  0  0  0
  189.3260  173.7750  146.4030 C   0  0  0  0  0  2  0  0  0  0  0  0
  191.8770  175.3190  144.2840 C   0  0  2  0  0  3  0  0  0  0  0  0
  190.2780  173.8550  145.2190 C   0  0  0  0  0  2  0  0  0  0  0  0
  191.6020  176.6540  147.0910 C   0  0  0  0  0  2  0  0  0  0  0  0
  190.6010  175.2690  145.0250 N   0  0  1  0  0  0  0  0  0  0  0  0
  193.5000  176.9020  145.5460 C   0  0  0  0  0  2  0  0  0  0  0  0
  193.0040  176.1640  146.7870 C   0  0  0  0  0  2  0  0  0  0  0  0
  190.4900  175.8820  146.3710 C   0  0  2  0  0  0  0  0  0  0  0  0
  189.6570  174.9890  147.2650 C   0  0  1  0  0  3  0  0  0  0  0  0
  192.4970  177.4610  143.4700 O   0  0  0  0  0  0  0  0  0  0  0  0
  192.6010  176.6380  144.3720 C   0  0  0  0  0  0  0  0  0  0  0  0
  188.0410  176.2640  145.6590 C   0  0  0  0  0  2  0  0  0  0  0  0
  186.8090  177.0810  146.0170 C   0  0  0  0  0  2  0  0  0  0  0  0
  185.8820  177.0980  144.9290 O   0  0  0  0  0  0  0  0  0  0  0  0
  185.1230  178.2230  144.5900 C   0  0  0  0  0  0  0  0  0  0  0  0
  184.5150  178.8890  145.4790 O   0  0  0  0  0  0  0  0  0  0  0  0
  184.9990  178.6150  143.2580 O   0  0  0  0  0  0  0  0  0  0  0  0
  184.9650  177.6460  142.2280 C   0  0  0  0  0  2  0  0  0  0  0  0
  185.8250  178.0820  141.0930 C   0  0  0  0  0  3  0  0  0  0  0  0
  187.1300  177.7920  140.9760 C   0  0  0  0  0  3  0  0  0  0  0  0
  187.8830  176.9710  141.8820 N   0  0  0  0  0  0  0  0  0  0  0  0
  189.0990  177.5380  142.4570 C   0  0  0  0  0  1  0  0  0  0  0  0
  187.7090  175.5310  141.9750 C   0  0  0  0  0  1  0  0  0  0  0  0
  1  3  2  0  0  0  0
  3 32  1  0  0  0  0
  4 11  1  1  0  0  0
  4  8  1  0  0  0  0
  4  6  1  0  0  0  0
  5 30  1  6  0  0  0
  6  5  1  0  0  0  0
  7  5  1  0  0  0  0
  8  2  1  6  0  0  0
  8  1  1  0  0  0  0
  8  7  1  0  0  0  0
  9  2  2  0  0  0  0
  9 10  1  0  0  0  0
 10  3  1  0  0  0  0
 11 12  2  6  0  0  0
 11 13  1  0  0  0  0
 14 11  1  0  0  0  0
 15 16  2  0  0  0  0
 15 14  1  0  0  0  0
 17 15  2  0  0  0  0
 18 24  1  0  0  0  0
 18 15  1  0  0  0  0
 19 28  1  1  0  0  0
 19 25  1  0  0  0  0
 20 18  1  0  0  0  0
 21 20  2  0  0  0  0
 21 23  1  0  0  0  0
 22 25  1  0  0  0  0
 23 24  2  0  0  0  0
 24 22  1  0  0  0  0
 26 23  1  0  0  0  0
 26 19  1  0  0  0  0
 27 28  1  0  0  0  0
 28 29  2  0  0  0  0
 30 31  2  0  0  0  0
 33 45  1  6  0  0  0
 33 42  1  0  0  0  0
 35 32  1  6  0  0  0
 35 44  1  0  0  0  0
 35 38  1  0  0  0  0
 36 34  1  0  0  0  0
 38 36  1  1  0  0  0
 38 41  1  0  0  0  0
 39 40  1  0  0  0  0
 40 37  1  0  0  0  0
 41 33  1  0  0  0  0
 41 37  1  1  0  0  0
 41 42  1  0  0  0  0
 42 34  1  6  0  0  0
 43 44  2  0  0  0  0
 44 39  1  0  0  0  0
 45 46  1  0  0  0  0
 47 46  1  0  0  0  0
 48 47  1  0  0  0  0
 48 49  2  0  0  0  0
 50 48  1  0  0  0  0
 51 50  1  0  0  0  0
 52 51  1  0  0  0  0
 53 52  2  0  0  0  0
 53 54  1  0  0  0  0
 54 56  1  0  0  0  0
 54 55  1  0  0  0  0
M  END
>  <MODEL>
2

>  <REMARK>
 VINA RESULT:      -6.8      3.235      6.084
  Name = 
  16 active torsions:
  status: ('A' for Active; 'I' for Inactive)
    1  A    between atoms: C_1  and  C_25
    2  A    between atoms: S_2  and  N_3
    3  A    between atoms: S_2  and  N_6
    4  A    between atoms: C_4  and  C_41
    5  A    between atoms: N_6  and  P_10
    6  A    between atoms: C_7  and  O_56
    7  A    between atoms: C_9  and  C_25
    8  A    between atoms: C_9  and  O_31
    9  A    between atoms: P_10  and  C_18
   10  A    between atoms: N_12  and  C_16
   11  A    between atoms: C_15  and  C_54
   12  A    between atoms: C_17  and  O_56
   13  A    between atoms: C_21  and  C_23
   14  A    between atoms: C_29  and  O_31
   15  A    between atoms: C_29  and  O_37
   16  A    between atoms: O_37  and  C_54
                            x       y       z     vdW  Elec       q    Type
                         _______ _______ _______ _____ _____    ______ ____

>  <TORSDO>
F 16

$$$$
=
 OpenBabel11072408303D

 56 62  0  0  1  0  0  0  0  0999 V2000
  192.5650  173.5350  143.1610 C   0  0  0  0  0  3  0  0  0  0  0  0
  193.3900  171.5010  142.0300 C   0  0  0  0  0  3  0  0  0  0  0  0
  191.3030  173.0890  143.1320 C   0  0  0  0  0  0  0  0  0  0  0  0
  195.0890  173.2520  142.6820 C   0  0  1  0  0  3  0  0  0  0  0  0
  194.9960  172.8740  145.0690 C   0  0  2  0  0  3  0  0  0  0  0  0
  195.9540  173.1770  143.9310 C   0  0  0  0  0  2  0  0  0  0  0  0
  193.9310  171.9990  144.4270 C   0  0  0  0  0  2  0  0  0  0  0  0
  193.7300  172.5840  143.0270 C   0  0  1  0  0  0  0  0  0  0  0  0
  192.1200  171.0660  141.9010 C   0  0  0  0  0  3  0  0  0  0  0  0
  191.0400  171.6310  142.7910 C   0  0  0  0  0  2  0  0  0  0  0  0
  195.0380  174.9780  142.0630 P   0  0  2  0  0  0  0  0  0  0  0  0
  196.3790  175.6380  142.2770 O   0  0  0  0  0  0  0  0  0  0  0  0
  193.8560  175.8480  142.8990 O   0  0  0  0  0  1  0  0  0  0  0  0
  194.6620  174.9530  140.3400 N   0  0  0  0  0  2  0  0  0  0  0  0
  195.8910  174.0600  139.4790 S   0  0  0  0  0  0  0  0  0  0  0  0
  197.1880  174.1010  140.2600 O   0  0  0  0  0  0  0  0  0  0  0  0
  196.1650  174.6380  138.1150 O   0  0  0  0  0  0  0  0  0  0  0  0
  195.3790  172.4190  139.2880 N   0  0  0  0  0  0  0  0  0  0  0  0
  191.9590  170.9660  137.1730 C   0  0  2  0  0  3  0  0  0  0  0  0
  196.3130  171.2990  139.1430 C   0  0  0  0  0  3  0  0  0  0  0  0
  195.5520  170.2460  138.4750 N   0  0  0  0  0  0  0  0  0  0  0  0
  193.0190  172.9330  138.3530 C   0  0  0  0  0  2  0  0  0  0  0  0
  194.2700  170.7920  138.1930 C   0  0  0  0  0  0  0  0  0  0  0  0
  194.1960  172.0400  138.6130 C   0  0  0  0  0  0  0  0  0  0  0  0
  192.2730  172.4750  137.1000 C   0  0  0  0  0  2  0  0  0  0  0  0
  193.2610  170.1580  137.2800 C   0  0  0  0  0  2  0  0  0  0  0  0
  191.3580  169.2570  135.3720 N   0  0  0  0  0  1  0  0  0  0  0  0
  191.1420  170.5290  135.9780 C   0  0  0  0  0  0  0  0  0  0  0  0
  189.8370  171.3960  135.5190 S   0  0  0  0  0  0  0  0  0  0  0  0
  194.4120  174.1470  145.6480 C   0  0  0  0  0  3  0  0  0  0  0  0
  195.2180  175.1390  146.0110 C   0  0  0  0  0  2  0  0  0  0  0  0
  190.2950  173.9240  143.6400 O   0  0  0  0  0  0  0  0  0  0  0  0
  188.6480  177.2880  146.7290 C   0  0  2  0  0  3  0  0  0  0  0  0
  190.5740  175.7470  147.5820 C   0  0  0  0  0  2  0  0  0  0  0  0
  190.4980  175.3070  143.9520 C   0  0  2  0  0  3  0  0  0  0  0  0
  190.8030  175.0070  146.2730 C   0  0  0  0  0  2  0  0  0  0  0  0
  190.0970  178.2640  144.8650 C   0  0  0  0  0  2  0  0  0  0  0  0
  189.9250  175.6210  145.2760 N   0  0  1  0  0  0  0  0  0  0  0  0
  190.7060  177.5150  142.6020 C   0  0  0  0  0  2  0  0  0  0  0  0
  191.2590  178.0760  143.9090 C   0  0  0  0  0  2  0  0  0  0  0  0
  189.7670  177.0300  145.7110 C   0  0  2  0  0  0  0  0  0  0  0  0
  190.1280  177.1490  147.1760 C   0  0  1  0  0  3  0  0  0  0  0  0
  189.1130  175.8300  142.0960 O   0  0  0  0  0  0  0  0  0  0  0  0
  190.0180  176.2000  142.8350 C   0  0  0  0  0  0  0  0  0  0  0  0
  187.7520  176.0790  147.0110 C   0  0  0  0  0  2  0  0  0  0  0  0
  186.3400  176.5280  147.3570 C   0  0  0  0  0  2  0  0  0  0  0  0
  186.0380  177.7730  146.7230 O   0  0  0  0  0  0  0  0  0  0  0  0
  185.0880  177.8990  145.7040 C   0  0  0  0  0  0  0  0  0  0  0  0
  184.2010  178.8020  145.7500 O   0  0  0  0  0  0  0  0  0  0  0  0
  185.0820  177.0090  144.6310 O   0  0  0  0  0  0  0  0  0  0  0  0
  186.2360  176.8490  143.8290 C   0  0  0  0  0  2  0  0  0  0  0  0
  186.7420  178.1820  143.3950 C   0  0  0  0  0  3  0  0  0  0  0  0
  186.5990  178.6800  142.1580 C   0  0  0  0  0  3  0  0  0  0  0  0
  185.8890  178.0460  141.0830 N   0  0  0  0  0  0  0  0  0  0  0  0
  186.6760  177.3550  140.0660 C   0  0  0  0  0  1  0  0  0  0  0  0
  184.5030  178.3490  140.7630 C   0  0  0  0  0  1  0  0  0  0  0  0
  3  1  2  0  0  0  0
  3 32  1  0  0  0  0
  4 11  1  1  0  0  0
  4  8  1  0  0  0  0
  4  6  1  0  0  0  0
  5 30  1  6  0  0  0
  6  5  1  0  0  0  0
  7  5  1  0  0  0  0
  8  2  1  6  0  0  0
  8  1  1  0  0  0  0
  8  7  1  0  0  0  0
  9  2  2  0  0  0  0
  9 10  1  0  0  0  0
 10  3  1  0  0  0  0
 11 12  2  1  0  0  0
 11 13  1  0  0  0  0
 14 11  1  0  0  0  0
 15 16  2  0  0  0  0
 15 14  1  0  0  0  0
 17 15  2  0  0  0  0
 18 15  1  0  0  0  0
 19 28  1  6  0  0  0
 19 26  1  0  0  0  0
 20 18  1  0  0  0  0
 21 20  2  0  0  0  0
 22 24  1  0  0  0  0
 23 21  1  0  0  0  0
 23 24  2  0  0  0  0
 24 18  1  0  0  0  0
 25 19  1  0  0  0  0
 25 22  1  0  0  0  0
 26 23  1  0  0  0  0
 27 28  1  0  0  0  0
 29 28  2  0  0  0  0
 30 31  2  0  0  0  0
 33 45  1  1  0  0  0
 33 42  1  0  0  0  0
 35 32  1  6  0  0  0
 35 38  1  0  0  0  0
 36 34  1  0  0  0  0
 38 41  1  0  0  0  0
 38 36  1  1  0  0  0
 39 44  1  0  0  0  0
 39 40  1  0  0  0  0
 40 37  1  0  0  0  0
 41 37  1  6  0  0  0
 41 33  1  0  0  0  0
 41 42  1  0  0  0  0
 42 34  1  1  0  0  0
 43 44  2  0  0  0  0
 44 35  1  0  0  0  0
 45 46  1  0  0  0  0
 47 46  1  0  0  0  0
 48 49  2  0  0  0  0
 48 47  1  0  0  0  0
 50 48  1  0  0  0  0
 51 50  1  0  0  0  0
 52 51  1  0  0  0  0
 53 52  2  0  0  0  0
 54 53  1  0  0  0  0
 55 54  1  0  0  0  0
 56 54  1  0  0  0  0
M  END
>  <MODEL>
3

>  <REMARK>
 VINA RESULT:      -6.6      2.865      5.668
  Name = 
  16 active torsions:
  status: ('A' for Active; 'I' for Inactive)
    1  A    between atoms: C_1  and  C_25
    2  A    between atoms: S_2  and  N_3
    3  A    between atoms: S_2  and  N_6
    4  A    between atoms: C_4  and  C_41
    5  A    between atoms: N_6  and  P_10
    6  A    between atoms: C_7  and  O_56
    7  A    between atoms: C_9  and  C_25
    8  A    between atoms: C_9  and  O_31
    9  A    between atoms: P_10  and  C_18
   10  A    between atoms: N_12  and  C_16
   11  A    between atoms: C_15  and  C_54
   12  A    between atoms: C_17  and  O_56
   13  A    between atoms: C_21  and  C_23
   14  A    between atoms: C_29  and  O_31
   15  A    between atoms: C_29  and  O_37
   16  A    between atoms: O_37  and  C_54
                            x       y       z     vdW  Elec       q    Type
                         _______ _______ _______ _____ _____    ______ ____

>  <TORSDO>
F 16

$$$$
=
 OpenBabel11072408303D

 56 62  0  0  1  0  0  0  0  0999 V2000
  194.5840  173.7800  143.9670 C   0  0  0  0  0  3  0  0  0  0  0  0
  196.9410  173.6520  144.6930 C   0  0  0  0  0  3  0  0  0  0  0  0
  194.2160  174.3410  145.1260 C   0  0  0  0  0  0  0  0  0  0  0  0
  196.3780  172.8140  142.3780 C   0  0  1  0  0  3  0  0  0  0  0  0
  195.9510  174.9740  141.3800 C   0  0  2  0  0  3  0  0  0  0  0  0
  196.5820  173.6220  141.1060 C   0  0  0  0  0  2  0  0  0  0  0  0
  196.1970  175.1980  142.8650 C   0  0  0  0  0  2  0  0  0  0  0  0
  196.0210  173.8190  143.5060 C   0  0  1  0  0  0  0  0  0  0  0  0
  196.5860  174.1290  145.9030 C   0  0  0  0  0  3  0  0  0  0  0  0
  195.2850  174.8750  146.0640 C   0  0  0  0  0  2  0  0  0  0  0  0
  195.1900  171.4510  142.0660 P   0  0  2  0  0  0  0  0  0  0  0  0
  193.8240  171.8370  142.5800 O   0  0  0  0  0  0  0  0  0  0  0  0
  195.7050  170.0550  142.8650 O   0  0  0  0  0  1  0  0  0  0  0  0
  195.1060  171.1550  140.3300 N   0  0  0  0  0  2  0  0  0  0  0  0
  194.4150  169.5790  140.0300 S   0  0  0  0  0  0  0  0  0  0  0  0
  193.5430  169.1780  141.2010 O   0  0  0  0  0  0  0  0  0  0  0  0
  195.4710  168.5170  139.8660 O   0  0  0  0  0  0  0  0  0  0  0  0
  193.4620  169.6360  138.5880 N   0  0  0  0  0  0  0  0  0  0  0  0
  190.2830  172.3370  137.6490 C   0  0  2  0  0  3  0  0  0  0  0  0
  194.0010  169.3410  137.2580 C   0  0  0  0  0  3  0  0  0  0  0  0
  193.1040  170.0120  136.3200 N   0  0  0  0  0  0  0  0  0  0  0  0
  191.6390  171.2450  139.4800 C   0  0  0  0  0  2  0  0  0  0  0  0
  192.1510  170.7140  137.1070 C   0  0  0  0  0  0  0  0  0  0  0  0
  192.3900  170.5360  138.3920 C   0  0  0  0  0  0  0  0  0  0  0  0
  191.0670  172.5630  138.9580 C   0  0  0  0  0  2  0  0  0  0  0  0
  191.2090  171.7530  136.5700 C   0  0  0  0  0  2  0  0  0  0  0  0
  190.0690  174.2560  135.9760 N   0  0  0  0  0  1  0  0  0  0  0  0
  189.6400  173.6220  137.1780 C   0  0  0  0  0  0  0  0  0  0  0  0
  188.2830  174.1700  137.9030 S   0  0  0  0  0  0  0  0  0  0  0  0
  194.4730  174.9690  141.0440 C   0  0  0  0  0  3  0  0  0  0  0  0
  194.0730  174.6200  139.8260 C   0  0  0  0  0  2  0  0  0  0  0  0
  192.8520  174.6190  145.3200 O   0  0  0  0  0  0  0  0  0  0  0  0
  188.9470  177.3140  144.2960 C   0  0  2  0  0  3  0  0  0  0  0  0
  191.2780  178.4120  143.8790 C   0  0  0  0  0  2  0  0  0  0  0  0
  191.9290  174.8310  144.2470 C   0  0  2  0  0  3  0  0  0  0  0  0
  192.1140  177.1830  144.2080 C   0  0  0  0  0  2  0  0  0  0  0  0
  189.3750  175.4760  142.5730 C   0  0  0  0  0  2  0  0  0  0  0  0
  191.1800  176.0860  144.4590 N   0  0  1  0  0  0  0  0  0  0  0  0
  190.5670  173.3250  142.6300 C   0  0  0  0  0  2  0  0  0  0  0  0
  190.3820  174.6160  141.8360 C   0  0  0  0  0  2  0  0  0  0  0  0
  189.9850  176.3950  143.6380 C   0  0  2  0  0  0  0  0  0  0  0  0
  189.9850  177.8660  143.2810 C   0  0  1  0  0  3  0  0  0  0  0  0
  190.8150  172.8530  144.9420 O   0  0  0  0  0  0  0  0  0  0  0  0
  191.0630  173.6180  144.0170 C   0  0  0  0  0  0  0  0  0  0  0  0
  189.2210  177.6340  145.7670 C   0  0  0  0  0  2  0  0  0  0  0  0
  188.2430  176.8950  146.6680 C   0  0  0  0  0  2  0  0  0  0  0  0
  187.2540  177.7910  147.1800 O   0  0  0  0  0  0  0  0  0  0  0  0
  185.9460  177.8430  146.6890 C   0  0  0  0  0  0  0  0  0  0  0  0
  185.2650  176.7870  146.5370 O   0  0  0  0  0  0  0  0  0  0  0  0
  185.3760  179.0640  146.3280 O   0  0  0  0  0  0  0  0  0  0  0  0
  185.5280  179.5630  145.0130 C   0  0  0  0  0  2  0  0  0  0  0  0
  184.3590  179.1620  144.1800 C   0  0  0  0  0  3  0  0  0  0  0  0
  184.4240  178.3170  143.1410 C   0  0  0  0  0  3  0  0  0  0  0  0
  185.6030  177.6190  142.7090 N   0  0  0  0  0  0  0  0  0  0  0  0
  186.3100  178.1430  141.5450 C   0  0  0  0  0  1  0  0  0  0  0  0
  185.9170  176.2620  143.1270 C   0  0  0  0  0  1  0  0  0  0  0  0
  1  3  2  0  0  0  0
  2  9  2  0  0  0  0
  3 32  1  0  0  0  0
  3 10  1  0  0  0  0
  4 11  1  6  0  0  0
  4  8  1  0  0  0  0
  5 30  1  1  0  0  0
  5  7  1  0  0  0  0
  6  5  1  0  0  0  0
  6  4  1  0  0  0  0
  8  7  1  6  0  0  0
  8  1  1  0  0  0  0
  8  2  1  0  0  0  0
  9 10  1  0  0  0  0
 11 12  2  1  0  0  0
 11 13  1  0  0  0  0
 14 11  1  0  0  0  0
 15 14  1  0  0  0  0
 15 16  2  0  0  0  0
 17 15  2  0  0  0  0
 18 15  1  0  0  0  0
 19 28  1  6  0  0  0
 19 25  1  0  0  0  0
 20 18  1  0  0  0  0
 21 23  1  0  0  0  0
 21 20  2  0  0  0  0
 23 24  2  0  0  0  0
 24 18  1  0  0  0  0
 24 22  1  0  0  0  0
 25 22  1  0  0  0  0
 26 23  1  0  0  0  0
 26 19  1  0  0  0  0
 27 28  1  0  0  0  0
 28 29  2  0  0  0  0
 31 30  2  0  0  0  0
 33 45  1  1  0  0  0
 34 36  1  0  0  0  0
 35 38  1  0  0  0  0
 35 32  1  1  0  0  0
 38 36  1  6  0  0  0
 39 44  1  0  0  0  0
 40 37  1  0  0  0  0
 40 39  1  0  0  0  0
 41 37  1  6  0  0  0
 41 33  1  0  0  0  0
 41 38  1  0  0  0  0
 42 41  1  0  0  0  0
 42 34  1  1  0  0  0
 42 33  1  0  0  0  0
 44 35  1  0  0  0  0
 44 43  2  0  0  0  0
 45 46  1  0  0  0  0
 46 47  1  0  0  0  0
 48 47  1  0  0  0  0
 49 48  2  0  0  0  0
 50 48  1  0  0  0  0
 51 50  1  0  0  0  0
 52 51  1  0  0  0  0
 53 52  2  0  0  0  0
 54 56  1  0  0  0  0
 54 53  1  0  0  0  0
 55 54  1  0  0  0  0
M  END
>  <MODEL>
4

>  <REMARK>
 VINA RESULT:      -6.5      2.641      4.752
  Name = 
  16 active torsions:
  status: ('A' for Active; 'I' for Inactive)
    1  A    between atoms: C_1  and  C_25
    2  A    between atoms: S_2  and  N_3
    3  A    between atoms: S_2  and  N_6
    4  A    between atoms: C_4  and  C_41
    5  A    between atoms: N_6  and  P_10
    6  A    between atoms: C_7  and  O_56
    7  A    between atoms: C_9  and  C_25
    8  A    between atoms: C_9  and  O_31
    9  A    between atoms: P_10  and  C_18
   10  A    between atoms: N_12  and  C_16
   11  A    between atoms: C_15  and  C_54
   12  A    between atoms: C_17  and  O_56
   13  A    between atoms: C_21  and  C_23
   14  A    between atoms: C_29  and  O_31
   15  A    between atoms: C_29  and  O_37
   16  A    between atoms: O_37  and  C_54
                            x       y       z     vdW  Elec       q    Type
                         _______ _______ _______ _____ _____    ______ ____

>  <TORSDO>
F 16

$$$$
=
 OpenBabel11072408303D

 56 62  0  0  1  0  0  0  0  0999 V2000
  192.7560  172.4850  140.5070 C   0  0  0  0  0  3  0  0  0  0  0  0
  194.7000  173.3000  139.2190 C   0  0  0  0  0  3  0  0  0  0  0  0
  192.6110  173.6700  141.1140 C   0  0  0  0  0  0  0  0  0  0  0  0
  193.9420  170.9240  138.8230 C   0  0  1  0  0  3  0  0  0  0  0  0
  191.9020  171.4610  137.6410 C   0  0  2  0  0  3  0  0  0  0  0  0
  193.0690  170.4920  137.6550 C   0  0  0  0  0  2  0  0  0  0  0  0
  192.5090  172.7700  138.1220 C   0  0  0  0  0  2  0  0  0  0  0  0
  193.5120  172.3670  139.2050 C   0  0  1  0  0  0  0  0  0  0  0  0
  194.6370  174.4730  139.8820 C   0  0  0  0  0  3  0  0  0  0  0  0
  193.3590  174.8770  140.5730 C   0  0  0  0  0  2  0  0  0  0  0  0
  193.8830  169.6560  140.1480 P   0  0  2  0  0  0  0  0  0  0  0  0
  194.4170  168.3450  139.6230 O   0  0  0  0  0  0  0  0  0  0  0  0
  192.2880  169.4380  140.6550 O   0  0  0  0  0  1  0  0  0  0  0  0
  194.8770  170.2000  141.4990 N   0  0  0  0  0  2  0  0  0  0  0  0
  194.3810  169.3870  142.9630 S   0  0  0  0  0  0  0  0  0  0  0  0
  195.6040  168.9170  143.7210 O   0  0  0  0  0  0  0  0  0  0  0  0
  193.5290  168.1750  142.6820 O   0  0  0  0  0  0  0  0  0  0  0  0
  193.4720  170.4820  143.9470 N   0  0  0  0  0  0  0  0  0  0  0  0
  194.6120  174.3840  145.2710 C   0  0  2  0  0  3  0  0  0  0  0  0
  192.0140  170.6110  143.8670 C   0  0  0  0  0  3  0  0  0  0  0  0
  191.7150  171.9400  144.3950 N   0  0  0  0  0  0  0  0  0  0  0  0
  195.4050  172.1300  144.4510 C   0  0  0  0  0  2  0  0  0  0  0  0
  192.9670  172.5500  144.6830 C   0  0  0  0  0  0  0  0  0  0  0  0
  193.9590  171.7350  144.3810 C   0  0  0  0  0  0  0  0  0  0  0  0
  195.5500  173.6430  144.2960 C   0  0  0  0  0  2  0  0  0  0  0  0
  193.1490  174.0090  144.9870 C   0  0  0  0  0  2  0  0  0  0  0  0
  195.6940  176.4400  144.2100 N   0  0  0  0  0  1  0  0  0  0  0  0
  194.8180  175.8800  145.1850 C   0  0  0  0  0  0  0  0  0  0  0  0
  193.8570  176.8870  146.0380 S   0  0  0  0  0  0  0  0  0  0  0  0
  190.7830  170.9870  138.5480 C   0  0  0  0  0  3  0  0  0  0  0  0
  189.5740  170.7650  138.0440 C   0  0  0  0  0  2  0  0  0  0  0  0
  191.5990  173.7960  142.0800 O   0  0  0  0  0  0  0  0  0  0  0  0
  188.3840  176.4130  144.6060 C   0  0  2  0  0  3  0  0  0  0  0  0
  190.5170  177.6600  143.7640 C   0  0  0  0  0  2  0  0  0  0  0  0
  190.3910  174.5350  141.8670 C   0  0  2  0  0  3  0  0  0  0  0  0
  191.0960  176.5020  142.9650 C   0  0  0  0  0  2  0  0  0  0  0  0
  187.6060  175.8950  142.2290 C   0  0  0  0  0  2  0  0  0  0  0  0
  190.1200  175.4130  143.0230 N   0  0  1  0  0  0  0  0  0  0  0  0
  188.1650  174.1480  140.5900 C   0  0  0  0  0  2  0  0  0  0  0  0
  187.9780  175.6510  140.7800 C   0  0  0  0  0  2  0  0  0  0  0  0
  188.8030  176.0780  143.1690 C   0  0  2  0  0  0  0  0  0  0  0  0
  189.0030  177.4900  143.6750 C   0  0  1  0  0  3  0  0  0  0  0  0
  189.2340  172.4620  141.8720 O   0  0  0  0  0  0  0  0  0  0  0  0
  189.2480  173.6270  141.4910 C   0  0  0  0  0  0  0  0  0  0  0  0
  189.3140  175.8560  145.6870 C   0  0  0  0  0  2  0  0  0  0  0  0
  188.9410  176.4120  147.0530 C   0  0  0  0  0  2  0  0  0  0  0  0
  188.2990  177.6820  146.9220 O   0  0  0  0  0  0  0  0  0  0  0  0
  187.0570  177.9720  147.4950 C   0  0  0  0  0  0  0  0  0  0  0  0
  186.8360  179.0940  148.0380 O   0  0  0  0  0  0  0  0  0  0  0  0
  186.0440  177.0140  147.5030 O   0  0  0  0  0  0  0  0  0  0  0  0
  185.1370  176.9220  146.4210 C   0  0  0  0  0  2  0  0  0  0  0  0
  184.1890  178.0710  146.4550 C   0  0  0  0  0  3  0  0  0  0  0  0
  184.0360  178.9570  145.4590 C   0  0  0  0  0  3  0  0  0  0  0  0
  184.7060  178.9040  144.1900 N   0  0  0  0  0  0  0  0  0  0  0  0
  185.8400  179.7990  143.9860 C   0  0  0  0  0  1  0  0  0  0  0  0
  184.1170  178.2920  143.0090 C   0  0  0  0  0  1  0  0  0  0  0  0
  1  3  2  0  0  0  0
  2  9  2  0  0  0  0
  3 32  1  0  0  0  0
  4  8  1  0  0  0  0
  4 11  1  1  0  0  0
  5  6  1  0  0  0  0
  5  7  1  0  0  0  0
  5 30  1  1  0  0  0
  6  4  1  0  0  0  0
  8  7  1  6  0  0  0
  8  2  1  0  0  0  0
  8  1  1  0  0  0  0
  9 10  1  0  0  0  0
 10  3  1  0  0  0  0
 11 12  2  6  0  0  0
 11 13  1  0  0  0  0
 11 14  1  0  0  0  0
 14 15  1  0  0  0  0
 15 16  2  0  0  0  0
 15 18  1  0  0  0  0
 17 15  2  0  0  0  0
 18 24  1  0  0  0  0
 19 28  1  6  0  0  0
 20 18  1  0  0  0  0
 20 21  2  0  0  0  0
 21 23  1  0  0  0  0
 23 26  1  0  0  0  0
 24 22  1  0  0  0  0
 24 23  2  0  0  0  0
 25 22  1  0  0  0  0
 25 19  1  0  0  0  0
 26 19  1  0  0  0  0
 27 28  1  0  0  0  0
 28 29  2  0  0  0  0
 31 30  2  0  0  0  0
 33 45  1  1  0  0  0
 35 32  1  1  0  0  0
 35 38  1  0  0  0  0
 36 34  1  0  0  0  0
 38 36  1  6  0  0  0
 38 41  1  0  0  0  0
 39 40  1  0  0  0  0
 39 44  1  0  0  0  0
 40 37  1  0  0  0  0
 41 37  1  6  0  0  0
 41 42  1  0  0  0  0
 41 33  1  0  0  0  0
 42 34  1  1  0  0  0
 42 33  1  0  0  0  0
 44 35  1  0  0  0  0
 44 43  2  0  0  0  0
 45 46  1  0  0  0  0
 47 46  1  0  0  0  0
 47 48  1  0  0  0  0
 48 50  1  0  0  0  0
 48 49  2  0  0  0  0
 51 52  1  0  0  0  0
 51 50  1  0  0  0  0
 53 52  2  0  0  0  0
 54 53  1  0  0  0  0
 55 54  1  0  0  0  0
 56 54  1  0  0  0  0
M  END
>  <MODEL>
5

>  <REMARK>
 VINA RESULT:      -6.4      1.564      2.037
  Name = 
  16 active torsions:
  status: ('A' for Active; 'I' for Inactive)
    1  A    between atoms: C_1  and  C_25
    2  A    between atoms: S_2  and  N_3
    3  A    between atoms: S_2  and  N_6
    4  A    between atoms: C_4  and  C_41
    5  A    between atoms: N_6  and  P_10
    6  A    between atoms: C_7  and  O_56
    7  A    between atoms: C_9  and  C_25
    8  A    between atoms: C_9  and  O_31
    9  A    between atoms: P_10  and  C_18
   10  A    between atoms: N_12  and  C_16
   11  A    between atoms: C_15  and  C_54
   12  A    between atoms: C_17  and  O_56
   13  A    between atoms: C_21  and  C_23
   14  A    between atoms: C_29  and  O_31
   15  A    between atoms: C_29  and  O_37
   16  A    between atoms: O_37  and  C_54
                            x       y       z     vdW  Elec       q    Type
                         _______ _______ _______ _____ _____    ______ ____

>  <TORSDO>
F 16

$$$$
=
 OpenBabel11072408303D

 56 62  0  0  1  0  0  0  0  0999 V2000
  194.7430  173.3210  140.8320 C   0  0  0  0  0  3  0  0  0  0  0  0
  195.1790  170.9000  140.6080 C   0  0  0  0  0  3  0  0  0  0  0  0
  193.9080  173.1160  141.8570 C   0  0  0  0  0  0  0  0  0  0  0  0
  196.3860  172.4610  139.0310 C   0  0  1  0  0  3  0  0  0  0  0  0
  197.8980  173.4120  140.6610 C   0  0  2  0  0  3  0  0  0  0  0  0
  197.8210  172.9260  139.2260 C   0  0  0  0  0  2  0  0  0  0  0  0
  196.9380  172.4970  141.4080 C   0  0  0  0  0  2  0  0  0  0  0  0
  195.7690  172.2810  140.4450 C   0  0  1  0  0  0  0  0  0  0  0  0
  194.2730  170.6550  141.5760 C   0  0  0  0  0  3  0  0  0  0  0  0
  193.8800  171.7540  142.5310 C   0  0  0  0  0  2  0  0  0  0  0  0
  195.5160  173.5880  137.8760 P   0  0  2  0  0  0  0  0  0  0  0  0
  196.3460  173.7840  136.6300 O   0  0  0  0  0  0  0  0  0  0  0  0
  195.2730  175.0860  138.6180 O   0  0  0  0  0  1  0  0  0  0  0  0
  193.9640  172.8720  137.4430 N   0  0  0  0  0  2  0  0  0  0  0  0
  193.1200  173.9160  136.3260 S   0  0  0  0  0  0  0  0  0  0  0  0
  193.4920  173.5440  134.9060 O   0  0  0  0  0  0  0  0  0  0  0  0
  193.4770  175.3670  136.5220 O   0  0  0  0  0  0  0  0  0  0  0  0
  191.4140  173.7340  136.5460 N   0  0  0  0  0  0  0  0  0  0  0  0
  189.3110  172.9190  140.1790 C   0  0  2  0  0  3  0  0  0  0  0  0
  190.4210  174.5080  135.7980 C   0  0  0  0  0  3  0  0  0  0  0  0
  189.2140  174.4850  136.6200 N   0  0  0  0  0  0  0  0  0  0  0  0
  191.5100  172.7620  138.9450 C   0  0  0  0  0  2  0  0  0  0  0  0
  189.5520  173.7890  137.8120 C   0  0  0  0  0  0  0  0  0  0  0  0
  190.8140  173.4080  137.7840 C   0  0  0  0  0  0  0  0  0  0  0  0
  190.8340  173.1580  140.2570 C   0  0  0  0  0  2  0  0  0  0  0  0
  188.7000  173.7620  139.0480 C   0  0  0  0  0  2  0  0  0  0  0  0
  188.7080  172.2900  142.5800 N   0  0  0  0  0  1  0  0  0  0  0  0
  188.6500  173.2230  141.5050 C   0  0  0  0  0  0  0  0  0  0  0  0
  188.0760  174.7220  141.8050 S   0  0  0  0  0  0  0  0  0  0  0  0
  197.4940  174.8690  140.7710 C   0  0  0  0  0  3  0  0  0  0  0  0
  197.9330  175.6010  141.7910 C   0  0  0  0  0  2  0  0  0  0  0  0
  193.2600  174.2320  142.4140 O   0  0  0  0  0  0  0  0  0  0  0  0
  190.8670  176.7000  145.8410 C   0  0  2  0  0  3  0  0  0  0  0  0
  190.2980  174.1640  145.6010 C   0  0  0  0  0  2  0  0  0  0  0  0
  193.4300  174.6460  143.7740 C   0  0  2  0  0  3  0  0  0  0  0  0
  191.3500  173.8450  144.5490 C   0  0  0  0  0  2  0  0  0  0  0  0
  193.2950  176.2150  146.4680 C   0  0  0  0  0  2  0  0  0  0  0  0
  192.1340  175.0630  144.3450 N   0  0  1  0  0  0  0  0  0  0  0  0
  195.3300  175.7250  145.1750 C   0  0  0  0  0  2  0  0  0  0  0  0
  194.4860  175.2820  146.3680 C   0  0  0  0  0  2  0  0  0  0  0  0
  192.0800  175.7820  145.6410 C   0  0  2  0  0  0  0  0  0  0  0  0
  190.9080  175.2730  146.4520 C   0  0  1  0  0  3  0  0  0  0  0  0
  194.7990  176.4100  142.9660 O   0  0  0  0  0  0  0  0  0  0  0  0
  194.5290  175.6700  143.9050 C   0  0  0  0  0  0  0  0  0  0  0  0
  189.9830  176.8660  144.6020 C   0  0  0  0  0  2  0  0  0  0  0  0
  188.6790  177.5610  144.9650 C   0  0  0  0  0  2  0  0  0  0  0  0
  187.6490  176.6010  145.2140 O   0  0  0  0  0  0  0  0  0  0  0  0
  186.6250  176.8050  146.1450 C   0  0  0  0  0  0  0  0  0  0  0  0
  186.8750  176.8610  147.3850 O   0  0  0  0  0  0  0  0  0  0  0  0
  185.3020  176.9210  145.7230 O   0  0  0  0  0  0  0  0  0  0  0  0
  184.5880  178.1250  145.9300 C   0  0  0  0  0  2  0  0  0  0  0  0
  185.3350  179.2680  145.3340 C   0  0  0  0  0  3  0  0  0  0  0  0
  185.5160  179.4510  144.0180 C   0  0  0  0  0  3  0  0  0  0  0  0
  184.9700  178.6210  142.9800 N   0  0  0  0  0  0  0  0  0  0  0  0
  183.5270  178.6650  142.7680 C   0  0  0  0  0  1  0  0  0  0  0  0
  185.6980  177.5080  142.3930 C   0  0  0  0  0  1  0  0  0  0  0  0
  1  3  2  0  0  0  0
  2  9  2  0  0  0  0
  3 32  1  0  0  0  0
  3 10  1  0  0  0  0
  4 11  1  6  0  0  0
  4  6  1  0  0  0  0
  4  8  1  0  0  0  0
  5 30  1  6  0  0  0
  5  7  1  0  0  0  0
  6  5  1  0  0  0  0
  8  2  1  1  0  0  0
  8  1  1  0  0  0  0
  8  7  1  0  0  0  0
  9 10  1  0  0  0  0
 11 12  2  6  0  0  0
 11 13  1  0  0  0  0
 14 11  1  0  0  0  0
 15 17  2  0  0  0  0
 15 18  1  0  0  0  0
 15 14  1  0  0  0  0
 16 15  2  0  0  0  0
 18 24  1  0  0  0  0
 19 25  1  0  0  0  0
 19 28  1  1  0  0  0
 20 18  1  0  0  0  0
 20 21  2  0  0  0  0
 21 23  1  0  0  0  0
 22 25  1  0  0  0  0
 23 26  1  0  0  0  0
 24 23  2  0  0  0  0
 24 22  1  0  0  0  0
 26 19  1  0  0  0  0
 28 29  2  0  0  0  0
 28 27  1  0  0  0  0
 30 31  2  0  0  0  0
 33 45  1  6  0  0  0
 33 42  1  0  0  0  0
 35 32  1  6  0  0  0
 35 44  1  0  0  0  0
 35 38  1  0  0  0  0
 36 34  1  0  0  0  0
 38 36  1  1  0  0  0
 38 41  1  0  0  0  0
 39 40  1  0  0  0  0
 40 37  1  0  0  0  0
 41 33  1  0  0  0  0
 41 42  1  0  0  0  0
 41 37  1  1  0  0  0
 42 34  1  6  0  0  0
 43 44  2  0  0  0  0
 44 39  1  0  0  0  0
 45 46  1  0  0  0  0
 46 47  1  0  0  0  0
 47 48  1  0  0  0  0
 48 49  2  0  0  0  0
 50 51  1  0  0  0  0
 50 48  1  0  0  0  0
 52 51  1  0  0  0  0
 53 52  2  0  0  0  0
 54 53  1  0  0  0  0
 55 54  1  0  0  0  0
 56 54  1  0  0  0  0
M  END
>  <MODEL>
6

>  <REMARK>
 VINA RESULT:      -6.3      3.025      5.590
  Name = 
  16 active torsions:
  status: ('A' for Active; 'I' for Inactive)
    1  A    between atoms: C_1  and  C_25
    2  A    between atoms: S_2  and  N_3
    3  A    between atoms: S_2  and  N_6
    4  A    between atoms: C_4  and  C_41
    5  A    between atoms: N_6  and  P_10
    6  A    between atoms: C_7  and  O_56
    7  A    between atoms: C_9  and  C_25
    8  A    between atoms: C_9  and  O_31
    9  A    between atoms: P_10  and  C_18
   10  A    between atoms: N_12  and  C_16
   11  A    between atoms: C_15  and  C_54
   12  A    between atoms: C_17  and  O_56
   13  A    between atoms: C_21  and  C_23
   14  A    between atoms: C_29  and  O_31
   15  A    between atoms: C_29  and  O_37
   16  A    between atoms: O_37  and  C_54
                            x       y       z     vdW  Elec       q    Type
                         _______ _______ _______ _____ _____    ______ ____

>  <TORSDO>
F 16

$$$$
=
 OpenBabel11072408303D

 56 62  0  0  1  0  0  0  0  0999 V2000
  190.3710  173.8640  140.9140 C   0  0  0  0  0  3  0  0  0  0  0  0
  189.8830  173.2670  138.5670 C   0  0  0  0  0  3  0  0  0  0  0  0
  189.2560  174.6010  141.0000 C   0  0  0  0  0  0  0  0  0  0  0  0
  191.9710  172.3060  139.6140 C   0  0  1  0  0  3  0  0  0  0  0  0
  190.8650  170.7480  141.0960 C   0  0  2  0  0  3  0  0  0  0  0  0
  192.0680  170.8990  140.1840 C   0  0  0  0  0  2  0  0  0  0  0  0
  189.7850  171.5760  140.4160 C   0  0  0  0  0  2  0  0  0  0  0  0
  190.5180  172.7970  139.8550 C   0  0  1  0  0  0  0  0  0  0  0  0
  188.8030  174.0750  138.5940 C   0  0  0  0  0  3  0  0  0  0  0  0
  188.1980  174.4740  139.9170 C   0  0  0  0  0  2  0  0  0  0  0  0
  193.3270  173.3450  140.2820 P   0  0  2  0  0  0  0  0  0  0  0  0
  192.7480  174.4980  141.0660 O   0  0  0  0  0  1  0  0  0  0  0  0
  194.2550  173.9550  139.0100 O   0  0  0  0  0  0  0  0  0  0  0  0
  194.3310  172.3570  141.3420 N   0  0  0  0  0  2  0  0  0  0  0  0
  195.9830  172.9230  141.2910 S   0  0  0  0  0  0  0  0  0  0  0  0
  196.0910  174.2370  142.0350 O   0  0  0  0  0  0  0  0  0  0  0  0
  196.4600  173.1610  139.8810 O   0  0  0  0  0  0  0  0  0  0  0  0
  197.0150  171.7490  142.0300 N   0  0  0  0  0  0  0  0  0  0  0  0
  196.6870  170.0620  145.9460 C   0  0  2  0  0  3  0  0  0  0  0  0
  197.6440  170.6530  141.2890 C   0  0  0  0  0  3  0  0  0  0  0  0
  197.9380  169.6290  142.2890 N   0  0  0  0  0  0  0  0  0  0  0  0
  196.1080  172.0080  144.4420 C   0  0  0  0  0  2  0  0  0  0  0  0
  197.4210  170.1100  143.5220 C   0  0  0  0  0  0  0  0  0  0  0  0
  196.8560  171.2910  143.3580 C   0  0  0  0  0  0  0  0  0  0  0  0
  195.5670  171.0090  145.4650 C   0  0  0  0  0  2  0  0  0  0  0  0
  197.2600  169.2730  144.7580 C   0  0  0  0  0  2  0  0  0  0  0  0
  197.0680  168.5740  147.9870 N   0  0  0  0  0  1  0  0  0  0  0  0
  196.1780  169.1310  147.0240 C   0  0  0  0  0  0  0  0  0  0  0  0
  194.5710  168.9480  147.2520 S   0  0  0  0  0  0  0  0  0  0  0  0
  191.1690  171.2500  142.4940 C   0  0  0  0  0  3  0  0  0  0  0  0
  191.8800  170.4960  143.3260 C   0  0  0  0  0  2  0  0  0  0  0  0
  189.0090  175.2840  142.2020 O   0  0  0  0  0  0  0  0  0  0  0  0
  189.6130  176.2200  146.9270 C   0  0  2  0  0  3  0  0  0  0  0  0
  189.8170  173.7270  146.1850 C   0  0  0  0  0  2  0  0  0  0  0  0
  190.0420  175.6910  143.1070 C   0  0  2  0  0  3  0  0  0  0  0  0
  189.6880  173.9750  144.6890 C   0  0  0  0  0  2  0  0  0  0  0  0
  191.6110  176.9290  145.5030 C   0  0  0  0  0  2  0  0  0  0  0  0
  189.6320  175.4250  144.5000 N   0  0  1  0  0  0  0  0  0  0  0  0
  191.9010  177.5020  143.1280 C   0  0  0  0  0  2  0  0  0  0  0  0
  192.4710  176.6780  144.2790 C   0  0  0  0  0  2  0  0  0  0  0  0
  190.4030  175.9950  145.6310 C   0  0  2  0  0  0  0  0  0  0  0  0
  190.5100  174.9680  146.7370 C   0  0  1  0  0  3  0  0  0  0  0  0
  189.6960  177.9150  142.3520 O   0  0  0  0  0  0  0  0  0  0  0  0
  190.4790  177.1090  142.8430 C   0  0  0  0  0  0  0  0  0  0  0  0
  188.1060  175.9820  146.8030 C   0  0  0  0  0  2  0  0  0  0  0  0
  187.3610  177.3040  146.6970 C   0  0  0  0  0  2  0  0  0  0  0  0
  185.9940  177.0850  146.3400 O   0  0  0  0  0  0  0  0  0  0  0  0
  185.0460  178.1110  146.2880 C   0  0  0  0  0  0  0  0  0  0  0  0
  183.8600  177.9220  146.6890 O   0  0  0  0  0  0  0  0  0  0  0  0
  185.3840  179.3580  145.7640 O   0  0  0  0  0  0  0  0  0  0  0  0
  185.6280  179.5090  144.3790 C   0  0  0  0  0  2  0  0  0  0  0  0
  184.4560  179.0200  143.6000 C   0  0  0  0  0  3  0  0  0  0  0  0
  184.5200  178.0790  142.6470 C   0  0  0  0  0  3  0  0  0  0  0  0
  185.7020  177.3540  142.2720 N   0  0  0  0  0  0  0  0  0  0  0  0
  186.1460  177.4550  140.8850 C   0  0  0  0  0  1  0  0  0  0  0  0
  186.2560  176.2740  143.0730 C   0  0  0  0  0  1  0  0  0  0  0  0
  1  3  2  0  0  0  0
  2  9  2  0  0  0  0
  3 32  1  0  0  0  0
  4  8  1  0  0  0  0
  4  6  1  0  0  0  0
  4 11  1  1  0  0  0
  5 30  1  1  0  0  0
  6  5  1  0  0  0  0
  7  5  1  0  0  0  0
  8  2  1  6  0  0  0
  8  7  1  0  0  0  0
  8  1  1  0  0  0  0
  9 10  1  0  0  0  0
 10  3  1  0  0  0  0
 11 13  2  6  0  0  0
 11 12  1  0  0  0  0
 11 14  1  0  0  0  0
 15 14  1  0  0  0  0
 15 18  1  0  0  0  0
 15 16  2  0  0  0  0
 17 15  2  0  0  0  0
 18 24  1  0  0  0  0
 19 28  1  1  0  0  0
 20 18  1  0  0  0  0
 20 21  2  0  0  0  0
 21 23  1  0  0  0  0
 22 25  1  0  0  0  0
 23 26  1  0  0  0  0
 24 23  2  0  0  0  0
 24 22  1  0  0  0  0
 25 19  1  0  0  0  0
 26 19  1  0  0  0  0
 28 29  2  0  0  0  0
 28 27  1  0  0  0  0
 30 31  2  0  0  0  0
 33 45  1  6  0  0  0
 35 32  1  6  0  0  0
 35 38  1  0  0  0  0
 36 34  1  0  0  0  0
 38 36  1  1  0  0  0
 38 41  1  0  0  0  0
 39 40  1  0  0  0  0
 40 37  1  0  0  0  0
 41 37  1  6  0  0  0
 41 42  1  0  0  0  0
 41 33  1  0  0  0  0
 42 34  1  6  0  0  0
 42 33  1  0  0  0  0
 43 44  2  0  0  0  0
 44 35  1  0  0  0  0
 44 39  1  0  0  0  0
 46 45  1  0  0  0  0
 47 46  1  0  0  0  0
 48 47  1  0  0  0  0
 48 49  2  0  0  0  0
 50 48  1  0  0  0  0
 51 50  1  0  0  0  0
 52 51  1  0  0  0  0
 53 52  2  0  0  0  0
 54 53  1  0  0  0  0
 54 56  1  0  0  0  0
 55 54  1  0  0  0  0
M  END
>  <MODEL>
7

>  <REMARK>
 VINA RESULT:      -6.3      2.738      4.410
  Name = 
  16 active torsions:
  status: ('A' for Active; 'I' for Inactive)
    1  A    between atoms: C_1  and  C_25
    2  A    between atoms: S_2  and  N_3
    3  A    between atoms: S_2  and  N_6
    4  A    between atoms: C_4  and  C_41
    5  A    between atoms: N_6  and  P_10
    6  A    between atoms: C_7  and  O_56
    7  A    between atoms: C_9  and  C_25
    8  A    between atoms: C_9  and  O_31
    9  A    between atoms: P_10  and  C_18
   10  A    between atoms: N_12  and  C_16
   11  A    between atoms: C_15  and  C_54
   12  A    between atoms: C_17  and  O_56
   13  A    between atoms: C_21  and  C_23
   14  A    between atoms: C_29  and  O_31
   15  A    between atoms: C_29  and  O_37
   16  A    between atoms: O_37  and  C_54
                            x       y       z     vdW  Elec       q    Type
                         _______ _______ _______ _____ _____    ______ ____

>  <TORSDO>
F 16

$$$$
=
 OpenBabel11072408303D

 56 62  0  0  1  0  0  0  0  0999 V2000
  194.7130  174.4340  142.4870 C   0  0  0  0  0  3  0  0  0  0  0  0
  196.2170  176.3910  142.5770 C   0  0  0  0  0  3  0  0  0  0  0  0
  194.5580  174.5640  141.1630 C   0  0  0  0  0  0  0  0  0  0  0  0
  195.7500  175.1690  144.7370 C   0  0  1  0  0  3  0  0  0  0  0  0
  197.0310  173.1820  144.2320 C   0  0  2  0  0  3  0  0  0  0  0  0
  196.6860  174.1420  145.3550 C   0  0  0  0  0  2  0  0  0  0  0  0
  197.0440  174.0610  142.9910 C   0  0  0  0  0  2  0  0  0  0  0  0
  195.8950  175.0510  143.1960 C   0  0  1  0  0  0  0  0  0  0  0  0
  196.0080  176.6030  141.2620 C   0  0  0  0  0  3  0  0  0  0  0  0
  195.4930  175.4820  140.3940 C   0  0  0  0  0  2  0  0  0  0  0  0
  194.0640  174.9750  145.4350 P   0  0  2  0  0  0  0  0  0  0  0  0
  194.0070  175.5940  146.8110 O   0  0  0  0  0  1  0  0  0  0  0  0
  193.6840  173.3340  145.5530 O   0  0  0  0  0  0  0  0  0  0  0  0
  192.9130  175.7870  144.3750 N   0  0  0  0  0  2  0  0  0  0  0  0
  191.3650  175.9180  145.1720 S   0  0  0  0  0  0  0  0  0  0  0  0
  191.4590  176.9260  146.2990 O   0  0  0  0  0  0  0  0  0  0  0  0
  190.9190  174.6090  145.7710 O   0  0  0  0  0  0  0  0  0  0  0  0
  190.1730  176.4340  144.0290 N   0  0  0  0  0  0  0  0  0  0  0  0
  186.1310  177.5980  144.7970 C   0  0  2  0  0  3  0  0  0  0  0  0
  190.4920  177.2370  142.8450 C   0  0  0  0  0  3  0  0  0  0  0  0
  189.2430  177.9030  142.4830 N   0  0  0  0  0  0  0  0  0  0  0  0
  188.1320  176.2910  145.6170 C   0  0  0  0  0  2  0  0  0  0  0  0
  188.2910  177.5410  143.4750 C   0  0  0  0  0  0  0  0  0  0  0  0
  188.8390  176.7470  144.3740 C   0  0  0  0  0  0  0  0  0  0  0  0
  187.0420  177.2900  146.0040 C   0  0  0  0  0  2  0  0  0  0  0  0
  186.9560  178.2060  143.6520 C   0  0  0  0  0  2  0  0  0  0  0  0
  184.4250  179.4220  144.2600 N   0  0  0  0  0  1  0  0  0  0  0  0
  184.9970  178.5150  145.1980 C   0  0  0  0  0  0  0  0  0  0  0  0
  184.2490  178.3060  146.6340 S   0  0  0  0  0  0  0  0  0  0  0  0
  196.0080  172.0680  144.1280 C   0  0  0  0  0  3  0  0  0  0  0  0
  196.2040  171.0690  143.2730 C   0  0  0  0  0  2  0  0  0  0  0  0
  193.6910  173.6720  140.5100 O   0  0  0  0  0  0  0  0  0  0  0  0
  191.1100  169.6740  139.5520 C   0  0  2  0  0  3  0  0  0  0  0  0
  193.6690  169.3560  139.9550 C   0  0  0  0  0  2  0  0  0  0  0  0
  192.8870  172.7070  141.1970 C   0  0  2  0  0  3  0  0  0  0  0  0
  193.9720  170.8010  140.3250 C   0  0  0  0  0  2  0  0  0  0  0  0
  190.7310  170.5680  141.9150 C   0  0  0  0  0  2  0  0  0  0  0  0
  192.6930  171.5110  140.3520 N   0  0  1  0  0  0  0  0  0  0  0  0
  190.9930  172.7750  142.9700 C   0  0  0  0  0  2  0  0  0  0  0  0
  191.2990  171.2870  143.1230 C   0  0  0  0  0  2  0  0  0  0  0  0
  191.6860  170.4870  140.7190 C   0  0  2  0  0  0  0  0  0  0  0  0
  192.2470  169.1080  140.4460 C   0  0  1  0  0  3  0  0  0  0  0  0
  191.1150  174.2860  141.1450 O   0  0  0  0  0  0  0  0  0  0  0  0
  191.6110  173.3200  141.7140 C   0  0  0  0  0  0  0  0  0  0  0  0
  191.5370  170.1600  138.1650 C   0  0  0  0  0  2  0  0  0  0  0  0
  190.3200  170.5000  137.3180 C   0  0  0  0  0  2  0  0  0  0  0  0
  190.3020  171.8930  136.9980 O   0  0  0  0  0  0  0  0  0  0  0  0
  190.2760  172.8980  137.9690 C   0  0  0  0  0  0  0  0  0  0  0  0
  189.3560  172.9410  138.8380 O   0  0  0  0  0  0  0  0  0  0  0  0
  191.2520  173.8940  137.9800 O   0  0  0  0  0  0  0  0  0  0  0  0
  192.2580  173.9190  136.9850 C   0  0  0  0  0  2  0  0  0  0  0  0
  193.0490  175.1770  137.0950 C   0  0  0  0  0  3  0  0  0  0  0  0
  194.3740  175.2580  136.8990 C   0  0  0  0  0  3  0  0  0  0  0  0
  195.2230  174.1720  136.4950 N   0  0  0  0  0  0  0  0  0  0  0  0
  195.5200  173.1410  137.4840 C   0  0  0  0  0  1  0  0  0  0  0  0
  196.0670  174.2270  135.3120 C   0  0  0  0  0  1  0  0  0  0  0  0
  2  8  1  0  0  0  0
  3  1  2  0  0  0  0
  4  6  1  0  0  0  0
  4 11  1  6  0  0  0
  5 30  1  6  0  0  0
  5  6  1  0  0  0  0
  7  8  1  0  0  0  0
  7  5  1  0  0  0  0
  8  1  1  6  0  0  0
  8  4  1  0  0  0  0
  9  2  2  0  0  0  0
 10  3  1  0  0  0  0
 10  9  1  0  0  0  0
 11 13  2  1  0  0  0
 11 12  1  0  0  0  0
 14 15  1  0  0  0  0
 14 11  1  0  0  0  0
 15 17  2  0  0  0  0
 15 16  2  0  0  0  0
 18 24  1  0  0  0  0
 18 15  1  0  0  0  0
 19 28  1  1  0  0  0
 19 25  1  0  0  0  0
 20 18  1  0  0  0  0
 21 20  2  0  0  0  0
 21 23  1  0  0  0  0
 22 25  1  0  0  0  0
 23 26  1  0  0  0  0
 23 24  2  0  0  0  0
 24 22  1  0  0  0  0
 26 19  1  0  0  0  0
 27 28  1  0  0  0  0
 28 29  2  0  0  0  0
 31 30  2  0  0  0  0
 32  3  1  0  0  0  0
 33 45  1  6  0  0  0
 33 42  1  0  0  0  0
 33 41  1  0  0  0  0
 34 36  1  0  0  0  0
 35 32  1  6  0  0  0
 35 44  1  0  0  0  0
 37 40  1  0  0  0  0
 38 36  1  1  0  0  0
 38 41  1  0  0  0  0
 38 35  1  0  0  0  0
 39 40  1  0  0  0  0
 41 37  1  1  0  0  0
 42 34  1  6  0  0  0
 42 41  1  0  0  0  0
 43 44  2  0  0  0  0
 44 39  1  0  0  0  0
 46 45  1  0  0  0  0
 47 46  1  0  0  0  0
 47 48  1  0  0  0  0
 48 50  1  0  0  0  0
 48 49  2  0  0  0  0
 51 52  1  0  0  0  0
 51 50  1  0  0  0  0
 53 52  2  0  0  0  0
 54 53  1  0  0  0  0
 54 55  1  0  0  0  0
 56 54  1  0  0  0  0
M  END
>  <MODEL>
8

>  <REMARK>
 VINA RESULT:      -6.3      2.962      8.126
  Name = 
  16 active torsions:
  status: ('A' for Active; 'I' for Inactive)
    1  A    between atoms: C_1  and  C_25
    2  A    between atoms: S_2  and  N_3
    3  A    between atoms: S_2  and  N_6
    4  A    between atoms: C_4  and  C_41
    5  A    between atoms: N_6  and  P_10
    6  A    between atoms: C_7  and  O_56
    7  A    between atoms: C_9  and  C_25
    8  A    between atoms: C_9  and  O_31
    9  A    between atoms: P_10  and  C_18
   10  A    between atoms: N_12  and  C_16
   11  A    between atoms: C_15  and  C_54
   12  A    between atoms: C_17  and  O_56
   13  A    between atoms: C_21  and  C_23
   14  A    between atoms: C_29  and  O_31
   15  A    between atoms: C_29  and  O_37
   16  A    between atoms: O_37  and  C_54
                            x       y       z     vdW  Elec       q    Type
                         _______ _______ _______ _____ _____    ______ ____

>  <TORSDO>
F 16

$$$$
=
 OpenBabel11072408303D

 56 62  0  0  1  0  0  0  0  0999 V2000
  195.4400  174.2590  142.5840 C   0  0  0  0  0  3  0  0  0  0  0  0
  196.4650  176.4610  143.0320 C   0  0  0  0  0  3  0  0  0  0  0  0
  195.6360  174.3910  141.2660 C   0  0  0  0  0  0  0  0  0  0  0  0
  195.6580  175.1180  145.0120 C   0  0  1  0  0  3  0  0  0  0  0  0
  197.3790  173.4210  144.9350 C   0  0  2  0  0  3  0  0  0  0  0  0
  196.5640  174.2700  145.8920 C   0  0  0  0  0  2  0  0  0  0  0  0
  197.5690  174.3190  143.7220 C   0  0  0  0  0  2  0  0  0  0  0  0
  196.2430  175.0690  143.5740 C   0  0  1  0  0  0  0  0  0  0  0  0
  196.5910  176.6640  141.7040 C   0  0  0  0  0  3  0  0  0  0  0  0
  196.5560  175.4880  140.7600 C   0  0  0  0  0  2  0  0  0  0  0  0
  193.9130  174.5920  145.2230 P   0  0  2  0  0  0  0  0  0  0  0  0
  193.5600  174.5730  146.6910 O   0  0  0  0  0  1  0  0  0  0  0  0
  193.7060  173.0420  144.5860 O   0  0  0  0  0  0  0  0  0  0  0  0
  192.8690  175.7350  144.3790 N   0  0  0  0  0  2  0  0  0  0  0  0
  191.2720  175.7120  145.0870 S   0  0  0  0  0  0  0  0  0  0  0  0
  191.2560  176.5780  146.3290 O   0  0  0  0  0  0  0  0  0  0  0  0
  190.8510  174.3240  145.4970 O   0  0  0  0  0  0  0  0  0  0  0  0
  190.1280  176.3180  143.9400 N   0  0  0  0  0  0  0  0  0  0  0  0
  186.1460  177.6890  144.6810 C   0  0  2  0  0  3  0  0  0  0  0  0
  190.5080  177.1270  142.7790 C   0  0  0  0  0  3  0  0  0  0  0  0
  189.3030  177.8690  142.4150 N   0  0  0  0  0  0  0  0  0  0  0  0
  188.0600  176.2560  145.4980 C   0  0  0  0  0  2  0  0  0  0  0  0
  188.3180  177.5400  143.3860 C   0  0  0  0  0  0  0  0  0  0  0  0
  188.8080  176.6980  144.2750 C   0  0  0  0  0  0  0  0  0  0  0  0
  187.0210  177.3050  145.8930 C   0  0  0  0  0  2  0  0  0  0  0  0
  187.0200  178.2750  143.5600 C   0  0  0  0  0  2  0  0  0  0  0  0
  184.6930  179.7430  144.2370 N   0  0  0  0  0  1  0  0  0  0  0  0
  185.0600  178.6600  145.0880 C   0  0  0  0  0  0  0  0  0  0  0  0
  184.1240  178.3390  146.3860 S   0  0  0  0  0  0  0  0  0  0  0  0
  196.6530  172.1370  144.5840 C   0  0  0  0  0  3  0  0  0  0  0  0
  197.2370  171.2440  143.7910 C   0  0  0  0  0  2  0  0  0  0  0  0
  195.1660  173.3690  140.4240 O   0  0  0  0  0  0  0  0  0  0  0  0
  192.8690  172.8620  136.1780 C   0  0  2  0  0  3  0  0  0  0  0  0
  193.0410  175.2810  137.1430 C   0  0  0  0  0  2  0  0  0  0  0  0
  195.4690  173.2960  139.0270 C   0  0  2  0  0  3  0  0  0  0  0  0
  193.9130  174.9330  138.3410 C   0  0  0  0  0  2  0  0  0  0  0  0
  195.4060  172.6380  135.9770 C   0  0  0  0  0  2  0  0  0  0  0  0
  194.2450  173.5120  138.2290 N   0  0  1  0  0  0  0  0  0  0  0  0
  197.2000  172.0450  137.5520 C   0  0  0  0  0  2  0  0  0  0  0  0
  196.7760  173.0470  136.4820 C   0  0  0  0  0  2  0  0  0  0  0  0
  194.2360  173.2240  136.7740 C   0  0  2  0  0  0  0  0  0  0  0  0
  193.4500  174.2970  136.0520 C   0  0  1  0  0  3  0  0  0  0  0  0
  196.0690  171.0250  139.3720 O   0  0  0  0  0  0  0  0  0  0  0  0
  196.2190  172.0320  138.6900 C   0  0  0  0  0  0  0  0  0  0  0  0
  191.7510  172.6860  137.2080 C   0  0  0  0  0  2  0  0  0  0  0  0
  190.4100  172.4960  136.5160 C   0  0  0  0  0  2  0  0  0  0  0  0
  189.3570  172.3920  137.4770 O   0  0  0  0  0  0  0  0  0  0  0  0
  188.6830  173.5040  137.9930 C   0  0  0  0  0  0  0  0  0  0  0  0
  188.5220  174.5480  137.2960 O   0  0  0  0  0  0  0  0  0  0  0  0
  188.2010  173.4920  139.3010 O   0  0  0  0  0  0  0  0  0  0  0  0
  188.6130  174.4820  140.2250 C   0  0  0  0  0  2  0  0  0  0  0  0
  188.5530  173.9390  141.6110 C   0  0  0  0  0  3  0  0  0  0  0  0
  189.5130  173.1910  142.1740 C   0  0  0  0  0  3  0  0  0  0  0  0
  190.7660  172.8490  141.5620 N   0  0  0  0  0  0  0  0  0  0  0  0
  191.7940  173.8830  141.5040 C   0  0  0  0  0  1  0  0  0  0  0  0
  190.9370  171.6880  140.7030 C   0  0  0  0  0  1  0  0  0  0  0  0
  2  8  1  0  0  0  0
  3  1  2  0  0  0  0
  4 11  1  6  0  0  0
  4  6  1  0  0  0  0
  5 30  1  6  0  0  0
  5  6  1  0  0  0  0
  7  5  1  0  0  0  0
  8  1  1  6  0  0  0
  8  7  1  0  0  0  0
  8  4  1  0  0  0  0
  9  2  2  0  0  0  0
 10  3  1  0  0  0  0
 10  9  1  0  0  0  0
 11 13  2  6  0  0  0
 11 12  1  0  0  0  0
 14 15  1  0  0  0  0
 14 11  1  0  0  0  0
 15 17  2  0  0  0  0
 15 16  2  0  0  0  0
 18 24  1  0  0  0  0
 18 15  1  0  0  0  0
 19 28  1  1  0  0  0
 19 25  1  0  0  0  0
 20 18  1  0  0  0  0
 21 20  2  0  0  0  0
 21 23  1  0  0  0  0
 22 25  1  0  0  0  0
 23 26  1  0  0  0  0
 23 24  2  0  0  0  0
 24 22  1  0  0  0  0
 26 19  1  0  0  0  0
 27 28  1  0  0  0  0
 28 29  2  0  0  0  0
 31 30  2  0  0  0  0
 32  3  1  0  0  0  0
 33 41  1  0  0  0  0
 33 45  1  1  0  0  0
 34 36  1  0  0  0  0
 35 32  1  1  0  0  0
 37 40  1  0  0  0  0
 38 36  1  6  0  0  0
 38 35  1  0  0  0  0
 39 44  1  0  0  0  0
 40 39  1  0  0  0  0
 41 37  1  6  0  0  0
 41 38  1  0  0  0  0
 42 33  1  0  0  0  0
 42 41  1  0  0  0  0
 42 34  1  1  0  0  0
 44 35  1  0  0  0  0
 44 43  2  0  0  0  0
 46 45  1  0  0  0  0
 46 47  1  0  0  0  0
 47 48  1  0  0  0  0
 48 50  1  0  0  0  0
 49 48  2  0  0  0  0
 50 51  1  0  0  0  0
 51 52  1  0  0  0  0
 52 53  2  0  0  0  0
 54 53  1  0  0  0  0
 55 54  1  0  0  0  0
 56 54  1  0  0  0  0
M  END
>  <MODEL>
9

>  <REMARK>
 VINA RESULT:      -6.2      2.785      7.825
  Name = 
  16 active torsions:
  status: ('A' for Active; 'I' for Inactive)
    1  A    between atoms: C_1  and  C_25
    2  A    between atoms: S_2  and  N_3
    3  A    between atoms: S_2  and  N_6
    4  A    between atoms: C_4  and  C_41
    5  A    between atoms: N_6  and  P_10
    6  A    between atoms: C_7  and  O_56
    7  A    between atoms: C_9  and  C_25
    8  A    between atoms: C_9  and  O_31
    9  A    between atoms: P_10  and  C_18
   10  A    between atoms: N_12  and  C_16
   11  A    between atoms: C_15  and  C_54
   12  A    between atoms: C_17  and  O_56
   13  A    between atoms: C_21  and  C_23
   14  A    between atoms: C_29  and  O_31
   15  A    between atoms: C_29  and  O_37
   16  A    between atoms: O_37  and  C_54
                            x       y       z     vdW  Elec       q    Type
                         _______ _______ _______ _____ _____    ______ ____

>  <TORSDO>
F 16

$$$$
