=
 OpenBabel11062419153D

 50 55  0  0  1  0  0  0  0  0999 V2000
  189.8770  174.7190  144.4480 C   0  0  1  0  0  3  0  0  0  0  0  0
  191.2330  174.8220  141.2080 F   0  0  0  0  0  0  0  0  0  0  0  0
  190.0270  171.8720  144.8500 O   0  0  0  0  0  0  0  0  0  0  0  0
  194.6740  174.1500  142.2570 C   0  0  0  0  0  2  0  0  0  0  0  0
  194.2380  172.9860  142.9770 O   0  0  0  0  0  0  0  0  0  0  0  0
  192.2510  175.1070  142.0990 C   0  0  2  0  0  0  0  0  0  0  0  0
  190.9290  172.4540  144.1910 C   0  0  0  0  0  0  0  0  0  0  0  0
  192.1460  176.4370  142.5080 O   0  0  0  0  0  1  0  0  0  0  0  0
  192.2300  171.8190  143.8450 C   0  0  2  0  0  3  0  0  0  0  0  0
  190.8410  173.8200  143.8020 N   0  0  0  0  0  0  0  0  0  0  0  0
  192.8330  172.8750  142.9360 C   0  0  1  0  0  3  0  0  0  0  0  0
  193.6070  174.8780  141.3800 C   0  0  1  0  0  3  0  0  0  0  0  0
  194.1260  176.0520  140.8570 F   0  0  0  0  0  0  0  0  0  0  0  0
  192.1690  174.1890  143.3240 C   0  0  1  0  0  3  0  0  0  0  0  0
  192.0120  170.4930  143.1700 C   0  0  0  0  0  0  0  0  0  0  0  0
  191.2640  170.3390  141.9590 N   0  0  0  0  0  2  0  0  0  0  0  0
  192.4060  169.4580  143.7630 O   0  0  0  0  0  0  0  0  0  0  0  0
  190.3890  170.7420  139.7690 C   0  0  2  0  0  3  0  0  0  0  0  0
  189.8690  171.8560  140.6580 C   0  0  0  0  0  2  0  0  0  0  0  0
  191.2680  171.3020  140.8740 C   0  0  1  0  0  3  0  0  0  0  0  0
  190.8260  170.5750  136.0820 C   0  0  0  0  0  2  0  0  0  0  0  0
  190.7830  171.2320  138.3650 C   0  0  1  0  0  3  0  0  0  0  0  0
  192.1890  171.0390  138.0180 N   0  0  0  0  0  2  0  0  0  0  0  0
  189.9700  170.5100  137.3220 C   0  0  0  0  0  2  0  0  0  0  0  0
  192.2110  170.9800  136.5590 C   0  0  0  0  0  2  0  0  0  0  0  0
  190.8810  174.6330  146.8000 C   0  0  0  0  0  2  0  0  0  0  0  0
  189.6570  175.5320  146.8970 C   0  0  0  0  0  2  0  0  0  0  0  0
  190.4860  175.5060  145.6270 C   0  0  0  0  0  0  0  0  0  0  0  0
  191.4660  176.6620  145.4220 C   0  0  0  0  0  2  0  0  0  0  0  0
  192.7940  176.4260  146.1290 C   0  0  0  0  0  2  0  0  0  0  0  0
  193.9020  177.2090  145.4550 C   0  0  0  0  0  2  0  0  0  0  0  0
  195.0290  176.2620  145.0840 C   0  0  0  0  0  2  0  0  0  0  0  0
  194.9290  174.9660  145.8830 C   0  0  0  0  0  2  0  0  0  0  0  0
  196.2360  174.1720  145.9070 C   0  0  2  0  0  3  0  0  0  0  0  0
  197.0720  174.5590  144.8570 O   0  0  0  0  0  1  0  0  0  0  0  0
  195.9720  172.7430  145.8310 N   0  0  0  0  0  2  0  0  0  0  0  0
  197.0900  172.1430  145.1220 C   0  0  0  0  0  1  0  0  0  0  0  0
  189.0610  175.5470  143.4460 C   0  0  1  0  0  3  0  0  0  0  0  0
  188.1460  175.2750  141.1330 C   0  0  0  0  0  1  0  0  0  0  0  0
  188.3130  174.6260  142.4900 C   0  0  0  0  0  2  0  0  0  0  0  0
  188.0380  176.3760  144.2090 C   0  0  0  0  0  2  0  0  0  0  0  0
  188.1100  177.8410  143.8190 C   0  0  0  0  0  2  0  0  0  0  0  0
  186.8670  178.2190  143.0130 C   0  0  0  0  0  2  0  0  0  0  0  0
  184.7320  178.2220  144.1630 N   0  0  0  0  0  0  0  0  0  0  0  0
  184.4430  177.9250  142.6860 C   0  0  0  0  0  0  0  0  0  0  0  0
  183.7320  178.0490  141.6560 O   0  0  0  0  0  0  0  0  0  0  0  0
  185.5690  177.4540  143.3530 C   0  0  1  0  0  3  0  0  0  0  0  0
  184.3880  178.8620  145.4200 C   0  0  0  0  0  2  0  0  0  0  0  0
  185.6260  178.0800  147.4570 C   0  0  0  0  0  1  0  0  0  0  0  0
  184.4250  177.8500  146.5620 C   0  0  0  0  0  2  0  0  0  0  0  0
  1 38  1  6  0  0  0
  1 28  1  0  0  0  0
  4  5  1  0  0  0  0
  6  2  1  6  0  0  0
  6  8  1  0  0  0  0
  6 14  1  0  0  0  0
  7  3  2  0  0  0  0
  9 15  1  6  0  0  0
  9  7  1  0  0  0  0
 10  7  1  0  0  0  0
 10  1  1  0  0  0  0
 11  5  1  1  0  0  0
 11 14  1  0  0  0  0
 11  9  1  0  0  0  0
 12 13  1  1  0  0  0
 12  6  1  0  0  0  0
 12  4  1  0  0  0  0
 14 10  1  6  0  0  0
 15 17  2  0  0  0  0
 16 15  1  0  0  0  0
 18 19  1  1  0  0  0
 18 20  1  0  0  0  0
 19 20  1  0  0  0  0
 20 16  1  1  0  0  0
 21 25  1  0  0  0  0
 21 24  1  0  0  0  0
 22 24  1  6  0  0  0
 22 18  1  0  0  0  0
 23 22  1  0  0  0  0
 25 23  1  0  0  0  0
 26 27  1  0  0  0  0
 28 26  1  0  0  0  0
 28 27  1  0  0  0  0
 29 28  1  0  0  0  0
 29 30  1  0  0  0  0
 31 30  1  0  0  0  0
 32 31  1  0  0  0  0
 32 33  1  0  0  0  0
 33 34  1  0  0  0  0
 34 35  1  6  0  0  0
 36 34  1  0  0  0  0
 37 36  1  0  0  0  0
 38 40  1  6  0  0  0
 38 41  1  0  0  0  0
 39 40  1  0  0  0  0
 42 41  1  0  0  0  0
 43 42  1  0  0  0  0
 44 48  1  0  0  0  0
 45 47  1  0  0  0  0
 45 44  1  0  0  0  0
 46 45  2  0  0  0  0
 47 43  1  6  0  0  0
 47 44  1  0  0  0  0
 48 50  1  0  0  0  0
 50 49  1  0  0  0  0
M  END
>  <MODEL>
1

>  <REMARK>
 VINA RESULT:      -6.2      0.000      0.000
  Name = 
  20 active torsions:
  status: ('A' for Active; 'I' for Inactive)
    1  A    between atoms: C_1  and  C_9
    2  A    between atoms: N_4  and  C_11
    3  A    between atoms: C_6  and  C_39
    4  A    between atoms: C_6  and  C_45
    5  A    between atoms: N_10  and  C_36
    6  A    between atoms: C_11  and  C_14
    7  A    between atoms: C_12  and  C_31
    8  A    between atoms: C_12  and  C_37
    9  A    between atoms: C_12  and  N_40
   10  A    between atoms: C_13  and  C_35
   11  A    between atoms: C_14  and  C_39
   12  A    between atoms: C_18  and  C_25
   13  A    between atoms: C_18  and  CA_48
   14  A    between atoms: C_22  and  C_31
   15  A    between atoms: C_22  and  C_45
   16  A    between atoms: C_23  and  C_25
   17  A    between atoms: C_23  and  C_37
   18  A    between atoms: C_29  and  C_36
   19  A    between atoms: C_34  and  N_38
   20  A    between atoms: C_37  and  C_50
                            x       y       z     vdW  Elec       q    Type
                         _______ _______ _______ _____ _____    ______ ____

>  <TORSDO>
F 20

$$$$
=
 OpenBabel11062419153D

 50 55  0  0  1  0  0  0  0  0999 V2000
  190.6400  175.9770  145.1320 C   0  0  1  0  0  3  0  0  0  0  0  0
  193.4030  176.3380  142.9920 F   0  0  0  0  0  0  0  0  0  0  0  0
  190.2670  173.1390  144.8230 O   0  0  0  0  0  0  0  0  0  0  0  0
  195.8030  174.7710  145.2670 C   0  0  0  0  0  2  0  0  0  0  0  0
  194.9500  173.6230  145.3930 O   0  0  0  0  0  0  0  0  0  0  0  0
  193.8820  176.2400  144.2850 C   0  0  2  0  0  0  0  0  0  0  0  0
  191.4330  173.6160  144.8110 C   0  0  0  0  0  0  0  0  0  0  0  0
  193.7360  177.4720  144.9250 O   0  0  0  0  0  1  0  0  0  0  0  0
  192.6600  172.7850  144.9390 C   0  0  2  0  0  3  0  0  0  0  0  0
  191.6930  175.0150  144.7840 N   0  0  0  0  0  0  0  0  0  0  0  0
  193.7400  173.8260  144.6980 C   0  0  1  0  0  3  0  0  0  0  0  0
  195.3830  175.8520  144.2210 C   0  0  1  0  0  3  0  0  0  0  0  0
  196.2140  176.9570  144.3030 F   0  0  0  0  0  0  0  0  0  0  0  0
  193.1170  175.1660  145.0660 C   0  0  1  0  0  3  0  0  0  0  0  0
  192.6570  171.6730  143.9270 C   0  0  0  0  0  0  0  0  0  0  0  0
  192.6850  171.8940  142.5130 N   0  0  0  0  0  2  0  0  0  0  0  0
  192.5040  170.4970  144.3430 O   0  0  0  0  0  0  0  0  0  0  0  0
  193.3490  172.7350  140.3730 C   0  0  2  0  0  3  0  0  0  0  0  0
  192.4960  173.8100  141.0180 C   0  0  0  0  0  2  0  0  0  0  0  0
  193.4270  172.9650  141.8720 C   0  0  1  0  0  3  0  0  0  0  0  0
  195.9360  175.2300  139.4280 C   0  0  0  0  0  2  0  0  0  0  0  0
  194.5510  173.3080  139.6020 C   0  0  1  0  0  3  0  0  0  0  0  0
  194.2190  173.9410  138.3280 N   0  0  0  0  0  2  0  0  0  0  0  0
  195.2490  174.3470  140.4400 C   0  0  0  0  0  2  0  0  0  0  0  0
  195.2990  174.8940  138.0890 C   0  0  0  0  0  2  0  0  0  0  0  0
  190.5740  177.1550  142.8610 C   0  0  0  0  0  2  0  0  0  0  0  0
  189.5850  177.8970  143.7500 C   0  0  0  0  0  2  0  0  0  0  0  0
  189.7890  176.4030  143.9170 C   0  0  0  0  0  0  0  0  0  0  0  0
  188.7300  175.4900  143.2970 C   0  0  0  0  0  2  0  0  0  0  0  0
  189.1750  174.9150  141.9590 C   0  0  0  0  0  2  0  0  0  0  0  0
  188.9800  173.4130  141.9340 C   0  0  0  0  0  2  0  0  0  0  0  0
  188.2650  173.0230  140.6530 C   0  0  0  0  0  2  0  0  0  0  0  0
  188.5340  174.0450  139.5530 C   0  0  0  0  0  2  0  0  0  0  0  0
  188.3450  173.4770  138.1450 C   0  0  2  0  0  3  0  0  0  0  0  0
  189.0820  172.3040  137.9800 O   0  0  0  0  0  1  0  0  0  0  0  0
  188.7340  174.4550  137.1390 N   0  0  0  0  0  2  0  0  0  0  0  0
  189.7880  173.8470  136.3450 C   0  0  0  0  0  1  0  0  0  0  0  0
  189.8520  175.5790  146.3880 C   0  0  1  0  0  3  0  0  0  0  0  0
  191.3550  176.7270  148.0260 C   0  0  0  0  0  1  0  0  0  0  0  0
  190.8020  175.3950  147.5650 C   0  0  0  0  0  2  0  0  0  0  0  0
  188.8760  176.6950  146.7310 C   0  0  0  0  0  2  0  0  0  0  0  0
  187.4660  176.1630  146.9060 C   0  0  0  0  0  2  0  0  0  0  0  0
  186.5510  176.7720  145.8440 C   0  0  0  0  0  2  0  0  0  0  0  0
  185.9080  178.8080  144.6940 N   0  0  0  0  0  0  0  0  0  0  0  0
  184.9880  178.6740  145.9140 C   0  0  0  0  0  0  0  0  0  0  0  0
  183.8630  178.7930  146.4640 O   0  0  0  0  0  0  0  0  0  0  0  0
  186.3270  178.2980  145.9240 C   0  0  1  0  0  3  0  0  0  0  0  0
  186.1300  179.1650  143.3040 C   0  0  0  0  0  2  0  0  0  0  0  0
  184.3040  177.9870  142.0510 C   0  0  0  0  0  1  0  0  0  0  0  0
  185.7810  177.9950  142.3900 C   0  0  0  0  0  2  0  0  0  0  0  0
  1 38  1  1  0  0  0
  4  5  1  0  0  0  0
  6  2  1  6  0  0  0
  6  8  1  0  0  0  0
  6 14  1  0  0  0  0
  7  3  2  0  0  0  0
  7  9  1  0  0  0  0
  9 15  1  6  0  0  0
 10  7  1  0  0  0  0
 10  1  1  0  0  0  0
 11  9  1  0  0  0  0
 11 14  1  0  0  0  0
 11  5  1  1  0  0  0
 12  6  1  0  0  0  0
 12 13  1  1  0  0  0
 12  4  1  0  0  0  0
 14 10  1  6  0  0  0
 15 17  2  0  0  0  0
 16 15  1  0  0  0  0
 18 19  1  6  0  0  0
 18 20  1  0  0  0  0
 19 20  1  0  0  0  0
 20 16  1  1  0  0  0
 21 24  1  0  0  0  0
 22 18  1  0  0  0  0
 22 24  1  1  0  0  0
 23 22  1  0  0  0  0
 25 23  1  0  0  0  0
 25 21  1  0  0  0  0
 26 27  1  0  0  0  0
 26 28  1  0  0  0  0
 27 28  1  0  0  0  0
 28  1  1  0  0  0  0
 29 28  1  0  0  0  0
 30 29  1  0  0  0  0
 31 30  1  0  0  0  0
 32 31  1  0  0  0  0
 33 32  1  0  0  0  0
 34 35  1  1  0  0  0
 34 33  1  0  0  0  0
 36 34  1  0  0  0  0
 37 36  1  0  0  0  0
 38 41  1  1  0  0  0
 38 40  1  0  0  0  0
 40 39  1  0  0  0  0
 41 42  1  0  0  0  0
 43 42  1  0  0  0  0
 44 45  1  0  0  0  0
 44 47  1  0  0  0  0
 45 47  1  0  0  0  0
 45 46  2  0  0  0  0
 47 43  1  6  0  0  0
 48 44  1  0  0  0  0
 49 50  1  0  0  0  0
 50 48  1  0  0  0  0
M  END
>  <MODEL>
2

>  <REMARK>
 VINA RESULT:      -6.2      2.392      5.183
  Name = 
  20 active torsions:
  status: ('A' for Active; 'I' for Inactive)
    1  A    between atoms: C_1  and  C_9
    2  A    between atoms: N_4  and  C_11
    3  A    between atoms: C_6  and  C_39
    4  A    between atoms: C_6  and  C_45
    5  A    between atoms: N_10  and  C_36
    6  A    between atoms: C_11  and  C_14
    7  A    between atoms: C_12  and  C_31
    8  A    between atoms: C_12  and  C_37
    9  A    between atoms: C_12  and  N_40
   10  A    between atoms: C_13  and  C_35
   11  A    between atoms: C_14  and  C_39
   12  A    between atoms: C_18  and  C_25
   13  A    between atoms: C_18  and  CA_48
   14  A    between atoms: C_22  and  C_31
   15  A    between atoms: C_22  and  C_45
   16  A    between atoms: C_23  and  C_25
   17  A    between atoms: C_23  and  C_37
   18  A    between atoms: C_29  and  C_36
   19  A    between atoms: C_34  and  N_38
   20  A    between atoms: C_37  and  C_50
                            x       y       z     vdW  Elec       q    Type
                         _______ _______ _______ _____ _____    ______ ____

>  <TORSDO>
F 20

$$$$
=
 OpenBabel11062419153D

 50 55  0  0  1  0  0  0  0  0999 V2000
  191.3790  176.1370  145.1680 C   0  0  1  0  0  3  0  0  0  0  0  0
  193.9700  176.1370  142.7960 F   0  0  0  0  0  0  0  0  0  0  0  0
  190.7800  173.3220  145.1010 O   0  0  0  0  0  0  0  0  0  0  0  0
  196.4350  174.5470  144.9840 C   0  0  0  0  0  2  0  0  0  0  0  0
  195.5160  173.4800  145.2620 O   0  0  0  0  0  0  0  0  0  0  0  0
  194.5490  176.0910  144.0510 C   0  0  2  0  0  0  0  0  0  0  0  0
  191.9710  173.7060  144.9620 C   0  0  0  0  0  0  0  0  0  0  0  0
  194.5450  177.3710  144.6070 O   0  0  0  0  0  1  0  0  0  0  0  0
  193.1430  172.7930  145.0530 C   0  0  2  0  0  3  0  0  0  0  0  0
  192.3280  175.0760  144.8110 N   0  0  0  0  0  0  0  0  0  0  0  0
  194.2690  173.7290  144.6510 C   0  0  1  0  0  3  0  0  0  0  0  0
  196.0070  175.5840  143.8970 C   0  0  1  0  0  3  0  0  0  0  0  0
  196.9190  176.6250  143.8310 F   0  0  0  0  0  0  0  0  0  0  0  0
  193.7770  175.1340  144.9670 C   0  0  1  0  0  3  0  0  0  0  0  0
  192.9750  171.6180  144.1300 C   0  0  0  0  0  0  0  0  0  0  0  0
  192.4850  171.7330  142.7900 N   0  0  0  0  0  2  0  0  0  0  0  0
  193.1610  170.4680  144.5990 O   0  0  0  0  0  0  0  0  0  0  0  0
  192.9850  172.2790  140.5140 C   0  0  2  0  0  3  0  0  0  0  0  0
  191.6930  172.9930  140.8590 C   0  0  0  0  0  2  0  0  0  0  0  0
  192.7830  172.8470  141.9080 C   0  0  1  0  0  3  0  0  0  0  0  0
  195.2910  175.0690  139.6700 C   0  0  0  0  0  2  0  0  0  0  0  0
  193.9220  173.1270  139.6370 C   0  0  1  0  0  3  0  0  0  0  0  0
  193.2500  174.1210  138.8020 N   0  0  0  0  0  2  0  0  0  0  0  0
  194.9020  173.8730  140.5040 C   0  0  0  0  0  2  0  0  0  0  0  0
  194.2560  175.1520  138.5610 C   0  0  0  0  0  2  0  0  0  0  0  0
  191.1390  177.8930  143.3230 C   0  0  0  0  0  2  0  0  0  0  0  0
  189.8670  177.9800  144.1550 C   0  0  0  0  0  2  0  0  0  0  0  0
  190.5630  176.6460  143.9620 C   0  0  0  0  0  0  0  0  0  0  0  0
  189.9600  175.7000  142.9220 C   0  0  0  0  0  2  0  0  0  0  0  0
  188.6040  175.1580  143.3520 C   0  0  0  0  0  2  0  0  0  0  0  0
  187.6090  175.2470  142.2130 C   0  0  0  0  0  2  0  0  0  0  0  0
  187.9970  176.3950  141.2990 C   0  0  0  0  0  2  0  0  0  0  0  0
  187.0330  177.5650  141.4640 C   0  0  0  0  0  2  0  0  0  0  0  0
  185.8770  177.5390  140.4610 C   0  0  2  0  0  3  0  0  0  0  0  0
  186.3580  177.4660  139.1530 O   0  0  0  0  0  1  0  0  0  0  0  0
  185.0340  178.7140  140.6170 N   0  0  0  0  0  2  0  0  0  0  0  0
  183.6570  178.2640  140.5040 C   0  0  0  0  0  1  0  0  0  0  0  0
  190.5690  175.8200  146.4330 C   0  0  1  0  0  3  0  0  0  0  0  0
  191.5070  175.2150  148.6720 C   0  0  0  0  0  1  0  0  0  0  0  0
  191.3030  176.3290  147.6670 C   0  0  0  0  0  2  0  0  0  0  0  0
  189.2250  176.5300  146.3480 C   0  0  0  0  0  2  0  0  0  0  0  0
  188.1270  175.7180  147.0100 C   0  0  0  0  0  2  0  0  0  0  0  0
  186.7910  176.4450  146.8610 C   0  0  0  0  0  2  0  0  0  0  0  0
  185.5870  178.5200  146.5020 N   0  0  0  0  0  0  0  0  0  0  0  0
  186.6100  178.7830  147.6130 C   0  0  0  0  0  0  0  0  0  0  0  0
  186.9420  179.3250  148.6980 O   0  0  0  0  0  0  0  0  0  0  0  0
  186.8620  177.9510  146.5280 C   0  0  1  0  0  3  0  0  0  0  0  0
  184.2720  178.7070  145.9150 C   0  0  0  0  0  2  0  0  0  0  0  0
  185.3640  179.9320  144.0190 C   0  0  0  0  0  1  0  0  0  0  0  0
  184.3770  178.8460  144.4000 C   0  0  0  0  0  2  0  0  0  0  0  0
  1 38  1  1  0  0  0
  4  5  1  0  0  0  0
  6  2  1  6  0  0  0
  6  8  1  0  0  0  0
  6 14  1  0  0  0  0
  7  9  1  0  0  0  0
  7  3  2  0  0  0  0
  9 15  1  6  0  0  0
 10  7  1  0  0  0  0
 10  1  1  0  0  0  0
 11 14  1  0  0  0  0
 11  9  1  0  0  0  0
 11  5  1  1  0  0  0
 12 13  1  1  0  0  0
 12  6  1  0  0  0  0
 12  4  1  0  0  0  0
 14 10  1  6  0  0  0
 15 17  2  0  0  0  0
 16 15  1  0  0  0  0
 18 19  1  6  0  0  0
 18 20  1  0  0  0  0
 19 20  1  0  0  0  0
 20 16  1  1  0  0  0
 21 24  1  0  0  0  0
 22 24  1  1  0  0  0
 22 18  1  0  0  0  0
 23 22  1  0  0  0  0
 25 23  1  0  0  0  0
 25 21  1  0  0  0  0
 26 28  1  0  0  0  0
 26 27  1  0  0  0  0
 28 27  1  0  0  0  0
 28  1  1  0  0  0  0
 29 30  1  0  0  0  0
 29 28  1  0  0  0  0
 31 30  1  0  0  0  0
 32 33  1  0  0  0  0
 32 31  1  0  0  0  0
 34 35  1  6  0  0  0
 34 36  1  0  0  0  0
 34 33  1  0  0  0  0
 37 36  1  0  0  0  0
 38 41  1  6  0  0  0
 38 40  1  0  0  0  0
 40 39  1  0  0  0  0
 41 42  1  0  0  0  0
 43 42  1  0  0  0  0
 44 47  1  0  0  0  0
 44 45  1  0  0  0  0
 45 46  2  0  0  0  0
 47 43  1  1  0  0  0
 47 45  1  0  0  0  0
 48 44  1  0  0  0  0
 49 50  1  0  0  0  0
 50 48  1  0  0  0  0
M  END
>  <MODEL>
3

>  <REMARK>
 VINA RESULT:      -6.2      2.297      5.635
  Name = 
  20 active torsions:
  status: ('A' for Active; 'I' for Inactive)
    1  A    between atoms: C_1  and  C_9
    2  A    between atoms: N_4  and  C_11
    3  A    between atoms: C_6  and  C_39
    4  A    between atoms: C_6  and  C_45
    5  A    between atoms: N_10  and  C_36
    6  A    between atoms: C_11  and  C_14
    7  A    between atoms: C_12  and  C_31
    8  A    between atoms: C_12  and  C_37
    9  A    between atoms: C_12  and  N_40
   10  A    between atoms: C_13  and  C_35
   11  A    between atoms: C_14  and  C_39
   12  A    between atoms: C_18  and  C_25
   13  A    between atoms: C_18  and  CA_48
   14  A    between atoms: C_22  and  C_31
   15  A    between atoms: C_22  and  C_45
   16  A    between atoms: C_23  and  C_25
   17  A    between atoms: C_23  and  C_37
   18  A    between atoms: C_29  and  C_36
   19  A    between atoms: C_34  and  N_38
   20  A    between atoms: C_37  and  C_50
                            x       y       z     vdW  Elec       q    Type
                         _______ _______ _______ _____ _____    ______ ____

>  <TORSDO>
F 20

$$$$
=
 OpenBabel11062419153D

 50 55  0  0  1  0  0  0  0  0999 V2000
  192.3870  174.1710  143.0720 C   0  0  1  0  0  3  0  0  0  0  0  0
  191.6840  174.3530  139.6340 F   0  0  0  0  0  0  0  0  0  0  0  0
  190.7210  176.3550  143.9340 O   0  0  0  0  0  0  0  0  0  0  0  0
  188.3050  172.9740  139.9050 C   0  0  0  0  0  2  0  0  0  0  0  0
  187.9770  173.9470  140.9080 O   0  0  0  0  0  0  0  0  0  0  0  0
  190.8690  173.3780  140.1790 C   0  0  2  0  0  0  0  0  0  0  0  0
  190.3440  175.6260  142.9780 C   0  0  0  0  0  0  0  0  0  0  0  0
  191.6060  172.2060  140.3530 O   0  0  0  0  0  1  0  0  0  0  0  0
  188.9560  175.6310  142.4430 C   0  0  2  0  0  3  0  0  0  0  0  0
  191.1800  174.6410  142.3820 N   0  0  0  0  0  0  0  0  0  0  0  0
  189.1090  174.7210  141.2360 C   0  0  1  0  0  3  0  0  0  0  0  0
  189.6910  173.1250  139.2010 C   0  0  1  0  0  3  0  0  0  0  0  0
  189.9310  172.0480  138.3620 F   0  0  0  0  0  0  0  0  0  0  0  0
  190.3110  173.8350  141.5320 C   0  0  1  0  0  3  0  0  0  0  0  0
  188.5250  177.0300  142.0940 C   0  0  0  0  0  0  0  0  0  0  0  0
  187.1550  177.4360  142.0240 N   0  0  0  0  0  2  0  0  0  0  0  0
  189.4090  177.8460  141.7330 O   0  0  0  0  0  0  0  0  0  0  0  0
  185.7090  178.0990  143.8120 C   0  0  2  0  0  3  0  0  0  0  0  0
  184.8150  177.6940  142.6570 C   0  0  0  0  0  2  0  0  0  0  0  0
  186.1140  176.9470  142.9090 C   0  0  1  0  0  3  0  0  0  0  0  0
  184.7330  178.4120  147.3850 C   0  0  0  0  0  2  0  0  0  0  0  0
  185.1650  177.6450  145.1780 C   0  0  1  0  0  3  0  0  0  0  0  0
  186.1430  176.9880  146.0420 N   0  0  0  0  0  2  0  0  0  0  0  0
  184.6340  178.8320  145.9390 C   0  0  0  0  0  2  0  0  0  0  0  0
  185.6460  177.1980  147.3990 C   0  0  0  0  0  2  0  0  0  0  0  0
  193.8400  175.7400  141.6660 C   0  0  0  0  0  2  0  0  0  0  0  0
  194.7990  174.7640  142.3360 C   0  0  0  0  0  2  0  0  0  0  0  0
  193.5340  175.2030  143.0500 C   0  0  0  0  0  0  0  0  0  0  0  0
  193.6890  176.2790  144.1250 C   0  0  0  0  0  2  0  0  0  0  0  0
  194.9090  176.0440  145.0060 C   0  0  0  0  0  2  0  0  0  0  0  0
  194.4970  175.8970  146.4570 C   0  0  0  0  0  2  0  0  0  0  0  0
  193.0520  176.3340  146.6120 C   0  0  0  0  0  2  0  0  0  0  0  0
  192.2260  175.2370  147.2770 C   0  0  0  0  0  2  0  0  0  0  0  0
  190.9160  175.7510  147.8770 C   0  0  2  0  0  3  0  0  0  0  0  0
  189.8210  175.0960  147.3110 O   0  0  0  0  0  1  0  0  0  0  0  0
  190.7900  177.1880  147.6850 N   0  0  0  0  0  2  0  0  0  0  0  0
  189.5060  177.4170  147.0430 C   0  0  0  0  0  1  0  0  0  0  0  0
  192.0910  173.5350  144.4370 C   0  0  1  0  0  3  0  0  0  0  0  0
  190.4270  171.6690  144.3610 C   0  0  0  0  0  1  0  0  0  0  0  0
  190.6180  173.1610  144.5330 C   0  0  0  0  0  2  0  0  0  0  0  0
  192.9180  172.2640  144.5790 C   0  0  0  0  0  2  0  0  0  0  0  0
  194.0540  172.4500  145.5680 C   0  0  0  0  0  2  0  0  0  0  0  0
  194.7770  171.1190  145.7740 C   0  0  0  0  0  2  0  0  0  0  0  0
  196.8330  171.6400  144.5970 N   0  0  0  0  0  0  0  0  0  0  0  0
  196.8390  172.4620  145.8910 C   0  0  0  0  0  0  0  0  0  0  0  0
  197.0970  173.5180  146.5240 O   0  0  0  0  0  0  0  0  0  0  0  0
  196.3200  171.1740  145.8090 C   0  0  1  0  0  3  0  0  0  0  0  0
  197.1180  171.4990  143.1800 C   0  0  0  0  0  2  0  0  0  0  0  0
  195.7320  169.8070  141.9520 C   0  0  0  0  0  1  0  0  0  0  0  0
  195.8320  171.2530  142.3980 C   0  0  0  0  0  2  0  0  0  0  0  0
  1 38  1  1  0  0  0
  4  5  1  0  0  0  0
  6  2  1  6  0  0  0
  6  8  1  0  0  0  0
  6 14  1  0  0  0  0
  7  3  2  0  0  0  0
  9 15  1  6  0  0  0
  9  7  1  0  0  0  0
 10  7  1  0  0  0  0
 10  1  1  0  0  0  0
 11  5  1  1  0  0  0
 11 14  1  0  0  0  0
 11  9  1  0  0  0  0
 12 13  1  1  0  0  0
 12  4  1  0  0  0  0
 12  6  1  0  0  0  0
 14 10  1  6  0  0  0
 16 15  1  0  0  0  0
 17 15  2  0  0  0  0
 18 19  1  6  0  0  0
 18 22  1  0  0  0  0
 19 20  1  0  0  0  0
 20 16  1  6  0  0  0
 20 18  1  0  0  0  0
 21 25  1  0  0  0  0
 22 24  1  1  0  0  0
 22 23  1  0  0  0  0
 23 25  1  0  0  0  0
 24 21  1  0  0  0  0
 26 27  1  0  0  0  0
 26 28  1  0  0  0  0
 27 28  1  0  0  0  0
 28  1  1  0  0  0  0
 28 29  1  0  0  0  0
 29 30  1  0  0  0  0
 30 31  1  0  0  0  0
 31 32  1  0  0  0  0
 32 33  1  0  0  0  0
 33 34  1  0  0  0  0
 34 35  1  6  0  0  0
 36 34  1  0  0  0  0
 37 36  1  0  0  0  0
 38 40  1  6  0  0  0
 38 41  1  0  0  0  0
 39 40  1  0  0  0  0
 41 42  1  0  0  0  0
 42 43  1  0  0  0  0
 44 47  1  0  0  0  0
 44 45  1  0  0  0  0
 45 46  2  0  0  0  0
 47 43  1  6  0  0  0
 47 45  1  0  0  0  0
 48 44  1  0  0  0  0
 49 50  1  0  0  0  0
 50 48  1  0  0  0  0
M  END
>  <MODEL>
4

>  <REMARK>
 VINA RESULT:      -6.2      2.411      8.479
  Name = 
  20 active torsions:
  status: ('A' for Active; 'I' for Inactive)
    1  A    between atoms: C_1  and  C_9
    2  A    between atoms: N_4  and  C_11
    3  A    between atoms: C_6  and  C_39
    4  A    between atoms: C_6  and  C_45
    5  A    between atoms: N_10  and  C_36
    6  A    between atoms: C_11  and  C_14
    7  A    between atoms: C_12  and  C_31
    8  A    between atoms: C_12  and  C_37
    9  A    between atoms: C_12  and  N_40
   10  A    between atoms: C_13  and  C_35
   11  A    between atoms: C_14  and  C_39
   12  A    between atoms: C_18  and  C_25
   13  A    between atoms: C_18  and  CA_48
   14  A    between atoms: C_22  and  C_31
   15  A    between atoms: C_22  and  C_45
   16  A    between atoms: C_23  and  C_25
   17  A    between atoms: C_23  and  C_37
   18  A    between atoms: C_29  and  C_36
   19  A    between atoms: C_34  and  N_38
   20  A    between atoms: C_37  and  C_50
                            x       y       z     vdW  Elec       q    Type
                         _______ _______ _______ _____ _____    ______ ____

>  <TORSDO>
F 20

$$$$
=
 OpenBabel11062419153D

 50 55  0  0  1  0  0  0  0  0999 V2000
  190.3270  174.4390  143.1760 C   0  0  1  0  0  3  0  0  0  0  0  0
  191.4040  171.1550  143.8110 F   0  0  0  0  0  0  0  0  0  0  0  0
  192.8150  175.4850  142.1720 O   0  0  0  0  0  0  0  0  0  0  0  0
  191.5490  170.1580  140.2930 C   0  0  0  0  0  2  0  0  0  0  0  0
  192.3720  171.2960  139.9940 O   0  0  0  0  0  0  0  0  0  0  0  0
  190.7810  171.1620  142.5760 C   0  0  2  0  0  0  0  0  0  0  0  0
  192.4970  174.2910  141.9220 C   0  0  0  0  0  0  0  0  0  0  0  0
  189.3980  171.1490  142.7580 O   0  0  0  0  0  1  0  0  0  0  0  0
  193.1820  173.4590  140.8970 C   0  0  2  0  0  3  0  0  0  0  0  0
  191.3770  173.6490  142.5210 N   0  0  0  0  0  0  0  0  0  0  0  0
  192.5260  172.1100  141.1350 C   0  0  1  0  0  3  0  0  0  0  0  0
  191.2270  169.8960  141.7990 C   0  0  1  0  0  3  0  0  0  0  0  0
  190.3200  168.8570  141.9280 F   0  0  0  0  0  0  0  0  0  0  0  0
  191.1790  172.4090  141.7780 C   0  0  1  0  0  3  0  0  0  0  0  0
  194.6690  173.4550  141.1200 C   0  0  0  0  0  0  0  0  0  0  0  0
  195.2810  173.0170  142.3380 N   0  0  0  0  0  2  0  0  0  0  0  0
  195.4000  173.9730  140.2390 O   0  0  0  0  0  0  0  0  0  0  0  0
  195.6740  171.8250  144.3750 C   0  0  2  0  0  3  0  0  0  0  0  0
  194.2860  172.4240  144.4820 C   0  0  0  0  0  2  0  0  0  0  0  0
  194.7910  171.9130  143.1430 C   0  0  1  0  0  3  0  0  0  0  0  0
  194.9060  169.0350  146.7070 C   0  0  0  0  0  2  0  0  0  0  0  0
  195.7610  170.4070  144.9660 C   0  0  1  0  0  3  0  0  0  0  0  0
  196.8610  170.1980  145.9050 N   0  0  0  0  0  2  0  0  0  0  0  0
  194.4880  170.0790  145.7020 C   0  0  0  0  0  2  0  0  0  0  0  0
  196.4240  169.0960  146.7570 C   0  0  0  0  0  2  0  0  0  0  0  0
  191.1790  173.7790  145.4970 C   0  0  0  0  0  2  0  0  0  0  0  0
  189.8190  174.4270  145.7160 C   0  0  0  0  0  2  0  0  0  0  0  0
  190.7200  174.9050  144.5930 C   0  0  0  0  0  0  0  0  0  0  0  0
  191.5070  176.1930  144.8440 C   0  0  0  0  0  2  0  0  0  0  0  0
  191.5270  176.5800  146.3160 C   0  0  0  0  0  2  0  0  0  0  0  0
  192.9360  176.5050  146.8670 C   0  0  0  0  0  2  0  0  0  0  0  0
  193.9270  176.7110  145.7360 C   0  0  0  0  0  2  0  0  0  0  0  0
  195.0840  175.7230  145.8460 C   0  0  0  0  0  2  0  0  0  0  0  0
  195.8630  175.5620  144.5390 C   0  0  2  0  0  3  0  0  0  0  0  0
  197.0760  174.9070  144.7620 O   0  0  0  0  0  1  0  0  0  0  0  0
  196.1040  176.8570  143.9200 N   0  0  0  0  0  2  0  0  0  0  0  0
  196.2640  176.6210  142.4950 C   0  0  0  0  0  1  0  0  0  0  0  0
  189.7270  175.5180  142.2630 C   0  0  1  0  0  3  0  0  0  0  0  0
  187.7520  174.0350  141.8690 C   0  0  0  0  0  1  0  0  0  0  0  0
  188.8270  174.8760  141.2150 C   0  0  0  0  0  2  0  0  0  0  0  0
  188.8820  176.4620  143.1060 C   0  0  0  0  0  2  0  0  0  0  0  0
  188.8320  177.8520  142.4980 C   0  0  0  0  0  2  0  0  0  0  0  0
  187.4240  178.1310  141.9720 C   0  0  0  0  0  2  0  0  0  0  0  0
  185.7420  178.2640  143.7150 N   0  0  0  0  0  0  0  0  0  0  0  0
  185.0060  177.9480  142.4070 C   0  0  0  0  0  0  0  0  0  0  0  0
  184.0210  178.0820  141.6380 O   0  0  0  0  0  0  0  0  0  0  0  0
  186.2620  177.4370  142.7170 C   0  0  1  0  0  3  0  0  0  0  0  0
  185.8230  178.9480  144.9930 C   0  0  0  0  0  2  0  0  0  0  0  0
  185.7160  176.8040  146.2910 C   0  0  0  0  0  1  0  0  0  0  0  0
  186.5140  178.0650  146.0280 C   0  0  0  0  0  2  0  0  0  0  0  0
  1 38  1  6  0  0  0
  1 28  1  0  0  0  0
  4 12  1  0  0  0  0
  5  4  1  0  0  0  0
  6  8  1  1  0  0  0
  6  2  1  0  0  0  0
  7  3  2  0  0  0  0
  7 10  1  0  0  0  0
  9 15  1  1  0  0  0
  9 11  1  0  0  0  0
  9  7  1  0  0  0  0
 10  1  1  0  0  0  0
 11  5  1  6  0  0  0
 11 14  1  0  0  0  0
 12 13  1  6  0  0  0
 12  6  1  0  0  0  0
 14 10  1  1  0  0  0
 14  6  1  0  0  0  0
 15 16  1  0  0  0  0
 17 15  2  0  0  0  0
 18 19  1  1  0  0  0
 18 22  1  0  0  0  0
 20 16  1  6  0  0  0
 20 18  1  0  0  0  0
 20 19  1  0  0  0  0
 21 25  1  0  0  0  0
 22 24  1  1  0  0  0
 22 23  1  0  0  0  0
 23 25  1  0  0  0  0
 24 21  1  0  0  0  0
 26 27  1  0  0  0  0
 28 29  1  0  0  0  0
 28 26  1  0  0  0  0
 28 27  1  0  0  0  0
 29 30  1  0  0  0  0
 30 31  1  0  0  0  0
 32 33  1  0  0  0  0
 32 31  1  0  0  0  0
 34 35  1  1  0  0  0
 34 33  1  0  0  0  0
 36 34  1  0  0  0  0
 37 36  1  0  0  0  0
 38 40  1  6  0  0  0
 38 41  1  0  0  0  0
 40 39  1  0  0  0  0
 42 41  1  0  0  0  0
 43 42  1  0  0  0  0
 44 48  1  0  0  0  0
 45 47  1  0  0  0  0
 45 44  1  0  0  0  0
 46 45  2  0  0  0  0
 47 43  1  6  0  0  0
 47 44  1  0  0  0  0
 48 50  1  0  0  0  0
 50 49  1  0  0  0  0
M  END
>  <MODEL>
5

>  <REMARK>
 VINA RESULT:      -6.0      2.233      4.611
  Name = 
  20 active torsions:
  status: ('A' for Active; 'I' for Inactive)
    1  A    between atoms: C_1  and  C_9
    2  A    between atoms: N_4  and  C_11
    3  A    between atoms: C_6  and  C_39
    4  A    between atoms: C_6  and  C_45
    5  A    between atoms: N_10  and  C_36
    6  A    between atoms: C_11  and  C_14
    7  A    between atoms: C_12  and  C_31
    8  A    between atoms: C_12  and  C_37
    9  A    between atoms: C_12  and  N_40
   10  A    between atoms: C_13  and  C_35
   11  A    between atoms: C_14  and  C_39
   12  A    between atoms: C_18  and  C_25
   13  A    between atoms: C_18  and  CA_48
   14  A    between atoms: C_22  and  C_31
   15  A    between atoms: C_22  and  C_45
   16  A    between atoms: C_23  and  C_25
   17  A    between atoms: C_23  and  C_37
   18  A    between atoms: C_29  and  C_36
   19  A    between atoms: C_34  and  N_38
   20  A    between atoms: C_37  and  C_50
                            x       y       z     vdW  Elec       q    Type
                         _______ _______ _______ _____ _____    ______ ____

>  <TORSDO>
F 20

$$$$
=
 OpenBabel11062419153D

 50 55  0  0  1  0  0  0  0  0999 V2000
  189.8590  172.6060  142.4020 C   0  0  1  0  0  3  0  0  0  0  0  0
  191.6620  174.1790  139.8290 F   0  0  0  0  0  0  0  0  0  0  0  0
  190.4460  169.8790  141.6880 O   0  0  0  0  0  0  0  0  0  0  0  0
  194.9620  173.4730  141.2440 C   0  0  0  0  0  2  0  0  0  0  0  0
  194.6320  172.0790  141.3430 O   0  0  0  0  0  0  0  0  0  0  0  0
  192.4620  174.1660  140.9560 C   0  0  2  0  0  0  0  0  0  0  0  0
  191.3220  170.7680  141.5170 C   0  0  0  0  0  0  0  0  0  0  0  0
  192.0610  175.1890  141.8170 O   0  0  0  0  0  1  0  0  0  0  0  0
  192.7520  170.4660  141.2380 C   0  0  2  0  0  3  0  0  0  0  0  0
  191.0550  172.1560  141.6800 N   0  0  0  0  0  0  0  0  0  0  0  0
  193.2930  171.8580  140.9620 C   0  0  1  0  0  3  0  0  0  0  0  0
  193.9320  174.3920  140.5130 C   0  0  1  0  0  3  0  0  0  0  0  0
  194.3100  175.7210  140.6120 F   0  0  0  0  0  0  0  0  0  0  0  0
  192.3550  172.8190  141.6800 C   0  0  1  0  0  3  0  0  0  0  0  0
  192.8800  169.5260  140.0710 C   0  0  0  0  0  0  0  0  0  0  0  0
  191.9460  169.4850  138.9870 N   0  0  0  0  0  2  0  0  0  0  0  0
  193.7850  168.6550  140.1110 O   0  0  0  0  0  0  0  0  0  0  0  0
  190.9720  170.3570  136.9830 C   0  0  2  0  0  3  0  0  0  0  0  0
  189.8660  170.3080  138.0190 C   0  0  0  0  0  2  0  0  0  0  0  0
  191.2850  170.6550  138.4390 C   0  0  1  0  0  3  0  0  0  0  0  0
  190.9620  173.9900  136.1960 C   0  0  0  0  0  2  0  0  0  0  0  0
  190.9080  171.6160  136.1010 C   0  0  1  0  0  3  0  0  0  0  0  0
  189.5590  172.0730  135.7770 N   0  0  0  0  0  2  0  0  0  0  0  0
  191.6060  172.7610  136.7880 C   0  0  0  0  0  2  0  0  0  0  0  0
  189.7000  173.5010  135.5050 C   0  0  0  0  0  2  0  0  0  0  0  0
  191.1130  172.1250  144.5800 C   0  0  0  0  0  2  0  0  0  0  0  0
  189.6330  172.1360  144.9390 C   0  0  0  0  0  2  0  0  0  0  0  0
  190.1610  173.0500  143.8490 C   0  0  0  0  0  0  0  0  0  0  0  0
  190.3860  174.5140  144.2270 C   0  0  0  0  0  2  0  0  0  0  0  0
  189.8060  174.8540  145.5930 C   0  0  0  0  0  2  0  0  0  0  0  0
  190.7080  175.8250  146.3280 C   0  0  0  0  0  2  0  0  0  0  0  0
  192.0210  175.9520  145.5780 C   0  0  0  0  0  2  0  0  0  0  0  0
  193.1350  176.4080  146.5140 C   0  0  0  0  0  2  0  0  0  0  0  0
  194.4960  176.5170  145.8230 C   0  0  2  0  0  3  0  0  0  0  0  0
  194.9460  177.8380  145.8190 O   0  0  0  0  0  1  0  0  0  0  0  0
  194.4220  176.0130  144.4600 N   0  0  0  0  0  2  0  0  0  0  0  0
  195.6820  176.3490  143.8170 C   0  0  0  0  0  1  0  0  0  0  0  0
  188.9850  173.5640  141.5810 C   0  0  1  0  0  3  0  0  0  0  0  0
  188.5710  173.9630  139.1470 C   0  0  0  0  0  1  0  0  0  0  0  0
  188.6170  172.9260  140.2480 C   0  0  0  0  0  2  0  0  0  0  0  0
  187.7010  173.8400  142.3500 C   0  0  0  0  0  2  0  0  0  0  0  0
  187.3690  175.3210  142.3620 C   0  0  0  0  0  2  0  0  0  0  0  0
  188.6120  176.1280  141.9880 C   0  0  0  0  0  2  0  0  0  0  0  0
  188.3550  177.7420  143.7800 N   0  0  0  0  0  0  0  0  0  0  0  0
  189.7380  177.9790  143.1610 C   0  0  0  0  0  0  0  0  0  0  0  0
  190.9580  178.2630  143.2680 O   0  0  0  0  0  0  0  0  0  0  0  0
  188.6220  177.6120  142.4170 C   0  0  1  0  0  3  0  0  0  0  0  0
  187.4740  177.6740  144.9330 C   0  0  0  0  0  2  0  0  0  0  0  0
  185.0000  177.9250  144.6040 C   0  0  0  0  0  1  0  0  0  0  0  0
  186.3170  178.6560  144.7800 C   0  0  0  0  0  2  0  0  0  0  0  0
  1 38  1  6  0  0  0
  1 28  1  0  0  0  0
  4  5  1  0  0  0  0
  6  2  1  6  0  0  0
  6 14  1  0  0  0  0
  6  8  1  0  0  0  0
  7 10  1  0  0  0  0
  7  3  2  0  0  0  0
  9 15  1  6  0  0  0
  9  7  1  0  0  0  0
 10  1  1  0  0  0  0
 11  9  1  0  0  0  0
 11  5  1  1  0  0  0
 11 14  1  0  0  0  0
 12 13  1  1  0  0  0
 12  6  1  0  0  0  0
 12  4  1  0  0  0  0
 14 10  1  6  0  0  0
 15 17  2  0  0  0  0
 16 15  1  0  0  0  0
 18 19  1  1  0  0  0
 18 20  1  0  0  0  0
 19 20  1  0  0  0  0
 20 16  1  1  0  0  0
 21 24  1  0  0  0  0
 22 24  1  1  0  0  0
 22 18  1  0  0  0  0
 23 22  1  0  0  0  0
 25 23  1  0  0  0  0
 25 21  1  0  0  0  0
 26 27  1  0  0  0  0
 28 29  1  0  0  0  0
 28 26  1  0  0  0  0
 28 27  1  0  0  0  0
 29 30  1  0  0  0  0
 30 31  1  0  0  0  0
 32 31  1  0  0  0  0
 32 33  1  0  0  0  0
 34 35  1  6  0  0  0
 34 33  1  0  0  0  0
 36 34  1  0  0  0  0
 37 36  1  0  0  0  0
 38 40  1  6  0  0  0
 38 41  1  0  0  0  0
 39 40  1  0  0  0  0
 41 42  1  0  0  0  0
 43 42  1  0  0  0  0
 44 48  1  0  0  0  0
 45 46  2  0  0  0  0
 45 44  1  0  0  0  0
 47 43  1  1  0  0  0
 47 45  1  0  0  0  0
 47 44  1  0  0  0  0
 49 50  1  0  0  0  0
 50 48  1  0  0  0  0
M  END
>  <MODEL>
6

>  <REMARK>
 VINA RESULT:      -5.7      2.209      3.199
  Name = 
  20 active torsions:
  status: ('A' for Active; 'I' for Inactive)
    1  A    between atoms: C_1  and  C_9
    2  A    between atoms: N_4  and  C_11
    3  A    between atoms: C_6  and  C_39
    4  A    between atoms: C_6  and  C_45
    5  A    between atoms: N_10  and  C_36
    6  A    between atoms: C_11  and  C_14
    7  A    between atoms: C_12  and  C_31
    8  A    between atoms: C_12  and  C_37
    9  A    between atoms: C_12  and  N_40
   10  A    between atoms: C_13  and  C_35
   11  A    between atoms: C_14  and  C_39
   12  A    between atoms: C_18  and  C_25
   13  A    between atoms: C_18  and  CA_48
   14  A    between atoms: C_22  and  C_31
   15  A    between atoms: C_22  and  C_45
   16  A    between atoms: C_23  and  C_25
   17  A    between atoms: C_23  and  C_37
   18  A    between atoms: C_29  and  C_36
   19  A    between atoms: C_34  and  N_38
   20  A    between atoms: C_37  and  C_50
                            x       y       z     vdW  Elec       q    Type
                         _______ _______ _______ _____ _____    ______ ____

>  <TORSDO>
F 20

$$$$
=
 OpenBabel11062419153D

 50 55  0  0  1  0  0  0  0  0999 V2000
  191.8220  174.2950  143.4760 C   0  0  1  0  0  3  0  0  0  0  0  0
  195.1550  173.3390  144.0440 F   0  0  0  0  0  0  0  0  0  0  0  0
  191.5120  173.1210  140.8660 O   0  0  0  0  0  0  0  0  0  0  0  0
  194.4010  169.8070  144.6310 C   0  0  0  0  0  2  0  0  0  0  0  0
  193.6820  169.7430  143.3900 O   0  0  0  0  0  0  0  0  0  0  0  0
  194.3400  172.4160  144.6720 C   0  0  2  0  0  0  0  0  0  0  0  0
  192.2240  172.5390  141.7280 C   0  0  0  0  0  0  0  0  0  0  0  0
  193.8880  172.9470  145.8800 O   0  0  0  0  0  1  0  0  0  0  0  0
  192.6890  171.1330  141.5920 C   0  0  2  0  0  3  0  0  0  0  0  0
  192.5670  173.1350  142.9740 N   0  0  0  0  0  0  0  0  0  0  0  0
  193.6140  171.0180  142.7910 C   0  0  1  0  0  3  0  0  0  0  0  0
  195.1700  171.1320  144.9350 C   0  0  1  0  0  3  0  0  0  0  0  0
  195.7000  171.1040  146.2140 F   0  0  0  0  0  0  0  0  0  0  0  0
  193.1380  172.0660  143.7870 C   0  0  1  0  0  3  0  0  0  0  0  0
  193.3810  170.9260  140.2720 C   0  0  0  0  0  0  0  0  0  0  0  0
  192.7900  170.2240  139.1740 N   0  0  0  0  0  2  0  0  0  0  0  0
  194.5810  171.2850  140.1740 O   0  0  0  0  0  0  0  0  0  0  0  0
  191.2110  171.3470  137.7690 C   0  0  2  0  0  3  0  0  0  0  0  0
  191.1680  169.8800  137.3880 C   0  0  0  0  0  2  0  0  0  0  0  0
  191.3790  170.2810  138.8390 C   0  0  1  0  0  3  0  0  0  0  0  0
  188.7260  174.0970  138.0380 C   0  0  0  0  0  2  0  0  0  0  0  0
  189.8210  172.0050  137.7730 C   0  0  1  0  0  3  0  0  0  0  0  0
  189.1140  171.9430  139.0510 N   0  0  0  0  0  2  0  0  0  0  0  0
  189.9410  173.4620  137.4090 C   0  0  0  0  0  2  0  0  0  0  0  0
  188.1910  173.0740  139.0260 C   0  0  0  0  0  2  0  0  0  0  0  0
  190.3600  172.5240  144.6050 C   0  0  0  0  0  2  0  0  0  0  0  0
  189.4350  173.6890  144.2780 C   0  0  0  0  0  2  0  0  0  0  0  0
  190.8830  173.9450  144.6500 C   0  0  0  0  0  0  0  0  0  0  0  0
  191.1540  174.4070  146.0830 C   0  0  0  0  0  2  0  0  0  0  0  0
  189.8960  174.9130  146.7740 C   0  0  0  0  0  2  0  0  0  0  0  0
  190.0930  176.3320  147.2670 C   0  0  0  0  0  2  0  0  0  0  0  0
  188.9070  177.1780  146.8420 C   0  0  0  0  0  2  0  0  0  0  0  0
  187.6970  176.2980  146.5420 C   0  0  0  0  0  2  0  0  0  0  0  0
  186.3920  176.8550  147.1150 C   0  0  2  0  0  3  0  0  0  0  0  0
  185.2960  176.4150  146.3700 O   0  0  0  0  0  1  0  0  0  0  0  0
  186.4210  178.3090  147.1440 N   0  0  0  0  0  2  0  0  0  0  0  0
  185.0780  178.7520  147.4790 C   0  0  0  0  0  1  0  0  0  0  0  0
  192.7040  175.5360  143.6780 C   0  0  1  0  0  3  0  0  0  0  0  0
  194.9660  176.2870  142.9180 C   0  0  0  0  0  1  0  0  0  0  0  0
  193.6320  175.7180  142.4830 C   0  0  0  0  0  2  0  0  0  0  0  0
  191.8110  176.7640  143.7820 C   0  0  0  0  0  2  0  0  0  0  0  0
  190.6830  176.7160  142.7670 C   0  0  0  0  0  2  0  0  0  0  0  0
  189.5000  177.5400  143.2760 C   0  0  0  0  0  2  0  0  0  0  0  0
  187.1320  177.8800  142.8770 N   0  0  0  0  0  0  0  0  0  0  0  0
  187.6290  176.9010  141.8070 C   0  0  0  0  0  0  0  0  0  0  0  0
  187.6220  176.4610  140.6290 O   0  0  0  0  0  0  0  0  0  0  0  0
  188.1020  176.9050  143.1150 C   0  0  1  0  0  3  0  0  0  0  0  0
  186.3020  178.9990  143.2890 C   0  0  0  0  0  2  0  0  0  0  0  0
  184.0240  178.2920  142.5140 C   0  0  0  0  0  1  0  0  0  0  0  0
  184.9220  178.5110  143.7160 C   0  0  0  0  0  2  0  0  0  0  0  0
  1 38  1  1  0  0  0
  1 28  1  0  0  0  0
  3  7  2  0  0  0  0
  4 12  1  0  0  0  0
  5  4  1  0  0  0  0
  6  2  1  6  0  0  0
  6 12  1  0  0  0  0
  6  8  1  0  0  0  0
  7 10  1  0  0  0  0
  9 15  1  6  0  0  0
  9  7  1  0  0  0  0
  9 11  1  0  0  0  0
 10  1  1  0  0  0  0
 11  5  1  1  0  0  0
 11 14  1  0  0  0  0
 12 13  1  1  0  0  0
 14 10  1  6  0  0  0
 14  6  1  0  0  0  0
 16 15  1  0  0  0  0
 17 15  2  0  0  0  0
 18 19  1  6  0  0  0
 18 22  1  0  0  0  0
 18 20  1  0  0  0  0
 19 20  1  0  0  0  0
 20 16  1  6  0  0  0
 21 25  1  0  0  0  0
 22 24  1  1  0  0  0
 22 23  1  0  0  0  0
 24 21  1  0  0  0  0
 25 23  1  0  0  0  0
 26 28  1  0  0  0  0
 27 26  1  0  0  0  0
 27 28  1  0  0  0  0
 28 29  1  0  0  0  0
 29 30  1  0  0  0  0
 30 31  1  0  0  0  0
 32 31  1  0  0  0  0
 33 32  1  0  0  0  0
 33 34  1  0  0  0  0
 34 35  1  6  0  0  0
 34 36  1  0  0  0  0
 36 37  1  0  0  0  0
 38 40  1  6  0  0  0
 38 41  1  0  0  0  0
 40 39  1  0  0  0  0
 42 43  1  0  0  0  0
 42 41  1  0  0  0  0
 44 47  1  0  0  0  0
 44 48  1  0  0  0  0
 45 44  1  0  0  0  0
 45 47  1  0  0  0  0
 46 45  2  0  0  0  0
 47 43  1  6  0  0  0
 48 50  1  0  0  0  0
 49 50  1  0  0  0  0
M  END
>  <MODEL>
7

>  <REMARK>
 VINA RESULT:      -5.7      2.432      5.129
  Name = 
  20 active torsions:
  status: ('A' for Active; 'I' for Inactive)
    1  A    between atoms: C_1  and  C_9
    2  A    between atoms: N_4  and  C_11
    3  A    between atoms: C_6  and  C_39
    4  A    between atoms: C_6  and  C_45
    5  A    between atoms: N_10  and  C_36
    6  A    between atoms: C_11  and  C_14
    7  A    between atoms: C_12  and  C_31
    8  A    between atoms: C_12  and  C_37
    9  A    between atoms: C_12  and  N_40
   10  A    between atoms: C_13  and  C_35
   11  A    between atoms: C_14  and  C_39
   12  A    between atoms: C_18  and  C_25
   13  A    between atoms: C_18  and  CA_48
   14  A    between atoms: C_22  and  C_31
   15  A    between atoms: C_22  and  C_45
   16  A    between atoms: C_23  and  C_25
   17  A    between atoms: C_23  and  C_37
   18  A    between atoms: C_29  and  C_36
   19  A    between atoms: C_34  and  N_38
   20  A    between atoms: C_37  and  C_50
                            x       y       z     vdW  Elec       q    Type
                         _______ _______ _______ _____ _____    ______ ____

>  <TORSDO>
F 20

$$$$
=
 OpenBabel11062419153D

 50 55  0  0  1  0  0  0  0  0999 V2000
  191.8230  175.3290  144.3300 C   0  0  1  0  0  3  0  0  0  0  0  0
  193.0010  175.2910  141.0190 F   0  0  0  0  0  0  0  0  0  0  0  0
  190.5440  172.7490  144.3250 O   0  0  0  0  0  0  0  0  0  0  0  0
  195.6680  172.8630  141.6340 C   0  0  0  0  0  2  0  0  0  0  0  0
  194.7230  171.9590  142.2260 O   0  0  0  0  0  0  0  0  0  0  0  0
  194.0390  174.8920  141.8400 C   0  0  2  0  0  0  0  0  0  0  0  0
  191.6060  172.9170  143.6680 C   0  0  0  0  0  0  0  0  0  0  0  0
  194.6150  176.0150  142.4340 O   0  0  0  0  0  1  0  0  0  0  0  0
  192.4140  171.7960  143.1160 C   0  0  2  0  0  3  0  0  0  0  0  0
  192.2030  174.1950  143.4780 N   0  0  0  0  0  0  0  0  0  0  0  0
  193.4480  172.5570  142.3050 C   0  0  1  0  0  3  0  0  0  0  0  0
  195.0910  174.1540  140.9700 C   0  0  1  0  0  3  0  0  0  0  0  0
  196.1160  174.9930  140.5650 F   0  0  0  0  0  0  0  0  0  0  0  0
  193.5310  173.9420  142.9310 C   0  0  1  0  0  3  0  0  0  0  0  0
  191.5550  170.8770  142.2900 C   0  0  0  0  0  0  0  0  0  0  0  0
  190.3900  171.3130  141.5820 N   0  0  0  0  0  2  0  0  0  0  0  0
  191.8080  169.6470  142.3230 O   0  0  0  0  0  0  0  0  0  0  0  0
  189.6310  172.3680  139.5730 C   0  0  2  0  0  3  0  0  0  0  0  0
  188.8080  172.9470  140.7070 C   0  0  0  0  0  2  0  0  0  0  0  0
  190.2720  172.6040  140.9300 C   0  0  1  0  0  3  0  0  0  0  0  0
  190.2470  173.7490  136.1780 C   0  0  0  0  0  2  0  0  0  0  0  0
  190.0210  173.4190  138.5200 C   0  0  1  0  0  3  0  0  0  0  0  0
  191.4540  173.5200  138.2540 N   0  0  0  0  0  2  0  0  0  0  0  0
  189.3520  173.1050  137.2080 C   0  0  0  0  0  2  0  0  0  0  0  0
  191.5480  174.0580  136.8990 C   0  0  0  0  0  2  0  0  0  0  0  0
  191.5520  177.5870  143.1560 C   0  0  0  0  0  2  0  0  0  0  0  0
  190.6180  177.6210  144.3590 C   0  0  0  0  0  2  0  0  0  0  0  0
  190.8710  176.3170  143.6250 C   0  0  0  0  0  0  0  0  0  0  0  0
  189.7880  175.8570  142.6470 C   0  0  0  0  0  2  0  0  0  0  0  0
  188.4900  175.4930  143.3530 C   0  0  0  0  0  2  0  0  0  0  0  0
  187.3060  176.1300  142.6540 C   0  0  0  0  0  2  0  0  0  0  0  0
  187.7810  177.3420  141.8730 C   0  0  0  0  0  2  0  0  0  0  0  0
  186.6160  178.2770  141.5670 C   0  0  0  0  0  2  0  0  0  0  0  0
  185.6280  177.6950  140.5530 C   0  0  2  0  0  3  0  0  0  0  0  0
  186.2860  177.3140  139.3820 O   0  0  0  0  0  1  0  0  0  0  0  0
  184.5810  178.6580  140.2440 N   0  0  0  0  0  2  0  0  0  0  0  0
  183.4230  178.2930  141.0430 C   0  0  0  0  0  1  0  0  0  0  0  0
  191.4140  174.9070  145.7480 C   0  0  1  0  0  3  0  0  0  0  0  0
  193.0620  176.4100  146.8810 C   0  0  0  0  0  1  0  0  0  0  0  0
  192.6160  174.9770  146.6820 C   0  0  0  0  0  2  0  0  0  0  0  0
  190.3520  175.8680  146.2610 C   0  0  0  0  0  2  0  0  0  0  0  0
  189.4910  175.2230  147.3310 C   0  0  0  0  0  2  0  0  0  0  0  0
  188.0350  175.6480  147.1430 C   0  0  0  0  0  2  0  0  0  0  0  0
  186.4380  177.3430  146.4640 N   0  0  0  0  0  0  0  0  0  0  0  0
  187.3980  178.0060  147.4590 C   0  0  0  0  0  0  0  0  0  0  0  0
  187.6250  178.7990  148.4090 O   0  0  0  0  0  0  0  0  0  0  0  0
  187.8010  177.0480  146.5350 C   0  0  1  0  0  3  0  0  0  0  0  0
  185.1070  177.1560  145.9150 C   0  0  0  0  0  2  0  0  0  0  0  0
  185.3950  179.4210  144.8770 C   0  0  0  0  0  1  0  0  0  0  0  0
  184.9260  177.9970  144.6550 C   0  0  0  0  0  2  0  0  0  0  0  0
  1 38  1  1  0  0  0
  4  5  1  0  0  0  0
  6  2  1  6  0  0  0
  6  8  1  0  0  0  0
  6 14  1  0  0  0  0
  7  3  2  0  0  0  0
  9 15  1  6  0  0  0
  9  7  1  0  0  0  0
 10  7  1  0  0  0  0
 10  1  1  0  0  0  0
 11  5  1  1  0  0  0
 11 14  1  0  0  0  0
 11  9  1  0  0  0  0
 12 13  1  1  0  0  0
 12  4  1  0  0  0  0
 12  6  1  0  0  0  0
 14 10  1  6  0  0  0
 15 17  2  0  0  0  0
 16 15  1  0  0  0  0
 18 19  1  1  0  0  0
 18 20  1  0  0  0  0
 19 20  1  0  0  0  0
 20 16  1  1  0  0  0
 21 25  1  0  0  0  0
 21 24  1  0  0  0  0
 22 24  1  6  0  0  0
 22 18  1  0  0  0  0
 23 22  1  0  0  0  0
 25 23  1  0  0  0  0
 26 28  1  0  0  0  0
 26 27  1  0  0  0  0
 28  1  1  0  0  0  0
 28 27  1  0  0  0  0
 29 30  1  0  0  0  0
 29 28  1  0  0  0  0
 31 30  1  0  0  0  0
 32 31  1  0  0  0  0
 33 32  1  0  0  0  0
 34 35  1  6  0  0  0
 34 33  1  0  0  0  0
 36 34  1  0  0  0  0
 36 37  1  0  0  0  0
 38 41  1  1  0  0  0
 38 40  1  0  0  0  0
 40 39  1  0  0  0  0
 41 42  1  0  0  0  0
 43 42  1  0  0  0  0
 44 47  1  0  0  0  0
 44 45  1  0  0  0  0
 45 46  2  0  0  0  0
 47 43  1  1  0  0  0
 47 45  1  0  0  0  0
 48 44  1  0  0  0  0
 50 49  1  0  0  0  0
 50 48  1  0  0  0  0
M  END
>  <MODEL>
8

>  <REMARK>
 VINA RESULT:      -5.7      2.149      5.336
  Name = 
  20 active torsions:
  status: ('A' for Active; 'I' for Inactive)
    1  A    between atoms: C_1  and  C_9
    2  A    between atoms: N_4  and  C_11
    3  A    between atoms: C_6  and  C_39
    4  A    between atoms: C_6  and  C_45
    5  A    between atoms: N_10  and  C_36
    6  A    between atoms: C_11  and  C_14
    7  A    between atoms: C_12  and  C_31
    8  A    between atoms: C_12  and  C_37
    9  A    between atoms: C_12  and  N_40
   10  A    between atoms: C_13  and  C_35
   11  A    between atoms: C_14  and  C_39
   12  A    between atoms: C_18  and  C_25
   13  A    between atoms: C_18  and  CA_48
   14  A    between atoms: C_22  and  C_31
   15  A    between atoms: C_22  and  C_45
   16  A    between atoms: C_23  and  C_25
   17  A    between atoms: C_23  and  C_37
   18  A    between atoms: C_29  and  C_36
   19  A    between atoms: C_34  and  N_38
   20  A    between atoms: C_37  and  C_50
                            x       y       z     vdW  Elec       q    Type
                         _______ _______ _______ _____ _____    ______ ____

>  <TORSDO>
F 20

$$$$
=
 OpenBabel11062419153D

 50 55  0  0  1  0  0  0  0  0999 V2000
  193.1240  175.5350  144.5000 C   0  0  1  0  0  3  0  0  0  0  0  0
  193.7600  175.0190  141.0840 F   0  0  0  0  0  0  0  0  0  0  0  0
  192.9910  172.7730  145.3010 O   0  0  0  0  0  0  0  0  0  0  0  0
  197.2300  173.9530  141.5410 C   0  0  0  0  0  2  0  0  0  0  0  0
  196.8130  172.9710  142.5010 O   0  0  0  0  0  0  0  0  0  0  0  0
  194.9720  175.2510  141.7070 C   0  0  2  0  0  0  0  0  0  0  0  0
  193.7990  173.1190  144.3980 C   0  0  0  0  0  0  0  0  0  0  0  0
  195.1270  176.6210  141.9180 O   0  0  0  0  0  1  0  0  0  0  0  0
  194.9040  172.2510  143.9100 C   0  0  2  0  0  3  0  0  0  0  0  0
  193.8050  174.4230  143.8270 N   0  0  0  0  0  0  0  0  0  0  0  0
  195.4290  173.0770  142.7500 C   0  0  1  0  0  3  0  0  0  0  0  0
  196.1030  174.7250  140.7840 C   0  0  1  0  0  3  0  0  0  0  0  0
  196.6440  175.7280  139.9960 F   0  0  0  0  0  0  0  0  0  0  0  0
  195.0370  174.5170  143.0520 C   0  0  1  0  0  3  0  0  0  0  0  0
  194.3790  170.9010  143.5020 C   0  0  0  0  0  0  0  0  0  0  0  0
  193.1030  170.7060  142.8850 N   0  0  0  0  0  2  0  0  0  0  0  0
  195.0450  169.8870  143.8280 O   0  0  0  0  0  0  0  0  0  0  0  0
  191.6560  170.8080  140.9820 C   0  0  2  0  0  3  0  0  0  0  0  0
  190.9980  171.6290  142.0750 C   0  0  0  0  0  2  0  0  0  0  0  0
  192.5110  171.6270  141.9330 C   0  0  1  0  0  3  0  0  0  0  0  0
  192.0570  173.3840  138.3340 C   0  0  0  0  0  2  0  0  0  0  0  0
  191.5100  171.4420  139.5880 C   0  0  1  0  0  3  0  0  0  0  0  0
  190.2550  172.1560  139.3650 N   0  0  0  0  0  2  0  0  0  0  0  0
  192.6240  172.4290  139.3540 C   0  0  0  0  0  2  0  0  0  0  0  0
  190.5580  173.1330  138.3230 C   0  0  0  0  0  2  0  0  0  0  0  0
  191.7190  176.7080  142.7110 C   0  0  0  0  0  2  0  0  0  0  0  0
  191.2280  177.2420  144.0500 C   0  0  0  0  0  2  0  0  0  0  0  0
  191.7150  175.8100  143.9320 C   0  0  0  0  0  0  0  0  0  0  0  0
  190.6430  174.7240  143.8380 C   0  0  0  0  0  2  0  0  0  0  0  0
  189.2880  175.2850  143.4260 C   0  0  0  0  0  2  0  0  0  0  0  0
  188.6960  174.4680  142.2960 C   0  0  0  0  0  2  0  0  0  0  0  0
  187.9420  175.3910  141.3550 C   0  0  0  0  0  2  0  0  0  0  0  0
  187.0770  176.3710  142.1410 C   0  0  0  0  0  2  0  0  0  0  0  0
  187.1300  177.7970  141.5870 C   0  0  2  0  0  3  0  0  0  0  0  0
  188.4360  178.2900  141.6120 O   0  0  0  0  0  1  0  0  0  0  0  0
  186.2520  178.6760  142.3450 N   0  0  0  0  0  2  0  0  0  0  0  0
  185.0060  177.9570  142.5480 C   0  0  0  0  0  1  0  0  0  0  0  0
  193.2210  175.4640  146.0310 C   0  0  1  0  0  3  0  0  0  0  0  0
  194.7610  177.4160  145.7630 C   0  0  0  0  0  1  0  0  0  0  0  0
  194.5110  176.1210  146.5050 C   0  0  0  0  0  2  0  0  0  0  0  0
  192.0470  176.2210  146.6350 C   0  0  0  0  0  2  0  0  0  0  0  0
  191.2670  175.3530  147.6040 C   0  0  0  0  0  2  0  0  0  0  0  0
  189.7760  175.4340  147.2800 C   0  0  0  0  0  2  0  0  0  0  0  0
  187.9440  177.0060  147.0360 N   0  0  0  0  0  0  0  0  0  0  0  0
  189.1270  177.7860  147.6210 C   0  0  0  0  0  0  0  0  0  0  0  0
  189.5950  178.6640  148.3900 O   0  0  0  0  0  0  0  0  0  0  0  0
  189.2740  176.7680  146.6850 C   0  0  1  0  0  3  0  0  0  0  0  0
  186.5220  176.7240  146.9600 C   0  0  0  0  0  2  0  0  0  0  0  0
  185.7460  179.1060  147.0970 C   0  0  0  0  0  1  0  0  0  0  0  0
  185.7920  177.8550  146.2420 C   0  0  0  0  0  2  0  0  0  0  0  0
  1 38  1  1  0  0  0
  4  5  1  0  0  0  0
  6  2  1  6  0  0  0
  6  8  1  0  0  0  0
  6 14  1  0  0  0  0
  7  3  2  0  0  0  0
  9 15  1  6  0  0  0
  9  7  1  0  0  0  0
 10  7  1  0  0  0  0
 10  1  1  0  0  0  0
 11  5  1  1  0  0  0
 11 14  1  0  0  0  0
 11  9  1  0  0  0  0
 12 13  1  1  0  0  0
 12  4  1  0  0  0  0
 12  6  1  0  0  0  0
 14 10  1  6  0  0  0
 15 17  2  0  0  0  0
 16 15  1  0  0  0  0
 18 20  1  0  0  0  0
 18 19  1  1  0  0  0
 20 19  1  0  0  0  0
 20 16  1  1  0  0  0
 21 24  1  0  0  0  0
 22 24  1  1  0  0  0
 22 18  1  0  0  0  0
 23 22  1  0  0  0  0
 25 21  1  0  0  0  0
 25 23  1  0  0  0  0
 26 28  1  0  0  0  0
 26 27  1  0  0  0  0
 28 27  1  0  0  0  0
 28  1  1  0  0  0  0
 29 28  1  0  0  0  0
 30 29  1  0  0  0  0
 31 30  1  0  0  0  0
 32 33  1  0  0  0  0
 32 31  1  0  0  0  0
 34 35  1  1  0  0  0
 34 33  1  0  0  0  0
 34 36  1  0  0  0  0
 36 37  1  0  0  0  0
 38 40  1  1  0  0  0
 38 41  1  0  0  0  0
 39 40  1  0  0  0  0
 41 42  1  0  0  0  0
 43 42  1  0  0  0  0
 44 45  1  0  0  0  0
 45 46  2  0  0  0  0
 47 44  1  0  0  0  0
 47 43  1  1  0  0  0
 47 45  1  0  0  0  0
 48 44  1  0  0  0  0
 50 48  1  0  0  0  0
 50 49  1  0  0  0  0
M  END
>  <MODEL>
9

>  <REMARK>
 VINA RESULT:      -5.6      2.191      5.307
  Name = 
  20 active torsions:
  status: ('A' for Active; 'I' for Inactive)
    1  A    between atoms: C_1  and  C_9
    2  A    between atoms: N_4  and  C_11
    3  A    between atoms: C_6  and  C_39
    4  A    between atoms: C_6  and  C_45
    5  A    between atoms: N_10  and  C_36
    6  A    between atoms: C_11  and  C_14
    7  A    between atoms: C_12  and  C_31
    8  A    between atoms: C_12  and  C_37
    9  A    between atoms: C_12  and  N_40
   10  A    between atoms: C_13  and  C_35
   11  A    between atoms: C_14  and  C_39
   12  A    between atoms: C_18  and  C_25
   13  A    between atoms: C_18  and  CA_48
   14  A    between atoms: C_22  and  C_31
   15  A    between atoms: C_22  and  C_45
   16  A    between atoms: C_23  and  C_25
   17  A    between atoms: C_23  and  C_37
   18  A    between atoms: C_29  and  C_36
   19  A    between atoms: C_34  and  N_38
   20  A    between atoms: C_37  and  C_50
                            x       y       z     vdW  Elec       q    Type
                         _______ _______ _______ _____ _____    ______ ____

>  <TORSDO>
F 20

$$$$
