=
 OpenBabel11062422433D

 29 32  0  0  1  0  0  0  0  0999 V2000
  191.5060  176.3050  144.6100 C   0  0  0  0  0  0  0  0  0  0  0  0
  188.9840  177.0630  143.6280 C   0  0  0  0  0  0  0  0  0  0  0  0
  189.5560  175.8350  143.2400 C   0  0  0  0  0  0  0  0  0  0  0  0
  190.9330  177.5220  145.0010 C   0  0  0  0  0  3  0  0  0  0  0  0
  190.8120  175.4660  143.7320 C   0  0  0  0  0  3  0  0  0  0  0  0
  189.6790  177.8960  144.5130 C   0  0  0  0  0  3  0  0  0  0  0  0
  187.5510  178.1660  141.8960 C   0  0  0  0  0  3  0  0  0  0  0  0
  188.5780  178.4550  141.1670 N   0  0  0  0  0  2  0  0  0  0  0  0
  187.6930  177.4680  143.1400 N   0  0  0  0  0  0  0  0  0  0  0  0
  183.3420  178.6410  143.3430 O   0  0  0  0  0  0  0  0  0  0  0  0
  184.4440  178.2860  143.7290 C   0  0  0  0  0  0  0  0  0  0  0  0
  185.2470  177.2680  143.0690 C   0  0  0  0  0  2  0  0  0  0  0  0
  186.4100  178.2380  144.9740 O   0  0  0  0  0  0  0  0  0  0  0  0
  185.1470  178.8620  144.8890 C   0  0  2  0  0  3  0  0  0  0  0  0
  186.4930  177.2620  143.9440 C   0  0  2  0  0  3  0  0  0  0  0  0
  184.3630  178.6900  146.1930 C   0  0  0  0  0  2  0  0  0  0  0  0
  185.2200  178.2830  147.3160 C   0  0  0  0  0  0  0  0  0  0  0  0
  185.8950  177.9620  148.1990 N   0  0  0  0  0  0  0  0  0  0  0  0
  188.8520  174.9120  142.3480 C   0  0  0  0  0  0  0  0  0  0  0  0
  187.7990  174.0880  142.1060 O   0  0  0  0  0  0  0  0  0  0  0  0
  188.7800  174.2660  141.1870 N   0  0  0  0  0  0  0  0  0  0  0  0
  192.7890  175.8990  145.0950 N   0  0  0  0  0  0  0  0  0  0  0  0
  193.8660  176.3070  144.5580 N   0  0  0  0  0  0  0  0  0  0  0  0
  195.1540  175.8780  145.0780 C   0  0  2  0  0  3  0  0  0  0  0  0
  195.7320  174.7870  144.1940 C   0  0  0  0  0  2  0  0  0  0  0  0
  194.9400  174.8600  146.1820 C   0  0  0  0  0  2  0  0  0  0  0  0
  195.5110  173.7690  145.2990 C   0  0  2  0  0  3  0  0  0  0  0  0
  196.8440  173.3000  145.8590 C   0  0  0  0  0  2  0  0  0  0  0  0
  196.8630  171.7880  145.9610 C   0  0  0  0  0  1  0  0  0  0  0  0
  1  4  1  0  0  0  0
  1 22  1  0  0  0  0
  2  6  1  0  0  0  0
  3  2  2  0  0  0  0
  3  5  1  0  0  0  0
  5  1  2  0  0  0  0
  6  4  2  0  0  0  0
  7  9  1  0  0  0  0
  8  7  2  0  0  0  0
  9  2  1  0  0  0  0
 10 11  2  0  0  0  0
 11 14  1  0  0  0  0
 12 11  1  0  0  0  0
 12 15  1  0  0  0  0
 14 13  1  0  0  0  0
 14 16  1  1  0  0  0
 15  9  1  6  0  0  0
 15 13  1  0  0  0  0
 16 17  1  0  0  0  0
 17 18  3  0  0  0  0
 19  3  1  0  0  0  0
 20 19  1  0  0  0  0
 21 20  1  0  0  0  0
 21 19  2  0  0  0  0
 23 22  2  0  0  0  0
 24 23  1  6  0  0  0
 24 26  1  0  0  0  0
 25 24  1  0  0  0  0
 25 27  1  0  0  0  0
 27 28  1  1  0  0  0
 27 26  1  0  0  0  0
 28 29  1  0  0  0  0
M  END
>  <MODEL>
1

>  <REMARK>
 VINA RESULT:      -6.5      0.000      0.000
  Name = 
  8 active torsions:
  status: ('A' for Active; 'I' for Inactive)
    1  A    between atoms: C_1  and  N_16
    2  A    between atoms: C_2  and  N_20
    3  A    between atoms: C_3  and  C_21
    4  A    between atoms: C_3  and  C_23
    5  A    between atoms: C_4  and  N_12
    6  A    between atoms: C_5  and  C_19
    7  A    between atoms: N_12  and  C_28
    8  A    between atoms: C_14  and  C_26
                            x       y       z     vdW  Elec       q    Type
                         _______ _______ _______ _____ _____    ______ ____

>  <TORSDO>
F 8

$$$$
=
 OpenBabel11062422433D

 29 32  0  0  1  0  0  0  0  0999 V2000
  189.6860  176.8480  145.6620 C   0  0  0  0  0  0  0  0  0  0  0  0
  187.3120  177.7480  144.4530 C   0  0  0  0  0  0  0  0  0  0  0  0
  187.2710  177.1080  145.7080 C   0  0  0  0  0  0  0  0  0  0  0  0
  189.7270  177.4910  144.4170 C   0  0  0  0  0  3  0  0  0  0  0  0
  188.4570  176.6620  146.3020 C   0  0  0  0  0  3  0  0  0  0  0  0
  188.5470  177.9390  143.8190 C   0  0  0  0  0  3  0  0  0  0  0  0
  185.4310  179.3900  144.2860 C   0  0  0  0  0  3  0  0  0  0  0  0
  185.8740  180.0690  145.2920 N   0  0  0  0  0  2  0  0  0  0  0  0
  186.1110  178.2180  143.8190 N   0  0  0  0  0  0  0  0  0  0  0  0
  186.4090  177.5500  139.3680 O   0  0  0  0  0  0  0  0  0  0  0  0
  185.9050  177.6130  140.4780 C   0  0  0  0  0  0  0  0  0  0  0  0
  186.5240  177.0820  141.6830 C   0  0  0  0  0  2  0  0  0  0  0  0
  184.4140  178.1920  142.1690 O   0  0  0  0  0  0  0  0  0  0  0  0
  184.6230  178.2740  140.7750 C   0  0  2  0  0  3  0  0  0  0  0  0
  185.4930  177.4610  142.7360 C   0  0  2  0  0  3  0  0  0  0  0  0
  183.4520  177.6510  140.0100 C   0  0  0  0  0  2  0  0  0  0  0  0
  182.1460  178.0650  140.5420 C   0  0  0  0  0  0  0  0  0  0  0  0
  181.1180  178.3900  140.9620 N   0  0  0  0  0  0  0  0  0  0  0  0
  186.0110  176.9210  146.4290 C   0  0  0  0  0  0  0  0  0  0  0  0
  184.7920  176.3270  146.5270 O   0  0  0  0  0  0  0  0  0  0  0  0
  185.2250  177.2080  147.4640 N   0  0  0  0  0  0  0  0  0  0  0  0
  190.8800  176.3810  146.2950 N   0  0  0  0  0  0  0  0  0  0  0  0
  192.0280  176.5830  145.7870 N   0  0  0  0  0  0  0  0  0  0  0  0
  193.2220  176.0980  146.4580 C   0  0  2  0  0  3  0  0  0  0  0  0
  194.4560  176.4870  145.6650 C   0  0  0  0  0  2  0  0  0  0  0  0
  193.4540  174.6440  146.0910 C   0  0  0  0  0  2  0  0  0  0  0  0
  194.6830  175.0330  145.2940 C   0  0  2  0  0  3  0  0  0  0  0  0
  195.9300  174.5000  145.9810 C   0  0  0  0  0  2  0  0  0  0  0  0
  196.7140  173.6190  145.0280 C   0  0  0  0  0  1  0  0  0  0  0  0
  1 22  1  0  0  0  0
  1  5  1  0  0  0  0
  2  3  1  0  0  0  0
  3  5  2  0  0  0  0
  3 19  1  0  0  0  0
  4  1  2  0  0  0  0
  6  4  1  0  0  0  0
  6  2  2  0  0  0  0
  7  8  2  0  0  0  0
  9  7  1  0  0  0  0
  9  2  1  0  0  0  0
 10 11  2  0  0  0  0
 11 14  1  0  0  0  0
 11 12  1  0  0  0  0
 12 15  1  0  0  0  0
 13 15  1  0  0  0  0
 14 16  1  6  0  0  0
 14 13  1  0  0  0  0
 15  9  1  1  0  0  0
 16 17  1  0  0  0  0
 17 18  3  0  0  0  0
 19 20  1  0  0  0  0
 19 21  2  0  0  0  0
 20 21  1  0  0  0  0
 23 22  2  0  0  0  0
 24 23  1  6  0  0  0
 25 24  1  0  0  0  0
 26 24  1  0  0  0  0
 27 25  1  0  0  0  0
 27 28  1  1  0  0  0
 27 26  1  0  0  0  0
 29 28  1  0  0  0  0
M  END
>  <MODEL>
2

>  <REMARK>
 VINA RESULT:      -6.3      2.480      4.084
  Name = 
  8 active torsions:
  status: ('A' for Active; 'I' for Inactive)
    1  A    between atoms: C_1  and  N_16
    2  A    between atoms: C_2  and  N_20
    3  A    between atoms: C_3  and  C_21
    4  A    between atoms: C_3  and  C_23
    5  A    between atoms: C_4  and  N_12
    6  A    between atoms: C_5  and  C_19
    7  A    between atoms: N_12  and  C_28
    8  A    between atoms: C_14  and  C_26
                            x       y       z     vdW  Elec       q    Type
                         _______ _______ _______ _____ _____    ______ ____

>  <TORSDO>
F 8

$$$$
=
 OpenBabel11062422433D

 29 32  0  0  1  0  0  0  0  0999 V2000
  189.7500  175.8460  145.9580 C   0  0  0  0  0  0  0  0  0  0  0  0
  192.4910  175.2270  145.8840 C   0  0  0  0  0  0  0  0  0  0  0  0
  191.8140  175.5920  144.7040 C   0  0  0  0  0  0  0  0  0  0  0  0
  190.4260  175.4900  147.1340 C   0  0  0  0  0  3  0  0  0  0  0  0
  190.4500  175.8970  144.7490 C   0  0  0  0  0  3  0  0  0  0  0  0
  191.7880  175.1840  147.0950 C   0  0  0  0  0  3  0  0  0  0  0  0
  194.8910  175.9340  145.9620 C   0  0  0  0  0  3  0  0  0  0  0  0
  194.5670  177.1810  146.0660 N   0  0  0  0  0  2  0  0  0  0  0  0
  193.8940  174.9100  145.8690 N   0  0  0  0  0  0  0  0  0  0  0  0
  195.5660  172.1900  142.6830 O   0  0  0  0  0  0  0  0  0  0  0  0
  194.9720  172.5270  143.6940 C   0  0  0  0  0  0  0  0  0  0  0  0
  195.4870  173.4880  144.6560 C   0  0  0  0  0  2  0  0  0  0  0  0
  193.2620  172.7110  145.2620 O   0  0  0  0  0  0  0  0  0  0  0  0
  193.6300  172.0490  144.0700 C   0  0  2  0  0  3  0  0  0  0  0  0
  194.3460  173.5380  145.6630 C   0  0  2  0  0  3  0  0  0  0  0  0
  193.5790  170.5300  144.2500 C   0  0  0  0  0  2  0  0  0  0  0  0
  194.4310  170.0640  145.3540 C   0  0  0  0  0  0  0  0  0  0  0  0
  195.1030  169.6990  146.2230 N   0  0  0  0  0  0  0  0  0  0  0  0
  192.5130  175.6900  143.4210 C   0  0  0  0  0  0  0  0  0  0  0  0
  193.2040  176.4300  142.5150 O   0  0  0  0  0  0  0  0  0  0  0  0
  192.9320  175.1200  142.2940 N   0  0  0  0  0  0  0  0  0  0  0  0
  188.3560  176.1630  145.9720 N   0  0  0  0  0  0  0  0  0  0  0  0
  187.7700  176.5590  147.0290 N   0  0  0  0  0  0  0  0  0  0  0  0
  186.3530  176.8760  147.0080 C   0  0  2  0  0  3  0  0  0  0  0  0
  185.8340  176.8370  145.5820 C   0  0  0  0  0  2  0  0  0  0  0  0
  186.1710  178.3820  147.0250 C   0  0  0  0  0  2  0  0  0  0  0  0
  185.6590  178.3450  145.5990 C   0  0  2  0  0  3  0  0  0  0  0  0
  184.1820  178.7060  145.5740 C   0  0  0  0  0  2  0  0  0  0  0  0
  183.7760  179.1390  144.1790 C   0  0  0  0  0  1  0  0  0  0  0  0
  1 22  1  0  0  0  0
  1  4  1  0  0  0  0
  2  6  1  0  0  0  0
  3  5  1  0  0  0  0
  3  2  2  0  0  0  0
  5  1  2  0  0  0  0
  6  4  2  0  0  0  0
  7  8  2  0  0  0  0
  9  2  1  0  0  0  0
  9  7  1  0  0  0  0
 10 11  2  0  0  0  0
 11 14  1  0  0  0  0
 11 12  1  0  0  0  0
 12 15  1  0  0  0  0
 13 15  1  0  0  0  0
 14 16  1  1  0  0  0
 14 13  1  0  0  0  0
 15  9  1  6  0  0  0
 16 17  1  0  0  0  0
 17 18  3  0  0  0  0
 19  3  1  0  0  0  0
 20 19  1  0  0  0  0
 21 20  1  0  0  0  0
 21 19  2  0  0  0  0
 22 23  2  0  0  0  0
 24 26  1  0  0  0  0
 24 23  1  6  0  0  0
 25 27  1  0  0  0  0
 25 24  1  0  0  0  0
 27 28  1  1  0  0  0
 27 26  1  0  0  0  0
 29 28  1  0  0  0  0
M  END
>  <MODEL>
3

>  <REMARK>
 VINA RESULT:      -6.2      3.406      9.093
  Name = 
  8 active torsions:
  status: ('A' for Active; 'I' for Inactive)
    1  A    between atoms: C_1  and  N_16
    2  A    between atoms: C_2  and  N_20
    3  A    between atoms: C_3  and  C_21
    4  A    between atoms: C_3  and  C_23
    5  A    between atoms: C_4  and  N_12
    6  A    between atoms: C_5  and  C_19
    7  A    between atoms: N_12  and  C_28
    8  A    between atoms: C_14  and  C_26
                            x       y       z     vdW  Elec       q    Type
                         _______ _______ _______ _____ _____    ______ ____

>  <TORSDO>
F 8

$$$$
=
 OpenBabel11062422433D

 29 32  0  0  1  0  0  0  0  0999 V2000
  193.4700  174.0040  144.2270 C   0  0  0  0  0  0  0  0  0  0  0  0
  191.2220  175.6920  144.2370 C   0  0  0  0  0  0  0  0  0  0  0  0
  191.8630  175.3570  145.4460 C   0  0  0  0  0  0  0  0  0  0  0  0
  192.8370  174.3440  143.0240 C   0  0  0  0  0  3  0  0  0  0  0  0
  192.9800  174.5160  145.4320 C   0  0  0  0  0  3  0  0  0  0  0  0
  191.7210  175.1840  143.0300 C   0  0  0  0  0  3  0  0  0  0  0  0
  190.2010  177.9640  143.9830 C   0  0  0  0  0  3  0  0  0  0  0  0
  191.3540  178.5080  143.7760 N   0  0  0  0  0  2  0  0  0  0  0  0
  190.0730  176.5560  144.2190 N   0  0  0  0  0  0  0  0  0  0  0  0
  185.8060  176.6710  142.7610 O   0  0  0  0  0  0  0  0  0  0  0  0
  186.7400  176.5650  143.5390 C   0  0  0  0  0  0  0  0  0  0  0  0
  187.9420  175.7950  143.2650 C   0  0  0  0  0  2  0  0  0  0  0  0
  188.0650  176.9190  145.4200 O   0  0  0  0  0  0  0  0  0  0  0  0
  186.8130  177.2340  144.8500 C   0  0  2  0  0  3  0  0  0  0  0  0
  188.7450  176.0390  144.5350 C   0  0  2  0  0  3  0  0  0  0  0  0
  185.6690  176.8230  145.7810 C   0  0  0  0  0  2  0  0  0  0  0  0
  184.6640  177.8840  145.9420 C   0  0  0  0  0  0  0  0  0  0  0  0
  183.8730  178.7190  146.0680 N   0  0  0  0  0  0  0  0  0  0  0  0
  191.4040  175.8940  146.7280 C   0  0  0  0  0  0  0  0  0  0  0  0
  190.7760  176.8710  147.4340 O   0  0  0  0  0  0  0  0  0  0  0  0
  191.3010  175.7830  148.0510 N   0  0  0  0  0  0  0  0  0  0  0  0
  194.6140  173.1470  144.2470 N   0  0  0  0  0  0  0  0  0  0  0  0
  194.5620  171.9750  144.7380 N   0  0  0  0  0  0  0  0  0  0  0  0
  195.7430  171.1270  144.7390 C   0  0  2  0  0  3  0  0  0  0  0  0
  195.3740  169.7260  145.1910 C   0  0  0  0  0  2  0  0  0  0  0  0
  196.5120  171.3330  146.0300 C   0  0  0  0  0  2  0  0  0  0  0  0
  196.1400  169.9370  146.4850 C   0  0  2  0  0  3  0  0  0  0  0  0
  197.3800  169.0580  146.5140 C   0  0  0  0  0  2  0  0  0  0  0  0
  197.3580  168.1660  147.7400 C   0  0  0  0  0  1  0  0  0  0  0  0
  1 22  1  0  0  0  0
  1  5  1  0  0  0  0
  2  3  1  0  0  0  0
  3 19  1  0  0  0  0
  4  6  1  0  0  0  0
  4  1  2  0  0  0  0
  5  3  2  0  0  0  0
  6  2  2  0  0  0  0
  7  9  1  0  0  0  0
  8  7  2  0  0  0  0
  9  2  1  0  0  0  0
 10 11  2  0  0  0  0
 11 14  1  0  0  0  0
 12 11  1  0  0  0  0
 12 15  1  0  0  0  0
 14 13  1  0  0  0  0
 14 16  1  1  0  0  0
 15  9  1  6  0  0  0
 15 13  1  0  0  0  0
 16 17  1  0  0  0  0
 17 18  3  0  0  0  0
 19 20  1  0  0  0  0
 19 21  2  0  0  0  0
 20 21  1  0  0  0  0
 22 23  2  0  0  0  0
 24 23  1  1  0  0  0
 24 25  1  0  0  0  0
 24 26  1  0  0  0  0
 25 27  1  0  0  0  0
 26 27  1  0  0  0  0
 27 28  1  6  0  0  0
 28 29  1  0  0  0  0
M  END
>  <MODEL>
4

>  <REMARK>
 VINA RESULT:      -6.0      2.506      3.883
  Name = 
  8 active torsions:
  status: ('A' for Active; 'I' for Inactive)
    1  A    between atoms: C_1  and  N_16
    2  A    between atoms: C_2  and  N_20
    3  A    between atoms: C_3  and  C_21
    4  A    between atoms: C_3  and  C_23
    5  A    between atoms: C_4  and  N_12
    6  A    between atoms: C_5  and  C_19
    7  A    between atoms: N_12  and  C_28
    8  A    between atoms: C_14  and  C_26
                            x       y       z     vdW  Elec       q    Type
                         _______ _______ _______ _____ _____    ______ ____

>  <TORSDO>
F 8

$$$$
=
 OpenBabel11062422433D

 29 32  0  0  1  0  0  0  0  0999 V2000
  193.2180  176.1870  144.7750 C   0  0  0  0  0  0  0  0  0  0  0  0
  190.5850  176.3350  145.7500 C   0  0  0  0  0  0  0  0  0  0  0  0
  190.8260  175.9880  144.4060 C   0  0  0  0  0  0  0  0  0  0  0  0
  192.9790  176.5240  146.1140 C   0  0  0  0  0  3  0  0  0  0  0  0
  192.1390  175.9180  143.9280 C   0  0  0  0  0  3  0  0  0  0  0  0
  191.6700  176.5960  146.5970 C   0  0  0  0  0  3  0  0  0  0  0  0
  188.6110  175.2760  146.8660 C   0  0  0  0  0  3  0  0  0  0  0  0
  189.2170  174.1390  146.9610 N   0  0  0  0  0  2  0  0  0  0  0  0
  189.2470  176.4130  146.2700 N   0  0  0  0  0  0  0  0  0  0  0  0
  185.3140  178.2410  147.5100 O   0  0  0  0  0  0  0  0  0  0  0  0
  186.3090  178.0320  146.8340 C   0  0  0  0  0  0  0  0  0  0  0  0
  187.6510  177.9130  147.3800 C   0  0  0  0  0  2  0  0  0  0  0  0
  187.6220  177.5470  144.9740 O   0  0  0  0  0  0  0  0  0  0  0  0
  186.2960  177.8210  145.3760 C   0  0  2  0  0  3  0  0  0  0  0  0
  188.4580  177.6320  146.1200 C   0  0  2  0  0  3  0  0  0  0  0  0
  185.7330  179.0240  144.6150 C   0  0  0  0  0  2  0  0  0  0  0  0
  184.7120  178.6400  143.6310 C   0  0  0  0  0  0  0  0  0  0  0  0
  183.9080  178.3370  142.8550 N   0  0  0  0  0  0  0  0  0  0  0  0
  189.7280  175.6670  143.4920 C   0  0  0  0  0  0  0  0  0  0  0  0
  188.9900  175.9710  142.3920 O   0  0  0  0  0  0  0  0  0  0  0  0
  188.7260  174.8670  143.1340 N   0  0  0  0  0  0  0  0  0  0  0  0
  194.5480  176.1070  144.2570 N   0  0  0  0  0  0  0  0  0  0  0  0
  194.7740  175.8320  143.0360 N   0  0  0  0  0  0  0  0  0  0  0  0
  196.1380  175.7620  142.5400 C   0  0  2  0  0  3  0  0  0  0  0  0
  196.3370  176.7720  141.4250 C   0  0  0  0  0  2  0  0  0  0  0  0
  196.2530  174.6360  141.5310 C   0  0  0  0  0  2  0  0  0  0  0  0
  196.4460  175.6440  140.4150 C   0  0  2  0  0  3  0  0  0  0  0  0
  197.8640  175.5500  139.8780 C   0  0  0  0  0  2  0  0  0  0  0  0
  197.8400  175.3930  138.3700 C   0  0  0  0  0  1  0  0  0  0  0  0
  1  4  1  0  0  0  0
  2  9  1  0  0  0  0
  2  6  1  0  0  0  0
  3  2  2  0  0  0  0
  4  6  2  0  0  0  0
  5  3  1  0  0  0  0
  5  1  2  0  0  0  0
  7  8  2  0  0  0  0
  9  7  1  0  0  0  0
 11 12  1  0  0  0  0
 11 10  2  0  0  0  0
 13 14  1  0  0  0  0
 13 15  1  0  0  0  0
 14 16  1  6  0  0  0
 14 11  1  0  0  0  0
 15  9  1  1  0  0  0
 15 12  1  0  0  0  0
 17 16  1  0  0  0  0
 18 17  3  0  0  0  0
 19  3  1  0  0  0  0
 20 21  1  0  0  0  0
 20 19  1  0  0  0  0
 21 19  2  0  0  0  0
 22  1  1  0  0  0  0
 23 22  2  0  0  0  0
 24 23  1  6  0  0  0
 25 24  1  0  0  0  0
 26 24  1  0  0  0  0
 27 28  1  1  0  0  0
 27 25  1  0  0  0  0
 27 26  1  0  0  0  0
 29 28  1  0  0  0  0
M  END
>  <MODEL>
5

>  <REMARK>
 VINA RESULT:      -6.0      2.725      3.980
  Name = 
  8 active torsions:
  status: ('A' for Active; 'I' for Inactive)
    1  A    between atoms: C_1  and  N_16
    2  A    between atoms: C_2  and  N_20
    3  A    between atoms: C_3  and  C_21
    4  A    between atoms: C_3  and  C_23
    5  A    between atoms: C_4  and  N_12
    6  A    between atoms: C_5  and  C_19
    7  A    between atoms: N_12  and  C_28
    8  A    between atoms: C_14  and  C_26
                            x       y       z     vdW  Elec       q    Type
                         _______ _______ _______ _____ _____    ______ ____

>  <TORSDO>
F 8

$$$$
=
 OpenBabel11062422433D

 29 32  0  0  1  0  0  0  0  0999 V2000
  189.6630  172.9710  141.6960 C   0  0  0  0  0  0  0  0  0  0  0  0
  188.8490  175.3710  142.9130 C   0  0  0  0  0  0  0  0  0  0  0  0
  189.4390  174.3490  143.6840 C   0  0  0  0  0  0  0  0  0  0  0  0
  189.0830  173.9900  140.9290 C   0  0  0  0  0  3  0  0  0  0  0  0
  189.8400  173.1570  143.0700 C   0  0  0  0  0  3  0  0  0  0  0  0
  188.6800  175.1820  141.5350 C   0  0  0  0  0  3  0  0  0  0  0  0
  189.2970  177.7450  143.5670 C   0  0  0  0  0  3  0  0  0  0  0  0
  190.4910  177.7030  143.0730 N   0  0  0  0  0  2  0  0  0  0  0  0
  188.4280  176.6070  143.5150 N   0  0  0  0  0  0  0  0  0  0  0  0
  184.1760  177.9050  142.7550 O   0  0  0  0  0  0  0  0  0  0  0  0
  185.1980  177.6650  143.3760 C   0  0  0  0  0  0  0  0  0  0  0  0
  185.9980  176.4650  143.1920 C   0  0  0  0  0  2  0  0  0  0  0  0
  187.0000  177.9740  144.8180 O   0  0  0  0  0  0  0  0  0  0  0  0
  185.8020  178.5710  144.3700 C   0  0  2  0  0  3  0  0  0  0  0  0
  187.1320  176.7110  144.1780 C   0  0  2  0  0  3  0  0  0  0  0  0
  184.8630  178.8600  145.5440 C   0  0  0  0  0  2  0  0  0  0  0  0
  185.5840  179.0260  146.8140 C   0  0  0  0  0  0  0  0  0  0  0  0
  186.1530  179.1570  147.8130 N   0  0  0  0  0  0  0  0  0  0  0  0
  189.6720  174.5130  145.1190 C   0  0  0  0  0  0  0  0  0  0  0  0
  189.1950  174.5250  146.3920 O   0  0  0  0  0  0  0  0  0  0  0  0
  190.5050  174.7600  146.1280 N   0  0  0  0  0  0  0  0  0  0  0  0
  190.0830  171.7410  141.0990 N   0  0  0  0  0  0  0  0  0  0  0  0
  190.0910  171.5790  139.8380 N   0  0  0  0  0  0  0  0  0  0  0  0
  190.5270  170.3180  139.2630 C   0  0  2  0  0  3  0  0  0  0  0  0
  191.7260  170.5470  138.3620 C   0  0  0  0  0  2  0  0  0  0  0  0
  189.6820  169.9970  138.0460 C   0  0  0  0  0  2  0  0  0  0  0  0
  190.8770  170.2310  137.1440 C   0  0  2  0  0  3  0  0  0  0  0  0
  191.3150  168.9160  136.5200 C   0  0  0  0  0  2  0  0  0  0  0  0
  191.6750  169.1250  135.0620 C   0  0  0  0  0  1  0  0  0  0  0  0
  1  5  1  0  0  0  0
  2  9  1  0  0  0  0
  2  3  1  0  0  0  0
  3 19  1  0  0  0  0
  4  6  1  0  0  0  0
  4  1  2  0  0  0  0
  5  3  2  0  0  0  0
  6  2  2  0  0  0  0
  8  7  2  0  0  0  0
  9  7  1  0  0  0  0
 10 11  2  0  0  0  0
 11 14  1  0  0  0  0
 12 11  1  0  0  0  0
 12 15  1  0  0  0  0
 14 13  1  0  0  0  0
 14 16  1  1  0  0  0
 15  9  1  6  0  0  0
 15 13  1  0  0  0  0
 16 17  1  0  0  0  0
 17 18  3  0  0  0  0
 19 21  2  0  0  0  0
 19 20  1  0  0  0  0
 21 20  1  0  0  0  0
 22  1  1  0  0  0  0
 23 22  2  0  0  0  0
 24 23  1  6  0  0  0
 25 24  1  0  0  0  0
 26 24  1  0  0  0  0
 27 28  1  1  0  0  0
 27 26  1  0  0  0  0
 27 25  1  0  0  0  0
 29 28  1  0  0  0  0
M  END
>  <MODEL>
6

>  <REMARK>
 VINA RESULT:      -6.0      3.845      5.656
  Name = 
  8 active torsions:
  status: ('A' for Active; 'I' for Inactive)
    1  A    between atoms: C_1  and  N_16
    2  A    between atoms: C_2  and  N_20
    3  A    between atoms: C_3  and  C_21
    4  A    between atoms: C_3  and  C_23
    5  A    between atoms: C_4  and  N_12
    6  A    between atoms: C_5  and  C_19
    7  A    between atoms: N_12  and  C_28
    8  A    between atoms: C_14  and  C_26
                            x       y       z     vdW  Elec       q    Type
                         _______ _______ _______ _____ _____    ______ ____

>  <TORSDO>
F 8

$$$$
=
 OpenBabel11062422433D

 29 32  0  0  1  0  0  0  0  0999 V2000
  192.0010  176.7870  143.1910 C   0  0  0  0  0  0  0  0  0  0  0  0
  189.2660  177.1860  143.7040 C   0  0  0  0  0  0  0  0  0  0  0  0
  189.6810  176.1690  142.8210 C   0  0  0  0  0  0  0  0  0  0  0  0
  191.5880  177.7930  144.0740 C   0  0  0  0  0  3  0  0  0  0  0  0
  191.0440  175.9780  142.5710 C   0  0  0  0  0  3  0  0  0  0  0  0
  190.2290  177.9890  144.3290 C   0  0  0  0  0  3  0  0  0  0  0  0
  187.2060  176.7130  145.0450 C   0  0  0  0  0  3  0  0  0  0  0  0
  187.8340  175.8670  145.7940 N   0  0  0  0  0  2  0  0  0  0  0  0
  187.8720  177.4050  143.9820 N   0  0  0  0  0  0  0  0  0  0  0  0
  183.7310  179.1610  143.6430 O   0  0  0  0  0  0  0  0  0  0  0  0
  184.8220  178.7430  143.2900 C   0  0  0  0  0  0  0  0  0  0  0  0
  186.0730  179.0760  143.9540 C   0  0  0  0  0  2  0  0  0  0  0  0
  186.4140  177.5120  142.1200 O   0  0  0  0  0  0  0  0  0  0  0  0
  185.0340  177.8060  142.1740 C   0  0  2  0  0  3  0  0  0  0  0  0
  187.0680  178.2730  143.1280 C   0  0  2  0  0  3  0  0  0  0  0  0
  184.5430  178.3680  140.8370 C   0  0  0  0  0  2  0  0  0  0  0  0
  183.1090  178.1310  140.6190 C   0  0  0  0  0  0  0  0  0  0  0  0
  181.9800  177.9450  140.4480 N   0  0  0  0  0  0  0  0  0  0  0  0
  188.7170  175.2780  142.1750 C   0  0  0  0  0  0  0  0  0  0  0  0
  188.1480  174.7880  141.0420 O   0  0  0  0  0  0  0  0  0  0  0  0
  187.7570  174.3590  142.2680 N   0  0  0  0  0  0  0  0  0  0  0  0
  193.3870  176.5670  142.9140 N   0  0  0  0  0  0  0  0  0  0  0  0
  193.8130  175.4460  142.4890 N   0  0  0  0  0  0  0  0  0  0  0  0
  195.2270  175.2560  142.2140 C   0  0  2  0  0  3  0  0  0  0  0  0
  195.7720  176.4520  141.4540 C   0  0  0  0  0  2  0  0  0  0  0  0
  195.3910  174.4010  140.9720 C   0  0  0  0  0  2  0  0  0  0  0  0
  195.9300  175.5950  140.2100 C   0  0  2  0  0  3  0  0  0  0  0  0
  197.4020  175.3830  139.8980 C   0  0  0  0  0  2  0  0  0  0  0  0
  197.6260  175.4190  138.3980 C   0  0  0  0  0  1  0  0  0  0  0  0
  1  4  1  0  0  0  0
  2  9  1  0  0  0  0
  2  6  1  0  0  0  0
  3  2  2  0  0  0  0
  4  6  2  0  0  0  0
  5  3  1  0  0  0  0
  5  1  2  0  0  0  0
  7  8  2  0  0  0  0
  9  7  1  0  0  0  0
 11 10  2  0  0  0  0
 11 12  1  0  0  0  0
 13 14  1  0  0  0  0
 13 15  1  0  0  0  0
 14 16  1  6  0  0  0
 14 11  1  0  0  0  0
 15 12  1  0  0  0  0
 15  9  1  1  0  0  0
 17 16  1  0  0  0  0
 18 17  3  0  0  0  0
 19 21  2  0  0  0  0
 19  3  1  0  0  0  0
 20 19  1  0  0  0  0
 20 21  1  0  0  0  0
 22  1  1  0  0  0  0
 23 22  2  0  0  0  0
 24 23  1  6  0  0  0
 25 24  1  0  0  0  0
 26 24  1  0  0  0  0
 27 28  1  1  0  0  0
 27 26  1  0  0  0  0
 27 25  1  0  0  0  0
 29 28  1  0  0  0  0
M  END
>  <MODEL>
7

>  <REMARK>
 VINA RESULT:      -5.9      2.655      3.842
  Name = 
  8 active torsions:
  status: ('A' for Active; 'I' for Inactive)
    1  A    between atoms: C_1  and  N_16
    2  A    between atoms: C_2  and  N_20
    3  A    between atoms: C_3  and  C_21
    4  A    between atoms: C_3  and  C_23
    5  A    between atoms: C_4  and  N_12
    6  A    between atoms: C_5  and  C_19
    7  A    between atoms: N_12  and  C_28
    8  A    between atoms: C_14  and  C_26
                            x       y       z     vdW  Elec       q    Type
                         _______ _______ _______ _____ _____    ______ ____

>  <TORSDO>
F 8

$$$$
=
 OpenBabel11062422433D

 29 32  0  0  1  0  0  0  0  0999 V2000
  190.5550  176.4550  143.6140 C   0  0  0  0  0  0  0  0  0  0  0  0
  193.0200  175.1450  143.9490 C   0  0  0  0  0  0  0  0  0  0  0  0
  192.7520  176.3420  144.6440 C   0  0  0  0  0  0  0  0  0  0  0  0
  190.8190  175.2600  142.9300 C   0  0  0  0  0  3  0  0  0  0  0  0
  191.5230  176.9870  144.4700 C   0  0  0  0  0  3  0  0  0  0  0  0
  192.0440  174.6110  143.0980 C   0  0  0  0  0  3  0  0  0  0  0  0
  195.3760  174.7030  143.2270 C   0  0  0  0  0  3  0  0  0  0  0  0
  195.2850  175.5500  142.2560 N   0  0  0  0  0  2  0  0  0  0  0  0
  194.2730  174.4580  144.1090 N   0  0  0  0  0  0  0  0  0  0  0  0
  197.2860  171.4870  145.6720 O   0  0  0  0  0  0  0  0  0  0  0  0
  196.1970  171.9760  145.4160 C   0  0  0  0  0  0  0  0  0  0  0  0
  195.8630  173.3750  145.6340 C   0  0  0  0  0  2  0  0  0  0  0  0
  194.0210  172.1580  144.6090 O   0  0  0  0  0  0  0  0  0  0  0  0
  195.0760  171.2400  144.8060 C   0  0  2  0  0  3  0  0  0  0  0  0
  194.4310  173.4190  145.1220 C   0  0  2  0  0  3  0  0  0  0  0  0
  194.6170  170.0570  145.6630 C   0  0  0  0  0  2  0  0  0  0  0  0
  193.7070  169.1570  144.9410 C   0  0  0  0  0  0  0  0  0  0  0  0
  192.9910  168.4490  144.3720 N   0  0  0  0  0  0  0  0  0  0  0  0
  193.7230  176.9200  145.5740 C   0  0  0  0  0  0  0  0  0  0  0  0
  194.1570  177.1130  146.8470 O   0  0  0  0  0  0  0  0  0  0  0  0
  194.8230  177.6390  145.7890 N   0  0  0  0  0  0  0  0  0  0  0  0
  189.3090  177.1390  143.4580 N   0  0  0  0  0  0  0  0  0  0  0  0
  188.2790  176.5540  142.9940 N   0  0  0  0  0  0  0  0  0  0  0  0
  187.0270  177.2770  142.8510 C   0  0  2  0  0  3  0  0  0  0  0  0
  186.9670  178.4120  143.8580 C   0  0  0  0  0  2  0  0  0  0  0  0
  185.9340  176.5530  143.6130 C   0  0  0  0  0  2  0  0  0  0  0  0
  185.8770  177.6820  144.6220 C   0  0  2  0  0  3  0  0  0  0  0  0
  184.5550  178.4200  144.4920 C   0  0  0  0  0  2  0  0  0  0  0  0
  183.9740  178.6960  145.8660 C   0  0  0  0  0  1  0  0  0  0  0  0
  1  5  1  0  0  0  0
  2  9  1  0  0  0  0
  2  3  1  0  0  0  0
  3 19  1  0  0  0  0
  4  6  1  0  0  0  0
  4  1  2  0  0  0  0
  5  3  2  0  0  0  0
  6  2  2  0  0  0  0
  7  9  1  0  0  0  0
  8  7  2  0  0  0  0
 11 12  1  0  0  0  0
 11 10  2  0  0  0  0
 13 14  1  0  0  0  0
 13 15  1  0  0  0  0
 14 11  1  0  0  0  0
 14 16  1  1  0  0  0
 15  9  1  6  0  0  0
 15 12  1  0  0  0  0
 17 16  1  0  0  0  0
 18 17  3  0  0  0  0
 19 21  2  0  0  0  0
 19 20  1  0  0  0  0
 21 20  1  0  0  0  0
 22  1  1  0  0  0  0
 23 22  2  0  0  0  0
 24 23  1  1  0  0  0
 24 26  1  0  0  0  0
 24 25  1  0  0  0  0
 25 27  1  0  0  0  0
 26 27  1  0  0  0  0
 27 28  1  6  0  0  0
 28 29  1  0  0  0  0
M  END
>  <MODEL>
8

>  <REMARK>
 VINA RESULT:      -5.9      3.489      9.517
  Name = 
  8 active torsions:
  status: ('A' for Active; 'I' for Inactive)
    1  A    between atoms: C_1  and  N_16
    2  A    between atoms: C_2  and  N_20
    3  A    between atoms: C_3  and  C_21
    4  A    between atoms: C_3  and  C_23
    5  A    between atoms: C_4  and  N_12
    6  A    between atoms: C_5  and  C_19
    7  A    between atoms: N_12  and  C_28
    8  A    between atoms: C_14  and  C_26
                            x       y       z     vdW  Elec       q    Type
                         _______ _______ _______ _____ _____    ______ ____

>  <TORSDO>
F 8

$$$$
=
 OpenBabel11062422433D

 29 32  0  0  1  0  0  0  0  0999 V2000
  189.2370  173.1790  141.5890 C   0  0  0  0  0  0  0  0  0  0  0  0
  188.7030  175.5600  142.9840 C   0  0  0  0  0  0  0  0  0  0  0  0
  188.3540  175.4410  141.6240 C   0  0  0  0  0  0  0  0  0  0  0  0
  189.5770  173.2950  142.9440 C   0  0  0  0  0  3  0  0  0  0  0  0
  188.6250  174.2530  140.9370 C   0  0  0  0  0  3  0  0  0  0  0  0
  189.3090  174.4780  143.6360 C   0  0  0  0  0  3  0  0  0  0  0  0
  189.3930  177.8320  143.7760 C   0  0  0  0  0  3  0  0  0  0  0  0
  190.5320  177.7460  143.1730 N   0  0  0  0  0  2  0  0  0  0  0  0
  188.4350  176.7680  143.7160 N   0  0  0  0  0  0  0  0  0  0  0  0
  184.1090  177.9810  143.3140 O   0  0  0  0  0  0  0  0  0  0  0  0
  185.1930  177.7920  143.8410 C   0  0  0  0  0  0  0  0  0  0  0  0
  185.9870  176.5870  143.6580 C   0  0  0  0  0  2  0  0  0  0  0  0
  187.1290  178.2130  145.0620 O   0  0  0  0  0  0  0  0  0  0  0  0
  185.8830  178.7690  144.7010 C   0  0  2  0  0  3  0  0  0  0  0  0
  187.2120  176.9100  144.5010 C   0  0  2  0  0  3  0  0  0  0  0  0
  185.0670  179.1330  145.9440 C   0  0  0  0  0  2  0  0  0  0  0  0
  185.5210  178.4190  147.1460 C   0  0  0  0  0  0  0  0  0  0  0  0
  185.8800  177.8570  148.0920 N   0  0  0  0  0  0  0  0  0  0  0  0
  187.6830  176.5280  140.9090 C   0  0  0  0  0  0  0  0  0  0  0  0
  187.5380  177.8570  140.6630 O   0  0  0  0  0  0  0  0  0  0  0  0
  186.7710  176.9350  140.0290 N   0  0  0  0  0  0  0  0  0  0  0  0
  189.5010  171.9780  140.8590 N   0  0  0  0  0  0  0  0  0  0  0  0
  190.3370  171.9480  139.9010 N   0  0  0  0  0  0  0  0  0  0  0  0
  190.5840  170.7100  139.1820 C   0  0  2  0  0  3  0  0  0  0  0  0
  191.8020  170.8630  138.2900 C   0  0  0  0  0  2  0  0  0  0  0  0
  189.6990  170.6540  137.9510 C   0  0  0  0  0  2  0  0  0  0  0  0
  190.9140  170.8130  137.0600 C   0  0  2  0  0  3  0  0  0  0  0  0
  191.1550  169.5270  136.2860 C   0  0  0  0  0  2  0  0  0  0  0  0
  191.3340  169.8330  134.8110 C   0  0  0  0  0  1  0  0  0  0  0  0
  1  4  1  0  0  0  0
  2  6  1  0  0  0  0
  2  9  1  0  0  0  0
  3  2  2  0  0  0  0
  4  6  2  0  0  0  0
  5  1  2  0  0  0  0
  5  3  1  0  0  0  0
  8  7  2  0  0  0  0
  9  7  1  0  0  0  0
 10 11  2  0  0  0  0
 11 14  1  0  0  0  0
 12 11  1  0  0  0  0
 12 15  1  0  0  0  0
 14 13  1  0  0  0  0
 14 16  1  1  0  0  0
 15  9  1  6  0  0  0
 15 13  1  0  0  0  0
 16 17  1  0  0  0  0
 17 18  3  0  0  0  0
 19  3  1  0  0  0  0
 20 19  1  0  0  0  0
 21 20  1  0  0  0  0
 21 19  2  0  0  0  0
 22  1  1  0  0  0  0
 23 22  2  0  0  0  0
 24 23  1  1  0  0  0
 25 24  1  0  0  0  0
 26 24  1  0  0  0  0
 27 28  1  6  0  0  0
 27 26  1  0  0  0  0
 27 25  1  0  0  0  0
 29 28  1  0  0  0  0
M  END
>  <MODEL>
9

>  <REMARK>
 VINA RESULT:      -5.8      3.671      5.547
  Name = 
  8 active torsions:
  status: ('A' for Active; 'I' for Inactive)
    1  A    between atoms: C_1  and  N_16
    2  A    between atoms: C_2  and  N_20
    3  A    between atoms: C_3  and  C_21
    4  A    between atoms: C_3  and  C_23
    5  A    between atoms: C_4  and  N_12
    6  A    between atoms: C_5  and  C_19
    7  A    between atoms: N_12  and  C_28
    8  A    between atoms: C_14  and  C_26
                            x       y       z     vdW  Elec       q    Type
                         _______ _______ _______ _____ _____    ______ ____

>  <TORSDO>
F 8

$$$$
