=
 OpenBabel11062421143D

 33 36  0  0  1  0  0  0  0  0999 V2000
  189.9370  174.6970  142.9890 C   0  0  2  0  0  3  0  0  0  0  0  0
  188.0730  174.9040  141.5230 C   0  0  0  0  0  1  0  0  0  0  0  0
  192.0010  173.3250  142.5310 C   0  0  0  0  0  2  0  0  0  0  0  0
  191.4810  174.6290  143.1620 C   0  0  1  0  0  0  0  0  0  0  0  0
  189.5290  174.8840  141.5890 N   0  0  0  0  0  0  0  0  0  0  0  0
  189.8610  173.7460  139.2120 O   0  0  0  0  0  0  0  0  0  0  0  0
  191.7720  173.2460  141.0260 C   0  0  0  0  0  2  0  0  0  0  0  0
  192.1430  175.8330  142.4930 C   0  0  0  0  0  1  0  0  0  0  0  0
  190.0500  173.4970  140.6830 S   0  0  0  0  0  0  0  0  0  0  0  0
  189.4120  175.7730  143.8260 N   0  0  0  0  0  2  0  0  0  0  0  0
  189.2740  172.2750  141.0910 O   0  0  0  0  0  0  0  0  0  0  0  0
  190.9500  175.0280  145.5830 C   0  0  0  0  0  0  0  0  0  0  0  0
  191.3210  175.0620  146.9260 O   0  0  0  0  0  1  0  0  0  0  0  0
  191.8490  174.6560  144.6450 C   0  0  0  0  0  0  0  0  0  0  0  0
  189.5180  175.3360  145.2140 C   0  0  1  0  0  3  0  0  0  0  0  0
  193.7320  176.8110  145.1890 N   0  0  0  0  0  1  0  0  0  0  0  0
  193.6890  173.0730  145.1990 C   0  0  0  0  0  3  0  0  0  0  0  0
  195.8840  173.8510  145.8540 C   0  0  0  0  0  3  0  0  0  0  0  0
  195.4560  175.1740  145.7180 C   0  0  0  0  0  3  0  0  0  0  0  0
  193.2510  174.3970  145.0540 C   0  0  0  0  0  0  0  0  0  0  0  0
  194.1440  175.4530  145.3210 C   0  0  0  0  0  0  0  0  0  0  0  0
  195.0010  172.8010  145.5950 C   0  0  0  0  0  3  0  0  0  0  0  0
  188.9440  176.4100  146.1290 C   0  0  0  0  0  2  0  0  0  0  0  0
  183.9860  178.5150  146.7200 O   0  0  0  0  0  0  0  0  0  0  0  0
  187.4330  176.2780  146.2520 C   0  0  2  0  0  3  0  0  0  0  0  0
  185.8460  177.4870  147.7470 C   0  0  0  0  0  3  0  0  0  0  0  0
  185.6360  177.6810  145.2210 C   0  0  0  0  0  0  0  0  0  0  0  0
  186.7620  176.9640  145.0890 C   0  0  0  0  0  3  0  0  0  0  0  0
  186.9560  176.7620  147.6020 C   0  0  0  0  0  3  0  0  0  0  0  0
  185.0820  177.9140  146.5690 C   0  0  0  0  0  0  0  0  0  0  0  0
  185.1650  177.4570  142.7800 C   0  0  0  0  0  1  0  0  0  0  0  0
  185.4970  179.7140  143.7850 C   0  0  0  0  0  1  0  0  0  0  0  0
  184.9790  178.3070  144.0250 C   0  0  0  0  0  3  0  0  0  0  0  0
  1  4  1  0  0  0  0
  1 10  1  1  0  0  0
  2  5  1  0  0  0  0
  3  4  1  0  0  0  0
  4  8  1  6  0  0  0
  4 14  1  0  0  0  0
  5  1  1  0  0  0  0
  6  9  2  0  0  0  0
  7  3  1  0  0  0  0
  9  7  1  0  0  0  0
  9 11  2  0  0  0  0
  9  5  1  0  0  0  0
 10 15  1  0  0  0  0
 12 13  1  0  0  0  0
 14 20  1  0  0  0  0
 14 12  2  0  0  0  0
 15 12  1  0  0  0  0
 15 23  1  1  0  0  0
 16 21  1  0  0  0  0
 17 22  1  0  0  0  0
 19 18  1  0  0  0  0
 20 17  2  0  0  0  0
 20 21  1  0  0  0  0
 21 19  2  0  0  0  0
 22 18  2  0  0  0  0
 25 23  1  1  0  0  0
 25 29  1  0  0  0  0
 27 30  1  0  0  0  0
 28 27  2  0  0  0  0
 28 25  1  0  0  0  0
 29 26  2  0  0  0  0
 30 24  2  0  0  0  0
 30 26  1  0  0  0  0
 31 33  1  0  0  0  0
 32 33  1  0  0  0  0
 33 27  1  0  0  0  0
M  END
>  <MODEL>
1

>  <REMARK>
 VINA RESULT:      -8.4      0.000      0.000
  Name = 
  4 active torsions:
  status: ('A' for Active; 'I' for Inactive)
    1  A    between atoms: C_2  and  C_16
    2  A    between atoms: C_2  and  C_33
    3  A    between atoms: C_9  and  C_32
    4  A    between atoms: C_21  and  C_23
                            x       y       z     vdW  Elec       q    Type
                         _______ _______ _______ _____ _____    ______ ____

>  <TORSDO>
F 4

$$$$
=
 OpenBabel11062421143D

 33 36  0  0  1  0  0  0  0  0999 V2000
  190.3190  173.7500  142.8410 C   0  0  2  0  0  3  0  0  0  0  0  0
  188.3400  173.0140  141.7410 C   0  0  0  0  0  1  0  0  0  0  0  0
  192.5810  172.6570  142.6480 C   0  0  0  0  0  2  0  0  0  0  0  0
  191.8510  174.0060  142.7740 C   0  0  1  0  0  0  0  0  0  0  0  0
  189.7680  173.2540  141.5710 N   0  0  0  0  0  0  0  0  0  0  0  0
  190.1390  171.2770  139.8370 O   0  0  0  0  0  0  0  0  0  0  0  0
  192.2530  171.9070  141.3620 C   0  0  0  0  0  2  0  0  0  0  0  0
  192.1870  174.8960  141.5780 C   0  0  0  0  0  1  0  0  0  0  0  0
  190.4940  171.7140  141.2310 S   0  0  0  0  0  0  0  0  0  0  0  0
  189.6480  174.9830  143.2460 N   0  0  0  0  0  2  0  0  0  0  0  0
  190.0290  170.6780  142.2190 O   0  0  0  0  0  0  0  0  0  0  0  0
  191.4460  175.3130  144.8790 C   0  0  0  0  0  0  0  0  0  0  0  0
  191.9090  175.9760  146.0150 O   0  0  0  0  0  1  0  0  0  0  0  0
  192.3230  174.7220  144.0390 C   0  0  0  0  0  0  0  0  0  0  0  0
  189.9560  175.2040  144.6560 C   0  0  1  0  0  3  0  0  0  0  0  0
  193.8270  172.9030  145.7480 N   0  0  0  0  0  1  0  0  0  0  0  0
  194.4620  175.9420  143.6660 C   0  0  0  0  0  3  0  0  0  0  0  0
  196.5330  175.2240  144.6900 C   0  0  0  0  0  3  0  0  0  0  0  0
  195.8610  174.1650  145.3070 C   0  0  0  0  0  3  0  0  0  0  0  0
  193.7770  174.8860  144.2840 C   0  0  0  0  0  0  0  0  0  0  0  0
  194.4880  173.9900  145.1070 C   0  0  0  0  0  0  0  0  0  0  0  0
  195.8330  176.1120  143.8700 C   0  0  0  0  0  3  0  0  0  0  0  0
  189.2440  176.4610  145.1390 C   0  0  0  0  0  2  0  0  0  0  0  0
  184.3350  177.9830  146.8570 O   0  0  0  0  0  0  0  0  0  0  0  0
  187.7790  176.1820  145.4420 C   0  0  2  0  0  3  0  0  0  0  0  0
  186.3830  176.9260  147.3690 C   0  0  0  0  0  3  0  0  0  0  0  0
  185.7740  177.6110  144.9980 C   0  0  0  0  0  0  0  0  0  0  0  0
  186.9010  177.0320  144.5580 C   0  0  0  0  0  3  0  0  0  0  0  0
  187.4930  176.3410  146.9180 C   0  0  0  0  0  3  0  0  0  0  0  0
  185.4250  177.5190  146.4280 C   0  0  0  0  0  0  0  0  0  0  0  0
  184.8410  177.7770  142.6880 C   0  0  0  0  0  1  0  0  0  0  0  0
  185.3890  179.8470  143.9640 C   0  0  0  0  0  1  0  0  0  0  0  0
  184.9090  178.4100  144.0670 C   0  0  0  0  0  3  0  0  0  0  0  0
  1 10  1  6  0  0  0
  3  4  1  0  0  0  0
  4  8  1  6  0  0  0
  4  1  1  0  0  0  0
  4 14  1  0  0  0  0
  5  2  1  0  0  0  0
  5  1  1  0  0  0  0
  6  9  2  0  0  0  0
  7  3  1  0  0  0  0
  9  7  1  0  0  0  0
  9  5  1  0  0  0  0
  9 11  2  0  0  0  0
 10 15  1  0  0  0  0
 12 13  1  0  0  0  0
 14 20  1  0  0  0  0
 14 12  2  0  0  0  0
 15 12  1  0  0  0  0
 15 23  1  6  0  0  0
 17 22  2  0  0  0  0
 17 20  1  0  0  0  0
 18 19  2  0  0  0  0
 20 21  2  0  0  0  0
 21 19  1  0  0  0  0
 21 16  1  0  0  0  0
 22 18  1  0  0  0  0
 25 23  1  1  0  0  0
 25 29  1  0  0  0  0
 27 30  1  0  0  0  0
 28 27  2  0  0  0  0
 28 25  1  0  0  0  0
 29 26  2  0  0  0  0
 30 24  2  0  0  0  0
 30 26  1  0  0  0  0
 31 33  1  0  0  0  0
 32 33  1  0  0  0  0
 33 27  1  0  0  0  0
M  END
>  <MODEL>
2

>  <REMARK>
 VINA RESULT:      -8.3      1.363      1.625
  Name = 
  4 active torsions:
  status: ('A' for Active; 'I' for Inactive)
    1  A    between atoms: C_2  and  C_16
    2  A    between atoms: C_2  and  C_33
    3  A    between atoms: C_9  and  C_32
    4  A    between atoms: C_21  and  C_23
                            x       y       z     vdW  Elec       q    Type
                         _______ _______ _______ _____ _____    ______ ____

>  <TORSDO>
F 4

$$$$
=
 OpenBabel11062421143D

 33 36  0  0  1  0  0  0  0  0999 V2000
  190.1920  175.8100  144.3610 C   0  0  2  0  0  3  0  0  0  0  0  0
  192.4650  175.1190  144.1970 C   0  0  0  0  0  1  0  0  0  0  0  0
  189.0840  176.6780  146.4510 C   0  0  0  0  0  2  0  0  0  0  0  0
  189.1570  176.8260  144.9210 C   0  0  1  0  0  0  0  0  0  0  0  0
  191.5750  176.1400  144.7370 N   0  0  0  0  0  0  0  0  0  0  0  0
  193.0280  176.5960  146.9120 O   0  0  0  0  0  0  0  0  0  0  0  0
  190.3910  177.0220  147.1570 C   0  0  0  0  0  2  0  0  0  0  0  0
  189.5620  178.2530  144.5520 C   0  0  0  0  0  1  0  0  0  0  0  0
  191.7020  176.0450  146.4660 S   0  0  0  0  0  0  0  0  0  0  0  0
  190.0560  175.7460  142.9070 N   0  0  0  0  0  2  0  0  0  0  0  0
  191.5650  174.6210  146.9320 O   0  0  0  0  0  0  0  0  0  0  0  0
  187.6260  175.7790  143.2290 C   0  0  0  0  0  0  0  0  0  0  0  0
  186.3570  175.5720  142.6920 O   0  0  0  0  0  1  0  0  0  0  0  0
  187.7770  176.5600  144.3200 C   0  0  0  0  0  0  0  0  0  0  0  0
  188.8030  175.0560  142.6180 C   0  0  1  0  0  3  0  0  0  0  0  0
  186.6710  178.9300  143.0360 N   0  0  0  0  0  1  0  0  0  0  0  0
  185.9760  176.7940  146.0240 C   0  0  0  0  0  3  0  0  0  0  0  0
  184.3400  178.5730  145.9120 C   0  0  0  0  0  3  0  0  0  0  0  0
  184.9470  179.0580  144.7500 C   0  0  0  0  0  3  0  0  0  0  0  0
  186.5960  177.2760  144.8620 C   0  0  0  0  0  0  0  0  0  0  0  0
  186.0700  178.4150  144.2210 C   0  0  0  0  0  0  0  0  0  0  0  0
  184.8550  177.4410  146.5480 C   0  0  0  0  0  3  0  0  0  0  0  0
  188.6330  174.9250  141.1090 C   0  0  0  0  0  2  0  0  0  0  0  0
  190.3650  170.5300  138.4550 O   0  0  0  0  0  0  0  0  0  0  0  0
  188.5030  173.4670  140.6940 C   0  0  2  0  0  3  0  0  0  0  0  0
  188.9250  172.4000  138.4810 C   0  0  0  0  0  3  0  0  0  0  0  0
  190.2750  171.7100  140.5200 C   0  0  0  0  0  0  0  0  0  0  0  0
  189.6700  172.6750  141.2280 C   0  0  0  0  0  3  0  0  0  0  0  0
  188.3190  173.3460  139.1980 C   0  0  0  0  0  3  0  0  0  0  0  0
  189.8720  171.4790  139.1200 C   0  0  0  0  0  0  0  0  0  0  0  0
  190.8940  169.7020  141.8680 C   0  0  0  0  0  1  0  0  0  0  0  0
  192.2660  171.7770  142.0200 C   0  0  0  0  0  1  0  0  0  0  0  0
  191.4040  170.9170  141.1130 C   0  0  0  0  0  3  0  0  0  0  0  0
  1 10  1  6  0  0  0
  1  5  1  0  0  0  0
  1  4  1  0  0  0  0
  2  5  1  0  0  0  0
  3  7  1  0  0  0  0
  4  8  1  6  0  0  0
  4  3  1  0  0  0  0
  5  9  1  0  0  0  0
  9  6  2  0  0  0  0
  9 11  2  0  0  0  0
  9  7  1  0  0  0  0
 12 14  2  0  0  0  0
 13 12  1  0  0  0  0
 14 20  1  0  0  0  0
 14  4  1  0  0  0  0
 15 23  1  6  0  0  0
 15 10  1  0  0  0  0
 15 12  1  0  0  0  0
 16 21  1  0  0  0  0
 17 22  1  0  0  0  0
 18 22  2  0  0  0  0
 19 18  1  0  0  0  0
 20 17  2  0  0  0  0
 21 19  2  0  0  0  0
 21 20  1  0  0  0  0
 24 30  2  0  0  0  0
 25 23  1  6  0  0  0
 25 28  1  0  0  0  0
 26 30  1  0  0  0  0
 26 29  2  0  0  0  0
 27 33  1  0  0  0  0
 27 28  2  0  0  0  0
 29 25  1  0  0  0  0
 30 27  1  0  0  0  0
 33 31  1  0  0  0  0
 33 32  1  0  0  0  0
M  END
>  <MODEL>
3

>  <REMARK>
 VINA RESULT:      -8.3      2.472      7.945
  Name = 
  4 active torsions:
  status: ('A' for Active; 'I' for Inactive)
    1  A    between atoms: C_2  and  C_16
    2  A    between atoms: C_2  and  C_33
    3  A    between atoms: C_9  and  C_32
    4  A    between atoms: C_21  and  C_23
                            x       y       z     vdW  Elec       q    Type
                         _______ _______ _______ _____ _____    ______ ____

>  <TORSDO>
F 4

$$$$
=
 OpenBabel11062421143D

 33 36  0  0  1  0  0  0  0  0999 V2000
  192.1530  175.2990  144.4700 C   0  0  2  0  0  3  0  0  0  0  0  0
  192.9040  176.3750  146.4570 C   0  0  0  0  0  1  0  0  0  0  0  0
  193.6390  174.1490  142.7910 C   0  0  0  0  0  2  0  0  0  0  0  0
  192.2720  174.0940  143.4940 C   0  0  1  0  0  0  0  0  0  0  0  0
  193.0620  175.1910  145.6210 N   0  0  0  0  0  0  0  0  0  0  0  0
  195.6480  174.8770  146.1380 O   0  0  0  0  0  0  0  0  0  0  0  0
  194.8190  173.9970  143.7440 C   0  0  0  0  0  2  0  0  0  0  0  0
  192.1290  172.7790  144.2580 C   0  0  0  0  0  1  0  0  0  0  0  0
  194.6940  175.2170  145.0270 S   0  0  0  0  0  0  0  0  0  0  0  0
  190.7680  175.4140  144.9180 N   0  0  0  0  0  2  0  0  0  0  0  0
  195.0330  176.5710  144.4660 O   0  0  0  0  0  0  0  0  0  0  0  0
  190.0830  174.9510  142.6100 C   0  0  0  0  0  0  0  0  0  0  0  0
  189.0760  174.9660  141.6470 O   0  0  0  0  0  1  0  0  0  0  0  0
  191.1600  174.1520  142.4470 C   0  0  0  0  0  0  0  0  0  0  0  0
  189.9820  175.8950  143.7850 C   0  0  1  0  0  3  0  0  0  0  0  0
  189.6940  171.6340  142.4390 N   0  0  0  0  0  1  0  0  0  0  0  0
  191.9470  173.5580  140.1600 C   0  0  0  0  0  3  0  0  0  0  0  0
  191.2730  171.5040  139.0750 C   0  0  0  0  0  3  0  0  0  0  0  0
  190.5160  171.1590  140.1970 C   0  0  0  0  0  3  0  0  0  0  0  0
  191.1960  173.2180  141.2940 C   0  0  0  0  0  0  0  0  0  0  0  0
  190.4720  172.0100  141.3060 C   0  0  0  0  0  0  0  0  0  0  0  0
  191.9880  172.7030  139.0560 C   0  0  0  0  0  3  0  0  0  0  0  0
  188.5310  176.0720  144.2130 C   0  0  0  0  0  2  0  0  0  0  0  0
  184.8360  180.0350  144.1720 O   0  0  0  0  0  0  0  0  0  0  0  0
  188.1350  177.5410  144.2220 C   0  0  2  0  0  3  0  0  0  0  0  0
  186.3530  178.7170  142.9340 C   0  0  0  0  0  3  0  0  0  0  0  0
  186.2870  178.6710  145.4750 C   0  0  0  0  0  0  0  0  0  0  0  0
  187.3500  177.8530  145.4720 C   0  0  0  0  0  3  0  0  0  0  0  0
  187.4200  177.9160  142.9450 C   0  0  0  0  0  3  0  0  0  0  0  0
  185.7820  179.2030  144.1950 C   0  0  0  0  0  0  0  0  0  0  0  0
  186.4610  178.7790  147.9620 C   0  0  0  0  0  1  0  0  0  0  0  0
  184.2970  178.1650  146.8890 C   0  0  0  0  0  1  0  0  0  0  0  0
  185.5660  178.9870  146.7530 C   0  0  0  0  0  3  0  0  0  0  0  0
  1 10  1  1  0  0  0
  1  5  1  0  0  0  0
  3  4  1  0  0  0  0
  3  7  1  0  0  0  0
  4  8  1  1  0  0  0
  4  1  1  0  0  0  0
  5  2  1  0  0  0  0
  7  9  1  0  0  0  0
  9  5  1  0  0  0  0
  9  6  2  0  0  0  0
 11  9  2  0  0  0  0
 12 15  1  0  0  0  0
 13 12  1  0  0  0  0
 14 12  2  0  0  0  0
 14  4  1  0  0  0  0
 15 23  1  1  0  0  0
 15 10  1  0  0  0  0
 17 20  1  0  0  0  0
 18 19  2  0  0  0  0
 19 21  1  0  0  0  0
 20 21  2  0  0  0  0
 20 14  1  0  0  0  0
 21 16  1  0  0  0  0
 22 18  1  0  0  0  0
 22 17  2  0  0  0  0
 24 30  2  0  0  0  0
 25 23  1  6  0  0  0
 25 28  1  0  0  0  0
 26 29  2  0  0  0  0
 26 30  1  0  0  0  0
 27 33  1  0  0  0  0
 28 27  2  0  0  0  0
 29 25  1  0  0  0  0
 30 27  1  0  0  0  0
 33 32  1  0  0  0  0
 33 31  1  0  0  0  0
M  END
>  <MODEL>
4

>  <REMARK>
 VINA RESULT:      -8.2      2.351      5.014
  Name = 
  4 active torsions:
  status: ('A' for Active; 'I' for Inactive)
    1  A    between atoms: C_2  and  C_16
    2  A    between atoms: C_2  and  C_33
    3  A    between atoms: C_9  and  C_32
    4  A    between atoms: C_21  and  C_23
                            x       y       z     vdW  Elec       q    Type
                         _______ _______ _______ _____ _____    ______ ____

>  <TORSDO>
F 4

$$$$
=
 OpenBabel11062421143D

 33 36  0  0  1  0  0  0  0  0999 V2000
  193.0250  175.8130  144.7140 C   0  0  2  0  0  3  0  0  0  0  0  0
  194.3310  176.6560  146.5180 C   0  0  0  0  0  1  0  0  0  0  0  0
  193.7760  174.0500  143.0760 C   0  0  0  0  0  2  0  0  0  0  0  0
  192.5720  174.5880  143.8700 C   0  0  1  0  0  0  0  0  0  0  0  0
  193.9360  175.4450  145.8070 N   0  0  0  0  0  0  0  0  0  0  0  0
  196.2430  174.1850  146.1850 O   0  0  0  0  0  0  0  0  0  0  0  0
  194.8990  173.5210  143.9610 C   0  0  0  0  0  2  0  0  0  0  0  0
  192.0150  173.4940  144.7810 C   0  0  0  0  0  1  0  0  0  0  0  0
  195.3830  174.7860  145.1080 S   0  0  0  0  0  0  0  0  0  0  0  0
  191.8430  176.4940  145.2360 N   0  0  0  0  0  2  0  0  0  0  0  0
  196.1550  175.8520  144.3810 O   0  0  0  0  0  0  0  0  0  0  0  0
  190.8000  176.1630  143.0430 C   0  0  0  0  0  0  0  0  0  0  0  0
  189.7820  176.4980  142.1520 O   0  0  0  0  0  1  0  0  0  0  0  0
  191.4650  174.9960  142.8980 C   0  0  0  0  0  0  0  0  0  0  0  0
  191.1900  177.1570  144.1120 C   0  0  1  0  0  3  0  0  0  0  0  0
  189.1370  173.2810  143.2500 N   0  0  0  0  0  1  0  0  0  0  0  0
  191.7340  173.9610  140.6490 C   0  0  0  0  0  3  0  0  0  0  0  0
  190.2080  172.2690  139.8360 C   0  0  0  0  0  3  0  0  0  0  0  0
  189.4880  172.3430  141.0310 C   0  0  0  0  0  3  0  0  0  0  0  0
  191.0220  174.0400  141.8540 C   0  0  0  0  0  0  0  0  0  0  0  0
  189.8880  173.2250  142.0400 C   0  0  0  0  0  0  0  0  0  0  0  0
  191.3300  173.0780  139.6450 C   0  0  0  0  0  3  0  0  0  0  0  0
  189.9690  177.9190  144.6120 C   0  0  0  0  0  2  0  0  0  0  0  0
  185.0880  176.6960  146.6230 O   0  0  0  0  0  0  0  0  0  0  0  0
  188.7660  176.9990  144.7540 C   0  0  2  0  0  3  0  0  0  0  0  0
  187.4280  176.4300  146.7800 C   0  0  0  0  0  3  0  0  0  0  0  0
  186.3320  177.5770  144.7940 C   0  0  0  0  0  0  0  0  0  0  0  0
  187.5340  177.6770  144.2080 C   0  0  0  0  0  3  0  0  0  0  0  0
  188.6160  176.5210  146.1800 C   0  0  0  0  0  3  0  0  0  0  0  0
  186.2140  176.8760  146.0860 C   0  0  0  0  0  0  0  0  0  0  0  0
  184.8650  177.7240  142.7800 C   0  0  0  0  0  1  0  0  0  0  0  0
  185.2630  179.7450  144.1830 C   0  0  0  0  0  1  0  0  0  0  0  0
  185.1250  178.2330  144.1870 C   0  0  0  0  0  3  0  0  0  0  0  0
  1 10  1  1  0  0  0
  1  5  1  0  0  0  0
  3  4  1  0  0  0  0
  3  7  1  0  0  0  0
  4  1  1  0  0  0  0
  4  8  1  1  0  0  0
  5  2  1  0  0  0  0
  7  9  1  0  0  0  0
  9  5  1  0  0  0  0
  9  6  2  0  0  0  0
 11  9  2  0  0  0  0
 12 15  1  0  0  0  0
 13 12  1  0  0  0  0
 14 12  2  0  0  0  0
 14  4  1  0  0  0  0
 15 23  1  1  0  0  0
 15 10  1  0  0  0  0
 17 20  1  0  0  0  0
 18 19  2  0  0  0  0
 19 21  1  0  0  0  0
 20 21  2  0  0  0  0
 20 14  1  0  0  0  0
 21 16  1  0  0  0  0
 22 18  1  0  0  0  0
 22 17  2  0  0  0  0
 25 23  1  1  0  0  0
 25 29  1  0  0  0  0
 27 30  1  0  0  0  0
 28 25  1  0  0  0  0
 28 27  2  0  0  0  0
 29 26  2  0  0  0  0
 30 24  2  0  0  0  0
 30 26  1  0  0  0  0
 31 33  1  0  0  0  0
 32 33  1  0  0  0  0
 33 27  1  0  0  0  0
M  END
>  <MODEL>
5

>  <REMARK>
 VINA RESULT:      -8.2      2.407      4.750
  Name = 
  4 active torsions:
  status: ('A' for Active; 'I' for Inactive)
    1  A    between atoms: C_2  and  C_16
    2  A    between atoms: C_2  and  C_33
    3  A    between atoms: C_9  and  C_32
    4  A    between atoms: C_21  and  C_23
                            x       y       z     vdW  Elec       q    Type
                         _______ _______ _______ _____ _____    ______ ____

>  <TORSDO>
F 4

$$$$
=
 OpenBabel11062421143D

 33 36  0  0  1  0  0  0  0  0999 V2000
  192.1910  175.0800  144.4600 C   0  0  2  0  0  3  0  0  0  0  0  0
  192.9600  176.4460  146.2510 C   0  0  0  0  0  1  0  0  0  0  0  0
  193.6610  173.6840  142.9620 C   0  0  0  0  0  2  0  0  0  0  0  0
  192.3000  173.7400  143.6790 C   0  0  1  0  0  0  0  0  0  0  0  0
  193.1100  175.1480  145.6050 N   0  0  0  0  0  0  0  0  0  0  0  0
  195.7010  174.9130  146.1400 O   0  0  0  0  0  0  0  0  0  0  0  0
  194.8490  173.6770  143.9170 C   0  0  0  0  0  2  0  0  0  0  0  0
  192.1640  172.5570  144.6360 C   0  0  0  0  0  1  0  0  0  0  0  0
  194.7370  175.0800  144.9990 S   0  0  0  0  0  0  0  0  0  0  0  0
  190.8100  175.2650  144.8970 N   0  0  0  0  0  2  0  0  0  0  0  0
  195.0710  176.3310  144.2340 O   0  0  0  0  0  0  0  0  0  0  0  0
  190.1040  174.4550  142.6940 C   0  0  0  0  0  0  0  0  0  0  0  0
  189.0880  174.3240  141.7490 O   0  0  0  0  0  1  0  0  0  0  0  0
  191.1790  173.6380  142.6450 C   0  0  0  0  0  0  0  0  0  0  0  0
  190.0140  175.5680  143.7110 C   0  0  1  0  0  3  0  0  0  0  0  0
  192.1400  174.0300  139.9230 N   0  0  0  0  0  1  0  0  0  0  0  0
  190.7640  171.2620  142.0250 C   0  0  0  0  0  3  0  0  0  0  0  0
  191.2580  170.4190  139.8120 C   0  0  0  0  0  3  0  0  0  0  0  0
  191.7040  171.6860  139.4280 C   0  0  0  0  0  3  0  0  0  0  0  0
  191.2030  172.5390  141.6490 C   0  0  0  0  0  0  0  0  0  0  0  0
  191.6810  172.7470  140.3400 C   0  0  0  0  0  0  0  0  0  0  0  0
  190.7880  170.2070  141.1100 C   0  0  0  0  0  3  0  0  0  0  0  0
  188.5670  175.8110  144.1200 C   0  0  0  0  0  2  0  0  0  0  0  0
  185.1010  179.9690  143.8880 O   0  0  0  0  0  0  0  0  0  0  0  0
  188.2470  177.2980  144.1550 C   0  0  2  0  0  3  0  0  0  0  0  0
  186.6680  178.6190  142.7500 C   0  0  0  0  0  3  0  0  0  0  0  0
  186.3410  178.4770  145.2670 C   0  0  0  0  0  0  0  0  0  0  0  0
  187.3560  177.6030  145.3330 C   0  0  0  0  0  3  0  0  0  0  0  0
  187.6850  177.7610  142.8310 C   0  0  0  0  0  3  0  0  0  0  0  0
  185.9960  179.0870  143.9690 C   0  0  0  0  0  0  0  0  0  0  0  0
  186.3140  178.6220  147.7590 C   0  0  0  0  0  1  0  0  0  0  0  0
  184.2650  177.9160  146.5280 C   0  0  0  0  0  1  0  0  0  0  0  0
  185.5110  178.7830  146.4800 C   0  0  0  0  0  3  0  0  0  0  0  0
  1 10  1  1  0  0  0
  1  5  1  0  0  0  0
  3  4  1  0  0  0  0
  3  7  1  0  0  0  0
  4  1  1  0  0  0  0
  4  8  1  1  0  0  0
  5  2  1  0  0  0  0
  7  9  1  0  0  0  0
  9  5  1  0  0  0  0
  9  6  2  0  0  0  0
 11  9  2  0  0  0  0
 12 15  1  0  0  0  0
 13 12  1  0  0  0  0
 14 12  2  0  0  0  0
 14  4  1  0  0  0  0
 15 23  1  1  0  0  0
 15 10  1  0  0  0  0
 16 21  1  0  0  0  0
 18 22  1  0  0  0  0
 19 18  2  0  0  0  0
 19 21  1  0  0  0  0
 20 17  1  0  0  0  0
 20 14  1  0  0  0  0
 21 20  2  0  0  0  0
 22 17  2  0  0  0  0
 24 30  2  0  0  0  0
 25 23  1  6  0  0  0
 25 28  1  0  0  0  0
 26 29  2  0  0  0  0
 26 30  1  0  0  0  0
 27 28  2  0  0  0  0
 27 33  1  0  0  0  0
 29 25  1  0  0  0  0
 30 27  1  0  0  0  0
 33 32  1  0  0  0  0
 33 31  1  0  0  0  0
M  END
>  <MODEL>
6

>  <REMARK>
 VINA RESULT:      -8.1      2.398      4.895
  Name = 
  4 active torsions:
  status: ('A' for Active; 'I' for Inactive)
    1  A    between atoms: C_2  and  C_16
    2  A    between atoms: C_2  and  C_33
    3  A    between atoms: C_9  and  C_32
    4  A    between atoms: C_21  and  C_23
                            x       y       z     vdW  Elec       q    Type
                         _______ _______ _______ _____ _____    ______ ____

>  <TORSDO>
F 4

$$$$
=
 OpenBabel11062421143D

 33 36  0  0  1  0  0  0  0  0999 V2000
  191.6700  173.4590  143.8520 C   0  0  2  0  0  3  0  0  0  0  0  0
  193.0150  171.6920  142.9960 C   0  0  0  0  0  1  0  0  0  0  0  0
  189.3290  174.0030  143.0930 C   0  0  0  0  0  2  0  0  0  0  0  0
  190.2670  173.9490  144.3120 C   0  0  1  0  0  0  0  0  0  0  0  0
  191.6730  172.0490  143.4370 N   0  0  0  0  0  0  0  0  0  0  0  0
  190.4250  170.4350  141.7370 O   0  0  0  0  0  0  0  0  0  0  0  0
  189.0790  172.6400  142.4590 C   0  0  0  0  0  2  0  0  0  0  0  0
  189.6970  173.0040  145.3690 C   0  0  0  0  0  1  0  0  0  0  0  0
  190.6350  171.8900  142.0540 S   0  0  0  0  0  0  0  0  0  0  0  0
  192.6280  173.6800  144.9330 N   0  0  0  0  0  2  0  0  0  0  0  0
  191.2310  172.5850  140.8600 O   0  0  0  0  0  0  0  0  0  0  0  0
  191.5630  175.8560  145.3050 C   0  0  0  0  0  0  0  0  0  0  0  0
  191.6230  177.1210  145.8890 O   0  0  0  0  0  1  0  0  0  0  0  0
  190.3710  175.3410  144.9340 C   0  0  0  0  0  0  0  0  0  0  0  0
  192.8520  175.1190  145.0300 C   0  0  1  0  0  3  0  0  0  0  0  0
  189.3070  177.4160  143.1870 N   0  0  0  0  0  1  0  0  0  0  0  0
  188.4340  175.7850  146.4350 C   0  0  0  0  0  3  0  0  0  0  0  0
  186.7650  177.4530  145.9010 C   0  0  0  0  0  3  0  0  0  0  0  0
  187.4490  177.7600  144.7220 C   0  0  0  0  0  3  0  0  0  0  0  0
  189.1310  176.0890  145.2570 C   0  0  0  0  0  0  0  0  0  0  0  0
  188.6280  177.0830  144.3950 C   0  0  0  0  0  0  0  0  0  0  0  0
  187.2580  176.4650  146.7570 C   0  0  0  0  0  3  0  0  0  0  0  0
  193.8790  175.3990  146.1200 C   0  0  0  0  0  2  0  0  0  0  0  0
  197.8720  173.4820  142.9980 O   0  0  0  0  0  0  0  0  0  0  0  0
  195.2870  175.4650  145.5460 C   0  0  2  0  0  3  0  0  0  0  0  0
  196.9340  173.6340  145.1590 C   0  0  0  0  0  3  0  0  0  0  0  0
  196.0640  175.0160  143.2110 C   0  0  0  0  0  0  0  0  0  0  0  0
  195.2240  175.6400  144.0500 C   0  0  0  0  0  3  0  0  0  0  0  0
  196.1050  174.2730  145.9860 C   0  0  0  0  0  3  0  0  0  0  0  0
  197.0180  174.0270  143.7470 C   0  0  0  0  0  0  0  0  0  0  0  0
  196.0490  176.7410  141.4070 C   0  0  0  0  0  1  0  0  0  0  0  0
  194.7440  174.6350  141.1300 C   0  0  0  0  0  1  0  0  0  0  0  0
  195.9920  175.2580  141.7310 C   0  0  0  0  0  3  0  0  0  0  0  0
  1  4  1  0  0  0  0
  1 10  1  1  0  0  0
  2  5  1  0  0  0  0
  3  4  1  0  0  0  0
  4 14  1  0  0  0  0
  4  8  1  1  0  0  0
  5  1  1  0  0  0  0
  6  9  2  0  0  0  0
  7  3  1  0  0  0  0
  9  7  1  0  0  0  0
  9  5  1  0  0  0  0
 10 15  1  0  0  0  0
 11  9  2  0  0  0  0
 12 13  1  0  0  0  0
 14 20  1  0  0  0  0
 14 12  2  0  0  0  0
 15 12  1  0  0  0  0
 15 23  1  1  0  0  0
 16 21  1  0  0  0  0
 17 22  1  0  0  0  0
 18 22  2  0  0  0  0
 19 18  1  0  0  0  0
 20 17  2  0  0  0  0
 21 19  2  0  0  0  0
 21 20  1  0  0  0  0
 24 30  2  0  0  0  0
 25 29  1  0  0  0  0
 25 23  1  6  0  0  0
 26 29  2  0  0  0  0
 27 30  1  0  0  0  0
 27 28  2  0  0  0  0
 28 25  1  0  0  0  0
 30 26  1  0  0  0  0
 31 33  1  0  0  0  0
 32 33  1  0  0  0  0
 33 27  1  0  0  0  0
M  END
>  <MODEL>
7

>  <REMARK>
 VINA RESULT:      -8.0      2.470      7.413
  Name = 
  4 active torsions:
  status: ('A' for Active; 'I' for Inactive)
    1  A    between atoms: C_2  and  C_16
    2  A    between atoms: C_2  and  C_33
    3  A    between atoms: C_9  and  C_32
    4  A    between atoms: C_21  and  C_23
                            x       y       z     vdW  Elec       q    Type
                         _______ _______ _______ _____ _____    ______ ____

>  <TORSDO>
F 4

$$$$
=
 OpenBabel11062421143D

 33 36  0  0  1  0  0  0  0  0999 V2000
  191.3040  174.2700  142.5230 C   0  0  2  0  0  3  0  0  0  0  0  0
  189.2840  173.9790  141.2980 C   0  0  0  0  0  1  0  0  0  0  0  0
  192.8840  172.4190  143.1810 C   0  0  0  0  0  2  0  0  0  0  0  0
  192.7980  173.8850  142.7190 C   0  0  1  0  0  0  0  0  0  0  0  0
  190.6840  173.5820  141.3820 N   0  0  0  0  0  0  0  0  0  0  0  0
  190.2880  171.1190  140.4720 O   0  0  0  0  0  0  0  0  0  0  0  0
  192.3560  171.4270  142.1520 C   0  0  0  0  0  2  0  0  0  0  0  0
  193.5670  174.0660  141.4110 C   0  0  0  0  0  1  0  0  0  0  0  0
  190.6980  171.8760  141.7040 S   0  0  0  0  0  0  0  0  0  0  0  0
  191.2030  175.7190  142.3680 N   0  0  0  0  0  2  0  0  0  0  0  0
  189.7650  171.5420  142.8360 O   0  0  0  0  0  0  0  0  0  0  0  0
  192.8490  175.9320  144.1720 C   0  0  0  0  0  0  0  0  0  0  0  0
  193.4710  176.7440  145.1190 O   0  0  0  0  0  1  0  0  0  0  0  0
  193.4430  174.7870  143.7710 C   0  0  0  0  0  0  0  0  0  0  0  0
  191.4770  176.3170  143.6710 C   0  0  1  0  0  3  0  0  0  0  0  0
  195.8210  176.1120  142.7340 N   0  0  0  0  0  1  0  0  0  0  0  0
  194.9610  173.5120  145.2780 C   0  0  0  0  0  3  0  0  0  0  0  0
  197.3560  173.8570  145.2610 C   0  0  0  0  0  3  0  0  0  0  0  0
  197.2100  174.8180  144.2570 C   0  0  0  0  0  3  0  0  0  0  0  0
  194.8050  174.4700  144.2670 C   0  0  0  0  0  0  0  0  0  0  0  0
  195.9420  175.1300  143.7580 C   0  0  0  0  0  0  0  0  0  0  0  0
  196.2310  173.2050  145.7710 C   0  0  0  0  0  3  0  0  0  0  0  0
  191.3430  177.8310  143.5720 C   0  0  0  0  0  2  0  0  0  0  0  0
  186.0160  176.8500  143.7200 O   0  0  0  0  0  0  0  0  0  0  0  0
  189.9000  178.2710  143.7700 C   0  0  2  0  0  3  0  0  0  0  0  0
  187.8580  177.6520  142.4810 C   0  0  0  0  0  3  0  0  0  0  0  0
  188.0380  177.0920  144.9530 C   0  0  0  0  0  0  0  0  0  0  0  0
  189.2990  177.5460  144.9480 C   0  0  0  0  0  3  0  0  0  0  0  0
  189.1080  178.1160  142.4920 C   0  0  0  0  0  3  0  0  0  0  0  0
  187.2280  177.1940  143.7250 C   0  0  0  0  0  0  0  0  0  0  0  0
  186.8220  177.4190  147.1090 C   0  0  0  0  0  1  0  0  0  0  0  0
  188.5310  175.6170  146.9020 C   0  0  0  0  0  1  0  0  0  0  0  0
  187.4700  176.4180  146.1690 C   0  0  0  0  0  3  0  0  0  0  0  0
  1 10  1  6  0  0  0
  1  4  1  0  0  0  0
  2  5  1  0  0  0  0
  4  8  1  6  0  0  0
  4  3  1  0  0  0  0
  4 14  1  0  0  0  0
  5  9  1  0  0  0  0
  5  1  1  0  0  0  0
  6  9  2  0  0  0  0
  7  3  1  0  0  0  0
  9  7  1  0  0  0  0
  9 11  2  0  0  0  0
 10 15  1  0  0  0  0
 12 13  1  0  0  0  0
 14 12  2  0  0  0  0
 14 20  1  0  0  0  0
 15 23  1  6  0  0  0
 15 12  1  0  0  0  0
 16 21  1  0  0  0  0
 17 22  1  0  0  0  0
 18 22  2  0  0  0  0
 19 18  1  0  0  0  0
 20 17  2  0  0  0  0
 21 19  2  0  0  0  0
 21 20  1  0  0  0  0
 24 30  2  0  0  0  0
 25 23  1  6  0  0  0
 25 28  1  0  0  0  0
 26 29  2  0  0  0  0
 26 30  1  0  0  0  0
 27 33  1  0  0  0  0
 28 27  2  0  0  0  0
 29 25  1  0  0  0  0
 30 27  1  0  0  0  0
 33 32  1  0  0  0  0
 33 31  1  0  0  0  0
M  END
>  <MODEL>
8

>  <REMARK>
 VINA RESULT:      -7.9      2.027      3.078
  Name = 
  4 active torsions:
  status: ('A' for Active; 'I' for Inactive)
    1  A    between atoms: C_2  and  C_16
    2  A    between atoms: C_2  and  C_33
    3  A    between atoms: C_9  and  C_32
    4  A    between atoms: C_21  and  C_23
                            x       y       z     vdW  Elec       q    Type
                         _______ _______ _______ _____ _____    ______ ____

>  <TORSDO>
F 4

$$$$
=
 OpenBabel11062421143D

 33 36  0  0  1  0  0  0  0  0999 V2000
  190.3260  175.6890  144.6200 C   0  0  2  0  0  3  0  0  0  0  0  0
  192.5610  174.8930  144.8110 C   0  0  0  0  0  1  0  0  0  0  0  0
  189.0730  176.9470  146.4090 C   0  0  0  0  0  2  0  0  0  0  0  0
  189.3000  176.8250  144.8920 C   0  0  1  0  0  0  0  0  0  0  0  0
  191.6820  176.0250  145.0770 N   0  0  0  0  0  0  0  0  0  0  0  0
  192.9440  176.7940  147.2840 O   0  0  0  0  0  0  0  0  0  0  0  0
  190.3240  177.3560  147.1790 C   0  0  0  0  0  2  0  0  0  0  0  0
  189.8170  178.1500  144.3330 C   0  0  0  0  0  1  0  0  0  0  0  0
  191.6380  176.2260  146.8020 S   0  0  0  0  0  0  0  0  0  0  0  0
  190.3250  175.3790  143.1920 N   0  0  0  0  0  2  0  0  0  0  0  0
  191.3780  174.9100  147.4830 O   0  0  0  0  0  0  0  0  0  0  0  0
  187.8820  175.5620  143.2500 C   0  0  0  0  0  0  0  0  0  0  0  0
  186.6600  175.3140  142.6270 O   0  0  0  0  0  1  0  0  0  0  0  0
  187.9710  176.5130  144.2040 C   0  0  0  0  0  0  0  0  0  0  0  0
  189.0690  174.6990  142.8940 C   0  0  1  0  0  3  0  0  0  0  0  0
  187.1230  178.6630  142.4310 N   0  0  0  0  0  1  0  0  0  0  0  0
  186.0320  177.1090  145.6500 C   0  0  0  0  0  3  0  0  0  0  0  0
  184.5150  178.9020  145.0710 C   0  0  0  0  0  3  0  0  0  0  0  0
  185.2550  179.1530  143.9130 C   0  0  0  0  0  3  0  0  0  0  0  0
  186.7850  177.3560  144.4930 C   0  0  0  0  0  0  0  0  0  0  0  0
  186.3860  178.3860  143.6180 C   0  0  0  0  0  0  0  0  0  0  0  0
  184.9040  177.8790  145.9390 C   0  0  0  0  0  3  0  0  0  0  0  0
  189.0370  174.3160  141.4200 C   0  0  0  0  0  2  0  0  0  0  0  0
  191.2700  169.9950  139.0320 O   0  0  0  0  0  0  0  0  0  0  0  0
  190.2350  173.4540  141.0480 C   0  0  2  0  0  3  0  0  0  0  0  0
  190.4620  170.9720  141.0230 C   0  0  0  0  0  3  0  0  0  0  0  0
  190.7480  172.3130  138.8820 C   0  0  0  0  0  0  0  0  0  0  0  0
  190.3990  173.4220  139.5500 C   0  0  0  0  0  3  0  0  0  0  0  0
  190.1310  172.0850  141.6790 C   0  0  0  0  0  3  0  0  0  0  0  0
  190.8670  171.0370  139.6140 C   0  0  0  0  0  0  0  0  0  0  0  0
  191.4490  173.6960  136.9260 C   0  0  0  0  0  1  0  0  0  0  0  0
  189.6660  171.9740  136.6620 C   0  0  0  0  0  1  0  0  0  0  0  0
  190.9440  172.3420  137.3940 C   0  0  0  0  0  3  0  0  0  0  0  0
  1 10  1  6  0  0  0
  1  4  1  0  0  0  0
  1  5  1  0  0  0  0
  2  5  1  0  0  0  0
  3  7  1  0  0  0  0
  4  8  1  6  0  0  0
  4  3  1  0  0  0  0
  5  9  1  0  0  0  0
  9  7  1  0  0  0  0
  9  6  2  0  0  0  0
  9 11  2  0  0  0  0
 12 14  2  0  0  0  0
 13 12  1  0  0  0  0
 14 20  1  0  0  0  0
 14  4  1  0  0  0  0
 15 23  1  6  0  0  0
 15 10  1  0  0  0  0
 15 12  1  0  0  0  0
 16 21  1  0  0  0  0
 17 22  1  0  0  0  0
 18 22  2  0  0  0  0
 19 18  1  0  0  0  0
 20 17  2  0  0  0  0
 21 19  2  0  0  0  0
 21 20  1  0  0  0  0
 24 30  2  0  0  0  0
 25 23  1  6  0  0  0
 25 29  1  0  0  0  0
 26 29  2  0  0  0  0
 27 28  2  0  0  0  0
 27 30  1  0  0  0  0
 28 25  1  0  0  0  0
 30 26  1  0  0  0  0
 31 33  1  0  0  0  0
 32 33  1  0  0  0  0
 33 27  1  0  0  0  0
M  END
>  <MODEL>
9

>  <REMARK>
 VINA RESULT:      -7.9      2.609      8.051
  Name = 
  4 active torsions:
  status: ('A' for Active; 'I' for Inactive)
    1  A    between atoms: C_2  and  C_16
    2  A    between atoms: C_2  and  C_33
    3  A    between atoms: C_9  and  C_32
    4  A    between atoms: C_21  and  C_23
                            x       y       z     vdW  Elec       q    Type
                         _______ _______ _______ _____ _____    ______ ____

>  <TORSDO>
F 4

$$$$
