=
 OpenBabel11062423083D

 28 29  0  0  0  0  0  0  0  0999 V2000
  188.2810  176.3190  142.5830 C   0  0  0  0  0  2  0  0  0  0  0  0
  188.9970  173.9880  142.9250 C   0  0  0  0  0  3  0  0  0  0  0  0
  189.9170  173.0170  143.3060 C   0  0  0  0  0  0  0  0  0  0  0  0
  190.9700  177.0730  143.8400 C   0  0  0  0  0  0  0  0  0  0  0  0
  191.4670  174.6850  143.9730 C   0  0  0  0  0  0  0  0  0  0  0  0
  193.1150  176.3100  144.6930 C   0  0  0  0  0  0  0  0  0  0  0  0
  192.7240  174.9840  144.4990 C   0  0  0  0  0  3  0  0  0  0  0  0
  192.2360  177.3400  144.3700 C   0  0  0  0  0  3  0  0  0  0  0  0
  190.5630  175.7260  143.6180 C   0  0  0  0  0  0  0  0  0  0  0  0
  189.3060  175.3440  143.0680 C   0  0  0  0  0  0  0  0  0  0  0  0
  189.5960  171.6390  143.1570 N   0  0  0  0  0  1  0  0  0  0  0  0
  190.1060  178.2580  143.5760 C   0  0  0  0  0  1  0  0  0  0  0  0
  191.1200  173.3820  143.8100 N   0  0  0  0  0  0  0  0  0  0  0  0
  194.4330  176.6370  145.2420 C   0  0  0  0  0  3  0  0  0  0  0  0
  194.5520  177.2390  146.3410 O   0  0  0  0  0  0  0  0  0  0  0  0
  186.8810  175.8030  142.8790 C   0  0  0  0  0  2  0  0  0  0  0  0
  185.9160  176.9380  143.0070 C   0  0  0  0  0  0  0  0  0  0  0  0
  185.5350  177.4420  144.3060 N   0  0  0  0  0  0  0  0  0  0  0  0
  185.4660  177.4780  141.9600 O   0  0  0  0  0  0  0  0  0  0  0  0
  185.4120  179.8980  144.2180 C   0  0  0  0  0  1  0  0  0  0  0  0
  184.6590  178.6030  144.4680 C   0  0  0  0  0  3  0  0  0  0  0  0
  184.0100  178.6180  145.8400 C   0  0  0  0  0  1  0  0  0  0  0  0
  186.1140  176.8830  145.5250 C   0  0  0  0  0  2  0  0  0  0  0  0
  187.2940  177.7170  146.0060 C   0  0  0  0  0  2  0  0  0  0  0  0
  188.3960  176.8430  146.5160 C   0  0  0  0  0  0  0  0  0  0  0  0
  189.4120  177.3770  147.0320 O   0  0  0  0  0  0  0  0  0  0  0  0
  188.3360  175.4510  146.4140 O   0  0  0  0  0  0  0  0  0  0  0  0
  189.2150  174.5970  147.1320 C   0  0  0  0  0  1  0  0  0  0  0  0
  1 16  1  0  0  0  0
  1 10  1  0  0  0  0
  2 10  2  0  0  0  0
  2  3  1  0  0  0  0
  3 13  2  0  0  0  0
  4  8  1  0  0  0  0
  5  7  2  0  0  0  0
  6 14  1  0  0  0  0
  7  6  1  0  0  0  0
  8  6  2  0  0  0  0
  9  4  2  0  0  0  0
  9  5  1  0  0  0  0
 10  9  1  0  0  0  0
 11  3  1  0  0  0  0
 12  4  1  0  0  0  0
 13  5  1  0  0  0  0
 14 15  2  0  0  0  0
 16 17  1  0  0  0  0
 17 18  1  0  0  0  0
 18 21  1  0  0  0  0
 18 23  1  0  0  0  0
 19 17  2  0  0  0  0
 20 21  1  0  0  0  0
 21 22  1  0  0  0  0
 23 24  1  0  0  0  0
 24 25  1  0  0  0  0
 25 26  2  0  0  0  0
 27 25  1  0  0  0  0
 27 28  1  0  0  0  0
M  END
>  <MODEL>
1

>  <REMARK>
 VINA RESULT:      -6.4      0.000      0.000
  Name = 
  9 active torsions:
  status: ('A' for Active; 'I' for Inactive)
    1  A    between atoms: C_1  and  C_15
    2  A    between atoms: C_1  and  O_19
    3  A    between atoms: C_5  and  C_14
    4  A    between atoms: C_6  and  C_14
    5  A    between atoms: C_6  and  C_16
    6  A    between atoms: C_9  and  C_12
    7  A    between atoms: C_15  and  C_27
    8  A    between atoms: N_20  and  C_22
    9  A    between atoms: N_20  and  C_27
                            x       y       z     vdW  Elec       q    Type
                         _______ _______ _______ _____ _____    ______ ____

>  <TORSDO>
F 9

$$$$
=
 OpenBabel11062423083D

 28 29  0  0  0  0  0  0  0  0999 V2000
  188.3770  176.4780  144.8520 C   0  0  0  0  0  2  0  0  0  0  0  0
  186.5350  177.4120  146.1910 C   0  0  0  0  0  3  0  0  0  0  0  0
  185.2960  178.0280  146.3370 C   0  0  0  0  0  0  0  0  0  0  0  0
  186.5930  177.0670  142.4330 C   0  0  0  0  0  0  0  0  0  0  0  0
  184.9710  178.0270  143.9870 C   0  0  0  0  0  0  0  0  0  0  0  0
  184.5380  178.0640  141.6020 C   0  0  0  0  0  0  0  0  0  0  0  0
  184.1500  178.3620  142.9090 C   0  0  0  0  0  3  0  0  0  0  0  0
  185.7480  177.4150  141.3750 C   0  0  0  0  0  3  0  0  0  0  0  0
  186.2210  177.3820  143.7720 C   0  0  0  0  0  0  0  0  0  0  0  0
  187.0140  177.0890  144.9190 C   0  0  0  0  0  0  0  0  0  0  0  0
  184.8150  178.3550  147.6350 N   0  0  0  0  0  1  0  0  0  0  0  0
  187.8400  176.3380  142.0650 C   0  0  0  0  0  1  0  0  0  0  0  0
  184.5520  178.3240  145.2440 N   0  0  0  0  0  0  0  0  0  0  0  0
  183.6870  178.4130  140.4630 C   0  0  0  0  0  3  0  0  0  0  0  0
  182.5520  177.8880  140.3080 O   0  0  0  0  0  0  0  0  0  0  0  0
  189.4140  177.4440  145.4050 C   0  0  0  0  0  2  0  0  0  0  0  0
  190.4360  176.7130  146.2180 C   0  0  0  0  0  0  0  0  0  0  0  0
  191.7960  176.5800  145.7490 N   0  0  0  0  0  0  0  0  0  0  0  0
  190.1030  176.2460  147.3410 O   0  0  0  0  0  0  0  0  0  0  0  0
  194.1250  176.7550  146.5240 C   0  0  0  0  0  1  0  0  0  0  0  0
  192.8410  175.9450  146.5550 C   0  0  0  0  0  3  0  0  0  0  0  0
  193.0960  174.5190  146.1010 C   0  0  0  0  0  1  0  0  0  0  0  0
  192.2170  177.1900  144.4910 C   0  0  0  0  0  2  0  0  0  0  0  0
  191.8940  176.2880  143.3070 C   0  0  0  0  0  2  0  0  0  0  0  0
  193.1410  175.8770  142.5890 C   0  0  0  0  0  0  0  0  0  0  0  0
  193.0430  175.2500  141.5030 O   0  0  0  0  0  0  0  0  0  0  0  0
  194.4090  176.1530  143.1050 O   0  0  0  0  0  0  0  0  0  0  0  0
  195.5010  175.2570  142.9570 C   0  0  0  0  0  1  0  0  0  0  0  0
  1 10  1  0  0  0  0
  1 16  1  0  0  0  0
  2  3  1  0  0  0  0
  3 11  1  0  0  0  0
  4  9  1  0  0  0  0
  5 13  1  0  0  0  0
  6  7  2  0  0  0  0
  7  5  1  0  0  0  0
  8  6  1  0  0  0  0
  8  4  2  0  0  0  0
  9  5  2  0  0  0  0
  9 10  1  0  0  0  0
 10  2  2  0  0  0  0
 12  4  1  0  0  0  0
 13  3  2  0  0  0  0
 14  6  1  0  0  0  0
 15 14  2  0  0  0  0
 16 17  1  0  0  0  0
 17 19  2  0  0  0  0
 18 17  1  0  0  0  0
 18 21  1  0  0  0  0
 20 21  1  0  0  0  0
 22 21  1  0  0  0  0
 23 18  1  0  0  0  0
 24 23  1  0  0  0  0
 25 27  1  0  0  0  0
 25 24  1  0  0  0  0
 26 25  2  0  0  0  0
 28 27  1  0  0  0  0
M  END
>  <MODEL>
2

>  <REMARK>
 VINA RESULT:      -6.4      2.301      7.521
  Name = 
  9 active torsions:
  status: ('A' for Active; 'I' for Inactive)
    1  A    between atoms: C_1  and  C_15
    2  A    between atoms: C_1  and  O_19
    3  A    between atoms: C_5  and  C_14
    4  A    between atoms: C_6  and  C_14
    5  A    between atoms: C_6  and  C_16
    6  A    between atoms: C_9  and  C_12
    7  A    between atoms: C_15  and  C_27
    8  A    between atoms: N_20  and  C_22
    9  A    between atoms: N_20  and  C_27
                            x       y       z     vdW  Elec       q    Type
                         _______ _______ _______ _____ _____    ______ ____

>  <TORSDO>
F 9

$$$$
=
 OpenBabel11062423083D

 28 29  0  0  0  0  0  0  0  0999 V2000
  188.7300  176.9780  143.9640 C   0  0  0  0  0  2  0  0  0  0  0  0
  187.0070  177.4180  145.6680 C   0  0  0  0  0  3  0  0  0  0  0  0
  185.7280  177.7850  146.0720 C   0  0  0  0  0  0  0  0  0  0  0  0
  186.5030  177.5040  141.9280 C   0  0  0  0  0  0  0  0  0  0  0  0
  185.0260  177.9850  143.8140 C   0  0  0  0  0  0  0  0  0  0  0  0
  184.2080  178.2070  141.5430 C   0  0  0  0  0  0  0  0  0  0  0  0
  183.9980  178.2860  142.9210 C   0  0  0  0  0  3  0  0  0  0  0  0
  185.4520  177.8110  141.0590 C   0  0  0  0  0  3  0  0  0  0  0  0
  186.3110  177.5990  143.3370 C   0  0  0  0  0  0  0  0  0  0  0  0
  187.3170  177.3260  144.3080 C   0  0  0  0  0  0  0  0  0  0  0  0
  185.4200  177.8770  147.4570 N   0  0  0  0  0  1  0  0  0  0  0  0
  187.7730  177.0520  141.2900 C   0  0  0  0  0  1  0  0  0  0  0  0
  184.7780  178.0630  145.1470 N   0  0  0  0  0  0  0  0  0  0  0  0
  183.1370  178.5230  140.5950 C   0  0  0  0  0  3  0  0  0  0  0  0
  182.4580  177.6130  140.0490 O   0  0  0  0  0  0  0  0  0  0  0  0
  189.6890  177.6560  144.9310 C   0  0  0  0  0  2  0  0  0  0  0  0
  191.1060  177.4560  144.4960 C   0  0  0  0  0  0  0  0  0  0  0  0
  192.0860  176.9020  145.4010 N   0  0  0  0  0  0  0  0  0  0  0  0
  191.4280  177.7430  143.3110 O   0  0  0  0  0  0  0  0  0  0  0  0
  193.5630  175.2430  144.3410 C   0  0  0  0  0  1  0  0  0  0  0  0
  193.4600  176.6140  144.9850 C   0  0  0  0  0  3  0  0  0  0  0  0
  194.4250  176.7330  146.1510 C   0  0  0  0  0  1  0  0  0  0  0  0
  191.7090  176.4850  146.7490 C   0  0  0  0  0  2  0  0  0  0  0  0
  191.4800  174.9800  146.8160 C   0  0  0  0  0  2  0  0  0  0  0  0
  190.0300  174.6500  146.6500 C   0  0  0  0  0  0  0  0  0  0  0  0
  189.1870  175.1970  147.4080 O   0  0  0  0  0  0  0  0  0  0  0  0
  189.5910  173.7350  145.6910 O   0  0  0  0  0  0  0  0  0  0  0  0
  190.2180  173.6010  144.4230 C   0  0  0  0  0  1  0  0  0  0  0  0
  1 10  1  0  0  0  0
  1 16  1  0  0  0  0
  2  3  1  0  0  0  0
  3 11  1  0  0  0  0
  4  9  1  0  0  0  0
  5 13  1  0  0  0  0
  6  7  2  0  0  0  0
  7  5  1  0  0  0  0
  8  6  1  0  0  0  0
  8  4  2  0  0  0  0
  9  5  2  0  0  0  0
  9 10  1  0  0  0  0
 10  2  2  0  0  0  0
 12  4  1  0  0  0  0
 13  3  2  0  0  0  0
 14  6  1  0  0  0  0
 15 14  2  0  0  0  0
 17 16  1  0  0  0  0
 17 18  1  0  0  0  0
 18 23  1  0  0  0  0
 19 17  2  0  0  0  0
 20 21  1  0  0  0  0
 21 18  1  0  0  0  0
 21 22  1  0  0  0  0
 23 24  1  0  0  0  0
 25 24  1  0  0  0  0
 25 26  2  0  0  0  0
 27 25  1  0  0  0  0
 28 27  1  0  0  0  0
M  END
>  <MODEL>
3

>  <REMARK>
 VINA RESULT:      -6.2      2.224      7.082
  Name = 
  9 active torsions:
  status: ('A' for Active; 'I' for Inactive)
    1  A    between atoms: C_1  and  C_15
    2  A    between atoms: C_1  and  O_19
    3  A    between atoms: C_5  and  C_14
    4  A    between atoms: C_6  and  C_14
    5  A    between atoms: C_6  and  C_16
    6  A    between atoms: C_9  and  C_12
    7  A    between atoms: C_15  and  C_27
    8  A    between atoms: N_20  and  C_22
    9  A    between atoms: N_20  and  C_27
                            x       y       z     vdW  Elec       q    Type
                         _______ _______ _______ _____ _____    ______ ____

>  <TORSDO>
F 9

$$$$
=
 OpenBabel11062423083D

 28 29  0  0  0  0  0  0  0  0999 V2000
  188.7480  177.6900  144.5240 C   0  0  0  0  0  2  0  0  0  0  0  0
  186.7790  177.9760  145.9750 C   0  0  0  0  0  3  0  0  0  0  0  0
  185.4250  178.2000  146.1970 C   0  0  0  0  0  0  0  0  0  0  0  0
  186.7600  177.8810  142.2020 C   0  0  0  0  0  0  0  0  0  0  0  0
  185.0050  178.2430  143.8620 C   0  0  0  0  0  0  0  0  0  0  0  0
  184.4700  178.2930  141.4980 C   0  0  0  0  0  0  0  0  0  0  0  0
  184.0740  178.3910  142.8330 C   0  0  0  0  0  3  0  0  0  0  0  0
  185.8040  178.0330  141.1940 C   0  0  0  0  0  3  0  0  0  0  0  0
  186.3770  177.9980  143.5690 C   0  0  0  0  0  0  0  0  0  0  0  0
  187.2720  177.8780  144.6700 C   0  0  0  0  0  0  0  0  0  0  0  0
  184.9310  178.2990  147.5270 N   0  0  0  0  0  1  0  0  0  0  0  0
  188.1460  177.5640  141.7500 C   0  0  0  0  0  1  0  0  0  0  0  0
  184.5780  178.3340  145.1480 N   0  0  0  0  0  0  0  0  0  0  0  0
  183.5040  178.4490  140.4090 C   0  0  0  0  0  3  0  0  0  0  0  0
  182.7070  177.5220  140.1040 O   0  0  0  0  0  0  0  0  0  0  0  0
  189.2250  176.5540  145.4160 C   0  0  0  0  0  2  0  0  0  0  0  0
  189.7460  175.4190  144.5930 C   0  0  0  0  0  0  0  0  0  0  0  0
  191.1260  175.0040  144.6950 N   0  0  0  0  0  0  0  0  0  0  0  0
  188.9520  174.8000  143.8340 O   0  0  0  0  0  0  0  0  0  0  0  0
  192.6600  173.0820  144.8070 C   0  0  0  0  0  1  0  0  0  0  0  0
  191.6490  173.8460  143.9690 C   0  0  0  0  0  3  0  0  0  0  0  0
  192.2570  174.2570  142.6400 C   0  0  0  0  0  1  0  0  0  0  0  0
  192.0360  175.6550  145.6340 C   0  0  0  0  0  2  0  0  0  0  0  0
  192.7040  176.8680  145.0010 C   0  0  0  0  0  2  0  0  0  0  0  0
  194.1910  176.7990  145.1480 C   0  0  0  0  0  0  0  0  0  0  0  0
  194.7710  177.6240  145.9000 O   0  0  0  0  0  0  0  0  0  0  0  0
  194.9540  175.8570  144.4540 O   0  0  0  0  0  0  0  0  0  0  0  0
  195.8420  174.9640  145.1110 C   0  0  0  0  0  1  0  0  0  0  0  0
  1 10  1  0  0  0  0
  1 16  1  0  0  0  0
  2  3  1  0  0  0  0
  3 11  1  0  0  0  0
  4  9  1  0  0  0  0
  5 13  1  0  0  0  0
  6  7  2  0  0  0  0
  7  5  1  0  0  0  0
  8  6  1  0  0  0  0
  8  4  2  0  0  0  0
  9  5  2  0  0  0  0
  9 10  1  0  0  0  0
 10  2  2  0  0  0  0
 12  4  1  0  0  0  0
 13  3  2  0  0  0  0
 14  6  1  0  0  0  0
 15 14  2  0  0  0  0
 17 18  1  0  0  0  0
 17 16  1  0  0  0  0
 18 23  1  0  0  0  0
 19 17  2  0  0  0  0
 21 18  1  0  0  0  0
 21 20  1  0  0  0  0
 22 21  1  0  0  0  0
 24 25  1  0  0  0  0
 24 23  1  0  0  0  0
 25 26  2  0  0  0  0
 27 28  1  0  0  0  0
 27 25  1  0  0  0  0
M  END
>  <MODEL>
4

>  <REMARK>
 VINA RESULT:      -6.2      1.974      7.343
  Name = 
  9 active torsions:
  status: ('A' for Active; 'I' for Inactive)
    1  A    between atoms: C_1  and  C_15
    2  A    between atoms: C_1  and  O_19
    3  A    between atoms: C_5  and  C_14
    4  A    between atoms: C_6  and  C_14
    5  A    between atoms: C_6  and  C_16
    6  A    between atoms: C_9  and  C_12
    7  A    between atoms: C_15  and  C_27
    8  A    between atoms: N_20  and  C_22
    9  A    between atoms: N_20  and  C_27
                            x       y       z     vdW  Elec       q    Type
                         _______ _______ _______ _____ _____    ______ ____

>  <TORSDO>
F 9

$$$$
=
 OpenBabel11062423083D

 28 29  0  0  0  0  0  0  0  0999 V2000
  188.5470  177.7290  144.5690 C   0  0  0  0  0  2  0  0  0  0  0  0
  186.5670  178.0670  145.9930 C   0  0  0  0  0  3  0  0  0  0  0  0
  185.2100  178.2920  146.1960 C   0  0  0  0  0  0  0  0  0  0  0  0
  186.5740  177.8050  142.2280 C   0  0  0  0  0  0  0  0  0  0  0  0
  184.8060  178.2290  143.8580 C   0  0  0  0  0  0  0  0  0  0  0  0
  184.2860  178.1710  141.4910 C   0  0  0  0  0  0  0  0  0  0  0  0
  183.8810  178.3250  142.8180 C   0  0  0  0  0  3  0  0  0  0  0  0
  185.6240  177.9060  141.2080 C   0  0  0  0  0  3  0  0  0  0  0  0
  186.1810  177.9790  143.5860 C   0  0  0  0  0  0  0  0  0  0  0  0
  187.0690  177.9140  144.6970 C   0  0  0  0  0  0  0  0  0  0  0  0
  184.7060  178.4470  147.5170 N   0  0  0  0  0  1  0  0  0  0  0  0
  187.9640  177.4760  141.7990 C   0  0  0  0  0  1  0  0  0  0  0  0
  184.3690  178.3740  145.1360 N   0  0  0  0  0  0  0  0  0  0  0  0
  183.3260  178.2730  140.3900 C   0  0  0  0  0  3  0  0  0  0  0  0
  182.0850  178.2350  140.6000 O   0  0  0  0  0  0  0  0  0  0  0  0
  188.9490  176.3470  145.0610 C   0  0  0  0  0  2  0  0  0  0  0  0
  190.2180  176.4160  145.8510 C   0  0  0  0  0  0  0  0  0  0  0  0
  191.4960  176.1930  145.2160 N   0  0  0  0  0  0  0  0  0  0  0  0
  190.1600  176.7120  147.0750 O   0  0  0  0  0  0  0  0  0  0  0  0
  193.8470  176.9030  145.0400 C   0  0  0  0  0  1  0  0  0  0  0  0
  192.7620  176.3350  145.9380 C   0  0  0  0  0  3  0  0  0  0  0  0
  193.2040  175.0130  146.5420 C   0  0  0  0  0  1  0  0  0  0  0  0
  191.5860  175.9360  143.7820 C   0  0  0  0  0  2  0  0  0  0  0  0
  191.6620  174.4420  143.4940 C   0  0  0  0  0  2  0  0  0  0  0  0
  190.4090  173.9580  142.8350 C   0  0  0  0  0  0  0  0  0  0  0  0
  190.0280  174.5060  141.7690 O   0  0  0  0  0  0  0  0  0  0  0  0
  189.6420  172.9290  143.3840 O   0  0  0  0  0  0  0  0  0  0  0  0
  189.8000  172.4950  144.7280 C   0  0  0  0  0  1  0  0  0  0  0  0
  1 10  1  0  0  0  0
  1 16  1  0  0  0  0
  2  3  1  0  0  0  0
  3 11  1  0  0  0  0
  4  9  1  0  0  0  0
  5 13  1  0  0  0  0
  6  7  2  0  0  0  0
  7  5  1  0  0  0  0
  8  6  1  0  0  0  0
  8  4  2  0  0  0  0
  9  5  2  0  0  0  0
  9 10  1  0  0  0  0
 10  2  2  0  0  0  0
 12  4  1  0  0  0  0
 13  3  2  0  0  0  0
 14 15  2  0  0  0  0
 14  6  1  0  0  0  0
 16 17  1  0  0  0  0
 17 19  2  0  0  0  0
 18 17  1  0  0  0  0
 18 21  1  0  0  0  0
 20 21  1  0  0  0  0
 21 22  1  0  0  0  0
 23 18  1  0  0  0  0
 24 23  1  0  0  0  0
 25 27  1  0  0  0  0
 25 24  1  0  0  0  0
 26 25  2  0  0  0  0
 27 28  1  0  0  0  0
M  END
>  <MODEL>
5

>  <REMARK>
 VINA RESULT:      -6.2      2.266      7.309
  Name = 
  9 active torsions:
  status: ('A' for Active; 'I' for Inactive)
    1  A    between atoms: C_1  and  C_15
    2  A    between atoms: C_1  and  O_19
    3  A    between atoms: C_5  and  C_14
    4  A    between atoms: C_6  and  C_14
    5  A    between atoms: C_6  and  C_16
    6  A    between atoms: C_9  and  C_12
    7  A    between atoms: C_15  and  C_27
    8  A    between atoms: N_20  and  C_22
    9  A    between atoms: N_20  and  C_27
                            x       y       z     vdW  Elec       q    Type
                         _______ _______ _______ _____ _____    ______ ____

>  <TORSDO>
F 9

$$$$
=
 OpenBabel11062423083D

 28 29  0  0  0  0  0  0  0  0999 V2000
  189.3990  175.4220  146.3430 C   0  0  0  0  0  2  0  0  0  0  0  0
  189.7000  173.4590  144.8870 C   0  0  0  0  0  3  0  0  0  0  0  0
  190.4760  172.5450  144.1830 C   0  0  0  0  0  0  0  0  0  0  0  0
  192.4560  175.4530  146.5220 C   0  0  0  0  0  0  0  0  0  0  0  0
  192.4680  173.5570  144.9820 C   0  0  0  0  0  0  0  0  0  0  0  0
  194.5600  174.5120  145.7500 C   0  0  0  0  0  0  0  0  0  0  0  0
  193.8630  173.5690  144.9920 C   0  0  0  0  0  3  0  0  0  0  0  0
  193.8530  175.4380  146.5120 C   0  0  0  0  0  3  0  0  0  0  0  0
  191.7290  174.5100  145.7390 C   0  0  0  0  0  0  0  0  0  0  0  0
  190.3080  174.4490  145.6630 C   0  0  0  0  0  0  0  0  0  0  0  0
  189.8500  171.5400  143.3950 N   0  0  0  0  0  1  0  0  0  0  0  0
  191.8160  176.4650  147.4110 C   0  0  0  0  0  1  0  0  0  0  0  0
  191.8280  172.6170  144.2400 N   0  0  0  0  0  0  0  0  0  0  0  0
  196.0240  174.5360  145.7670 C   0  0  0  0  0  3  0  0  0  0  0  0
  196.6860  174.7650  144.7190 O   0  0  0  0  0  0  0  0  0  0  0  0
  188.7690  176.3560  145.3210 C   0  0  0  0  0  2  0  0  0  0  0  0
  187.7210  177.2100  145.9620 C   0  0  0  0  0  0  0  0  0  0  0  0
  186.8060  177.9860  145.1570 N   0  0  0  0  0  0  0  0  0  0  0  0
  187.6200  177.2140  147.2190 O   0  0  0  0  0  0  0  0  0  0  0  0
  184.5960  177.8640  146.2320 C   0  0  0  0  0  1  0  0  0  0  0  0
  185.7160  178.7660  145.7450 C   0  0  0  0  0  3  0  0  0  0  0  0
  185.1850  179.7980  144.7660 C   0  0  0  0  0  1  0  0  0  0  0  0
  186.8550  177.9250  143.6980 C   0  0  0  0  0  2  0  0  0  0  0  0
  186.2530  176.6250  143.1810 C   0  0  0  0  0  2  0  0  0  0  0  0
  187.0900  176.0450  142.0850 C   0  0  0  0  0  0  0  0  0  0  0  0
  187.4170  174.8310  142.1420 O   0  0  0  0  0  0  0  0  0  0  0  0
  187.5360  176.8200  141.0140 O   0  0  0  0  0  0  0  0  0  0  0  0
  186.6930  177.1730  139.9260 C   0  0  0  0  0  1  0  0  0  0  0  0
  2 10  1  0  0  0  0
  3 13  1  0  0  0  0
  3  2  2  0  0  0  0
  4 12  1  0  0  0  0
  5  7  1  0  0  0  0
  5  9  1  0  0  0  0
  6 14  1  0  0  0  0
  6  8  1  0  0  0  0
  7  6  2  0  0  0  0
  8  4  2  0  0  0  0
  9  4  1  0  0  0  0
 10  9  2  0  0  0  0
 10  1  1  0  0  0  0
 11  3  1  0  0  0  0
 13  5  2  0  0  0  0
 15 14  2  0  0  0  0
 16 17  1  0  0  0  0
 16  1  1  0  0  0  0
 17 19  2  0  0  0  0
 18 21  1  0  0  0  0
 18 17  1  0  0  0  0
 21 20  1  0  0  0  0
 22 21  1  0  0  0  0
 23 18  1  0  0  0  0
 24 23  1  0  0  0  0
 25 26  2  0  0  0  0
 25 24  1  0  0  0  0
 27 25  1  0  0  0  0
 28 27  1  0  0  0  0
M  END
>  <MODEL>
6

>  <REMARK>
 VINA RESULT:      -5.9      1.920      3.573
  Name = 
  9 active torsions:
  status: ('A' for Active; 'I' for Inactive)
    1  A    between atoms: C_1  and  C_15
    2  A    between atoms: C_1  and  O_19
    3  A    between atoms: C_5  and  C_14
    4  A    between atoms: C_6  and  C_14
    5  A    between atoms: C_6  and  C_16
    6  A    between atoms: C_9  and  C_12
    7  A    between atoms: C_15  and  C_27
    8  A    between atoms: N_20  and  C_22
    9  A    between atoms: N_20  and  C_27
                            x       y       z     vdW  Elec       q    Type
                         _______ _______ _______ _____ _____    ______ ____

>  <TORSDO>
F 9

$$$$
=
 OpenBabel11062423083D

 28 29  0  0  0  0  0  0  0  0999 V2000
  190.3690  177.5390  143.2110 C   0  0  0  0  0  2  0  0  0  0  0  0
  190.8010  177.0110  145.5760 C   0  0  0  0  0  3  0  0  0  0  0  0
  190.4170  176.8680  146.9050 C   0  0  0  0  0  0  0  0  0  0  0  0
  187.4480  177.8650  144.0710 C   0  0  0  0  0  0  0  0  0  0  0  0
  188.1710  177.4030  146.3580 C   0  0  0  0  0  0  0  0  0  0  0  0
  185.8490  177.9260  145.9010 C   0  0  0  0  0  0  0  0  0  0  0  0
  186.8630  177.5950  146.8020 C   0  0  0  0  0  3  0  0  0  0  0  0
  186.1470  178.0510  144.5460 C   0  0  0  0  0  3  0  0  0  0  0  0
  188.4980  177.5470  144.9790 C   0  0  0  0  0  0  0  0  0  0  0  0
  189.8580  177.3550  144.6040 C   0  0  0  0  0  0  0  0  0  0  0  0
  191.3820  176.5180  147.8900 N   0  0  0  0  0  1  0  0  0  0  0  0
  187.6310  177.9850  142.5960 C   0  0  0  0  0  1  0  0  0  0  0  0
  189.1260  177.0710  147.2640 N   0  0  0  0  0  0  0  0  0  0  0  0
  184.4720  178.1340  146.3550 C   0  0  0  0  0  3  0  0  0  0  0  0
  183.6930  178.9130  145.7440 O   0  0  0  0  0  0  0  0  0  0  0  0
  191.2440  176.3610  142.8100 C   0  0  0  0  0  2  0  0  0  0  0  0
  190.4170  175.1280  142.6230 C   0  0  0  0  0  0  0  0  0  0  0  0
  190.7020  173.9270  143.3730 N   0  0  0  0  0  0  0  0  0  0  0  0
  189.4400  175.1640  141.8270 O   0  0  0  0  0  0  0  0  0  0  0  0
  189.7000  172.0660  144.6330 C   0  0  0  0  0  1  0  0  0  0  0  0
  189.8640  172.7300  143.2780 C   0  0  0  0  0  3  0  0  0  0  0  0
  190.4210  171.7470  142.2640 C   0  0  0  0  0  1  0  0  0  0  0  0
  191.7770  173.8980  144.3610 C   0  0  0  0  0  2  0  0  0  0  0  0
  193.1350  173.7310  143.6930 C   0  0  0  0  0  2  0  0  0  0  0  0
  194.2310  174.2530  144.5670 C   0  0  0  0  0  0  0  0  0  0  0  0
  195.2710  173.5630  144.7220 O   0  0  0  0  0  0  0  0  0  0  0  0
  194.1200  175.4760  145.2310 O   0  0  0  0  0  0  0  0  0  0  0  0
  194.9000  176.6090  144.8750 C   0  0  0  0  0  1  0  0  0  0  0  0
  1 10  1  0  0  0  0
  2  3  1  0  0  0  0
  3 13  2  0  0  0  0
  3 11  1  0  0  0  0
  4  8  2  0  0  0  0
  4  9  1  0  0  0  0
  5  7  1  0  0  0  0
  5 13  1  0  0  0  0
  6 14  1  0  0  0  0
  6  7  2  0  0  0  0
  8  6  1  0  0  0  0
  9  5  2  0  0  0  0
 10  9  1  0  0  0  0
 10  2  2  0  0  0  0
 12  4  1  0  0  0  0
 15 14  2  0  0  0  0
 16  1  1  0  0  0  0
 17 16  1  0  0  0  0
 17 18  1  0  0  0  0
 18 23  1  0  0  0  0
 19 17  2  0  0  0  0
 21 18  1  0  0  0  0
 21 20  1  0  0  0  0
 22 21  1  0  0  0  0
 24 23  1  0  0  0  0
 24 25  1  0  0  0  0
 25 26  2  0  0  0  0
 25 27  1  0  0  0  0
 28 27  1  0  0  0  0
M  END
>  <MODEL>
7

>  <REMARK>
 VINA RESULT:      -5.8      2.322      6.488
  Name = 
  9 active torsions:
  status: ('A' for Active; 'I' for Inactive)
    1  A    between atoms: C_1  and  C_15
    2  A    between atoms: C_1  and  O_19
    3  A    between atoms: C_5  and  C_14
    4  A    between atoms: C_6  and  C_14
    5  A    between atoms: C_6  and  C_16
    6  A    between atoms: C_9  and  C_12
    7  A    between atoms: C_15  and  C_27
    8  A    between atoms: N_20  and  C_22
    9  A    between atoms: N_20  and  C_27
                            x       y       z     vdW  Elec       q    Type
                         _______ _______ _______ _____ _____    ______ ____

>  <TORSDO>
F 9

$$$$
=
 OpenBabel11062423083D

 28 29  0  0  0  0  0  0  0  0999 V2000
  189.5940  175.1510  143.3480 C   0  0  0  0  0  2  0  0  0  0  0  0
  188.2080  176.4420  141.7750 C   0  0  0  0  0  3  0  0  0  0  0  0
  187.2020  177.3510  141.4670 C   0  0  0  0  0  0  0  0  0  0  0  0
  188.1200  176.7020  145.5390 C   0  0  0  0  0  0  0  0  0  0  0  0
  186.8150  177.7680  143.7700 C   0  0  0  0  0  0  0  0  0  0  0  0
  186.3490  178.2730  146.0950 C   0  0  0  0  0  0  0  0  0  0  0  0
  186.0810  178.4560  144.7380 C   0  0  0  0  0  3  0  0  0  0  0  0
  187.3680  177.4060  146.4840 C   0  0  0  0  0  3  0  0  0  0  0  0
  187.8460  176.8620  144.1500 C   0  0  0  0  0  0  0  0  0  0  0  0
  188.5380  176.1820  143.1080 C   0  0  0  0  0  0  0  0  0  0  0  0
  186.8710  177.6100  140.1080 N   0  0  0  0  0  1  0  0  0  0  0  0
  189.2090  175.8380  146.0780 C   0  0  0  0  0  1  0  0  0  0  0  0
  186.5300  177.9830  142.4600 N   0  0  0  0  0  0  0  0  0  0  0  0
  185.5840  178.9860  147.1200 C   0  0  0  0  0  3  0  0  0  0  0  0
  184.5110  178.5150  147.5810 O   0  0  0  0  0  0  0  0  0  0  0  0
  190.8740  175.5290  142.6170 C   0  0  0  0  0  2  0  0  0  0  0  0
  191.7820  176.3120  143.5110 C   0  0  0  0  0  0  0  0  0  0  0  0
  192.8990  175.6760  144.1700 N   0  0  0  0  0  0  0  0  0  0  0  0
  191.5820  177.5490  143.6520 O   0  0  0  0  0  0  0  0  0  0  0  0
  195.2600  175.8650  144.8410 C   0  0  0  0  0  1  0  0  0  0  0  0
  193.8560  176.4270  144.9840 C   0  0  0  0  0  3  0  0  0  0  0  0
  193.4370  176.4540  146.4440 C   0  0  0  0  0  1  0  0  0  0  0  0
  193.1940  174.2630  143.9480 C   0  0  0  0  0  2  0  0  0  0  0  0
  192.4910  173.3860  144.9750 C   0  0  0  0  0  2  0  0  0  0  0  0
  192.1120  172.0650  144.3830 C   0  0  0  0  0  0  0  0  0  0  0  0
  192.9520  171.1280  144.3900 O   0  0  0  0  0  0  0  0  0  0  0  0
  190.8590  171.8530  143.8040 O   0  0  0  0  0  0  0  0  0  0  0  0
  190.6890  171.6650  142.4060 C   0  0  0  0  0  1  0  0  0  0  0  0
  2 10  1  0  0  0  0
  3  2  2  0  0  0  0
  3 13  1  0  0  0  0
  4 12  1  0  0  0  0
  4  8  2  0  0  0  0
  5  9  1  0  0  0  0
  5  7  1  0  0  0  0
  6  8  1  0  0  0  0
  6 14  1  0  0  0  0
  7  6  2  0  0  0  0
  9  4  1  0  0  0  0
 10  1  1  0  0  0  0
 10  9  2  0  0  0  0
 11  3  1  0  0  0  0
 13  5  2  0  0  0  0
 14 15  2  0  0  0  0
 16  1  1  0  0  0  0
 16 17  1  0  0  0  0
 17 19  2  0  0  0  0
 17 18  1  0  0  0  0
 18 21  1  0  0  0  0
 20 21  1  0  0  0  0
 21 22  1  0  0  0  0
 23 18  1  0  0  0  0
 23 24  1  0  0  0  0
 25 26  2  0  0  0  0
 25 24  1  0  0  0  0
 27 25  1  0  0  0  0
 28 27  1  0  0  0  0
M  END
>  <MODEL>
8

>  <REMARK>
 VINA RESULT:      -5.8      2.574      6.659
  Name = 
  9 active torsions:
  status: ('A' for Active; 'I' for Inactive)
    1  A    between atoms: C_1  and  C_15
    2  A    between atoms: C_1  and  O_19
    3  A    between atoms: C_5  and  C_14
    4  A    between atoms: C_6  and  C_14
    5  A    between atoms: C_6  and  C_16
    6  A    between atoms: C_9  and  C_12
    7  A    between atoms: C_15  and  C_27
    8  A    between atoms: N_20  and  C_22
    9  A    between atoms: N_20  and  C_27
                            x       y       z     vdW  Elec       q    Type
                         _______ _______ _______ _____ _____    ______ ____

>  <TORSDO>
F 9

$$$$
=
 OpenBabel11062423083D

 28 29  0  0  0  0  0  0  0  0999 V2000
  189.8570  174.7970  143.4720 C   0  0  0  0  0  2  0  0  0  0  0  0
  188.2490  176.0410  142.0840 C   0  0  0  0  0  3  0  0  0  0  0  0
  187.1450  176.8680  141.9050 C   0  0  0  0  0  0  0  0  0  0  0  0
  188.4120  176.0670  145.8550 C   0  0  0  0  0  0  0  0  0  0  0  0
  186.8900  177.1080  144.2530 C   0  0  0  0  0  0  0  0  0  0  0  0
  186.5520  177.4260  146.6320 C   0  0  0  0  0  0  0  0  0  0  0  0
  186.1700  177.6630  145.3100 C   0  0  0  0  0  3  0  0  0  0  0  0
  187.6700  176.6380  146.8930 C   0  0  0  0  0  3  0  0  0  0  0  0
  188.0240  176.2830  144.5010 C   0  0  0  0  0  0  0  0  0  0  0  0
  188.6970  175.7350  143.3720 C   0  0  0  0  0  0  0  0  0  0  0  0
  186.6930  177.1750  140.5920 N   0  0  0  0  0  1  0  0  0  0  0  0
  189.6110  175.2800  146.2610 C   0  0  0  0  0  1  0  0  0  0  0  0
  186.4930  177.3720  142.9810 N   0  0  0  0  0  0  0  0  0  0  0  0
  185.8020  178.0000  147.7510 C   0  0  0  0  0  3  0  0  0  0  0  0
  184.7510  178.6670  147.5590 O   0  0  0  0  0  0  0  0  0  0  0  0
  191.0580  175.3640  142.7300 C   0  0  0  0  0  2  0  0  0  0  0  0
  191.8680  176.2430  143.6300 C   0  0  0  0  0  0  0  0  0  0  0  0
  193.1090  175.7720  144.2020 N   0  0  0  0  0  0  0  0  0  0  0  0
  191.4730  177.4190  143.8520 O   0  0  0  0  0  0  0  0  0  0  0  0
  195.4320  176.4460  144.6570 C   0  0  0  0  0  1  0  0  0  0  0  0
  193.9680  176.6320  145.0170 C   0  0  0  0  0  3  0  0  0  0  0  0
  193.7460  176.3860  146.5000 C   0  0  0  0  0  1  0  0  0  0  0  0
  193.6230  174.4430  143.8840 C   0  0  0  0  0  2  0  0  0  0  0  0
  193.1460  173.4110  144.8970 C   0  0  0  0  0  2  0  0  0  0  0  0
  194.2860  172.5810  145.3950 C   0  0  0  0  0  0  0  0  0  0  0  0
  194.1350  171.3360  145.5050 O   0  0  0  0  0  0  0  0  0  0  0  0
  195.5050  173.1540  145.7630 O   0  0  0  0  0  0  0  0  0  0  0  0
  196.7430  172.7280  145.2110 C   0  0  0  0  0  1  0  0  0  0  0  0
  2 10  1  0  0  0  0
  3  2  2  0  0  0  0
  3 13  1  0  0  0  0
  4 12  1  0  0  0  0
  4  8  2  0  0  0  0
  5  9  1  0  0  0  0
  5  7  1  0  0  0  0
  6  8  1  0  0  0  0
  6 14  1  0  0  0  0
  7  6  2  0  0  0  0
  9  4  1  0  0  0  0
 10  1  1  0  0  0  0
 10  9  2  0  0  0  0
 11  3  1  0  0  0  0
 13  5  2  0  0  0  0
 15 14  2  0  0  0  0
 16  1  1  0  0  0  0
 16 17  1  0  0  0  0
 17 19  2  0  0  0  0
 17 18  1  0  0  0  0
 18 21  1  0  0  0  0
 20 21  1  0  0  0  0
 21 22  1  0  0  0  0
 23 18  1  0  0  0  0
 23 24  1  0  0  0  0
 24 25  1  0  0  0  0
 25 26  2  0  0  0  0
 25 27  1  0  0  0  0
 28 27  1  0  0  0  0
M  END
>  <MODEL>
9

>  <REMARK>
 VINA RESULT:      -5.8      2.534      6.823
  Name = 
  9 active torsions:
  status: ('A' for Active; 'I' for Inactive)
    1  A    between atoms: C_1  and  C_15
    2  A    between atoms: C_1  and  O_19
    3  A    between atoms: C_5  and  C_14
    4  A    between atoms: C_6  and  C_14
    5  A    between atoms: C_6  and  C_16
    6  A    between atoms: C_9  and  C_12
    7  A    between atoms: C_15  and  C_27
    8  A    between atoms: N_20  and  C_22
    9  A    between atoms: N_20  and  C_27
                            x       y       z     vdW  Elec       q    Type
                         _______ _______ _______ _____ _____    ______ ____

>  <TORSDO>
F 9

$$$$
