=
 OpenBabel11062421213D

 51 58  0  0  1  0  0  0  0  0999 V2000
  189.3090  172.7000  138.6930 N   0  0  0  0  0  2  0  0  0  0  0  0
  195.5270  174.1490  141.7900 N   0  0  0  0  0  0  0  0  0  0  0  0
  194.3210  172.1940  141.4360 C   0  0  2  0  0  3  0  0  0  0  0  0
  192.9340  174.0410  140.1220 C   0  0  0  0  0  2  0  0  0  0  0  0
  193.6640  173.7340  146.1080 C   0  0  0  0  0  2  0  0  0  0  0  0
  194.4860  174.9030  142.5070 C   0  0  0  0  0  0  0  0  0  0  0  0
  190.0280  171.7340  139.3670 O   0  0  0  0  0  0  0  0  0  0  0  0
  188.1400  175.0270  142.7710 C   0  0  0  0  0  0  0  0  0  0  0  0
  190.2810  176.9540  145.1910 C   0  0  0  0  0  2  0  0  0  0  0  0
  187.2840  176.0530  142.3280 C   0  0  0  0  0  3  0  0  0  0  0  0
  191.6080  173.7360  139.4160 C   0  0  0  0  0  2  0  0  0  0  0  0
  193.9170  172.8050  140.1020 C   0  0  2  0  0  0  0  0  0  0  0  0
  188.2600  173.7860  141.9220 C   0  0  1  0  0  3  0  0  0  0  0  0
  188.6340  174.2000  140.5860 C   0  0  1  0  0  3  0  0  0  0  0  0
  194.1800  174.7600  143.9960 C   0  0  2  0  0  3  0  0  0  0  0  0
  194.4400  173.4480  144.8110 C   0  0  2  0  0  3  0  0  0  0  0  0
  191.5280  174.6590  146.3690 O   0  0  0  0  0  0  0  0  0  0  0  0
  196.6540  172.4650  143.1820 C   0  0  0  0  0  2  0  0  0  0  0  0
  189.6620  173.6480  141.4800 N   0  0  0  0  0  2  0  0  0  0  0  0
  194.5520  170.1770  142.8800 C   0  0  0  0  0  2  0  0  0  0  0  0
  188.2060  173.1440  139.5480 C   0  0  0  0  0  2  0  0  0  0  0  0
  192.6060  176.7580  144.4070 C   0  0  0  0  0  0  0  0  0  0  0  0
  196.7070  173.8700  142.5400 C   0  0  0  0  0  2  0  0  0  0  0  0
  193.6030  177.5010  144.5970 O   0  0  0  0  0  0  0  0  0  0  0  0
  193.8410  171.8520  139.0200 O   0  0  0  0  0  0  0  0  0  0  0  0
  195.2740  173.1550  140.7300 C   0  0  1  0  0  3  0  0  0  0  0  0
  192.4700  171.5120  138.6810 C   0  0  0  0  0  2  0  0  0  0  0  0
  195.4230  170.0660  140.6370 C   0  0  0  0  0  1  0  0  0  0  0  0
  191.3130  177.3170  144.2180 N   0  0  0  0  0  2  0  0  0  0  0  0
  187.3160  177.3120  142.9580 C   0  0  0  0  0  0  0  0  0  0  0  0
  189.0340  175.2830  143.8030 C   0  0  0  0  0  3  0  0  0  0  0  0
  196.5700  171.4260  142.1880 O   0  0  0  0  0  0  0  0  0  0  0  0
  191.3820  172.2200  139.5190 C   0  0  2  0  0  3  0  0  0  0  0  0
  189.0420  176.5250  144.4460 C   0  0  0  0  0  0  0  0  0  0  0  0
  188.2090  177.5460  144.0290 C   0  0  0  0  0  3  0  0  0  0  0  0
  195.2430  171.0240  141.8080 C   0  0  1  0  0  0  0  0  0  0  0  0
  193.9520  175.8500  141.8690 O   0  0  0  0  0  0  0  0  0  0  0  0
  192.5760  174.6440  145.7470 C   0  0  0  0  0  0  0  0  0  0  0  0
  194.4960  170.8130  144.2770 C   0  0  2  0  0  3  0  0  0  0  0  0
  193.7600  172.1940  144.2230 C   0  0  0  0  0  2  0  0  0  0  0  0
  192.7660  175.2500  144.4190 C   0  0  2  0  0  3  0  0  0  0  0  0
  195.8040  170.5580  145.0650 C   0  0  1  0  0  3  0  0  0  0  0  0
  196.0100  171.4440  146.1410 O   0  0  0  0  0  1  0  0  0  0  0  0
  197.2110  168.5260  144.5310 C   0  0  0  0  0  1  0  0  0  0  0  0
  194.9750  168.3340  145.3170 F   0  0  0  0  0  0  0  0  0  0  0  0
  196.6210  169.0080  146.8760 C   0  0  0  0  0  1  0  0  0  0  0  0
  196.1360  169.1130  145.4380 C   0  0  0  0  0  0  0  0  0  0  0  0
  186.6390  178.5180  142.3560 C   0  0  0  0  0  2  0  0  0  0  0  0
  185.3680  179.8420  144.1410 C   0  0  0  0  0  1  0  0  0  0  0  0
  185.3750  178.7860  143.0940 C   0  0  0  0  0  0  0  0  0  0  0  0
  184.3380  178.1830  142.8340 O   0  0  0  0  0  0  0  0  0  0  0  0
  1  7  1  0  0  0  0
  1 21  1  0  0  0  0
  2  6  1  0  0  0  0
  2 23  1  0  0  0  0
  3 36  1  0  0  0  0
  6 15  1  0  0  0  0
  7 33  1  0  0  0  0
  8 31  1  0  0  0  0
 10  8  2  0  0  0  0
 10 30  1  0  0  0  0
 11 33  1  0  0  0  0
 11  4  1  0  0  0  0
 12  4  1  0  0  0  0
 12 26  1  0  0  0  0
 12  3  1  0  0  0  0
 13  8  1  0  0  0  0
 14 19  1  0  0  0  0
 14 13  1  0  0  0  0
 15 41  1  0  0  0  0
 15 16  1  0  0  0  0
 16  5  1  0  0  0  0
 19 13  1  0  0  0  0
 20 39  1  0  0  0  0
 21 14  1  0  0  0  0
 22 41  1  0  0  0  0
 22 24  2  0  0  0  0
 23 18  1  0  0  0  0
 25 12  1  0  0  0  0
 26  3  1  0  0  0  0
 26  2  1  0  0  0  0
 27 25  1  0  0  0  0
 27 33  1  0  0  0  0
 28 36  1  0  0  0  0
 29 22  1  0  0  0  0
 29  9  1  0  0  0  0
 30 35  2  0  0  0  0
 31 34  2  0  0  0  0
 32 18  1  0  0  0  0
 34  9  1  0  0  0  0
 35 34  1  0  0  0  0
 36 32  1  0  0  0  0
 36 20  1  0  0  0  0
 37  6  2  0  0  0  0
 38  5  1  0  0  0  0
 38 17  2  0  0  0  0
 39 42  1  0  0  0  0
 40 39  1  0  0  0  0
 40 16  1  0  0  0  0
 41 38  1  0  0  0  0
 42 47  1  0  0  0  0
 42 43  1  0  0  0  0
 44 47  1  0  0  0  0
 45 47  1  0  0  0  0
 47 46  1  0  0  0  0
 48 30  1  0  0  0  0
 48 50  1  0  0  0  0
 50 49  1  0  0  0  0
 51 50  2  0  0  0  0
M  END
>  <MODEL>
1

>  <REMARK>
 VINA RESULT:      -8.8      0.000      0.000
  Name = 
  4 active torsions:
  status: ('A' for Active; 'I' for Inactive)
    1  A    between atoms: C_32  and  C_43
    2  A    between atoms: C_32  and  C_49
    3  A    between atoms: C_33  and  C_35
    4  A    between atoms: C_35  and  C_46
                            x       y       z     vdW  Elec       q    Type
                         _______ _______ _______ _____ _____    ______ ____

>  <TORSDO>
F 4

$$$$
=
 OpenBabel11062421213D

 51 58  0  0  1  0  0  0  0  0999 V2000
  190.5970  173.6850  135.8960 N   0  0  0  0  0  2  0  0  0  0  0  0
  191.4740  171.9610  142.7230 N   0  0  0  0  0  0  0  0  0  0  0  0
  190.1810  173.5440  141.6150 C   0  0  2  0  0  3  0  0  0  0  0  0
  191.2680  172.1220  139.6500 C   0  0  0  0  0  2  0  0  0  0  0  0
  194.2280  175.7170  143.4920 C   0  0  0  0  0  2  0  0  0  0  0  0
  192.7860  172.3650  142.1940 C   0  0  0  0  0  0  0  0  0  0  0  0
  190.0240  174.4230  136.9110 O   0  0  0  0  0  0  0  0  0  0  0  0
  195.0620  175.1980  136.9840 C   0  0  0  0  0  0  0  0  0  0  0  0
  197.2170  174.5100  139.9910 C   0  0  0  0  0  2  0  0  0  0  0  0
  195.8580  174.6240  135.9740 C   0  0  0  0  0  3  0  0  0  0  0  0
  191.0580  172.4600  138.1690 C   0  0  0  0  0  2  0  0  0  0  0  0
  190.0080  172.4920  140.5280 C   0  0  2  0  0  0  0  0  0  0  0  0
  193.6020  175.4310  136.6910 C   0  0  1  0  0  3  0  0  0  0  0  0
  193.0290  174.1700  136.2690 C   0  0  1  0  0  3  0  0  0  0  0  0
  193.6290  173.5130  142.7420 C   0  0  2  0  0  3  0  0  0  0  0  0
  193.0210  174.7640  143.4640 C   0  0  2  0  0  3  0  0  0  0  0  0
  195.7600  176.2000  141.7870 O   0  0  0  0  0  0  0  0  0  0  0  0
  190.6390  173.4380  144.5040 C   0  0  0  0  0  2  0  0  0  0  0  0
  192.7960  174.6400  137.6410 N   0  0  0  0  0  2  0  0  0  0  0  0
  189.4110  175.6580  142.6850 C   0  0  0  0  0  2  0  0  0  0  0  0
  191.7750  174.4030  135.4030 C   0  0  0  0  0  2  0  0  0  0  0  0
  195.8760  173.1440  141.5380 C   0  0  0  0  0  0  0  0  0  0  0  0
  191.3140  172.0980  144.1340 C   0  0  0  0  0  2  0  0  0  0  0  0
  196.2270  172.3440  142.4420 O   0  0  0  0  0  0  0  0  0  0  0  0
  188.6940  172.4780  139.9310 O   0  0  0  0  0  0  0  0  0  0  0  0
  190.1970  172.0640  141.9910 C   0  0  1  0  0  3  0  0  0  0  0  0
  188.6820  173.0850  138.6120 C   0  0  0  0  0  2  0  0  0  0  0  0
  187.7650  173.9620  142.2200 C   0  0  0  0  0  1  0  0  0  0  0  0
  196.6040  173.2220  140.3190 N   0  0  0  0  0  2  0  0  0  0  0  0
  197.1580  174.1770  136.2760 C   0  0  0  0  0  0  0  0  0  0  0  0
  195.5610  175.2830  138.2780 C   0  0  0  0  0  3  0  0  0  0  0  0
  189.3120  173.5370  143.9510 O   0  0  0  0  0  0  0  0  0  0  0  0
  190.0440  173.6130  138.1090 C   0  0  2  0  0  3  0  0  0  0  0  0
  196.8640  174.8660  138.5690 C   0  0  0  0  0  0  0  0  0  0  0  0
  197.6630  174.3010  137.5920 C   0  0  0  0  0  3  0  0  0  0  0  0
  189.2160  174.1390  142.6500 C   0  0  1  0  0  0  0  0  0  0  0  0
  193.3070  171.5810  141.3550 O   0  0  0  0  0  0  0  0  0  0  0  0
  195.0570  175.3700  142.3370 C   0  0  0  0  0  0  0  0  0  0  0  0
  190.7080  176.1320  143.3550 C   0  0  2  0  0  3  0  0  0  0  0  0
  191.9560  175.5140  142.6380 C   0  0  0  0  0  2  0  0  0  0  0  0
  194.6930  174.0680  141.7540 C   0  0  2  0  0  3  0  0  0  0  0  0
  190.5480  176.2200  144.8930 C   0  0  1  0  0  3  0  0  0  0  0  0
  191.7540  176.4500  145.5860 O   0  0  0  0  0  1  0  0  0  0  0  0
  188.0840  176.3050  145.4520 C   0  0  0  0  0  1  0  0  0  0  0  0
  189.2510  178.2060  144.6250 F   0  0  0  0  0  0  0  0  0  0  0  0
  189.6870  177.5470  146.8540 C   0  0  0  0  0  1  0  0  0  0  0  0
  189.4020  177.0720  145.4380 C   0  0  0  0  0  0  0  0  0  0  0  0
  197.9410  173.3080  135.3240 C   0  0  0  0  0  2  0  0  0  0  0  0
  197.8160  170.9690  136.3590 C   0  0  0  0  0  1  0  0  0  0  0  0
  197.3610  171.9380  135.3250 C   0  0  0  0  0  0  0  0  0  0  0  0
  196.4970  171.6040  134.5210 O   0  0  0  0  0  0  0  0  0  0  0  0
  1  7  1  0  0  0  0
  2 23  1  0  0  0  0
  3 26  1  0  0  0  0
  3 36  1  0  0  0  0
  4 12  1  0  0  0  0
  6  2  1  0  0  0  0
  6 15  1  0  0  0  0
  7 33  1  0  0  0  0
  8 31  1  0  0  0  0
  9 29  1  0  0  0  0
 10 30  1  0  0  0  0
 10  8  2  0  0  0  0
 11  4  1  0  0  0  0
 12  3  1  0  0  0  0
 12 26  1  0  0  0  0
 13  8  1  0  0  0  0
 13 19  1  0  0  0  0
 14 13  1  0  0  0  0
 14 19  1  0  0  0  0
 15 16  1  0  0  0  0
 16  5  1  0  0  0  0
 17 38  2  0  0  0  0
 20 39  1  0  0  0  0
 21  1  1  0  0  0  0
 21 14  1  0  0  0  0
 22 41  1  0  0  0  0
 22 24  2  0  0  0  0
 23 18  1  0  0  0  0
 25 12  1  0  0  0  0
 26  2  1  0  0  0  0
 27 25  1  0  0  0  0
 28 36  1  0  0  0  0
 29 22  1  0  0  0  0
 30 35  2  0  0  0  0
 31 34  2  0  0  0  0
 32 18  1  0  0  0  0
 33 11  1  0  0  0  0
 33 27  1  0  0  0  0
 34  9  1  0  0  0  0
 35 34  1  0  0  0  0
 36 20  1  0  0  0  0
 36 32  1  0  0  0  0
 37  6  2  0  0  0  0
 38  5  1  0  0  0  0
 39 42  1  0  0  0  0
 40 39  1  0  0  0  0
 40 16  1  0  0  0  0
 41 38  1  0  0  0  0
 41 15  1  0  0  0  0
 42 47  1  0  0  0  0
 42 43  1  0  0  0  0
 45 47  1  0  0  0  0
 47 44  1  0  0  0  0
 47 46  1  0  0  0  0
 48 50  1  0  0  0  0
 48 30  1  0  0  0  0
 50 49  1  0  0  0  0
 51 50  2  0  0  0  0
M  END
>  <MODEL>
2

>  <REMARK>
 VINA RESULT:      -7.9      3.338      8.053
  Name = 
  4 active torsions:
  status: ('A' for Active; 'I' for Inactive)
    1  A    between atoms: C_32  and  C_43
    2  A    between atoms: C_32  and  C_49
    3  A    between atoms: C_33  and  C_35
    4  A    between atoms: C_35  and  C_46
                            x       y       z     vdW  Elec       q    Type
                         _______ _______ _______ _____ _____    ______ ____

>  <TORSDO>
F 4

$$$$
=
 OpenBabel11062421213D

 51 58  0  0  1  0  0  0  0  0999 V2000
  194.2830  175.9410  145.1000 N   0  0  0  0  0  2  0  0  0  0  0  0
  191.5180  170.6160  141.3110 N   0  0  0  0  0  0  0  0  0  0  0  0
  193.2220  172.1500  140.9280 C   0  0  2  0  0  3  0  0  0  0  0  0
  192.5110  172.6070  143.4470 C   0  0  0  0  0  2  0  0  0  0  0  0
  189.1110  173.6030  138.5580 C   0  0  0  0  0  2  0  0  0  0  0  0
  190.4370  171.5770  141.5820 C   0  0  0  0  0  0  0  0  0  0  0  0
  194.6630  175.7040  143.7950 O   0  0  0  0  0  0  0  0  0  0  0  0
  189.8930  177.5050  143.8000 C   0  0  0  0  0  0  0  0  0  0  0  0
  186.9850  175.6610  142.2860 C   0  0  0  0  0  2  0  0  0  0  0  0
  189.3180  177.9150  145.0180 C   0  0  0  0  0  3  0  0  0  0  0  0
  193.1260  173.7300  144.2910 C   0  0  0  0  0  2  0  0  0  0  0  0
  193.5420  172.0110  142.4090 C   0  0  2  0  0  0  0  0  0  0  0  0
  191.3970  177.4910  143.6950 C   0  0  1  0  0  3  0  0  0  0  0  0
  191.9090  176.6800  144.7800 C   0  0  1  0  0  3  0  0  0  0  0  0
  189.6220  172.2950  140.5100 C   0  0  2  0  0  3  0  0  0  0  0  0
  190.1680  172.6110  139.0760 C   0  0  2  0  0  3  0  0  0  0  0  0
  188.1260  175.4140  139.6700 O   0  0  0  0  0  0  0  0  0  0  0  0
  192.0410  170.3790  138.9190 C   0  0  0  0  0  2  0  0  0  0  0  0
  191.8400  176.1080  143.4280 N   0  0  0  0  0  2  0  0  0  0  0  0
  193.9360  172.8450  138.6440 C   0  0  0  0  0  2  0  0  0  0  0  0
  193.3590  177.0760  145.1210 C   0  0  0  0  0  2  0  0  0  0  0  0
  187.7250  173.3450  141.9000 C   0  0  0  0  0  0  0  0  0  0  0  0
  191.3310  169.7940  140.1610 C   0  0  0  0  0  2  0  0  0  0  0  0
  187.0670  172.2780  141.8050 O   0  0  0  0  0  0  0  0  0  0  0  0
  194.9530  172.0420  142.7100 O   0  0  0  0  0  0  0  0  0  0  0  0
  192.9410  170.8280  141.6370 C   0  0  1  0  0  3  0  0  0  0  0  0
  195.3680  173.3120  143.2780 C   0  0  0  0  0  2  0  0  0  0  0  0
  195.4390  171.4680  139.9280 C   0  0  0  0  0  1  0  0  0  0  0  0
  187.3420  174.3500  142.8300 N   0  0  0  0  0  2  0  0  0  0  0  0
  187.9410  177.7260  145.2410 C   0  0  0  0  0  0  0  0  0  0  0  0
  189.0970  176.8840  142.8460 C   0  0  0  0  0  3  0  0  0  0  0  0
  193.4670  170.4630  139.1100 O   0  0  0  0  0  0  0  0  0  0  0  0
  194.2470  174.3610  143.4530 C   0  0  2  0  0  3  0  0  0  0  0  0
  187.7240  176.7240  143.0580 C   0  0  0  0  0  0  0  0  0  0  0  0
  187.1380  177.1210  144.2450 C   0  0  0  0  0  3  0  0  0  0  0  0
  193.9570  171.6970  139.6580 C   0  0  1  0  0  0  0  0  0  0  0  0
  190.0590  171.6570  142.7820 O   0  0  0  0  0  0  0  0  0  0  0  0
  188.5670  174.2800  139.7360 C   0  0  0  0  0  0  0  0  0  0  0  0
  192.5750  173.1030  137.9820 C   0  0  2  0  0  3  0  0  0  0  0  0
  191.4860  173.4120  139.0640 C   0  0  0  0  0  2  0  0  0  0  0  0
  188.9130  173.5920  140.9910 C   0  0  2  0  0  3  0  0  0  0  0  0
  192.3510  172.1650  136.7710 C   0  0  1  0  0  3  0  0  0  0  0  0
  191.0910  172.3100  136.1550 O   0  0  0  0  0  1  0  0  0  0  0  0
  193.0460  171.2640  134.5130 C   0  0  0  0  0  1  0  0  0  0  0  0
  194.5640  171.3830  136.3400 F   0  0  0  0  0  0  0  0  0  0  0  0
  193.9620  173.4160  135.2920 C   0  0  0  0  0  1  0  0  0  0  0  0
  193.4800  172.0480  135.7470 C   0  0  0  0  0  0  0  0  0  0  0  0
  187.3290  177.8800  146.6110 C   0  0  0  0  0  2  0  0  0  0  0  0
  184.8540  177.2270  146.6760 C   0  0  0  0  0  1  0  0  0  0  0  0
  185.8990  178.2650  146.4650 C   0  0  0  0  0  0  0  0  0  0  0  0
  185.5660  179.4180  146.2110 O   0  0  0  0  0  0  0  0  0  0  0  0
  1 21  1  0  0  0  0
  2  6  1  0  0  0  0
  2 26  1  0  0  0  0
  3 26  1  0  0  0  0
  3 12  1  0  0  0  0
  4 11  1  0  0  0  0
  5 16  1  0  0  0  0
  5 38  1  0  0  0  0
  6 37  2  0  0  0  0
  7  1  1  0  0  0  0
  8 10  1  0  0  0  0
  9 29  1  0  0  0  0
  9 34  1  0  0  0  0
 10 30  2  0  0  0  0
 12 25  1  0  0  0  0
 12  4  1  0  0  0  0
 13  8  1  0  0  0  0
 13 14  1  0  0  0  0
 14 21  1  0  0  0  0
 15 41  1  0  0  0  0
 15  6  1  0  0  0  0
 16 15  1  0  0  0  0
 17 38  2  0  0  0  0
 18 32  1  0  0  0  0
 18 23  1  0  0  0  0
 19 13  1  0  0  0  0
 19 14  1  0  0  0  0
 20 36  1  0  0  0  0
 22 29  1  0  0  0  0
 23  2  1  0  0  0  0
 24 22  2  0  0  0  0
 25 27  1  0  0  0  0
 26 12  1  0  0  0  0
 27 33  1  0  0  0  0
 30 48  1  0  0  0  0
 31 34  1  0  0  0  0
 31  8  2  0  0  0  0
 32 36  1  0  0  0  0
 33  7  1  0  0  0  0
 33 11  1  0  0  0  0
 34 35  2  0  0  0  0
 35 30  1  0  0  0  0
 36 28  1  0  0  0  0
 36  3  1  0  0  0  0
 38 41  1  0  0  0  0
 39 20  1  0  0  0  0
 39 40  1  0  0  0  0
 40 16  1  0  0  0  0
 41 22  1  0  0  0  0
 42 39  1  0  0  0  0
 43 42  1  0  0  0  0
 44 47  1  0  0  0  0
 46 47  1  0  0  0  0
 47 45  1  0  0  0  0
 47 42  1  0  0  0  0
 50 48  1  0  0  0  0
 50 49  1  0  0  0  0
 51 50  2  0  0  0  0
M  END
>  <MODEL>
3

>  <REMARK>
 VINA RESULT:      -7.9      2.743      6.270
  Name = 
  4 active torsions:
  status: ('A' for Active; 'I' for Inactive)
    1  A    between atoms: C_32  and  C_43
    2  A    between atoms: C_32  and  C_49
    3  A    between atoms: C_33  and  C_35
    4  A    between atoms: C_35  and  C_46
                            x       y       z     vdW  Elec       q    Type
                         _______ _______ _______ _____ _____    ______ ____

>  <TORSDO>
F 4

$$$$
=
 OpenBabel11062421213D

 51 58  0  0  1  0  0  0  0  0999 V2000
  194.2170  175.5990  145.4520 N   0  0  0  0  0  2  0  0  0  0  0  0
  191.3700  170.1050  141.9790 N   0  0  0  0  0  0  0  0  0  0  0  0
  193.2260  171.4550  141.6120 C   0  0  2  0  0  3  0  0  0  0  0  0
  192.3280  172.2420  143.9860 C   0  0  0  0  0  2  0  0  0  0  0  0
  189.4880  172.9350  138.7030 C   0  0  0  0  0  2  0  0  0  0  0  0
  190.3550  171.1680  142.0390 C   0  0  0  0  0  0  0  0  0  0  0  0
  194.6930  175.1900  144.2230 O   0  0  0  0  0  0  0  0  0  0  0  0
  190.1140  177.3300  143.5610 C   0  0  0  0  0  0  0  0  0  0  0  0
  187.2110  175.5490  141.9630 C   0  0  0  0  0  2  0  0  0  0  0  0
  189.4660  177.9160  144.6660 C   0  0  0  0  0  3  0  0  0  0  0  0
  192.9550  173.4040  144.7660 C   0  0  0  0  0  2  0  0  0  0  0  0
  193.3960  171.4590  143.1250 C   0  0  2  0  0  0  0  0  0  0  0  0
  191.6140  177.1920  143.6100 C   0  0  1  0  0  3  0  0  0  0  0  0
  191.9530  176.4730  144.8200 C   0  0  1  0  0  3  0  0  0  0  0  0
  189.7050  171.8190  140.8210 C   0  0  2  0  0  3  0  0  0  0  0  0
  190.4050  171.9320  139.4240 C   0  0  2  0  0  3  0  0  0  0  0  0
  188.5620  174.9270  139.5150 O   0  0  0  0  0  0  0  0  0  0  0  0
  192.0890  169.5630  139.6900 C   0  0  0  0  0  2  0  0  0  0  0  0
  191.9610  175.7600  143.5350 N   0  0  0  0  0  2  0  0  0  0  0  0
  194.2030  171.8350  139.3520 C   0  0  0  0  0  2  0  0  0  0  0  0
  193.3950  176.7950  145.2610 C   0  0  0  0  0  2  0  0  0  0  0  0
  187.7840  173.1570  141.8970 C   0  0  0  0  0  0  0  0  0  0  0  0
  191.2200  169.1750  140.9090 C   0  0  0  0  0  2  0  0  0  0  0  0
  187.0500  172.1370  141.8480 O   0  0  0  0  0  0  0  0  0  0  0  0
  194.7710  171.4180  143.5600 O   0  0  0  0  0  0  0  0  0  0  0  0
  192.7700  170.2450  142.4230 C   0  0  1  0  0  3  0  0  0  0  0  0
  195.2380  172.7100  144.0320 C   0  0  0  0  0  2  0  0  0  0  0  0
  195.4600  170.5020  140.9160 C   0  0  0  0  0  1  0  0  0  0  0  0
  187.4040  174.2850  142.6740 N   0  0  0  0  0  2  0  0  0  0  0  0
  188.0630  177.8550  144.7680 C   0  0  0  0  0  0  0  0  0  0  0  0
  189.3590  176.6670  142.6020 C   0  0  0  0  0  3  0  0  0  0  0  0
  193.4930  169.5610  140.0130 O   0  0  0  0  0  0  0  0  0  0  0  0
  194.1990  173.8520  143.9830 C   0  0  2  0  0  3  0  0  0  0  0  0
  187.9640  176.6340  142.6900 C   0  0  0  0  0  0  0  0  0  0  0  0
  187.3070  177.2040  143.7650 C   0  0  0  0  0  3  0  0  0  0  0  0
  194.0330  170.8100  140.4770 C   0  0  1  0  0  0  0  0  0  0  0  0
  189.8750  171.4080  143.1800 O   0  0  0  0  0  0  0  0  0  0  0  0
  188.8970  173.7780  139.7430 C   0  0  0  0  0  0  0  0  0  0  0  0
  192.9350  172.1180  138.5320 C   0  0  2  0  0  3  0  0  0  0  0  0
  191.7820  172.6260  139.4620 C   0  0  0  0  0  2  0  0  0  0  0  0
  189.0680  173.2110  141.0910 C   0  0  2  0  0  3  0  0  0  0  0  0
  192.7450  171.0700  137.4090 C   0  0  1  0  0  3  0  0  0  0  0  0
  191.5190  171.1780  136.7220 O   0  0  0  0  0  1  0  0  0  0  0  0
  194.6310  169.5160  136.7600 C   0  0  0  0  0  1  0  0  0  0  0  0
  194.8370  171.8810  136.5950 F   0  0  0  0  0  0  0  0  0  0  0  0
  193.4580  170.7950  135.0080 C   0  0  0  0  0  1  0  0  0  0  0  0
  193.9170  170.8290  136.4580 C   0  0  0  0  0  0  0  0  0  0  0  0
  187.3430  178.2060  146.0460 C   0  0  0  0  0  2  0  0  0  0  0  0
  185.2650  176.8170  146.6010 C   0  0  0  0  0  1  0  0  0  0  0  0
  186.7450  176.9720  146.6230 C   0  0  0  0  0  0  0  0  0  0  0  0
  187.4410  176.0720  147.0800 O   0  0  0  0  0  0  0  0  0  0  0  0
  2  6  1  0  0  0  0
  2 26  1  0  0  0  0
  3 26  1  0  0  0  0
  3 12  1  0  0  0  0
  4 11  1  0  0  0  0
  5 16  1  0  0  0  0
  5 38  1  0  0  0  0
  6 37  2  0  0  0  0
  7  1  1  0  0  0  0
  8 13  1  0  0  0  0
  8 10  1  0  0  0  0
  9 29  1  0  0  0  0
  9 34  1  0  0  0  0
 10 30  2  0  0  0  0
 12 25  1  0  0  0  0
 12  4  1  0  0  0  0
 13 14  1  0  0  0  0
 14 21  1  0  0  0  0
 15 41  1  0  0  0  0
 15  6  1  0  0  0  0
 16 40  1  0  0  0  0
 16 15  1  0  0  0  0
 17 38  2  0  0  0  0
 18 32  1  0  0  0  0
 18 23  1  0  0  0  0
 19 13  1  0  0  0  0
 19 14  1  0  0  0  0
 20 36  1  0  0  0  0
 21  1  1  0  0  0  0
 22 29  1  0  0  0  0
 23  2  1  0  0  0  0
 24 22  2  0  0  0  0
 25 27  1  0  0  0  0
 26 12  1  0  0  0  0
 30 48  1  0  0  0  0
 31 34  1  0  0  0  0
 31  8  2  0  0  0  0
 32 36  1  0  0  0  0
 33 27  1  0  0  0  0
 33  7  1  0  0  0  0
 33 11  1  0  0  0  0
 34 35  2  0  0  0  0
 35 30  1  0  0  0  0
 36 28  1  0  0  0  0
 36  3  1  0  0  0  0
 38 41  1  0  0  0  0
 39 20  1  0  0  0  0
 39 40  1  0  0  0  0
 41 22  1  0  0  0  0
 42 39  1  0  0  0  0
 43 42  1  0  0  0  0
 46 47  1  0  0  0  0
 47 45  1  0  0  0  0
 47 44  1  0  0  0  0
 47 42  1  0  0  0  0
 48 50  1  0  0  0  0
 49 50  1  0  0  0  0
 50 51  2  0  0  0  0
M  END
>  <MODEL>
4

>  <REMARK>
 VINA RESULT:      -7.8      2.702      6.117
  Name = 
  4 active torsions:
  status: ('A' for Active; 'I' for Inactive)
    1  A    between atoms: C_32  and  C_43
    2  A    between atoms: C_32  and  C_49
    3  A    between atoms: C_33  and  C_35
    4  A    between atoms: C_35  and  C_46
                            x       y       z     vdW  Elec       q    Type
                         _______ _______ _______ _____ _____    ______ ____

>  <TORSDO>
F 4

$$$$
=
 OpenBabel11062421213D

 51 58  0  0  1  0  0  0  0  0999 V2000
  194.9410  176.6460  146.1360 N   0  0  0  0  0  2  0  0  0  0  0  0
  194.0300  170.4590  142.7830 N   0  0  0  0  0  0  0  0  0  0  0  0
  195.4260  172.2850  142.4410 C   0  0  2  0  0  3  0  0  0  0  0  0
  194.2040  172.8410  144.7350 C   0  0  0  0  0  2  0  0  0  0  0  0
  191.5880  172.5120  139.3030 C   0  0  0  0  0  2  0  0  0  0  0  0
  192.7450  171.1760  142.7500 C   0  0  0  0  0  0  0  0  0  0  0  0
  195.5850  176.3600  144.9490 O   0  0  0  0  0  0  0  0  0  0  0  0
  190.6240  177.0350  143.9870 C   0  0  0  0  0  0  0  0  0  0  0  0
  188.4650  174.4320  142.3390 C   0  0  0  0  0  2  0  0  0  0  0  0
  189.7710  177.4350  145.0350 C   0  0  0  0  0  3  0  0  0  0  0  0
  194.4190  174.1570  145.4900 C   0  0  0  0  0  2  0  0  0  0  0  0
  195.5010  172.3820  143.9580 C   0  0  2  0  0  0  0  0  0  0  0  0
  192.0940  177.3470  144.1090 C   0  0  1  0  0  3  0  0  0  0  0  0
  192.5600  176.7940  145.3640 C   0  0  1  0  0  3  0  0  0  0  0  0
  192.0020  171.5720  141.4760 C   0  0  2  0  0  3  0  0  0  0  0  0
  192.7160  171.8460  140.1090 C   0  0  2  0  0  3  0  0  0  0  0  0
  190.0750  174.1660  139.9840 O   0  0  0  0  0  0  0  0  0  0  0  0
  195.0030  170.0880  140.5550 C   0  0  0  0  0  2  0  0  0  0  0  0
  192.8490  176.0790  144.1130 N   0  0  0  0  0  2  0  0  0  0  0  0
  196.3740  172.8710  140.2130 C   0  0  0  0  0  2  0  0  0  0  0  0
  193.8160  177.5400  145.8560 C   0  0  0  0  0  2  0  0  0  0  0  0
  189.7170  172.3140  142.4040 C   0  0  0  0  0  0  0  0  0  0  0  0
  194.2190  169.4960  141.7480 C   0  0  0  0  0  2  0  0  0  0  0  0
  189.3170  171.1220  142.3670 O   0  0  0  0  0  0  0  0  0  0  0  0
  196.8010  172.7620  144.4570 O   0  0  0  0  0  0  0  0  0  0  0  0
  195.2990  171.0180  143.2830 C   0  0  1  0  0  3  0  0  0  0  0  0
  196.8420  174.1470  144.8920 C   0  0  0  0  0  2  0  0  0  0  0  0
  197.8760  172.0140  141.8900 C   0  0  0  0  0  1  0  0  0  0  0  0
  188.9800  173.3010  143.1130 N   0  0  0  0  0  2  0  0  0  0  0  0
  188.4450  176.9660  145.0750 C   0  0  0  0  0  0  0  0  0  0  0  0
  190.1520  176.1510  143.0240 C   0  0  0  0  0  3  0  0  0  0  0  0
  196.3250  170.5090  140.9410 O   0  0  0  0  0  0  0  0  0  0  0  0
  195.5180  174.9300  144.7460 C   0  0  2  0  0  3  0  0  0  0  0  0
  188.8240  175.7110  143.0510 C   0  0  0  0  0  0  0  0  0  0  0  0
  187.9700  176.0920  144.0690 C   0  0  0  0  0  3  0  0  0  0  0  0
  196.4490  171.8740  141.3730 C   0  0  1  0  0  0  0  0  0  0  0  0
  192.1530  171.2980  143.8560 O   0  0  0  0  0  0  0  0  0  0  0  0
  190.7180  173.1740  140.2780 C   0  0  0  0  0  0  0  0  0  0  0  0
  195.1270  172.7440  139.3250 C   0  0  2  0  0  3  0  0  0  0  0  0
  193.8250  172.9160  140.1780 C   0  0  0  0  0  2  0  0  0  0  0  0
  190.9710  172.7210  141.6550 C   0  0  2  0  0  3  0  0  0  0  0  0
  195.3150  171.6540  138.2420 C   0  0  1  0  0  3  0  0  0  0  0  0
  194.1530  171.3800  137.4920 O   0  0  0  0  0  1  0  0  0  0  0  0
  197.6040  170.6990  137.7490 C   0  0  0  0  0  1  0  0  0  0  0  0
  197.1290  173.0160  137.4980 F   0  0  0  0  0  0  0  0  0  0  0  0
  196.2170  171.5390  135.8920 C   0  0  0  0  0  1  0  0  0  0  0  0
  196.5610  171.7400  137.3590 C   0  0  0  0  0  0  0  0  0  0  0  0
  187.5830  177.1260  146.3020 C   0  0  0  0  0  2  0  0  0  0  0  0
  185.0230  177.1660  146.3440 C   0  0  0  0  0  1  0  0  0  0  0  0
  186.3060  177.7870  145.9180 C   0  0  0  0  0  0  0  0  0  0  0  0
  186.2910  178.8430  145.2940 O   0  0  0  0  0  0  0  0  0  0  0  0
  2 26  1  0  0  0  0
  3 26  1  0  0  0  0
  3 12  1  0  0  0  0
  4 11  1  0  0  0  0
  5 16  1  0  0  0  0
  5 38  1  0  0  0  0
  6  2  1  0  0  0  0
  6 37  2  0  0  0  0
  7  1  1  0  0  0  0
  8 13  1  0  0  0  0
  8 10  1  0  0  0  0
  9 34  1  0  0  0  0
  9 29  1  0  0  0  0
 10 30  2  0  0  0  0
 12 25  1  0  0  0  0
 12  4  1  0  0  0  0
 13 19  1  0  0  0  0
 13 14  1  0  0  0  0
 14 21  1  0  0  0  0
 15 41  1  0  0  0  0
 15  6  1  0  0  0  0
 16 40  1  0  0  0  0
 16 15  1  0  0  0  0
 17 38  2  0  0  0  0
 18 32  1  0  0  0  0
 18 23  1  0  0  0  0
 19 14  1  0  0  0  0
 20 36  1  0  0  0  0
 21  1  1  0  0  0  0
 22 29  1  0  0  0  0
 23  2  1  0  0  0  0
 24 22  2  0  0  0  0
 25 27  1  0  0  0  0
 26 12  1  0  0  0  0
 30 48  1  0  0  0  0
 31 34  1  0  0  0  0
 31  8  2  0  0  0  0
 32 36  1  0  0  0  0
 33 27  1  0  0  0  0
 33  7  1  0  0  0  0
 33 11  1  0  0  0  0
 34 35  2  0  0  0  0
 35 30  1  0  0  0  0
 36 28  1  0  0  0  0
 36  3  1  0  0  0  0
 38 41  1  0  0  0  0
 39 40  1  0  0  0  0
 39 20  1  0  0  0  0
 41 22  1  0  0  0  0
 42 39  1  0  0  0  0
 43 42  1  0  0  0  0
 46 47  1  0  0  0  0
 47 45  1  0  0  0  0
 47 44  1  0  0  0  0
 47 42  1  0  0  0  0
 50 48  1  0  0  0  0
 50 49  1  0  0  0  0
 51 50  2  0  0  0  0
M  END
>  <MODEL>
5

>  <REMARK>
 VINA RESULT:      -7.5      2.560      5.780
  Name = 
  4 active torsions:
  status: ('A' for Active; 'I' for Inactive)
    1  A    between atoms: C_32  and  C_43
    2  A    between atoms: C_32  and  C_49
    3  A    between atoms: C_33  and  C_35
    4  A    between atoms: C_35  and  C_46
                            x       y       z     vdW  Elec       q    Type
                         _______ _______ _______ _____ _____    ______ ____

>  <TORSDO>
F 4

$$$$
=
 OpenBabel11062421213D

 51 58  0  0  1  0  0  0  0  0999 V2000
  197.8250  171.2190  144.5740 N   0  0  0  0  0  2  0  0  0  0  0  0
  193.4560  176.4580  142.6180 N   0  0  0  0  0  0  0  0  0  0  0  0
  193.7230  175.2280  144.5730 C   0  0  2  0  0  3  0  0  0  0  0  0
  195.7330  174.4200  143.0350 C   0  0  0  0  0  2  0  0  0  0  0  0
  189.8630  173.4590  142.0040 C   0  0  0  0  0  2  0  0  0  0  0  0
  193.2400  175.3310  141.6970 C   0  0  0  0  0  0  0  0  0  0  0  0
  196.7870  171.6400  145.3800 O   0  0  0  0  0  0  0  0  0  0  0  0
  194.8310  169.1900  141.3600 C   0  0  0  0  0  0  0  0  0  0  0  0
  192.3590  170.7490  138.9910 C   0  0  0  0  0  2  0  0  0  0  0  0
  195.7040  168.5800  140.4390 C   0  0  0  0  0  3  0  0  0  0  0  0
  196.7080  173.3150  143.4590 C   0  0  0  0  0  2  0  0  0  0  0  0
  195.2140  175.2590  144.2680 C   0  0  2  0  0  0  0  0  0  0  0  0
  195.3310  169.4280  142.7620 C   0  0  1  0  0  3  0  0  0  0  0  0
  196.5610  170.1870  142.6700 C   0  0  1  0  0  3  0  0  0  0  0  0
  191.9050  174.6190  141.4930 C   0  0  2  0  0  3  0  0  0  0  0  0
  190.7940  174.5310  142.5940 C   0  0  2  0  0  3  0  0  0  0  0  0
  190.4220  171.4220  140.9910 O   0  0  0  0  0  0  0  0  0  0  0  0
  191.4800  177.0100  143.9730 C   0  0  0  0  0  2  0  0  0  0  0  0
  195.3160  170.8790  143.0310 N   0  0  0  0  0  2  0  0  0  0  0  0
  191.8840  174.8790  146.2180 C   0  0  0  0  0  2  0  0  0  0  0  0
  197.4330  169.9680  143.9220 C   0  0  0  0  0  2  0  0  0  0  0  0
  192.3880  173.1730  139.4160 C   0  0  0  0  0  0  0  0  0  0  0  0
  192.3590  177.3590  142.7510 C   0  0  0  0  0  2  0  0  0  0  0  0
  192.0810  174.1410  138.6740 O   0  0  0  0  0  0  0  0  0  0  0  0
  196.0470  175.3980  145.4370 O   0  0  0  0  0  0  0  0  0  0  0  0
  194.3120  176.4180  143.8190 C   0  0  1  0  0  3  0  0  0  0  0  0
  196.6850  174.1470  145.8120 C   0  0  0  0  0  2  0  0  0  0  0  0
  193.7110  176.3160  146.8520 C   0  0  0  0  0  1  0  0  0  0  0  0
  193.0510  172.0350  138.8810 N   0  0  0  0  0  2  0  0  0  0  0  0
  195.3690  168.5490  139.0720 C   0  0  0  0  0  0  0  0  0  0  0  0
  193.6640  169.7870  140.9000 C   0  0  0  0  0  3  0  0  0  0  0  0
  192.2160  177.1110  145.2070 O   0  0  0  0  0  0  0  0  0  0  0  0
  196.3600  172.9380  144.9070 C   0  0  2  0  0  3  0  0  0  0  0  0
  193.3200  169.7280  139.5450 C   0  0  0  0  0  0  0  0  0  0  0  0
  194.1610  169.1330  138.6240 C   0  0  0  0  0  3  0  0  0  0  0  0
  192.8670  175.9080  145.6510 C   0  0  1  0  0  0  0  0  0  0  0  0
  194.1870  175.0760  140.9050 O   0  0  0  0  0  0  0  0  0  0  0  0
  190.7010  172.5940  141.1720 C   0  0  0  0  0  0  0  0  0  0  0  0
  190.7270  174.5000  145.2820 C   0  0  2  0  0  3  0  0  0  0  0  0
  191.2760  173.9310  143.9310 C   0  0  0  0  0  2  0  0  0  0  0  0
  192.0160  173.1920  140.8860 C   0  0  2  0  0  3  0  0  0  0  0  0
  189.5630  175.5160  145.3850 C   0  0  1  0  0  3  0  0  0  0  0  0
  188.5370  175.3140  144.4400 O   0  0  0  0  0  1  0  0  0  0  0  0
  187.6450  176.4970  146.7090 C   0  0  0  0  0  1  0  0  0  0  0  0
  189.9010  176.6760  147.4440 F   0  0  0  0  0  0  0  0  0  0  0  0
  188.8680  174.5540  147.6080 C   0  0  0  0  0  1  0  0  0  0  0  0
  189.0100  175.8200  146.7780 C   0  0  0  0  0  0  0  0  0  0  0  0
  196.3770  168.1710  138.0160 C   0  0  0  0  0  2  0  0  0  0  0  0
  196.6900  169.8050  136.0690 C   0  0  0  0  0  1  0  0  0  0  0  0
  196.9980  169.4080  137.4690 C   0  0  0  0  0  0  0  0  0  0  0  0
  197.7250  170.1200  138.1550 O   0  0  0  0  0  0  0  0  0  0  0  0
  1  7  1  0  0  0  0
  2 23  1  0  0  0  0
  2 26  1  0  0  0  0
  3 36  1  0  0  0  0
  4 11  1  0  0  0  0
  4 12  1  0  0  0  0
  5 16  1  0  0  0  0
  6  2  1  0  0  0  0
  8 13  1  0  0  0  0
  9 34  1  0  0  0  0
 10  8  2  0  0  0  0
 11 33  1  0  0  0  0
 12  3  1  0  0  0  0
 12 25  1  0  0  0  0
 13 19  1  0  0  0  0
 14 13  1  0  0  0  0
 14 19  1  0  0  0  0
 14 21  1  0  0  0  0
 15  6  1  0  0  0  0
 15 16  1  0  0  0  0
 16 40  1  0  0  0  0
 17 38  2  0  0  0  0
 18 32  1  0  0  0  0
 21  1  1  0  0  0  0
 22 41  1  0  0  0  0
 23 18  1  0  0  0  0
 24 22  2  0  0  0  0
 25 27  1  0  0  0  0
 26 12  1  0  0  0  0
 26  3  1  0  0  0  0
 29  9  1  0  0  0  0
 29 22  1  0  0  0  0
 30 10  1  0  0  0  0
 31  8  1  0  0  0  0
 32 36  1  0  0  0  0
 33  7  1  0  0  0  0
 33 27  1  0  0  0  0
 34 31  2  0  0  0  0
 35 30  2  0  0  0  0
 35 34  1  0  0  0  0
 36 20  1  0  0  0  0
 36 28  1  0  0  0  0
 37  6  2  0  0  0  0
 38  5  1  0  0  0  0
 39 42  1  0  0  0  0
 39 20  1  0  0  0  0
 40 39  1  0  0  0  0
 41 38  1  0  0  0  0
 41 15  1  0  0  0  0
 42 47  1  0  0  0  0
 43 42  1  0  0  0  0
 44 47  1  0  0  0  0
 47 45  1  0  0  0  0
 47 46  1  0  0  0  0
 48 30  1  0  0  0  0
 49 50  1  0  0  0  0
 50 48  1  0  0  0  0
 50 51  2  0  0  0  0
M  END
>  <MODEL>
6

>  <REMARK>
 VINA RESULT:      -7.4      2.904      8.655
  Name = 
  4 active torsions:
  status: ('A' for Active; 'I' for Inactive)
    1  A    between atoms: C_32  and  C_43
    2  A    between atoms: C_32  and  C_49
    3  A    between atoms: C_33  and  C_35
    4  A    between atoms: C_35  and  C_46
                            x       y       z     vdW  Elec       q    Type
                         _______ _______ _______ _____ _____    ______ ____

>  <TORSDO>
F 4

$$$$
=
 OpenBabel11062421213D

 51 58  0  0  1  0  0  0  0  0999 V2000
  195.9630  174.0430  144.2450 N   0  0  0  0  0  2  0  0  0  0  0  0
  191.4930  169.2310  141.5580 N   0  0  0  0  0  0  0  0  0  0  0  0
  193.4160  170.2650  140.7600 C   0  0  2  0  0  3  0  0  0  0  0  0
  193.2410  171.1040  143.2760 C   0  0  0  0  0  2  0  0  0  0  0  0
  189.4130  172.4530  138.8050 C   0  0  0  0  0  2  0  0  0  0  0  0
  190.7160  170.4450  141.8510 C   0  0  0  0  0  0  0  0  0  0  0  0
  196.0640  173.6050  142.9400 O   0  0  0  0  0  0  0  0  0  0  0  0
  191.8900  176.5020  143.3640 C   0  0  0  0  0  0  0  0  0  0  0  0
  188.4350  175.2900  142.5000 C   0  0  0  0  0  2  0  0  0  0  0  0
  191.6260  177.1470  144.5880 C   0  0  0  0  0  3  0  0  0  0  0  0
  194.2210  172.1160  143.8820 C   0  0  0  0  0  2  0  0  0  0  0  0
  193.9300  170.1860  142.1910 C   0  0  2  0  0  0  0  0  0  0  0  0
  193.3150  176.1140  143.0600 C   0  0  1  0  0  3  0  0  0  0  0  0
  193.7980  175.3040  144.1580 C   0  0  1  0  0  3  0  0  0  0  0  0
  189.9220  171.2400  140.8180 C   0  0  2  0  0  3  0  0  0  0  0  0
  190.2870  171.2860  139.2950 C   0  0  2  0  0  3  0  0  0  0  0  0
  189.0550  174.5410  139.8050 O   0  0  0  0  0  0  0  0  0  0  0  0
  191.5570  168.6610  139.1670 C   0  0  0  0  0  2  0  0  0  0  0  0
  193.3850  174.6470  142.9100 N   0  0  0  0  0  2  0  0  0  0  0  0
  193.8910  170.5590  138.3320 C   0  0  0  0  0  2  0  0  0  0  0  0
  195.3350  175.3660  144.2480 C   0  0  0  0  0  2  0  0  0  0  0  0
  188.5610  172.8390  142.3100 C   0  0  0  0  0  0  0  0  0  0  0  0
  190.9420  168.3790  140.5570 C   0  0  0  0  0  2  0  0  0  0  0  0
  187.6720  171.9590  142.4390 O   0  0  0  0  0  0  0  0  0  0  0  0
  195.3400  169.9000  142.2910 O   0  0  0  0  0  0  0  0  0  0  0  0
  192.9610  169.1200  141.6600 C   0  0  1  0  0  3  0  0  0  0  0  0
  196.1180  171.0780  142.6350 C   0  0  0  0  0  2  0  0  0  0  0  0
  195.2300  168.9790  139.5630 C   0  0  0  0  0  1  0  0  0  0  0  0
  188.5700  173.9860  143.1500 N   0  0  0  0  0  2  0  0  0  0  0  0
  190.2960  177.3170  145.0170 C   0  0  0  0  0  0  0  0  0  0  0  0
  190.8320  176.0100  142.6120 C   0  0  0  0  0  3  0  0  0  0  0  0
  192.9770  168.4130  139.1510 O   0  0  0  0  0  0  0  0  0  0  0  0
  195.3060  172.3780  142.8270 C   0  0  2  0  0  3  0  0  0  0  0  0
  189.5100  176.2070  143.0260 C   0  0  0  0  0  0  0  0  0  0  0  0
  189.2280  176.8380  144.2220 C   0  0  0  0  0  3  0  0  0  0  0  0
  193.8150  169.5360  139.4700 C   0  0  1  0  0  0  0  0  0  0  0  0
  190.5630  170.7210  143.0720 O   0  0  0  0  0  0  0  0  0  0  0  0
  189.2330  173.3440  139.9520 C   0  0  0  0  0  0  0  0  0  0  0  0
  192.5350  171.0790  137.8330 C   0  0  2  0  0  3  0  0  0  0  0  0
  191.7330  171.7390  139.0050 C   0  0  0  0  0  2  0  0  0  0  0  0
  189.6120  172.7080  141.2240 C   0  0  2  0  0  3  0  0  0  0  0  0
  191.9130  170.1190  136.7900 C   0  0  1  0  0  3  0  0  0  0  0  0
  190.5680  170.4010  136.4780 O   0  0  0  0  0  1  0  0  0  0  0  0
  193.5300  171.0070  135.0610 C   0  0  0  0  0  1  0  0  0  0  0  0
  191.8680  169.3950  134.5160 F   0  0  0  0  0  0  0  0  0  0  0  0
  193.7150  168.6630  135.8000 C   0  0  0  0  0  1  0  0  0  0  0  0
  192.7360  169.7980  135.5430 C   0  0  0  0  0  0  0  0  0  0  0  0
  189.9640  177.7370  146.4270 C   0  0  0  0  0  2  0  0  0  0  0  0
  189.7790  175.3210  147.2570 C   0  0  0  0  0  1  0  0  0  0  0  0
  190.3990  176.6690  147.3680 C   0  0  0  0  0  0  0  0  0  0  0  0
  191.2750  176.8660  148.2030 O   0  0  0  0  0  0  0  0  0  0  0  0
  1 21  1  0  0  0  0
  2 26  1  0  0  0  0
  2  6  1  0  0  0  0
  3 26  1  0  0  0  0
  3 12  1  0  0  0  0
  4 11  1  0  0  0  0
  5 16  1  0  0  0  0
  5 38  1  0  0  0  0
  6 37  2  0  0  0  0
  7  1  1  0  0  0  0
  8 10  1  0  0  0  0
  9 34  1  0  0  0  0
  9 29  1  0  0  0  0
 10 30  2  0  0  0  0
 12 25  1  0  0  0  0
 12  4  1  0  0  0  0
 13  8  1  0  0  0  0
 13 14  1  0  0  0  0
 14 21  1  0  0  0  0
 15 41  1  0  0  0  0
 15  6  1  0  0  0  0
 16 15  1  0  0  0  0
 17 38  2  0  0  0  0
 18 23  1  0  0  0  0
 19 13  1  0  0  0  0
 19 14  1  0  0  0  0
 20 36  1  0  0  0  0
 22 24  2  0  0  0  0
 22 29  1  0  0  0  0
 23  2  1  0  0  0  0
 25 27  1  0  0  0  0
 26 12  1  0  0  0  0
 27 33  1  0  0  0  0
 30 48  1  0  0  0  0
 31 34  1  0  0  0  0
 31  8  2  0  0  0  0
 32 18  1  0  0  0  0
 32 36  1  0  0  0  0
 33  7  1  0  0  0  0
 33 11  1  0  0  0  0
 34 35  2  0  0  0  0
 35 30  1  0  0  0  0
 36 28  1  0  0  0  0
 36  3  1  0  0  0  0
 38 41  1  0  0  0  0
 39 20  1  0  0  0  0
 39 40  1  0  0  0  0
 40 16  1  0  0  0  0
 41 22  1  0  0  0  0
 42 39  1  0  0  0  0
 43 42  1  0  0  0  0
 44 47  1  0  0  0  0
 45 47  1  0  0  0  0
 47 46  1  0  0  0  0
 47 42  1  0  0  0  0
 48 50  1  0  0  0  0
 49 50  1  0  0  0  0
 50 51  2  0  0  0  0
M  END
>  <MODEL>
7

>  <REMARK>
 VINA RESULT:      -6.5      3.069      6.596
  Name = 
  4 active torsions:
  status: ('A' for Active; 'I' for Inactive)
    1  A    between atoms: C_32  and  C_43
    2  A    between atoms: C_32  and  C_49
    3  A    between atoms: C_33  and  C_35
    4  A    between atoms: C_35  and  C_46
                            x       y       z     vdW  Elec       q    Type
                         _______ _______ _______ _____ _____    ______ ____

>  <TORSDO>
F 4

$$$$
=
 OpenBabel11062421213D

 51 58  0  0  1  0  0  0  0  0999 V2000
  195.7300  171.6890  145.4100 N   0  0  0  0  0  2  0  0  0  0  0  0
  191.6830  176.9390  142.8770 N   0  0  0  0  0  0  0  0  0  0  0  0
  191.8300  175.8690  144.9350 C   0  0  2  0  0  3  0  0  0  0  0  0
  193.8440  174.8410  143.5400 C   0  0  0  0  0  2  0  0  0  0  0  0
  187.9670  174.0680  142.3920 C   0  0  0  0  0  2  0  0  0  0  0  0
  191.4390  175.7490  142.0460 C   0  0  0  0  0  0  0  0  0  0  0  0
  194.6900  172.2240  146.1430 O   0  0  0  0  0  0  0  0  0  0  0  0
  192.7380  169.5350  142.2760 C   0  0  0  0  0  0  0  0  0  0  0  0
  190.4180  171.0000  139.7020 C   0  0  0  0  0  2  0  0  0  0  0  0
  193.6080  168.8100  141.4390 C   0  0  0  0  0  3  0  0  0  0  0  0
  194.7510  173.7320  144.0870 C   0  0  0  0  0  2  0  0  0  0  0  0
  193.3290  175.8050  144.6800 C   0  0  2  0  0  0  0  0  0  0  0  0
  193.2080  169.8680  143.6700 C   0  0  1  0  0  3  0  0  0  0  0  0
  194.4750  170.5590  143.5560 C   0  0  1  0  0  3  0  0  0  0  0  0
  190.0780  175.0850  141.8570 C   0  0  2  0  0  3  0  0  0  0  0  0
  188.9320  175.1420  142.9230 C   0  0  2  0  0  3  0  0  0  0  0  0
  188.4560  171.9290  141.5730 O   0  0  0  0  0  0  0  0  0  0  0  0
  189.6960  177.6950  144.1130 C   0  0  0  0  0  2  0  0  0  0  0  0
  193.2550  171.3360  143.8160 N   0  0  0  0  0  2  0  0  0  0  0  0
  189.9280  175.7450  146.5400 C   0  0  0  0  0  2  0  0  0  0  0  0
  195.2970  170.4070  144.8510 C   0  0  0  0  0  2  0  0  0  0  0  0
  190.5520  173.4480  139.9250 C   0  0  0  0  0  0  0  0  0  0  0  0
  190.6280  177.8980  142.8970 C   0  0  0  0  0  2  0  0  0  0  0  0
  190.3150  174.3620  139.0950 O   0  0  0  0  0  0  0  0  0  0  0  0
  194.1330  176.0040  145.8610 O   0  0  0  0  0  0  0  0  0  0  0  0
  192.4990  176.9620  144.1060 C   0  0  1  0  0  3  0  0  0  0  0  0
  194.6970  174.7610  146.3600 C   0  0  0  0  0  2  0  0  0  0  0  0
  191.8020  177.1460  147.1140 C   0  0  0  0  0  1  0  0  0  0  0  0
  191.1740  172.2390  139.5100 N   0  0  0  0  0  2  0  0  0  0  0  0
  193.3140  168.6780  140.0690 C   0  0  0  0  0  0  0  0  0  0  0  0
  191.6160  170.1440  141.7280 C   0  0  0  0  0  3  0  0  0  0  0  0
  190.3990  177.8650  145.3590 O   0  0  0  0  0  0  0  0  0  0  0  0
  194.3410  173.4960  145.5480 C   0  0  2  0  0  3  0  0  0  0  0  0
  191.3110  169.9870  140.3720 C   0  0  0  0  0  0  0  0  0  0  0  0
  192.1490  169.2770  139.5330 C   0  0  0  0  0  3  0  0  0  0  0  0
  190.9760  176.6760  145.9230 C   0  0  1  0  0  0  0  0  0  0  0  0
  192.3960  175.3850  141.3110 O   0  0  0  0  0  0  0  0  0  0  0  0
  188.7870  173.0980  141.6640 C   0  0  0  0  0  0  0  0  0  0  0  0
  188.7820  175.3420  145.6010 C   0  0  2  0  0  3  0  0  0  0  0  0
  189.3430  174.6350  144.3210 C   0  0  0  0  0  2  0  0  0  0  0  0
  190.1370  173.6080  141.3750 C   0  0  2  0  0  3  0  0  0  0  0  0
  187.6670  176.4160  145.5790 C   0  0  1  0  0  3  0  0  0  0  0  0
  186.7540  176.2770  144.5140 O   0  0  0  0  0  1  0  0  0  0  0  0
  187.5480  177.9750  147.5660 C   0  0  0  0  0  1  0  0  0  0  0  0
  187.1180  175.6440  147.7700 F   0  0  0  0  0  0  0  0  0  0  0  0
  185.4750  176.9630  146.6950 C   0  0  0  0  0  1  0  0  0  0  0  0
  186.9650  176.7340  146.8990 C   0  0  0  0  0  0  0  0  0  0  0  0
  194.3330  168.1660  139.0830 C   0  0  0  0  0  2  0  0  0  0  0  0
  195.1220  170.4640  138.2740 C   0  0  0  0  0  1  0  0  0  0  0  0
  194.4820  169.1530  137.9790 C   0  0  0  0  0  0  0  0  0  0  0  0
  194.1240  168.8970  136.8340 O   0  0  0  0  0  0  0  0  0  0  0  0
  1  7  1  0  0  0  0
  2 23  1  0  0  0  0
  2 26  1  0  0  0  0
  3 36  1  0  0  0  0
  4 11  1  0  0  0  0
  4 12  1  0  0  0  0
  5 16  1  0  0  0  0
  6  2  1  0  0  0  0
  8 13  1  0  0  0  0
  9 34  1  0  0  0  0
 10  8  2  0  0  0  0
 11 33  1  0  0  0  0
 12  3  1  0  0  0  0
 12 25  1  0  0  0  0
 13 19  1  0  0  0  0
 14 13  1  0  0  0  0
 14 19  1  0  0  0  0
 14 21  1  0  0  0  0
 15  6  1  0  0  0  0
 15 16  1  0  0  0  0
 16 40  1  0  0  0  0
 17 38  2  0  0  0  0
 18 32  1  0  0  0  0
 21  1  1  0  0  0  0
 22 41  1  0  0  0  0
 23 18  1  0  0  0  0
 24 22  2  0  0  0  0
 25 27  1  0  0  0  0
 26 12  1  0  0  0  0
 26  3  1  0  0  0  0
 29  9  1  0  0  0  0
 29 22  1  0  0  0  0
 30 10  1  0  0  0  0
 31  8  1  0  0  0  0
 32 36  1  0  0  0  0
 33  7  1  0  0  0  0
 33 27  1  0  0  0  0
 34 31  2  0  0  0  0
 35 30  2  0  0  0  0
 35 34  1  0  0  0  0
 36 20  1  0  0  0  0
 36 28  1  0  0  0  0
 37  6  2  0  0  0  0
 38  5  1  0  0  0  0
 39 20  1  0  0  0  0
 40 39  1  0  0  0  0
 41 38  1  0  0  0  0
 41 15  1  0  0  0  0
 42 39  1  0  0  0  0
 42 47  1  0  0  0  0
 43 42  1  0  0  0  0
 46 47  1  0  0  0  0
 47 44  1  0  0  0  0
 47 45  1  0  0  0  0
 48 30  1  0  0  0  0
 50 49  1  0  0  0  0
 50 48  1  0  0  0  0
 51 50  2  0  0  0  0
M  END
>  <MODEL>
8

>  <REMARK>
 VINA RESULT:      -6.5      2.763      8.635
  Name = 
  4 active torsions:
  status: ('A' for Active; 'I' for Inactive)
    1  A    between atoms: C_32  and  C_43
    2  A    between atoms: C_32  and  C_49
    3  A    between atoms: C_33  and  C_35
    4  A    between atoms: C_35  and  C_46
                            x       y       z     vdW  Elec       q    Type
                         _______ _______ _______ _____ _____    ______ ____

>  <TORSDO>
F 4

$$$$
=
 OpenBabel11062421213D

 51 58  0  0  1  0  0  0  0  0999 V2000
  196.8670  175.2310  143.5490 N   0  0  0  0  0  2  0  0  0  0  0  0
  192.5440  170.2660  140.9000 N   0  0  0  0  0  0  0  0  0  0  0  0
  193.8530  171.9360  139.9500 C   0  0  2  0  0  3  0  0  0  0  0  0
  194.4790  172.0300  142.5300 C   0  0  0  0  0  2  0  0  0  0  0  0
  189.1210  173.4230  140.1210 C   0  0  0  0  0  2  0  0  0  0  0  0
  191.7460  171.1190  141.7950 C   0  0  0  0  0  0  0  0  0  0  0  0
  196.5520  175.1830  142.2070 O   0  0  0  0  0  0  0  0  0  0  0  0
  192.4200  176.6790  144.7930 C   0  0  0  0  0  0  0  0  0  0  0  0
  189.1260  174.8670  144.6560 C   0  0  0  0  0  2  0  0  0  0  0  0
  192.5240  176.8980  146.1800 C   0  0  0  0  0  3  0  0  0  0  0  0
  195.4400  173.0730  143.1120 C   0  0  0  0  0  2  0  0  0  0  0  0
  194.8600  171.6310  141.0500 C   0  0  2  0  0  0  0  0  0  0  0  0
  193.6770  176.7680  143.9650 C   0  0  1  0  0  3  0  0  0  0  0  0
  194.6490  175.8610  144.5370 C   0  0  1  0  0  3  0  0  0  0  0  0
  190.5150  171.9140  141.3700 C   0  0  2  0  0  3  0  0  0  0  0  0
  190.2860  172.4400  139.9120 C   0  0  2  0  0  3  0  0  0  0  0  0
  188.8280  175.0180  141.8100 O   0  0  0  0  0  0  0  0  0  0  0  0
  191.8190  170.3620  138.5520 C   0  0  0  0  0  2  0  0  0  0  0  0
  193.9190  175.4590  143.3270 N   0  0  0  0  0  2  0  0  0  0  0  0
  193.3550  172.9520  137.7300 C   0  0  0  0  0  2  0  0  0  0  0  0
  196.0830  176.2980  144.1760 C   0  0  0  0  0  2  0  0  0  0  0  0
  189.5590  172.6670  143.6410 C   0  0  0  0  0  0  0  0  0  0  0  0
  191.8070  169.5840  139.8880 C   0  0  0  0  0  2  0  0  0  0  0  0
  188.9300  171.5810  143.7330 O   0  0  0  0  0  0  0  0  0  0  0  0
  196.2360  171.7090  140.6230 O   0  0  0  0  0  0  0  0  0  0  0  0
  193.9450  170.5210  140.5150 C   0  0  1  0  0  3  0  0  0  0  0  0
  196.8890  172.9220  141.0850 C   0  0  0  0  0  2  0  0  0  0  0  0
  195.2830  171.5180  137.9100 C   0  0  0  0  0  1  0  0  0  0  0  0
  189.6930  173.5220  144.7680 N   0  0  0  0  0  2  0  0  0  0  0  0
  191.4330  176.6000  147.0190 C   0  0  0  0  0  0  0  0  0  0  0  0
  191.2520  176.1350  144.2740 C   0  0  0  0  0  3  0  0  0  0  0  0
  193.1540  170.5070  138.0300 O   0  0  0  0  0  0  0  0  0  0  0  0
  196.0090  173.8710  141.9290 C   0  0  2  0  0  3  0  0  0  0  0  0
  190.1600  175.8680  145.1060 C   0  0  0  0  0  0  0  0  0  0  0  0
  190.2390  176.0770  146.4700 C   0  0  0  0  0  3  0  0  0  0  0  0
  193.8630  171.6900  138.4340 C   0  0  1  0  0  0  0  0  0  0  0  0
  192.0080  171.0240  143.0250 O   0  0  0  0  0  0  0  0  0  0  0  0
  189.2340  173.9130  141.4950 C   0  0  0  0  0  0  0  0  0  0  0  0
  191.8470  173.2090  137.8610 C   0  0  2  0  0  3  0  0  0  0  0  0
  191.4360  173.3140  139.3680 C   0  0  0  0  0  2  0  0  0  0  0  0
  190.1470  173.0960  142.3100 C   0  0  2  0  0  3  0  0  0  0  0  0
  191.0470  172.4180  136.7980 C   0  0  1  0  0  3  0  0  0  0  0  0
  189.6590  172.3690  137.0400 O   0  0  0  0  0  1  0  0  0  0  0  0
  192.1460  171.5410  134.6960 C   0  0  0  0  0  1  0  0  0  0  0  0
  192.1330  173.8580  135.2350 F   0  0  0  0  0  0  0  0  0  0  0  0
  190.0950  172.8970  134.5140 C   0  0  0  0  0  1  0  0  0  0  0  0
  191.3640  172.6880  135.3270 C   0  0  0  0  0  0  0  0  0  0  0  0
  191.5770  176.5440  148.5190 C   0  0  0  0  0  2  0  0  0  0  0  0
  190.0720  178.6110  148.3870 C   0  0  0  0  0  1  0  0  0  0  0  0
  191.1220  177.8360  149.1010 C   0  0  0  0  0  0  0  0  0  0  0  0
  191.5660  178.2550  150.1650 O   0  0  0  0  0  0  0  0  0  0  0  0
  1 21  1  0  0  0  0
  2  6  1  0  0  0  0
  3 26  1  0  0  0  0
  3 12  1  0  0  0  0
  4 11  1  0  0  0  0
  5 38  1  0  0  0  0
  6 37  2  0  0  0  0
  7  1  1  0  0  0  0
  8 10  1  0  0  0  0
  9 29  1  0  0  0  0
  9 34  1  0  0  0  0
 10 30  2  0  0  0  0
 12  4  1  0  0  0  0
 13 14  1  0  0  0  0
 13  8  1  0  0  0  0
 15  6  1  0  0  0  0
 15 41  1  0  0  0  0
 16  5  1  0  0  0  0
 16 15  1  0  0  0  0
 18 23  1  0  0  0  0
 19 13  1  0  0  0  0
 19 14  1  0  0  0  0
 20 39  1  0  0  0  0
 20 36  1  0  0  0  0
 21 14  1  0  0  0  0
 22 24  2  0  0  0  0
 22 29  1  0  0  0  0
 23  2  1  0  0  0  0
 25 12  1  0  0  0  0
 25 27  1  0  0  0  0
 26  2  1  0  0  0  0
 26 12  1  0  0  0  0
 27 33  1  0  0  0  0
 28 36  1  0  0  0  0
 30 48  1  0  0  0  0
 31  8  2  0  0  0  0
 31 34  1  0  0  0  0
 32 36  1  0  0  0  0
 32 18  1  0  0  0  0
 33  7  1  0  0  0  0
 33 11  1  0  0  0  0
 34 35  2  0  0  0  0
 35 30  1  0  0  0  0
 36  3  1  0  0  0  0
 38 17  2  0  0  0  0
 38 41  1  0  0  0  0
 39 40  1  0  0  0  0
 40 16  1  0  0  0  0
 41 22  1  0  0  0  0
 42 43  1  0  0  0  0
 42 39  1  0  0  0  0
 44 47  1  0  0  0  0
 45 47  1  0  0  0  0
 46 47  1  0  0  0  0
 47 42  1  0  0  0  0
 48 50  1  0  0  0  0
 49 50  1  0  0  0  0
 50 51  2  0  0  0  0
M  END
>  <MODEL>
9

>  <REMARK>
 VINA RESULT:      -6.5      3.385      6.840
  Name = 
  4 active torsions:
  status: ('A' for Active; 'I' for Inactive)
    1  A    between atoms: C_32  and  C_43
    2  A    between atoms: C_32  and  C_49
    3  A    between atoms: C_33  and  C_35
    4  A    between atoms: C_35  and  C_46
                            x       y       z     vdW  Elec       q    Type
                         _______ _______ _______ _____ _____    ______ ____

>  <TORSDO>
F 4

$$$$
