=
 OpenBabel11062422043D

 34 38  0  0  1  0  0  0  0  0999 V2000
  190.5000  173.9350  142.7950 C   0  0  0  0  0  0  0  0  0  0  0  0
  190.7360  173.9270  144.1690 C   0  0  0  0  0  0  0  0  0  0  0  0
  190.0270  174.7000  146.3940 C   0  0  0  0  0  3  0  0  0  0  0  0
  189.4460  174.4680  140.8060 N   0  0  0  0  0  0  0  0  0  0  0  0
  191.3130  173.2310  141.7560 C   0  0  0  0  0  2  0  0  0  0  0  0
  187.0740  177.1250  147.6600 Cl  0  0  0  0  0  0  0  0  0  0  0  0
  189.8640  174.6750  145.0010 C   0  0  0  0  0  0  0  0  0  0  0  0
  188.7990  175.4290  144.4190 C   0  0  0  0  0  0  0  0  0  0  0  0
  188.1420  176.1870  146.6400 C   0  0  0  0  0  0  0  0  0  0  0  0
  187.9560  176.1790  145.2590 C   0  0  0  0  0  3  0  0  0  0  0  0
  188.2910  174.5320  139.9270 C   0  0  0  0  0  1  0  0  0  0  0  0
  188.5910  175.4320  143.0160 C   0  0  0  0  0  0  0  0  0  0  0  0
  190.5560  173.6180  140.5340 C   0  0  0  0  0  0  0  0  0  0  0  0
  190.8420  173.2110  139.3780 O   0  0  0  0  0  0  0  0  0  0  0  0
  189.1750  175.4460  147.2090 C   0  0  0  0  0  3  0  0  0  0  0  0
  189.4500  174.6350  142.2250 C   0  0  0  0  0  0  0  0  0  0  0  0
  185.4410  177.1250  142.9410 N   0  0  0  0  0  2  0  0  0  0  0  0
  187.5030  176.3120  142.4470 C   0  0  1  0  0  3  0  0  0  0  0  0
  186.1500  175.9180  142.8700 N   0  0  0  0  0  2  0  0  0  0  0  0
  188.2830  178.4380  141.4150 C   0  0  0  0  0  1  0  0  0  0  0  0
  186.3100  178.2300  142.8570 C   0  0  0  0  0  0  0  0  0  0  0  0
  185.9220  179.4220  142.9720 O   0  0  0  0  0  0  0  0  0  0  0  0
  187.7060  177.8120  142.6700 C   0  0  1  0  0  3  0  0  0  0  0  0
  191.8480  173.1570  144.6590 N   0  0  0  0  0  2  0  0  0  0  0  0
  193.1910  173.4390  144.3690 N   0  0  0  0  0  2  0  0  0  0  0  0
  194.5140  174.5610  146.0490 C   0  0  0  0  0  3  0  0  0  0  0  0
  193.4900  174.7340  144.9620 C   0  0  1  0  0  3  0  0  0  0  0  0
  196.3220  174.9520  144.4520 C   0  0  0  0  0  0  0  0  0  0  0  0
  195.8840  176.2790  142.5260 O   0  0  0  0  0  1  0  0  0  0  0  0
  195.8240  174.6330  145.8010 C   0  0  0  0  0  3  0  0  0  0  0  0
  193.0830  175.8360  142.8650 F   0  0  0  0  0  0  0  0  0  0  0  0
  197.5610  174.9160  144.2290 O   0  0  0  0  0  0  0  0  0  0  0  0
  195.3620  175.2690  143.3360 C   0  0  2  0  0  3  0  0  0  0  0  0
  194.0030  175.7110  143.8910 C   0  0  2  0  0  3  0  0  0  0  0  0
  1  2  1  0  0  0  0
  2 24  1  0  0  0  0
  2  7  2  0  0  0  0
  3 15  2  0  0  0  0
  4 16  1  0  0  0  0
  5  1  1  0  0  0  0
  7  3  1  0  0  0  0
  8  7  1  0  0  0  0
  8 10  1  0  0  0  0
  9 15  1  0  0  0  0
  9  6  1  0  0  0  0
 10  9  2  0  0  0  0
 11  4  1  0  0  0  0
 12  8  2  0  0  0  0
 13  4  1  0  0  0  0
 13  5  1  0  0  0  0
 14 13  2  0  0  0  0
 16  1  2  0  0  0  0
 16 12  1  0  0  0  0
 18 23  1  0  0  0  0
 18 19  1  0  0  0  0
 18 12  1  1  0  0  0
 19 17  1  0  0  0  0
 21 17  1  0  0  0  0
 21 22  2  0  0  0  0
 23 20  1  6  0  0  0
 23 21  1  0  0  0  0
 25 24  1  0  0  0  0
 27 25  1  6  0  0  0
 27 26  1  0  0  0  0
 28 30  1  0  0  0  0
 30 26  2  0  0  0  0
 32 28  2  0  0  0  0
 33 29  1  1  0  0  0
 33 34  1  0  0  0  0
 33 28  1  0  0  0  0
 34 31  1  6  0  0  0
 34 27  1  0  0  0  0
M  END
>  <MODEL>
1

>  <REMARK>
 VINA RESULT:      -7.7      0.000      0.000
  Name = 
  4 active torsions:
  status: ('A' for Active; 'I' for Inactive)
    1  A    between atoms: C_2  and  N_17
    2  A    between atoms: C_7  and  N_30
    3  A    between atoms: C_14  and  C_20
    4  A    between atoms: N_17  and  N_30
                            x       y       z     vdW  Elec       q    Type
                         _______ _______ _______ _____ _____    ______ ____

>  <TORSDO>
F 4

$$$$
=
 OpenBabel11062422043D

 34 38  0  0  1  0  0  0  0  0999 V2000
  187.3980  177.0320  145.4200 C   0  0  0  0  0  0  0  0  0  0  0  0
  188.1720  175.9740  144.9450 C   0  0  0  0  0  0  0  0  0  0  0  0
  188.9200  174.6710  142.9980 C   0  0  0  0  0  3  0  0  0  0  0  0
  185.9430  178.8280  145.3370 N   0  0  0  0  0  0  0  0  0  0  0  0
  187.2690  177.4590  146.8480 C   0  0  0  0  0  2  0  0  0  0  0  0
  188.0460  174.8300  139.0710 Cl  0  0  0  0  0  0  0  0  0  0  0  0
  188.1520  175.7060  143.5530 C   0  0  0  0  0  0  0  0  0  0  0  0
  187.3340  176.4960  142.6870 C   0  0  0  0  0  0  0  0  0  0  0  0
  188.0860  175.1670  140.7880 C   0  0  0  0  0  0  0  0  0  0  0  0
  187.3160  176.2030  141.3110 C   0  0  0  0  0  3  0  0  0  0  0  0
  185.5200  180.1330  144.8590 C   0  0  0  0  0  1  0  0  0  0  0  0
  186.5450  177.5570  143.2000 C   0  0  0  0  0  0  0  0  0  0  0  0
  186.3400  178.6100  146.6870 C   0  0  0  0  0  0  0  0  0  0  0  0
  185.9650  179.3430  147.6400 O   0  0  0  0  0  0  0  0  0  0  0  0
  188.8900  174.4020  141.6290 C   0  0  0  0  0  3  0  0  0  0  0  0
  186.6280  177.8240  144.5860 C   0  0  0  0  0  0  0  0  0  0  0  0
  185.0780  178.4280  140.0560 N   0  0  0  0  0  2  0  0  0  0  0  0
  185.6360  178.3050  142.2540 C   0  0  1  0  0  3  0  0  0  0  0  0
  186.1950  178.4600  140.9030 N   0  0  0  0  0  2  0  0  0  0  0  0
  183.2940  178.6050  143.0420 C   0  0  0  0  0  1  0  0  0  0  0  0
  183.9280  178.0060  140.7500 C   0  0  0  0  0  0  0  0  0  0  0  0
  182.8140  177.8240  140.1920 O   0  0  0  0  0  0  0  0  0  0  0  0
  184.2070  177.7630  142.1720 C   0  0  1  0  0  3  0  0  0  0  0  0
  188.9440  175.2210  145.8970 N   0  0  0  0  0  2  0  0  0  0  0  0
  190.3430  175.1250  145.8770 N   0  0  0  0  0  2  0  0  0  0  0  0
  191.5740  176.5700  147.3690 C   0  0  0  0  0  3  0  0  0  0  0  0
  190.8640  176.4730  146.0480 C   0  0  1  0  0  3  0  0  0  0  0  0
  193.6920  175.9620  146.3100 C   0  0  0  0  0  0  0  0  0  0  0  0
  194.0070  176.4630  144.0050 O   0  0  0  0  0  1  0  0  0  0  0  0
  192.8780  176.3030  147.4890 C   0  0  0  0  0  3  0  0  0  0  0  0
  191.1790  176.6980  143.6760 F   0  0  0  0  0  0  0  0  0  0  0  0
  194.8930  175.6200  146.4700 O   0  0  0  0  0  0  0  0  0  0  0  0
  193.0850  175.9710  144.9320 C   0  0  2  0  0  3  0  0  0  0  0  0
  191.8170  176.8320  144.8970 C   0  0  2  0  0  3  0  0  0  0  0  0
  1  5  1  0  0  0  0
  2  1  1  0  0  0  0
  2 24  1  0  0  0  0
  3  7  1  0  0  0  0
  4 13  1  0  0  0  0
  6  9  1  0  0  0  0
  7  2  2  0  0  0  0
  8 12  2  0  0  0  0
  8  7  1  0  0  0  0
  9 10  2  0  0  0  0
  9 15  1  0  0  0  0
 10  8  1  0  0  0  0
 11  4  1  0  0  0  0
 12 16  1  0  0  0  0
 13  5  1  0  0  0  0
 13 14  2  0  0  0  0
 15  3  2  0  0  0  0
 16  4  1  0  0  0  0
 16  1  2  0  0  0  0
 17 21  1  0  0  0  0
 17 19  1  0  0  0  0
 18 12  1  1  0  0  0
 19 18  1  0  0  0  0
 21 23  1  0  0  0  0
 22 21  2  0  0  0  0
 23 18  1  0  0  0  0
 23 20  1  1  0  0  0
 25 24  1  0  0  0  0
 26 30  2  0  0  0  0
 27 25  1  6  0  0  0
 27 26  1  0  0  0  0
 28 32  2  0  0  0  0
 28 30  1  0  0  0  0
 33 29  1  6  0  0  0
 33 28  1  0  0  0  0
 34 31  1  6  0  0  0
 34 33  1  0  0  0  0
 34 27  1  0  0  0  0
M  END
>  <MODEL>
2

>  <REMARK>
 VINA RESULT:      -7.7      3.022      5.028
  Name = 
  4 active torsions:
  status: ('A' for Active; 'I' for Inactive)
    1  A    between atoms: C_2  and  N_17
    2  A    between atoms: C_7  and  N_30
    3  A    between atoms: C_14  and  C_20
    4  A    between atoms: N_17  and  N_30
                            x       y       z     vdW  Elec       q    Type
                         _______ _______ _______ _____ _____    ______ ____

>  <TORSDO>
F 4

$$$$
=
 OpenBabel11062422043D

 34 38  0  0  1  0  0  0  0  0999 V2000
  190.2660  175.1280  143.4140 C   0  0  0  0  0  0  0  0  0  0  0  0
  189.3800  175.8080  144.2480 C   0  0  0  0  0  0  0  0  0  0  0  0
  189.0510  177.0370  146.3530 C   0  0  0  0  0  3  0  0  0  0  0  0
  192.2730  174.2220  142.7050 N   0  0  0  0  0  0  0  0  0  0  0  0
  189.9330  174.4950  142.1000 C   0  0  0  0  0  2  0  0  0  0  0  0
  191.4870  177.9450  149.4270 Cl  0  0  0  0  0  0  0  0  0  0  0  0
  189.8780  176.3250  145.4710 C   0  0  0  0  0  0  0  0  0  0  0  0
  191.2460  176.1170  145.8270 C   0  0  0  0  0  0  0  0  0  0  0  0
  190.8720  177.3240  147.9110 C   0  0  0  0  0  0  0  0  0  0  0  0
  191.7160  176.6220  147.0530 C   0  0  0  0  0  3  0  0  0  0  0  0
  193.6830  174.3000  142.3620 C   0  0  0  0  0  1  0  0  0  0  0  0
  192.1220  175.4070  144.9660 C   0  0  0  0  0  0  0  0  0  0  0  0
  191.2710  173.9630  141.7260 C   0  0  0  0  0  0  0  0  0  0  0  0
  191.5090  173.3730  140.6400 O   0  0  0  0  0  0  0  0  0  0  0  0
  189.5400  177.5340  147.5610 C   0  0  0  0  0  3  0  0  0  0  0  0
  191.6020  174.9500  143.7340 C   0  0  0  0  0  0  0  0  0  0  0  0
  195.2530  173.6860  145.1430 N   0  0  0  0  0  2  0  0  0  0  0  0
  193.5360  175.1440  145.4300 C   0  0  1  0  0  3  0  0  0  0  0  0
  193.8870  173.7160  145.4570 N   0  0  0  0  0  2  0  0  0  0  0  0
  195.0180  177.1420  145.5130 C   0  0  0  0  0  1  0  0  0  0  0  0
  195.6930  174.9380  144.6730 C   0  0  0  0  0  0  0  0  0  0  0  0
  196.8620  175.1450  144.2550 O   0  0  0  0  0  0  0  0  0  0  0  0
  194.6140  175.9350  144.6870 C   0  0  1  0  0  3  0  0  0  0  0  0
  188.0150  175.9460  143.8140 N   0  0  0  0  0  2  0  0  0  0  0  0
  187.5170  177.0610  143.1260 N   0  0  0  0  0  2  0  0  0  0  0  0
  185.7130  176.4510  144.6110 C   0  0  0  0  0  3  0  0  0  0  0  0
  186.0690  177.0410  143.2750 C   0  0  1  0  0  3  0  0  0  0  0  0
  185.7160  178.6730  145.6290 C   0  0  0  0  0  0  0  0  0  0  0  0
  185.2400  180.5610  144.2600 O   0  0  0  0  0  1  0  0  0  0  0  0
  185.5810  177.2090  145.7030 C   0  0  0  0  0  3  0  0  0  0  0  0
  185.8590  179.0230  141.9340 F   0  0  0  0  0  0  0  0  0  0  0  0
  185.6830  179.3490  146.6910 O   0  0  0  0  0  0  0  0  0  0  0  0
  185.9430  179.3550  144.3050 C   0  0  2  0  0  3  0  0  0  0  0  0
  185.4940  178.4600  143.1430 C   0  0  2  0  0  3  0  0  0  0  0  0
  1 16  2  0  0  0  0
  1  2  1  0  0  0  0
  2  7  2  0  0  0  0
  3 15  2  0  0  0  0
  4 16  1  0  0  0  0
  5  1  1  0  0  0  0
  7  8  1  0  0  0  0
  7  3  1  0  0  0  0
  8 10  1  0  0  0  0
  9  6  1  0  0  0  0
 10  9  2  0  0  0  0
 11  4  1  0  0  0  0
 12  8  2  0  0  0  0
 13  5  1  0  0  0  0
 13  4  1  0  0  0  0
 14 13  2  0  0  0  0
 15  9  1  0  0  0  0
 16 12  1  0  0  0  0
 17 19  1  0  0  0  0
 18 12  1  6  0  0  0
 18 19  1  0  0  0  0
 21 23  1  0  0  0  0
 21 17  1  0  0  0  0
 22 21  2  0  0  0  0
 23 18  1  0  0  0  0
 23 20  1  1  0  0  0
 24  2  1  0  0  0  0
 25 24  1  0  0  0  0
 26 30  2  0  0  0  0
 27 25  1  1  0  0  0
 27 26  1  0  0  0  0
 28 30  1  0  0  0  0
 28 32  2  0  0  0  0
 33 29  1  1  0  0  0
 33 28  1  0  0  0  0
 34 31  1  6  0  0  0
 34 27  1  0  0  0  0
 34 33  1  0  0  0  0
M  END
>  <MODEL>
3

>  <REMARK>
 VINA RESULT:      -7.6      2.413      7.190
  Name = 
  4 active torsions:
  status: ('A' for Active; 'I' for Inactive)
    1  A    between atoms: C_2  and  N_17
    2  A    between atoms: C_7  and  N_30
    3  A    between atoms: C_14  and  C_20
    4  A    between atoms: N_17  and  N_30
                            x       y       z     vdW  Elec       q    Type
                         _______ _______ _______ _____ _____    ______ ____

>  <TORSDO>
F 4

$$$$
=
 OpenBabel11062422043D

 34 38  0  0  1  0  0  0  0  0999 V2000
  189.2390  176.0370  143.6550 C   0  0  0  0  0  0  0  0  0  0  0  0
  188.8080  175.7650  142.3570 C   0  0  0  0  0  0  0  0  0  0  0  0
  188.8330  174.2060  140.4540 C   0  0  0  0  0  3  0  0  0  0  0  0
  190.3430  175.7020  145.6600 N   0  0  0  0  0  0  0  0  0  0  0  0
  188.9120  177.2570  144.4550 C   0  0  0  0  0  2  0  0  0  0  0  0
  190.6780  170.6900  139.7920 Cl  0  0  0  0  0  0  0  0  0  0  0  0
  189.2410  174.5580  141.7500 C   0  0  0  0  0  0  0  0  0  0  0  0
  190.1150  173.6780  142.4590 C   0  0  0  0  0  0  0  0  0  0  0  0
  190.1280  172.1710  140.5430 C   0  0  0  0  0  0  0  0  0  0  0  0
  190.5470  172.4950  141.8320 C   0  0  0  0  0  3  0  0  0  0  0  0
  190.6530  174.9410  146.8580 C   0  0  0  0  0  1  0  0  0  0  0  0
  190.5510  173.9880  143.7720 C   0  0  0  0  0  0  0  0  0  0  0  0
  189.6440  176.9420  145.7120 C   0  0  0  0  0  0  0  0  0  0  0  0
  189.6240  177.6760  146.7350 O   0  0  0  0  0  0  0  0  0  0  0  0
  189.2690  173.0250  139.8540 C   0  0  0  0  0  3  0  0  0  0  0  0
  190.0590  175.1740  144.3630 C   0  0  0  0  0  0  0  0  0  0  0  0
  192.4200  170.9780  144.2670 N   0  0  0  0  0  2  0  0  0  0  0  0
  191.5400  173.0640  144.4430 C   0  0  1  0  0  3  0  0  0  0  0  0
  191.1860  171.6420  144.3270 N   0  0  0  0  0  2  0  0  0  0  0  0
  193.7060  174.1090  145.0850 C   0  0  0  0  0  1  0  0  0  0  0  0
  193.4760  171.8880  144.0720 C   0  0  0  0  0  0  0  0  0  0  0  0
  194.6720  171.5300  143.9100 O   0  0  0  0  0  0  0  0  0  0  0  0
  192.9990  173.2770  144.0330 C   0  0  1  0  0  3  0  0  0  0  0  0
  187.9480  176.7230  141.7160 N   0  0  0  0  0  2  0  0  0  0  0  0
  186.6010  176.9200  142.0510 N   0  0  0  0  0  2  0  0  0  0  0  0
  185.4420  178.2920  140.4360 C   0  0  0  0  0  3  0  0  0  0  0  0
  186.2700  178.2910  141.6910 C   0  0  1  0  0  3  0  0  0  0  0  0
  183.3860  178.2180  141.7560 C   0  0  0  0  0  0  0  0  0  0  0  0
  183.4020  179.1240  143.9560 O   0  0  0  0  0  1  0  0  0  0  0  0
  184.1080  178.2280  140.4730 C   0  0  0  0  0  3  0  0  0  0  0  0
  186.2520  178.9400  144.0050 F   0  0  0  0  0  0  0  0  0  0  0  0
  182.1370  178.0570  141.7580 O   0  0  0  0  0  0  0  0  0  0  0  0
  184.1340  178.3450  143.0570 C   0  0  2  0  0  3  0  0  0  0  0  0
  185.5120  178.9810  142.8360 C   0  0  2  0  0  3  0  0  0  0  0  0
  1 16  1  0  0  0  0
  1  5  1  0  0  0  0
  2  1  2  0  0  0  0
  3  7  1  0  0  0  0
  4 13  1  0  0  0  0
  4 11  1  0  0  0  0
  5 13  1  0  0  0  0
  6  9  1  0  0  0  0
  7  2  1  0  0  0  0
  7  8  2  0  0  0  0
  8 12  1  0  0  0  0
  9 10  2  0  0  0  0
 10  8  1  0  0  0  0
 12 16  2  0  0  0  0
 13 14  2  0  0  0  0
 15  3  2  0  0  0  0
 15  9  1  0  0  0  0
 16  4  1  0  0  0  0
 17 19  1  0  0  0  0
 18 12  1  6  0  0  0
 19 18  1  0  0  0  0
 21 17  1  0  0  0  0
 22 21  2  0  0  0  0
 23 21  1  0  0  0  0
 23 18  1  0  0  0  0
 23 20  1  1  0  0  0
 24 25  1  0  0  0  0
 24  2  1  0  0  0  0
 26 30  2  0  0  0  0
 26 27  1  0  0  0  0
 27 25  1  1  0  0  0
 27 34  1  0  0  0  0
 28 32  2  0  0  0  0
 28 33  1  0  0  0  0
 30 28  1  0  0  0  0
 33 29  1  1  0  0  0
 34 33  1  0  0  0  0
 34 31  1  1  0  0  0
M  END
>  <MODEL>
4

>  <REMARK>
 VINA RESULT:      -7.4      3.168      8.481
  Name = 
  4 active torsions:
  status: ('A' for Active; 'I' for Inactive)
    1  A    between atoms: C_2  and  N_17
    2  A    between atoms: C_7  and  N_30
    3  A    between atoms: C_14  and  C_20
    4  A    between atoms: N_17  and  N_30
                            x       y       z     vdW  Elec       q    Type
                         _______ _______ _______ _____ _____    ______ ____

>  <TORSDO>
F 4

$$$$
=
 OpenBabel11062422043D

 34 38  0  0  1  0  0  0  0  0999 V2000
  190.1660  174.4730  142.4200 C   0  0  0  0  0  0  0  0  0  0  0  0
  189.2810  174.7940  143.4480 C   0  0  0  0  0  0  0  0  0  0  0  0
  188.9880  175.7110  145.7110 C   0  0  0  0  0  3  0  0  0  0  0  0
  192.1930  174.2630  141.3250 N   0  0  0  0  0  0  0  0  0  0  0  0
  189.8030  173.8670  141.1010 C   0  0  0  0  0  2  0  0  0  0  0  0
  191.5610  177.0800  148.4890 Cl  0  0  0  0  0  0  0  0  0  0  0  0
  189.8170  175.3450  144.6400 C   0  0  0  0  0  0  0  0  0  0  0  0
  191.2280  175.5310  144.7680 C   0  0  0  0  0  0  0  0  0  0  0  0
  190.8940  176.4150  147.0140 C   0  0  0  0  0  0  0  0  0  0  0  0
  191.7400  176.0630  145.9650 C   0  0  0  0  0  3  0  0  0  0  0  0
  193.4410  174.7850  140.7940 C   0  0  0  0  0  1  0  0  0  0  0  0
  192.1060  175.1810  143.7110 C   0  0  0  0  0  0  0  0  0  0  0  0
  191.1520  173.7890  140.4760 C   0  0  0  0  0  0  0  0  0  0  0  0
  191.3550  173.3780  139.3040 O   0  0  0  0  0  0  0  0  0  0  0  0
  189.5170  176.2430  146.8880 C   0  0  0  0  0  3  0  0  0  0  0  0
  191.5310  174.6800  142.5200 C   0  0  0  0  0  0  0  0  0  0  0  0
  195.1000  176.3870  145.2540 N   0  0  0  0  0  2  0  0  0  0  0  0
  193.5940  175.3190  143.9300 C   0  0  1  0  0  3  0  0  0  0  0  0
  193.9910  176.6430  144.4340 N   0  0  0  0  0  2  0  0  0  0  0  0
  194.8790  173.1880  143.8940 C   0  0  0  0  0  1  0  0  0  0  0  0
  195.2420  175.0080  145.4980 C   0  0  0  0  0  0  0  0  0  0  0  0
  196.1170  174.5310  146.2670 O   0  0  0  0  0  0  0  0  0  0  0  0
  194.2230  174.2210  144.7900 C   0  0  1  0  0  3  0  0  0  0  0  0
  187.8800  174.5490  143.2360 N   0  0  0  0  0  2  0  0  0  0  0  0
  187.0660  175.3140  142.3880 N   0  0  0  0  0  2  0  0  0  0  0  0
  187.6420  177.3710  141.2630 C   0  0  0  0  0  3  0  0  0  0  0  0
  187.4290  176.7080  142.5950 C   0  0  1  0  0  3  0  0  0  0  0  0
  185.2990  178.0640  141.1970 C   0  0  0  0  0  0  0  0  0  0  0  0
  184.1390  178.3810  143.2510 O   0  0  0  0  0  1  0  0  0  0  0  0
  186.6450  177.9720  140.6070 C   0  0  0  0  0  3  0  0  0  0  0  0
  186.1020  176.8010  144.5960 F   0  0  0  0  0  0  0  0  0  0  0  0
  184.3590  178.5480  140.5130 O   0  0  0  0  0  0  0  0  0  0  0  0
  185.0330  177.5410  142.5840 C   0  0  2  0  0  3  0  0  0  0  0  0
  186.3340  177.4370  143.3900 C   0  0  2  0  0  3  0  0  0  0  0  0
  1 16  2  0  0  0  0
  1  2  1  0  0  0  0
  2  7  2  0  0  0  0
  3 15  2  0  0  0  0
  4 16  1  0  0  0  0
  5  1  1  0  0  0  0
  7  8  1  0  0  0  0
  7  3  1  0  0  0  0
  8 10  1  0  0  0  0
  9  6  1  0  0  0  0
 10  9  2  0  0  0  0
 11  4  1  0  0  0  0
 12  8  2  0  0  0  0
 13  5  1  0  0  0  0
 13  4  1  0  0  0  0
 14 13  2  0  0  0  0
 15  9  1  0  0  0  0
 16 12  1  0  0  0  0
 17 21  1  0  0  0  0
 18 12  1  1  0  0  0
 18 19  1  0  0  0  0
 18 23  1  0  0  0  0
 19 17  1  0  0  0  0
 21 22  2  0  0  0  0
 23 20  1  6  0  0  0
 23 21  1  0  0  0  0
 24  2  1  0  0  0  0
 25 24  1  0  0  0  0
 26 27  1  0  0  0  0
 27 25  1  6  0  0  0
 27 34  1  0  0  0  0
 28 33  1  0  0  0  0
 30 28  1  0  0  0  0
 30 26  2  0  0  0  0
 32 28  2  0  0  0  0
 33 29  1  1  0  0  0
 33 34  1  0  0  0  0
 34 31  1  1  0  0  0
M  END
>  <MODEL>
5

>  <REMARK>
 VINA RESULT:      -7.4      2.311      7.102
  Name = 
  4 active torsions:
  status: ('A' for Active; 'I' for Inactive)
    1  A    between atoms: C_2  and  N_17
    2  A    between atoms: C_7  and  N_30
    3  A    between atoms: C_14  and  C_20
    4  A    between atoms: N_17  and  N_30
                            x       y       z     vdW  Elec       q    Type
                         _______ _______ _______ _____ _____    ______ ____

>  <TORSDO>
F 4

$$$$
=
 OpenBabel11062422043D

 34 38  0  0  1  0  0  0  0  0999 V2000
  186.8820  176.7360  141.6460 C   0  0  0  0  0  0  0  0  0  0  0  0
  188.0030  175.9470  141.9030 C   0  0  0  0  0  0  0  0  0  0  0  0
  189.4270  174.8660  143.5930 C   0  0  0  0  0  3  0  0  0  0  0  0
  185.0090  178.0120  142.1080 N   0  0  0  0  0  0  0  0  0  0  0  0
  186.3900  177.1560  140.2980 C   0  0  0  0  0  2  0  0  0  0  0  0
  189.3800  174.8170  147.6180 Cl  0  0  0  0  0  0  0  0  0  0  0  0
  188.3260  175.6680  143.2560 C   0  0  0  0  0  0  0  0  0  0  0  0
  187.5260  176.2150  144.3060 C   0  0  0  0  0  0  0  0  0  0  0  0
  188.9750  175.1430  145.9470 C   0  0  0  0  0  0  0  0  0  0  0  0
  187.8740  175.9420  145.6410 C   0  0  0  0  0  3  0  0  0  0  0  0
  183.7020  178.2280  142.7050 C   0  0  0  0  0  1  0  0  0  0  0  0
  186.4010  177.0280  144.0160 C   0  0  0  0  0  0  0  0  0  0  0  0
  185.1940  177.9460  140.6980 C   0  0  0  0  0  0  0  0  0  0  0  0
  184.4010  178.4760  139.8760 O   0  0  0  0  0  0  0  0  0  0  0  0
  189.7500  174.6030  144.9240 C   0  0  0  0  0  3  0  0  0  0  0  0
  186.0810  177.2420  142.6560 C   0  0  0  0  0  0  0  0  0  0  0  0
  185.4660  177.5640  147.4270 N   0  0  0  0  0  2  0  0  0  0  0  0
  185.6410  177.6480  145.1640 C   0  0  1  0  0  3  0  0  0  0  0  0
  185.4420  176.7330  146.2980 N   0  0  0  0  0  2  0  0  0  0  0  0
  185.3960  180.1230  145.0660 C   0  0  0  0  0  1  0  0  0  0  0  0
  185.9230  178.8540  147.0970 C   0  0  0  0  0  0  0  0  0  0  0  0
  186.1060  179.7600  147.9520 O   0  0  0  0  0  0  0  0  0  0  0  0
  186.2010  178.9830  145.6600 C   0  0  1  0  0  3  0  0  0  0  0  0
  188.7590  175.4610  140.7800 N   0  0  0  0  0  2  0  0  0  0  0  0
  189.4230  174.2270  140.7520 N   0  0  0  0  0  2  0  0  0  0  0  0
  188.2410  174.0730  138.6520 C   0  0  0  0  0  3  0  0  0  0  0  0
  188.6400  173.3410  139.9030 C   0  0  1  0  0  3  0  0  0  0  0  0
  190.2490  173.2770  137.5090 C   0  0  0  0  0  0  0  0  0  0  0  0
  191.2330  171.2280  138.2130 O   0  0  0  0  0  1  0  0  0  0  0  0
  189.0050  174.0640  137.5570 C   0  0  0  0  0  3  0  0  0  0  0  0
  189.8530  171.4280  140.7050 F   0  0  0  0  0  0  0  0  0  0  0  0
  190.9960  173.3680  136.4990 O   0  0  0  0  0  0  0  0  0  0  0  0
  190.6540  172.4120  138.6730 C   0  0  2  0  0  3  0  0  0  0  0  0
  189.4440  172.0790  139.5550 C   0  0  2  0  0  3  0  0  0  0  0  0
  1  2  2  0  0  0  0
  1 16  1  0  0  0  0
  2  7  1  0  0  0  0
  3 15  1  0  0  0  0
  4 16  1  0  0  0  0
  4 11  1  0  0  0  0
  5 13  1  0  0  0  0
  5  1  1  0  0  0  0
  7  3  2  0  0  0  0
  7  8  1  0  0  0  0
  8 10  2  0  0  0  0
  9  6  1  0  0  0  0
 10  9  1  0  0  0  0
 12  8  1  0  0  0  0
 13  4  1  0  0  0  0
 14 13  2  0  0  0  0
 15  9  2  0  0  0  0
 16 12  2  0  0  0  0
 18 12  1  6  0  0  0
 18 23  1  0  0  0  0
 18 19  1  0  0  0  0
 19 17  1  0  0  0  0
 21 17  1  0  0  0  0
 21 22  2  0  0  0  0
 23 20  1  6  0  0  0
 23 21  1  0  0  0  0
 24  2  1  0  0  0  0
 25 24  1  0  0  0  0
 26 27  1  0  0  0  0
 27 25  1  1  0  0  0
 28 30  1  0  0  0  0
 28 33  1  0  0  0  0
 30 26  2  0  0  0  0
 32 28  2  0  0  0  0
 33 29  1  6  0  0  0
 33 34  1  0  0  0  0
 34 27  1  0  0  0  0
 34 31  1  1  0  0  0
M  END
>  <MODEL>
6

>  <REMARK>
 VINA RESULT:      -7.4      3.792      5.890
  Name = 
  4 active torsions:
  status: ('A' for Active; 'I' for Inactive)
    1  A    between atoms: C_2  and  N_17
    2  A    between atoms: C_7  and  N_30
    3  A    between atoms: C_14  and  C_20
    4  A    between atoms: N_17  and  N_30
                            x       y       z     vdW  Elec       q    Type
                         _______ _______ _______ _____ _____    ______ ____

>  <TORSDO>
F 4

$$$$
=
 OpenBabel11062422043D

 34 38  0  0  1  0  0  0  0  0999 V2000
  190.2910  175.1190  143.3600 C   0  0  0  0  0  0  0  0  0  0  0  0
  191.3890  175.0050  144.2130 C   0  0  0  0  0  0  0  0  0  0  0  0
  192.3980  175.6030  146.3740 C   0  0  0  0  0  3  0  0  0  0  0  0
  188.2040  175.8040  142.6350 N   0  0  0  0  0  0  0  0  0  0  0  0
  190.1580  174.4970  142.0060 C   0  0  0  0  0  2  0  0  0  0  0  0
  191.1920  177.9230  149.4360 Cl  0  0  0  0  0  0  0  0  0  0  0  0
  191.3410  175.6870  145.4560 C   0  0  0  0  0  0  0  0  0  0  0  0
  190.2020  176.4830  145.7880 C   0  0  0  0  0  0  0  0  0  0  0  0
  191.2480  177.0660  147.9110 C   0  0  0  0  0  0  0  0  0  0  0  0
  190.1820  177.1650  147.0180 C   0  0  0  0  0  3  0  0  0  0  0  0
  186.7630  175.9350  142.7690 C   0  0  0  0  0  1  0  0  0  0  0  0
  189.1070  176.5930  144.8950 C   0  0  0  0  0  0  0  0  0  0  0  0
  188.7980  174.9770  141.6380 C   0  0  0  0  0  0  0  0  0  0  0  0
  188.2110  174.6610  140.5700 O   0  0  0  0  0  0  0  0  0  0  0  0
  192.3550  176.2840  147.5910 C   0  0  0  0  0  3  0  0  0  0  0  0
  189.1690  175.8610  143.6870 C   0  0  0  0  0  0  0  0  0  0  0  0
  186.2440  178.6630  144.3230 N   0  0  0  0  0  2  0  0  0  0  0  0
  187.9660  177.5140  145.2590 C   0  0  1  0  0  3  0  0  0  0  0  0
  187.6290  178.4780  144.2000 N   0  0  0  0  0  2  0  0  0  0  0  0
  186.6520  176.8410  147.2630 C   0  0  0  0  0  1  0  0  0  0  0  0
  185.6790  177.7020  145.1830 C   0  0  0  0  0  0  0  0  0  0  0  0
  184.4420  177.6100  145.3950 O   0  0  0  0  0  0  0  0  0  0  0  0
  186.6990  176.8080  145.7470 C   0  0  1  0  0  3  0  0  0  0  0  0
  192.4990  174.2000  143.7800 N   0  0  0  0  0  2  0  0  0  0  0  0
  193.6320  174.7060  143.1280 N   0  0  0  0  0  2  0  0  0  0  0  0
  195.6060  173.3350  143.3720 C   0  0  0  0  0  3  0  0  0  0  0  0
  194.7760  174.4280  143.9850 C   0  0  1  0  0  3  0  0  0  0  0  0
  196.9740  174.9880  142.2020 C   0  0  0  0  0  0  0  0  0  0  0  0
  197.1910  177.1660  143.1380 O   0  0  0  0  0  1  0  0  0  0  0  0
  196.6030  173.6000  142.5240 C   0  0  0  0  0  3  0  0  0  0  0  0
  194.8470  176.7190  144.7060 F   0  0  0  0  0  0  0  0  0  0  0  0
  197.8520  175.2040  141.3250 O   0  0  0  0  0  0  0  0  0  0  0  0
  196.2780  176.1420  142.8740 C   0  0  2  0  0  3  0  0  0  0  0  0
  195.6200  175.6970  144.1850 C   0  0  2  0  0  3  0  0  0  0  0  0
  1 16  2  0  0  0  0
  1  2  1  0  0  0  0
  2  7  2  0  0  0  0
  3 15  2  0  0  0  0
  4 11  1  0  0  0  0
  4 16  1  0  0  0  0
  5  1  1  0  0  0  0
  7  8  1  0  0  0  0
  7  3  1  0  0  0  0
  8 10  1  0  0  0  0
  9  6  1  0  0  0  0
 10  9  2  0  0  0  0
 12  8  2  0  0  0  0
 13  5  1  0  0  0  0
 13  4  1  0  0  0  0
 14 13  2  0  0  0  0
 15  9  1  0  0  0  0
 16 12  1  0  0  0  0
 17 21  1  0  0  0  0
 18 12  1  6  0  0  0
 18 23  1  0  0  0  0
 19 17  1  0  0  0  0
 19 18  1  0  0  0  0
 21 22  2  0  0  0  0
 21 23  1  0  0  0  0
 23 20  1  1  0  0  0
 24  2  1  0  0  0  0
 25 24  1  0  0  0  0
 26 27  1  0  0  0  0
 27 25  1  6  0  0  0
 27 34  1  0  0  0  0
 28 30  1  0  0  0  0
 28 33  1  0  0  0  0
 30 26  2  0  0  0  0
 32 28  2  0  0  0  0
 33 29  1  1  0  0  0
 33 34  1  0  0  0  0
 34 31  1  6  0  0  0
M  END
>  <MODEL>
7

>  <REMARK>
 VINA RESULT:      -7.4      2.109      2.824
  Name = 
  4 active torsions:
  status: ('A' for Active; 'I' for Inactive)
    1  A    between atoms: C_2  and  N_17
    2  A    between atoms: C_7  and  N_30
    3  A    between atoms: C_14  and  C_20
    4  A    between atoms: N_17  and  N_30
                            x       y       z     vdW  Elec       q    Type
                         _______ _______ _______ _____ _____    ______ ____

>  <TORSDO>
F 4

$$$$
=
 OpenBabel11062422043D

 34 38  0  0  1  0  0  0  0  0999 V2000
  189.3620  174.5510  142.0380 C   0  0  0  0  0  0  0  0  0  0  0  0
  188.6880  175.1010  143.1270 C   0  0  0  0  0  0  0  0  0  0  0  0
  188.7600  175.7150  145.5080 C   0  0  0  0  0  3  0  0  0  0  0  0
  191.0980  173.5690  140.8670 N   0  0  0  0  0  0  0  0  0  0  0  0
  188.8150  174.3830  140.6560 C   0  0  0  0  0  2  0  0  0  0  0  0
  191.5490  175.2970  148.3810 Cl  0  0  0  0  0  0  0  0  0  0  0  0
  189.3660  175.1580  144.3720 C   0  0  0  0  0  0  0  0  0  0  0  0
  190.6920  174.6360  144.4850 C   0  0  0  0  0  0  0  0  0  0  0  0
  190.7140  175.2440  146.8450 C   0  0  0  0  0  0  0  0  0  0  0  0
  191.3410  174.6870  145.7310 C   0  0  0  0  0  3  0  0  0  0  0  0
  192.4670  173.5100  140.3830 C   0  0  0  0  0  1  0  0  0  0  0  0
  191.3480  174.0690  143.3630 C   0  0  0  0  0  0  0  0  0  0  0  0
  189.9950  173.7680  139.9880 C   0  0  0  0  0  0  0  0  0  0  0  0
  190.0320  173.4810  138.7630 O   0  0  0  0  0  0  0  0  0  0  0  0
  189.4250  175.7600  146.7340 C   0  0  0  0  0  3  0  0  0  0  0  0
  190.6590  174.0730  142.1290 C   0  0  0  0  0  0  0  0  0  0  0  0
  194.5270  173.5610  144.9230 N   0  0  0  0  0  2  0  0  0  0  0  0
  192.7150  173.4560  143.5580 C   0  0  1  0  0  3  0  0  0  0  0  0
  193.6920  174.3820  144.1510 N   0  0  0  0  0  2  0  0  0  0  0  0
  192.8160  170.9800  143.3290 C   0  0  0  0  0  1  0  0  0  0  0  0
  193.9830  172.2690  145.0580 C   0  0  0  0  0  0  0  0  0  0  0  0
  194.5080  171.3710  145.7680 O   0  0  0  0  0  0  0  0  0  0  0  0
  192.7230  172.1280  144.3160 C   0  0  1  0  0  3  0  0  0  0  0  0
  187.3470  175.5780  142.9210 N   0  0  0  0  0  2  0  0  0  0  0  0
  186.9990  176.9330  142.8240 N   0  0  0  0  0  2  0  0  0  0  0  0
  185.3980  176.4760  144.5730 C   0  0  0  0  0  3  0  0  0  0  0  0
  185.5950  177.0390  143.1930 C   0  0  1  0  0  3  0  0  0  0  0  0
  185.7510  178.6840  145.5590 C   0  0  0  0  0  0  0  0  0  0  0  0
  185.2400  180.6140  144.2630 O   0  0  0  0  0  1  0  0  0  0  0  0
  185.5010  177.2370  145.6660 C   0  0  0  0  0  3  0  0  0  0  0  0
  185.3580  179.0400  141.8830 F   0  0  0  0  0  0  0  0  0  0  0  0
  185.9410  179.3550  146.6080 O   0  0  0  0  0  0  0  0  0  0  0  0
  185.8320  179.3500  144.2110 C   0  0  2  0  0  3  0  0  0  0  0  0
  185.1340  178.5040  143.1390 C   0  0  2  0  0  3  0  0  0  0  0  0
  1 16  2  0  0  0  0
  1  2  1  0  0  0  0
  2  7  2  0  0  0  0
  3 15  2  0  0  0  0
  4 16  1  0  0  0  0
  5  1  1  0  0  0  0
  7  8  1  0  0  0  0
  7  3  1  0  0  0  0
  8 10  1  0  0  0  0
  9  6  1  0  0  0  0
 10  9  2  0  0  0  0
 11  4  1  0  0  0  0
 12  8  2  0  0  0  0
 13  5  1  0  0  0  0
 13  4  1  0  0  0  0
 14 13  2  0  0  0  0
 15  9  1  0  0  0  0
 16 12  1  0  0  0  0
 17 21  1  0  0  0  0
 18 12  1  1  0  0  0
 18 19  1  0  0  0  0
 18 23  1  0  0  0  0
 19 17  1  0  0  0  0
 21 22  2  0  0  0  0
 23 20  1  6  0  0  0
 23 21  1  0  0  0  0
 24  2  1  0  0  0  0
 25 24  1  0  0  0  0
 26 30  2  0  0  0  0
 27 25  1  1  0  0  0
 27 26  1  0  0  0  0
 28 30  1  0  0  0  0
 28 32  2  0  0  0  0
 33 29  1  1  0  0  0
 33 28  1  0  0  0  0
 34 31  1  6  0  0  0
 34 27  1  0  0  0  0
 34 33  1  0  0  0  0
M  END
>  <MODEL>
8

>  <REMARK>
 VINA RESULT:      -7.4      2.747      7.140
  Name = 
  4 active torsions:
  status: ('A' for Active; 'I' for Inactive)
    1  A    between atoms: C_2  and  N_17
    2  A    between atoms: C_7  and  N_30
    3  A    between atoms: C_14  and  C_20
    4  A    between atoms: N_17  and  N_30
                            x       y       z     vdW  Elec       q    Type
                         _______ _______ _______ _____ _____    ______ ____

>  <TORSDO>
F 4

$$$$
=
 OpenBabel11062422043D

 34 38  0  0  1  0  0  0  0  0999 V2000
  191.8750  175.8180  144.3790 C   0  0  0  0  0  0  0  0  0  0  0  0
  190.6990  175.4660  143.7180 C   0  0  0  0  0  0  0  0  0  0  0  0
  189.6700  174.4140  141.7470 C   0  0  0  0  0  3  0  0  0  0  0  0
  194.1510  176.0170  144.7420 N   0  0  0  0  0  0  0  0  0  0  0  0
  191.9710  176.5230  145.6950 C   0  0  0  0  0  2  0  0  0  0  0  0
  191.1770  172.7630  138.3990 Cl  0  0  0  0  0  0  0  0  0  0  0  0
  190.8080  174.8160  142.4620 C   0  0  0  0  0  0  0  0  0  0  0  0
  192.0990  174.5660  141.9000 C   0  0  0  0  0  0  0  0  0  0  0  0
  191.0370  173.5490  139.9560 C   0  0  0  0  0  0  0  0  0  0  0  0
  192.1850  173.9360  140.6460 C   0  0  0  0  0  3  0  0  0  0  0  0
  195.4950  175.4810  144.8780 C   0  0  0  0  0  1  0  0  0  0  0  0
  193.2780  174.9490  142.5880 C   0  0  0  0  0  0  0  0  0  0  0  0
  193.4510  176.5880  145.8430 C   0  0  0  0  0  0  0  0  0  0  0  0
  194.0310  177.0670  146.8520 O   0  0  0  0  0  0  0  0  0  0  0  0
  189.7800  173.7860  140.5070 C   0  0  0  0  0  3  0  0  0  0  0  0
  193.1300  175.5490  143.8590 C   0  0  0  0  0  0  0  0  0  0  0  0
  195.5830  173.5370  140.2440 N   0  0  0  0  0  2  0  0  0  0  0  0
  194.6120  174.7360  141.9100 C   0  0  1  0  0  3  0  0  0  0  0  0
  194.7940  173.3720  141.3910 N   0  0  0  0  0  2  0  0  0  0  0  0
  195.8880  176.8100  141.3960 C   0  0  0  0  0  1  0  0  0  0  0  0
  195.6700  174.8940  139.8800 C   0  0  0  0  0  0  0  0  0  0  0  0
  196.2600  175.2930  138.8410 O   0  0  0  0  0  0  0  0  0  0  0  0
  194.9530  175.7600  140.8260 C   0  0  1  0  0  3  0  0  0  0  0  0
  189.4470  175.7810  144.3530 N   0  0  0  0  0  2  0  0  0  0  0  0
  188.6490  176.8830  144.0170 N   0  0  0  0  0  2  0  0  0  0  0  0
  186.8100  177.2660  145.5340 C   0  0  0  0  0  3  0  0  0  0  0  0
  187.2720  176.5170  144.3150 C   0  0  1  0  0  3  0  0  0  0  0  0
  185.9510  179.0770  144.1350 C   0  0  0  0  0  0  0  0  0  0  0  0
  185.2770  178.5830  141.9070 O   0  0  0  0  0  1  0  0  0  0  0  0
  186.2250  178.4640  145.4460 C   0  0  0  0  0  3  0  0  0  0  0  0
  186.8120  176.1760  141.9810 F   0  0  0  0  0  0  0  0  0  0  0  0
  185.4900  180.2480  144.0880 O   0  0  0  0  0  0  0  0  0  0  0  0
  186.2650  178.3360  142.8630 C   0  0  2  0  0  3  0  0  0  0  0  0
  186.3610  176.8260  143.1160 C   0  0  2  0  0  3  0  0  0  0  0  0
  1  5  1  0  0  0  0
  2 24  1  0  0  0  0
  2  1  2  0  0  0  0
  3  7  1  0  0  0  0
  4 11  1  0  0  0  0
  4 13  1  0  0  0  0
  5 13  1  0  0  0  0
  6  9  1  0  0  0  0
  7  2  1  0  0  0  0
  8  7  2  0  0  0  0
  8 12  1  0  0  0  0
  9 15  1  0  0  0  0
  9 10  2  0  0  0  0
 10  8  1  0  0  0  0
 12 16  2  0  0  0  0
 13 14  2  0  0  0  0
 15  3  2  0  0  0  0
 16  1  1  0  0  0  0
 16  4  1  0  0  0  0
 17 19  1  0  0  0  0
 18 12  1  6  0  0  0
 19 18  1  0  0  0  0
 21 17  1  0  0  0  0
 21 23  1  0  0  0  0
 22 21  2  0  0  0  0
 23 20  1  1  0  0  0
 23 18  1  0  0  0  0
 25 24  1  0  0  0  0
 27 25  1  6  0  0  0
 27 26  1  0  0  0  0
 28 30  1  0  0  0  0
 30 26  2  0  0  0  0
 32 28  2  0  0  0  0
 33 29  1  6  0  0  0
 33 34  1  0  0  0  0
 33 28  1  0  0  0  0
 34 31  1  6  0  0  0
 34 27  1  0  0  0  0
M  END
>  <MODEL>
9

>  <REMARK>
 VINA RESULT:      -7.3      3.245      7.937
  Name = 
  4 active torsions:
  status: ('A' for Active; 'I' for Inactive)
    1  A    between atoms: C_2  and  N_17
    2  A    between atoms: C_7  and  N_30
    3  A    between atoms: C_14  and  C_20
    4  A    between atoms: N_17  and  N_30
                            x       y       z     vdW  Elec       q    Type
                         _______ _______ _______ _____ _____    ______ ____

>  <TORSDO>
F 4

$$$$
