=
 OpenBabel11062423013D

 62 69  0  0  1  0  0  0  0  0999 V2000
  188.4780  176.6240  142.1100 N   0  0  0  0  0  0  0  0  0  0  0  0
  188.8260  174.2530  141.5140 C   0  0  0  0  0  0  0  0  0  0  0  0
  190.1890  175.2140  143.0880 C   0  0  0  0  0  0  0  0  0  0  0  0
  191.2670  178.1070  143.3750 C   0  0  0  0  0  1  0  0  0  0  0  0
  189.8800  174.1080  142.3890 N   0  0  0  0  0  0  0  0  0  0  0  0
  190.3660  177.0570  144.0020 C   0  0  2  0  0  3  0  0  0  0  0  0
  188.1300  175.5120  141.3740 C   0  0  0  0  0  3  0  0  0  0  0  0
  191.0840  175.7970  144.1310 C   0  0  1  0  0  3  0  0  0  0  0  0
  189.5070  176.4320  142.9550 C   0  0  0  0  0  0  0  0  0  0  0  0
  190.8060  175.1440  145.4900 C   0  0  2  0  0  3  0  0  0  0  0  0
  190.1930  176.1040  146.4210 N   0  0  0  0  0  0  0  0  0  0  0  0
  191.6520  177.1280  147.9300 O   0  0  0  0  0  1  0  0  0  0  0  0
  190.8220  176.0230  147.7370 C   0  0  0  0  0  2  0  0  0  0  0  0
  188.7970  175.7330  146.5900 C   0  0  0  0  0  2  0  0  0  0  0  0
  187.9530  176.9780  146.7770 C   0  0  0  0  0  2  0  0  0  0  0  0
  186.0030  176.7080  148.1320 F   0  0  0  0  0  0  0  0  0  0  0  0
  186.4810  176.5910  146.8370 C   0  0  1  0  0  3  0  0  0  0  0  0
  184.4660  177.6310  146.2270 O   0  0  0  0  0  0  0  0  0  0  0  0
  185.6200  177.3970  145.9040 C   0  0  0  0  0  0  0  0  0  0  0  0
  186.1550  177.9610  144.6070 C   0  0  0  0  0  2  0  0  0  0  0  0
  185.1890  179.9370  143.9520 O   0  0  0  0  0  1  0  0  0  0  0  0
  185.1280  178.5960  143.7690 N   0  0  0  0  0  0  0  0  0  0  0  0
  185.3940  178.3300  142.3600 C   0  0  0  0  0  2  0  0  0  0  0  0
  183.8250  178.2100  140.2910 N   0  0  0  0  0  0  0  0  0  0  0  0
  184.1150  178.2880  141.5970 C   0  0  0  0  0  0  0  0  0  0  0  0
  182.4730  178.2180  140.6400 C   0  0  0  0  0  2  0  0  0  0  0  0
  182.6950  178.2900  141.9970 N   0  0  0  0  0  2  0  0  0  0  0  0
  191.9880  174.5980  146.0170 O   0  0  0  0  0  0  0  0  0  0  0  0
  192.4110  173.6530  145.0760 C   0  0  0  0  0  2  0  0  0  0  0  0
  193.7850  173.1220  145.4560 C   0  0  0  0  0  2  0  0  0  0  0  0
  194.8680  173.8310  144.7120 C   0  0  0  0  0  0  0  0  0  0  0  0
  194.5590  174.8990  143.9700 C   0  0  0  0  0  3  0  0  0  0  0  0
  196.1920  173.3610  144.7810 O   0  0  0  0  0  0  0  0  0  0  0  0
  196.0210  176.7520  144.0290 O   0  0  0  0  0  1  0  0  0  0  0  0
  195.6170  175.6750  143.2370 C   0  0  1  0  0  3  0  0  0  0  0  0
  197.2850  174.0440  144.1650 C   0  0  0  0  0  2  0  0  0  0  0  0
  196.8060  174.7620  142.9050 C   0  0  2  0  0  3  0  0  0  0  0  0
  197.9380  175.4830  142.1770 C   0  0  0  0  0  2  0  0  0  0  0  0
  197.8950  175.2420  140.8010 O   0  0  0  0  0  1  0  0  0  0  0  0
  188.3840  173.0760  140.7130 C   0  0  0  0  0  2  0  0  0  0  0  0
  188.5700  173.3080  139.2180 C   0  0  0  0  0  2  0  0  0  0  0  0
  189.9870  173.7560  138.8750 C   0  0  0  0  0  2  0  0  0  0  0  0
  192.7750  171.6480  136.0320 C   0  0  0  0  0  2  0  0  0  0  0  0
  189.6290  171.8070  137.6220 C   0  0  0  0  0  2  0  0  0  0  0  0
  192.4450  171.1920  137.4580 C   0  0  0  0  0  2  0  0  0  0  0  0
  193.2770  173.3670  139.9720 C   0  0  0  0  0  0  0  0  0  0  0  0
  194.0830  174.1880  140.4860 O   0  0  0  0  0  0  0  0  0  0  0  0
  190.3990  171.2190  135.2880 C   0  0  0  0  0  2  0  0  0  0  0  0
  192.5820  172.3320  140.6880 C   0  0  0  0  0  0  0  0  0  0  0  0
  190.6100  172.8580  137.9000 N   0  0  0  0  0  0  0  0  0  0  0  0
  192.9010  173.3470  138.5910 N   0  0  0  0  0  0  0  0  0  0  0  0
  191.8620  170.8920  142.4620 C   0  0  0  0  0  3  0  0  0  0  0  0
  189.2710  171.7890  136.1410 C   0  0  0  0  0  2  0  0  0  0  0  0
  191.7600  171.6840  139.7920 C   0  0  0  0  0  0  0  0  0  0  0  0
  190.9650  170.6120  140.2080 C   0  0  0  0  0  3  0  0  0  0  0  0
  191.0200  170.2190  141.5560 C   0  0  0  0  0  3  0  0  0  0  0  0
  192.6570  171.9650  142.0300 C   0  0  0  0  0  3  0  0  0  0  0  0
  191.5760  172.1830  135.2510 C   0  0  0  0  0  2  0  0  0  0  0  0
  191.8900  172.2830  138.4000 C   0  0  2  0  0  0  0  0  0  0  0  0
  194.6480  174.2540  137.1810 C   0  0  0  0  0  2  0  0  0  0  0  0
  193.2230  174.3580  137.5760 C   0  0  2  0  0  3  0  0  0  0  0  0
  194.1950  175.2610  138.0510 O   0  0  0  0  0  0  0  0  0  0  0  0
  1  9  1  0  0  0  0
  2  5  2  0  0  0  0
  3  8  1  0  0  0  0
  5  3  1  0  0  0  0
  6  4  1  6  0  0  0
  6  8  1  0  0  0  0
  7  2  1  0  0  0  0
  7  1  2  0  0  0  0
  8 10  1  1  0  0  0
  9  3  2  0  0  0  0
  9  6  1  0  0  0  0
 10 28  1  1  0  0  0
 10 11  1  0  0  0  0
 11 14  1  0  0  0  0
 11 13  1  0  0  0  0
 13 12  1  0  0  0  0
 14 15  1  0  0  0  0
 15 17  1  0  0  0  0
 17 16  1  1  0  0  0
 19 18  2  0  0  0  0
 19 17  1  0  0  0  0
 20 19  1  0  0  0  0
 22 21  1  0  0  0  0
 22 20  1  0  0  0  0
 23 22  1  0  0  0  0
 24 26  1  0  0  0  0
 24 25  2  0  0  0  0
 25 27  1  0  0  0  0
 25 23  1  0  0  0  0
 26 27  1  0  0  0  0
 29 30  1  0  0  0  0
 29 28  1  0  0  0  0
 31 33  1  0  0  0  0
 31 30  1  0  0  0  0
 32 31  2  0  0  0  0
 35 32  1  0  0  0  0
 35 34  1  1  0  0  0
 36 33  1  0  0  0  0
 37 38  1  1  0  0  0
 37 35  1  0  0  0  0
 37 36  1  0  0  0  0
 39 38  1  0  0  0  0
 40  2  1  0  0  0  0
 41 40  1  0  0  0  0
 42 41  1  0  0  0  0
 43 45  1  0  0  0  0
 44 50  1  0  0  0  0
 46 47  2  0  0  0  0
 46 49  1  0  0  0  0
 48 53  1  0  0  0  0
 49 57  1  0  0  0  0
 50 59  1  0  0  0  0
 50 42  1  0  0  0  0
 51 46  1  0  0  0  0
 53 44  1  0  0  0  0
 54 55  1  0  0  0  0
 54 49  2  0  0  0  0
 55 56  2  0  0  0  0
 56 52  1  0  0  0  0
 57 52  2  0  0  0  0
 58 48  1  0  0  0  0
 58 43  1  0  0  0  0
 59 45  1  6  0  0  0
 59 51  1  0  0  0  0
 59 54  1  0  0  0  0
 60 62  1  0  0  0  0
 61 60  1  6  0  0  0
 61 62  1  0  0  0  0
 61 51  1  0  0  0  0
M  END
>  <MODEL>
1

>  <REMARK>
 VINA RESULT:      -7.0      0.000      0.000
  Name = 
  21 active torsions:
  status: ('A' for Active; 'I' for Inactive)
    1  A    between atoms: C_1  and  C_42
    2  A    between atoms: C_1  and  N_45
    3  A    between atoms: C_3  and  C_56
    4  A    between atoms: C_5  and  C_22
    5  A    between atoms: C_5  and  N_59
    6  A    between atoms: C_7  and  C_27
    7  A    between atoms: C_9  and  C_57
    8  A    between atoms: C_14  and  N_29
    9  A    between atoms: C_14  and  C_32
   10  A    between atoms: C_19  and  C_23
   11  A    between atoms: C_19  and  N_45
   12  A    between atoms: C_22  and  C_55
   13  A    between atoms: C_27  and  C_32
   14  A    between atoms: N_31  and  C_60
   15  A    between atoms: C_34  and  O_53
   16  A    between atoms: C_34  and  C_56
   17  A    between atoms: C_36  and  N_59
   18  A    between atoms: C_42  and  C_55
   19  A    between atoms: C_48  and  O_53
   20  A    between atoms: C_48  and  C_58
   21  A    between atoms: C_48  and  N_59
                            x       y       z     vdW  Elec       q    Type
                         _______ _______ _______ _____ _____    ______ ____

>  <TORSDO>
F 21

$$$$
=
 OpenBabel11062423013D

 62 69  0  0  1  0  0  0  0  0999 V2000
  190.7320  171.0720  142.2120 N   0  0  0  0  0  0  0  0  0  0  0  0
  189.8840  172.4640  140.3570 C   0  0  0  0  0  0  0  0  0  0  0  0
  189.8240  173.3010  142.4920 C   0  0  0  0  0  0  0  0  0  0  0  0
  189.3970  171.9070  145.2280 C   0  0  0  0  0  1  0  0  0  0  0  0
  189.5530  173.5100  141.1920 N   0  0  0  0  0  0  0  0  0  0  0  0
  190.3940  172.6690  144.3720 C   0  0  2  0  0  3  0  0  0  0  0  0
  190.4710  171.2470  140.8710 C   0  0  0  0  0  3  0  0  0  0  0  0
  189.7840  173.8890  143.8630 C   0  0  1  0  0  3  0  0  0  0  0  0
  190.3990  172.1210  142.9860 C   0  0  0  0  0  0  0  0  0  0  0  0
  190.7580  175.0700  143.9590 C   0  0  2  0  0  3  0  0  0  0  0  0
  190.3580  175.9980  145.0280 N   0  0  0  0  0  0  0  0  0  0  0  0
  192.2030  176.2950  146.4280 O   0  0  0  0  0  1  0  0  0  0  0  0
  190.9830  175.6300  146.2950 C   0  0  0  0  0  2  0  0  0  0  0  0
  188.9200  175.8780  145.2080 C   0  0  0  0  0  2  0  0  0  0  0  0
  188.3090  177.2530  145.3980 C   0  0  0  0  0  2  0  0  0  0  0  0
  187.6720  178.1830  147.5050 F   0  0  0  0  0  0  0  0  0  0  0  0
  187.3350  177.2190  146.5690 C   0  0  1  0  0  3  0  0  0  0  0  0
  185.1100  176.4960  146.3700 O   0  0  0  0  0  0  0  0  0  0  0  0
  185.9020  177.3990  146.1500 C   0  0  0  0  0  0  0  0  0  0  0  0
  185.4090  178.6770  145.5090 C   0  0  0  0  0  2  0  0  0  0  0  0
  183.7450  178.9790  143.9580 O   0  0  0  0  0  1  0  0  0  0  0  0
  185.0120  178.5200  144.1040 N   0  0  0  0  0  0  0  0  0  0  0  0
  185.8740  179.3240  143.2450 C   0  0  0  0  0  2  0  0  0  0  0  0
  187.5820  177.9160  141.8830 N   0  0  0  0  0  0  0  0  0  0  0  0
  186.3970  178.4940  142.1240 C   0  0  0  0  0  0  0  0  0  0  0  0
  187.0430  177.4220  140.6920 C   0  0  0  0  0  2  0  0  0  0  0  0
  185.7990  177.9810  140.8770 N   0  0  0  0  0  2  0  0  0  0  0  0
  190.8540  175.7220  142.7190 O   0  0  0  0  0  0  0  0  0  0  0  0
  192.0890  176.3780  142.7400 C   0  0  0  0  0  2  0  0  0  0  0  0
  193.1340  175.5380  142.0190 C   0  0  0  0  0  2  0  0  0  0  0  0
  194.2090  175.0880  142.9510 C   0  0  0  0  0  0  0  0  0  0  0  0
  194.7980  173.9060  142.7450 C   0  0  0  0  0  3  0  0  0  0  0  0
  194.5780  175.8960  144.0410 O   0  0  0  0  0  0  0  0  0  0  0  0
  197.1370  173.7660  143.0380 O   0  0  0  0  0  1  0  0  0  0  0  0
  195.9170  173.4260  143.6270 C   0  0  1  0  0  3  0  0  0  0  0  0
  195.6570  175.5640  144.9170 C   0  0  0  0  0  2  0  0  0  0  0  0
  195.7910  174.0460  145.0250 C   0  0  2  0  0  3  0  0  0  0  0  0
  196.9060  173.6240  145.9780 C   0  0  0  0  0  2  0  0  0  0  0  0
  196.8440  172.2560  146.2620 O   0  0  0  0  0  1  0  0  0  0  0  0
  189.6530  172.6080  138.8920 C   0  0  0  0  0  2  0  0  0  0  0  0
  190.4530  173.7650  138.3050 C   0  0  0  0  0  2  0  0  0  0  0  0
  191.9320  173.6890  138.6710 C   0  0  0  0  0  2  0  0  0  0  0  0
  195.3360  174.0980  135.7470 C   0  0  0  0  0  2  0  0  0  0  0  0
  191.8950  174.4410  136.4500 C   0  0  0  0  0  2  0  0  0  0  0  0
  194.2830  172.9840  135.7370 C   0  0  0  0  0  2  0  0  0  0  0  0
  194.1540  171.0020  138.5310 C   0  0  0  0  0  0  0  0  0  0  0  0
  194.7380  170.3600  139.4440 O   0  0  0  0  0  0  0  0  0  0  0  0
  193.5840  175.8300  135.1840 C   0  0  0  0  0  2  0  0  0  0  0  0
  193.0330  170.5230  137.7700 C   0  0  0  0  0  0  0  0  0  0  0  0
  192.7830  173.9590  137.5100 N   0  0  0  0  0  0  0  0  0  0  0  0
  194.4970  172.3280  138.1170 N   0  0  0  0  0  0  0  0  0  0  0  0
  191.3060  169.0870  136.9330 C   0  0  0  0  0  3  0  0  0  0  0  0
  192.3030  175.8420  136.0090 C   0  0  0  0  0  2  0  0  0  0  0  0
  192.6490  171.5290  136.9110 C   0  0  0  0  0  0  0  0  0  0  0  0
  191.5800  171.3390  136.0300 C   0  0  0  0  0  3  0  0  0  0  0  0
  190.9070  170.1060  136.0470 C   0  0  0  0  0  3  0  0  0  0  0  0
  192.3830  169.2900  137.8100 C   0  0  0  0  0  3  0  0  0  0  0  0
  194.7790  175.4850  136.0610 C   0  0  0  0  0  2  0  0  0  0  0  0
  193.5390  172.7520  137.0710 C   0  0  2  0  0  0  0  0  0  0  0  0
  196.8360  172.8280  138.4960 C   0  0  0  0  0  2  0  0  0  0  0  0
  195.4400  173.2400  138.7770 C   0  0  2  0  0  3  0  0  0  0  0  0
  196.2220  172.5580  139.7310 O   0  0  0  0  0  0  0  0  0  0  0  0
  1  9  1  0  0  0  0
  2  7  1  0  0  0  0
  2  5  2  0  0  0  0
  3  9  2  0  0  0  0
  3  8  1  0  0  0  0
  5  3  1  0  0  0  0
  6  4  1  1  0  0  0
  7  1  2  0  0  0  0
  8 10  1  6  0  0  0
  8  6  1  0  0  0  0
  9  6  1  0  0  0  0
 10 28  1  6  0  0  0
 10 11  1  0  0  0  0
 11 14  1  0  0  0  0
 11 13  1  0  0  0  0
 13 12  1  0  0  0  0
 14 15  1  0  0  0  0
 15 17  1  0  0  0  0
 17 16  1  1  0  0  0
 19 18  2  0  0  0  0
 19 17  1  0  0  0  0
 20 19  1  0  0  0  0
 21 22  1  0  0  0  0
 22 20  1  0  0  0  0
 23 22  1  0  0  0  0
 24 25  2  0  0  0  0
 25 23  1  0  0  0  0
 26 27  1  0  0  0  0
 26 24  1  0  0  0  0
 27 25  1  0  0  0  0
 28 29  1  0  0  0  0
 30 29  1  0  0  0  0
 30 31  1  0  0  0  0
 31 33  1  0  0  0  0
 32 31  2  0  0  0  0
 32 35  1  0  0  0  0
 33 36  1  0  0  0  0
 35 34  1  6  0  0  0
 35 37  1  0  0  0  0
 36 37  1  0  0  0  0
 37 38  1  1  0  0  0
 38 39  1  0  0  0  0
 40  2  1  0  0  0  0
 41 42  1  0  0  0  0
 41 40  1  0  0  0  0
 43 58  1  0  0  0  0
 44 50  1  0  0  0  0
 45 43  1  0  0  0  0
 46 47  2  0  0  0  0
 48 53  1  0  0  0  0
 48 58  1  0  0  0  0
 49 57  1  0  0  0  0
 49 46  1  0  0  0  0
 50 42  1  0  0  0  0
 51 46  1  0  0  0  0
 52 57  2  0  0  0  0
 53 44  1  0  0  0  0
 54 59  1  0  0  0  0
 54 49  2  0  0  0  0
 55 56  2  0  0  0  0
 55 54  1  0  0  0  0
 56 52  1  0  0  0  0
 59 45  1  6  0  0  0
 59 50  1  0  0  0  0
 59 51  1  0  0  0  0
 60 61  1  0  0  0  0
 60 62  1  0  0  0  0
 61 51  1  6  0  0  0
 61 62  1  0  0  0  0
M  END
>  <MODEL>
2

>  <REMARK>
 VINA RESULT:      -6.2      1.889      3.409
  Name = 
  21 active torsions:
  status: ('A' for Active; 'I' for Inactive)
    1  A    between atoms: C_1  and  C_42
    2  A    between atoms: C_1  and  N_45
    3  A    between atoms: C_3  and  C_56
    4  A    between atoms: C_5  and  C_22
    5  A    between atoms: C_5  and  N_59
    6  A    between atoms: C_7  and  C_27
    7  A    between atoms: C_9  and  C_57
    8  A    between atoms: C_14  and  N_29
    9  A    between atoms: C_14  and  C_32
   10  A    between atoms: C_19  and  C_23
   11  A    between atoms: C_19  and  N_45
   12  A    between atoms: C_22  and  C_55
   13  A    between atoms: C_27  and  C_32
   14  A    between atoms: N_31  and  C_60
   15  A    between atoms: C_34  and  O_53
   16  A    between atoms: C_34  and  C_56
   17  A    between atoms: C_36  and  N_59
   18  A    between atoms: C_42  and  C_55
   19  A    between atoms: C_48  and  O_53
   20  A    between atoms: C_48  and  C_58
   21  A    between atoms: C_48  and  N_59
                            x       y       z     vdW  Elec       q    Type
                         _______ _______ _______ _____ _____    ______ ____

>  <TORSDO>
F 21

$$$$
=
 OpenBabel11062423013D

 62 69  0  0  1  0  0  0  0  0999 V2000
  189.8280  173.2550  137.9700 N   0  0  0  0  0  0  0  0  0  0  0  0
  189.7140  173.1860  140.4360 C   0  0  0  0  0  0  0  0  0  0  0  0
  190.9280  171.5820  139.3350 C   0  0  0  0  0  0  0  0  0  0  0  0
  190.5070  170.2260  136.5790 C   0  0  0  0  0  1  0  0  0  0  0  0
  190.5060  172.0610  140.5180 N   0  0  0  0  0  0  0  0  0  0  0  0
  191.4160  171.1440  137.3780 C   0  0  2  0  0  3  0  0  0  0  0  0
  189.3760  173.7790  139.1620 C   0  0  0  0  0  3  0  0  0  0  0  0
  191.7430  170.5310  138.6570 C   0  0  1  0  0  3  0  0  0  0  0  0
  190.6020  172.1630  138.1010 C   0  0  0  0  0  0  0  0  0  0  0  0
  193.2290  170.7180  138.9910 C   0  0  2  0  0  3  0  0  0  0  0  0
  194.0220  170.9250  137.7700 N   0  0  0  0  0  0  0  0  0  0  0  0
  194.9140  169.7190  135.9800 O   0  0  0  0  0  1  0  0  0  0  0  0
  194.6650  169.6820  137.3530 C   0  0  0  0  0  2  0  0  0  0  0  0
  195.0810  171.8730  138.0810 C   0  0  0  0  0  2  0  0  0  0  0  0
  194.4860  173.1270  138.6890 C   0  0  0  0  0  2  0  0  0  0  0  0
  195.8530  174.9240  137.9050 F   0  0  0  0  0  0  0  0  0  0  0  0
  195.6000  174.1180  139.0030 C   0  0  1  0  0  3  0  0  0  0  0  0
  194.2210  175.5270  140.2780 O   0  0  0  0  0  0  0  0  0  0  0  0
  195.3070  174.9740  140.2040 C   0  0  0  0  0  0  0  0  0  0  0  0
  196.2970  175.1330  141.3360 C   0  0  0  0  0  2  0  0  0  0  0  0
  195.9710  173.5370  142.9530 O   0  0  0  0  0  1  0  0  0  0  0  0
  195.7340  174.8400  142.6610 N   0  0  0  0  0  0  0  0  0  0  0  0
  196.3960  175.6470  143.6780 C   0  0  0  0  0  2  0  0  0  0  0  0
  194.7500  176.7830  145.3390 N   0  0  0  0  0  0  0  0  0  0  0  0
  195.5170  175.7880  144.8730 C   0  0  0  0  0  0  0  0  0  0  0  0
  194.3860  175.9440  146.3940 C   0  0  0  0  0  2  0  0  0  0  0  0
  195.1440  174.8760  145.9710 N   0  0  0  0  0  2  0  0  0  0  0  0
  193.7010  169.6230  139.7330 O   0  0  0  0  0  0  0  0  0  0  0  0
  193.6110  170.0170  141.0720 C   0  0  0  0  0  2  0  0  0  0  0  0
  194.9890  170.4000  141.5930 C   0  0  0  0  0  2  0  0  0  0  0  0
  195.1780  169.9590  143.0060 C   0  0  0  0  0  0  0  0  0  0  0  0
  196.3750  169.5070  143.3940 C   0  0  0  0  0  3  0  0  0  0  0  0
  194.0990  170.0040  143.9070 O   0  0  0  0  0  0  0  0  0  0  0  0
  197.1800  170.1740  145.5110 O   0  0  0  0  0  1  0  0  0  0  0  0
  196.6320  169.0940  144.8160 C   0  0  1  0  0  3  0  0  0  0  0  0
  194.2370  169.6800  145.2920 C   0  0  0  0  0  2  0  0  0  0  0  0
  195.3260  168.6240  145.4730 C   0  0  2  0  0  3  0  0  0  0  0  0
  195.4990  168.2070  146.9310 C   0  0  0  0  0  2  0  0  0  0  0  0
  194.5820  168.8600  147.7610 O   0  0  0  0  0  1  0  0  0  0  0  0
  189.2200  173.8150  141.6940 C   0  0  0  0  0  2  0  0  0  0  0  0
  188.1890  174.9020  141.4140 C   0  0  0  0  0  2  0  0  0  0  0  0
  187.4180  175.3040  142.6670 C   0  0  0  0  0  2  0  0  0  0  0  0
  185.2110  179.1900  143.2390 C   0  0  0  0  0  2  0  0  0  0  0  0
  187.1680  177.0990  141.1790 C   0  0  0  0  0  2  0  0  0  0  0  0
  186.7330  179.0140  143.2950 C   0  0  0  0  0  2  0  0  0  0  0  0
  187.9230  176.9090  145.7240 C   0  0  0  0  0  0  0  0  0  0  0  0
  187.8900  176.4740  146.9050 O   0  0  0  0  0  0  0  0  0  0  0  0
  185.1800  178.6070  140.7810 C   0  0  0  0  0  2  0  0  0  0  0  0
  189.1190  177.2350  144.9960 C   0  0  0  0  0  0  0  0  0  0  0  0
  186.7960  176.6210  142.5120 N   0  0  0  0  0  0  0  0  0  0  0  0
  186.7720  177.1290  144.9010 N   0  0  0  0  0  0  0  0  0  0  0  0
  191.4300  177.5910  144.4720 C   0  0  0  0  0  3  0  0  0  0  0  0
  185.9240  177.3530  140.3370 C   0  0  0  0  0  2  0  0  0  0  0  0
  188.7440  177.6260  143.7290 C   0  0  0  0  0  0  0  0  0  0  0  0
  189.7080  178.0170  142.7940 C   0  0  0  0  0  3  0  0  0  0  0  0
  191.0600  177.9960  143.1750 C   0  0  0  0  0  3  0  0  0  0  0  0
  190.4520  177.2030  145.4010 C   0  0  0  0  0  3  0  0  0  0  0  0
  184.5260  178.3850  142.1370 C   0  0  0  0  0  2  0  0  0  0  0  0
  187.2320  177.5780  143.5690 C   0  0  2  0  0  0  0  0  0  0  0  0
  184.7430  177.7220  146.0810 C   0  0  0  0  0  2  0  0  0  0  0  0
  185.3910  176.7260  145.1950 C   0  0  2  0  0  3  0  0  0  0  0  0
  185.2130  176.4930  146.5740 O   0  0  0  0  0  0  0  0  0  0  0  0
  1  9  2  0  0  0  0
  1  7  1  0  0  0  0
  2  5  1  0  0  0  0
  2 40  1  0  0  0  0
  3  5  2  0  0  0  0
  6  4  1  6  0  0  0
  6  9  1  0  0  0  0
  6  8  1  0  0  0  0
  7  2  2  0  0  0  0
  8 10  1  1  0  0  0
  8  3  1  0  0  0  0
  9  3  1  0  0  0  0
 10 28  1  6  0  0  0
 11 14  1  0  0  0  0
 11 10  1  0  0  0  0
 12 13  1  0  0  0  0
 13 11  1  0  0  0  0
 14 15  1  0  0  0  0
 15 17  1  0  0  0  0
 17 16  1  6  0  0  0
 17 19  1  0  0  0  0
 19 18  2  0  0  0  0
 19 20  1  0  0  0  0
 20 22  1  0  0  0  0
 22 21  1  0  0  0  0
 22 23  1  0  0  0  0
 23 25  1  0  0  0  0
 24 26  1  0  0  0  0
 25 24  2  0  0  0  0
 25 27  1  0  0  0  0
 27 26  1  0  0  0  0
 28 29  1  0  0  0  0
 29 30  1  0  0  0  0
 30 31  1  0  0  0  0
 31 32  2  0  0  0  0
 31 33  1  0  0  0  0
 32 35  1  0  0  0  0
 33 36  1  0  0  0  0
 35 37  1  0  0  0  0
 35 34  1  1  0  0  0
 36 37  1  0  0  0  0
 37 38  1  1  0  0  0
 38 39  1  0  0  0  0
 41 40  1  0  0  0  0
 41 42  1  0  0  0  0
 43 45  1  0  0  0  0
 44 50  1  0  0  0  0
 46 47  2  0  0  0  0
 48 58  1  0  0  0  0
 49 57  1  0  0  0  0
 49 46  1  0  0  0  0
 50 42  1  0  0  0  0
 50 59  1  0  0  0  0
 51 46  1  0  0  0  0
 52 57  2  0  0  0  0
 53 48  1  0  0  0  0
 53 44  1  0  0  0  0
 54 49  2  0  0  0  0
 55 56  2  0  0  0  0
 55 54  1  0  0  0  0
 56 52  1  0  0  0  0
 58 43  1  0  0  0  0
 59 45  1  6  0  0  0
 59 54  1  0  0  0  0
 59 51  1  0  0  0  0
 60 62  1  0  0  0  0
 61 51  1  1  0  0  0
 61 60  1  0  0  0  0
 61 62  1  0  0  0  0
M  END
>  <MODEL>
3

>  <REMARK>
 VINA RESULT:      -6.2      3.285      9.325
  Name = 
  21 active torsions:
  status: ('A' for Active; 'I' for Inactive)
    1  A    between atoms: C_1  and  C_42
    2  A    between atoms: C_1  and  N_45
    3  A    between atoms: C_3  and  C_56
    4  A    between atoms: C_5  and  C_22
    5  A    between atoms: C_5  and  N_59
    6  A    between atoms: C_7  and  C_27
    7  A    between atoms: C_9  and  C_57
    8  A    between atoms: C_14  and  N_29
    9  A    between atoms: C_14  and  C_32
   10  A    between atoms: C_19  and  C_23
   11  A    between atoms: C_19  and  N_45
   12  A    between atoms: C_22  and  C_55
   13  A    between atoms: C_27  and  C_32
   14  A    between atoms: N_31  and  C_60
   15  A    between atoms: C_34  and  O_53
   16  A    between atoms: C_34  and  C_56
   17  A    between atoms: C_36  and  N_59
   18  A    between atoms: C_42  and  C_55
   19  A    between atoms: C_48  and  O_53
   20  A    between atoms: C_48  and  C_58
   21  A    between atoms: C_48  and  N_59
                            x       y       z     vdW  Elec       q    Type
                         _______ _______ _______ _____ _____    ______ ____

>  <TORSDO>
F 21

$$$$
=
 OpenBabel11062423013D

 62 69  0  0  1  0  0  0  0  0999 V2000
  189.8900  173.6470  137.7100 N   0  0  0  0  0  0  0  0  0  0  0  0
  189.3150  173.0210  140.0280 C   0  0  0  0  0  0  0  0  0  0  0  0
  190.1000  171.4040  138.6040 C   0  0  0  0  0  0  0  0  0  0  0  0
  189.7560  171.0250  135.5460 C   0  0  0  0  0  1  0  0  0  0  0  0
  189.6560  171.7000  139.8380 N   0  0  0  0  0  0  0  0  0  0  0  0
  190.7600  171.3120  136.6500 C   0  0  2  0  0  3  0  0  0  0  0  0
  189.4310  173.9910  138.9630 C   0  0  0  0  0  3  0  0  0  0  0  0
  190.6260  170.3280  137.7130 C   0  0  1  0  0  3  0  0  0  0  0  0
  190.2170  172.3490  137.5740 C   0  0  0  0  0  0  0  0  0  0  0  0
  192.0010  169.8600  138.2050 C   0  0  2  0  0  3  0  0  0  0  0  0
  193.0380  170.1140  137.1930 N   0  0  0  0  0  0  0  0  0  0  0  0
  194.7880  168.6390  136.7320 O   0  0  0  0  0  1  0  0  0  0  0  0
  193.4280  168.8730  136.5290 C   0  0  0  0  0  2  0  0  0  0  0  0
  194.2160  170.6230  137.8780 C   0  0  0  0  0  2  0  0  0  0  0  0
  193.8760  171.9160  138.5930 C   0  0  0  0  0  2  0  0  0  0  0  0
  193.1600  173.7130  137.1900 F   0  0  0  0  0  0  0  0  0  0  0  0
  194.2820  173.0990  137.7240 C   0  0  1  0  0  3  0  0  0  0  0  0
  196.3290  174.0520  138.3670 O   0  0  0  0  0  0  0  0  0  0  0  0
  195.1130  174.1140  138.4590 C   0  0  0  0  0  0  0  0  0  0  0  0
  194.4870  175.2290  139.2660 C   0  0  0  0  0  2  0  0  0  0  0  0
  194.7820  176.7040  140.9990 O   0  0  0  0  0  1  0  0  0  0  0  0
  195.1610  175.4840  140.5460 N   0  0  0  0  0  0  0  0  0  0  0  0
  194.7490  174.4980  141.5370 C   0  0  0  0  0  2  0  0  0  0  0  0
  196.4430  174.7120  143.4980 N   0  0  0  0  0  0  0  0  0  0  0  0
  195.2640  174.8790  142.8830 C   0  0  0  0  0  0  0  0  0  0  0  0
  195.9090  175.3870  144.5980 C   0  0  0  0  0  2  0  0  0  0  0  0
  194.6750  175.6020  144.0260 N   0  0  0  0  0  2  0  0  0  0  0  0
  191.9530  168.5040  138.5650 O   0  0  0  0  0  0  0  0  0  0  0  0
  191.8580  168.4930  139.9600 C   0  0  0  0  0  2  0  0  0  0  0  0
  193.2480  168.4350  140.5740 C   0  0  0  0  0  2  0  0  0  0  0  0
  193.3550  169.3290  141.7650 C   0  0  0  0  0  0  0  0  0  0  0  0
  192.6300  170.4510  141.8070 C   0  0  0  0  0  3  0  0  0  0  0  0
  194.2250  168.9950  142.8190 O   0  0  0  0  0  0  0  0  0  0  0  0
  191.6080  171.0380  143.8530 O   0  0  0  0  0  1  0  0  0  0  0  0
  192.6670  171.3620  143.0020 C   0  0  1  0  0  3  0  0  0  0  0  0
  194.3080  169.7590  144.0230 C   0  0  0  0  0  2  0  0  0  0  0  0
  194.0130  171.2290  143.7270 C   0  0  2  0  0  3  0  0  0  0  0  0
  194.1220  172.1090  144.9690 C   0  0  0  0  0  2  0  0  0  0  0  0
  194.4610  171.3570  146.0990 O   0  0  0  0  0  1  0  0  0  0  0  0
  188.8410  173.4580  141.3720 C   0  0  0  0  0  2  0  0  0  0  0  0
  187.8120  174.5780  141.2700 C   0  0  0  0  0  2  0  0  0  0  0  0
  187.5090  175.2110  142.6250 C   0  0  0  0  0  2  0  0  0  0  0  0
  185.3630  179.1300  143.2060 C   0  0  0  0  0  2  0  0  0  0  0  0
  187.2840  177.0100  141.1390 C   0  0  0  0  0  2  0  0  0  0  0  0
  186.8820  178.9300  143.2570 C   0  0  0  0  0  2  0  0  0  0  0  0
  188.0460  176.8050  145.6820 C   0  0  0  0  0  0  0  0  0  0  0  0
  188.0080  176.3690  146.8630 O   0  0  0  0  0  0  0  0  0  0  0  0
  185.3170  178.5490  140.7470 C   0  0  0  0  0  2  0  0  0  0  0  0
  189.2450  177.1130  144.9520 C   0  0  0  0  0  0  0  0  0  0  0  0
  186.9070  176.5370  142.4730 N   0  0  0  0  0  0  0  0  0  0  0  0
  186.8960  177.0430  144.8620 N   0  0  0  0  0  0  0  0  0  0  0  0
  191.5600  177.4350  144.4230 C   0  0  0  0  0  3  0  0  0  0  0  0
  186.0410  177.2840  140.3000 C   0  0  0  0  0  2  0  0  0  0  0  0
  188.8730  177.5110  143.6860 C   0  0  0  0  0  0  0  0  0  0  0  0
  189.8400  177.8880  142.7490 C   0  0  0  0  0  3  0  0  0  0  0  0
  191.1930  177.8460  143.1270 C   0  0  0  0  0  3  0  0  0  0  0  0
  190.5780  177.0610  145.3540 C   0  0  0  0  0  3  0  0  0  0  0  0
  184.6630  178.3360  142.1040 C   0  0  0  0  0  2  0  0  0  0  0  0
  187.3600  177.4860  143.5290 C   0  0  2  0  0  0  0  0  0  0  0  0
  184.8720  177.6780  146.0280 C   0  0  0  0  0  2  0  0  0  0  0  0
  185.5100  176.6610  145.1580 C   0  0  2  0  0  3  0  0  0  0  0  0
  185.3260  176.4500  146.5400 O   0  0  0  0  0  0  0  0  0  0  0  0
  1  7  1  0  0  0  0
  2 40  1  0  0  0  0
  3  5  2  0  0  0  0
  5  2  1  0  0  0  0
  6  4  1  6  0  0  0
  6  9  1  0  0  0  0
  6  8  1  0  0  0  0
  7  2  2  0  0  0  0
  8 10  1  1  0  0  0
  8  3  1  0  0  0  0
  9  1  2  0  0  0  0
  9  3  1  0  0  0  0
 10 28  1  6  0  0  0
 11 14  1  0  0  0  0
 11 10  1  0  0  0  0
 13 12  1  0  0  0  0
 13 11  1  0  0  0  0
 14 15  1  0  0  0  0
 17 16  1  1  0  0  0
 17 19  1  0  0  0  0
 17 15  1  0  0  0  0
 18 19  2  0  0  0  0
 19 20  1  0  0  0  0
 20 22  1  0  0  0  0
 22 21  1  0  0  0  0
 22 23  1  0  0  0  0
 23 25  1  0  0  0  0
 24 26  1  0  0  0  0
 25 24  2  0  0  0  0
 25 27  1  0  0  0  0
 27 26  1  0  0  0  0
 28 29  1  0  0  0  0
 29 30  1  0  0  0  0
 30 31  1  0  0  0  0
 31 32  2  0  0  0  0
 31 33  1  0  0  0  0
 32 35  1  0  0  0  0
 33 36  1  0  0  0  0
 35 37  1  0  0  0  0
 35 34  1  1  0  0  0
 37 36  1  0  0  0  0
 37 38  1  1  0  0  0
 38 39  1  0  0  0  0
 41 40  1  0  0  0  0
 41 42  1  0  0  0  0
 43 45  1  0  0  0  0
 44 50  1  0  0  0  0
 46 47  2  0  0  0  0
 48 58  1  0  0  0  0
 49 57  1  0  0  0  0
 49 46  1  0  0  0  0
 50 42  1  0  0  0  0
 50 59  1  0  0  0  0
 51 46  1  0  0  0  0
 52 57  2  0  0  0  0
 53 48  1  0  0  0  0
 53 44  1  0  0  0  0
 54 49  2  0  0  0  0
 55 56  2  0  0  0  0
 55 54  1  0  0  0  0
 56 52  1  0  0  0  0
 58 43  1  0  0  0  0
 59 45  1  6  0  0  0
 59 54  1  0  0  0  0
 59 51  1  0  0  0  0
 60 62  1  0  0  0  0
 61 51  1  1  0  0  0
 61 60  1  0  0  0  0
 61 62  1  0  0  0  0
M  END
>  <MODEL>
4

>  <REMARK>
 VINA RESULT:      -6.1      3.041      9.330
  Name = 
  21 active torsions:
  status: ('A' for Active; 'I' for Inactive)
    1  A    between atoms: C_1  and  C_42
    2  A    between atoms: C_1  and  N_45
    3  A    between atoms: C_3  and  C_56
    4  A    between atoms: C_5  and  C_22
    5  A    between atoms: C_5  and  N_59
    6  A    between atoms: C_7  and  C_27
    7  A    between atoms: C_9  and  C_57
    8  A    between atoms: C_14  and  N_29
    9  A    between atoms: C_14  and  C_32
   10  A    between atoms: C_19  and  C_23
   11  A    between atoms: C_19  and  N_45
   12  A    between atoms: C_22  and  C_55
   13  A    between atoms: C_27  and  C_32
   14  A    between atoms: N_31  and  C_60
   15  A    between atoms: C_34  and  O_53
   16  A    between atoms: C_34  and  C_56
   17  A    between atoms: C_36  and  N_59
   18  A    between atoms: C_42  and  C_55
   19  A    between atoms: C_48  and  O_53
   20  A    between atoms: C_48  and  C_58
   21  A    between atoms: C_48  and  N_59
                            x       y       z     vdW  Elec       q    Type
                         _______ _______ _______ _____ _____    ______ ____

>  <TORSDO>
F 21

$$$$
=
 OpenBabel11062423013D

 62 69  0  0  1  0  0  0  0  0999 V2000
  194.1530  176.4170  146.5100 N   0  0  0  0  0  0  0  0  0  0  0  0
  194.4170  174.0920  145.7210 C   0  0  0  0  0  0  0  0  0  0  0  0
  192.3040  174.9200  146.0530 C   0  0  0  0  0  0  0  0  0  0  0  0
  191.2020  176.9590  148.1140 C   0  0  0  0  0  1  0  0  0  0  0  0
  193.0570  173.8700  145.6840 N   0  0  0  0  0  0  0  0  0  0  0  0
  191.4650  176.7140  146.6380 C   0  0  2  0  0  3  0  0  0  0  0  0
  194.9610  175.3650  146.1370 C   0  0  0  0  0  3  0  0  0  0  0  0
  190.9120  175.4270  146.2400 C   0  0  1  0  0  3  0  0  0  0  0  0
  192.8360  176.1560  146.4510 C   0  0  0  0  0  0  0  0  0  0  0  0
  190.2030  175.5320  144.8840 C   0  0  2  0  0  3  0  0  0  0  0  0
  188.8570  176.1050  145.0350 N   0  0  0  0  0  0  0  0  0  0  0  0
  189.9220  177.8010  143.8360 O   0  0  0  0  0  1  0  0  0  0  0  0
  188.8580  177.5250  144.6960 C   0  0  0  0  0  2  0  0  0  0  0  0
  188.4820  175.9990  146.4360 C   0  0  0  0  0  2  0  0  0  0  0  0
  187.7450  177.2530  146.8680 C   0  0  0  0  0  2  0  0  0  0  0  0
  185.9940  176.3990  148.2520 F   0  0  0  0  0  0  0  0  0  0  0  0
  186.2600  176.9470  147.0080 C   0  0  1  0  0  3  0  0  0  0  0  0
  184.4860  178.3750  147.5820 O   0  0  0  0  0  0  0  0  0  0  0  0
  185.3860  178.1510  146.7880 C   0  0  0  0  0  0  0  0  0  0  0  0
  185.6190  179.1120  145.6440 C   0  0  0  0  0  2  0  0  0  0  0  0
  183.7990  179.3670  144.2700 O   0  0  0  0  0  1  0  0  0  0  0  0
  184.9770  178.7050  144.3870 N   0  0  0  0  0  0  0  0  0  0  0  0
  185.8090  179.0810  143.2520 C   0  0  0  0  0  2  0  0  0  0  0  0
  185.7280  178.2510  140.7900 N   0  0  0  0  0  0  0  0  0  0  0  0
  185.2150  178.5630  141.9880 C   0  0  0  0  0  0  0  0  0  0  0  0
  184.4410  177.8860  140.3870 C   0  0  0  0  0  2  0  0  0  0  0  0
  183.8460  178.1790  141.5930 N   0  0  0  0  0  2  0  0  0  0  0  0
  190.1600  174.2740  144.2610 O   0  0  0  0  0  0  0  0  0  0  0  0
  189.5920  174.5020  143.0030 C   0  0  0  0  0  2  0  0  0  0  0  0
  189.0560  173.1980  142.4320 C   0  0  0  0  0  2  0  0  0  0  0  0
  189.3080  173.1030  140.9630 C   0  0  0  0  0  0  0  0  0  0  0  0
  190.0710  172.1100  140.4960 C   0  0  0  0  0  3  0  0  0  0  0  0
  188.7600  174.0610  140.0930 O   0  0  0  0  0  0  0  0  0  0  0  0
  189.3920  171.0320  138.5070 O   0  0  0  0  0  1  0  0  0  0  0  0
  190.3180  171.9420  139.0220 C   0  0  1  0  0  3  0  0  0  0  0  0
  188.8900  173.9770  138.6720 C   0  0  0  0  0  2  0  0  0  0  0  0
  190.2100  173.2970  138.3100 C   0  0  2  0  0  3  0  0  0  0  0  0
  190.4270  173.2080  136.8020 C   0  0  0  0  0  2  0  0  0  0  0  0
  191.7770  173.3650  136.4710 O   0  0  0  0  0  1  0  0  0  0  0  0
  195.3390  173.0000  145.2990 C   0  0  0  0  0  2  0  0  0  0  0  0
  196.3840  173.4960  144.3060 C   0  0  0  0  0  2  0  0  0  0  0  0
  196.4530  172.6230  143.0570 C   0  0  0  0  0  2  0  0  0  0  0  0
  195.0380  173.8420  138.9560 C   0  0  0  0  0  2  0  0  0  0  0  0
  195.0650  174.4090  142.4390 C   0  0  0  0  0  2  0  0  0  0  0  0
  194.1940  173.1150  140.0100 C   0  0  0  0  0  2  0  0  0  0  0  0
  195.3350  170.0370  140.9980 C   0  0  0  0  0  0  0  0  0  0  0  0
  195.8440  168.9190  140.7200 O   0  0  0  0  0  0  0  0  0  0  0  0
  195.1630  175.9080  140.4070 C   0  0  0  0  0  2  0  0  0  0  0  0
  194.2190  170.2420  141.8800 C   0  0  0  0  0  0  0  0  0  0  0  0
  195.8450  173.2910  141.9040 N   0  0  0  0  0  0  0  0  0  0  0  0
  195.8020  171.2950  140.4970 N   0  0  0  0  0  0  0  0  0  0  0  0
  192.3880  169.8010  143.3610 C   0  0  0  0  0  3  0  0  0  0  0  0
  195.5640  175.7300  141.8670 C   0  0  0  0  0  2  0  0  0  0  0  0
  193.9970  171.5990  141.9650 C   0  0  0  0  0  0  0  0  0  0  0  0
  192.9530  172.0970  142.7520 C   0  0  0  0  0  3  0  0  0  0  0  0
  192.1470  171.1860  143.4540 C   0  0  0  0  0  3  0  0  0  0  0  0
  193.4370  169.3150  142.5660 C   0  0  0  0  0  3  0  0  0  0  0  0
  195.9360  174.9410  139.5210 C   0  0  0  0  0  2  0  0  0  0  0  0
  194.9870  172.3690  141.1060 C   0  0  2  0  0  0  0  0  0  0  0  0
  196.9150  170.9870  138.3690 C   0  0  0  0  0  2  0  0  0  0  0  0
  197.0370  171.5370  139.7400 C   0  0  2  0  0  3  0  0  0  0  0  0
  197.6490  170.3230  139.3670 O   0  0  0  0  0  0  0  0  0  0  0  0
  2  7  1  0  0  0  0
  3  8  1  0  0  0  0
  3  9  2  0  0  0  0
  5  2  2  0  0  0  0
  5  3  1  0  0  0  0
  6  4  1  1  0  0  0
  7  1  2  0  0  0  0
  8 10  1  6  0  0  0
  8  6  1  0  0  0  0
  9  1  1  0  0  0  0
  9  6  1  0  0  0  0
 10 28  1  1  0  0  0
 10 11  1  0  0  0  0
 11 14  1  0  0  0  0
 12 13  1  0  0  0  0
 13 11  1  0  0  0  0
 14 15  1  0  0  0  0
 15 17  1  0  0  0  0
 17 16  1  1  0  0  0
 19 17  1  0  0  0  0
 19 18  2  0  0  0  0
 20 19  1  0  0  0  0
 21 22  1  0  0  0  0
 22 20  1  0  0  0  0
 23 22  1  0  0  0  0
 24 25  2  0  0  0  0
 25 23  1  0  0  0  0
 26 24  1  0  0  0  0
 26 27  1  0  0  0  0
 27 25  1  0  0  0  0
 29 28  1  0  0  0  0
 30 29  1  0  0  0  0
 31 30  1  0  0  0  0
 32 31  2  0  0  0  0
 33 31  1  0  0  0  0
 35 34  1  6  0  0  0
 35 32  1  0  0  0  0
 36 33  1  0  0  0  0
 37 38  1  6  0  0  0
 37 36  1  0  0  0  0
 37 35  1  0  0  0  0
 39 38  1  0  0  0  0
 40  2  1  0  0  0  0
 41 40  1  0  0  0  0
 42 41  1  0  0  0  0
 43 58  1  0  0  0  0
 43 45  1  0  0  0  0
 46 49  1  0  0  0  0
 47 46  2  0  0  0  0
 48 53  1  0  0  0  0
 49 54  2  0  0  0  0
 49 57  1  0  0  0  0
 50 44  1  0  0  0  0
 50 42  1  0  0  0  0
 51 46  1  0  0  0  0
 51 59  1  0  0  0  0
 52 56  1  0  0  0  0
 53 44  1  0  0  0  0
 54 55  1  0  0  0  0
 55 56  2  0  0  0  0
 57 52  2  0  0  0  0
 58 48  1  0  0  0  0
 59 45  1  6  0  0  0
 59 50  1  0  0  0  0
 59 54  1  0  0  0  0
 60 62  1  0  0  0  0
 61 60  1  6  0  0  0
 61 51  1  0  0  0  0
 62 61  1  0  0  0  0
M  END
>  <MODEL>
5

>  <REMARK>
 VINA RESULT:      -6.0      2.484      5.374
  Name = 
  21 active torsions:
  status: ('A' for Active; 'I' for Inactive)
    1  A    between atoms: C_1  and  C_42
    2  A    between atoms: C_1  and  N_45
    3  A    between atoms: C_3  and  C_56
    4  A    between atoms: C_5  and  C_22
    5  A    between atoms: C_5  and  N_59
    6  A    between atoms: C_7  and  C_27
    7  A    between atoms: C_9  and  C_57
    8  A    between atoms: C_14  and  N_29
    9  A    between atoms: C_14  and  C_32
   10  A    between atoms: C_19  and  C_23
   11  A    between atoms: C_19  and  N_45
   12  A    between atoms: C_22  and  C_55
   13  A    between atoms: C_27  and  C_32
   14  A    between atoms: N_31  and  C_60
   15  A    between atoms: C_34  and  O_53
   16  A    between atoms: C_34  and  C_56
   17  A    between atoms: C_36  and  N_59
   18  A    between atoms: C_42  and  C_55
   19  A    between atoms: C_48  and  O_53
   20  A    between atoms: C_48  and  C_58
   21  A    between atoms: C_48  and  N_59
                            x       y       z     vdW  Elec       q    Type
                         _______ _______ _______ _____ _____    ______ ____

>  <TORSDO>
F 21

$$$$
=
 OpenBabel11062423013D

 62 69  0  0  1  0  0  0  0  0999 V2000
  195.2570  175.7440  145.3270 N   0  0  0  0  0  0  0  0  0  0  0  0
  193.0720  176.6720  144.6490 C   0  0  0  0  0  0  0  0  0  0  0  0
  194.4640  175.8180  143.0390 C   0  0  0  0  0  0  0  0  0  0  0  0
  197.5560  175.7690  142.8200 C   0  0  0  0  0  1  0  0  0  0  0  0
  193.2860  176.4040  143.3140 N   0  0  0  0  0  0  0  0  0  0  0  0
  196.3160  174.9070  142.9800 C   0  0  2  0  0  3  0  0  0  0  0  0
  194.0590  176.3440  145.6510 C   0  0  0  0  0  3  0  0  0  0  0  0
  195.3330  175.2550  141.9640 C   0  0  1  0  0  3  0  0  0  0  0  0
  195.4180  175.4950  144.0150 C   0  0  0  0  0  0  0  0  0  0  0  0
  194.6890  173.9950  141.3700 C   0  0  2  0  0  3  0  0  0  0  0  0
  194.9410  173.9050  139.9240 N   0  0  0  0  0  0  0  0  0  0  0  0
  196.5630  172.2290  140.0280 O   0  0  0  0  0  1  0  0  0  0  0  0
  196.3350  173.5560  139.6620 C   0  0  0  0  0  2  0  0  0  0  0  0
  194.7130  175.2210  139.3480 C   0  0  0  0  0  2  0  0  0  0  0  0
  194.7910  175.1420  137.8360 C   0  0  0  0  0  2  0  0  0  0  0  0
  193.2150  176.4460  136.6000 F   0  0  0  0  0  0  0  0  0  0  0  0
  193.3880  175.2340  137.2500 C   0  0  1  0  0  3  0  0  0  0  0  0
  192.1470  174.2460  135.5180 O   0  0  0  0  0  0  0  0  0  0  0  0
  193.0650  174.1050  136.3110 C   0  0  0  0  0  0  0  0  0  0  0  0
  193.8690  172.8240  136.2920 C   0  0  0  0  0  2  0  0  0  0  0  0
  194.2500  171.1210  137.7820 O   0  0  0  0  0  1  0  0  0  0  0  0
  193.2700  171.7360  137.0750 N   0  0  0  0  0  0  0  0  0  0  0  0
  192.3090  172.2730  138.0300 C   0  0  0  0  0  2  0  0  0  0  0  0
  190.8880  170.1200  137.7090 N   0  0  0  0  0  0  0  0  0  0  0  0
  191.1310  171.3670  138.1350 C   0  0  0  0  0  0  0  0  0  0  0  0
  189.6240  170.2180  138.2940 C   0  0  0  0  0  2  0  0  0  0  0  0
  189.8050  171.4970  138.7690 N   0  0  0  0  0  2  0  0  0  0  0  0
  193.3140  173.9720  141.6560 O   0  0  0  0  0  0  0  0  0  0  0  0
  193.0190  172.6370  141.9470 C   0  0  0  0  0  2  0  0  0  0  0  0
  192.8390  172.4600  143.4470 C   0  0  0  0  0  2  0  0  0  0  0  0
  193.9980  171.7410  144.0540 C   0  0  0  0  0  0  0  0  0  0  0  0
  194.4280  170.6060  143.4930 C   0  0  0  0  0  3  0  0  0  0  0  0
  194.6110  172.2490  145.2130 O   0  0  0  0  0  0  0  0  0  0  0  0
  196.7590  170.2630  143.3330 O   0  0  0  0  0  1  0  0  0  0  0  0
  195.6190  169.8680  144.0370 C   0  0  1  0  0  3  0  0  0  0  0  0
  195.7770  171.6580  145.7910 C   0  0  0  0  0  2  0  0  0  0  0  0
  195.7760  170.1520  145.5380 C   0  0  2  0  0  3  0  0  0  0  0  0
  196.9810  169.4530  146.1640 C   0  0  0  0  0  2  0  0  0  0  0  0
  196.7760  169.2040  147.5240 O   0  0  0  0  0  1  0  0  0  0  0  0
  191.7810  177.2930  145.0630 C   0  0  0  0  0  2  0  0  0  0  0  0
  191.0330  177.8840  143.8730 C   0  0  0  0  0  2  0  0  0  0  0  0
  189.5630  178.1480  144.1880 C   0  0  0  0  0  2  0  0  0  0  0  0
  187.3100  174.7210  142.3230 C   0  0  0  0  0  2  0  0  0  0  0  0
  187.8810  178.1950  142.5550 C   0  0  0  0  0  2  0  0  0  0  0  0
  186.7600  175.6700  143.3940 C   0  0  0  0  0  2  0  0  0  0  0  0
  188.4230  175.6940  146.3910 C   0  0  0  0  0  0  0  0  0  0  0  0
  189.0080  175.0780  147.3220 O   0  0  0  0  0  0  0  0  0  0  0  0
  187.4360  176.6040  140.6430 C   0  0  0  0  0  2  0  0  0  0  0  0
  187.4640  176.7480  146.5710 C   0  0  0  0  0  0  0  0  0  0  0  0
  188.6840  177.2950  143.3850 N   0  0  0  0  0  0  0  0  0  0  0  0
  188.6390  175.4590  144.9950 N   0  0  0  0  0  0  0  0  0  0  0  0
  185.9890  178.3190  147.6210 C   0  0  0  0  0  3  0  0  0  0  0  0
  188.1070  177.9020  141.0770 C   0  0  0  0  0  2  0  0  0  0  0  0
  187.0960  177.1970  145.3210 C   0  0  0  0  0  0  0  0  0  0  0  0
  186.1550  178.2230  145.1860 C   0  0  0  0  0  3  0  0  0  0  0  0
  185.6020  178.7840  146.3490 C   0  0  0  0  0  3  0  0  0  0  0  0
  186.9330  177.2870  147.7420 C   0  0  0  0  0  3  0  0  0  0  0  0
  188.1530  175.4060  141.2500 C   0  0  0  0  0  2  0  0  0  0  0  0
  187.8190  176.4240  144.2290 C   0  0  2  0  0  0  0  0  0  0  0  0
  189.4020  173.1860  144.6580 C   0  0  0  0  0  2  0  0  0  0  0  0
  189.6810  174.6180  144.3950 C   0  0  2  0  0  3  0  0  0  0  0  0
  190.3790  173.8920  145.3820 O   0  0  0  0  0  0  0  0  0  0  0  0
  1  7  1  0  0  0  0
  2 40  1  0  0  0  0
  2  7  2  0  0  0  0
  3  5  2  0  0  0  0
  3  9  1  0  0  0  0
  5  2  1  0  0  0  0
  6  4  1  6  0  0  0
  6  9  1  0  0  0  0
  8 10  1  1  0  0  0
  8  6  1  0  0  0  0
  8  3  1  0  0  0  0
  9  1  2  0  0  0  0
 10 28  1  6  0  0  0
 11 10  1  0  0  0  0
 13 11  1  0  0  0  0
 13 12  1  0  0  0  0
 14 11  1  0  0  0  0
 15 14  1  0  0  0  0
 17 16  1  6  0  0  0
 17 15  1  0  0  0  0
 18 19  2  0  0  0  0
 19 17  1  0  0  0  0
 20 19  1  0  0  0  0
 20 22  1  0  0  0  0
 22 21  1  0  0  0  0
 22 23  1  0  0  0  0
 23 25  1  0  0  0  0
 24 25  2  0  0  0  0
 24 26  1  0  0  0  0
 25 27  1  0  0  0  0
 26 27  1  0  0  0  0
 28 29  1  0  0  0  0
 29 30  1  0  0  0  0
 30 31  1  0  0  0  0
 31 33  1  0  0  0  0
 32 35  1  0  0  0  0
 32 31  2  0  0  0  0
 33 36  1  0  0  0  0
 35 34  1  6  0  0  0
 35 37  1  0  0  0  0
 37 36  1  0  0  0  0
 37 38  1  6  0  0  0
 38 39  1  0  0  0  0
 41 42  1  0  0  0  0
 41 40  1  0  0  0  0
 43 45  1  0  0  0  0
 44 50  1  0  0  0  0
 46 49  1  0  0  0  0
 46 47  2  0  0  0  0
 48 53  1  0  0  0  0
 48 58  1  0  0  0  0
 49 57  1  0  0  0  0
 50 42  1  0  0  0  0
 50 59  1  0  0  0  0
 51 46  1  0  0  0  0
 52 57  2  0  0  0  0
 53 44  1  0  0  0  0
 54 49  2  0  0  0  0
 55 54  1  0  0  0  0
 55 56  2  0  0  0  0
 56 52  1  0  0  0  0
 58 43  1  0  0  0  0
 59 45  1  6  0  0  0
 59 51  1  0  0  0  0
 59 54  1  0  0  0  0
 60 62  1  0  0  0  0
 61 60  1  6  0  0  0
 61 51  1  0  0  0  0
 61 62  1  0  0  0  0
M  END
>  <MODEL>
6

>  <REMARK>
 VINA RESULT:      -5.9      3.155      8.648
  Name = 
  21 active torsions:
  status: ('A' for Active; 'I' for Inactive)
    1  A    between atoms: C_1  and  C_42
    2  A    between atoms: C_1  and  N_45
    3  A    between atoms: C_3  and  C_56
    4  A    between atoms: C_5  and  C_22
    5  A    between atoms: C_5  and  N_59
    6  A    between atoms: C_7  and  C_27
    7  A    between atoms: C_9  and  C_57
    8  A    between atoms: C_14  and  N_29
    9  A    between atoms: C_14  and  C_32
   10  A    between atoms: C_19  and  C_23
   11  A    between atoms: C_19  and  N_45
   12  A    between atoms: C_22  and  C_55
   13  A    between atoms: C_27  and  C_32
   14  A    between atoms: N_31  and  C_60
   15  A    between atoms: C_34  and  O_53
   16  A    between atoms: C_34  and  C_56
   17  A    between atoms: C_36  and  N_59
   18  A    between atoms: C_42  and  C_55
   19  A    between atoms: C_48  and  O_53
   20  A    between atoms: C_48  and  C_58
   21  A    between atoms: C_48  and  N_59
                            x       y       z     vdW  Elec       q    Type
                         _______ _______ _______ _____ _____    ______ ____

>  <TORSDO>
F 21

$$$$
=
 OpenBabel11062423013D

 62 69  0  0  1  0  0  0  0  0999 V2000
  194.0180  176.4670  145.5690 N   0  0  0  0  0  0  0  0  0  0  0  0
  192.5230  176.5620  143.6060 C   0  0  0  0  0  0  0  0  0  0  0  0
  193.9270  174.7640  143.8470 C   0  0  0  0  0  0  0  0  0  0  0  0
  196.7710  174.5330  145.0600 C   0  0  0  0  0  1  0  0  0  0  0  0
  192.9800  175.3620  143.1040 N   0  0  0  0  0  0  0  0  0  0  0  0
  195.3200  174.1170  145.2270 C   0  0  2  0  0  3  0  0  0  0  0  0
  193.0460  177.1120  144.8360 C   0  0  0  0  0  3  0  0  0  0  0  0
  194.8110  173.5690  143.9780 C   0  0  1  0  0  3  0  0  0  0  0  0
  194.4270  175.2980  145.0440 C   0  0  0  0  0  0  0  0  0  0  0  0
  193.9680  172.3130  144.2330 C   0  0  2  0  0  3  0  0  0  0  0  0
  194.7070  171.0970  143.8630 N   0  0  0  0  0  0  0  0  0  0  0  0
  195.6030  169.1070  144.6930 O   0  0  0  0  0  1  0  0  0  0  0  0
  195.1460  170.3750  145.0540 C   0  0  0  0  0  2  0  0  0  0  0  0
  195.9030  171.5030  143.1430 C   0  0  0  0  0  2  0  0  0  0  0  0
  195.6890  171.3320  141.6510 C   0  0  0  0  0  2  0  0  0  0  0  0
  197.3860  172.7100  140.6860 F   0  0  0  0  0  0  0  0  0  0  0  0
  196.0250  172.6340  140.9360 C   0  0  1  0  0  3  0  0  0  0  0  0
  195.2840  171.9180  138.8260 O   0  0  0  0  0  0  0  0  0  0  0  0
  195.2630  172.8160  139.6530 C   0  0  0  0  0  0  0  0  0  0  0  0
  194.4400  174.0550  139.3790 C   0  0  0  0  0  2  0  0  0  0  0  0
  195.6570  175.8900  140.0240 O   0  0  0  0  0  1  0  0  0  0  0  0
  195.2330  175.2080  138.9330 N   0  0  0  0  0  0  0  0  0  0  0  0
  196.4150  174.7560  138.2090 C   0  0  0  0  0  2  0  0  0  0  0  0
  195.6680  174.8070  135.7200 N   0  0  0  0  0  0  0  0  0  0  0  0
  196.3570  175.2170  136.7940 C   0  0  0  0  0  0  0  0  0  0  0  0
  196.2830  175.8300  134.9950 C   0  0  0  0  0  2  0  0  0  0  0  0
  197.0160  176.3110  136.0560 N   0  0  0  0  0  2  0  0  0  0  0  0
  192.7460  172.4020  143.5480 O   0  0  0  0  0  0  0  0  0  0  0  0
  192.3690  171.0800  143.2880 C   0  0  0  0  0  2  0  0  0  0  0  0
  190.9010  171.0280  142.8930 C   0  0  0  0  0  2  0  0  0  0  0  0
  190.7210  171.2820  141.4330 C   0  0  0  0  0  0  0  0  0  0  0  0
  189.7640  172.1250  141.0300 C   0  0  0  0  0  3  0  0  0  0  0  0
  191.5400  170.6240  140.4990 O   0  0  0  0  0  0  0  0  0  0  0  0
  190.2710  173.6210  139.2750 O   0  0  0  0  0  1  0  0  0  0  0  0
  189.5710  172.4500  139.5750 C   0  0  1  0  0  3  0  0  0  0  0  0
  191.4780  170.8890  139.0960 C   0  0  0  0  0  2  0  0  0  0  0  0
  190.0550  171.2830  138.7040 C   0  0  2  0  0  3  0  0  0  0  0  0
  189.9130  171.5450  137.2070 C   0  0  0  0  0  2  0  0  0  0  0  0
  191.1500  171.4840  136.5580 O   0  0  0  0  0  1  0  0  0  0  0  0
  191.4490  177.2900  142.8720 C   0  0  0  0  0  2  0  0  0  0  0  0
  190.9480  178.4960  143.6580 C   0  0  0  0  0  2  0  0  0  0  0  0
  189.6100  178.2260  144.3390 C   0  0  0  0  0  2  0  0  0  0  0  0
  187.3880  174.8410  142.3640 C   0  0  0  0  0  2  0  0  0  0  0  0
  187.9550  178.3090  142.6800 C   0  0  0  0  0  2  0  0  0  0  0  0
  186.8200  175.7680  143.4460 C   0  0  0  0  0  2  0  0  0  0  0  0
  188.4320  175.7270  146.4700 C   0  0  0  0  0  0  0  0  0  0  0  0
  189.0000  175.0920  147.3980 O   0  0  0  0  0  0  0  0  0  0  0  0
  187.5430  176.7590  140.7270 C   0  0  0  0  0  2  0  0  0  0  0  0
  187.4700  176.7780  146.6560 C   0  0  0  0  0  0  0  0  0  0  0  0
  188.7440  177.3910  143.5030 N   0  0  0  0  0  0  0  0  0  0  0  0
  188.6710  175.5220  145.0740 N   0  0  0  0  0  0  0  0  0  0  0  0
  185.9780  178.3270  147.7140 C   0  0  0  0  0  3  0  0  0  0  0  0
  188.2060  178.0470  141.2000 C   0  0  0  0  0  2  0  0  0  0  0  0
  187.1230  177.2540  145.4110 C   0  0  0  0  0  0  0  0  0  0  0  0
  186.1850  178.2820  145.2810 C   0  0  0  0  0  3  0  0  0  0  0  0
  185.6120  178.8200  146.4460 C   0  0  0  0  0  3  0  0  0  0  0  0
  186.9190  177.2930  147.8290 C   0  0  0  0  0  3  0  0  0  0  0  0
  188.2490  175.5480  141.3200 C   0  0  0  0  0  2  0  0  0  0  0  0
  187.8640  176.5030  144.3150 C   0  0  2  0  0  0  0  0  0  0  0  0
  189.6300  173.3010  144.9740 C   0  0  0  0  0  2  0  0  0  0  0  0
  189.7230  174.6930  144.4740 C   0  0  2  0  0  3  0  0  0  0  0  0
  190.6000  174.1950  145.4590 O   0  0  0  0  0  0  0  0  0  0  0  0
  2  7  1  0  0  0  0
  3  8  1  0  0  0  0
  3  9  2  0  0  0  0
  5  2  2  0  0  0  0
  5  3  1  0  0  0  0
  6  4  1  6  0  0  0
  7  1  2  0  0  0  0
  8 10  1  1  0  0  0
  8  6  1  0  0  0  0
  9  6  1  0  0  0  0
  9  1  1  0  0  0  0
 10 28  1  6  0  0  0
 11 10  1  0  0  0  0
 11 13  1  0  0  0  0
 12 13  1  0  0  0  0
 14 11  1  0  0  0  0
 15 14  1  0  0  0  0
 17 16  1  6  0  0  0
 17 15  1  0  0  0  0
 18 19  2  0  0  0  0
 19 17  1  0  0  0  0
 20 19  1  0  0  0  0
 22 20  1  0  0  0  0
 22 21  1  0  0  0  0
 23 22  1  0  0  0  0
 24 25  2  0  0  0  0
 25 23  1  0  0  0  0
 26 24  1  0  0  0  0
 26 27  1  0  0  0  0
 27 25  1  0  0  0  0
 29 28  1  0  0  0  0
 30 29  1  0  0  0  0
 31 30  1  0  0  0  0
 32 31  2  0  0  0  0
 33 31  1  0  0  0  0
 35 34  1  6  0  0  0
 35 32  1  0  0  0  0
 36 33  1  0  0  0  0
 37 38  1  6  0  0  0
 37 36  1  0  0  0  0
 37 35  1  0  0  0  0
 39 38  1  0  0  0  0
 40  2  1  0  0  0  0
 40 41  1  0  0  0  0
 41 42  1  0  0  0  0
 43 45  1  0  0  0  0
 44 50  1  0  0  0  0
 46 49  1  0  0  0  0
 46 47  2  0  0  0  0
 48 53  1  0  0  0  0
 48 58  1  0  0  0  0
 49 57  1  0  0  0  0
 50 59  1  0  0  0  0
 50 42  1  0  0  0  0
 51 46  1  0  0  0  0
 52 57  2  0  0  0  0
 53 44  1  0  0  0  0
 54 49  2  0  0  0  0
 55 54  1  0  0  0  0
 55 56  2  0  0  0  0
 56 52  1  0  0  0  0
 58 43  1  0  0  0  0
 59 45  1  6  0  0  0
 59 51  1  0  0  0  0
 59 54  1  0  0  0  0
 60 62  1  0  0  0  0
 61 60  1  1  0  0  0
 61 51  1  0  0  0  0
 61 62  1  0  0  0  0
M  END
>  <MODEL>
7

>  <REMARK>
 VINA RESULT:      -5.8      3.242      9.062
  Name = 
  21 active torsions:
  status: ('A' for Active; 'I' for Inactive)
    1  A    between atoms: C_1  and  C_42
    2  A    between atoms: C_1  and  N_45
    3  A    between atoms: C_3  and  C_56
    4  A    between atoms: C_5  and  C_22
    5  A    between atoms: C_5  and  N_59
    6  A    between atoms: C_7  and  C_27
    7  A    between atoms: C_9  and  C_57
    8  A    between atoms: C_14  and  N_29
    9  A    between atoms: C_14  and  C_32
   10  A    between atoms: C_19  and  C_23
   11  A    between atoms: C_19  and  N_45
   12  A    between atoms: C_22  and  C_55
   13  A    between atoms: C_27  and  C_32
   14  A    between atoms: N_31  and  C_60
   15  A    between atoms: C_34  and  O_53
   16  A    between atoms: C_34  and  C_56
   17  A    between atoms: C_36  and  N_59
   18  A    between atoms: C_42  and  C_55
   19  A    between atoms: C_48  and  O_53
   20  A    between atoms: C_48  and  C_58
   21  A    between atoms: C_48  and  N_59
                            x       y       z     vdW  Elec       q    Type
                         _______ _______ _______ _____ _____    ______ ____

>  <TORSDO>
F 21

$$$$
=
 OpenBabel11062423013D

 62 69  0  0  1  0  0  0  0  0999 V2000
  188.3830  175.0290  142.4570 N   0  0  0  0  0  0  0  0  0  0  0  0
  189.6370  172.9040  142.5610 C   0  0  0  0  0  0  0  0  0  0  0  0
  190.5370  174.7730  143.5370 C   0  0  0  0  0  0  0  0  0  0  0  0
  190.3730  177.7710  142.7620 C   0  0  0  0  0  1  0  0  0  0  0  0
  190.6810  173.4650  143.2630 N   0  0  0  0  0  0  0  0  0  0  0  0
  189.9830  176.7430  143.8100 C   0  0  2  0  0  3  0  0  0  0  0  0
  188.4920  173.6880  142.1570 C   0  0  0  0  0  3  0  0  0  0  0  0
  191.1480  175.9630  144.2010 C   0  0  1  0  0  3  0  0  0  0  0  0
  189.4210  175.5300  143.1490 C   0  0  0  0  0  0  0  0  0  0  0  0
  191.1860  175.7580  145.7200 C   0  0  2  0  0  3  0  0  0  0  0  0
  190.3170  176.7260  146.4060 N   0  0  0  0  0  0  0  0  0  0  0  0
  191.1850  176.3120  148.5330 O   0  0  0  0  0  1  0  0  0  0  0  0
  190.9940  177.2990  147.5660 C   0  0  0  0  0  2  0  0  0  0  0  0
  189.1530  176.0090  146.9000 C   0  0  0  0  0  2  0  0  0  0  0  0
  187.8940  176.5760  146.2730 C   0  0  0  0  0  2  0  0  0  0  0  0
  187.7040  178.4090  147.7960 F   0  0  0  0  0  0  0  0  0  0  0  0
  187.0600  177.2680  147.3440 C   0  0  1  0  0  3  0  0  0  0  0  0
  184.9790  178.3280  147.5880 O   0  0  0  0  0  0  0  0  0  0  0  0
  185.6750  177.6210  146.8770 C   0  0  0  0  0  0  0  0  0  0  0  0
  185.1400  177.1630  145.5380 C   0  0  0  0  0  2  0  0  0  0  0  0
  183.8110  179.0330  145.6020 O   0  0  0  0  0  1  0  0  0  0  0  0
  184.5050  178.2320  144.7560 N   0  0  0  0  0  0  0  0  0  0  0  0
  185.5200  179.0520  144.1060 C   0  0  0  0  0  2  0  0  0  0  0  0
  184.9300  178.2470  141.7060 N   0  0  0  0  0  0  0  0  0  0  0  0
  185.7500  178.5740  142.7140 C   0  0  0  0  0  0  0  0  0  0  0  0
  186.0630  177.9800  140.9350 C   0  0  0  0  0  2  0  0  0  0  0  0
  186.9650  178.3080  141.9220 N   0  0  0  0  0  2  0  0  0  0  0  0
  192.5090  175.8320  146.1870 O   0  0  0  0  0  0  0  0  0  0  0  0
  193.2420  176.3870  145.1340 C   0  0  0  0  0  2  0  0  0  0  0  0
  194.7270  176.3570  145.4640 C   0  0  0  0  0  2  0  0  0  0  0  0
  195.3110  175.0050  145.2250 C   0  0  0  0  0  0  0  0  0  0  0  0
  195.0090  174.3530  144.0970 C   0  0  0  0  0  3  0  0  0  0  0  0
  196.1530  174.4230  146.1890 O   0  0  0  0  0  0  0  0  0  0  0  0
  196.7400  173.1870  142.9920 O   0  0  0  0  0  1  0  0  0  0  0  0
  195.6060  173.0080  143.7880 C   0  0  1  0  0  3  0  0  0  0  0  0
  196.8130  173.1720  145.9830 C   0  0  0  0  0  2  0  0  0  0  0  0
  195.9600  172.2750  145.0890 C   0  0  2  0  0  3  0  0  0  0  0  0
  196.5930  170.9050  144.8590 C   0  0  0  0  0  2  0  0  0  0  0  0
  195.6520  169.9780  144.4020 O   0  0  0  0  0  1  0  0  0  0  0  0
  189.6850  171.4500  142.2340 C   0  0  0  0  0  2  0  0  0  0  0  0
  190.8850  171.1090  141.3580 C   0  0  0  0  0  2  0  0  0  0  0  0
  190.8160  171.7870  139.9930 C   0  0  0  0  0  2  0  0  0  0  0  0
  195.0260  172.4370  138.5250 C   0  0  0  0  0  2  0  0  0  0  0  0
  192.0200  173.7890  139.7870 C   0  0  0  0  0  2  0  0  0  0  0  0
  193.7490  172.7340  137.7300 C   0  0  0  0  0  2  0  0  0  0  0  0
  191.7050  170.0570  137.0960 C   0  0  0  0  0  0  0  0  0  0  0  0
  191.5540  168.8490  136.7720 O   0  0  0  0  0  0  0  0  0  0  0  0
  194.4710  174.2510  140.1940 C   0  0  0  0  0  2  0  0  0  0  0  0
  190.9310  171.1540  136.5830 C   0  0  0  0  0  0  0  0  0  0  0  0
  192.1160  172.3390  139.6050 N   0  0  0  0  0  0  0  0  0  0  0  0
  192.6590  170.5330  138.0520 N   0  0  0  0  0  0  0  0  0  0  0  0
  189.3370  172.4020  135.3000 C   0  0  0  0  0  3  0  0  0  0  0  0
  193.0660  174.2710  140.7850 C   0  0  0  0  0  2  0  0  0  0  0  0
  191.3600  172.3000  137.2150 C   0  0  0  0  0  0  0  0  0  0  0  0
  190.7890  173.5380  136.9020 C   0  0  0  0  0  3  0  0  0  0  0  0
  189.7690  173.5820  135.9370 C   0  0  0  0  0  3  0  0  0  0  0  0
  189.9210  171.1670  135.6230 C   0  0  0  0  0  3  0  0  0  0  0  0
  194.9480  172.8190  140.0020 C   0  0  0  0  0  2  0  0  0  0  0  0
  192.4780  171.9950  138.2010 C   0  0  2  0  0  0  0  0  0  0  0  0
  194.3990  168.8530  138.1600 C   0  0  0  0  0  2  0  0  0  0  0  0
  193.4890  169.7190  138.9480 C   0  0  2  0  0  3  0  0  0  0  0  0
  193.2360  168.3440  138.7630 O   0  0  0  0  0  0  0  0  0  0  0  0
  1  9  1  0  0  0  0
  2  5  2  0  0  0  0
  3  8  1  0  0  0  0
  5  3  1  0  0  0  0
  6  4  1  6  0  0  0
  6  8  1  0  0  0  0
  7  1  2  0  0  0  0
  7  2  1  0  0  0  0
  8 10  1  1  0  0  0
  9  3  2  0  0  0  0
  9  6  1  0  0  0  0
 10 28  1  1  0  0  0
 10 11  1  0  0  0  0
 11 14  1  0  0  0  0
 11 13  1  0  0  0  0
 13 12  1  0  0  0  0
 15 14  1  0  0  0  0
 15 17  1  0  0  0  0
 17 16  1  6  0  0  0
 19 17  1  0  0  0  0
 19 18  2  0  0  0  0
 20 19  1  0  0  0  0
 22 20  1  0  0  0  0
 22 21  1  0  0  0  0
 23 22  1  0  0  0  0
 24 25  2  0  0  0  0
 25 23  1  0  0  0  0
 26 24  1  0  0  0  0
 26 27  1  0  0  0  0
 27 25  1  0  0  0  0
 29 30  1  0  0  0  0
 29 28  1  0  0  0  0
 31 30  1  0  0  0  0
 31 33  1  0  0  0  0
 32 31  2  0  0  0  0
 35 34  1  6  0  0  0
 35 32  1  0  0  0  0
 35 37  1  0  0  0  0
 36 33  1  0  0  0  0
 37 38  1  6  0  0  0
 37 36  1  0  0  0  0
 39 38  1  0  0  0  0
 40  2  1  0  0  0  0
 41 40  1  0  0  0  0
 42 41  1  0  0  0  0
 43 58  1  0  0  0  0
 44 53  1  0  0  0  0
 45 43  1  0  0  0  0
 46 51  1  0  0  0  0
 47 46  2  0  0  0  0
 48 53  1  0  0  0  0
 49 46  1  0  0  0  0
 49 54  1  0  0  0  0
 50 44  1  0  0  0  0
 50 42  1  0  0  0  0
 51 59  1  0  0  0  0
 52 57  1  0  0  0  0
 52 56  2  0  0  0  0
 54 59  1  0  0  0  0
 55 54  2  0  0  0  0
 56 55  1  0  0  0  0
 57 49  2  0  0  0  0
 58 48  1  0  0  0  0
 59 45  1  6  0  0  0
 59 50  1  0  0  0  0
 60 62  1  0  0  0  0
 60 61  1  0  0  0  0
 61 51  1  6  0  0  0
 62 61  1  0  0  0  0
M  END
>  <MODEL>
8

>  <REMARK>
 VINA RESULT:      -5.8      2.003      3.580
  Name = 
  21 active torsions:
  status: ('A' for Active; 'I' for Inactive)
    1  A    between atoms: C_1  and  C_42
    2  A    between atoms: C_1  and  N_45
    3  A    between atoms: C_3  and  C_56
    4  A    between atoms: C_5  and  C_22
    5  A    between atoms: C_5  and  N_59
    6  A    between atoms: C_7  and  C_27
    7  A    between atoms: C_9  and  C_57
    8  A    between atoms: C_14  and  N_29
    9  A    between atoms: C_14  and  C_32
   10  A    between atoms: C_19  and  C_23
   11  A    between atoms: C_19  and  N_45
   12  A    between atoms: C_22  and  C_55
   13  A    between atoms: C_27  and  C_32
   14  A    between atoms: N_31  and  C_60
   15  A    between atoms: C_34  and  O_53
   16  A    between atoms: C_34  and  C_56
   17  A    between atoms: C_36  and  N_59
   18  A    between atoms: C_42  and  C_55
   19  A    between atoms: C_48  and  O_53
   20  A    between atoms: C_48  and  C_58
   21  A    between atoms: C_48  and  N_59
                            x       y       z     vdW  Elec       q    Type
                         _______ _______ _______ _____ _____    ______ ____

>  <TORSDO>
F 21

$$$$
=
 OpenBabel11062423013D

 62 69  0  0  1  0  0  0  0  0999 V2000
  195.2990  176.4610  144.7040 N   0  0  0  0  0  0  0  0  0  0  0  0
  192.9620  177.1030  144.2340 C   0  0  0  0  0  0  0  0  0  0  0  0
  194.1710  176.0380  142.6020 C   0  0  0  0  0  0  0  0  0  0  0  0
  197.1880  176.1360  141.8930 C   0  0  0  0  0  1  0  0  0  0  0  0
  192.9980  176.5930  142.9540 N   0  0  0  0  0  0  0  0  0  0  0  0
  196.0690  175.2480  142.4090 C   0  0  2  0  0  3  0  0  0  0  0  0
  194.1130  177.0380  145.1040 C   0  0  0  0  0  3  0  0  0  0  0  0
  194.9180  175.3300  141.5210 C   0  0  1  0  0  3  0  0  0  0  0  0
  195.2850  175.9710  143.4520 C   0  0  0  0  0  0  0  0  0  0  0  0
  194.3110  173.9420  141.2810 C   0  0  2  0  0  3  0  0  0  0  0  0
  194.1090  173.6950  139.8450 N   0  0  0  0  0  0  0  0  0  0  0  0
  195.7100  174.4440  138.3200 O   0  0  0  0  0  1  0  0  0  0  0  0
  194.5850  174.8250  139.0530 C   0  0  0  0  0  2  0  0  0  0  0  0
  192.6780  173.5780  139.6100 C   0  0  0  0  0  2  0  0  0  0  0  0
  192.3900  173.6970  138.1260 C   0  0  0  0  0  2  0  0  0  0  0  0
  190.5280  174.4190  136.8130 F   0  0  0  0  0  0  0  0  0  0  0  0
  190.8860  173.6290  137.8930 C   0  0  1  0  0  3  0  0  0  0  0  0
  190.5540  171.7000  136.5950 O   0  0  0  0  0  0  0  0  0  0  0  0
  190.3850  172.2270  137.6830 C   0  0  0  0  0  0  0  0  0  0  0  0
  189.7210  171.4390  138.7910 C   0  0  0  0  0  2  0  0  0  0  0  0
  189.6220  172.1850  140.9590 O   0  0  0  0  0  1  0  0  0  0  0  0
  190.4180  171.5270  140.0810 N   0  0  0  0  0  0  0  0  0  0  0  0
  190.6570  170.1930  140.6160 C   0  0  0  0  0  2  0  0  0  0  0  0
  192.9570  169.1170  141.1710 N   0  0  0  0  0  0  0  0  0  0  0  0
  192.0850  169.8140  140.4290 C   0  0  0  0  0  0  0  0  0  0  0  0
  193.9040  169.3240  140.1650 C   0  0  0  0  0  2  0  0  0  0  0  0
  193.0610  170.0410  139.3460 N   0  0  0  0  0  2  0  0  0  0  0  0
  193.1130  173.8050  142.0020 O   0  0  0  0  0  0  0  0  0  0  0  0
  193.2510  172.6190  142.7290 C   0  0  0  0  0  2  0  0  0  0  0  0
  194.6520  172.0550  142.5400 C   0  0  0  0  0  2  0  0  0  0  0  0
  194.9640  171.0160  143.5650 C   0  0  0  0  0  0  0  0  0  0  0  0
  194.0630  170.7450  144.5150 C   0  0  0  0  0  3  0  0  0  0  0  0
  196.2010  170.3490  143.5360 O   0  0  0  0  0  0  0  0  0  0  0  0
  193.7230  168.4850  145.1090 O   0  0  0  0  0  1  0  0  0  0  0  0
  194.3080  169.6760  145.5430 C   0  0  1  0  0  3  0  0  0  0  0  0
  196.5250  169.2840  144.4320 C   0  0  0  0  0  2  0  0  0  0  0  0
  195.8160  169.4960  145.7690 C   0  0  2  0  0  3  0  0  0  0  0  0
  196.1510  168.4090  146.7870 C   0  0  0  0  0  2  0  0  0  0  0  0
  196.9830  168.8970  147.7990 O   0  0  0  0  0  1  0  0  0  0  0  0
  191.6960  177.7120  144.7320 C   0  0  0  0  0  2  0  0  0  0  0  0
  190.8350  178.2380  143.5900 C   0  0  0  0  0  2  0  0  0  0  0  0
  189.3600  178.3240  143.9690 C   0  0  0  0  0  2  0  0  0  0  0  0
  187.4240  174.7150  142.0920 C   0  0  0  0  0  2  0  0  0  0  0  0
  187.6210  178.2250  142.4000 C   0  0  0  0  0  2  0  0  0  0  0  0
  186.8160  175.5730  143.2070 C   0  0  0  0  0  2  0  0  0  0  0  0
  188.5800  175.7080  146.1430 C   0  0  0  0  0  0  0  0  0  0  0  0
  189.2640  175.1390  147.0350 O   0  0  0  0  0  0  0  0  0  0  0  0
  187.2790  176.6400  140.4610 C   0  0  0  0  0  2  0  0  0  0  0  0
  187.5190  176.6460  146.3860 C   0  0  0  0  0  0  0  0  0  0  0  0
  188.5490  177.3990  143.1750 N   0  0  0  0  0  0  0  0  0  0  0  0
  188.7660  175.5320  144.7340 N   0  0  0  0  0  0  0  0  0  0  0  0
  185.9230  178.0200  147.5310 C   0  0  0  0  0  3  0  0  0  0  0  0
  187.8200  177.9940  140.9070 C   0  0  0  0  0  2  0  0  0  0  0  0
  187.0570  177.0820  145.1640 C   0  0  0  0  0  0  0  0  0  0  0  0
  186.0050  178.0000  145.0900 C   0  0  0  0  0  3  0  0  0  0  0  0
  185.4390  178.4700  146.2870 C   0  0  0  0  0  3  0  0  0  0  0  0
  186.9780  177.0960  147.5900 C   0  0  0  0  0  3  0  0  0  0  0  0
  188.1460  175.5150  141.0090 C   0  0  0  0  0  2  0  0  0  0  0  0
  187.8170  176.4180  144.0250 C   0  0  2  0  0  0  0  0  0  0  0  0
  189.8690  173.3940  144.4600 C   0  0  0  0  0  2  0  0  0  0  0  0
  189.8710  174.8250  144.0740 C   0  0  2  0  0  3  0  0  0  0  0  0
  190.7790  174.3070  145.0200 O   0  0  0  0  0  0  0  0  0  0  0  0
  1  7  1  0  0  0  0
  2 40  1  0  0  0  0
  2  7  2  0  0  0  0
  3  5  2  0  0  0  0
  3  9  1  0  0  0  0
  5  2  1  0  0  0  0
  6  4  1  6  0  0  0
  6  9  1  0  0  0  0
  8 10  1  1  0  0  0
  8  6  1  0  0  0  0
  8  3  1  0  0  0  0
  9  1  2  0  0  0  0
 10 28  1  1  0  0  0
 11 10  1  0  0  0  0
 12 13  1  0  0  0  0
 13 11  1  0  0  0  0
 14 11  1  0  0  0  0
 15 14  1  0  0  0  0
 17 16  1  6  0  0  0
 17 15  1  0  0  0  0
 18 19  2  0  0  0  0
 19 17  1  0  0  0  0
 19 20  1  0  0  0  0
 20 22  1  0  0  0  0
 22 23  1  0  0  0  0
 22 21  1  0  0  0  0
 25 23  1  0  0  0  0
 25 24  2  0  0  0  0
 26 24  1  0  0  0  0
 27 26  1  0  0  0  0
 27 25  1  0  0  0  0
 28 29  1  0  0  0  0
 30 29  1  0  0  0  0
 30 31  1  0  0  0  0
 31 32  2  0  0  0  0
 32 35  1  0  0  0  0
 33 31  1  0  0  0  0
 33 36  1  0  0  0  0
 35 34  1  6  0  0  0
 35 37  1  0  0  0  0
 36 37  1  0  0  0  0
 37 38  1  1  0  0  0
 38 39  1  0  0  0  0
 41 42  1  0  0  0  0
 41 40  1  0  0  0  0
 43 45  1  0  0  0  0
 44 50  1  0  0  0  0
 46 49  1  0  0  0  0
 46 47  2  0  0  0  0
 48 53  1  0  0  0  0
 48 58  1  0  0  0  0
 49 57  1  0  0  0  0
 50 42  1  0  0  0  0
 50 59  1  0  0  0  0
 51 46  1  0  0  0  0
 52 57  2  0  0  0  0
 53 44  1  0  0  0  0
 54 49  2  0  0  0  0
 55 54  1  0  0  0  0
 55 56  2  0  0  0  0
 56 52  1  0  0  0  0
 58 43  1  0  0  0  0
 59 45  1  6  0  0  0
 59 51  1  0  0  0  0
 59 54  1  0  0  0  0
 60 62  1  0  0  0  0
 61 60  1  1  0  0  0
 61 51  1  0  0  0  0
 61 62  1  0  0  0  0
M  END
>  <MODEL>
9

>  <REMARK>
 VINA RESULT:      -5.8      3.071      8.468
  Name = 
  21 active torsions:
  status: ('A' for Active; 'I' for Inactive)
    1  A    between atoms: C_1  and  C_42
    2  A    between atoms: C_1  and  N_45
    3  A    between atoms: C_3  and  C_56
    4  A    between atoms: C_5  and  C_22
    5  A    between atoms: C_5  and  N_59
    6  A    between atoms: C_7  and  C_27
    7  A    between atoms: C_9  and  C_57
    8  A    between atoms: C_14  and  N_29
    9  A    between atoms: C_14  and  C_32
   10  A    between atoms: C_19  and  C_23
   11  A    between atoms: C_19  and  N_45
   12  A    between atoms: C_22  and  C_55
   13  A    between atoms: C_27  and  C_32
   14  A    between atoms: N_31  and  C_60
   15  A    between atoms: C_34  and  O_53
   16  A    between atoms: C_34  and  C_56
   17  A    between atoms: C_36  and  N_59
   18  A    between atoms: C_42  and  C_55
   19  A    between atoms: C_48  and  O_53
   20  A    between atoms: C_48  and  C_58
   21  A    between atoms: C_48  and  N_59
                            x       y       z     vdW  Elec       q    Type
                         _______ _______ _______ _____ _____    ______ ____

>  <TORSDO>
F 21

$$$$
