=
 OpenBabel11072409433D

 70 77  0  0  1  0  0  0  0  0999 V2000
  196.2080  172.0180  142.2540 C   0  0  1  0  0  0  0  0  0  0  0  0
  192.1350  168.6160  138.2530 C   0  0  0  0  0  2  0  0  0  0  0  0
  193.4700  172.7300  139.4400 C   0  0  0  0  0  2  0  0  0  0  0  0
  195.9740  169.6460  140.7910 C   0  0  0  0  0  2  0  0  0  0  0  0
  195.2190  172.1860  144.4140 C   0  0  0  0  0  2  0  0  0  0  0  0
  192.9400  175.5220  146.7920 C   0  0  0  0  0  2  0  0  0  0  0  0
  192.4810  171.5810  139.5460 C   0  0  2  0  0  3  0  0  0  0  0  0
  191.5630  174.9360  144.7160 C   0  0  1  0  0  3  0  0  0  0  0  0
  192.2600  171.1690  138.2200 O   0  0  0  0  0  0  0  0  0  0  0  0
  194.5460  169.4430  140.6110 C   0  0  1  0  0  3  0  0  0  0  0  0
  191.6910  174.2720  143.2290 C   0  0  0  0  0  2  0  0  0  0  0  0
  197.2250  172.7910  141.4490 C   0  0  0  0  0  1  0  0  0  0  0  0
  190.6020  173.3460  139.9590 C   0  0  0  0  0  2  0  0  0  0  0  0
  190.5740  170.1290  136.8500 C   0  0  0  0  0  1  0  0  0  0  0  0
  192.8430  175.0960  145.4730 C   0  0  2  0  0  3  0  0  0  0  0  0
  189.1860  172.5010  142.1780 O   0  0  0  0  0  0  0  0  0  0  0  0
  193.6580  168.6210  138.1960 C   0  0  2  0  0  3  0  0  0  0  0  0
  194.7150  173.4480  144.7140 C   0  0  0  0  0  0  0  0  0  0  0  0
  196.4890  172.4000  143.7150 C   0  0  1  0  0  3  0  0  0  0  0  0
  191.1290  177.4120  144.6390 C   0  0  0  0  0  1  0  0  0  0  0  0
  197.5740  170.0190  142.4550 F   0  0  0  0  0  0  0  0  0  0  0  0
  191.4190  170.0450  138.1100 C   0  0  1  0  0  3  0  0  0  0  0  0
  189.8120  175.5750  143.3690 C   0  0  2  0  0  3  0  0  0  0  0  0
  190.6610  176.1030  144.5540 C   0  0  1  0  0  3  0  0  0  0  0  0
  188.5320  174.4270  140.8190 O   0  0  0  0  0  0  0  0  0  0  0  0
  194.0040  174.3900  145.0420 C   0  0  0  0  0  0  0  0  0  0  0  0
  193.7220  171.9100  142.1640 O   0  0  0  0  0  1  0  0  0  0  0  0
  194.7960  172.6200  141.6350 C   0  0  2  0  0  3  0  0  0  0  0  0
  194.3420  169.6530  139.0500 C   0  0  0  0  0  2  0  0  0  0  0  0
  191.2590  172.0470  140.3170 C   0  0  0  0  0  2  0  0  0  0  0  0
  189.6940  173.7160  141.4470 S   0  0  0  0  0  0  0  0  0  0  0  0
  190.6750  174.9210  142.3500 N   0  0  2  0  0  0  0  0  0  0  0  0
  194.8130  172.5010  140.1020 C   0  0  0  0  0  2  0  0  0  0  0  0
  196.3100  170.4630  142.1080 C   0  0  1  0  0  3  0  0  0  0  0  0
  197.8600  172.2060  145.5900 F   0  0  0  0  0  0  0  0  0  0  0  0
  197.3080  170.2320  144.4740 F   0  0  0  0  0  0  0  0  0  0  0  0
  197.5820  171.6100  144.3740 C   0  0  0  0  0  3  0  0  0  0  0  0
  194.1840  168.6880  136.7980 C   0  0  0  0  0  0  0  0  0  0  0  0
  193.6040  168.1920  135.7620 N   0  0  0  0  0  0  0  0  0  0  0  0
  194.2660  168.1680  134.5150 O   0  0  0  0  0  1  0  0  0  0  0  0
  195.5600  169.4090  136.7470 C   0  0  1  0  0  3  0  0  0  0  0  0
  197.7620  169.5640  138.0260 C   0  0  0  0  0  2  0  0  0  0  0  0
  197.0960  170.9610  137.6730 C   0  0  2  0  0  3  0  0  0  0  0  0
  195.5940  170.7960  137.2990 C   0  0  0  0  0  2  0  0  0  0  0  0
  196.5760  168.6630  137.6080 C   0  0  0  0  0  2  0  0  0  0  0  0
  197.9210  172.1870  137.1470 C   0  0  1  0  0  3  0  0  0  0  0  0
  197.3370  172.9450  136.0170 C   0  0  0  0  0  1  0  0  0  0  0  0
  197.9410  173.3080  138.0810 O   0  0  0  0  0  1  0  0  0  0  0  0
  190.9540  175.1380  148.0800 O   0  0  0  0  0  0  0  0  0  0  0  0
  191.9740  175.9090  147.8110 C   0  0  0  0  0  0  0  0  0  0  0  0
  192.0610  177.1130  148.4850 O   0  0  0  0  0  0  0  0  0  0  0  0
  191.0910  178.4240  150.1960 C   0  0  0  0  0  1  0  0  0  0  0  0
  190.8240  177.8140  148.8570 C   0  0  0  0  0  2  0  0  0  0  0  0
  192.7690  168.7990  141.7310 C   0  0  0  0  0  1  0  0  0  0  0  0
  193.9840  168.2600  141.0800 O   0  0  0  0  0  0  0  0  0  0  0  0
  188.8860  176.6580  142.9240 C   0  0  0  0  0  2  0  0  0  0  0  0
  185.1110  176.1670  144.8390 O   0  0  0  0  0  1  0  0  0  0  0  0
  187.6200  177.0430  143.8050 C   0  0  2  0  0  3  0  0  0  0  0  0
  183.9610  178.9760  143.2870 O   0  0  0  0  0  1  0  0  0  0  0  0
  186.3990  178.4030  142.4690 O   0  0  0  0  0  0  0  0  0  0  0  0
  186.3900  177.1170  142.9550 C   0  0  2  0  0  3  0  0  0  0  0  0
  187.8250  178.6730  144.5910 S   0  0  0  0  0  0  0  0  0  0  0  0
  186.2450  179.0890  143.6640 C   0  0  2  0  0  3  0  0  0  0  0  0
  185.0540  177.0650  143.7190 C   0  0  2  0  0  3  0  0  0  0  0  0
  184.9360  178.5650  144.1330 C   0  0  2  0  0  0  0  0  0  0  0  0
  185.3750  178.4350  147.9440 C   0  0  0  0  0  2  0  0  0  0  0  0
  185.5710  179.2980  146.7160 C   0  0  1  0  0  3  0  0  0  0  0  0
  183.2070  179.0550  146.0490 O   0  0  0  0  0  1  0  0  0  0  0  0
  185.1790  177.8890  146.5600 C   0  0  2  0  0  3  0  0  0  0  0  0
  184.5560  178.9450  145.6840 C   0  0  1  0  0  0  0  0  0  0  0  0
  1 12  1  6  0  0  0
  1 19  1  0  0  0  0
  3 33  1  0  0  0  0
  4 34  1  0  0  0  0
  5 18  1  0  0  0  0
  6 50  1  0  0  0  0
  7  3  1  6  0  0  0
  7 30  1  0  0  0  0
  8 11  1  6  0  0  0
  8 15  1  0  0  0  0
  9  7  1  0  0  0  0
 10  4  1  0  0  0  0
 10 55  1  6  0  0  0
 13 30  1  0  0  0  0
 13 31  1  0  0  0  0
 15  6  1  1  0  0  0
 17 38  1  6  0  0  0
 17  2  1  0  0  0  0
 17 29  1  0  0  0  0
 18 26  3  0  0  0  0
 19 37  1  1  0  0  0
 19  5  1  0  0  0  0
 22 14  1  6  0  0  0
 22  9  1  0  0  0  0
 22  2  1  0  0  0  0
 23 56  1  6  0  0  0
 23 24  1  0  0  0  0
 24 20  1  6  0  0  0
 24  8  1  0  0  0  0
 25 31  2  0  0  0  0
 26 15  1  0  0  0  0
 28 27  1  1  0  0  0
 28  1  1  0  0  0  0
 29 10  1  0  0  0  0
 31 16  2  0  0  0  0
 31 32  1  0  0  0  0
 32 11  1  1  0  0  0
 32 23  1  0  0  0  0
 33 28  1  0  0  0  0
 34  1  1  0  0  0  0
 34 21  1  6  0  0  0
 37 36  1  0  0  0  0
 37 35  1  0  0  0  0
 39 38  2  0  0  0  0
 40 39  1  0  0  0  0
 41 38  1  1  0  0  0
 41 44  1  0  0  0  0
 41 45  1  0  0  0  0
 43 46  1  6  0  0  0
 43 42  1  0  0  0  0
 44 43  1  0  0  0  0
 45 42  1  0  0  0  0
 46 47  1  6  0  0  0
 46 48  1  0  0  0  0
 50 49  2  0  0  0  0
 50 51  1  0  0  0  0
 51 53  1  0  0  0  0
 53 52  1  0  0  0  0
 55 54  1  0  0  0  0
 58 56  1  6  0  0  0
 58 62  1  0  0  0  0
 61 60  1  1  0  0  0
 61 64  1  0  0  0  0
 61 58  1  0  0  0  0
 63 60  1  6  0  0  0
 63 65  1  0  0  0  0
 63 62  1  0  0  0  0
 64 65  1  0  0  0  0
 64 57  1  1  0  0  0
 65 59  1  6  0  0  0
 65 70  1  0  0  0  0
 67 66  1  1  0  0  0
 69 67  1  0  0  0  0
 69 66  1  1  0  0  0
 70 68  1  1  0  0  0
 70 69  1  0  0  0  0
 70 67  1  0  0  0  0
M  END
>  <MODEL>
1

>  <REMARK>
 VINA RESULT:      -6.1      0.000      0.000
  Name = 
  11 active torsions:
  status: ('A' for Active; 'I' for Inactive)
    1  A    between atoms: C_1  and  C_42
    2  A    between atoms: C_11  and  C_61
    3  A    between atoms: C_12  and  C_63
    4  A    between atoms: C_18  and  C_35
    5  A    between atoms: C_20  and  O_44
    6  A    between atoms: C_28  and  C_42
    7  A    between atoms: C_34  and  C_47
    8  A    between atoms: C_41  and  C_61
    9  A    between atoms: C_53  and  C_60
   10  A    between atoms: C_63  and  O_66
   11  A    between atoms: O_66  and  C_68
                            x       y       z     vdW  Elec       q    Type
                         _______ _______ _______ _____ _____    ______ ____

>  <TORSDO>
F 11

$$$$
=
 OpenBabel11072409433D

 70 77  0  0  1  0  0  0  0  0999 V2000
  194.7800  171.4790  142.4580 C   0  0  1  0  0  0  0  0  0  0  0  0
  190.3490  169.3180  138.0000 C   0  0  0  0  0  2  0  0  0  0  0  0
  192.6460  172.9060  139.4040 C   0  0  0  0  0  2  0  0  0  0  0  0
  194.0470  169.2560  140.9280 C   0  0  0  0  0  2  0  0  0  0  0  0
  193.6640  171.9290  144.5140 C   0  0  0  0  0  2  0  0  0  0  0  0
  192.1710  175.7820  146.7280 C   0  0  0  0  0  2  0  0  0  0  0  0
  191.3710  172.0780  139.3870 C   0  0  2  0  0  3  0  0  0  0  0  0
  190.9020  175.5890  144.5140 C   0  0  1  0  0  3  0  0  0  0  0  0
  191.1800  171.7360  138.0370 O   0  0  0  0  0  0  0  0  0  0  0  0
  192.6440  169.4570  140.6030 C   0  0  1  0  0  3  0  0  0  0  0  0
  190.9900  174.9050  143.0330 C   0  0  0  0  0  2  0  0  0  0  0  0
  196.0480  171.9340  141.7750 C   0  0  0  0  0  1  0  0  0  0  0  0
  190.0230  174.2990  139.6510 C   0  0  0  0  0  2  0  0  0  0  0  0
  189.4190  171.1970  136.4840 C   0  0  0  0  0  1  0  0  0  0  0  0
  192.0930  175.3910  145.3960 C   0  0  2  0  0  3  0  0  0  0  0  0
  188.2120  173.8940  141.7000 O   0  0  0  0  0  0  0  0  0  0  0  0
  191.8120  168.8990  138.0940 C   0  0  2  0  0  3  0  0  0  0  0  0
  193.5020  173.2830  144.7900 C   0  0  0  0  0  0  0  0  0  0  0  0
  195.0070  171.7770  143.9470 C   0  0  1  0  0  3  0  0  0  0  0  0
  191.1820  178.0870  144.4480 C   0  0  0  0  0  1  0  0  0  0  0  0
  195.5110  169.1800  142.7490 F   0  0  0  0  0  0  0  0  0  0  0  0
  190.0760  170.8890  137.8200 C   0  0  1  0  0  3  0  0  0  0  0  0
  189.5420  176.6810  143.0150 C   0  0  2  0  0  3  0  0  0  0  0  0
  190.3800  176.9600  144.2890 C   0  0  1  0  0  3  0  0  0  0  0  0
  188.2580  175.9180  140.3270 O   0  0  0  0  0  0  0  0  0  0  0  0
  193.0500  174.3880  145.0670 C   0  0  0  0  0  0  0  0  0  0  0  0
  192.3840  172.0660  142.1210 O   0  0  0  0  0  1  0  0  0  0  0  0
  193.6610  172.4460  141.7160 C   0  0  2  0  0  3  0  0  0  0  0  0
  192.6650  169.7060  139.0340 C   0  0  0  0  0  2  0  0  0  0  0  0
  190.2550  172.8700  140.0430 C   0  0  0  0  0  2  0  0  0  0  0  0
  189.1080  174.9150  141.0500 S   0  0  0  0  0  0  0  0  0  0  0  0
  190.2890  175.8060  142.0720 N   0  0  2  0  0  0  0  0  0  0  0  0
  193.7980  172.3170  140.1900 C   0  0  0  0  0  2  0  0  0  0  0  0
  194.4610  169.9560  142.2890 C   0  0  1  0  0  3  0  0  0  0  0  0
  196.9490  171.2800  145.1370 F   0  0  0  0  0  0  0  0  0  0  0  0
  195.0220  170.0970  145.7160 F   0  0  0  0  0  0  0  0  0  0  0  0
  195.7660  170.7180  144.6940 C   0  0  0  0  0  3  0  0  0  0  0  0
  192.4740  168.8090  136.7570 C   0  0  0  0  0  0  0  0  0  0  0  0
  191.9230  168.3610  135.6840 N   0  0  0  0  0  0  0  0  0  0  0  0
  192.6880  168.1660  134.5140 O   0  0  0  0  0  1  0  0  0  0  0  0
  193.9490  169.2930  136.8240 C   0  0  1  0  0  3  0  0  0  0  0  0
  195.9130  169.8750  135.3030 C   0  0  0  0  0  2  0  0  0  0  0  0
  196.2600  168.8770  136.4870 C   0  0  2  0  0  3  0  0  0  0  0  0
  194.9730  168.2380  137.0890 C   0  0  0  0  0  2  0  0  0  0  0  0
  194.3750  169.8670  135.4760 C   0  0  0  0  0  2  0  0  0  0  0  0
  197.5680  168.9970  137.3450 C   0  0  1  0  0  3  0  0  0  0  0  0
  197.7870  170.2820  138.0470 C   0  0  0  0  0  1  0  0  0  0  0  0
  197.5410  168.1750  138.5500 O   0  0  0  0  0  1  0  0  0  0  0  0
  191.6480  177.4430  148.3770 O   0  0  0  0  0  0  0  0  0  0  0  0
  191.2530  176.4280  147.6540 C   0  0  0  0  0  0  0  0  0  0  0  0
  189.9630  175.9680  147.8490 O   0  0  0  0  0  0  0  0  0  0  0  0
  187.9440  176.7230  146.8770 C   0  0  0  0  0  1  0  0  0  0  0  0
  188.8760  176.9430  148.0250 C   0  0  0  0  0  2  0  0  0  0  0  0
  191.0910  169.1710  142.1300 C   0  0  0  0  0  1  0  0  0  0  0  0
  191.7330  168.4800  140.9880 O   0  0  0  0  0  0  0  0  0  0  0  0
  189.0020  177.9750  142.5040 C   0  0  0  0  0  2  0  0  0  0  0  0
  185.7580  180.0130  144.3690 O   0  0  0  0  0  1  0  0  0  0  0  0
  187.4950  178.3880  142.7980 C   0  0  2  0  0  3  0  0  0  0  0  0
  184.3070  177.0190  145.1130 O   0  0  0  0  0  1  0  0  0  0  0  0
  186.6580  176.6490  143.9830 O   0  0  0  0  0  0  0  0  0  0  0  0
  187.0860  177.9430  144.1670 C   0  0  2  0  0  3  0  0  0  0  0  0
  186.3480  177.6080  141.6180 S   0  0  0  0  0  0  0  0  0  0  0  0
  185.5640  176.8950  143.1690 C   0  0  2  0  0  3  0  0  0  0  0  0
  185.8270  178.6250  144.7360 C   0  0  2  0  0  3  0  0  0  0  0  0
  184.7300  177.7500  144.0530 C   0  0  2  0  0  0  0  0  0  0  0  0
  182.7880  179.0980  141.0290 C   0  0  0  0  0  2  0  0  0  0  0  0
  182.8480  177.9810  142.0490 C   0  0  1  0  0  3  0  0  0  0  0  0
  182.8420  179.5730  143.9350 O   0  0  0  0  0  1  0  0  0  0  0  0
  183.9520  178.9480  141.9640 C   0  0  2  0  0  3  0  0  0  0  0  0
  183.4620  178.4820  143.3100 C   0  0  1  0  0  0  0  0  0  0  0  0
  1 12  1  6  0  0  0
  1 19  1  0  0  0  0
  2 17  1  0  0  0  0
  3 33  1  0  0  0  0
  4 34  1  0  0  0  0
  5 18  1  0  0  0  0
  6 50  1  0  0  0  0
  7  3  1  6  0  0  0
  7 30  1  0  0  0  0
  8 11  1  6  0  0  0
  8 15  1  0  0  0  0
  9  7  1  0  0  0  0
 10  4  1  0  0  0  0
 10 55  1  6  0  0  0
 13 30  1  0  0  0  0
 13 31  1  0  0  0  0
 15  6  1  1  0  0  0
 17 38  1  6  0  0  0
 17 29  1  0  0  0  0
 18 26  3  0  0  0  0
 19  5  1  0  0  0  0
 19 37  1  1  0  0  0
 22 14  1  6  0  0  0
 22  2  1  0  0  0  0
 22  9  1  0  0  0  0
 23 56  1  6  0  0  0
 23 24  1  0  0  0  0
 24 20  1  6  0  0  0
 24  8  1  0  0  0  0
 25 31  2  0  0  0  0
 26 15  1  0  0  0  0
 28 27  1  1  0  0  0
 28  1  1  0  0  0  0
 29 10  1  0  0  0  0
 31 16  2  0  0  0  0
 31 32  1  0  0  0  0
 32 23  1  0  0  0  0
 32 11  1  1  0  0  0
 33 28  1  0  0  0  0
 34  1  1  0  0  0  0
 34 21  1  6  0  0  0
 37 35  1  0  0  0  0
 37 36  1  0  0  0  0
 39 38  2  0  0  0  0
 40 39  1  0  0  0  0
 41 38  1  6  0  0  0
 41 44  1  0  0  0  0
 42 45  1  0  0  0  0
 42 43  1  0  0  0  0
 43 44  1  0  0  0  0
 43 46  1  1  0  0  0
 45 41  1  0  0  0  0
 46 47  1  1  0  0  0
 46 48  1  0  0  0  0
 50 51  1  0  0  0  0
 50 49  2  0  0  0  0
 51 53  1  0  0  0  0
 52 53  1  0  0  0  0
 55 54  1  0  0  0  0
 58 56  1  6  0  0  0
 58 61  1  0  0  0  0
 61 60  1  6  0  0  0
 61 64  1  0  0  0  0
 62 58  1  0  0  0  0
 63 62  1  6  0  0  0
 63 60  1  0  0  0  0
 63 65  1  0  0  0  0
 64 57  1  6  0  0  0
 65 64  1  0  0  0  0
 65 59  1  1  0  0  0
 67 66  1  1  0  0  0
 67 70  1  0  0  0  0
 69 66  1  1  0  0  0
 69 67  1  0  0  0  0
 69 70  1  0  0  0  0
 70 68  1  1  0  0  0
 70 65  1  0  0  0  0
M  END
>  <MODEL>
2

>  <REMARK>
 VINA RESULT:      -5.9      1.654      2.410
  Name = 
  11 active torsions:
  status: ('A' for Active; 'I' for Inactive)
    1  A    between atoms: C_1  and  C_42
    2  A    between atoms: C_11  and  C_61
    3  A    between atoms: C_12  and  C_63
    4  A    between atoms: C_18  and  C_35
    5  A    between atoms: C_20  and  O_44
    6  A    between atoms: C_28  and  C_42
    7  A    between atoms: C_34  and  C_47
    8  A    between atoms: C_41  and  C_61
    9  A    between atoms: C_53  and  C_60
   10  A    between atoms: C_63  and  O_66
   11  A    between atoms: O_66  and  C_68
                            x       y       z     vdW  Elec       q    Type
                         _______ _______ _______ _____ _____    ______ ____

>  <TORSDO>
F 11

$$$$
=
 OpenBabel11072409433D

 70 77  0  0  1  0  0  0  0  0999 V2000
  189.7050  175.5870  143.3090 C   0  0  1  0  0  0  0  0  0  0  0  0
  192.7740  169.7030  143.6710 C   0  0  0  0  0  2  0  0  0  0  0  0
  192.6540  173.6160  141.4830 C   0  0  0  0  0  2  0  0  0  0  0  0
  190.5160  173.5920  145.0930 C   0  0  0  0  0  2  0  0  0  0  0  0
  187.6760  175.3360  142.0860 C   0  0  0  0  0  2  0  0  0  0  0  0
  186.2700  176.3020  137.7190 C   0  0  0  0  0  2  0  0  0  0  0  0
  192.2750  172.1480  141.5830 C   0  0  2  0  0  3  0  0  0  0  0  0
  188.1510  174.5710  137.5900 C   0  0  1  0  0  3  0  0  0  0  0  0
  193.4550  171.4950  141.9800 O   0  0  0  0  0  0  0  0  0  0  0  0
  190.6640  172.3900  144.2880 C   0  0  1  0  0  3  0  0  0  0  0  0
  189.4160  173.9760  138.4350 C   0  0  0  0  0  2  0  0  0  0  0  0
  190.6630  176.7100  143.6270 C   0  0  0  0  0  1  0  0  0  0  0  0
  192.3600  172.0320  138.9760 C   0  0  0  0  0  2  0  0  0  0  0  0
  194.5430  169.3520  141.8170 C   0  0  0  0  0  1  0  0  0  0  0  0
  187.4380  175.7300  138.2100 C   0  0  2  0  0  3  0  0  0  0  0  0
  190.0230  170.8030  138.1550 O   0  0  0  0  0  0  0  0  0  0  0  0
  192.8030  170.8020  144.7270 C   0  0  2  0  0  3  0  0  0  0  0  0
  187.7180  175.8630  140.7980 C   0  0  0  0  0  0  0  0  0  0  0  0
  188.3850  176.2850  142.9480 C   0  0  1  0  0  3  0  0  0  0  0  0
  188.8660  175.8980  135.5780 C   0  0  0  0  0  1  0  0  0  0  0  0
  188.9750  175.2750  145.6060 F   0  0  0  0  0  0  0  0  0  0  0  0
  193.2890  170.1160  142.2080 C   0  0  1  0  0  3  0  0  0  0  0  0
  189.6470  173.5070  136.2040 C   0  0  2  0  0  3  0  0  0  0  0  0
  188.6220  174.6700  136.1860 C   0  0  1  0  0  3  0  0  0  0  0  0
  191.8400  171.3940  136.6280 O   0  0  0  0  0  0  0  0  0  0  0  0
  187.6540  176.0300  139.5860 C   0  0  0  0  0  0  0  0  0  0  0  0
  189.8070  173.6960  141.6920 O   0  0  0  0  0  1  0  0  0  0  0  0
  190.4810  174.8640  142.0390 C   0  0  2  0  0  3  0  0  0  0  0  0
  192.2300  172.1270  144.3080 C   0  0  0  0  0  2  0  0  0  0  0  0
  191.6700  171.6990  140.2660 C   0  0  0  0  0  2  0  0  0  0  0  0
  191.0310  171.8640  137.8010 S   0  0  0  0  0  0  0  0  0  0  0  0
  190.4490  173.5300  137.4560 N   0  0  2  0  0  0  0  0  0  0  0  0
  191.9320  174.5450  142.4360 C   0  0  0  0  0  2  0  0  0  0  0  0
  189.4460  174.5980  144.4940 C   0  0  1  0  0  3  0  0  0  0  0  0
  188.0300  177.8290  144.6570 F   0  0  0  0  0  0  0  0  0  0  0  0
  186.1520  176.7220  143.8250 F   0  0  0  0  0  0  0  0  0  0  0  0
  187.5270  176.6580  144.1220 C   0  0  0  0  0  3  0  0  0  0  0  0
  194.1630  171.0000  145.3170 C   0  0  0  0  0  0  0  0  0  0  0  0
  194.7130  170.2300  146.1890 N   0  0  0  0  0  0  0  0  0  0  0  0
  195.9300  170.5970  146.8010 O   0  0  0  0  0  1  0  0  0  0  0  0
  194.8320  172.2920  144.7720 C   0  0  1  0  0  3  0  0  0  0  0  0
  197.1190  173.4040  144.5730 C   0  0  0  0  0  2  0  0  0  0  0  0
  195.9770  174.3310  145.1700 C   0  0  2  0  0  3  0  0  0  0  0  0
  194.7610  173.4910  145.6600 C   0  0  0  0  0  2  0  0  0  0  0  0
  196.3310  172.0720  144.5960 C   0  0  0  0  0  2  0  0  0  0  0  0
  195.7940  175.8310  144.7500 C   0  0  1  0  0  3  0  0  0  0  0  0
  195.0460  176.0850  143.4970 C   0  0  0  0  0  1  0  0  0  0  0  0
  194.8770  176.5620  145.6190 O   0  0  0  0  0  1  0  0  0  0  0  0
  185.6730  176.5250  135.4070 O   0  0  0  0  0  0  0  0  0  0  0  0
  185.4010  176.0260  136.5840 C   0  0  0  0  0  0  0  0  0  0  0  0
  184.2410  175.2850  136.7120 O   0  0  0  0  0  0  0  0  0  0  0  0
  181.8790  175.3320  136.8190 C   0  0  0  0  0  1  0  0  0  0  0  0
  183.0460  175.6910  135.9570 C   0  0  0  0  0  2  0  0  0  0  0  0
  188.6670  171.5610  143.8980 C   0  0  0  0  0  1  0  0  0  0  0  0
  189.9170  171.2700  144.6350 O   0  0  0  0  0  0  0  0  0  0  0  0
  190.3700  173.4860  134.8990 C   0  0  0  0  0  2  0  0  0  0  0  0
  194.6250  173.3620  134.7160 O   0  0  0  0  0  1  0  0  0  0  0  0
  191.8560  174.0390  134.7950 C   0  0  2  0  0  3  0  0  0  0  0  0
  194.7980  175.5040  137.3630 O   0  0  0  0  0  1  0  0  0  0  0  0
  192.2930  174.8620  136.8590 O   0  0  0  0  0  0  0  0  0  0  0  0
  192.6030  173.7820  136.0660 C   0  0  2  0  0  3  0  0  0  0  0  0
  191.8800  175.8390  134.5160 S   0  0  0  0  0  0  0  0  0  0  0  0
  192.8850  175.8630  136.1040 C   0  0  2  0  0  3  0  0  0  0  0  0
  194.1370  173.8800  135.9650 C   0  0  2  0  0  3  0  0  0  0  0  0
  194.3060  175.4250  136.1030 C   0  0  2  0  0  0  0  0  0  0  0  0
  197.6730  176.6560  134.7320 C   0  0  0  0  0  2  0  0  0  0  0  0
  196.5460  175.6680  134.5130 C   0  0  1  0  0  3  0  0  0  0  0  0
  194.8460  177.4570  134.5290 O   0  0  0  0  0  1  0  0  0  0  0  0
  196.5870  176.4630  135.7490 C   0  0  2  0  0  3  0  0  0  0  0  0
  195.2740  176.2270  135.0490 C   0  0  1  0  0  0  0  0  0  0  0  0
  1 12  1  1  0  0  0
  1 34  1  0  0  0  0
  2 17  1  0  0  0  0
  3  7  1  0  0  0  0
  3 33  1  0  0  0  0
  5 19  1  0  0  0  0
  7 30  1  6  0  0  0
  7  9  1  0  0  0  0
  8 15  1  0  0  0  0
  8 11  1  1  0  0  0
  9 22  1  0  0  0  0
 10 29  1  0  0  0  0
 10 55  1  1  0  0  0
 10  4  1  0  0  0  0
 13 30  1  0  0  0  0
 15  6  1  1  0  0  0
 15 26  1  0  0  0  0
 17 38  1  6  0  0  0
 18  5  1  0  0  0  0
 19  1  1  0  0  0  0
 19 37  1  1  0  0  0
 22 14  1  1  0  0  0
 22  2  1  0  0  0  0
 23 56  1  6  0  0  0
 23 32  1  0  0  0  0
 24 20  1  1  0  0  0
 24 23  1  0  0  0  0
 24  8  1  0  0  0  0
 25 31  2  0  0  0  0
 26 18  3  0  0  0  0
 28 27  1  1  0  0  0
 28 33  1  0  0  0  0
 28  1  1  0  0  0  0
 29 17  1  0  0  0  0
 31 16  2  0  0  0  0
 31 13  1  0  0  0  0
 32 31  1  0  0  0  0
 32 11  1  1  0  0  0
 34  4  1  0  0  0  0
 34 21  1  1  0  0  0
 36 37  1  0  0  0  0
 37 35  1  0  0  0  0
 38 39  2  0  0  0  0
 39 40  1  0  0  0  0
 41 38  1  1  0  0  0
 41 44  1  0  0  0  0
 42 45  1  0  0  0  0
 42 43  1  0  0  0  0
 43 46  1  6  0  0  0
 43 44  1  0  0  0  0
 45 41  1  0  0  0  0
 46 47  1  6  0  0  0
 46 48  1  0  0  0  0
 49 50  2  0  0  0  0
 50 51  1  0  0  0  0
 50  6  1  0  0  0  0
 53 51  1  0  0  0  0
 53 52  1  0  0  0  0
 54 55  1  0  0  0  0
 58 56  1  1  0  0  0
 58 61  1  0  0  0  0
 61 60  1  1  0  0  0
 62 58  1  0  0  0  0
 63 62  1  6  0  0  0
 63 60  1  0  0  0  0
 64 57  1  6  0  0  0
 64 61  1  0  0  0  0
 64 65  1  0  0  0  0
 65 63  1  0  0  0  0
 65 59  1  1  0  0  0
 67 66  1  6  0  0  0
 67 70  1  0  0  0  0
 67 69  1  0  0  0  0
 69 66  1  6  0  0  0
 70 68  1  6  0  0  0
 70 69  1  0  0  0  0
 70 65  1  0  0  0  0
M  END
>  <MODEL>
3

>  <REMARK>
 VINA RESULT:      -5.7      4.339      9.791
  Name = 
  11 active torsions:
  status: ('A' for Active; 'I' for Inactive)
    1  A    between atoms: C_1  and  C_42
    2  A    between atoms: C_11  and  C_61
    3  A    between atoms: C_12  and  C_63
    4  A    between atoms: C_18  and  C_35
    5  A    between atoms: C_20  and  O_44
    6  A    between atoms: C_28  and  C_42
    7  A    between atoms: C_34  and  C_47
    8  A    between atoms: C_41  and  C_61
    9  A    between atoms: C_53  and  C_60
   10  A    between atoms: C_63  and  O_66
   11  A    between atoms: O_66  and  C_68
                            x       y       z     vdW  Elec       q    Type
                         _______ _______ _______ _____ _____    ______ ____

>  <TORSDO>
F 11

$$$$
=
 OpenBabel11072409433D

 70 77  0  0  1  0  0  0  0  0999 V2000
  188.4970  176.3520  144.9810 C   0  0  1  0  0  0  0  0  0  0  0  0
  187.0060  177.3600  138.5830 C   0  0  0  0  0  2  0  0  0  0  0  0
  187.7080  174.2170  141.7040 C   0  0  0  0  0  2  0  0  0  0  0  0
  187.1530  178.0810  143.2420 C   0  0  0  0  0  2  0  0  0  0  0  0
  190.8520  176.5540  145.2760 C   0  0  0  0  0  2  0  0  0  0  0  0
  194.4220  173.5580  145.7820 C   0  0  0  0  0  2  0  0  0  0  0  0
  188.2110  175.0620  140.5460 C   0  0  2  0  0  3  0  0  0  0  0  0
  193.3750  173.1740  143.4780 C   0  0  1  0  0  3  0  0  0  0  0  0
  187.1810  175.0170  139.5900 O   0  0  0  0  0  0  0  0  0  0  0  0
  187.7540  177.8600  141.9370 C   0  0  1  0  0  3  0  0  0  0  0  0
  191.9950  173.4050  142.6350 C   0  0  0  0  0  2  0  0  0  0  0  0
  187.3560  175.6650  145.6940 C   0  0  0  0  0  1  0  0  0  0  0  0
  189.7600  173.0720  139.8720 C   0  0  0  0  0  2  0  0  0  0  0  0
  186.8420  175.1730  137.2110 C   0  0  0  0  0  1  0  0  0  0  0  0
  193.3300  173.5590  144.9220 C   0  0  2  0  0  3  0  0  0  0  0  0
  192.2880  174.1220  139.4850 O   0  0  0  0  0  0  0  0  0  0  0  0
  186.1340  177.7220  139.7810 C   0  0  2  0  0  3  0  0  0  0  0  0
  191.5080  175.3430  145.4690 C   0  0  0  0  0  0  0  0  0  0  0  0
  189.6030  176.4780  146.0390 C   0  0  1  0  0  3  0  0  0  0  0  0
  193.8070  170.7500  143.9870 C   0  0  0  0  0  1  0  0  0  0  0  0
  187.7130  178.6030  145.4520 F   0  0  0  0  0  0  0  0  0  0  0  0
  187.4260  175.8170  138.4570 C   0  0  1  0  0  3  0  0  0  0  0  0
  193.2670  171.7650  141.6640 C   0  0  2  0  0  3  0  0  0  0  0  0
  193.8520  171.8210  143.0990 C   0  0  1  0  0  3  0  0  0  0  0  0
  191.7130  171.7930  139.0110 O   0  0  0  0  0  0  0  0  0  0  0  0
  192.2670  174.3840  145.3950 C   0  0  0  0  0  0  0  0  0  0  0  0
  189.7560  175.8030  142.9050 O   0  0  0  0  0  1  0  0  0  0  0  0
  188.8090  175.2660  143.7720 C   0  0  2  0  0  3  0  0  0  0  0  0
  186.5850  177.1760  141.1070 C   0  0  0  0  0  2  0  0  0  0  0  0
  189.5650  174.5410  140.1010 C   0  0  0  0  0  2  0  0  0  0  0  0
  191.5320  172.9190  139.9850 S   0  0  0  0  0  0  0  0  0  0  0  0
  191.8810  172.3020  141.6360 N   0  0  2  0  0  0  0  0  0  0  0  0
  187.5090  174.9510  143.0130 C   0  0  0  0  0  2  0  0  0  0  0  0
  188.1550  177.7770  144.4330 C   0  0  1  0  0  3  0  0  0  0  0  0
  188.3450  177.4940  147.7180 F   0  0  0  0  0  0  0  0  0  0  0  0
  190.6360  177.9370  147.6980 F   0  0  0  0  0  0  0  0  0  0  0  0
  189.4770  177.6690  146.9440 C   0  0  0  0  0  3  0  0  0  0  0  0
  184.6910  177.3990  139.5620 C   0  0  0  0  0  0  0  0  0  0  0  0
  184.2420  176.5350  138.7220 N   0  0  0  0  0  0  0  0  0  0  0  0
  182.8550  176.4260  138.4790 O   0  0  0  0  0  1  0  0  0  0  0  0
  183.7750  178.2760  140.4610 C   0  0  1  0  0  3  0  0  0  0  0  0
  183.0960  178.5730  142.9020 C   0  0  0  0  0  2  0  0  0  0  0  0
  181.8850  178.4790  141.8800 C   0  0  2  0  0  3  0  0  0  0  0  0
  182.3360  177.8760  140.5170 C   0  0  0  0  0  2  0  0  0  0  0  0
  184.2230  178.1830  141.9160 C   0  0  0  0  0  2  0  0  0  0  0  0
  180.6280  179.4140  141.9630 C   0  0  1  0  0  3  0  0  0  0  0  0
  180.0850  179.9130  140.6790 C   0  0  0  0  0  1  0  0  0  0  0  0
  179.4160  178.7110  142.3710 O   0  0  0  0  0  1  0  0  0  0  0  0
  196.2900  172.0650  145.9660 O   0  0  0  0  0  0  0  0  0  0  0  0
  195.8360  173.2440  145.6310 C   0  0  0  0  0  0  0  0  0  0  0  0
  196.7510  174.1800  145.1870 O   0  0  0  0  0  0  0  0  0  0  0  0
  196.8250  173.9500  142.8350 C   0  0  0  0  0  1  0  0  0  0  0  0
  196.4850  174.9040  143.9350 C   0  0  0  0  0  2  0  0  0  0  0  0
  189.7190  178.8290  141.7670 C   0  0  0  0  0  1  0  0  0  0  0  0
  188.3240  178.9470  141.2830 O   0  0  0  0  0  0  0  0  0  0  0  0
  193.5130  170.4050  141.1000 C   0  0  0  0  0  2  0  0  0  0  0  0
  197.5390  170.3390  139.7080 O   0  0  0  0  0  1  0  0  0  0  0  0
  194.7210  170.1580  140.0960 C   0  0  2  0  0  3  0  0  0  0  0  0
  196.6290  172.1880  136.9920 O   0  0  0  0  0  1  0  0  0  0  0  0
  194.5810  171.8690  138.6200 O   0  0  0  0  0  0  0  0  0  0  0  0
  195.3400  171.4580  139.6900 C   0  0  2  0  0  3  0  0  0  0  0  0
  194.1620  169.3320  138.5720 S   0  0  0  0  0  0  0  0  0  0  0  0
  194.8870  170.8490  137.7320 C   0  0  2  0  0  3  0  0  0  0  0  0
  196.7480  171.3560  139.0720 C   0  0  2  0  0  3  0  0  0  0  0  0
  196.3580  171.0080  137.6010 C   0  0  2  0  0  0  0  0  0  0  0  0
  197.4140  168.9430  134.5420 C   0  0  0  0  0  2  0  0  0  0  0  0
  197.8970  169.9380  135.5770 C   0  0  1  0  0  3  0  0  0  0  0  0
  197.1460  168.5070  137.4430 O   0  0  0  0  0  1  0  0  0  0  0  0
  196.4650  169.6160  135.4890 C   0  0  2  0  0  3  0  0  0  0  0  0
  197.1210  169.7720  136.8370 C   0  0  1  0  0  0  0  0  0  0  0  0
  1 12  1  1  0  0  0
  1 19  1  0  0  0  0
  2 17  1  0  0  0  0
  3 33  1  0  0  0  0
  4 34  1  0  0  0  0
  5 18  1  0  0  0  0
  5 19  1  0  0  0  0
  7 30  1  6  0  0  0
  7  3  1  0  0  0  0
  8 11  1  1  0  0  0
  8 15  1  0  0  0  0
  9  7  1  0  0  0  0
 10 55  1  6  0  0  0
 10  4  1  0  0  0  0
 13 31  1  0  0  0  0
 13 30  1  0  0  0  0
 15 26  1  0  0  0  0
 15  6  1  6  0  0  0
 16 31  2  0  0  0  0
 17 38  1  6  0  0  0
 17 29  1  0  0  0  0
 19 37  1  6  0  0  0
 22 14  1  6  0  0  0
 22  2  1  0  0  0  0
 22  9  1  0  0  0  0
 23 56  1  1  0  0  0
 23 24  1  0  0  0  0
 24  8  1  0  0  0  0
 24 20  1  1  0  0  0
 25 31  2  0  0  0  0
 26 18  3  0  0  0  0
 28 27  1  6  0  0  0
 28  1  1  0  0  0  0
 29 10  1  0  0  0  0
 31 32  1  0  0  0  0
 32 23  1  0  0  0  0
 32 11  1  1  0  0  0
 33 28  1  0  0  0  0
 34  1  1  0  0  0  0
 34 21  1  1  0  0  0
 37 36  1  0  0  0  0
 37 35  1  0  0  0  0
 39 38  2  0  0  0  0
 40 39  1  0  0  0  0
 41 38  1  6  0  0  0
 41 44  1  0  0  0  0
 41 45  1  0  0  0  0
 43 46  1  6  0  0  0
 43 42  1  0  0  0  0
 44 43  1  0  0  0  0
 45 42  1  0  0  0  0
 46 47  1  6  0  0  0
 46 48  1  0  0  0  0
 50  6  1  0  0  0  0
 50 49  2  0  0  0  0
 51 50  1  0  0  0  0
 52 53  1  0  0  0  0
 53 51  1  0  0  0  0
 55 54  1  0  0  0  0
 58 56  1  1  0  0  0
 61 60  1  6  0  0  0
 61 58  1  0  0  0  0
 62 58  1  0  0  0  0
 63 62  1  1  0  0  0
 63 60  1  0  0  0  0
 64 61  1  0  0  0  0
 64 57  1  1  0  0  0
 65 59  1  6  0  0  0
 65 63  1  0  0  0  0
 65 64  1  0  0  0  0
 67 66  1  1  0  0  0
 67 70  1  0  0  0  0
 69 66  1  1  0  0  0
 69 67  1  0  0  0  0
 69 70  1  0  0  0  0
 70 68  1  1  0  0  0
 70 65  1  0  0  0  0
M  END
>  <MODEL>
4

>  <REMARK>
 VINA RESULT:      -5.2      3.713     11.461
  Name = 
  11 active torsions:
  status: ('A' for Active; 'I' for Inactive)
    1  A    between atoms: C_1  and  C_42
    2  A    between atoms: C_11  and  C_61
    3  A    between atoms: C_12  and  C_63
    4  A    between atoms: C_18  and  C_35
    5  A    between atoms: C_20  and  O_44
    6  A    between atoms: C_28  and  C_42
    7  A    between atoms: C_34  and  C_47
    8  A    between atoms: C_41  and  C_61
    9  A    between atoms: C_53  and  C_60
   10  A    between atoms: C_63  and  O_66
   11  A    between atoms: O_66  and  C_68
                            x       y       z     vdW  Elec       q    Type
                         _______ _______ _______ _____ _____    ______ ____

>  <TORSDO>
F 11

$$$$
=
 OpenBabel11072409433D

 70 77  0  0  1  0  0  0  0  0999 V2000
  191.8740  171.6790  140.9730 C   0  0  1  0  0  0  0  0  0  0  0  0
  196.0710  175.6630  144.2420 C   0  0  0  0  0  2  0  0  0  0  0  0
  191.8670  174.1040  144.1410 C   0  0  0  0  0  2  0  0  0  0  0  0
  194.5530  171.9790  141.7180 C   0  0  0  0  0  2  0  0  0  0  0  0
  191.0340  172.8270  139.0640 C   0  0  0  0  0  2  0  0  0  0  0  0
  187.0350  175.0220  137.9810 C   0  0  0  0  0  2  0  0  0  0  0  0
  192.8810  175.1890  143.8160 C   0  0  2  0  0  3  0  0  0  0  0  0
  188.1250  176.2630  139.9360 C   0  0  1  0  0  3  0  0  0  0  0  0
  193.6480  175.3300  144.9850 O   0  0  0  0  0  0  0  0  0  0  0  0
  194.7240  173.3990  141.9800 C   0  0  1  0  0  3  0  0  0  0  0  0
  189.1990  176.0650  141.1510 C   0  0  0  0  0  2  0  0  0  0  0  0
  191.4230  170.5380  141.8550 C   0  0  0  0  0  1  0  0  0  0  0  0
  190.9750  176.9470  144.1180 C   0  0  0  0  0  2  0  0  0  0  0  0
  194.9500  176.9730  146.1710 C   0  0  0  0  0  1  0  0  0  0  0  0
  187.8200  175.0420  139.1270 C   0  0  2  0  0  3  0  0  0  0  0  0
  191.0630  178.6080  141.9090 O   0  0  0  0  0  0  0  0  0  0  0  0
  196.1640  174.1440  144.1400 C   0  0  2  0  0  3  0  0  0  0  0  0
  189.7140  173.2520  139.1890 C   0  0  0  0  0  0  0  0  0  0  0  0
  191.1000  171.4910  139.6600 C   0  0  1  0  0  3  0  0  0  0  0  0
  185.7590  176.4880  140.7580 C   0  0  0  0  0  1  0  0  0  0  0  0
  193.7980  170.4990  140.0720 F   0  0  0  0  0  0  0  0  0  0  0  0
  194.7090  176.2460  144.8580 C   0  0  1  0  0  3  0  0  0  0  0  0
  187.8130  177.8380  141.5830 C   0  0  2  0  0  3  0  0  0  0  0  0
  187.0090  177.0510  140.5150 C   0  0  1  0  0  3  0  0  0  0  0  0
  189.5830  178.9880  143.8190 O   0  0  0  0  0  0  0  0  0  0  0  0
  188.6810  173.9100  139.2170 C   0  0  0  0  0  0  0  0  0  0  0  0
  191.8720  174.1480  141.2860 O   0  0  0  0  0  1  0  0  0  0  0  0
  191.4040  172.9800  141.8800 C   0  0  2  0  0  3  0  0  0  0  0  0
  194.9660  173.4540  143.5480 C   0  0  0  0  0  2  0  0  0  0  0  0
  192.1470  176.4290  143.3400 C   0  0  0  0  0  2  0  0  0  0  0  0
  190.1420  177.9430  142.8980 S   0  0  0  0  0  0  0  0  0  0  0  0
  188.7800  176.9470  142.2780 N   0  0  2  0  0  0  0  0  0  0  0  0
  191.9640  172.8450  143.3060 C   0  0  0  0  0  2  0  0  0  0  0  0
  193.4070  171.6900  140.6600 C   0  0  1  0  0  3  0  0  0  0  0  0
  190.6980  169.8360  138.0690 F   0  0  0  0  0  0  0  0  0  0  0  0
  192.6290  171.1190  137.7970 F   0  0  0  0  0  0  0  0  0  0  0  0
  191.7220  170.5240  138.6940 C   0  0  0  0  0  3  0  0  0  0  0  0
  196.5340  173.5000  145.4370 C   0  0  0  0  0  0  0  0  0  0  0  0
  196.6780  174.1150  146.5580 N   0  0  0  0  0  0  0  0  0  0  0  0
  197.1890  173.4370  147.6860 O   0  0  0  0  0  1  0  0  0  0  0  0
  196.7650  171.9730  145.2620 C   0  0  1  0  0  3  0  0  0  0  0  0
  197.3720  170.2540  143.4770 C   0  0  0  0  0  2  0  0  0  0  0  0
  196.0940  169.8900  144.3460 C   0  0  2  0  0  3  0  0  0  0  0  0
  195.5370  171.1400  145.0890 C   0  0  0  0  0  2  0  0  0  0  0  0
  197.5550  171.7040  143.9850 C   0  0  0  0  0  2  0  0  0  0  0  0
  195.8230  168.4470  144.8970 C   0  0  1  0  0  3  0  0  0  0  0  0
  196.2480  168.1760  146.2890 C   0  0  0  0  0  1  0  0  0  0  0  0
  194.4070  168.1750  145.1200 O   0  0  0  0  0  1  0  0  0  0  0  0
  185.0430  176.2360  137.4230 O   0  0  0  0  0  0  0  0  0  0  0  0
  186.3190  176.0350  137.2200 C   0  0  0  0  0  0  0  0  0  0  0  0
  186.9320  176.7760  136.2270 O   0  0  0  0  0  0  0  0  0  0  0  0
  188.6190  177.3280  134.6640 C   0  0  0  0  0  1  0  0  0  0  0  0
  188.1670  176.2650  135.6140 C   0  0  0  0  0  2  0  0  0  0  0  0
  194.8730  175.2310  140.7760 C   0  0  0  0  0  1  0  0  0  0  0  0
  195.6880  174.0910  141.2540 O   0  0  0  0  0  0  0  0  0  0  0  0
  186.8590  178.6330  142.4100 C   0  0  0  0  0  2  0  0  0  0  0  0
  187.7500  176.9040  146.2010 O   0  0  0  0  0  1  0  0  0  0  0  0
  186.7650  178.3940  143.9790 C   0  0  2  0  0  3  0  0  0  0  0  0
  184.4500  176.1660  146.6380 O   0  0  0  0  0  1  0  0  0  0  0  0
  184.8540  177.2140  144.2540 O   0  0  0  0  0  0  0  0  0  0  0  0
  186.2170  177.0340  144.2720 C   0  0  2  0  0  3  0  0  0  0  0  0
  185.6550  179.6010  144.7720 S   0  0  0  0  0  0  0  0  0  0  0  0
  184.7320  178.0660  145.3400 C   0  0  2  0  0  3  0  0  0  0  0  0
  186.4590  176.5160  145.7020 C   0  0  2  0  0  3  0  0  0  0  0  0
  185.2750  177.2220  146.4350 C   0  0  2  0  0  0  0  0  0  0  0  0
  187.0700  179.7600  148.6870 C   0  0  0  0  0  2  0  0  0  0  0  0
  185.7900  179.4850  147.9260 C   0  0  1  0  0  3  0  0  0  0  0  0
  185.4740  177.3120  149.0530 O   0  0  0  0  0  1  0  0  0  0  0  0
  186.9470  178.5940  147.7510 C   0  0  2  0  0  3  0  0  0  0  0  0
  185.5580  178.0160  147.8430 C   0  0  1  0  0  0  0  0  0  0  0  0
  1 12  1  1  0  0  0
  1 28  1  0  0  0  0
  2 22  1  0  0  0  0
  4 10  1  0  0  0  0
  5 18  1  0  0  0  0
  5 19  1  0  0  0  0
  7 30  1  1  0  0  0
  7  3  1  0  0  0  0
  7  9  1  0  0  0  0
  8 24  1  0  0  0  0
  8 11  1  1  0  0  0
 10 55  1  6  0  0  0
 10 29  1  0  0  0  0
 15  6  1  6  0  0  0
 15 26  1  0  0  0  0
 15  8  1  0  0  0  0
 16 31  2  0  0  0  0
 17  2  1  0  0  0  0
 17 38  1  1  0  0  0
 18 26  3  0  0  0  0
 19 37  1  6  0  0  0
 19  1  1  0  0  0  0
 22  9  1  0  0  0  0
 22 14  1  1  0  0  0
 23 32  1  0  0  0  0
 23 56  1  1  0  0  0
 24 20  1  1  0  0  0
 24 23  1  0  0  0  0
 28 27  1  6  0  0  0
 28 33  1  0  0  0  0
 29 17  1  0  0  0  0
 30 13  1  0  0  0  0
 31 25  2  0  0  0  0
 31 13  1  0  0  0  0
 32 11  1  6  0  0  0
 32 31  1  0  0  0  0
 33  3  1  0  0  0  0
 34 21  1  1  0  0  0
 34  1  1  0  0  0  0
 34  4  1  0  0  0  0
 35 37  1  0  0  0  0
 36 37  1  0  0  0  0
 38 39  2  0  0  0  0
 39 40  1  0  0  0  0
 41 38  1  6  0  0  0
 42 45  1  0  0  0  0
 42 43  1  0  0  0  0
 43 46  1  1  0  0  0
 43 44  1  0  0  0  0
 44 41  1  0  0  0  0
 45 41  1  0  0  0  0
 46 48  1  0  0  0  0
 46 47  1  1  0  0  0
 50 49  2  0  0  0  0
 50  6  1  0  0  0  0
 51 50  1  0  0  0  0
 52 53  1  0  0  0  0
 53 51  1  0  0  0  0
 54 55  1  0  0  0  0
 58 56  1  6  0  0  0
 58 61  1  0  0  0  0
 58 62  1  0  0  0  0
 61 60  1  1  0  0  0
 61 64  1  0  0  0  0
 62 63  1  0  0  0  0
 63 60  1  6  0  0  0
 63 65  1  0  0  0  0
 64 57  1  1  0  0  0
 64 65  1  0  0  0  0
 65 59  1  1  0  0  0
 65 70  1  0  0  0  0
 67 66  1  1  0  0  0
 69 70  1  0  0  0  0
 69 67  1  0  0  0  0
 69 66  1  1  0  0  0
 70 67  1  0  0  0  0
 70 68  1  1  0  0  0
M  END
>  <MODEL>
5

>  <REMARK>
 VINA RESULT:      -4.1      3.491      7.374
  Name = 
  11 active torsions:
  status: ('A' for Active; 'I' for Inactive)
    1  A    between atoms: C_1  and  C_42
    2  A    between atoms: C_11  and  C_61
    3  A    between atoms: C_12  and  C_63
    4  A    between atoms: C_18  and  C_35
    5  A    between atoms: C_20  and  O_44
    6  A    between atoms: C_28  and  C_42
    7  A    between atoms: C_34  and  C_47
    8  A    between atoms: C_41  and  C_61
    9  A    between atoms: C_53  and  C_60
   10  A    between atoms: C_63  and  O_66
   11  A    between atoms: O_66  and  C_68
                            x       y       z     vdW  Elec       q    Type
                         _______ _______ _______ _____ _____    ______ ____

>  <TORSDO>
F 11

$$$$
=
 OpenBabel11072409433D

 70 77  0  0  1  0  0  0  0  0999 V2000
  194.3500  172.8870  142.9140 C   0  0  1  0  0  0  0  0  0  0  0  0
  192.0220  169.1450  137.9400 C   0  0  0  0  0  2  0  0  0  0  0  0
  192.6600  173.3600  139.3310 C   0  0  0  0  0  2  0  0  0  0  0  0
  194.7440  170.4760  141.5530 C   0  0  0  0  0  2  0  0  0  0  0  0
  192.6960  173.0330  144.6220 C   0  0  0  0  0  2  0  0  0  0  0  0
  189.5780  176.2600  145.9820 C   0  0  0  0  0  2  0  0  0  0  0  0
  191.7560  172.1520  139.1530 C   0  0  2  0  0  3  0  0  0  0  0  0
  188.9980  175.5420  143.5950 C   0  0  1  0  0  3  0  0  0  0  0  0
  192.0090  171.6990  137.8460 O   0  0  0  0  0  0  0  0  0  0  0  0
  193.4690  170.1750  140.9230 C   0  0  1  0  0  3  0  0  0  0  0  0
  189.6470  174.8580  142.2610 C   0  0  0  0  0  2  0  0  0  0  0  0
  195.5320  173.7100  142.4570 C   0  0  0  0  0  1  0  0  0  0  0  0
  189.7510  173.7970  138.8540 C   0  0  0  0  0  2  0  0  0  0  0  0
  190.9300  170.5230  136.0420 C   0  0  0  0  0  1  0  0  0  0  0  0
  189.9460  175.8010  144.7220 C   0  0  2  0  0  3  0  0  0  0  0  0
  187.7310  172.9050  140.5180 O   0  0  0  0  0  0  0  0  0  0  0  0
  193.4760  169.2490  138.3860 C   0  0  2  0  0  3  0  0  0  0  0  0
  192.0520  174.2650  144.6880 C   0  0  0  0  0  0  0  0  0  0  0  0
  194.1120  173.3160  144.3690 C   0  0  1  0  0  3  0  0  0  0  0  0
  188.4780  177.9820  143.2780 C   0  0  0  0  0  1  0  0  0  0  0  0
  195.6820  170.9870  143.6340 F   0  0  0  0  0  0  0  0  0  0  0  0
  191.3150  170.5200  137.5120 C   0  0  1  0  0  3  0  0  0  0  0  0
  187.7570  176.0370  141.7220 C   0  0  2  0  0  3  0  0  0  0  0  0
  188.1370  176.6440  143.0980 C   0  0  1  0  0  3  0  0  0  0  0  0
  187.4570  174.7560  138.9430 O   0  0  0  0  0  0  0  0  0  0  0  0
  191.2210  175.1650  144.7260 C   0  0  0  0  0  0  0  0  0  0  0  0
  192.0440  172.6140  142.0170 O   0  0  0  0  0  1  0  0  0  0  0  0
  193.1910  173.3830  141.8420 C   0  0  2  0  0  3  0  0  0  0  0  0
  193.7800  170.3400  139.3740 C   0  0  0  0  0  2  0  0  0  0  0  0
  190.3250  172.5520  139.4610 C   0  0  0  0  0  2  0  0  0  0  0  0
  188.3850  174.1360  139.9460 S   0  0  0  0  0  0  0  0  0  0  0  0
  188.9440  175.4210  141.0710 N   0  0  2  0  0  0  0  0  0  0  0  0
  193.7190  173.2340  140.4060 C   0  0  0  0  0  2  0  0  0  0  0  0
  194.5810  171.3400  142.8730 C   0  0  1  0  0  3  0  0  0  0  0  0
  195.5870  173.5780  146.1550 F   0  0  0  0  0  0  0  0  0  0  0  0
  194.2780  171.6460  146.1390 F   0  0  0  0  0  0  0  0  0  0  0  0
  194.9680  172.6130  145.3830 C   0  0  0  0  0  3  0  0  0  0  0  0
  194.4290  169.3220  137.2370 C   0  0  0  0  0  0  0  0  0  0  0  0
  194.2050  168.8640  136.0550 N   0  0  0  0  0  0  0  0  0  0  0  0
  195.2350  168.8380  135.0900 O   0  0  0  0  0  1  0  0  0  0  0  0
  195.7650  169.9970  137.6540 C   0  0  1  0  0  3  0  0  0  0  0  0
  197.4330  170.0600  139.5840 C   0  0  0  0  0  2  0  0  0  0  0  0
  196.9560  171.4830  139.0680 C   0  0  2  0  0  3  0  0  0  0  0  0
  195.6540  171.3750  138.2210 C   0  0  0  0  0  2  0  0  0  0  0  0
  196.4240  169.2050  138.7800 C   0  0  0  0  0  2  0  0  0  0  0  0
  197.9390  172.6900  138.8690 C   0  0  1  0  0  3  0  0  0  0  0  0
  197.8700  173.3970  137.5710 C   0  0  0  0  0  1  0  0  0  0  0  0
  197.5970  173.8490  139.6870 O   0  0  0  0  0  1  0  0  0  0  0  0
  187.5330  175.6640  147.0830 O   0  0  0  0  0  0  0  0  0  0  0  0
  188.3110  176.6020  146.6100 C   0  0  0  0  0  0  0  0  0  0  0  0
  187.8570  177.9060  146.6830 O   0  0  0  0  0  0  0  0  0  0  0  0
  185.7800  178.6280  147.5520 C   0  0  0  0  0  1  0  0  0  0  0  0
  186.4690  178.2020  146.2960 C   0  0  0  0  0  2  0  0  0  0  0  0
  194.0370  168.1660  141.6060 C   0  0  0  0  0  1  0  0  0  0  0  0
  192.8510  168.9690  141.2300 O   0  0  0  0  0  0  0  0  0  0  0  0
  186.9720  177.0470  140.9550 C   0  0  0  0  0  2  0  0  0  0  0  0
  182.8300  176.4180  140.1760 O   0  0  0  0  0  1  0  0  0  0  0  0
  185.3990  177.1650  141.1600 C   0  0  2  0  0  3  0  0  0  0  0  0
  182.3310  179.7900  140.1160 O   0  0  0  0  0  1  0  0  0  0  0  0
  184.8910  179.2420  140.4140 O   0  0  0  0  0  0  0  0  0  0  0  0
  184.7780  177.9260  140.0310 C   0  0  2  0  0  3  0  0  0  0  0  0
  184.9920  178.0580  142.6950 S   0  0  0  0  0  0  0  0  0  0  0  0
  184.0730  179.2140  141.5330 C   0  0  2  0  0  3  0  0  0  0  0  0
  183.2540  177.7590  139.8810 C   0  0  2  0  0  3  0  0  0  0  0  0
  182.7750  178.8060  140.9350 C   0  0  2  0  0  0  0  0  0  0  0  0
  179.1710  178.4990  142.2190 C   0  0  0  0  0  2  0  0  0  0  0  0
  180.3370  177.7250  141.6410 C   0  0  1  0  0  3  0  0  0  0  0  0
  181.8740  178.5480  143.3890 O   0  0  0  0  0  1  0  0  0  0  0  0
  180.3900  179.1940  141.6880 C   0  0  2  0  0  3  0  0  0  0  0  0
  181.6170  178.3860  142.0200 C   0  0  1  0  0  0  0  0  0  0  0  0
  1 12  1  6  0  0  0
  1 19  1  0  0  0  0
  2 17  1  0  0  0  0
  3 33  1  0  0  0  0
  4 34  1  0  0  0  0
  5 18  1  0  0  0  0
  6 50  1  0  0  0  0
  7  3  1  6  0  0  0
  7 30  1  0  0  0  0
  8 11  1  6  0  0  0
  8 15  1  0  0  0  0
  9  7  1  0  0  0  0
 10 55  1  6  0  0  0
 10  4  1  0  0  0  0
 13 30  1  0  0  0  0
 13 31  1  0  0  0  0
 15 26  1  0  0  0  0
 15  6  1  1  0  0  0
 17 38  1  6  0  0  0
 17 29  1  0  0  0  0
 18 26  3  0  0  0  0
 19  5  1  0  0  0  0
 19 37  1  1  0  0  0
 22 14  1  6  0  0  0
 22  9  1  0  0  0  0
 22  2  1  0  0  0  0
 23 56  1  6  0  0  0
 23 24  1  0  0  0  0
 24 20  1  6  0  0  0
 24  8  1  0  0  0  0
 25 31  2  0  0  0  0
 28 27  1  6  0  0  0
 28  1  1  0  0  0  0
 29 10  1  0  0  0  0
 31 16  2  0  0  0  0
 31 32  1  0  0  0  0
 32 23  1  0  0  0  0
 32 11  1  1  0  0  0
 33 28  1  0  0  0  0
 34  1  1  0  0  0  0
 34 21  1  1  0  0  0
 37 36  1  0  0  0  0
 37 35  1  0  0  0  0
 39 38  2  0  0  0  0
 40 39  1  0  0  0  0
 41 38  1  1  0  0  0
 41 44  1  0  0  0  0
 41 45  1  0  0  0  0
 43 46  1  6  0  0  0
 43 42  1  0  0  0  0
 44 43  1  0  0  0  0
 45 42  1  0  0  0  0
 46 47  1  6  0  0  0
 46 48  1  0  0  0  0
 50 51  1  0  0  0  0
 50 49  2  0  0  0  0
 53 51  1  0  0  0  0
 53 52  1  0  0  0  0
 55 54  1  0  0  0  0
 58 56  1  6  0  0  0
 58 62  1  0  0  0  0
 61 60  1  1  0  0  0
 61 58  1  0  0  0  0
 63 60  1  6  0  0  0
 63 62  1  0  0  0  0
 64 61  1  0  0  0  0
 64 57  1  1  0  0  0
 64 65  1  0  0  0  0
 65 59  1  6  0  0  0
 65 63  1  0  0  0  0
 65 70  1  0  0  0  0
 67 69  1  0  0  0  0
 67 70  1  0  0  0  0
 67 66  1  1  0  0  0
 69 70  1  0  0  0  0
 69 66  1  1  0  0  0
 70 68  1  1  0  0  0
M  END
>  <MODEL>
6

>  <REMARK>
 VINA RESULT:      -3.9      2.299      3.068
  Name = 
  11 active torsions:
  status: ('A' for Active; 'I' for Inactive)
    1  A    between atoms: C_1  and  C_42
    2  A    between atoms: C_11  and  C_61
    3  A    between atoms: C_12  and  C_63
    4  A    between atoms: C_18  and  C_35
    5  A    between atoms: C_20  and  O_44
    6  A    between atoms: C_28  and  C_42
    7  A    between atoms: C_34  and  C_47
    8  A    between atoms: C_41  and  C_61
    9  A    between atoms: C_53  and  C_60
   10  A    between atoms: C_63  and  O_66
   11  A    between atoms: O_66  and  C_68
                            x       y       z     vdW  Elec       q    Type
                         _______ _______ _______ _____ _____    ______ ____

>  <TORSDO>
F 11

$$$$
