=
 OpenBabel11062418563D

 33 36  0  0  1  0  0  0  0  0999 V2000
  193.7800  172.5430  143.2310 O   0  0  0  0  0  0  0  0  0  0  0  0
  187.2590  176.3130  144.0320 C   0  0  1  0  0  3  0  0  0  0  0  0
  191.5540  172.4550  142.3540 C   0  0  0  0  0  0  0  0  0  0  0  0
  193.9750  173.9270  143.2920 C   0  0  0  0  0  2  0  0  0  0  0  0
  192.2740  170.9600  144.1830 C   0  0  0  0  0  1  0  0  0  0  0  0
  190.2860  173.0880  142.4710 C   0  0  0  0  0  0  0  0  0  0  0  0
  190.5340  176.5120  145.0810 C   0  0  1  0  0  3  0  0  0  0  0  0
  188.6900  173.2000  139.0740 S   0  0  0  0  0  0  0  0  0  0  0  0
  191.2750  172.0690  139.9970 N   0  0  0  0  0  0  0  0  0  0  0  0
  193.9510  176.5280  145.1200 C   0  0  0  0  0  2  0  0  0  0  0  0
  188.3070  173.6860  140.6880 C   0  0  1  0  0  3  0  0  0  0  0  0
  189.5690  173.1940  141.3020 C   0  0  0  0  0  0  0  0  0  0  0  0
  195.1250  175.7800  144.5050 C   0  0  0  0  0  2  0  0  0  0  0  0
  190.0840  172.6830  140.0940 C   0  0  0  0  0  0  0  0  0  0  0  0
  188.1270  176.0920  142.8020 C   0  0  0  0  0  2  0  0  0  0  0  0
  189.7990  173.5700  143.6800 O   0  0  0  0  0  1  0  0  0  0  0  0
  187.3410  175.5840  141.7660 O   0  0  0  0  0  0  0  0  0  0  0  0
  185.7880  177.7860  145.2670 C   0  0  1  0  0  3  0  0  0  0  0  0
  192.4350  172.3340  143.5630 C   0  0  1  0  0  3  0  0  0  0  0  0
  189.2560  177.3220  145.2520 C   0  0  0  0  0  2  0  0  0  0  0  0
  188.0310  176.4150  145.3420 C   0  0  1  0  0  3  0  0  0  0  0  0
  191.6790  177.4660  144.7390 C   0  0  0  0  0  2  0  0  0  0  0  0
  194.8740  174.2800  144.4630 C   0  0  0  0  0  2  0  0  0  0  0  0
  191.9910  171.9640  141.1310 N   0  0  0  0  0  0  0  0  0  0  0  0
  186.4110  177.5550  143.9030 C   0  0  0  0  0  2  0  0  0  0  0  0
  192.8480  176.7400  144.0970 C   0  0  0  0  0  2  0  0  0  0  0  0
  186.8890  177.1230  146.5660 S   0  0  0  0  0  0  0  0  0  0  0  0
  188.2430  175.2040  140.7720 C   0  0  0  0  0  2  0  0  0  0  0  0
  191.6430  174.5830  146.0210 O   0  0  0  0  0  1  0  0  0  0  0  0
  190.8040  175.6530  146.3270 C   0  0  1  0  0  3  0  0  0  0  0  0
  191.3710  176.4500  147.4920 C   0  0  0  0  0  1  0  0  0  0  0  0
  185.4890  180.0000  144.2420 N   0  0  0  0  0  1  0  0  0  0  0  0
  185.4720  179.2600  145.4950 C   0  0  0  0  0  2  0  0  0  0  0  0
  1  4  1  0  0  0  0
  1 19  1  0  0  0  0
  2 15  1  6  0  0  0
  2 21  1  0  0  0  0
  3  6  1  0  0  0  0
  3 19  1  0  0  0  0
  4 23  1  0  0  0  0
  6 16  1  0  0  0  0
  7 20  1  0  0  0  0
  7 30  1  1  0  0  0
  8 14  1  0  0  0  0
  8 11  1  0  0  0  0
  9 14  2  0  0  0  0
  9 24  1  0  0  0  0
 11 28  1  6  0  0  0
 11 12  1  0  0  0  0
 12  6  2  0  0  0  0
 13 10  1  0  0  0  0
 14 12  1  0  0  0  0
 17 15  1  0  0  0  0
 18 33  1  1  0  0  0
 18 27  1  0  0  0  0
 19  5  1  6  0  0  0
 21 20  1  6  0  0  0
 21 27  1  0  0  0  0
 22  7  1  0  0  0  0
 23 13  1  0  0  0  0
 24  3  2  0  0  0  0
 25  2  1  0  0  0  0
 25 18  1  0  0  0  0
 26 22  1  0  0  0  0
 26 10  1  0  0  0  0
 28 17  1  0  0  0  0
 29 30  1  0  0  0  0
 30 31  1  1  0  0  0
 32 33  1  0  0  0  0
M  END
>  <MODEL>
1

>  <REMARK>
 VINA RESULT:      -7.9      0.000      0.000
  Name = 
  2 active torsions:
  status: ('A' for Active; 'I' for Inactive)
    1  A    between atoms: C_8  and  C_23
    2  A    between atoms: C_20  and  C_26
                            x       y       z     vdW  Elec       q    Type
                         _______ _______ _______ _____ _____    ______ ____

>  <TORSDO>
F 2

$$$$
=
 OpenBabel11062418563D

 33 36  0  0  1  0  0  0  0  0999 V2000
  193.5300  172.6780  143.4390 O   0  0  0  0  0  0  0  0  0  0  0  0
  187.5920  177.3760  143.2040 C   0  0  1  0  0  3  0  0  0  0  0  0
  192.8230  174.7070  144.4950 C   0  0  0  0  0  0  0  0  0  0  0  0
  192.3140  171.9890  143.3720 C   0  0  0  0  0  2  0  0  0  0  0  0
  194.4090  174.7290  142.6020 C   0  0  0  0  0  1  0  0  0  0  0  0
  191.7630  175.6550  144.4870 C   0  0  0  0  0  0  0  0  0  0  0  0
  188.5770  174.3470  141.8920 C   0  0  1  0  0  3  0  0  0  0  0  0
  191.1960  176.8410  148.0050 S   0  0  0  0  0  0  0  0  0  0  0  0
  193.1670  174.9350  146.8640 N   0  0  0  0  0  0  0  0  0  0  0  0
  189.8220  171.1810  141.5720 C   0  0  0  0  0  2  0  0  0  0  0  0
  190.5430  177.1340  146.4310 C   0  0  1  0  0  3  0  0  0  0  0  0
  191.4440  176.1940  145.7120 C   0  0  0  0  0  0  0  0  0  0  0  0
  190.9730  170.3270  142.0830 C   0  0  0  0  0  2  0  0  0  0  0  0
  192.1540  175.8170  146.8690 C   0  0  0  0  0  0  0  0  0  0  0  0
  188.1640  176.5640  144.3570 C   0  0  0  0  0  2  0  0  0  0  0  0
  191.0900  176.0160  143.3270 O   0  0  0  0  0  1  0  0  0  0  0  0
  188.3850  177.4030  145.4500 O   0  0  0  0  0  0  0  0  0  0  0  0
  185.6360  178.2820  142.1050 C   0  0  1  0  0  3  0  0  0  0  0  0
  193.2150  174.0250  143.2170 C   0  0  1  0  0  3  0  0  0  0  0  0
  187.3470  175.2430  141.8310 C   0  0  0  0  0  2  0  0  0  0  0  0
  187.7340  176.7200  141.8360 C   0  0  1  0  0  3  0  0  0  0  0  0
  188.1270  172.9080  142.1450 C   0  0  0  0  0  2  0  0  0  0  0  0
  192.2750  171.1120  142.1340 C   0  0  0  0  0  2  0  0  0  0  0  0
  193.4860  174.3950  145.6740 N   0  0  0  0  0  0  0  0  0  0  0  0
  186.1310  177.6920  143.4120 C   0  0  0  0  0  2  0  0  0  0  0  0
  189.2560  172.0480  142.6830 C   0  0  0  0  0  2  0  0  0  0  0  0
  186.6090  177.6050  140.7160 S   0  0  0  0  0  0  0  0  0  0  0  0
  189.1080  176.6360  146.3640 C   0  0  0  0  0  2  0  0  0  0  0  0
  190.7230  174.0350  140.8270 O   0  0  0  0  0  1  0  0  0  0  0  0
  189.4280  174.5080  140.6210 C   0  0  1  0  0  3  0  0  0  0  0  0
  188.8130  173.8410  139.4000 C   0  0  0  0  0  1  0  0  0  0  0  0
  183.7250  178.3820  140.5620 N   0  0  0  0  0  1  0  0  0  0  0  0
  184.1420  178.0450  141.9150 C   0  0  0  0  0  2  0  0  0  0  0  0
  2 25  1  1  0  0  0
  2 15  1  0  0  0  0
  3 24  1  0  0  0  0
  4  1  1  0  0  0  0
  6  3  2  0  0  0  0
  6 12  1  0  0  0  0
  7 30  1  6  0  0  0
  7 22  1  0  0  0  0
  9 14  1  0  0  0  0
 10 13  1  0  0  0  0
 10 26  1  0  0  0  0
 11 28  1  1  0  0  0
 11  8  1  0  0  0  0
 12 11  1  0  0  0  0
 12 14  2  0  0  0  0
 13 23  1  0  0  0  0
 14  8  1  0  0  0  0
 15 17  1  0  0  0  0
 16  6  1  0  0  0  0
 17 28  1  0  0  0  0
 18 33  1  6  0  0  0
 18 25  1  0  0  0  0
 19  5  1  1  0  0  0
 19  1  1  0  0  0  0
 19  3  1  0  0  0  0
 20  7  1  0  0  0  0
 21 20  1  1  0  0  0
 21  2  1  0  0  0  0
 22 26  1  0  0  0  0
 23  4  1  0  0  0  0
 24  9  2  0  0  0  0
 27 21  1  0  0  0  0
 27 18  1  0  0  0  0
 30 31  1  6  0  0  0
 30 29  1  0  0  0  0
 32 33  1  0  0  0  0
M  END
>  <MODEL>
2

>  <REMARK>
 VINA RESULT:      -7.4      2.642      5.318
  Name = 
  2 active torsions:
  status: ('A' for Active; 'I' for Inactive)
    1  A    between atoms: C_8  and  C_23
    2  A    between atoms: C_20  and  C_26
                            x       y       z     vdW  Elec       q    Type
                         _______ _______ _______ _____ _____    ______ ____

>  <TORSDO>
F 2

$$$$
=
 OpenBabel11062418563D

 33 36  0  0  1  0  0  0  0  0999 V2000
  194.5740  172.1060  141.7460 O   0  0  0  0  0  0  0  0  0  0  0  0
  188.9890  176.9540  143.3850 C   0  0  1  0  0  3  0  0  0  0  0  0
  194.3240  174.2480  142.7860 C   0  0  0  0  0  0  0  0  0  0  0  0
  193.4340  171.4540  142.2300 C   0  0  0  0  0  2  0  0  0  0  0  0
  195.0400  174.0390  140.4320 C   0  0  0  0  0  1  0  0  0  0  0  0
  193.3400  175.2250  143.0990 C   0  0  0  0  0  0  0  0  0  0  0  0
  189.4000  173.7830  142.1020 C   0  0  1  0  0  3  0  0  0  0  0  0
  194.1910  176.7570  146.4200 S   0  0  0  0  0  0  0  0  0  0  0  0
  195.5690  174.6880  144.7960 N   0  0  0  0  0  0  0  0  0  0  0  0
  190.4410  170.5620  141.6390 C   0  0  0  0  0  2  0  0  0  0  0  0
  192.9710  176.9210  145.2060 C   0  0  1  0  0  3  0  0  0  0  0  0
  193.5240  175.8880  144.2910 C   0  0  0  0  0  0  0  0  0  0  0  0
  191.7060  169.7220  141.7420 C   0  0  0  0  0  2  0  0  0  0  0  0
  194.6330  175.5990  145.1090 C   0  0  0  0  0  0  0  0  0  0  0  0
  189.9730  176.2360  144.2970 C   0  0  0  0  0  2  0  0  0  0  0  0
  192.2630  175.4970  142.2640 O   0  0  0  0  0  1  0  0  0  0  0  0
  190.5990  177.1670  145.1270 O   0  0  0  0  0  0  0  0  0  0  0  0
  186.7510  177.8150  143.0540 C   0  0  1  0  0  3  0  0  0  0  0  0
  194.1880  173.4350  141.5320 C   0  0  1  0  0  3  0  0  0  0  0  0
  188.2380  174.7090  142.4390 C   0  0  0  0  0  2  0  0  0  0  0  0
  188.5860  176.1670  142.1430 C   0  0  1  0  0  3  0  0  0  0  0  0
  189.0950  172.3900  142.6540 C   0  0  0  0  0  2  0  0  0  0  0  0
  192.9180  170.4650  141.2000 C   0  0  0  0  0  2  0  0  0  0  0  0
  195.3990  174.0270  143.6370 N   0  0  0  0  0  0  0  0  0  0  0  0
  187.7240  177.3350  144.1150 C   0  0  0  0  0  2  0  0  0  0  0  0
  190.3510  171.5480  142.7910 C   0  0  0  0  0  2  0  0  0  0  0  0
  187.1060  176.9780  141.4700 S   0  0  0  0  0  0  0  0  0  0  0  0
  191.6280  176.4670  145.7560 C   0  0  0  0  0  2  0  0  0  0  0  0
  190.9840  173.3730  140.3250 O   0  0  0  0  0  1  0  0  0  0  0  0
  189.6830  173.7950  140.5910 C   0  0  1  0  0  3  0  0  0  0  0  0
  188.6880  172.9680  139.7890 C   0  0  0  0  0  1  0  0  0  0  0  0
  184.3830  177.9170  142.4050 N   0  0  0  0  0  1  0  0  0  0  0  0
  185.3040  177.6100  143.4890 C   0  0  0  0  0  2  0  0  0  0  0  0
  1  4  1  0  0  0  0
  2 25  1  1  0  0  0
  2 15  1  0  0  0  0
  3  6  2  0  0  0  0
  3 24  1  0  0  0  0
  6 12  1  0  0  0  0
  7 30  1  6  0  0  0
  7 20  1  0  0  0  0
  7 22  1  0  0  0  0
  9 14  1  0  0  0  0
 10 13  1  0  0  0  0
 10 26  1  0  0  0  0
 11 28  1  1  0  0  0
 11  8  1  0  0  0  0
 12 14  2  0  0  0  0
 12 11  1  0  0  0  0
 14  8  1  0  0  0  0
 15 17  1  0  0  0  0
 16  6  1  0  0  0  0
 17 28  1  0  0  0  0
 18 33  1  1  0  0  0
 18 25  1  0  0  0  0
 19  5  1  6  0  0  0
 19  1  1  0  0  0  0
 19  3  1  0  0  0  0
 21 20  1  1  0  0  0
 21  2  1  0  0  0  0
 22 26  1  0  0  0  0
 23 13  1  0  0  0  0
 23  4  1  0  0  0  0
 24  9  2  0  0  0  0
 27 21  1  0  0  0  0
 27 18  1  0  0  0  0
 29 30  1  0  0  0  0
 30 31  1  6  0  0  0
 32 33  1  0  0  0  0
M  END
>  <MODEL>
3

>  <REMARK>
 VINA RESULT:      -7.2      2.683      5.297
  Name = 
  2 active torsions:
  status: ('A' for Active; 'I' for Inactive)
    1  A    between atoms: C_8  and  C_23
    2  A    between atoms: C_20  and  C_26
                            x       y       z     vdW  Elec       q    Type
                         _______ _______ _______ _____ _____    ______ ____

>  <TORSDO>
F 2

$$$$
=
 OpenBabel11062418563D

 33 36  0  0  1  0  0  0  0  0999 V2000
  187.4320  177.0660  143.2160 O   0  0  0  0  0  0  0  0  0  0  0  0
  194.0420  173.4250  143.8730 C   0  0  1  0  0  3  0  0  0  0  0  0
  188.9240  175.8210  141.8180 C   0  0  0  0  0  0  0  0  0  0  0  0
  187.5090  176.3210  144.3980 C   0  0  0  0  0  2  0  0  0  0  0  0
  188.9420  178.2910  141.8360 C   0  0  0  0  0  1  0  0  0  0  0  0
  190.1750  175.1460  141.8490 C   0  0  0  0  0  0  0  0  0  0  0  0
  191.7410  175.0380  145.8660 C   0  0  1  0  0  3  0  0  0  0  0  0
  189.9520  172.1140  139.6450 S   0  0  0  0  0  0  0  0  0  0  0  0
  187.9800  174.2450  140.2660 N   0  0  0  0  0  0  0  0  0  0  0  0
  188.8080  176.0640  147.2870 C   0  0  0  0  0  2  0  0  0  0  0  0
  191.1300  172.8880  140.6470 C   0  0  1  0  0  3  0  0  0  0  0  0
  190.2540  174.0120  141.0740 C   0  0  0  0  0  0  0  0  0  0  0  0
  187.3830  176.4160  146.8880 C   0  0  0  0  0  2  0  0  0  0  0  0
  189.1520  173.5900  140.3050 C   0  0  0  0  0  0  0  0  0  0  0  0
  192.6690  172.9140  143.4600 C   0  0  0  0  0  2  0  0  0  0  0  0
  191.2490  175.5940  142.6090 O   0  0  0  0  0  1  0  0  0  0  0  0
  192.7750  172.2330  142.2460 O   0  0  0  0  0  0  0  0  0  0  0  0
  196.1330  172.9970  145.0140 C   0  0  1  0  0  3  0  0  0  0  0  0
  188.7210  177.0410  142.6670 C   0  0  1  0  0  3  0  0  0  0  0  0
  193.0550  174.2910  146.0570 C   0  0  0  0  0  2  0  0  0  0  0  0
  194.0160  174.5520  144.8990 C   0  0  1  0  0  3  0  0  0  0  0  0
  190.7370  174.5410  146.9060 C   0  0  0  0  0  2  0  0  0  0  0  0
  187.3450  177.2300  145.6020 C   0  0  0  0  0  2  0  0  0  0  0  0
  187.8870  175.3530  141.0240 N   0  0  0  0  0  0  0  0  0  0  0  0
  194.9080  172.3210  144.4280 C   0  0  0  0  0  2  0  0  0  0  0  0
  189.3070  174.8580  146.5090 C   0  0  0  0  0  2  0  0  0  0  0  0
  195.6980  174.6800  145.5750 S   0  0  0  0  0  0  0  0  0  0  0  0
  191.4610  172.0020  141.8380 C   0  0  0  0  0  2  0  0  0  0  0  0
  190.9300  177.2350  145.2760 O   0  0  0  0  0  1  0  0  0  0  0  0
  191.9690  176.5570  145.9120 C   0  0  1  0  0  3  0  0  0  0  0  0
  192.1590  177.0920  147.3240 C   0  0  0  0  0  1  0  0  0  0  0  0
  197.1910  170.8720  145.6510 N   0  0  0  0  0  1  0  0  0  0  0  0
  196.7450  172.1690  146.1380 C   0  0  0  0  0  2  0  0  0  0  0  0
  1  4  1  0  0  0  0
  2 15  1  1  0  0  0
  2 25  1  0  0  0  0
  2 21  1  0  0  0  0
  3  6  1  0  0  0  0
  3 19  1  0  0  0  0
  4 23  1  0  0  0  0
  6 16  1  0  0  0  0
  7 30  1  1  0  0  0
  7 20  1  0  0  0  0
  7 22  1  0  0  0  0
  8 14  1  0  0  0  0
  8 11  1  0  0  0  0
  9 14  2  0  0  0  0
  9 24  1  0  0  0  0
 11 12  1  0  0  0  0
 11 28  1  1  0  0  0
 12  6  2  0  0  0  0
 13 10  1  0  0  0  0
 14 12  1  0  0  0  0
 17 15  1  0  0  0  0
 18 27  1  0  0  0  0
 18 33  1  1  0  0  0
 19  5  1  6  0  0  0
 19  1  1  0  0  0  0
 21 27  1  0  0  0  0
 21 20  1  1  0  0  0
 23 13  1  0  0  0  0
 24  3  2  0  0  0  0
 25 18  1  0  0  0  0
 26 22  1  0  0  0  0
 26 10  1  0  0  0  0
 28 17  1  0  0  0  0
 29 30  1  0  0  0  0
 30 31  1  1  0  0  0
 32 33  1  0  0  0  0
M  END
>  <MODEL>
4

>  <REMARK>
 VINA RESULT:      -6.9      2.801      6.624
  Name = 
  2 active torsions:
  status: ('A' for Active; 'I' for Inactive)
    1  A    between atoms: C_8  and  C_23
    2  A    between atoms: C_20  and  C_26
                            x       y       z     vdW  Elec       q    Type
                         _______ _______ _______ _____ _____    ______ ____

>  <TORSDO>
F 2

$$$$
=
 OpenBabel11062418563D

 33 36  0  0  1  0  0  0  0  0999 V2000
  188.3100  176.1510  145.3490 O   0  0  0  0  0  0  0  0  0  0  0  0
  194.2330  174.8490  140.8100 C   0  0  1  0  0  3  0  0  0  0  0  0
  188.7060  175.6000  143.0530 C   0  0  0  0  0  0  0  0  0  0  0  0
  189.2900  175.3680  145.9710 C   0  0  0  0  0  2  0  0  0  0  0  0
  188.2600  177.9250  143.7580 C   0  0  0  0  0  1  0  0  0  0  0  0
  189.7620  175.3760  142.1280 C   0  0  0  0  0  0  0  0  0  0  0  0
  193.5760  175.4230  144.1420 C   0  0  1  0  0  3  0  0  0  0  0  0
  188.7200  172.6540  139.7600 S   0  0  0  0  0  0  0  0  0  0  0  0
  187.2940  173.9500  142.0200 N   0  0  0  0  0  0  0  0  0  0  0  0
  192.1920  175.2900  147.2640 C   0  0  0  0  0  2  0  0  0  0  0  0
  190.0890  173.6790  140.0150 C   0  0  1  0  0  3  0  0  0  0  0  0
  189.5230  174.4070  141.1810 C   0  0  0  0  0  0  0  0  0  0  0  0
  190.8270  175.1880  147.9270 C   0  0  0  0  0  2  0  0  0  0  0  0
  188.2950  173.7180  141.1540 C   0  0  0  0  0  0  0  0  0  0  0  0
  193.0620  173.9530  141.1860 C   0  0  0  0  0  2  0  0  0  0  0  0
  190.9590  176.0810  142.1730 O   0  0  0  0  0  1  0  0  0  0  0  0
  192.4650  173.4590  140.0250 O   0  0  0  0  0  0  0  0  0  0  0  0
  196.5870  175.0310  140.2740 C   0  0  1  0  0  3  0  0  0  0  0  0
  188.8870  176.6020  144.1550 C   0  0  1  0  0  3  0  0  0  0  0  0
  194.7970  175.1370  143.2790 C   0  0  0  0  0  2  0  0  0  0  0  0
  194.6780  175.8050  141.9100 C   0  0  1  0  0  3  0  0  0  0  0  0
  193.6300  174.5300  145.3820 C   0  0  0  0  0  2  0  0  0  0  0  0
  189.7950  176.0580  147.2240 C   0  0  0  0  0  2  0  0  0  0  0  0
  187.5170  174.8910  142.9560 N   0  0  0  0  0  0  0  0  0  0  0  0
  195.4390  174.0460  140.3860 C   0  0  0  0  0  2  0  0  0  0  0  0
  192.2690  174.3930  146.0400 C   0  0  0  0  0  2  0  0  0  0  0  0
  196.3220  176.4180  141.4330 S   0  0  0  0  0  0  0  0  0  0  0  0
  191.2860  172.8470  140.4490 C   0  0  0  0  0  2  0  0  0  0  0  0
  192.1810  177.2730  144.8250 O   0  0  0  0  0  1  0  0  0  0  0  0
  193.4820  176.9220  144.4710 C   0  0  1  0  0  3  0  0  0  0  0  0
  194.4580  177.3600  145.5540 C   0  0  0  0  0  1  0  0  0  0  0  0
  197.8510  173.3850  141.5900 N   0  0  0  0  0  1  0  0  0  0  0  0
  197.9320  174.3520  140.5060 C   0  0  0  0  0  2  0  0  0  0  0  0
  1  4  1  0  0  0  0
  2 25  1  1  0  0  0
  2 15  1  0  0  0  0
  2 21  1  0  0  0  0
  3 19  1  0  0  0  0
  4 23  1  0  0  0  0
  6 16  1  0  0  0  0
  6  3  2  0  0  0  0
  7 30  1  1  0  0  0
  7 22  1  0  0  0  0
  8 11  1  0  0  0  0
  8 14  1  0  0  0  0
  9 24  2  0  0  0  0
 10 13  1  0  0  0  0
 11 28  1  1  0  0  0
 11 12  1  0  0  0  0
 12  6  1  0  0  0  0
 14 12  2  0  0  0  0
 14  9  1  0  0  0  0
 17 28  1  0  0  0  0
 17 15  1  0  0  0  0
 18 25  1  0  0  0  0
 18 33  1  1  0  0  0
 18 27  1  0  0  0  0
 19  5  1  6  0  0  0
 19  1  1  0  0  0  0
 20  7  1  0  0  0  0
 21 20  1  1  0  0  0
 22 26  1  0  0  0  0
 23 13  1  0  0  0  0
 24  3  1  0  0  0  0
 26 10  1  0  0  0  0
 27 21  1  0  0  0  0
 30 29  1  0  0  0  0
 30 31  1  1  0  0  0
 33 32  1  0  0  0  0
M  END
>  <MODEL>
5

>  <REMARK>
 VINA RESULT:      -6.8      3.084      6.599
  Name = 
  2 active torsions:
  status: ('A' for Active; 'I' for Inactive)
    1  A    between atoms: C_8  and  C_23
    2  A    between atoms: C_20  and  C_26
                            x       y       z     vdW  Elec       q    Type
                         _______ _______ _______ _____ _____    ______ ____

>  <TORSDO>
F 2

$$$$
=
 OpenBabel11062418563D

 33 36  0  0  1  0  0  0  0  0999 V2000
  192.6620  174.1400  141.8880 O   0  0  0  0  0  0  0  0  0  0  0  0
  187.0980  177.9930  145.2910 C   0  0  1  0  0  3  0  0  0  0  0  0
  192.3100  175.3150  143.9440 C   0  0  0  0  0  0  0  0  0  0  0  0
  191.4190  173.5170  141.7350 C   0  0  0  0  0  2  0  0  0  0  0  0
  193.4750  176.3750  142.0420 C   0  0  0  0  0  1  0  0  0  0  0  0
  191.3310  176.0790  144.6350 C   0  0  0  0  0  0  0  0  0  0  0  0
  187.6090  176.1010  142.4570 C   0  0  1  0  0  3  0  0  0  0  0  0
  191.5660  175.2910  148.2990 S   0  0  0  0  0  0  0  0  0  0  0  0
  193.1430  174.3300  145.9740 N   0  0  0  0  0  0  0  0  0  0  0  0
  188.5680  173.6030  140.3330 C   0  0  0  0  0  2  0  0  0  0  0  0
  190.6250  176.3050  147.2630 C   0  0  1  0  0  3  0  0  0  0  0  0
  191.3010  175.9060  146.0000 C   0  0  0  0  0  0  0  0  0  0  0  0
  189.7440  172.6680  140.0920 C   0  0  0  0  0  2  0  0  0  0  0  0
  192.2080  175.0340  146.6330 C   0  0  0  0  0  0  0  0  0  0  0  0
  187.8430  176.7400  145.7280 C   0  0  0  0  0  2  0  0  0  0  0  0
  190.4580  176.9430  143.9840 O   0  0  0  0  0  1  0  0  0  0  0  0
  188.3320  176.9210  147.0230 O   0  0  0  0  0  0  0  0  0  0  0  0
  185.0170  179.2270  145.2310 C   0  0  1  0  0  3  0  0  0  0  0  0
  192.3920  175.3950  142.4480 C   0  0  1  0  0  3  0  0  0  0  0  0
  186.4490  176.8380  143.1130 C   0  0  0  0  0  2  0  0  0  0  0  0
  186.9180  178.1280  143.7830 C   0  0  1  0  0  3  0  0  0  0  0  0
  187.1330  174.7110  142.0350 C   0  0  0  0  0  2  0  0  0  0  0  0
  191.0750  173.3870  140.2620 C   0  0  0  0  0  2  0  0  0  0  0  0
  193.1790  174.4840  144.6380 N   0  0  0  0  0  0  0  0  0  0  0  0
  185.7320  178.0830  145.9250 C   0  0  0  0  0  2  0  0  0  0  0  0
  188.2940  173.7570  141.8190 C   0  0  0  0  0  2  0  0  0  0  0  0
  185.6430  179.3980  143.5240 S   0  0  0  0  0  0  0  0  0  0  0  0
  189.1780  175.8360  147.2510 C   0  0  0  0  0  2  0  0  0  0  0  0
  187.2160  177.1900  140.3360 O   0  0  0  0  0  1  0  0  0  0  0  0
  188.1910  176.9270  141.2980 C   0  0  1  0  0  3  0  0  0  0  0  0
  188.8410  178.2250  141.7560 C   0  0  0  0  0  1  0  0  0  0  0  0
  182.9500  179.0410  143.9150 N   0  0  0  0  0  1  0  0  0  0  0  0
  183.5040  179.0410  145.2600 C   0  0  0  0  0  2  0  0  0  0  0  0
  1 19  1  0  0  0  0
  2 15  1  6  0  0  0
  2 25  1  0  0  0  0
  3  6  2  0  0  0  0
  3 24  1  0  0  0  0
  4  1  1  0  0  0  0
  6 12  1  0  0  0  0
  7 30  1  6  0  0  0
  7 20  1  0  0  0  0
  9 14  1  0  0  0  0
 10 26  1  0  0  0  0
 11 28  1  6  0  0  0
 11  8  1  0  0  0  0
 12 14  2  0  0  0  0
 12 11  1  0  0  0  0
 13 23  1  0  0  0  0
 13 10  1  0  0  0  0
 14  8  1  0  0  0  0
 15 17  1  0  0  0  0
 16  6  1  0  0  0  0
 17 28  1  0  0  0  0
 18 33  1  6  0  0  0
 18 25  1  0  0  0  0
 19  5  1  1  0  0  0
 19  3  1  0  0  0  0
 21 20  1  1  0  0  0
 21  2  1  0  0  0  0
 22  7  1  0  0  0  0
 23  4  1  0  0  0  0
 24  9  2  0  0  0  0
 26 22  1  0  0  0  0
 27 21  1  0  0  0  0
 27 18  1  0  0  0  0
 29 30  1  0  0  0  0
 30 31  1  1  0  0  0
 32 33  1  0  0  0  0
M  END
>  <MODEL>
6

>  <REMARK>
 VINA RESULT:      -6.7      2.711      5.266
  Name = 
  2 active torsions:
  status: ('A' for Active; 'I' for Inactive)
    1  A    between atoms: C_8  and  C_23
    2  A    between atoms: C_20  and  C_26
                            x       y       z     vdW  Elec       q    Type
                         _______ _______ _______ _____ _____    ______ ____

>  <TORSDO>
F 2

$$$$
=
 OpenBabel11062418563D

 33 36  0  0  1  0  0  0  0  0999 V2000
  190.7550  176.9790  146.7900 O   0  0  0  0  0  0  0  0  0  0  0  0
  192.7240  173.1010  140.5870 C   0  0  1  0  0  3  0  0  0  0  0  0
  192.7540  176.1300  145.7810 C   0  0  0  0  0  0  0  0  0  0  0  0
  190.0610  177.4110  145.6550 C   0  0  0  0  0  2  0  0  0  0  0  0
  191.6230  174.9160  147.6110 C   0  0  0  0  0  1  0  0  0  0  0  0
  193.2020  175.3780  144.6610 C   0  0  0  0  0  0  0  0  0  0  0  0
  189.9240  174.5410  141.9860 C   0  0  1  0  0  3  0  0  0  0  0  0
  196.4860  176.7900  143.5110 S   0  0  0  0  0  0  0  0  0  0  0  0
  194.7060  177.5340  145.7690 N   0  0  0  0  0  0  0  0  0  0  0  0
  187.8080  176.7470  143.5140 C   0  0  0  0  0  2  0  0  0  0  0  0
  195.4130  175.5100  143.0650 C   0  0  1  0  0  3  0  0  0  0  0  0
  194.4090  175.7720  144.1300 C   0  0  0  0  0  0  0  0  0  0  0  0
  187.8070  177.7640  144.6460 C   0  0  0  0  0  2  0  0  0  0  0  0
  195.1280  176.8410  144.6980 C   0  0  0  0  0  0  0  0  0  0  0  0
  193.1320  174.4910  141.0550 C   0  0  0  0  0  2  0  0  0  0  0  0
  192.4760  174.3180  144.1310 O   0  0  0  0  0  1  0  0  0  0  0  0
  194.5240  174.5890  141.0510 O   0  0  0  0  0  0  0  0  0  0  0  0
  192.1970  171.6310  138.7380 C   0  0  1  0  0  3  0  0  0  0  0  0
  191.4260  175.8110  146.4030 C   0  0  1  0  0  3  0  0  0  0  0  0
  190.2720  173.7880  140.7090 C   0  0  0  0  0  2  0  0  0  0  0  0
  191.3060  172.6950  140.9720 C   0  0  1  0  0  3  0  0  0  0  0  0
  189.0950  175.7730  141.6210 C   0  0  0  0  0  2  0  0  0  0  0  0
  188.5660  177.2510  145.8610 C   0  0  0  0  0  2  0  0  0  0  0  0
  193.5240  177.1640  146.2940 N   0  0  0  0  0  0  0  0  0  0  0  0
  192.8520  172.9530  139.0910 C   0  0  0  0  0  2  0  0  0  0  0  0
  189.1080  176.8110  142.7290 C   0  0  0  0  0  2  0  0  0  0  0  0
  190.8810  171.2540  139.9490 S   0  0  0  0  0  0  0  0  0  0  0  0
  194.8100  175.7920  141.6980 C   0  0  0  0  0  2  0  0  0  0  0  0
  189.2880  174.1350  144.2810 O   0  0  0  0  0  1  0  0  0  0  0  0
  189.2270  173.6100  142.9920 C   0  0  1  0  0  3  0  0  0  0  0  0
  187.7850  173.2980  142.6190 C   0  0  0  0  0  1  0  0  0  0  0  0
  190.6450  172.6570  137.1330 N   0  0  0  0  0  1  0  0  0  0  0  0
  191.6640  171.6340  137.3100 C   0  0  0  0  0  2  0  0  0  0  0  0
  2 25  1  6  0  0  0
  2 21  1  0  0  0  0
  2 15  1  0  0  0  0
  3 24  1  0  0  0  0
  3 19  1  0  0  0  0
  4 23  1  0  0  0  0
  4  1  1  0  0  0  0
  6  3  2  0  0  0  0
  7 30  1  1  0  0  0
  8 14  1  0  0  0  0
  9 24  2  0  0  0  0
 10 13  1  0  0  0  0
 11 28  1  6  0  0  0
 11  8  1  0  0  0  0
 11 12  1  0  0  0  0
 12  6  1  0  0  0  0
 12 14  2  0  0  0  0
 13 23  1  0  0  0  0
 14  9  1  0  0  0  0
 16  6  1  0  0  0  0
 17 15  1  0  0  0  0
 17 28  1  0  0  0  0
 18 33  1  6  0  0  0
 18 25  1  0  0  0  0
 18 27  1  0  0  0  0
 19  1  1  0  0  0  0
 19  5  1  1  0  0  0
 20  7  1  0  0  0  0
 21 20  1  6  0  0  0
 22  7  1  0  0  0  0
 22 26  1  0  0  0  0
 26 10  1  0  0  0  0
 27 21  1  0  0  0  0
 30 31  1  6  0  0  0
 30 29  1  0  0  0  0
 32 33  1  0  0  0  0
M  END
>  <MODEL>
7

>  <REMARK>
 VINA RESULT:      -6.5      3.139      7.150
  Name = 
  2 active torsions:
  status: ('A' for Active; 'I' for Inactive)
    1  A    between atoms: C_8  and  C_23
    2  A    between atoms: C_20  and  C_26
                            x       y       z     vdW  Elec       q    Type
                         _______ _______ _______ _____ _____    ______ ____

>  <TORSDO>
F 2

$$$$
=
 OpenBabel11062418563D

 33 36  0  0  1  0  0  0  0  0999 V2000
  193.9370  176.7060  145.3930 O   0  0  0  0  0  0  0  0  0  0  0  0
  192.8630  171.1550  140.3510 C   0  0  1  0  0  3  0  0  0  0  0  0
  195.2120  175.5270  143.7450 C   0  0  0  0  0  0  0  0  0  0  0  0
  192.7120  176.8260  144.7280 C   0  0  0  0  0  2  0  0  0  0  0  0
  195.3380  174.9270  146.1380 C   0  0  0  0  0  1  0  0  0  0  0  0
  195.1030  174.4710  142.7990 C   0  0  0  0  0  0  0  0  0  0  0  0
  191.0390  173.0420  142.5830 C   0  0  1  0  0  3  0  0  0  0  0  0
  197.1320  175.3680  139.7690 S   0  0  0  0  0  0  0  0  0  0  0  0
  196.6990  176.7900  142.3390 N   0  0  0  0  0  0  0  0  0  0  0  0
  189.7730  175.6730  144.3580 C   0  0  0  0  0  2  0  0  0  0  0  0
  196.1410  174.0580  140.3080 C   0  0  1  0  0  3  0  0  0  0  0  0
  195.8070  174.6500  141.6300 C   0  0  0  0  0  0  0  0  0  0  0  0
  190.2370  176.9680  145.0090 C   0  0  0  0  0  2  0  0  0  0  0  0
  196.5850  175.8070  141.4310 C   0  0  0  0  0  0  0  0  0  0  0  0
  193.2870  172.6020  140.1510 C   0  0  0  0  0  2  0  0  0  0  0  0
  194.3370  173.3350  143.0300 O   0  0  0  0  0  1  0  0  0  0  0  0
  194.4560  172.6400  139.3880 O   0  0  0  0  0  0  0  0  0  0  0  0
  191.6340  169.2430  139.5180 C   0  0  1  0  0  3  0  0  0  0  0  0
  194.4430  175.4500  145.0310 C   0  0  1  0  0  3  0  0  0  0  0  0
  190.7640  171.9460  141.5630 C   0  0  0  0  0  2  0  0  0  0  0  0
  191.9060  170.9310  141.5160 C   0  0  1  0  0  3  0  0  0  0  0  0
  190.0040  174.1530  142.4040 C   0  0  0  0  0  2  0  0  0  0  0  0
  191.5680  176.7910  145.7250 C   0  0  0  0  0  2  0  0  0  0  0  0
  196.0090  176.6320  143.4840 N   0  0  0  0  0  0  0  0  0  0  0  0
  192.2170  170.5840  139.1130 C   0  0  0  0  0  2  0  0  0  0  0  0
  190.4640  175.4610  143.0220 C   0  0  0  0  0  2  0  0  0  0  0  0
  191.1860  169.2780  141.2880 S   0  0  0  0  0  0  0  0  0  0  0  0
  194.8910  173.9640  139.4470 C   0  0  0  0  0  2  0  0  0  0  0  0
  191.8460  173.2610  144.8500 O   0  0  0  0  0  1  0  0  0  0  0  0
  191.0750  172.4630  144.0070 C   0  0  1  0  0  3  0  0  0  0  0  0
  189.6910  172.2530  144.6030 C   0  0  0  0  0  1  0  0  0  0  0  0
  189.6910  170.0410  138.2410 N   0  0  0  0  0  1  0  0  0  0  0  0
  190.4450  168.8630  138.6430 C   0  0  0  0  0  2  0  0  0  0  0  0
  2 25  1  6  0  0  0
  2 21  1  0  0  0  0
  3 19  1  0  0  0  0
  4  1  1  0  0  0  0
  4 23  1  0  0  0  0
  6 16  1  0  0  0  0
  6  3  2  0  0  0  0
  7 30  1  1  0  0  0
  8 11  1  0  0  0  0
  8 14  1  0  0  0  0
  9 24  2  0  0  0  0
 10 13  1  0  0  0  0
 11 28  1  6  0  0  0
 11 12  1  0  0  0  0
 12  6  1  0  0  0  0
 13 23  1  0  0  0  0
 14 12  2  0  0  0  0
 14  9  1  0  0  0  0
 15  2  1  0  0  0  0
 17 28  1  0  0  0  0
 17 15  1  0  0  0  0
 18 33  1  6  0  0  0
 18 27  1  0  0  0  0
 19  1  1  0  0  0  0
 19  5  1  1  0  0  0
 20  7  1  0  0  0  0
 21 20  1  6  0  0  0
 22  7  1  0  0  0  0
 22 26  1  0  0  0  0
 24  3  1  0  0  0  0
 25 18  1  0  0  0  0
 26 10  1  0  0  0  0
 27 21  1  0  0  0  0
 30 31  1  1  0  0  0
 30 29  1  0  0  0  0
 32 33  1  0  0  0  0
M  END
>  <MODEL>
8

>  <REMARK>
 VINA RESULT:      -6.4      3.691      7.094
  Name = 
  2 active torsions:
  status: ('A' for Active; 'I' for Inactive)
    1  A    between atoms: C_8  and  C_23
    2  A    between atoms: C_20  and  C_26
                            x       y       z     vdW  Elec       q    Type
                         _______ _______ _______ _____ _____    ______ ____

>  <TORSDO>
F 2

$$$$
=
 OpenBabel11062418563D

 33 36  0  0  1  0  0  0  0  0999 V2000
  195.3130  175.0270  146.0980 O   0  0  0  0  0  0  0  0  0  0  0  0
  192.2080  173.0850  139.4670 C   0  0  1  0  0  3  0  0  0  0  0  0
  196.0430  174.4620  143.8890 C   0  0  0  0  0  0  0  0  0  0  0  0
  194.1770  175.7890  145.8030 C   0  0  0  0  0  2  0  0  0  0  0  0
  196.0510  172.7940  145.7100 C   0  0  0  0  0  1  0  0  0  0  0  0
  195.5420  174.0600  142.6200 C   0  0  0  0  0  0  0  0  0  0  0  0
  191.2290  174.1210  142.6030 C   0  0  1  0  0  3  0  0  0  0  0  0
  197.6330  175.6660  139.9460 S   0  0  0  0  0  0  0  0  0  0  0  0
  197.8140  175.7600  142.9090 N   0  0  0  0  0  0  0  0  0  0  0  0
  191.0100  175.8350  145.5510 C   0  0  0  0  0  2  0  0  0  0  0  0
  196.2760  174.5990  140.0460 C   0  0  1  0  0  3  0  0  0  0  0  0
  196.2180  174.5620  141.5320 C   0  0  0  0  0  0  0  0  0  0  0  0
  191.9130  176.4760  146.5940 C   0  0  0  0  0  2  0  0  0  0  0  0
  197.3350  175.4010  141.7060 C   0  0  0  0  0  0  0  0  0  0  0  0
  193.0930  174.2670  139.8340 C   0  0  0  0  0  2  0  0  0  0  0  0
  194.4440  173.2190  142.4810 O   0  0  0  0  0  1  0  0  0  0  0  0
  194.1730  174.3280  138.9520 O   0  0  0  0  0  0  0  0  0  0  0  0
  190.3680  172.2330  138.1450 C   0  0  1  0  0  3  0  0  0  0  0  0
  195.3450  174.0080  145.1370 C   0  0  1  0  0  3  0  0  0  0  0  0
  190.5560  173.7660  141.2840 C   0  0  0  0  0  2  0  0  0  0  0  0
  191.2790  172.6190  140.5820 C   0  0  1  0  0  3  0  0  0  0  0  0
  190.6290  175.4250  143.1270 C   0  0  0  0  0  2  0  0  0  0  0  0
  193.1310  175.6120  146.8880 C   0  0  0  0  0  2  0  0  0  0  0  0
  197.1580  175.2820  143.9820 N   0  0  0  0  0  0  0  0  0  0  0  0
  191.3580  173.3770  138.2550 C   0  0  0  0  0  2  0  0  0  0  0  0
  191.5320  176.0940  144.1480 C   0  0  0  0  0  2  0  0  0  0  0  0
  190.0300  171.5510  139.8060 S   0  0  0  0  0  0  0  0  0  0  0  0
  195.0360  175.2820  139.4920 C   0  0  0  0  0  2  0  0  0  0  0  0
  192.1040  173.0470  144.5830 O   0  0  0  0  0  1  0  0  0  0  0  0
  191.1220  172.9540  143.5980 C   0  0  1  0  0  3  0  0  0  0  0  0
  189.7460  172.8370  144.2380 C   0  0  0  0  0  1  0  0  0  0  0  0
  188.1920  173.3540  138.3600 N   0  0  0  0  0  1  0  0  0  0  0  0
  189.0870  172.6660  137.4420 C   0  0  0  0  0  2  0  0  0  0  0  0
  2 25  1  6  0  0  0
  2 15  1  0  0  0  0
  2 21  1  0  0  0  0
  3 24  1  0  0  0  0
  3 19  1  0  0  0  0
  4  1  1  0  0  0  0
  4 23  1  0  0  0  0
  6  3  2  0  0  0  0
  7 22  1  0  0  0  0
  7 30  1  1  0  0  0
  8 11  1  0  0  0  0
  8 14  1  0  0  0  0
  9 24  2  0  0  0  0
 10 13  1  0  0  0  0
 11 28  1  6  0  0  0
 11 12  1  0  0  0  0
 12 14  2  0  0  0  0
 12  6  1  0  0  0  0
 13 23  1  0  0  0  0
 14  9  1  0  0  0  0
 16  6  1  0  0  0  0
 17 28  1  0  0  0  0
 17 15  1  0  0  0  0
 18 33  1  1  0  0  0
 18 25  1  0  0  0  0
 18 27  1  0  0  0  0
 19  5  1  1  0  0  0
 19  1  1  0  0  0  0
 20  7  1  0  0  0  0
 21 20  1  6  0  0  0
 22 26  1  0  0  0  0
 26 10  1  0  0  0  0
 27 21  1  0  0  0  0
 30 31  1  1  0  0  0
 30 29  1  0  0  0  0
 33 32  1  0  0  0  0
M  END
>  <MODEL>
9

>  <REMARK>
 VINA RESULT:      -6.4      3.644      6.414
  Name = 
  2 active torsions:
  status: ('A' for Active; 'I' for Inactive)
    1  A    between atoms: C_8  and  C_23
    2  A    between atoms: C_20  and  C_26
                            x       y       z     vdW  Elec       q    Type
                         _______ _______ _______ _____ _____    ______ ____

>  <TORSDO>
F 2

$$$$
