=
 OpenBabel11062418243D

 64 70  0  0  1  0  0  0  0  0999 V2000
  188.5590  175.0890  141.3630 C   0  0  0  0  0  2  0  0  0  0  0  0
  189.1820  172.7400  141.7260 N   0  0  0  0  0  0  0  0  0  0  0  0
  190.3190  173.1000  142.2410 C   0  0  0  0  0  0  0  0  0  0  0  0
  190.0070  176.7800  142.6260 N   0  0  0  0  0  0  0  0  0  0  0  0
  190.5340  174.4670  142.6330 N   0  0  0  0  0  0  0  0  0  0  0  0
  189.7180  175.4160  142.2720 C   0  0  0  0  0  0  0  0  0  0  0  0
  188.0610  173.6720  141.6440 C   0  0  0  0  0  2  0  0  0  0  0  0
  191.0350  177.0480  143.4730 O   0  0  0  0  0  0  0  0  0  0  0  0
  191.0590  178.4390  143.6160 C   0  0  0  0  0  1  0  0  0  0  0  0
  191.4280  172.1000  142.3350 C   0  0  2  0  0  3  0  0  0  0  0  0
  191.7180  171.8540  143.6750 O   0  0  0  0  0  1  0  0  0  0  0  0
  193.7350  172.6410  139.5920 C   0  0  2  0  0  3  0  0  0  0  0  0
  192.6900  172.5520  141.6030 C   0  0  1  0  0  3  0  0  0  0  0  0
  192.4770  172.4830  140.2110 O   0  0  0  0  0  0  0  0  0  0  0  0
  193.0400  173.8710  141.9580 O   0  0  0  0  0  0  0  0  0  0  0  0
  194.3970  173.9690  139.9750 C   0  0  0  0  0  2  0  0  0  0  0  0
  194.3540  174.0460  141.4960 C   0  0  1  0  0  3  0  0  0  0  0  0
  193.6060  172.4740  138.0790 C   0  0  0  0  0  2  0  0  0  0  0  0
  196.6690  173.6160  136.1550 O   0  0  0  0  0  1  0  0  0  0  0  0
  195.9660  171.6560  137.8260 F   0  0  0  0  0  0  0  0  0  0  0  0
  194.9440  172.4510  137.3310 C   0  0  2  0  0  0  0  0  0  0  0  0
  195.2890  173.5790  136.3630 C   0  0  2  0  0  3  0  0  0  0  0  0
  194.7370  172.2540  135.8440 C   0  0  0  0  0  2  0  0  0  0  0  0
  194.9570  175.3420  142.0160 C   0  0  0  0  0  2  0  0  0  0  0  0
  196.8890  176.5120  142.9910 C   0  0  0  0  0  2  0  0  0  0  0  0
  196.7100  175.3440  143.9430 C   0  0  2  0  0  3  0  0  0  0  0  0
  196.4140  175.1790  142.4410 C   0  0  1  0  0  3  0  0  0  0  0  0
  195.1230  176.7350  145.2740 C   0  0  0  0  0  3  0  0  0  0  0  0
  194.0030  176.8730  146.0970 C   0  0  0  0  0  3  0  0  0  0  0  0
  195.4920  175.4640  144.8290 C   0  0  0  0  0  0  0  0  0  0  0  0
  194.7460  174.3760  145.1880 N   0  0  0  0  0  0  0  0  0  0  0  0
  193.2620  175.7470  146.4740 C   0  0  0  0  0  0  0  0  0  0  0  0
  193.6590  174.4890  145.9950 C   0  0  0  0  0  3  0  0  0  0  0  0
  192.0970  175.8860  147.3600 C   0  0  0  0  0  0  0  0  0  0  0  0
  191.5380  174.8580  147.8350 O   0  0  0  0  0  0  0  0  0  0  0  0
  191.5360  177.6100  149.0290 C   0  0  0  0  0  1  0  0  0  0  0  0
  191.6220  177.1600  147.6840 O   0  0  0  0  0  0  0  0  0  0  0  0
  189.0550  177.8260  142.2390 C   0  0  0  0  0  2  0  0  0  0  0  0
  187.7650  177.8360  143.0610 C   0  0  0  0  0  2  0  0  0  0  0  0
  186.5600  178.2990  142.2430 C   0  0  2  0  0  3  0  0  0  0  0  0
  185.7650  176.3100  143.3120 O   0  0  0  0  0  1  0  0  0  0  0  0
  185.3670  177.3660  142.4840 C   0  0  1  0  0  3  0  0  0  0  0  0
  184.1400  178.1100  143.0380 C   0  0  1  0  0  3  0  0  0  0  0  0
  185.1800  180.0130  143.9340 O   0  0  0  0  0  0  0  0  0  0  0  0
  184.5270  179.0100  144.1690 C   0  0  0  0  0  0  0  0  0  0  0  0
  184.1780  178.6580  145.5830 C   0  0  0  0  0  2  0  0  0  0  0  0
  185.3850  178.8150  146.4930 C   0  0  0  0  0  2  0  0  0  0  0  0
  184.9760  176.4710  146.6430 O   0  0  0  0  0  1  0  0  0  0  0  0
  185.9420  177.4530  146.8680 C   0  0  1  0  0  3  0  0  0  0  0  0
  187.7110  175.4300  147.9680 C   0  0  0  0  0  1  0  0  0  0  0  0
  187.1690  177.1520  146.0230 C   0  0  2  0  0  3  0  0  0  0  0  0
  188.9710  175.3400  145.6780 C   0  0  0  0  0  1  0  0  0  0  0  0
  188.0660  176.0830  146.6390 C   0  0  0  0  0  0  0  0  0  0  0  0
  188.4350  177.5440  146.7820 C   0  0  0  0  0  2  0  0  0  0  0  0
  183.3620  178.9050  141.9870 C   0  0  0  0  0  2  0  0  0  0  0  0
  182.2790  177.7130  140.0700 C   0  0  0  0  0  1  0  0  0  0  0  0
  182.1200  178.1410  141.5280 C   0  0  2  0  0  3  0  0  0  0  0  0
  178.6450  178.5300  140.9760 C   0  0  0  0  0  2  0  0  0  0  0  0
  180.6000  179.8570  140.7100 C   0  0  0  0  0  2  0  0  0  0  0  0
  179.7540  177.9890  141.8630 C   0  0  0  0  0  2  0  0  0  0  0  0
  179.1040  179.9070  140.5590 C   0  0  0  0  0  2  0  0  0  0  0  0
  180.8890  178.9090  141.7870 N   0  0  0  0  0  0  0  0  0  0  0  0
  186.8820  178.3860  140.8800 O   0  0  0  0  0  0  0  0  0  0  0  0
  186.0120  177.5030  140.2360 C   0  0  0  0  0  1  0  0  0  0  0  0
  1  7  1  0  0  0  0
  1  6  1  0  0  0  0
  2  3  2  0  0  0  0
  3 10  1  0  0  0  0
  3  5  1  0  0  0  0
  4  8  1  0  0  0  0
  6  4  1  0  0  0  0
  6  5  2  0  0  0  0
  7  2  1  0  0  0  0
  8  9  1  0  0  0  0
 10 11  1  1  0  0  0
 12 18  1  6  0  0  0
 12 16  1  0  0  0  0
 12 14  1  0  0  0  0
 13 15  1  0  0  0  0
 13 10  1  1  0  0  0
 14 13  1  0  0  0  0
 16 17  1  0  0  0  0
 17 15  1  0  0  0  0
 17 24  1  6  0  0  0
 21 20  1  1  0  0  0
 21 18  1  0  0  0  0
 22 19  1  6  0  0  0
 22 21  1  0  0  0  0
 23 22  1  0  0  0  0
 23 21  1  0  0  0  0
 25 26  1  0  0  0  0
 26 30  1  1  0  0  0
 27 24  1  1  0  0  0
 27 25  1  0  0  0  0
 27 26  1  0  0  0  0
 28 29  1  0  0  0  0
 29 32  2  0  0  0  0
 30 31  1  0  0  0  0
 30 28  2  0  0  0  0
 31 33  2  0  0  0  0
 32 34  1  0  0  0  0
 33 32  1  0  0  0  0
 34 37  1  0  0  0  0
 34 35  2  0  0  0  0
 37 36  1  0  0  0  0
 38  4  1  0  0  0  0
 38 39  1  0  0  0  0
 40 42  1  0  0  0  0
 40 39  1  1  0  0  0
 42 43  1  0  0  0  0
 42 41  1  1  0  0  0
 43 55  1  6  0  0  0
 43 45  1  0  0  0  0
 44 45  2  0  0  0  0
 45 46  1  0  0  0  0
 46 47  1  0  0  0  0
 47 49  1  0  0  0  0
 49 48  1  6  0  0  0
 51 53  1  0  0  0  0
 51 54  1  0  0  0  0
 51 49  1  1  0  0  0
 52 53  1  0  0  0  0
 53 54  1  0  0  0  0
 53 50  1  0  0  0  0
 57 56  1  6  0  0  0
 57 62  1  0  0  0  0
 57 55  1  0  0  0  0
 58 60  1  0  0  0  0
 59 62  1  0  0  0  0
 61 59  1  0  0  0  0
 61 58  1  0  0  0  0
 62 60  1  0  0  0  0
 63 40  1  0  0  0  0
 64 63  1  0  0  0  0
M  END
>  <MODEL>
1

>  <REMARK>
 VINA RESULT:      -6.9      0.000      0.000
  Name = 
  24 active torsions:
  status: ('A' for Active; 'I' for Inactive)
    1  A    between atoms: C_1  and  C_10
    2  A    between atoms: C_1  and  C_38
    3  A    between atoms: C_3  and  C_6
    4  A    between atoms: C_3  and  C_15
    5  A    between atoms: C_5  and  O_35
    6  A    between atoms: C_5  and  C_36
    7  A    between atoms: C_6  and  O_29
    8  A    between atoms: C_6  and  C_53
    9  A    between atoms: O_9  and  N_27
   10  A    between atoms: C_12  and  C_58
   11  A    between atoms: C_12  and  C_63
   12  A    between atoms: C_13  and  C_26
   13  A    between atoms: C_13  and  C_60
   14  A    between atoms: C_15  and  N_27
   15  A    between atoms: C_18  and  C_22
   16  A    between atoms: C_18  and  C_59
   17  A    between atoms: C_19  and  C_25
   18  A    between atoms: C_22  and  N_40
   19  A    between atoms: C_24  and  C_60
   20  A    between atoms: C_25  and  C_32
   21  A    between atoms: C_26  and  C_57
   22  A    between atoms: C_31  and  C_62
   23  A    between atoms: C_53  and  C_59
   24  A    between atoms: C_57  and  C_59
                            x       y       z     vdW  Elec       q    Type
                         _______ _______ _______ _____ _____    ______ ____

>  <TORSDO>
F 24

$$$$
=
 OpenBabel11062418243D

 64 70  0  0  1  0  0  0  0  0999 V2000
  190.3740  175.9910  142.1260 C   0  0  0  0  0  2  0  0  0  0  0  0
  188.5580  177.5980  141.7300 N   0  0  0  0  0  0  0  0  0  0  0  0
  187.7950  176.6520  141.2690 C   0  0  0  0  0  0  0  0  0  0  0  0
  189.6580  173.5350  142.0450 N   0  0  0  0  0  0  0  0  0  0  0  0
  188.1440  175.2730  141.4820 N   0  0  0  0  0  0  0  0  0  0  0  0
  189.3250  174.9280  141.9120 C   0  0  0  0  0  0  0  0  0  0  0  0
  189.7130  177.2940  142.5700 C   0  0  0  0  0  2  0  0  0  0  0  0
  188.6880  172.5970  141.8810 O   0  0  0  0  0  0  0  0  0  0  0  0
  188.5720  171.9500  143.1160 C   0  0  0  0  0  1  0  0  0  0  0  0
  186.6030  177.0140  140.4400 C   0  0  2  0  0  3  0  0  0  0  0  0
  187.0080  177.8110  139.3720 O   0  0  0  0  0  1  0  0  0  0  0  0
  183.3940  178.5140  141.2060 C   0  0  2  0  0  3  0  0  0  0  0  0
  185.5220  177.7310  141.2450 C   0  0  1  0  0  3  0  0  0  0  0  0
  184.2860  177.6190  140.5780 O   0  0  0  0  0  0  0  0  0  0  0  0
  185.4050  177.1850  142.5400 O   0  0  0  0  0  0  0  0  0  0  0  0
  183.2350  178.2060  142.6990 C   0  0  0  0  0  2  0  0  0  0  0  0
  184.6440  178.1100  143.2700 C   0  0  1  0  0  3  0  0  0  0  0  0
  182.0540  178.5310  140.4730 C   0  0  0  0  0  2  0  0  0  0  0  0
  178.9180  178.1280  142.5670 O   0  0  0  0  0  1  0  0  0  0  0  0
  181.0190  179.7650  142.3980 F   0  0  0  0  0  0  0  0  0  0  0  0
  180.8510  178.8570  141.3640 C   0  0  2  0  0  0  0  0  0  0  0  0
  179.6590  177.9060  141.4060 C   0  0  2  0  0  3  0  0  0  0  0  0
  179.6210  179.1590  140.5350 C   0  0  0  0  0  2  0  0  0  0  0  0
  184.6340  177.7750  144.7540 C   0  0  0  0  0  2  0  0  0  0  0  0
  184.2860  178.5850  147.0510 C   0  0  0  0  0  2  0  0  0  0  0  0
  185.6810  179.0950  146.7400 C   0  0  2  0  0  3  0  0  0  0  0  0
  184.6130  179.0230  145.6340 C   0  0  1  0  0  3  0  0  0  0  0  0
  186.5560  176.8900  147.5150 C   0  0  0  0  0  3  0  0  0  0  0  0
  187.5120  175.8720  147.4940 C   0  0  0  0  0  3  0  0  0  0  0  0
  186.7290  178.0070  146.6950 C   0  0  0  0  0  0  0  0  0  0  0  0
  187.8180  178.0840  145.8730 N   0  0  0  0  0  0  0  0  0  0  0  0
  188.6340  175.9750  146.6630 C   0  0  0  0  0  0  0  0  0  0  0  0
  188.7640  177.1090  145.8460 C   0  0  0  0  0  3  0  0  0  0  0  0
  189.6550  174.9170  146.6580 C   0  0  0  0  0  0  0  0  0  0  0  0
  189.5960  173.9860  145.8060 O   0  0  0  0  0  0  0  0  0  0  0  0
  191.4610  176.1300  147.8150 C   0  0  0  0  0  1  0  0  0  0  0  0
  190.6950  174.9540  147.5890 O   0  0  0  0  0  0  0  0  0  0  0  0
  190.9790  173.1730  142.5650 C   0  0  0  0  0  2  0  0  0  0  0  0
  191.7810  172.2450  141.6500 C   0  0  0  0  0  2  0  0  0  0  0  0
  193.1910  171.9860  142.1790 C   0  0  2  0  0  3  0  0  0  0  0  0
  193.4300  170.1810  140.6250 O   0  0  0  0  0  1  0  0  0  0  0  0
  194.0560  171.3440  141.0870 C   0  0  1  0  0  3  0  0  0  0  0  0
  194.3860  172.3210  139.9470 C   0  0  1  0  0  3  0  0  0  0  0  0
  196.6030  172.0730  139.2190 O   0  0  0  0  0  0  0  0  0  0  0  0
  195.8390  172.6780  139.9530 C   0  0  0  0  0  0  0  0  0  0  0  0
  196.3690  173.7180  140.8920 C   0  0  0  0  0  2  0  0  0  0  0  0
  195.5500  174.9940  140.8040 C   0  0  0  0  0  2  0  0  0  0  0  0
  193.8050  175.3280  142.3940 O   0  0  0  0  0  1  0  0  0  0  0  0
  195.1780  175.4780  142.1950 C   0  0  1  0  0  3  0  0  0  0  0  0
  195.0980  176.5720  144.8830 C   0  0  0  0  0  1  0  0  0  0  0  0
  195.9280  174.6630  143.2370 C   0  0  2  0  0  3  0  0  0  0  0  0
  196.0760  174.3200  145.7890 C   0  0  0  0  0  1  0  0  0  0  0  0
  195.8560  175.2750  144.6320 C   0  0  0  0  0  0  0  0  0  0  0  0
  197.0980  175.4730  143.7900 C   0  0  0  0  0  2  0  0  0  0  0  0
  193.9820  171.8230  138.5570 C   0  0  0  0  0  2  0  0  0  0  0  0
  192.8250  174.0400  138.6850 C   0  0  0  0  0  1  0  0  0  0  0  0
  192.8760  172.6950  137.9610 C   0  0  2  0  0  3  0  0  0  0  0  0
  189.7950  172.1040  136.3200 C   0  0  0  0  0  2  0  0  0  0  0  0
  190.5000  172.8110  138.4780 C   0  0  0  0  0  2  0  0  0  0  0  0
  191.2330  171.6680  136.5570 C   0  0  0  0  0  2  0  0  0  0  0  0
  189.2660  172.4870  137.6810 C   0  0  0  0  0  2  0  0  0  0  0  0
  191.5850  171.9870  137.9410 N   0  0  0  0  0  0  0  0  0  0  0  0
  193.1540  171.1990  143.3410 O   0  0  0  0  0  0  0  0  0  0  0  0
  193.6340  172.0220  144.3630 C   0  0  0  0  0  1  0  0  0  0  0  0
  1  7  1  0  0  0  0
  2  7  1  0  0  0  0
  3  5  1  0  0  0  0
  3  2  2  0  0  0  0
  4 38  1  0  0  0  0
  5  6  2  0  0  0  0
  6  4  1  0  0  0  0
  6  1  1  0  0  0  0
  8  4  1  0  0  0  0
  8  9  1  0  0  0  0
 10 11  1  6  0  0  0
 10  3  1  0  0  0  0
 12 18  1  6  0  0  0
 12 16  1  0  0  0  0
 13 10  1  6  0  0  0
 13 15  1  0  0  0  0
 14 12  1  0  0  0  0
 14 13  1  0  0  0  0
 15 17  1  0  0  0  0
 16 17  1  0  0  0  0
 17 24  1  1  0  0  0
 18 21  1  0  0  0  0
 21 22  1  0  0  0  0
 21 20  1  1  0  0  0
 22 19  1  1  0  0  0
 23 21  1  0  0  0  0
 23 22  1  0  0  0  0
 26 30  1  6  0  0  0
 26 25  1  0  0  0  0
 27 24  1  6  0  0  0
 27 26  1  0  0  0  0
 27 25  1  0  0  0  0
 29 28  1  0  0  0  0
 30 28  2  0  0  0  0
 31 30  1  0  0  0  0
 32 29  2  0  0  0  0
 33 31  2  0  0  0  0
 33 32  1  0  0  0  0
 34 32  1  0  0  0  0
 34 37  1  0  0  0  0
 35 34  2  0  0  0  0
 37 36  1  0  0  0  0
 39 38  1  0  0  0  0
 40 39  1  6  0  0  0
 40 63  1  0  0  0  0
 42 41  1  6  0  0  0
 42 40  1  0  0  0  0
 43 55  1  6  0  0  0
 43 45  1  0  0  0  0
 43 42  1  0  0  0  0
 44 45  2  0  0  0  0
 45 46  1  0  0  0  0
 47 46  1  0  0  0  0
 47 49  1  0  0  0  0
 49 48  1  1  0  0  0
 51 49  1  6  0  0  0
 51 54  1  0  0  0  0
 51 53  1  0  0  0  0
 53 50  1  0  0  0  0
 53 52  1  0  0  0  0
 54 53  1  0  0  0  0
 57 55  1  0  0  0  0
 57 56  1  1  0  0  0
 58 60  1  0  0  0  0
 58 61  1  0  0  0  0
 60 62  1  0  0  0  0
 61 59  1  0  0  0  0
 62 57  1  0  0  0  0
 62 59  1  0  0  0  0
 63 64  1  0  0  0  0
M  END
>  <MODEL>
2

>  <REMARK>
 VINA RESULT:      -6.7      3.007     10.448
  Name = 
  24 active torsions:
  status: ('A' for Active; 'I' for Inactive)
    1  A    between atoms: C_1  and  C_10
    2  A    between atoms: C_1  and  C_38
    3  A    between atoms: C_3  and  C_6
    4  A    between atoms: C_3  and  C_15
    5  A    between atoms: C_5  and  O_35
    6  A    between atoms: C_5  and  C_36
    7  A    between atoms: C_6  and  O_29
    8  A    between atoms: C_6  and  C_53
    9  A    between atoms: O_9  and  N_27
   10  A    between atoms: C_12  and  C_58
   11  A    between atoms: C_12  and  C_63
   12  A    between atoms: C_13  and  C_26
   13  A    between atoms: C_13  and  C_60
   14  A    between atoms: C_15  and  N_27
   15  A    between atoms: C_18  and  C_22
   16  A    between atoms: C_18  and  C_59
   17  A    between atoms: C_19  and  C_25
   18  A    between atoms: C_22  and  N_40
   19  A    between atoms: C_24  and  C_60
   20  A    between atoms: C_25  and  C_32
   21  A    between atoms: C_26  and  C_57
   22  A    between atoms: C_31  and  C_62
   23  A    between atoms: C_53  and  C_59
   24  A    between atoms: C_57  and  C_59
                            x       y       z     vdW  Elec       q    Type
                         _______ _______ _______ _____ _____    ______ ____

>  <TORSDO>
F 24

$$$$
=
 OpenBabel11062418243D

 64 70  0  0  1  0  0  0  0  0999 V2000
  188.4170  175.0430  141.1530 C   0  0  0  0  0  2  0  0  0  0  0  0
  188.7900  172.7270  141.8860 N   0  0  0  0  0  0  0  0  0  0  0  0
  189.7930  173.1020  142.6230 C   0  0  0  0  0  0  0  0  0  0  0  0
  189.6250  176.8100  142.5570 N   0  0  0  0  0  0  0  0  0  0  0  0
  189.9910  174.4950  142.9190 N   0  0  0  0  0  0  0  0  0  0  0  0
  189.3450  175.4270  142.2790 C   0  0  0  0  0  0  0  0  0  0  0  0
  187.7800  173.6840  141.4420 C   0  0  0  0  0  2  0  0  0  0  0  0
  190.4360  177.1320  143.5970 O   0  0  0  0  0  0  0  0  0  0  0  0
  191.3950  178.0080  143.0760 C   0  0  0  0  0  1  0  0  0  0  0  0
  190.7840  172.0790  143.0810 C   0  0  2  0  0  3  0  0  0  0  0  0
  190.6430  171.8790  144.4530 O   0  0  0  0  0  1  0  0  0  0  0  0
  194.1030  173.4560  143.5570 C   0  0  2  0  0  3  0  0  0  0  0  0
  192.2240  172.4690  142.7560 C   0  0  1  0  0  3  0  0  0  0  0  0
  192.8860  172.8530  143.9400 O   0  0  0  0  0  0  0  0  0  0  0  0
  192.9200  171.3980  142.1570 O   0  0  0  0  0  0  0  0  0  0  0  0
  194.9760  172.5060  142.7300 C   0  0  0  0  0  2  0  0  0  0  0  0
  194.0860  171.9640  141.6190 C   0  0  1  0  0  3  0  0  0  0  0  0
  194.8370  173.9970  144.7830 C   0  0  0  0  0  2  0  0  0  0  0  0
  192.4270  176.5980  146.1290 O   0  0  0  0  0  1  0  0  0  0  0  0
  193.2120  174.1090  146.6930 F   0  0  0  0  0  0  0  0  0  0  0  0
  193.9530  174.7980  145.7450 C   0  0  2  0  0  0  0  0  0  0  0  0
  193.5540  176.2280  145.3940 C   0  0  2  0  0  3  0  0  0  0  0  0
  194.7140  175.9590  146.3500 C   0  0  0  0  0  2  0  0  0  0  0  0
  194.8240  170.9740  140.7310 C   0  0  0  0  0  2  0  0  0  0  0  0
  196.2500  170.7450  138.7390 C   0  0  0  0  0  2  0  0  0  0  0  0
  195.5980  172.0960  138.5120 C   0  0  2  0  0  3  0  0  0  0  0  0
  195.9510  171.6300  139.9360 C   0  0  1  0  0  3  0  0  0  0  0  0
  193.3530  173.1600  138.2860 C   0  0  0  0  0  3  0  0  0  0  0  0
  191.9950  173.1080  137.9620 C   0  0  0  0  0  3  0  0  0  0  0  0
  194.1340  172.0110  138.1510 C   0  0  0  0  0  0  0  0  0  0  0  0
  193.5670  170.8560  137.6890 N   0  0  0  0  0  0  0  0  0  0  0  0
  191.4240  171.9110  137.5110 C   0  0  0  0  0  0  0  0  0  0  0  0
  192.2460  170.7820  137.3780 C   0  0  0  0  0  3  0  0  0  0  0  0
  189.9900  171.8460  137.1930 C   0  0  0  0  0  0  0  0  0  0  0  0
  189.6000  171.2410  136.1550 O   0  0  0  0  0  0  0  0  0  0  0  0
  188.4080  173.6600  137.7150 C   0  0  0  0  0  1  0  0  0  0  0  0
  189.0630  172.4450  138.0490 O   0  0  0  0  0  0  0  0  0  0  0  0
  188.8580  177.8400  141.8490 C   0  0  0  0  0  2  0  0  0  0  0  0
  187.6000  178.3030  142.5860 C   0  0  0  0  0  2  0  0  0  0  0  0
  186.3570  178.2550  141.6980 C   0  0  2  0  0  3  0  0  0  0  0  0
  185.9680  176.3730  143.1260 O   0  0  0  0  0  1  0  0  0  0  0  0
  185.3210  177.2900  142.2900 C   0  0  1  0  0  3  0  0  0  0  0  0
  184.1750  178.0230  143.0050 C   0  0  1  0  0  3  0  0  0  0  0  0
  185.0790  179.9610  143.9720 O   0  0  0  0  0  0  0  0  0  0  0  0
  184.6900  178.8210  144.1620 C   0  0  0  0  0  0  0  0  0  0  0  0
  184.7930  178.2120  145.5270 C   0  0  0  0  0  2  0  0  0  0  0  0
  185.6680  179.0610  146.4330 C   0  0  0  0  0  2  0  0  0  0  0  0
  185.7550  177.7080  148.3950 O   0  0  0  0  0  1  0  0  0  0  0  0
  186.5200  178.1740  147.3240 C   0  0  1  0  0  3  0  0  0  0  0  0
  189.3460  177.6060  147.6700 C   0  0  0  0  0  1  0  0  0  0  0  0
  187.0340  176.9880  146.5220 C   0  0  2  0  0  3  0  0  0  0  0  0
  188.9980  175.3190  146.4480 C   0  0  0  0  0  1  0  0  0  0  0  0
  188.5210  176.7280  146.7380 C   0  0  0  0  0  0  0  0  0  0  0  0
  188.0620  177.4590  145.4950 C   0  0  0  0  0  2  0  0  0  0  0  0
  183.3370  178.9210  142.0910 C   0  0  0  0  0  2  0  0  0  0  0  0
  182.2200  177.7710  140.1670 C   0  0  0  0  0  1  0  0  0  0  0  0
  182.0710  178.2020  141.6260 C   0  0  2  0  0  3  0  0  0  0  0  0
  178.5780  178.6130  141.2190 C   0  0  0  0  0  2  0  0  0  0  0  0
  180.5370  179.8740  140.7430 C   0  0  0  0  0  2  0  0  0  0  0  0
  179.7240  178.1250  142.0910 C   0  0  0  0  0  2  0  0  0  0  0  0
  179.0360  179.9400  140.6650 C   0  0  0  0  0  2  0  0  0  0  0  0
  180.8670  179.0130  141.8810 N   0  0  0  0  0  0  0  0  0  0  0  0
  186.6950  177.9080  140.3800 O   0  0  0  0  0  0  0  0  0  0  0  0
  185.4840  177.6010  139.7550 C   0  0  0  0  0  1  0  0  0  0  0  0
  1  7  1  0  0  0  0
  1  6  1  0  0  0  0
  2  3  2  0  0  0  0
  3  5  1  0  0  0  0
  3 10  1  0  0  0  0
  4  8  1  0  0  0  0
  6  4  1  0  0  0  0
  6  5  2  0  0  0  0
  7  2  1  0  0  0  0
  9  8  1  0  0  0  0
 10 11  1  1  0  0  0
 12 14  1  0  0  0  0
 12 18  1  1  0  0  0
 13 10  1  1  0  0  0
 13 14  1  0  0  0  0
 15 13  1  0  0  0  0
 16 12  1  0  0  0  0
 17 24  1  1  0  0  0
 17 15  1  0  0  0  0
 17 16  1  0  0  0  0
 18 21  1  0  0  0  0
 21 23  1  0  0  0  0
 21 20  1  1  0  0  0
 22 21  1  0  0  0  0
 22 19  1  1  0  0  0
 22 23  1  0  0  0  0
 25 27  1  0  0  0  0
 26 30  1  1  0  0  0
 26 25  1  0  0  0  0
 26 27  1  0  0  0  0
 27 24  1  1  0  0  0
 29 28  2  0  0  0  0
 30 28  1  0  0  0  0
 31 30  2  0  0  0  0
 32 29  1  0  0  0  0
 33 32  2  0  0  0  0
 33 31  1  0  0  0  0
 34 32  1  0  0  0  0
 34 37  1  0  0  0  0
 35 34  2  0  0  0  0
 36 37  1  0  0  0  0
 38  4  1  0  0  0  0
 38 39  1  0  0  0  0
 40 42  1  0  0  0  0
 40 39  1  1  0  0  0
 42 43  1  0  0  0  0
 42 41  1  1  0  0  0
 43 55  1  6  0  0  0
 43 45  1  0  0  0  0
 44 45  2  0  0  0  0
 45 46  1  0  0  0  0
 46 47  1  0  0  0  0
 47 49  1  0  0  0  0
 49 48  1  1  0  0  0
 51 53  1  0  0  0  0
 51 49  1  1  0  0  0
 52 53  1  0  0  0  0
 53 50  1  0  0  0  0
 54 51  1  0  0  0  0
 54 53  1  0  0  0  0
 57 56  1  6  0  0  0
 57 62  1  0  0  0  0
 57 55  1  0  0  0  0
 58 60  1  0  0  0  0
 59 62  1  0  0  0  0
 61 59  1  0  0  0  0
 61 58  1  0  0  0  0
 62 60  1  0  0  0  0
 63 40  1  0  0  0  0
 64 63  1  0  0  0  0
M  END
>  <MODEL>
3

>  <REMARK>
 VINA RESULT:      -6.6      2.161      5.288
  Name = 
  24 active torsions:
  status: ('A' for Active; 'I' for Inactive)
    1  A    between atoms: C_1  and  C_10
    2  A    between atoms: C_1  and  C_38
    3  A    between atoms: C_3  and  C_6
    4  A    between atoms: C_3  and  C_15
    5  A    between atoms: C_5  and  O_35
    6  A    between atoms: C_5  and  C_36
    7  A    between atoms: C_6  and  O_29
    8  A    between atoms: C_6  and  C_53
    9  A    between atoms: O_9  and  N_27
   10  A    between atoms: C_12  and  C_58
   11  A    between atoms: C_12  and  C_63
   12  A    between atoms: C_13  and  C_26
   13  A    between atoms: C_13  and  C_60
   14  A    between atoms: C_15  and  N_27
   15  A    between atoms: C_18  and  C_22
   16  A    between atoms: C_18  and  C_59
   17  A    between atoms: C_19  and  C_25
   18  A    between atoms: C_22  and  N_40
   19  A    between atoms: C_24  and  C_60
   20  A    between atoms: C_25  and  C_32
   21  A    between atoms: C_26  and  C_57
   22  A    between atoms: C_31  and  C_62
   23  A    between atoms: C_53  and  C_59
   24  A    between atoms: C_57  and  C_59
                            x       y       z     vdW  Elec       q    Type
                         _______ _______ _______ _____ _____    ______ ____

>  <TORSDO>
F 24

$$$$
=
 OpenBabel11062418243D

 64 70  0  0  1  0  0  0  0  0999 V2000
  190.2940  176.2180  142.0660 C   0  0  0  0  0  2  0  0  0  0  0  0
  188.5030  177.8320  141.5900 N   0  0  0  0  0  0  0  0  0  0  0  0
  187.7810  176.9000  141.0430 C   0  0  0  0  0  0  0  0  0  0  0  0
  189.5990  173.7640  141.8500 N   0  0  0  0  0  0  0  0  0  0  0  0
  188.1220  175.5160  141.2350 N   0  0  0  0  0  0  0  0  0  0  0  0
  189.2690  175.1600  141.7390 C   0  0  0  0  0  0  0  0  0  0  0  0
  189.5940  177.5040  142.5030 C   0  0  0  0  0  2  0  0  0  0  0  0
  188.6490  172.8300  141.5840 O   0  0  0  0  0  0  0  0  0  0  0  0
  188.6250  171.9830  142.6970 C   0  0  0  0  0  1  0  0  0  0  0  0
  186.6520  177.2860  140.1400 C   0  0  2  0  0  3  0  0  0  0  0  0
  187.0990  178.2310  139.2190 O   0  0  0  0  0  1  0  0  0  0  0  0
  183.2200  178.2420  140.8040 C   0  0  2  0  0  3  0  0  0  0  0  0
  185.4480  177.8310  140.9040 C   0  0  1  0  0  3  0  0  0  0  0  0
  184.2640  177.4950  140.2180 O   0  0  0  0  0  0  0  0  0  0  0  0
  185.3960  177.3070  142.2120 O   0  0  0  0  0  0  0  0  0  0  0  0
  183.0810  177.9510  142.3020 C   0  0  0  0  0  2  0  0  0  0  0  0
  184.4730  178.1100  142.9010 C   0  0  1  0  0  3  0  0  0  0  0  0
  181.9130  178.0140  140.0460 C   0  0  0  0  0  2  0  0  0  0  0  0
  178.3580  179.0550  140.8580 O   0  0  0  0  0  1  0  0  0  0  0  0
  180.3400  177.6530  141.9690 F   0  0  0  0  0  0  0  0  0  0  0  0
  180.6530  178.3870  140.8350 C   0  0  2  0  0  0  0  0  0  0  0  0
  179.5600  179.2150  140.1670 C   0  0  2  0  0  3  0  0  0  0  0  0
  180.5840  179.8780  141.0840 C   0  0  0  0  0  2  0  0  0  0  0  0
  184.4860  177.8160  144.3930 C   0  0  0  0  0  2  0  0  0  0  0  0
  184.0180  178.6830  146.6480 C   0  0  0  0  0  2  0  0  0  0  0  0
  185.4240  179.1940  146.3940 C   0  0  2  0  0  3  0  0  0  0  0  0
  184.4140  179.0860  145.2380 C   0  0  1  0  0  3  0  0  0  0  0  0
  187.4660  178.1210  145.4430 C   0  0  0  0  0  3  0  0  0  0  0  0
  188.4500  177.1310  145.4520 C   0  0  0  0  0  3  0  0  0  0  0  0
  186.4790  178.1130  146.4310 C   0  0  0  0  0  0  0  0  0  0  0  0
  186.4980  177.1510  147.4010 N   0  0  0  0  0  0  0  0  0  0  0  0
  188.4440  176.1390  146.4400 C   0  0  0  0  0  0  0  0  0  0  0  0
  187.4420  176.1740  147.4210 C   0  0  0  0  0  3  0  0  0  0  0  0
  189.4640  175.0800  146.4380 C   0  0  0  0  0  0  0  0  0  0  0  0
  189.5260  174.2640  145.4760 O   0  0  0  0  0  0  0  0  0  0  0  0
  191.0090  176.1390  148.0380 C   0  0  0  0  0  1  0  0  0  0  0  0
  190.3720  174.9910  147.4960 O   0  0  0  0  0  0  0  0  0  0  0  0
  190.8800  173.3880  142.4540 C   0  0  0  0  0  2  0  0  0  0  0  0
  191.9200  172.8770  141.4550 C   0  0  0  0  0  2  0  0  0  0  0  0
  192.6960  171.6750  141.9910 C   0  0  2  0  0  3  0  0  0  0  0  0
  193.7100  171.7360  139.8230 O   0  0  0  0  0  1  0  0  0  0  0  0
  193.9750  171.4620  141.1700 C   0  0  1  0  0  3  0  0  0  0  0  0
  195.1620  172.2780  141.7080 C   0  0  1  0  0  3  0  0  0  0  0  0
  196.4640  170.6700  142.8150 O   0  0  0  0  0  0  0  0  0  0  0  0
  195.7360  171.6400  142.9340 C   0  0  0  0  0  0  0  0  0  0  0  0
  195.3730  172.1400  144.2990 C   0  0  0  0  0  2  0  0  0  0  0  0
  196.4750  173.0180  144.8650 C   0  0  0  0  0  2  0  0  0  0  0  0
  196.6480  175.3840  144.6180 O   0  0  0  0  0  1  0  0  0  0  0  0
  195.9190  174.3770  145.2530 C   0  0  1  0  0  3  0  0  0  0  0  0
  194.4870  176.6610  146.3330 C   0  0  0  0  0  1  0  0  0  0  0  0
  194.4610  174.4710  144.8320 C   0  0  2  0  0  3  0  0  0  0  0  0
  192.5260  176.1690  144.6720 C   0  0  0  0  0  1  0  0  0  0  0  0
  193.7520  175.6870  145.4220 C   0  0  0  0  0  0  0  0  0  0  0  0
  193.5550  174.3250  146.0530 C   0  0  0  0  0  2  0  0  0  0  0  0
  196.2730  172.5190  140.6830 C   0  0  0  0  0  2  0  0  0  0  0  0
  195.5220  174.8230  141.3120 C   0  0  0  0  0  1  0  0  0  0  0  0
  196.4970  174.0150  140.4580 C   0  0  2  0  0  3  0  0  0  0  0  0
  197.8230  173.5460  137.2080 C   0  0  0  0  0  2  0  0  0  0  0  0
  197.4370  175.3790  138.6730 C   0  0  0  0  0  2  0  0  0  0  0  0
  196.7690  173.1660  138.2360 C   0  0  0  0  0  2  0  0  0  0  0  0
  197.9390  175.0490  137.2940 C   0  0  0  0  0  2  0  0  0  0  0  0
  196.4500  174.3560  139.0250 N   0  0  0  0  0  0  0  0  0  0  0  0
  191.8930  170.5240  142.0050 O   0  0  0  0  0  0  0  0  0  0  0  0
  192.6070  169.5820  142.7490 C   0  0  0  0  0  1  0  0  0  0  0  0
  1  7  1  0  0  0  0
  2  7  1  0  0  0  0
  3  5  1  0  0  0  0
  3  2  2  0  0  0  0
  4 38  1  0  0  0  0
  5  6  2  0  0  0  0
  6  4  1  0  0  0  0
  6  1  1  0  0  0  0
  8  4  1  0  0  0  0
  8  9  1  0  0  0  0
 10 11  1  6  0  0  0
 10  3  1  0  0  0  0
 12 18  1  6  0  0  0
 12 16  1  0  0  0  0
 13 10  1  6  0  0  0
 13 15  1  0  0  0  0
 14 12  1  0  0  0  0
 14 13  1  0  0  0  0
 15 17  1  0  0  0  0
 16 17  1  0  0  0  0
 17 24  1  1  0  0  0
 18 21  1  0  0  0  0
 21 23  1  0  0  0  0
 21 20  1  1  0  0  0
 22 21  1  0  0  0  0
 22 19  1  1  0  0  0
 22 23  1  0  0  0  0
 26 30  1  6  0  0  0
 26 25  1  0  0  0  0
 27 24  1  6  0  0  0
 27 26  1  0  0  0  0
 27 25  1  0  0  0  0
 28 29  2  0  0  0  0
 28 30  1  0  0  0  0
 29 32  1  0  0  0  0
 30 31  2  0  0  0  0
 31 33  1  0  0  0  0
 32 33  2  0  0  0  0
 34 32  1  0  0  0  0
 34 37  1  0  0  0  0
 35 34  2  0  0  0  0
 37 36  1  0  0  0  0
 39 38  1  0  0  0  0
 40 39  1  6  0  0  0
 40 63  1  0  0  0  0
 42 41  1  6  0  0  0
 42 43  1  0  0  0  0
 42 40  1  0  0  0  0
 43 55  1  6  0  0  0
 43 45  1  0  0  0  0
 44 45  2  0  0  0  0
 45 46  1  0  0  0  0
 46 47  1  0  0  0  0
 47 49  1  0  0  0  0
 49 48  1  6  0  0  0
 51 49  1  1  0  0  0
 51 53  1  0  0  0  0
 51 54  1  0  0  0  0
 52 53  1  0  0  0  0
 53 54  1  0  0  0  0
 53 50  1  0  0  0  0
 57 55  1  0  0  0  0
 57 56  1  1  0  0  0
 58 61  1  0  0  0  0
 58 60  1  0  0  0  0
 59 62  1  0  0  0  0
 60 62  1  0  0  0  0
 61 59  1  0  0  0  0
 62 57  1  0  0  0  0
 63 64  1  0  0  0  0
M  END
>  <MODEL>
4

>  <REMARK>
 VINA RESULT:      -6.5      3.219     11.061
  Name = 
  24 active torsions:
  status: ('A' for Active; 'I' for Inactive)
    1  A    between atoms: C_1  and  C_10
    2  A    between atoms: C_1  and  C_38
    3  A    between atoms: C_3  and  C_6
    4  A    between atoms: C_3  and  C_15
    5  A    between atoms: C_5  and  O_35
    6  A    between atoms: C_5  and  C_36
    7  A    between atoms: C_6  and  O_29
    8  A    between atoms: C_6  and  C_53
    9  A    between atoms: O_9  and  N_27
   10  A    between atoms: C_12  and  C_58
   11  A    between atoms: C_12  and  C_63
   12  A    between atoms: C_13  and  C_26
   13  A    between atoms: C_13  and  C_60
   14  A    between atoms: C_15  and  N_27
   15  A    between atoms: C_18  and  C_22
   16  A    between atoms: C_18  and  C_59
   17  A    between atoms: C_19  and  C_25
   18  A    between atoms: C_22  and  N_40
   19  A    between atoms: C_24  and  C_60
   20  A    between atoms: C_25  and  C_32
   21  A    between atoms: C_26  and  C_57
   22  A    between atoms: C_31  and  C_62
   23  A    between atoms: C_53  and  C_59
   24  A    between atoms: C_57  and  C_59
                            x       y       z     vdW  Elec       q    Type
                         _______ _______ _______ _____ _____    ______ ____

>  <TORSDO>
F 24

$$$$
=
 OpenBabel11062418243D

 64 70  0  0  1  0  0  0  0  0999 V2000
  189.7930  174.6770  142.8580 C   0  0  0  0  0  2  0  0  0  0  0  0
  190.8160  173.3200  144.6320 N   0  0  0  0  0  0  0  0  0  0  0  0
  191.4370  174.3620  145.0990 C   0  0  0  0  0  0  0  0  0  0  0  0
  189.9570  177.2060  143.2260 N   0  0  0  0  0  0  0  0  0  0  0  0
  191.0520  175.6810  144.6770 N   0  0  0  0  0  0  0  0  0  0  0  0
  190.2610  175.8680  143.6590 C   0  0  0  0  0  0  0  0  0  0  0  0
  189.6450  173.4610  143.7710 C   0  0  0  0  0  2  0  0  0  0  0  0
  190.3590  178.2610  143.9810 O   0  0  0  0  0  0  0  0  0  0  0  0
  191.5770  178.6790  143.4330 C   0  0  0  0  0  1  0  0  0  0  0  0
  192.6120  174.1670  146.0040 C   0  0  2  0  0  3  0  0  0  0  0  0
  192.7660  175.2910  146.8120 O   0  0  0  0  0  1  0  0  0  0  0  0
  195.9190  172.8530  145.3140 C   0  0  2  0  0  3  0  0  0  0  0  0
  193.9050  173.8930  145.2390 C   0  0  1  0  0  3  0  0  0  0  0  0
  194.6310  172.8750  145.8900 O   0  0  0  0  0  0  0  0  0  0  0  0
  193.6380  173.5010  143.9110 O   0  0  0  0  0  0  0  0  0  0  0  0
  195.8640  172.6000  143.8030 C   0  0  0  0  0  2  0  0  0  0  0  0
  194.8650  173.6000  143.2370 C   0  0  1  0  0  3  0  0  0  0  0  0
  196.8070  171.8420  146.0380 C   0  0  0  0  0  2  0  0  0  0  0  0
  194.9760  168.5890  145.3720 O   0  0  0  0  0  1  0  0  0  0  0  0
  197.2090  169.8280  144.5960 F   0  0  0  0  0  0  0  0  0  0  0  0
  196.5300  170.3810  145.6700 C   0  0  2  0  0  0  0  0  0  0  0  0
  195.2530  169.7050  146.1610 C   0  0  2  0  0  3  0  0  0  0  0  0
  196.5750  169.4900  146.8930 C   0  0  0  0  0  2  0  0  0  0  0  0
  194.6880  173.4380  141.7350 C   0  0  0  0  0  2  0  0  0  0  0  0
  195.9670  173.8950  139.6840 C   0  0  0  0  0  2  0  0  0  0  0  0
  194.8100  174.8690  139.5620 C   0  0  2  0  0  3  0  0  0  0  0  0
  195.4020  174.5300  140.9420 C   0  0  1  0  0  3  0  0  0  0  0  0
  193.3440  173.5770  138.0100 C   0  0  0  0  0  3  0  0  0  0  0  0
  192.1320  172.9590  137.6930 C   0  0  0  0  0  3  0  0  0  0  0  0
  193.4890  174.2060  139.2480 C   0  0  0  0  0  0  0  0  0  0  0  0
  192.4530  174.1950  140.1390 N   0  0  0  0  0  0  0  0  0  0  0  0
  191.0730  172.9760  138.6090 C   0  0  0  0  0  0  0  0  0  0  0  0
  191.2630  173.6080  139.8460 C   0  0  0  0  0  3  0  0  0  0  0  0
  189.7870  172.3480  138.2690 C   0  0  0  0  0  0  0  0  0  0  0  0
  189.7660  171.2160  137.7100 O   0  0  0  0  0  0  0  0  0  0  0  0
  188.1740  174.1700  137.8820 C   0  0  0  0  0  1  0  0  0  0  0  0
  188.5930  173.0040  138.5780 O   0  0  0  0  0  0  0  0  0  0  0  0
  189.0350  177.3900  142.1010 C   0  0  0  0  0  2  0  0  0  0  0  0
  187.7460  178.1310  142.4590 C   0  0  0  0  0  2  0  0  0  0  0  0
  186.5750  177.7230  141.5660 C   0  0  2  0  0  3  0  0  0  0  0  0
  186.2640  176.1500  143.3440 O   0  0  0  0  0  1  0  0  0  0  0  0
  185.5770  176.8700  142.3600 C   0  0  1  0  0  3  0  0  0  0  0  0
  184.4250  177.7040  142.9450 C   0  0  1  0  0  3  0  0  0  0  0  0
  185.2590  179.6830  143.8900 O   0  0  0  0  0  0  0  0  0  0  0  0
  184.8990  178.5370  144.0950 C   0  0  0  0  0  0  0  0  0  0  0  0
  184.9950  177.9560  145.4730 C   0  0  0  0  0  2  0  0  0  0  0  0
  185.4900  178.9960  146.4640 C   0  0  0  0  0  2  0  0  0  0  0  0
  186.6830  178.7780  148.5170 O   0  0  0  0  0  1  0  0  0  0  0  0
  186.7550  178.5080  147.1500 C   0  0  1  0  0  3  0  0  0  0  0  0
  189.4870  177.5320  147.2580 C   0  0  0  0  0  1  0  0  0  0  0  0
  186.9040  177.0100  146.9410 C   0  0  2  0  0  3  0  0  0  0  0  0
  188.5690  175.0840  147.3540 C   0  0  0  0  0  1  0  0  0  0  0  0
  188.3550  176.5440  147.0080 C   0  0  0  0  0  0  0  0  0  0  0  0
  187.6920  176.7370  145.6620 C   0  0  0  0  0  2  0  0  0  0  0  0
  183.7120  178.5920  141.9230 C   0  0  0  0  0  2  0  0  0  0  0  0
  182.5480  177.5440  139.9700 C   0  0  0  0  0  1  0  0  0  0  0  0
  182.4160  177.9410  141.4390 C   0  0  2  0  0  3  0  0  0  0  0  0
  178.9180  178.4290  141.1940 C   0  0  0  0  0  2  0  0  0  0  0  0
  180.8800  179.6130  140.5580 C   0  0  0  0  0  2  0  0  0  0  0  0
  180.0950  177.9510  142.0280 C   0  0  0  0  0  2  0  0  0  0  0  0
  179.3790  179.7170  140.5540 C   0  0  0  0  0  2  0  0  0  0  0  0
  181.2480  178.7960  141.7170 N   0  0  0  0  0  0  0  0  0  0  0  0
  187.0290  177.0550  140.4180 O   0  0  0  0  0  0  0  0  0  0  0  0
  186.2510  177.5500  139.3690 C   0  0  0  0  0  1  0  0  0  0  0  0
  1  6  1  0  0  0  0
  1  7  1  0  0  0  0
  2  3  2  0  0  0  0
  3 10  1  0  0  0  0
  4  6  1  0  0  0  0
  4  8  1  0  0  0  0
  5  3  1  0  0  0  0
  6  5  2  0  0  0  0
  7  2  1  0  0  0  0
  9  8  1  0  0  0  0
 10 11  1  6  0  0  0
 12 14  1  0  0  0  0
 12 18  1  1  0  0  0
 13 14  1  0  0  0  0
 13 10  1  1  0  0  0
 15 13  1  0  0  0  0
 16 12  1  0  0  0  0
 17 24  1  6  0  0  0
 17 16  1  0  0  0  0
 17 15  1  0  0  0  0
 21 20  1  6  0  0  0
 21 18  1  0  0  0  0
 21 22  1  0  0  0  0
 21 23  1  0  0  0  0
 22 19  1  6  0  0  0
 22 23  1  0  0  0  0
 25 27  1  0  0  0  0
 26 30  1  1  0  0  0
 26 25  1  0  0  0  0
 26 27  1  0  0  0  0
 27 24  1  1  0  0  0
 28 30  1  0  0  0  0
 29 28  2  0  0  0  0
 29 32  1  0  0  0  0
 30 31  2  0  0  0  0
 32 33  2  0  0  0  0
 33 31  1  0  0  0  0
 34 37  1  0  0  0  0
 34 32  1  0  0  0  0
 35 34  2  0  0  0  0
 36 37  1  0  0  0  0
 38 39  1  0  0  0  0
 38  4  1  0  0  0  0
 40 42  1  0  0  0  0
 40 39  1  1  0  0  0
 42 43  1  0  0  0  0
 42 41  1  1  0  0  0
 43 55  1  6  0  0  0
 43 45  1  0  0  0  0
 44 45  2  0  0  0  0
 45 46  1  0  0  0  0
 46 47  1  0  0  0  0
 47 49  1  0  0  0  0
 49 48  1  1  0  0  0
 51 53  1  0  0  0  0
 51 49  1  6  0  0  0
 53 50  1  0  0  0  0
 53 52  1  0  0  0  0
 54 51  1  0  0  0  0
 54 53  1  0  0  0  0
 57 56  1  6  0  0  0
 57 62  1  0  0  0  0
 57 55  1  0  0  0  0
 58 60  1  0  0  0  0
 59 62  1  0  0  0  0
 61 59  1  0  0  0  0
 61 58  1  0  0  0  0
 62 60  1  0  0  0  0
 63 40  1  0  0  0  0
 64 63  1  0  0  0  0
M  END
>  <MODEL>
5

>  <REMARK>
 VINA RESULT:      -6.2      2.393      5.102
  Name = 
  24 active torsions:
  status: ('A' for Active; 'I' for Inactive)
    1  A    between atoms: C_1  and  C_10
    2  A    between atoms: C_1  and  C_38
    3  A    between atoms: C_3  and  C_6
    4  A    between atoms: C_3  and  C_15
    5  A    between atoms: C_5  and  O_35
    6  A    between atoms: C_5  and  C_36
    7  A    between atoms: C_6  and  O_29
    8  A    between atoms: C_6  and  C_53
    9  A    between atoms: O_9  and  N_27
   10  A    between atoms: C_12  and  C_58
   11  A    between atoms: C_12  and  C_63
   12  A    between atoms: C_13  and  C_26
   13  A    between atoms: C_13  and  C_60
   14  A    between atoms: C_15  and  N_27
   15  A    between atoms: C_18  and  C_22
   16  A    between atoms: C_18  and  C_59
   17  A    between atoms: C_19  and  C_25
   18  A    between atoms: C_22  and  N_40
   19  A    between atoms: C_24  and  C_60
   20  A    between atoms: C_25  and  C_32
   21  A    between atoms: C_26  and  C_57
   22  A    between atoms: C_31  and  C_62
   23  A    between atoms: C_53  and  C_59
   24  A    between atoms: C_57  and  C_59
                            x       y       z     vdW  Elec       q    Type
                         _______ _______ _______ _____ _____    ______ ____

>  <TORSDO>
F 24

$$$$
=
 OpenBabel11062418243D

 64 70  0  0  1  0  0  0  0  0999 V2000
  191.1740  169.9660  140.3670 C   0  0  0  0  0  2  0  0  0  0  0  0
  193.0920  168.8090  139.3580 N   0  0  0  0  0  0  0  0  0  0  0  0
  193.5530  169.9330  138.8960 C   0  0  0  0  0  0  0  0  0  0  0  0
  191.4220  172.5100  140.5100 N   0  0  0  0  0  0  0  0  0  0  0  0
  193.0330  171.1810  139.3840 N   0  0  0  0  0  0  0  0  0  0  0  0
  191.9460  171.2340  140.1000 C   0  0  0  0  0  0  0  0  0  0  0  0
  192.1330  168.7810  140.4590 C   0  0  0  0  0  2  0  0  0  0  0  0
  192.1510  173.6350  140.2900 O   0  0  0  0  0  0  0  0  0  0  0  0
  192.1430  174.3370  141.5000 C   0  0  0  0  0  1  0  0  0  0  0  0
  194.5590  169.9090  137.7890 C   0  0  2  0  0  3  0  0  0  0  0  0
  194.6390  168.6220  137.2630 O   0  0  0  0  0  1  0  0  0  0  0  0
  197.4580  172.0580  138.1350 C   0  0  2  0  0  3  0  0  0  0  0  0
  195.9410  170.3740  138.2410 C   0  0  1  0  0  3  0  0  0  0  0  0
  196.0930  171.7470  137.9560 O   0  0  0  0  0  0  0  0  0  0  0  0
  196.1230  170.1610  139.6230 O   0  0  0  0  0  0  0  0  0  0  0  0
  197.9330  171.7430  139.5580 C   0  0  0  0  0  2  0  0  0  0  0  0
  197.5010  170.3110  139.8470 C   0  0  1  0  0  3  0  0  0  0  0  0
  197.7270  173.5090  137.7430 C   0  0  0  0  0  2  0  0  0  0  0  0
  195.6440  173.4470  134.5750 O   0  0  0  0  0  1  0  0  0  0  0  0
  196.6360  175.2380  136.2870 F   0  0  0  0  0  0  0  0  0  0  0  0
  197.0870  173.9340  136.4170 C   0  0  2  0  0  0  0  0  0  0  0  0
  196.5610  172.8730  135.4560 C   0  0  2  0  0  3  0  0  0  0  0  0
  197.9330  173.5040  135.2380 C   0  0  0  0  0  2  0  0  0  0  0  0
  197.8860  169.8740  141.2520 C   0  0  0  0  0  2  0  0  0  0  0  0
  197.4350  168.4400  143.2000 C   0  0  0  0  0  2  0  0  0  0  0  0
  196.1150  169.1680  143.0270 C   0  0  2  0  0  3  0  0  0  0  0  0
  196.9630  168.7880  141.7990 C   0  0  1  0  0  3  0  0  0  0  0  0
  195.2510  171.5020  142.8370 C   0  0  0  0  0  3  0  0  0  0  0  0
  195.2830  172.8550  143.1810 C   0  0  0  0  0  3  0  0  0  0  0  0
  196.1700  170.6260  143.4200 C   0  0  0  0  0  0  0  0  0  0  0  0
  197.0750  171.0990  144.3290 N   0  0  0  0  0  0  0  0  0  0  0  0
  196.2300  173.3270  144.0980 C   0  0  0  0  0  0  0  0  0  0  0  0
  197.1270  172.4130  144.6690 C   0  0  0  0  0  3  0  0  0  0  0  0
  196.2810  174.7560  144.4430 C   0  0  0  0  0  0  0  0  0  0  0  0
  195.7380  175.1690  145.5050 O   0  0  0  0  0  0  0  0  0  0  0  0
  196.2980  176.2500  142.4840 C   0  0  0  0  0  1  0  0  0  0  0  0
  196.9440  175.6490  143.5980 O   0  0  0  0  0  0  0  0  0  0  0  0
  190.2180  172.5410  141.3460 C   0  0  0  0  0  2  0  0  0  0  0  0
  188.9240  172.8040  140.5730 C   0  0  0  0  0  2  0  0  0  0  0  0
  188.6660  174.2960  140.3650 C   0  0  2  0  0  3  0  0  0  0  0  0
  187.4660  173.8200  142.3810 O   0  0  0  0  0  1  0  0  0  0  0  0
  187.6790  174.8140  141.4190 C   0  0  1  0  0  3  0  0  0  0  0  0
  188.1310  176.1440  142.0440 C   0  0  1  0  0  3  0  0  0  0  0  0
  186.8980  177.2250  140.3660 O   0  0  0  0  0  0  0  0  0  0  0  0
  187.3310  177.2880  141.5040 C   0  0  0  0  0  0  0  0  0  0  0  0
  187.1170  178.5260  142.3200 C   0  0  0  0  0  2  0  0  0  0  0  0
  185.7000  178.5770  142.8640 C   0  0  0  0  0  2  0  0  0  0  0  0
  185.2230  180.4030  144.3210 O   0  0  0  0  0  1  0  0  0  0  0  0
  185.7030  179.0930  144.2930 C   0  0  1  0  0  3  0  0  0  0  0  0
  186.3200  179.1480  147.1290 C   0  0  0  0  0  1  0  0  0  0  0  0
  184.8110  178.2140  145.1550 C   0  0  2  0  0  3  0  0  0  0  0  0
  184.0680  177.9050  147.6060 C   0  0  0  0  0  1  0  0  0  0  0  0
  185.1720  178.2780  146.6360 C   0  0  0  0  0  0  0  0  0  0  0  0
  185.6400  177.1050  145.8010 C   0  0  0  0  0  2  0  0  0  0  0  0
  188.0910  176.1630  143.5740 C   0  0  0  0  0  2  0  0  0  0  0  0
  190.5830  176.3540  143.4130 C   0  0  0  0  0  1  0  0  0  0  0  0
  189.3350  176.8430  144.1480 C   0  0  2  0  0  3  0  0  0  0  0  0
  191.0470  175.5030  146.9430 C   0  0  0  0  0  2  0  0  0  0  0  0
  188.8450  175.4040  146.0500 C   0  0  0  0  0  2  0  0  0  0  0  0
  190.8130  176.6930  146.0250 C   0  0  0  0  0  2  0  0  0  0  0  0
  189.6750  174.9330  147.2130 C   0  0  0  0  0  2  0  0  0  0  0  0
  189.4100  176.6810  145.6100 N   0  0  0  0  0  0  0  0  0  0  0  0
  188.2120  174.5490  139.0610 O   0  0  0  0  0  0  0  0  0  0  0  0
  189.0250  173.7780  138.2280 C   0  0  0  0  0  1  0  0  0  0  0  0
  1  7  1  0  0  0  0
  2  7  1  0  0  0  0
  3  2  2  0  0  0  0
  3  5  1  0  0  0  0
  4 38  1  0  0  0  0
  5  6  2  0  0  0  0
  6  1  1  0  0  0  0
  6  4  1  0  0  0  0
  8  4  1  0  0  0  0
  8  9  1  0  0  0  0
 10 11  1  1  0  0  0
 10  3  1  0  0  0  0
 12 18  1  1  0  0  0
 12 16  1  0  0  0  0
 13 10  1  1  0  0  0
 13 15  1  0  0  0  0
 14 12  1  0  0  0  0
 14 13  1  0  0  0  0
 15 17  1  0  0  0  0
 16 17  1  0  0  0  0
 17 24  1  1  0  0  0
 21 20  1  6  0  0  0
 21 18  1  0  0  0  0
 22 19  1  6  0  0  0
 22 21  1  0  0  0  0
 23 22  1  0  0  0  0
 23 21  1  0  0  0  0
 26 25  1  0  0  0  0
 26 30  1  1  0  0  0
 27 24  1  1  0  0  0
 27 26  1  0  0  0  0
 27 25  1  0  0  0  0
 28 29  2  0  0  0  0
 28 30  1  0  0  0  0
 29 32  1  0  0  0  0
 30 31  2  0  0  0  0
 31 33  1  0  0  0  0
 32 34  1  0  0  0  0
 32 33  2  0  0  0  0
 34 35  2  0  0  0  0
 36 37  1  0  0  0  0
 37 34  1  0  0  0  0
 39 38  1  0  0  0  0
 40 39  1  6  0  0  0
 40 42  1  0  0  0  0
 42 43  1  0  0  0  0
 42 41  1  1  0  0  0
 43 55  1  1  0  0  0
 44 45  2  0  0  0  0
 45 43  1  0  0  0  0
 45 46  1  0  0  0  0
 46 47  1  0  0  0  0
 47 49  1  0  0  0  0
 49 48  1  6  0  0  0
 51 49  1  6  0  0  0
 51 54  1  0  0  0  0
 51 53  1  0  0  0  0
 53 50  1  0  0  0  0
 53 52  1  0  0  0  0
 54 53  1  0  0  0  0
 55 57  1  0  0  0  0
 57 56  1  6  0  0  0
 57 62  1  0  0  0  0
 58 61  1  0  0  0  0
 59 61  1  0  0  0  0
 60 58  1  0  0  0  0
 62 60  1  0  0  0  0
 62 59  1  0  0  0  0
 63 40  1  0  0  0  0
 64 63  1  0  0  0  0
M  END
>  <MODEL>
6

>  <REMARK>
 VINA RESULT:      -5.4      3.126      6.017
  Name = 
  24 active torsions:
  status: ('A' for Active; 'I' for Inactive)
    1  A    between atoms: C_1  and  C_10
    2  A    between atoms: C_1  and  C_38
    3  A    between atoms: C_3  and  C_6
    4  A    between atoms: C_3  and  C_15
    5  A    between atoms: C_5  and  O_35
    6  A    between atoms: C_5  and  C_36
    7  A    between atoms: C_6  and  O_29
    8  A    between atoms: C_6  and  C_53
    9  A    between atoms: O_9  and  N_27
   10  A    between atoms: C_12  and  C_58
   11  A    between atoms: C_12  and  C_63
   12  A    between atoms: C_13  and  C_26
   13  A    between atoms: C_13  and  C_60
   14  A    between atoms: C_15  and  N_27
   15  A    between atoms: C_18  and  C_22
   16  A    between atoms: C_18  and  C_59
   17  A    between atoms: C_19  and  C_25
   18  A    between atoms: C_22  and  N_40
   19  A    between atoms: C_24  and  C_60
   20  A    between atoms: C_25  and  C_32
   21  A    between atoms: C_26  and  C_57
   22  A    between atoms: C_31  and  C_62
   23  A    between atoms: C_53  and  C_59
   24  A    between atoms: C_57  and  C_59
                            x       y       z     vdW  Elec       q    Type
                         _______ _______ _______ _____ _____    ______ ____

>  <TORSDO>
F 24

$$$$
=
 OpenBabel11062418243D

 64 70  0  0  1  0  0  0  0  0999 V2000
  192.3070  175.2440  143.2450 C   0  0  0  0  0  2  0  0  0  0  0  0
  194.0420  175.0950  141.5120 N   0  0  0  0  0  0  0  0  0  0  0  0
  194.9490  175.4830  142.3580 C   0  0  0  0  0  0  0  0  0  0  0  0
  193.2050  175.4270  145.6350 N   0  0  0  0  0  0  0  0  0  0  0  0
  194.6660  175.4880  143.7680 N   0  0  0  0  0  0  0  0  0  0  0  0
  193.4530  175.3460  144.2210 C   0  0  0  0  0  0  0  0  0  0  0  0
  192.7700  174.5440  141.9690 C   0  0  0  0  0  2  0  0  0  0  0  0
  194.2540  175.4830  146.4970 O   0  0  0  0  0  0  0  0  0  0  0  0
  194.4370  176.8400  146.7860 C   0  0  0  0  0  1  0  0  0  0  0  0
  196.2510  176.0110  141.8420 C   0  0  2  0  0  3  0  0  0  0  0  0
  196.0060  177.0000  140.8920 O   0  0  0  0  0  1  0  0  0  0  0  0
  197.9080  172.8040  141.5140 C   0  0  2  0  0  3  0  0  0  0  0  0
  197.1310  174.9170  141.2410 C   0  0  1  0  0  3  0  0  0  0  0  0
  196.8930  173.7000  141.9110 O   0  0  0  0  0  0  0  0  0  0  0  0
  196.8700  174.7520  139.8650 O   0  0  0  0  0  0  0  0  0  0  0  0
  197.9220  172.5940  139.9960 C   0  0  0  0  0  2  0  0  0  0  0  0
  197.9350  173.9830  139.3720 C   0  0  1  0  0  3  0  0  0  0  0  0
  197.7830  171.4870  142.2790 C   0  0  0  0  0  2  0  0  0  0  0  0
  195.0400  170.0890  144.4930 O   0  0  0  0  0  1  0  0  0  0  0  0
  195.6310  172.3640  143.2280 F   0  0  0  0  0  0  0  0  0  0  0  0
  196.4120  171.2590  142.9240 C   0  0  2  0  0  0  0  0  0  0  0  0
  196.1090  169.9310  143.6100 C   0  0  2  0  0  3  0  0  0  0  0  0
  195.6290  170.1940  142.1850 C   0  0  0  0  0  2  0  0  0  0  0  0
  197.9190  173.9230  137.8510 C   0  0  0  0  0  2  0  0  0  0  0  0
  197.5620  175.0810  135.7110 C   0  0  0  0  0  2  0  0  0  0  0  0
  196.2300  175.2820  136.4090 C   0  0  2  0  0  3  0  0  0  0  0  0
  197.5390  175.2590  137.2190 C   0  0  1  0  0  3  0  0  0  0  0  0
  194.1720  174.0920  137.1670 C   0  0  0  0  0  3  0  0  0  0  0  0
  193.3840  172.9440  137.2670 C   0  0  0  0  0  3  0  0  0  0  0  0
  195.3960  174.0260  136.4980 C   0  0  0  0  0  0  0  0  0  0  0  0
  195.7980  172.8470  135.9350 N   0  0  0  0  0  0  0  0  0  0  0  0
  193.8190  171.7380  136.7030 C   0  0  0  0  0  0  0  0  0  0  0  0
  195.0490  171.7170  136.0290 C   0  0  0  0  0  3  0  0  0  0  0  0
  193.0030  170.5220  136.8280 C   0  0  0  0  0  0  0  0  0  0  0  0
  192.1010  170.2770  135.9790 O   0  0  0  0  0  0  0  0  0  0  0  0
  192.4430  168.4740  138.0770 C   0  0  0  0  0  1  0  0  0  0  0  0
  193.2380  169.6350  137.8810 O   0  0  0  0  0  0  0  0  0  0  0  0
  191.8360  175.2280  146.1230 C   0  0  0  0  0  2  0  0  0  0  0  0
  190.9890  176.5010  146.1520 C   0  0  0  0  0  2  0  0  0  0  0  0
  189.7920  176.3790  147.0950 C   0  0  2  0  0  3  0  0  0  0  0  0
  187.5180  175.6460  147.2370 O   0  0  0  0  0  1  0  0  0  0  0  0
  188.5890  175.7900  146.3480 C   0  0  1  0  0  3  0  0  0  0  0  0
  188.2080  176.6100  145.1040 C   0  0  1  0  0  3  0  0  0  0  0  0
  189.3770  176.8000  143.0790 O   0  0  0  0  0  0  0  0  0  0  0  0
  188.8460  176.0440  143.8740 C   0  0  0  0  0  0  0  0  0  0  0  0
  188.7800  174.5760  143.5830 C   0  0  0  0  0  2  0  0  0  0  0  0
  188.5610  174.3280  142.1010 C   0  0  0  0  0  2  0  0  0  0  0  0
  189.0730  172.0160  142.3730 O   0  0  0  0  0  1  0  0  0  0  0  0
  189.4020  173.1530  141.6340 C   0  0  1  0  0  3  0  0  0  0  0  0
  191.3210  171.3910  140.3510 C   0  0  0  0  0  1  0  0  0  0  0  0
  189.1370  172.8880  140.1600 C   0  0  2  0  0  3  0  0  0  0  0  0
  189.7230  171.2150  138.2870 C   0  0  0  0  0  1  0  0  0  0  0  0
  190.1680  171.9570  139.5310 C   0  0  0  0  0  0  0  0  0  0  0  0
  190.2780  173.4510  139.3160 C   0  0  0  0  0  2  0  0  0  0  0  0
  186.7000  176.7540  144.8850 C   0  0  0  0  0  2  0  0  0  0  0  0
  185.9140  179.1140  144.5980 C   0  0  0  0  0  1  0  0  0  0  0  0
  186.3950  177.8580  143.8720 C   0  0  2  0  0  3  0  0  0  0  0  0
  184.9410  178.3790  140.6860 C   0  0  0  0  0  2  0  0  0  0  0  0
  184.1670  178.0550  142.9110 C   0  0  0  0  0  2  0  0  0  0  0  0
  186.0260  177.7050  141.5120 C   0  0  0  0  0  2  0  0  0  0  0  0
  183.6770  178.2410  141.5010 C   0  0  0  0  0  2  0  0  0  0  0  0
  185.4680  177.3890  142.8270 N   0  0  0  0  0  0  0  0  0  0  0  0
  189.4840  177.6180  147.6770 O   0  0  0  0  0  0  0  0  0  0  0  0
  190.6810  178.3380  147.6740 C   0  0  0  0  0  1  0  0  0  0  0  0
  1  6  1  0  0  0  0
  2  7  1  0  0  0  0
  2  3  2  0  0  0  0
  3  5  1  0  0  0  0
  4 38  1  0  0  0  0
  4  8  1  0  0  0  0
  5  6  2  0  0  0  0
  6  4  1  0  0  0  0
  7  1  1  0  0  0  0
  8  9  1  0  0  0  0
 10 11  1  6  0  0  0
 10  3  1  0  0  0  0
 12 14  1  0  0  0  0
 12 18  1  1  0  0  0
 13 10  1  1  0  0  0
 13 14  1  0  0  0  0
 15 13  1  0  0  0  0
 16 12  1  0  0  0  0
 17 24  1  6  0  0  0
 17 15  1  0  0  0  0
 17 16  1  0  0  0  0
 18 21  1  0  0  0  0
 21 20  1  1  0  0  0
 21 22  1  0  0  0  0
 22 19  1  1  0  0  0
 23 21  1  0  0  0  0
 23 22  1  0  0  0  0
 25 26  1  0  0  0  0
 25 27  1  0  0  0  0
 26 30  1  1  0  0  0
 26 27  1  0  0  0  0
 27 24  1  1  0  0  0
 28 29  1  0  0  0  0
 30 28  2  0  0  0  0
 31 33  2  0  0  0  0
 31 30  1  0  0  0  0
 32 34  1  0  0  0  0
 32 29  2  0  0  0  0
 33 32  1  0  0  0  0
 34 37  1  0  0  0  0
 35 34  2  0  0  0  0
 37 36  1  0  0  0  0
 38 39  1  0  0  0  0
 40 39  1  6  0  0  0
 40 63  1  0  0  0  0
 42 40  1  0  0  0  0
 42 41  1  1  0  0  0
 43 55  1  6  0  0  0
 43 42  1  0  0  0  0
 44 45  2  0  0  0  0
 45 43  1  0  0  0  0
 46 45  1  0  0  0  0
 47 46  1  0  0  0  0
 49 47  1  0  0  0  0
 49 48  1  1  0  0  0
 51 49  1  1  0  0  0
 52 53  1  0  0  0  0
 53 51  1  0  0  0  0
 53 50  1  0  0  0  0
 54 53  1  0  0  0  0
 54 51  1  0  0  0  0
 57 56  1  1  0  0  0
 57 55  1  0  0  0  0
 58 61  1  0  0  0  0
 58 60  1  0  0  0  0
 60 62  1  0  0  0  0
 61 59  1  0  0  0  0
 62 59  1  0  0  0  0
 62 57  1  0  0  0  0
 64 63  1  0  0  0  0
M  END
>  <MODEL>
7

>  <REMARK>
 VINA RESULT:      -5.4      2.898      7.114
  Name = 
  24 active torsions:
  status: ('A' for Active; 'I' for Inactive)
    1  A    between atoms: C_1  and  C_10
    2  A    between atoms: C_1  and  C_38
    3  A    between atoms: C_3  and  C_6
    4  A    between atoms: C_3  and  C_15
    5  A    between atoms: C_5  and  O_35
    6  A    between atoms: C_5  and  C_36
    7  A    between atoms: C_6  and  O_29
    8  A    between atoms: C_6  and  C_53
    9  A    between atoms: O_9  and  N_27
   10  A    between atoms: C_12  and  C_58
   11  A    between atoms: C_12  and  C_63
   12  A    between atoms: C_13  and  C_26
   13  A    between atoms: C_13  and  C_60
   14  A    between atoms: C_15  and  N_27
   15  A    between atoms: C_18  and  C_22
   16  A    between atoms: C_18  and  C_59
   17  A    between atoms: C_19  and  C_25
   18  A    between atoms: C_22  and  N_40
   19  A    between atoms: C_24  and  C_60
   20  A    between atoms: C_25  and  C_32
   21  A    between atoms: C_26  and  C_57
   22  A    between atoms: C_31  and  C_62
   23  A    between atoms: C_53  and  C_59
   24  A    between atoms: C_57  and  C_59
                            x       y       z     vdW  Elec       q    Type
                         _______ _______ _______ _____ _____    ______ ____

>  <TORSDO>
F 24

$$$$
=
 OpenBabel11062418243D

 64 70  0  0  1  0  0  0  0  0999 V2000
  193.7680  171.9590  144.7200 C   0  0  0  0  0  2  0  0  0  0  0  0
  194.5020  170.6870  142.7500 N   0  0  0  0  0  0  0  0  0  0  0  0
  193.2830  170.6380  142.3020 C   0  0  0  0  0  0  0  0  0  0  0  0
  191.4120  172.9440  144.5320 N   0  0  0  0  0  0  0  0  0  0  0  0
  192.2730  171.4950  142.8620 N   0  0  0  0  0  0  0  0  0  0  0  0
  192.4740  172.1520  143.9680 C   0  0  0  0  0  0  0  0  0  0  0  0
  194.9050  171.6850  143.7370 C   0  0  0  0  0  2  0  0  0  0  0  0
  190.2700  173.1320  143.8220 O   0  0  0  0  0  0  0  0  0  0  0  0
  189.5470  171.9400  143.9370 C   0  0  0  0  0  1  0  0  0  0  0  0
  192.9260  169.6190  141.2660 C   0  0  2  0  0  3  0  0  0  0  0  0
  193.7850  168.5280  141.3750 O   0  0  0  0  0  1  0  0  0  0  0  0
  191.7400  171.0260  138.1430 C   0  0  2  0  0  3  0  0  0  0  0  0
  192.9760  170.1820  139.8470 C   0  0  1  0  0  3  0  0  0  0  0  0
  191.7360  170.7730  139.5310 O   0  0  0  0  0  0  0  0  0  0  0  0
  194.0000  171.1430  139.7160 O   0  0  0  0  0  0  0  0  0  0  0  0
  192.8990  171.9420  137.7330 C   0  0  0  0  0  2  0  0  0  0  0  0
  194.1600  171.3340  138.3340 C   0  0  1  0  0  3  0  0  0  0  0  0
  190.3850  171.5740  137.6990 C   0  0  0  0  0  2  0  0  0  0  0  0
  188.3560  174.1550  139.5960 O   0  0  0  0  0  1  0  0  0  0  0  0
  190.9180  173.5460  139.1570 F   0  0  0  0  0  0  0  0  0  0  0  0
  189.9770  172.8810  138.3860 C   0  0  2  0  0  0  0  0  0  0  0  0
  188.4990  173.2000  138.5890 C   0  0  2  0  0  3  0  0  0  0  0  0
  189.2710  173.8100  137.4220 C   0  0  0  0  0  2  0  0  0  0  0  0
  195.3950  172.1670  138.0280 C   0  0  0  0  0  2  0  0  0  0  0  0
  195.9740  170.9250  135.9850 C   0  0  0  0  0  2  0  0  0  0  0  0
  197.0860  171.9550  136.0590 C   0  0  2  0  0  3  0  0  0  0  0  0
  196.4930  171.3550  137.3460 C   0  0  1  0  0  3  0  0  0  0  0  0
  197.6090  174.3440  135.5640 C   0  0  0  0  0  3  0  0  0  0  0  0
  197.2180  175.6520  135.2690 C   0  0  0  0  0  3  0  0  0  0  0  0
  196.6340  173.3600  135.7370 C   0  0  0  0  0  0  0  0  0  0  0  0
  195.3130  173.6830  135.5980 N   0  0  0  0  0  0  0  0  0  0  0  0
  195.8590  175.9710  135.1510 C   0  0  0  0  0  0  0  0  0  0  0  0
  194.9120  174.9510  135.3200 C   0  0  0  0  0  3  0  0  0  0  0  0
  195.4430  177.3520  134.8650 C   0  0  0  0  0  0  0  0  0  0  0  0
  196.2960  178.2840  134.8750 O   0  0  0  0  0  0  0  0  0  0  0  0
  193.4360  178.7620  135.0970 C   0  0  0  0  0  1  0  0  0  0  0  0
  194.1050  177.6250  134.5690 O   0  0  0  0  0  0  0  0  0  0  0  0
  191.6740  173.7030  145.7580 C   0  0  0  0  0  2  0  0  0  0  0  0
  190.4150  174.1090  146.5260 C   0  0  0  0  0  2  0  0  0  0  0  0
  189.6530  175.2380  145.8330 C   0  0  2  0  0  3  0  0  0  0  0  0
  191.4880  176.5090  146.6960 O   0  0  0  0  0  1  0  0  0  0  0  0
  190.5660  176.4550  145.6440 C   0  0  1  0  0  3  0  0  0  0  0  0
  191.2510  176.4690  144.2670 C   0  0  1  0  0  3  0  0  0  0  0  0
  190.2520  178.3620  143.3050 O   0  0  0  0  0  0  0  0  0  0  0  0
  190.3920  177.1520  143.2500 C   0  0  0  0  0  0  0  0  0  0  0  0
  189.6550  176.3590  142.2130 C   0  0  0  0  0  2  0  0  0  0  0  0
  188.2030  176.1640  142.6130 C   0  0  0  0  0  2  0  0  0  0  0  0
  187.6390  177.8610  141.0360 O   0  0  0  0  0  1  0  0  0  0  0  0
  187.4080  177.4300  142.3430 C   0  0  1  0  0  3  0  0  0  0  0  0
  185.8900  179.6230  143.4920 C   0  0  0  0  0  1  0  0  0  0  0  0
  185.9250  177.1510  142.5250 C   0  0  2  0  0  3  0  0  0  0  0  0
  183.6800  178.3770  142.8550 C   0  0  0  0  0  1  0  0  0  0  0  0
  185.1700  178.3310  143.1280 C   0  0  0  0  0  0  0  0  0  0  0  0
  185.5690  177.1670  144.0100 C   0  0  0  0  0  2  0  0  0  0  0  0
  192.6480  177.0960  144.2680 C   0  0  0  0  0  2  0  0  0  0  0  0
  194.6600  176.1380  145.4100 C   0  0  0  0  0  1  0  0  0  0  0  0
  193.7320  176.0200  144.2020 C   0  0  2  0  0  3  0  0  0  0  0  0
  194.4000  174.4460  141.1010 C   0  0  0  0  0  2  0  0  0  0  0  0
  195.6700  175.2540  142.9420 C   0  0  0  0  0  2  0  0  0  0  0  0
  193.5830  175.4660  141.8770 C   0  0  0  0  0  2  0  0  0  0  0  0
  195.8190  174.6210  141.5850 C   0  0  0  0  0  2  0  0  0  0  0  0
  194.4400  176.0490  142.9100 N   0  0  0  0  0  0  0  0  0  0  0  0
  188.4890  175.5680  146.5450 O   0  0  0  0  0  0  0  0  0  0  0  0
  188.2890  176.9320  146.3160 C   0  0  0  0  0  1  0  0  0  0  0  0
  2  7  1  0  0  0  0
  3  2  2  0  0  0  0
  3  5  1  0  0  0  0
  4 38  1  0  0  0  0
  5  6  2  0  0  0  0
  6  4  1  0  0  0  0
  6  1  1  0  0  0  0
  7  1  1  0  0  0  0
  8  9  1  0  0  0  0
  8  4  1  0  0  0  0
 10 11  1  6  0  0  0
 10  3  1  0  0  0  0
 12 18  1  1  0  0  0
 12 14  1  0  0  0  0
 13 10  1  1  0  0  0
 14 13  1  0  0  0  0
 15 13  1  0  0  0  0
 16 12  1  0  0  0  0
 16 17  1  0  0  0  0
 17 24  1  1  0  0  0
 17 15  1  0  0  0  0
 18 21  1  0  0  0  0
 21 22  1  0  0  0  0
 21 20  1  1  0  0  0
 22 19  1  1  0  0  0
 23 21  1  0  0  0  0
 23 22  1  0  0  0  0
 25 26  1  0  0  0  0
 25 27  1  0  0  0  0
 26 30  1  1  0  0  0
 26 27  1  0  0  0  0
 27 24  1  1  0  0  0
 28 30  1  0  0  0  0
 29 28  2  0  0  0  0
 31 30  2  0  0  0  0
 32 29  1  0  0  0  0
 32 33  2  0  0  0  0
 33 31  1  0  0  0  0
 34 35  2  0  0  0  0
 34 32  1  0  0  0  0
 37 34  1  0  0  0  0
 37 36  1  0  0  0  0
 38 39  1  0  0  0  0
 40 39  1  1  0  0  0
 40 63  1  0  0  0  0
 42 40  1  0  0  0  0
 42 41  1  1  0  0  0
 43 55  1  1  0  0  0
 43 42  1  0  0  0  0
 45 44  2  0  0  0  0
 45 43  1  0  0  0  0
 46 47  1  0  0  0  0
 46 45  1  0  0  0  0
 49 48  1  6  0  0  0
 49 47  1  0  0  0  0
 51 49  1  1  0  0  0
 51 53  1  0  0  0  0
 51 54  1  0  0  0  0
 52 53  1  0  0  0  0
 53 50  1  0  0  0  0
 53 54  1  0  0  0  0
 57 55  1  0  0  0  0
 57 56  1  1  0  0  0
 58 61  1  0  0  0  0
 58 60  1  0  0  0  0
 60 62  1  0  0  0  0
 61 59  1  0  0  0  0
 62 59  1  0  0  0  0
 62 57  1  0  0  0  0
 64 63  1  0  0  0  0
M  END
>  <MODEL>
8

>  <REMARK>
 VINA RESULT:      -5.1      2.938      8.430
  Name = 
  24 active torsions:
  status: ('A' for Active; 'I' for Inactive)
    1  A    between atoms: C_1  and  C_10
    2  A    between atoms: C_1  and  C_38
    3  A    between atoms: C_3  and  C_6
    4  A    between atoms: C_3  and  C_15
    5  A    between atoms: C_5  and  O_35
    6  A    between atoms: C_5  and  C_36
    7  A    between atoms: C_6  and  O_29
    8  A    between atoms: C_6  and  C_53
    9  A    between atoms: O_9  and  N_27
   10  A    between atoms: C_12  and  C_58
   11  A    between atoms: C_12  and  C_63
   12  A    between atoms: C_13  and  C_26
   13  A    between atoms: C_13  and  C_60
   14  A    between atoms: C_15  and  N_27
   15  A    between atoms: C_18  and  C_22
   16  A    between atoms: C_18  and  C_59
   17  A    between atoms: C_19  and  C_25
   18  A    between atoms: C_22  and  N_40
   19  A    between atoms: C_24  and  C_60
   20  A    between atoms: C_25  and  C_32
   21  A    between atoms: C_26  and  C_57
   22  A    between atoms: C_31  and  C_62
   23  A    between atoms: C_53  and  C_59
   24  A    between atoms: C_57  and  C_59
                            x       y       z     vdW  Elec       q    Type
                         _______ _______ _______ _____ _____    ______ ____

>  <TORSDO>
F 24

$$$$
=
 OpenBabel11062418243D

 64 70  0  0  1  0  0  0  0  0999 V2000
  191.1550  172.5640  143.4840 C   0  0  0  0  0  2  0  0  0  0  0  0
  192.3670  170.7470  142.3590 N   0  0  0  0  0  0  0  0  0  0  0  0
  192.9250  171.5950  141.5480 C   0  0  0  0  0  0  0  0  0  0  0  0
  192.0270  174.9120  142.9540 N   0  0  0  0  0  0  0  0  0  0  0  0
  192.8800  173.0040  141.8320 N   0  0  0  0  0  0  0  0  0  0  0  0
  192.0930  173.4890  142.7490 C   0  0  0  0  0  0  0  0  0  0  0  0
  191.7920  171.1830  143.6290 C   0  0  0  0  0  2  0  0  0  0  0  0
  192.9040  175.7220  142.3070 O   0  0  0  0  0  0  0  0  0  0  0  0
  194.0990  174.9990  142.2230 C   0  0  0  0  0  1  0  0  0  0  0  0
  193.5310  171.0960  140.2740 C   0  0  2  0  0  3  0  0  0  0  0  0
  193.0450  169.8190  139.9990 O   0  0  0  0  0  1  0  0  0  0  0  0
  196.9520  171.6780  139.2280 C   0  0  2  0  0  3  0  0  0  0  0  0
  195.0570  171.0740  140.3180 C   0  0  1  0  0  3  0  0  0  0  0  0
  195.5690  171.9390  139.3300 O   0  0  0  0  0  0  0  0  0  0  0  0
  195.5360  171.4740  141.5830 O   0  0  0  0  0  0  0  0  0  0  0  0
  197.6730  171.8920  140.5630 C   0  0  0  0  0  2  0  0  0  0  0  0
  196.8900  171.1040  141.6050 C   0  0  1  0  0  3  0  0  0  0  0  0
  197.5670  172.5040  138.0990 C   0  0  0  0  0  2  0  0  0  0  0  0
  195.7280  170.7380  135.2920 O   0  0  0  0  0  1  0  0  0  0  0  0
  196.8980  173.0930  135.7530 F   0  0  0  0  0  0  0  0  0  0  0  0
  197.1040  172.0980  136.6960 C   0  0  2  0  0  0  0  0  0  0  0  0
  196.4670  170.7290  136.4750 C   0  0  2  0  0  3  0  0  0  0  0  0
  197.9410  170.9600  136.1510 C   0  0  0  0  0  2  0  0  0  0  0  0
  197.4840  171.2550  142.9970 C   0  0  0  0  0  2  0  0  0  0  0  0
  197.9390  170.2350  145.1890 C   0  0  0  0  0  2  0  0  0  0  0  0
  196.4380  170.4440  145.2400 C   0  0  2  0  0  3  0  0  0  0  0  0
  197.1300  170.0850  143.9130 C   0  0  1  0  0  3  0  0  0  0  0  0
  194.6740  172.2090  145.2900 C   0  0  0  0  0  3  0  0  0  0  0  0
  194.2720  173.5400  145.4150 C   0  0  0  0  0  3  0  0  0  0  0  0
  196.0310  171.8920  145.3830 C   0  0  0  0  0  0  0  0  0  0  0  0
  196.9440  172.8830  145.6120 N   0  0  0  0  0  0  0  0  0  0  0  0
  195.2220  174.5460  145.6280 C   0  0  0  0  0  0  0  0  0  0  0  0
  196.5740  174.1850  145.7280 C   0  0  0  0  0  3  0  0  0  0  0  0
  194.8040  175.9520  145.7360 C   0  0  0  0  0  0  0  0  0  0  0  0
  194.9570  176.7330  144.7550 O   0  0  0  0  0  0  0  0  0  0  0  0
  192.8350  176.6780  147.0260 C   0  0  0  0  0  1  0  0  0  0  0  0
  194.2280  176.4140  146.9210 O   0  0  0  0  0  0  0  0  0  0  0  0
  191.1600  175.4310  144.0170 C   0  0  0  0  0  2  0  0  0  0  0  0
  190.9550  176.9460  143.9750 C   0  0  0  0  0  2  0  0  0  0  0  0
  189.4780  177.3330  144.0340 C   0  0  2  0  0  3  0  0  0  0  0  0
  187.9030  176.0170  145.2660 O   0  0  0  0  0  1  0  0  0  0  0  0
  188.6020  176.0730  144.0560 C   0  0  1  0  0  3  0  0  0  0  0  0
  187.6670  175.9860  142.8380 C   0  0  1  0  0  3  0  0  0  0  0  0
  187.6440  173.6820  142.3940 O   0  0  0  0  0  0  0  0  0  0  0  0
  187.9860  174.7860  142.0040 C   0  0  0  0  0  0  0  0  0  0  0  0
  188.7740  174.9210  140.7360 C   0  0  0  0  0  2  0  0  0  0  0  0
  189.3580  173.5820  140.3170 C   0  0  0  0  0  2  0  0  0  0  0  0
  187.8250  173.9280  138.5240 O   0  0  0  0  0  1  0  0  0  0  0  0
  189.0200  173.2920  138.8650 C   0  0  1  0  0  3  0  0  0  0  0  0
  190.2700  171.2690  137.1990 C   0  0  0  0  0  1  0  0  0  0  0  0
  190.1360  173.8060  137.9690 C   0  0  2  0  0  3  0  0  0  0  0  0
  191.4570  173.1690  135.8470 C   0  0  0  0  0  1  0  0  0  0  0  0
  190.7590  172.7090  137.1120 C   0  0  0  0  0  0  0  0  0  0  0  0
  191.4630  173.1680  138.3710 C   0  0  0  0  0  2  0  0  0  0  0  0
  186.1770  175.9900  143.1890 C   0  0  0  0  0  2  0  0  0  0  0  0
  186.4630  178.0360  141.7750 C   0  0  0  0  0  1  0  0  0  0  0  0
  185.4820  177.2290  142.6240 C   0  0  2  0  0  3  0  0  0  0  0  0
  185.7910  179.6810  145.1600 C   0  0  0  0  0  2  0  0  0  0  0  0
  185.0510  177.4260  145.0130 C   0  0  0  0  0  2  0  0  0  0  0  0
  185.4240  179.3570  143.7210 C   0  0  0  0  0  2  0  0  0  0  0  0
  185.1950  178.5650  145.9840 C   0  0  0  0  0  2  0  0  0  0  0  0
  184.8370  178.0170  143.6900 N   0  0  0  0  0  0  0  0  0  0  0  0
  189.1380  178.1820  142.9690 O   0  0  0  0  0  0  0  0  0  0  0  0
  190.3530  178.5500  142.3860 C   0  0  0  0  0  1  0  0  0  0  0  0
  1  7  1  0  0  0  0
  2  7  1  0  0  0  0
  3  5  1  0  0  0  0
  3  2  2  0  0  0  0
  4 38  1  0  0  0  0
  5  6  2  0  0  0  0
  6  4  1  0  0  0  0
  6  1  1  0  0  0  0
  8  4  1  0  0  0  0
  9  8  1  0  0  0  0
 10 11  1  1  0  0  0
 10  3  1  0  0  0  0
 12 18  1  6  0  0  0
 12 14  1  0  0  0  0
 12 16  1  0  0  0  0
 13 10  1  1  0  0  0
 13 15  1  0  0  0  0
 14 13  1  0  0  0  0
 15 17  1  0  0  0  0
 16 17  1  0  0  0  0
 17 24  1  1  0  0  0
 21 20  1  6  0  0  0
 21 18  1  0  0  0  0
 22 19  1  6  0  0  0
 22 21  1  0  0  0  0
 23 22  1  0  0  0  0
 23 21  1  0  0  0  0
 25 26  1  0  0  0  0
 26 30  1  6  0  0  0
 27 24  1  6  0  0  0
 27 25  1  0  0  0  0
 27 26  1  0  0  0  0
 28 30  2  0  0  0  0
 28 29  1  0  0  0  0
 29 32  2  0  0  0  0
 30 31  1  0  0  0  0
 31 33  2  0  0  0  0
 32 33  1  0  0  0  0
 32 34  1  0  0  0  0
 34 37  1  0  0  0  0
 35 34  2  0  0  0  0
 37 36  1  0  0  0  0
 39 38  1  0  0  0  0
 40 39  1  6  0  0  0
 40 42  1  0  0  0  0
 42 41  1  1  0  0  0
 43 55  1  1  0  0  0
 43 42  1  0  0  0  0
 45 44  2  0  0  0  0
 45 43  1  0  0  0  0
 46 45  1  0  0  0  0
 47 46  1  0  0  0  0
 49 48  1  6  0  0  0
 49 47  1  0  0  0  0
 51 54  1  0  0  0  0
 51 49  1  1  0  0  0
 52 53  1  0  0  0  0
 53 50  1  0  0  0  0
 53 51  1  0  0  0  0
 53 54  1  0  0  0  0
 57 56  1  1  0  0  0
 57 55  1  0  0  0  0
 57 62  1  0  0  0  0
 58 61  1  0  0  0  0
 59 61  1  0  0  0  0
 60 58  1  0  0  0  0
 62 60  1  0  0  0  0
 62 59  1  0  0  0  0
 63 40  1  0  0  0  0
 64 63  1  0  0  0  0
M  END
>  <MODEL>
9

>  <REMARK>
 VINA RESULT:      -5.1      2.836      5.395
  Name = 
  24 active torsions:
  status: ('A' for Active; 'I' for Inactive)
    1  A    between atoms: C_1  and  C_10
    2  A    between atoms: C_1  and  C_38
    3  A    between atoms: C_3  and  C_6
    4  A    between atoms: C_3  and  C_15
    5  A    between atoms: C_5  and  O_35
    6  A    between atoms: C_5  and  C_36
    7  A    between atoms: C_6  and  O_29
    8  A    between atoms: C_6  and  C_53
    9  A    between atoms: O_9  and  N_27
   10  A    between atoms: C_12  and  C_58
   11  A    between atoms: C_12  and  C_63
   12  A    between atoms: C_13  and  C_26
   13  A    between atoms: C_13  and  C_60
   14  A    between atoms: C_15  and  N_27
   15  A    between atoms: C_18  and  C_22
   16  A    between atoms: C_18  and  C_59
   17  A    between atoms: C_19  and  C_25
   18  A    between atoms: C_22  and  N_40
   19  A    between atoms: C_24  and  C_60
   20  A    between atoms: C_25  and  C_32
   21  A    between atoms: C_26  and  C_57
   22  A    between atoms: C_31  and  C_62
   23  A    between atoms: C_53  and  C_59
   24  A    between atoms: C_57  and  C_59
                            x       y       z     vdW  Elec       q    Type
                         _______ _______ _______ _____ _____    ______ ____

>  <TORSDO>
F 24

$$$$
