=
 OpenBabel11062420393D

 60 65  0  0  1  0  0  0  0  0999 V2000
  189.7500  172.6560  140.9830 C   0  0  1  0  0  3  0  0  0  0  0  0
  190.3390  174.3210  136.3460 C   0  0  0  0  0  1  0  0  0  0  0  0
  193.1180  173.6500  138.7360 O   0  0  0  0  0  0  0  0  0  0  0  0
  192.0690  171.4650  138.4620 C   0  0  2  0  0  0  0  0  0  0  0  0
  192.3620  170.1310  137.7760 C   0  0  0  0  0  1  0  0  0  0  0  0
  192.5110  174.2760  137.6240 C   0  0  2  0  0  3  0  0  0  0  0  0
  191.6420  171.1400  139.9040 C   0  0  0  0  0  2  0  0  0  0  0  0
  190.8990  172.2440  137.7230 C   0  0  1  0  0  0  0  0  0  0  0  0
  190.3760  173.3240  139.7590 C   0  0  1  0  0  3  0  0  0  0  0  0
  191.4440  173.4340  136.8980 C   0  0  1  0  0  3  0  0  0  0  0  0
  191.2030  172.4000  140.6380 C   0  0  1  0  0  0  0  0  0  0  0  0
  190.2800  171.3900  136.8020 O   0  0  0  0  0  1  0  0  0  0  0  0
  189.8710  172.6710  138.6140 O   0  0  0  0  0  0  0  0  0  0  0  0
  192.1590  173.0840  141.3920 O   0  0  0  0  0  1  0  0  0  0  0  0
  193.3880  172.2980  138.4400 C   0  0  2  0  0  3  0  0  0  0  0  0
  194.4980  171.7380  139.3640 C   0  0  1  0  0  3  0  0  0  0  0  0
  195.4120  171.7550  137.3430 C   0  0  0  0  0  1  0  0  0  0  0  0
  195.5230  171.1640  138.6040 O   0  0  0  0  0  0  0  0  0  0  0  0
  195.0960  172.7590  140.3450 C   0  0  1  0  0  3  0  0  0  0  0  0
  195.5050  172.1150  141.6670 C   0  0  0  0  0  2  0  0  0  0  0  0
  194.8900  172.8570  142.8370 C   0  0  0  0  0  2  0  0  0  0  0  0
  194.2500  171.6760  144.0320 S   0  0  0  0  0  3  0  0  0  0  0  0
  192.8340  172.4250  144.6100 O   0  0  0  0  0  1  0  0  0  0  0  0
  195.2130  171.7880  145.2110 O   0  0  0  0  0  1  0  0  0  0  0  0
  196.1760  173.4300  139.7620 O   0  0  0  0  0  0  0  0  0  0  0  0
  197.0730  175.6030  139.4440 C   0  0  0  0  0  2  0  0  0  0  0  0
  195.9000  174.7870  139.9380 C   0  0  2  0  0  3  0  0  0  0  0  0
  196.8860  175.3750  140.9300 C   0  0  2  0  0  3  0  0  0  0  0  0
  196.2720  176.6090  141.5510 C   0  0  0  0  0  2  0  0  0  0  0  0
  195.9690  176.3040  143.9900 C   0  0  0  0  0  1  0  0  0  0  0  0
  196.8890  176.8530  142.9140 C   0  0  0  0  0  2  0  0  0  0  0  0
  193.5430  174.8710  136.6680 C   0  0  0  0  0  2  0  0  0  0  0  0
  194.3220  176.6380  135.6040 C   0  0  0  0  0  1  0  0  0  0  0  0
  193.3260  176.2410  136.4970 O   0  0  0  0  0  0  0  0  0  0  0  0
  189.6390  173.6160  142.0280 O   0  0  0  0  0  0  0  0  0  0  0  0
  189.0740  172.0660  143.6180 O   0  0  0  0  0  0  0  0  0  0  0  0
  189.3870  173.2590  143.3560 C   0  0  0  0  0  0  0  0  0  0  0  0
  189.5090  174.2560  144.4710 C   0  0  1  0  0  3  0  0  0  0  0  0
  189.6930  173.5970  145.6850 O   0  0  0  0  0  1  0  0  0  0  0  0
  190.6750  175.1990  144.2260 C   0  0  0  0  0  2  0  0  0  0  0  0
  190.3220  176.1740  143.1140 C   0  0  1  0  0  3  0  0  0  0  0  0
  189.9750  177.5580  143.6340 C   0  0  1  0  0  0  0  0  0  0  0  0
  189.9550  177.7460  145.0160 O   0  0  0  0  0  1  0  0  0  0  0  0
  191.3470  177.3040  143.0710 C   0  0  0  0  0  2  0  0  0  0  0  0
  189.0610  178.4060  142.7710 C   0  0  0  0  0  2  0  0  0  0  0  0
  188.4490  177.6030  141.7990 O   0  0  0  0  0  0  0  0  0  0  0  0
  187.0890  177.9180  141.8770 C   0  0  1  0  0  3  0  0  0  0  0  0
  186.5630  178.0240  140.5890 O   0  0  0  0  0  0  0  0  0  0  0  0
  186.9410  176.8430  139.9480 C   0  0  0  0  0  2  0  0  0  0  0  0
  186.2510  176.7590  138.6000 C   0  0  0  0  0  2  0  0  0  0  0  0
  187.0400  175.8730  137.6550 C   0  0  0  0  0  2  0  0  0  0  0  0
  186.6810  176.1710  136.2810 N   0  0  0  0  0  1  0  0  0  0  0  0
  186.3470  176.8210  142.6300 C   0  0  0  0  0  2  0  0  0  0  0  0
  186.2350  176.9090  145.1340 C   0  0  0  0  0  3  0  0  0  0  0  0
  185.6560  177.3820  146.3150 C   0  0  0  0  0  0  0  0  0  0  0  0
  186.1500  176.9430  147.5730 N   0  0  0  0  0  1  0  0  0  0  0  0
  185.7480  177.3390  143.8940 C   0  0  0  0  0  0  0  0  0  0  0  0
  184.5900  178.2850  146.2600 C   0  0  0  0  0  3  0  0  0  0  0  0
  184.1020  178.7150  145.0220 C   0  0  0  0  0  3  0  0  0  0  0  0
  184.6800  178.2400  143.8410 C   0  0  0  0  0  3  0  0  0  0  0  0
  1 35  1  1  0  0  0
  4  5  1  6  0  0  0
  4  7  1  0  0  0  0
  6 32  1  6  0  0  0
  6  3  1  0  0  0  0
  7 11  1  0  0  0  0
  8 12  1  6  0  0  0
  8  4  1  0  0  0  0
  8 13  1  0  0  0  0
  9 13  1  6  0  0  0
  9 11  1  0  0  0  0
  9  1  1  0  0  0  0
 10  2  1  1  0  0  0
 10  6  1  0  0  0  0
 10  8  1  0  0  0  0
 11  1  1  0  0  0  0
 11 14  1  1  0  0  0
 15  4  1  0  0  0  0
 15  3  1  0  0  0  0
 15 16  1  1  0  0  0
 16 18  1  6  0  0  0
 16 19  1  0  0  0  0
 17 18  1  0  0  0  0
 19 20  1  1  0  0  0
 20 21  1  0  0  0  0
 21 22  1  0  0  0  0
 22 23  1  0  0  0  0
 22 24  1  0  0  0  0
 25 19  1  0  0  0  0
 26 27  1  0  0  0  0
 26 28  1  0  0  0  0
 27 25  1  6  0  0  0
 27 28  1  0  0  0  0
 28 29  1  1  0  0  0
 29 31  1  0  0  0  0
 31 30  1  0  0  0  0
 33 34  1  0  0  0  0
 34 32  1  0  0  0  0
 35 37  1  0  0  0  0
 37 36  2  0  0  0  0
 37 38  1  0  0  0  0
 38 39  1  1  0  0  0
 40 38  1  0  0  0  0
 41 42  1  0  0  0  0
 41 40  1  1  0  0  0
 42 43  1  1  0  0  0
 44 41  1  0  0  0  0
 44 42  1  0  0  0  0
 45 42  1  0  0  0  0
 46 47  1  0  0  0  0
 46 45  1  0  0  0  0
 47 53  1  1  0  0  0
 48 47  1  0  0  0  0
 49 48  1  0  0  0  0
 50 49  1  0  0  0  0
 51 50  1  0  0  0  0
 52 51  1  0  0  0  0
 53 57  1  0  0  0  0
 54 55  1  0  0  0  0
 55 56  1  0  0  0  0
 57 54  2  0  0  0  0
 58 55  2  0  0  0  0
 59 58  1  0  0  0  0
 60 57  1  0  0  0  0
 60 59  2  0  0  0  0
M  END
>  <MODEL>
1

>  <REMARK>
 VINA RESULT:      -5.5      0.000      0.000
  Name = 
  26 active torsions:
  status: ('A' for Active; 'I' for Inactive)
    1  A    between atoms: O_1  and  C_15
    2  A    between atoms: O_1  and  C_48
    3  A    between atoms: C_3  and  O_23
    4  A    between atoms: S_6  and  C_39
    5  A    between atoms: C_10  and  C_37
    6  A    between atoms: C_13  and  C_60
    7  A    between atoms: C_14  and  C_33
    8  A    between atoms: C_14  and  C_48
    9  A    between atoms: C_15  and  C_34
   10  A    between atoms: C_16  and  C_38
   11  A    between atoms: C_16  and  C_54
   12  A    between atoms: C_17  and  C_55
   13  A    between atoms: O_19  and  C_25
   14  A    between atoms: O_19  and  C_32
   15  A    between atoms: O_20  and  C_48
   16  A    between atoms: O_20  and  C_55
   17  A    between atoms: O_23  and  C_49
   18  A    between atoms: C_24  and  C_37
   19  A    between atoms: C_24  and  C_49
   20  A    between atoms: C_32  and  C_50
   21  A    between atoms: C_32  and  C_51
   22  A    between atoms: C_34  and  C_36
   23  A    between atoms: C_39  and  C_51
   24  A    between atoms: O_43  and  C_50
   25  A    between atoms: O_47  and  C_60
   26  A    between atoms: C_50  and  C_58
                            x       y       z     vdW  Elec       q    Type
                         _______ _______ _______ _____ _____    ______ ____

>  <TORSDO>
F 26

$$$$
=
 OpenBabel11062420393D

 60 65  0  0  1  0  0  0  0  0999 V2000
  189.6280  172.2760  141.9550 C   0  0  1  0  0  3  0  0  0  0  0  0
  189.3760  172.5240  137.0060 C   0  0  0  0  0  1  0  0  0  0  0  0
  192.3770  173.4070  139.0320 O   0  0  0  0  0  0  0  0  0  0  0  0
  192.0310  171.0450  139.5340 C   0  0  2  0  0  0  0  0  0  0  0  0
  192.6730  169.6970  139.2050 C   0  0  0  0  0  1  0  0  0  0  0  0
  191.5360  173.4690  137.8980 C   0  0  2  0  0  3  0  0  0  0  0  0
  191.8190  171.0760  141.0580 C   0  0  0  0  0  2  0  0  0  0  0  0
  190.6330  171.2080  138.7980 C   0  0  1  0  0  0  0  0  0  0  0  0
  189.9380  172.6780  140.5130 C   0  0  1  0  0  3  0  0  0  0  0  0
  190.7340  172.1870  137.6030 C   0  0  1  0  0  3  0  0  0  0  0  0
  191.0630  172.3320  141.4740 C   0  0  1  0  0  0  0  0  0  0  0  0
  190.2470  169.9770  138.2540 O   0  0  0  0  0  1  0  0  0  0  0  0
  189.5840  171.5920  139.6840 O   0  0  0  0  0  0  0  0  0  0  0  0
  191.8110  173.4480  141.8560 O   0  0  0  0  0  1  0  0  0  0  0  0
  193.0280  172.1570  139.0810 C   0  0  2  0  0  3  0  0  0  0  0  0
  194.3140  172.2330  139.9420 C   0  0  1  0  0  3  0  0  0  0  0  0
  195.7730  170.6900  140.5790 C   0  0  0  0  0  1  0  0  0  0  0  0
  195.2830  171.3520  139.4510 O   0  0  0  0  0  0  0  0  0  0  0  0
  194.9170  173.6410  140.0740 C   0  0  1  0  0  3  0  0  0  0  0  0
  194.9370  174.1240  141.5220 C   0  0  0  0  0  2  0  0  0  0  0  0
  196.3620  174.2960  142.0090 C   0  0  0  0  0  2  0  0  0  0  0  0
  196.3530  174.9850  143.6690 S   0  0  0  0  0  3  0  0  0  0  0  0
  197.8600  174.5070  144.3050 O   0  0  0  0  0  1  0  0  0  0  0  0
  195.3590  174.1090  144.4260 O   0  0  0  0  0  1  0  0  0  0  0  0
  196.1990  173.6820  139.5170 O   0  0  0  0  0  0  0  0  0  0  0  0
  195.3860  174.6410  137.5040 C   0  0  0  0  0  2  0  0  0  0  0  0
  196.2240  174.8460  138.7460 C   0  0  2  0  0  3  0  0  0  0  0  0
  196.8950  174.5530  137.4170 C   0  0  2  0  0  3  0  0  0  0  0  0
  197.4390  175.8460  136.8520 C   0  0  0  0  0  2  0  0  0  0  0  0
  196.7590  175.4020  134.5130 C   0  0  0  0  0  1  0  0  0  0  0  0
  197.9410  175.6130  135.4410 C   0  0  0  0  0  2  0  0  0  0  0  0
  192.2720  173.9980  136.6680 C   0  0  0  0  0  2  0  0  0  0  0  0
  191.0920  175.4070  135.4500 C   0  0  0  0  0  1  0  0  0  0  0  0
  192.0210  175.3610  136.4900 O   0  0  0  0  0  0  0  0  0  0  0  0
  189.2960  173.4420  142.7000 O   0  0  0  0  0  0  0  0  0  0  0  0
  189.6400  172.4640  144.7430 O   0  0  0  0  0  0  0  0  0  0  0  0
  189.4640  173.5250  144.0850 C   0  0  0  0  0  0  0  0  0  0  0  0
  189.4670  174.8480  144.7950 C   0  0  1  0  0  3  0  0  0  0  0  0
  189.3700  174.6520  146.1720 O   0  0  0  0  0  1  0  0  0  0  0  0
  190.7340  175.6250  144.4820 C   0  0  0  0  0  2  0  0  0  0  0  0
  190.5810  176.3420  143.1510 C   0  0  1  0  0  3  0  0  0  0  0  0
  189.9790  177.7290  143.2950 C   0  0  1  0  0  0  0  0  0  0  0  0
  189.5910  178.1380  144.5710 O   0  0  0  0  0  1  0  0  0  0  0  0
  191.4670  177.5840  143.1260 C   0  0  0  0  0  2  0  0  0  0  0  0
  189.2350  178.2830  142.0960 C   0  0  0  0  0  2  0  0  0  0  0  0
  188.3000  177.3430  141.6430 O   0  0  0  0  0  0  0  0  0  0  0  0
  187.0540  177.9000  141.9440 C   0  0  1  0  0  3  0  0  0  0  0  0
  186.3450  178.1160  140.7630 O   0  0  0  0  0  0  0  0  0  0  0  0
  185.0880  177.5530  140.9920 C   0  0  0  0  0  2  0  0  0  0  0  0
  184.0140  178.5090  140.5080 C   0  0  0  0  0  2  0  0  0  0  0  0
  182.7280  178.2980  141.2850 C   0  0  0  0  0  2  0  0  0  0  0  0
  181.6140  178.1460  140.3670 N   0  0  0  0  0  1  0  0  0  0  0  0
  186.2640  176.9490  142.8350 C   0  0  0  0  0  2  0  0  0  0  0  0
  186.3220  176.8570  145.3410 C   0  0  0  0  0  3  0  0  0  0  0  0
  186.0480  177.4200  146.5900 C   0  0  0  0  0  0  0  0  0  0  0  0
  186.3780  176.7100  147.7760 N   0  0  0  0  0  1  0  0  0  0  0  0
  185.9940  177.5530  144.1720 C   0  0  0  0  0  0  0  0  0  0  0  0
  185.4450  178.6790  146.6740 C   0  0  0  0  0  3  0  0  0  0  0  0
  185.1160  179.3750  145.5080 C   0  0  0  0  0  3  0  0  0  0  0  0
  185.3890  178.8120  144.2580 C   0  0  0  0  0  3  0  0  0  0  0  0
  1 35  1  1  0  0  0
  3 15  1  0  0  0  0
  4  5  1  6  0  0  0
  4  7  1  0  0  0  0
  6 32  1  6  0  0  0
  6  3  1  0  0  0  0
  7 11  1  0  0  0  0
  8 12  1  6  0  0  0
  8  4  1  0  0  0  0
  8 13  1  0  0  0  0
  9 13  1  6  0  0  0
  9 11  1  0  0  0  0
  9  1  1  0  0  0  0
 10  2  1  1  0  0  0
 10  6  1  0  0  0  0
 10  8  1  0  0  0  0
 11 14  1  1  0  0  0
 11  1  1  0  0  0  0
 15  4  1  0  0  0  0
 15 16  1  1  0  0  0
 16 18  1  6  0  0  0
 16 19  1  0  0  0  0
 18 17  1  0  0  0  0
 19 20  1  1  0  0  0
 20 21  1  0  0  0  0
 21 22  1  0  0  0  0
 22 23  1  0  0  0  0
 22 24  1  0  0  0  0
 25 19  1  0  0  0  0
 26 27  1  0  0  0  0
 27 25  1  1  0  0  0
 28 29  1  6  0  0  0
 28 26  1  0  0  0  0
 28 27  1  0  0  0  0
 30 31  1  0  0  0  0
 31 29  1  0  0  0  0
 33 34  1  0  0  0  0
 34 32  1  0  0  0  0
 35 37  1  0  0  0  0
 37 36  2  0  0  0  0
 37 38  1  0  0  0  0
 38 39  1  1  0  0  0
 40 38  1  0  0  0  0
 41 42  1  0  0  0  0
 41 40  1  1  0  0  0
 42 43  1  1  0  0  0
 44 41  1  0  0  0  0
 44 42  1  0  0  0  0
 45 42  1  0  0  0  0
 46 47  1  0  0  0  0
 46 45  1  0  0  0  0
 47 53  1  1  0  0  0
 48 49  1  0  0  0  0
 48 47  1  0  0  0  0
 50 49  1  0  0  0  0
 50 51  1  0  0  0  0
 52 51  1  0  0  0  0
 53 57  1  0  0  0  0
 54 55  1  0  0  0  0
 55 58  2  0  0  0  0
 55 56  1  0  0  0  0
 57 60  1  0  0  0  0
 57 54  2  0  0  0  0
 59 58  1  0  0  0  0
 60 59  2  0  0  0  0
M  END
>  <MODEL>
2

>  <REMARK>
 VINA RESULT:      -5.4      1.825      2.666
  Name = 
  26 active torsions:
  status: ('A' for Active; 'I' for Inactive)
    1  A    between atoms: O_1  and  C_15
    2  A    between atoms: O_1  and  C_48
    3  A    between atoms: C_3  and  O_23
    4  A    between atoms: S_6  and  C_39
    5  A    between atoms: C_10  and  C_37
    6  A    between atoms: C_13  and  C_60
    7  A    between atoms: C_14  and  C_33
    8  A    between atoms: C_14  and  C_48
    9  A    between atoms: C_15  and  C_34
   10  A    between atoms: C_16  and  C_38
   11  A    between atoms: C_16  and  C_54
   12  A    between atoms: C_17  and  C_55
   13  A    between atoms: O_19  and  C_25
   14  A    between atoms: O_19  and  C_32
   15  A    between atoms: O_20  and  C_48
   16  A    between atoms: O_20  and  C_55
   17  A    between atoms: O_23  and  C_49
   18  A    between atoms: C_24  and  C_37
   19  A    between atoms: C_24  and  C_49
   20  A    between atoms: C_32  and  C_50
   21  A    between atoms: C_32  and  C_51
   22  A    between atoms: C_34  and  C_36
   23  A    between atoms: C_39  and  C_51
   24  A    between atoms: O_43  and  C_50
   25  A    between atoms: O_47  and  C_60
   26  A    between atoms: C_50  and  C_58
                            x       y       z     vdW  Elec       q    Type
                         _______ _______ _______ _____ _____    ______ ____

>  <TORSDO>
F 26

$$$$
=
 OpenBabel11062420393D

 60 65  0  0  1  0  0  0  0  0999 V2000
  195.7940  173.6300  143.6730 C   0  0  1  0  0  3  0  0  0  0  0  0
  193.8400  169.2110  144.7990 C   0  0  0  0  0  1  0  0  0  0  0  0
  193.7760  170.7670  141.4130 O   0  0  0  0  0  0  0  0  0  0  0  0
  196.1580  170.5050  141.8690 C   0  0  2  0  0  0  0  0  0  0  0  0
  197.3210  169.6210  141.4200 C   0  0  0  0  0  1  0  0  0  0  0  0
  193.3080  169.9130  142.4370 C   0  0  2  0  0  3  0  0  0  0  0  0
  196.6520  171.9610  141.7970 C   0  0  0  0  0  2  0  0  0  0  0  0
  195.7210  170.1650  143.3580 C   0  0  1  0  0  0  0  0  0  0  0  0
  194.9230  172.3760  143.5960 C   0  0  1  0  0  3  0  0  0  0  0  0
  194.3910  169.3740  143.3910 C   0  0  1  0  0  3  0  0  0  0  0  0
  195.6040  172.9180  142.3490 C   0  0  1  0  0  0  0  0  0  0  0  0
  196.6790  169.3290  143.9450 O   0  0  0  0  0  1  0  0  0  0  0  0
  195.6470  171.3200  144.1900 O   0  0  0  0  0  0  0  0  0  0  0  0
  194.7040  173.4930  141.4490 O   0  0  0  0  0  1  0  0  0  0  0  0
  194.9790  170.2610  140.8780 C   0  0  2  0  0  3  0  0  0  0  0  0
  195.2310  170.8190  139.4550 C   0  0  1  0  0  3  0  0  0  0  0  0
  196.2290  169.3610  138.1140 C   0  0  0  0  0  1  0  0  0  0  0  0
  194.9720  169.8380  138.4920 O   0  0  0  0  0  0  0  0  0  0  0  0
  194.4450  172.0960  139.1150 C   0  0  1  0  0  3  0  0  0  0  0  0
  195.1360  172.9260  138.0360 C   0  0  0  0  0  2  0  0  0  0  0  0
  196.1040  173.9130  138.6580 C   0  0  0  0  0  2  0  0  0  0  0  0
  197.7260  173.7220  137.9090 S   0  0  0  0  0  3  0  0  0  0  0  0
  197.8790  175.1120  136.9350 O   0  0  0  0  0  1  0  0  0  0  0  0
  197.5310  172.6010  136.8920 O   0  0  0  0  0  1  0  0  0  0  0  0
  193.1340  171.7820  138.7400 O   0  0  0  0  0  0  0  0  0  0  0  0
  191.7760  173.6370  139.3270 C   0  0  0  0  0  2  0  0  0  0  0  0
  192.6020  172.9750  138.2470 C   0  0  2  0  0  3  0  0  0  0  0  0
  191.0880  172.8720  138.2170 C   0  0  2  0  0  3  0  0  0  0  0  0
  190.5550  173.8500  137.1930 C   0  0  0  0  0  2  0  0  0  0  0  0
  188.4900  172.8100  138.0790 C   0  0  0  0  0  1  0  0  0  0  0  0
  189.0650  174.0380  137.3960 C   0  0  0  0  0  2  0  0  0  0  0  0
  192.4000  168.8100  141.8940 C   0  0  0  0  0  2  0  0  0  0  0  0
  191.1140  168.9210  140.1060 C   0  0  0  0  0  1  0  0  0  0  0  0
  191.1940  169.3450  141.4330 O   0  0  0  0  0  0  0  0  0  0  0  0
  194.9520  174.7740  143.7580 O   0  0  0  0  0  0  0  0  0  0  0  0
  196.0330  176.7900  143.8870 O   0  0  0  0  0  0  0  0  0  0  0  0
  195.3140  175.9280  144.4610 C   0  0  0  0  0  0  0  0  0  0  0  0
  194.8430  176.1680  145.8650 C   0  0  1  0  0  3  0  0  0  0  0  0
  194.6350  177.5310  146.0730 O   0  0  0  0  0  1  0  0  0  0  0  0
  193.5540  175.4120  146.1400 C   0  0  0  0  0  2  0  0  0  0  0  0
  192.3620  176.2940  145.8070 C   0  0  1  0  0  3  0  0  0  0  0  0
  191.4620  175.6900  144.7430 C   0  0  1  0  0  0  0  0  0  0  0  0
  191.8570  174.4810  144.1700 O   0  0  0  0  0  1  0  0  0  0  0  0
  191.0680  175.5800  146.1910 C   0  0  0  0  0  2  0  0  0  0  0  0
  190.6390  176.6550  143.9110 C   0  0  0  0  0  2  0  0  0  0  0  0
  190.0750  175.9780  142.8220 O   0  0  0  0  0  0  0  0  0  0  0  0
  188.7630  176.4530  142.7440 C   0  0  1  0  0  3  0  0  0  0  0  0
  188.1080  175.8370  141.6770 O   0  0  0  0  0  0  0  0  0  0  0  0
  188.9130  174.7470  141.3440 C   0  0  0  0  0  2  0  0  0  0  0  0
  188.2090  173.4630  141.7380 C   0  0  0  0  0  2  0  0  0  0  0  0
  189.2170  172.3480  141.9440 C   0  0  0  0  0  2  0  0  0  0  0  0
  189.3300  172.0370  143.3570 N   0  0  0  0  0  1  0  0  0  0  0  0
  188.0200  176.1340  144.0360 C   0  0  0  0  0  2  0  0  0  0  0  0
  186.0680  176.9690  145.3720 C   0  0  0  0  0  3  0  0  0  0  0  0
  185.1040  177.9430  145.6480 C   0  0  0  0  0  0  0  0  0  0  0  0
  184.1550  177.7280  146.6830 N   0  0  0  0  0  1  0  0  0  0  0  0
  187.0020  177.1780  144.3510 C   0  0  0  0  0  0  0  0  0  0  0  0
  185.0710  179.1260  144.9050 C   0  0  0  0  0  3  0  0  0  0  0  0
  186.0020  179.3360  143.8840 C   0  0  0  0  0  3  0  0  0  0  0  0
  186.9660  178.3620  143.6060 C   0  0  0  0  0  3  0  0  0  0  0  0
  1 35  1  6  0  0  0
  3  6  1  0  0  0  0
  4  5  1  6  0  0  0
  4  8  1  0  0  0  0
  6 32  1  6  0  0  0
  6 10  1  0  0  0  0
  7  4  1  0  0  0  0
  7 11  1  0  0  0  0
  8 10  1  0  0  0  0
  8 12  1  1  0  0  0
  8 13  1  0  0  0  0
  9  1  1  0  0  0  0
  9 13  1  1  0  0  0
 10  2  1  1  0  0  0
 11 14  1  6  0  0  0
 11  9  1  0  0  0  0
 11  1  1  0  0  0  0
 15 16  1  6  0  0  0
 15  3  1  0  0  0  0
 15  4  1  0  0  0  0
 16 18  1  6  0  0  0
 17 18  1  0  0  0  0
 19 20  1  6  0  0  0
 19 16  1  0  0  0  0
 20 21  1  0  0  0  0
 22 21  1  0  0  0  0
 23 22  1  0  0  0  0
 24 22  1  0  0  0  0
 25 19  1  0  0  0  0
 27 25  1  1  0  0  0
 27 26  1  0  0  0  0
 28 29  1  6  0  0  0
 28 27  1  0  0  0  0
 28 26  1  0  0  0  0
 29 31  1  0  0  0  0
 31 30  1  0  0  0  0
 33 34  1  0  0  0  0
 34 32  1  0  0  0  0
 35 37  1  0  0  0  0
 36 37  2  0  0  0  0
 37 38  1  0  0  0  0
 38 39  1  6  0  0  0
 38 40  1  0  0  0  0
 41 40  1  1  0  0  0
 41 44  1  0  0  0  0
 42 43  1  6  0  0  0
 42 41  1  0  0  0  0
 42 44  1  0  0  0  0
 45 42  1  0  0  0  0
 46 45  1  0  0  0  0
 47 46  1  0  0  0  0
 47 53  1  1  0  0  0
 48 47  1  0  0  0  0
 49 48  1  0  0  0  0
 49 50  1  0  0  0  0
 50 51  1  0  0  0  0
 51 52  1  0  0  0  0
 53 57  1  0  0  0  0
 54 55  1  0  0  0  0
 55 56  1  0  0  0  0
 57 54  2  0  0  0  0
 58 55  2  0  0  0  0
 59 58  1  0  0  0  0
 60 59  2  0  0  0  0
 60 57  1  0  0  0  0
M  END
>  <MODEL>
3

>  <REMARK>
 VINA RESULT:      -5.2      2.652      5.810
  Name = 
  26 active torsions:
  status: ('A' for Active; 'I' for Inactive)
    1  A    between atoms: O_1  and  C_15
    2  A    between atoms: O_1  and  C_48
    3  A    between atoms: C_3  and  O_23
    4  A    between atoms: S_6  and  C_39
    5  A    between atoms: C_10  and  C_37
    6  A    between atoms: C_13  and  C_60
    7  A    between atoms: C_14  and  C_33
    8  A    between atoms: C_14  and  C_48
    9  A    between atoms: C_15  and  C_34
   10  A    between atoms: C_16  and  C_38
   11  A    between atoms: C_16  and  C_54
   12  A    between atoms: C_17  and  C_55
   13  A    between atoms: O_19  and  C_25
   14  A    between atoms: O_19  and  C_32
   15  A    between atoms: O_20  and  C_48
   16  A    between atoms: O_20  and  C_55
   17  A    between atoms: O_23  and  C_49
   18  A    between atoms: C_24  and  C_37
   19  A    between atoms: C_24  and  C_49
   20  A    between atoms: C_32  and  C_50
   21  A    between atoms: C_32  and  C_51
   22  A    between atoms: C_34  and  C_36
   23  A    between atoms: C_39  and  C_51
   24  A    between atoms: O_43  and  C_50
   25  A    between atoms: O_47  and  C_60
   26  A    between atoms: C_50  and  C_58
                            x       y       z     vdW  Elec       q    Type
                         _______ _______ _______ _____ _____    ______ ____

>  <TORSDO>
F 26

$$$$
=
 OpenBabel11062420393D

 60 65  0  0  1  0  0  0  0  0999 V2000
  188.6830  174.5770  140.7400 C   0  0  1  0  0  3  0  0  0  0  0  0
  185.7690  176.9840  143.9530 C   0  0  0  0  0  1  0  0  0  0  0  0
  189.0150  175.3710  144.8180 O   0  0  0  0  0  0  0  0  0  0  0  0
  189.6460  177.0720  143.1880 C   0  0  2  0  0  0  0  0  0  0  0  0
  190.3500  178.4290  143.1610 C   0  0  0  0  0  1  0  0  0  0  0  0
  187.7190  175.8640  145.0910 C   0  0  2  0  0  3  0  0  0  0  0  0
  190.2820  176.2190  142.0760 C   0  0  0  0  0  2  0  0  0  0  0  0
  188.0890  177.2280  142.9150 C   0  0  1  0  0  0  0  0  0  0  0  0
  188.0510  175.0270  142.0570 C   0  0  1  0  0  3  0  0  0  0  0  0
  187.2660  177.0460  144.2120 C   0  0  1  0  0  3  0  0  0  0  0  0
  189.5600  174.8860  141.9350 C   0  0  1  0  0  0  0  0  0  0  0  0
  187.8230  178.5290  142.4710 O   0  0  0  0  0  1  0  0  0  0  0  0
  187.6190  176.3600  141.8870 O   0  0  0  0  0  0  0  0  0  0  0  0
  190.0600  173.7930  142.6480 O   0  0  0  0  0  1  0  0  0  0  0  0
  189.9000  176.4450  144.5940 C   0  0  2  0  0  3  0  0  0  0  0  0
  191.3690  176.0120  144.8300 C   0  0  1  0  0  3  0  0  0  0  0  0
  193.4690  176.7090  144.6830 C   0  0  0  0  0  1  0  0  0  0  0  0
  192.1830  177.1320  145.0270 O   0  0  0  0  0  0  0  0  0  0  0  0
  191.5700  175.0200  145.9880 C   0  0  1  0  0  3  0  0  0  0  0  0
  190.5950  175.2700  147.1350 C   0  0  0  0  0  2  0  0  0  0  0  0
  191.3370  175.7040  148.3840 C   0  0  0  0  0  2  0  0  0  0  0  0
  191.5500  177.4890  148.3700 S   0  0  0  0  0  3  0  0  0  0  0  0
  191.5320  177.9030  150.0220 O   0  0  0  0  0  1  0  0  0  0  0  0
  190.2110  178.0150  147.8620 O   0  0  0  0  0  1  0  0  0  0  0  0
  191.4730  173.7020  145.5300 O   0  0  0  0  0  0  0  0  0  0  0  0
  192.9480  172.0370  144.7040 C   0  0  0  0  0  2  0  0  0  0  0  0
  192.6040  173.5090  144.7340 C   0  0  2  0  0  3  0  0  0  0  0  0
  193.7360  172.9760  145.5930 C   0  0  2  0  0  3  0  0  0  0  0  0
  195.0510  173.3110  144.9260 C   0  0  0  0  0  2  0  0  0  0  0  0
  197.2840  173.4490  145.9860 C   0  0  0  0  0  1  0  0  0  0  0  0
  195.9190  174.1040  145.8820 C   0  0  0  0  0  2  0  0  0  0  0  0
  187.5070  176.1240  146.5820 C   0  0  0  0  0  2  0  0  0  0  0  0
  186.2590  177.4970  147.7730 C   0  0  0  0  0  1  0  0  0  0  0  0
  187.2770  177.4810  146.8190 O   0  0  0  0  0  0  0  0  0  0  0  0
  188.5000  173.1730  140.5940 O   0  0  0  0  0  0  0  0  0  0  0  0
  188.2760  172.3250  138.4770 O   0  0  0  0  0  0  0  0  0  0  0  0
  188.9990  172.4560  139.5020 C   0  0  0  0  0  0  0  0  0  0  0  0
  190.3800  171.8680  139.5170 C   0  0  1  0  0  3  0  0  0  0  0  0
  190.3110  170.4920  139.7280 O   0  0  0  0  0  1  0  0  0  0  0  0
  191.0990  172.1440  138.2080 C   0  0  0  0  0  2  0  0  0  0  0  0
  191.7480  173.5170  138.2590 C   0  0  1  0  0  3  0  0  0  0  0  0
  192.8860  173.6670  137.2640 C   0  0  1  0  0  0  0  0  0  0  0  0
  193.2320  172.5510  136.5010 O   0  0  0  0  0  1  0  0  0  0  0  0
  191.5360  174.2410  136.9310 C   0  0  0  0  0  2  0  0  0  0  0  0
  193.9630  174.6800  137.6000 C   0  0  0  0  0  2  0  0  0  0  0  0
  193.8180  175.1020  138.9280 O   0  0  0  0  0  0  0  0  0  0  0  0
  194.8990  174.5330  139.6070 C   0  0  1  0  0  3  0  0  0  0  0  0
  195.7270  175.5450  140.0940 O   0  0  0  0  0  0  0  0  0  0  0  0
  195.2220  175.8430  141.3600 C   0  0  0  0  0  2  0  0  0  0  0  0
  196.3740  176.0720  142.3200 C   0  0  0  0  0  2  0  0  0  0  0  0
  197.6530  175.4780  141.7640 C   0  0  0  0  0  2  0  0  0  0  0  0
  197.9060  174.1870  142.3750 N   0  0  0  0  0  1  0  0  0  0  0  0
  194.3930  173.6960  140.7750 C   0  0  0  0  0  2  0  0  0  0  0  0
  195.2890  171.5970  141.8160 C   0  0  0  0  0  3  0  0  0  0  0  0
  195.7440  170.2790  141.7110 C   0  0  0  0  0  0  0  0  0  0  0  0
  196.1830  169.5860  142.8710 N   0  0  0  0  0  1  0  0  0  0  0  0
  194.8590  172.2820  140.6740 C   0  0  0  0  0  0  0  0  0  0  0  0
  195.7700  169.6450  140.4660 C   0  0  0  0  0  3  0  0  0  0  0  0
  195.3420  170.3280  139.3250 C   0  0  0  0  0  3  0  0  0  0  0  0
  194.8880  171.6460  139.4280 C   0  0  0  0  0  3  0  0  0  0  0  0
  1 35  1  1  0  0  0
  1 11  1  0  0  0  0
  1  9  1  0  0  0  0
  3  6  1  0  0  0  0
  4  5  1  6  0  0  0
  4 15  1  0  0  0  0
  6 32  1  1  0  0  0
  7  4  1  0  0  0  0
  8 12  1  6  0  0  0
  8  4  1  0  0  0  0
  8 10  1  0  0  0  0
  9 13  1  6  0  0  0
 10  2  1  6  0  0  0
 10  6  1  0  0  0  0
 11  9  1  0  0  0  0
 11  7  1  0  0  0  0
 11 14  1  1  0  0  0
 13  8  1  0  0  0  0
 15  3  1  0  0  0  0
 15 16  1  6  0  0  0
 16 18  1  1  0  0  0
 16 19  1  0  0  0  0
 17 18  1  0  0  0  0
 19 20  1  1  0  0  0
 20 21  1  0  0  0  0
 22 21  1  0  0  0  0
 22 23  1  0  0  0  0
 24 22  1  0  0  0  0
 25 19  1  0  0  0  0
 26 27  1  0  0  0  0
 26 28  1  0  0  0  0
 27 25  1  1  0  0  0
 27 28  1  0  0  0  0
 28 29  1  6  0  0  0
 29 31  1  0  0  0  0
 31 30  1  0  0  0  0
 32 34  1  0  0  0  0
 34 33  1  0  0  0  0
 36 37  2  0  0  0  0
 37 38  1  0  0  0  0
 37 35  1  0  0  0  0
 38 39  1  6  0  0  0
 40 38  1  0  0  0  0
 41 40  1  6  0  0  0
 42 43  1  6  0  0  0
 42 45  1  0  0  0  0
 42 41  1  0  0  0  0
 44 42  1  0  0  0  0
 44 41  1  0  0  0  0
 45 46  1  0  0  0  0
 46 47  1  0  0  0  0
 47 48  1  0  0  0  0
 47 53  1  1  0  0  0
 48 49  1  0  0  0  0
 49 50  1  0  0  0  0
 51 50  1  0  0  0  0
 51 52  1  0  0  0  0
 55 54  1  0  0  0  0
 55 56  1  0  0  0  0
 57 53  1  0  0  0  0
 57 54  2  0  0  0  0
 58 55  2  0  0  0  0
 59 60  2  0  0  0  0
 59 58  1  0  0  0  0
 60 57  1  0  0  0  0
M  END
>  <MODEL>
4

>  <REMARK>
 VINA RESULT:      -5.1      3.285      8.741
  Name = 
  26 active torsions:
  status: ('A' for Active; 'I' for Inactive)
    1  A    between atoms: O_1  and  C_15
    2  A    between atoms: O_1  and  C_48
    3  A    between atoms: C_3  and  O_23
    4  A    between atoms: S_6  and  C_39
    5  A    between atoms: C_10  and  C_37
    6  A    between atoms: C_13  and  C_60
    7  A    between atoms: C_14  and  C_33
    8  A    between atoms: C_14  and  C_48
    9  A    between atoms: C_15  and  C_34
   10  A    between atoms: C_16  and  C_38
   11  A    between atoms: C_16  and  C_54
   12  A    between atoms: C_17  and  C_55
   13  A    between atoms: O_19  and  C_25
   14  A    between atoms: O_19  and  C_32
   15  A    between atoms: O_20  and  C_48
   16  A    between atoms: O_20  and  C_55
   17  A    between atoms: O_23  and  C_49
   18  A    between atoms: C_24  and  C_37
   19  A    between atoms: C_24  and  C_49
   20  A    between atoms: C_32  and  C_50
   21  A    between atoms: C_32  and  C_51
   22  A    between atoms: C_34  and  C_36
   23  A    between atoms: C_39  and  C_51
   24  A    between atoms: O_43  and  C_50
   25  A    between atoms: O_47  and  C_60
   26  A    between atoms: C_50  and  C_58
                            x       y       z     vdW  Elec       q    Type
                         _______ _______ _______ _____ _____    ______ ____

>  <TORSDO>
F 26

$$$$
=
 OpenBabel11062420393D

 60 65  0  0  1  0  0  0  0  0999 V2000
  191.8170  173.6550  144.8250 C   0  0  1  0  0  3  0  0  0  0  0  0
  190.9460  173.3160  139.9520 C   0  0  0  0  0  1  0  0  0  0  0  0
  194.2310  172.6460  141.5800 O   0  0  0  0  0  0  0  0  0  0  0  0
  192.7580  170.9740  142.5710 C   0  0  2  0  0  0  0  0  0  0  0  0
  192.5140  169.4670  142.4880 C   0  0  0  0  0  1  0  0  0  0  0  0
  193.3850  173.0090  140.5070 C   0  0  2  0  0  3  0  0  0  0  0  0
  192.8450  171.3280  144.0670 C   0  0  0  0  0  2  0  0  0  0  0  0
  191.5690  171.7850  141.8990 C   0  0  1  0  0  0  0  0  0  0  0  0
  192.0580  173.6120  143.3160 C   0  0  1  0  0  3  0  0  0  0  0  0
  191.9860  172.3660  140.5260 C   0  0  1  0  0  3  0  0  0  0  0  0
  192.9590  172.8350  144.2610 C   0  0  1  0  0  0  0  0  0  0  0  0
  190.5010  170.9170  141.6410 O   0  0  0  0  0  1  0  0  0  0  0  0
  191.0490  172.8060  142.7470 O   0  0  0  0  0  0  0  0  0  0  0  0
  194.2390  173.3850  144.3630 O   0  0  0  0  0  1  0  0  0  0  0  0
  194.1080  171.2670  141.8440 C   0  0  2  0  0  3  0  0  0  0  0  0
  195.3520  170.7320  142.5960 C   0  0  1  0  0  3  0  0  0  0  0  0
  196.1420  169.5350  140.9030 C   0  0  0  0  0  1  0  0  0  0  0  0
  195.6350  169.4210  142.2000 O   0  0  0  0  0  0  0  0  0  0  0  0
  196.6150  171.5980  142.4490 C   0  0  1  0  0  3  0  0  0  0  0  0
  196.2830  173.0840  142.3440 C   0  0  0  0  0  2  0  0  0  0  0  0
  197.4060  173.8360  141.6590 C   0  0  0  0  0  2  0  0  0  0  0  0
  197.0440  175.5970  141.6620 S   0  0  0  0  0  3  0  0  0  0  0  0
  197.6820  176.1300  143.1480 O   0  0  0  0  0  1  0  0  0  0  0  0
  195.5360  175.6610  141.8850 O   0  0  0  0  0  1  0  0  0  0  0  0
  197.5020  171.3580  143.5040 O   0  0  0  0  0  0  0  0  0  0  0  0
  197.0010  171.2030  145.8180 C   0  0  0  0  0  2  0  0  0  0  0  0
  196.7660  170.6280  144.4390 C   0  0  2  0  0  3  0  0  0  0  0  0
  197.7190  169.9380  145.3970 C   0  0  2  0  0  3  0  0  0  0  0  0
  197.0180  168.7410  146.0010 C   0  0  0  0  0  2  0  0  0  0  0  0
  195.2180  168.5700  147.6930 C   0  0  0  0  0  1  0  0  0  0  0  0
  196.6350  169.0470  147.4360 C   0  0  0  0  0  2  0  0  0  0  0  0
  194.0810  172.8620  139.1540 C   0  0  0  0  0  2  0  0  0  0  0  0
  194.2750  173.8210  137.1780 C   0  0  0  0  0  1  0  0  0  0  0  0
  193.3320  173.4700  138.1440 O   0  0  0  0  0  0  0  0  0  0  0  0
  192.2880  174.8970  145.3340 O   0  0  0  0  0  0  0  0  0  0  0  0
  192.0220  177.0950  144.7430 O   0  0  0  0  0  0  0  0  0  0  0  0
  191.5280  176.0700  145.2850 C   0  0  0  0  0  0  0  0  0  0  0  0
  190.1330  176.1220  145.8380 C   0  0  1  0  0  3  0  0  0  0  0  0
  189.7060  177.4450  145.9360 O   0  0  0  0  0  1  0  0  0  0  0  0
  189.1730  175.3440  144.9540 C   0  0  0  0  0  2  0  0  0  0  0  0
  188.1550  176.2940  144.3440 C   0  0  1  0  0  3  0  0  0  0  0  0
  188.4320  176.5920  142.8810 C   0  0  1  0  0  0  0  0  0  0  0  0
  189.5790  176.0390  142.3120 O   0  0  0  0  0  1  0  0  0  0  0  0
  187.3780  175.5800  143.2400 C   0  0  0  0  0  2  0  0  0  0  0  0
  187.9160  177.9110  142.3390 C   0  0  0  0  0  2  0  0  0  0  0  0
  187.2210  178.5960  143.3450 O   0  0  0  0  0  0  0  0  0  0  0  0
  186.0420  179.0330  142.7340 C   0  0  1  0  0  3  0  0  0  0  0  0
  185.5400  178.0210  141.9160 O   0  0  0  0  0  0  0  0  0  0  0  0
  184.9500  178.6870  140.8410 C   0  0  0  0  0  2  0  0  0  0  0  0
  183.7120  177.9300  140.3980 C   0  0  0  0  0  2  0  0  0  0  0  0
  182.5300  178.2880  141.2780 C   0  0  0  0  0  2  0  0  0  0  0  0
  181.3050  178.2490  140.5010 N   0  0  0  0  0  1  0  0  0  0  0  0
  185.0050  179.3760  143.7970 C   0  0  0  0  0  2  0  0  0  0  0  0
  185.9720  179.2950  146.1100 C   0  0  0  0  0  3  0  0  0  0  0  0
  186.2430  178.6100  147.2970 C   0  0  0  0  0  0  0  0  0  0  0  0
  186.9500  179.2580  148.3460 N   0  0  0  0  0  1  0  0  0  0  0  0
  185.2780  178.6570  145.0750 C   0  0  0  0  0  0  0  0  0  0  0  0
  185.8210  177.2860  147.4540 C   0  0  0  0  0  3  0  0  0  0  0  0
  185.1290  176.6470  146.4210 C   0  0  0  0  0  3  0  0  0  0  0  0
  184.8590  177.3320  145.2330 C   0  0  0  0  0  3  0  0  0  0  0  0
  1 35  1  1  0  0  0
  3 15  1  0  0  0  0
  4  5  1  6  0  0  0
  4  7  1  0  0  0  0
  6 32  1  6  0  0  0
  6 10  1  0  0  0  0
  6  3  1  0  0  0  0
  7 11  1  0  0  0  0
  8 12  1  6  0  0  0
  8  4  1  0  0  0  0
  8 13  1  0  0  0  0
  9 13  1  6  0  0  0
  9 11  1  0  0  0  0
  9  1  1  0  0  0  0
 10  2  1  1  0  0  0
 10  8  1  0  0  0  0
 11 14  1  1  0  0  0
 11  1  1  0  0  0  0
 15  4  1  0  0  0  0
 15 16  1  1  0  0  0
 16 18  1  6  0  0  0
 17 18  1  0  0  0  0
 19 20  1  1  0  0  0
 19 16  1  0  0  0  0
 19 25  1  0  0  0  0
 21 22  1  0  0  0  0
 21 20  1  0  0  0  0
 22 24  1  0  0  0  0
 22 23  1  0  0  0  0
 27 25  1  6  0  0  0
 27 28  1  0  0  0  0
 27 26  1  0  0  0  0
 28 26  1  0  0  0  0
 28 29  1  1  0  0  0
 29 31  1  0  0  0  0
 31 30  1  0  0  0  0
 33 34  1  0  0  0  0
 34 32  1  0  0  0  0
 36 37  2  0  0  0  0
 37 35  1  0  0  0  0
 37 38  1  0  0  0  0
 38 39  1  6  0  0  0
 40 38  1  0  0  0  0
 41 40  1  6  0  0  0
 42 43  1  6  0  0  0
 42 44  1  0  0  0  0
 42 41  1  0  0  0  0
 44 41  1  0  0  0  0
 45 42  1  0  0  0  0
 45 46  1  0  0  0  0
 47 46  1  0  0  0  0
 47 53  1  1  0  0  0
 48 47  1  0  0  0  0
 49 48  1  0  0  0  0
 50 49  1  0  0  0  0
 50 51  1  0  0  0  0
 52 51  1  0  0  0  0
 53 57  1  0  0  0  0
 54 55  1  0  0  0  0
 55 58  2  0  0  0  0
 55 56  1  0  0  0  0
 57 60  1  0  0  0  0
 57 54  2  0  0  0  0
 59 58  1  0  0  0  0
 60 59  2  0  0  0  0
M  END
>  <MODEL>
5

>  <REMARK>
 VINA RESULT:      -4.7      2.832      4.366
  Name = 
  26 active torsions:
  status: ('A' for Active; 'I' for Inactive)
    1  A    between atoms: O_1  and  C_15
    2  A    between atoms: O_1  and  C_48
    3  A    between atoms: C_3  and  O_23
    4  A    between atoms: S_6  and  C_39
    5  A    between atoms: C_10  and  C_37
    6  A    between atoms: C_13  and  C_60
    7  A    between atoms: C_14  and  C_33
    8  A    between atoms: C_14  and  C_48
    9  A    between atoms: C_15  and  C_34
   10  A    between atoms: C_16  and  C_38
   11  A    between atoms: C_16  and  C_54
   12  A    between atoms: C_17  and  C_55
   13  A    between atoms: O_19  and  C_25
   14  A    between atoms: O_19  and  C_32
   15  A    between atoms: O_20  and  C_48
   16  A    between atoms: O_20  and  C_55
   17  A    between atoms: O_23  and  C_49
   18  A    between atoms: C_24  and  C_37
   19  A    between atoms: C_24  and  C_49
   20  A    between atoms: C_32  and  C_50
   21  A    between atoms: C_32  and  C_51
   22  A    between atoms: C_34  and  C_36
   23  A    between atoms: C_39  and  C_51
   24  A    between atoms: O_43  and  C_50
   25  A    between atoms: O_47  and  C_60
   26  A    between atoms: C_50  and  C_58
                            x       y       z     vdW  Elec       q    Type
                         _______ _______ _______ _____ _____    ______ ____

>  <TORSDO>
F 26

$$$$
=
 OpenBabel11062420393D

 60 65  0  0  1  0  0  0  0  0999 V2000
  189.0510  174.4330  140.5350 C   0  0  1  0  0  3  0  0  0  0  0  0
  185.9490  178.0050  142.0320 C   0  0  0  0  0  1  0  0  0  0  0  0
  187.7470  175.6580  144.3000 O   0  0  0  0  0  0  0  0  0  0  0  0
  189.5530  176.8590  143.1840 C   0  0  2  0  0  0  0  0  0  0  0  0
  190.5870  177.9360  143.5110 C   0  0  0  0  0  1  0  0  0  0  0  0
  186.7030  176.5380  143.9380 C   0  0  2  0  0  3  0  0  0  0  0  0
  190.3100  175.7120  142.4910 C   0  0  0  0  0  2  0  0  0  0  0  0
  188.4290  177.4190  142.2120 C   0  0  1  0  0  0  0  0  0  0  0  0
  188.0770  175.2260  141.4060 C   0  0  1  0  0  3  0  0  0  0  0  0
  187.1000  177.6650  142.9660 C   0  0  1  0  0  3  0  0  0  0  0  0
  189.3430  174.6380  142.0070 C   0  0  1  0  0  0  0  0  0  0  0  0
  188.8240  178.6670  141.7140 O   0  0  0  0  0  1  0  0  0  0  0  0
  188.2210  176.5890  141.0720 O   0  0  0  0  0  0  0  0  0  0  0  0
  189.0890  173.5580  142.8560 O   0  0  0  0  0  1  0  0  0  0  0  0
  188.9310  176.3870  144.5350 C   0  0  2  0  0  3  0  0  0  0  0  0
  189.9090  175.5850  145.4290 C   0  0  1  0  0  3  0  0  0  0  0  0
  189.1940  174.1660  146.9760 C   0  0  0  0  0  1  0  0  0  0  0  0
  189.4480  174.2770  145.6070 O   0  0  0  0  0  0  0  0  0  0  0  0
  191.3630  175.5550  144.9270 C   0  0  1  0  0  3  0  0  0  0  0  0
  192.3640  175.7980  146.0530 C   0  0  0  0  0  2  0  0  0  0  0  0
  192.1700  177.1750  146.6550 C   0  0  0  0  0  2  0  0  0  0  0  0
  191.2140  177.0420  148.1710 S   0  0  0  0  0  3  0  0  0  0  0  0
  189.8030  177.9330  147.8300 O   0  0  0  0  0  1  0  0  0  0  0  0
  191.9630  177.9360  149.1570 O   0  0  0  0  0  1  0  0  0  0  0  0
  191.6330  174.3500  144.2710 O   0  0  0  0  0  0  0  0  0  0  0  0
  193.5660  173.2210  143.4860 C   0  0  0  0  0  2  0  0  0  0  0  0
  192.9560  174.0460  144.5960 C   0  0  2  0  0  3  0  0  0  0  0  0
  193.1000  172.5440  144.7580 C   0  0  2  0  0  3  0  0  0  0  0  0
  194.2950  172.2640  145.6410 C   0  0  0  0  0  2  0  0  0  0  0  0
  196.0080  170.4850  145.4620 C   0  0  0  0  0  1  0  0  0  0  0  0
  194.5380  170.7690  145.7090 C   0  0  0  0  0  2  0  0  0  0  0  0
  185.9390  177.0530  145.1570 C   0  0  0  0  0  2  0  0  0  0  0  0
  186.4640  178.2890  146.9050 C   0  0  0  0  0  1  0  0  0  0  0  0
  186.3800  178.3300  145.5130 O   0  0  0  0  0  0  0  0  0  0  0  0
  188.5140  173.1370  140.3010 O   0  0  0  0  0  0  0  0  0  0  0  0
  188.8350  171.6760  138.5650 O   0  0  0  0  0  0  0  0  0  0  0  0
  189.2410  172.1200  139.6730 C   0  0  0  0  0  0  0  0  0  0  0  0
  190.5010  171.5730  140.2760 C   0  0  1  0  0  3  0  0  0  0  0  0
  190.2040  170.8500  141.4300 O   0  0  0  0  0  1  0  0  0  0  0  0
  191.2270  170.6750  139.2890 C   0  0  0  0  0  2  0  0  0  0  0  0
  192.4980  171.3590  138.8110 C   0  0  1  0  0  3  0  0  0  0  0  0
  193.7080  171.0090  139.6600 C   0  0  1  0  0  0  0  0  0  0  0  0
  193.5060  170.1910  140.7710 O   0  0  0  0  0  1  0  0  0  0  0  0
  193.5040  170.3110  138.3420 C   0  0  0  0  0  2  0  0  0  0  0  0
  194.8360  172.0210  139.6970 C   0  0  0  0  0  2  0  0  0  0  0  0
  194.3250  173.2880  140.0090 O   0  0  0  0  0  0  0  0  0  0  0  0
  195.0450  174.1750  139.2050 C   0  0  1  0  0  3  0  0  0  0  0  0
  194.5210  174.1610  137.9130 O   0  0  0  0  0  0  0  0  0  0  0  0
  195.2890  175.0860  137.2040 C   0  0  0  0  0  2  0  0  0  0  0  0
  194.5170  175.5480  135.9820 C   0  0  0  0  0  2  0  0  0  0  0  0
  193.1760  176.1260  136.3900 C   0  0  0  0  0  2  0  0  0  0  0  0
  192.1530  175.0990  136.3200 N   0  0  0  0  0  1  0  0  0  0  0  0
  194.9410  175.5870  139.7700 C   0  0  0  0  0  2  0  0  0  0  0  0
  195.2000  176.1840  142.1920 C   0  0  0  0  0  3  0  0  0  0  0  0
  195.9920  176.3500  143.3320 C   0  0  0  0  0  0  0  0  0  0  0  0
  195.4050  176.7980  144.5460 N   0  0  0  0  0  1  0  0  0  0  0  0
  195.7770  175.7460  140.9950 C   0  0  0  0  0  0  0  0  0  0  0  0
  197.3630  176.0800  143.2760 C   0  0  0  0  0  3  0  0  0  0  0  0
  197.9410  175.6440  142.0810 C   0  0  0  0  0  3  0  0  0  0  0  0
  197.1490  175.4790  140.9410 C   0  0  0  0  0  3  0  0  0  0  0  0
  1 35  1  1  0  0  0
  1  9  1  0  0  0  0
  1 11  1  0  0  0  0
  3 15  1  0  0  0  0
  4  5  1  1  0  0  0
  4 15  1  0  0  0  0
  6  3  1  0  0  0  0
  6 32  1  1  0  0  0
  7  4  1  0  0  0  0
  8 12  1  6  0  0  0
  8 10  1  0  0  0  0
  8  4  1  0  0  0  0
  9 13  1  6  0  0  0
  9 11  1  0  0  0  0
 10  2  1  6  0  0  0
 10  6  1  0  0  0  0
 11  7  1  0  0  0  0
 11 14  1  1  0  0  0
 13  8  1  0  0  0  0
 15 16  1  6  0  0  0
 16 18  1  6  0  0  0
 18 17  1  0  0  0  0
 19 16  1  0  0  0  0
 19 20  1  1  0  0  0
 20 21  1  0  0  0  0
 21 22  1  0  0  0  0
 22 24  1  0  0  0  0
 23 22  1  0  0  0  0
 25 19  1  0  0  0  0
 26 27  1  0  0  0  0
 26 28  1  0  0  0  0
 27 25  1  6  0  0  0
 27 28  1  0  0  0  0
 28 29  1  1  0  0  0
 29 31  1  0  0  0  0
 30 31  1  0  0  0  0
 32 34  1  0  0  0  0
 34 33  1  0  0  0  0
 36 37  2  0  0  0  0
 37 38  1  0  0  0  0
 37 35  1  0  0  0  0
 38 39  1  1  0  0  0
 40 38  1  0  0  0  0
 41 40  1  1  0  0  0
 41 42  1  0  0  0  0
 42 45  1  0  0  0  0
 42 43  1  1  0  0  0
 44 41  1  0  0  0  0
 44 42  1  0  0  0  0
 45 46  1  0  0  0  0
 47 53  1  1  0  0  0
 47 46  1  0  0  0  0
 48 47  1  0  0  0  0
 49 48  1  0  0  0  0
 50 51  1  0  0  0  0
 50 49  1  0  0  0  0
 52 51  1  0  0  0  0
 53 57  1  0  0  0  0
 54 55  1  0  0  0  0
 55 56  1  0  0  0  0
 57 54  2  0  0  0  0
 58 55  2  0  0  0  0
 59 58  1  0  0  0  0
 60 57  1  0  0  0  0
 60 59  2  0  0  0  0
M  END
>  <MODEL>
6

>  <REMARK>
 VINA RESULT:      -4.7      2.593      8.247
  Name = 
  26 active torsions:
  status: ('A' for Active; 'I' for Inactive)
    1  A    between atoms: O_1  and  C_15
    2  A    between atoms: O_1  and  C_48
    3  A    between atoms: C_3  and  O_23
    4  A    between atoms: S_6  and  C_39
    5  A    between atoms: C_10  and  C_37
    6  A    between atoms: C_13  and  C_60
    7  A    between atoms: C_14  and  C_33
    8  A    between atoms: C_14  and  C_48
    9  A    between atoms: C_15  and  C_34
   10  A    between atoms: C_16  and  C_38
   11  A    between atoms: C_16  and  C_54
   12  A    between atoms: C_17  and  C_55
   13  A    between atoms: O_19  and  C_25
   14  A    between atoms: O_19  and  C_32
   15  A    between atoms: O_20  and  C_48
   16  A    between atoms: O_20  and  C_55
   17  A    between atoms: O_23  and  C_49
   18  A    between atoms: C_24  and  C_37
   19  A    between atoms: C_24  and  C_49
   20  A    between atoms: C_32  and  C_50
   21  A    between atoms: C_32  and  C_51
   22  A    between atoms: C_34  and  C_36
   23  A    between atoms: C_39  and  C_51
   24  A    between atoms: O_43  and  C_50
   25  A    between atoms: O_47  and  C_60
   26  A    between atoms: C_50  and  C_58
                            x       y       z     vdW  Elec       q    Type
                         _______ _______ _______ _____ _____    ______ ____

>  <TORSDO>
F 26

$$$$
=
 OpenBabel11062420393D

 60 65  0  0  1  0  0  0  0  0999 V2000
  189.6500  173.9590  141.4080 C   0  0  1  0  0  3  0  0  0  0  0  0
  188.9750  174.1620  136.4970 C   0  0  0  0  0  1  0  0  0  0  0  0
  192.2680  173.6910  138.1760 O   0  0  0  0  0  0  0  0  0  0  0  0
  190.9910  171.7350  138.8780 C   0  0  2  0  0  0  0  0  0  0  0  0
  190.9440  170.2340  138.5920 C   0  0  0  0  0  1  0  0  0  0  0  0
  191.4160  174.0860  137.1200 C   0  0  2  0  0  3  0  0  0  0  0  0
  190.9870  171.8970  140.4080 C   0  0  0  0  0  2  0  0  0  0  0  0
  189.7290  172.4760  138.2600 C   0  0  1  0  0  0  0  0  0  0  0  0
  189.9390  174.1460  139.9190 C   0  0  1  0  0  3  0  0  0  0  0  0
  190.1090  173.2790  136.9930 C   0  0  1  0  0  3  0  0  0  0  0  0
  190.9030  173.3670  140.7980 C   0  0  1  0  0  0  0  0  0  0  0  0
  188.7890  171.5250  137.8450 O   0  0  0  0  0  1  0  0  0  0  0  0
  189.0580  173.3040  139.2060 O   0  0  0  0  0  0  0  0  0  0  0  0
  192.0990  174.0510  141.0280 O   0  0  0  0  0  1  0  0  0  0  0  0
  192.3140  172.2840  138.2570 C   0  0  2  0  0  3  0  0  0  0  0  0
  193.5940  171.8110  138.9910 C   0  0  1  0  0  3  0  0  0  0  0  0
  194.4810  170.1280  140.1290 C   0  0  0  0  0  1  0  0  0  0  0  0
  193.6290  170.4150  139.0600 O   0  0  0  0  0  0  0  0  0  0  0  0
  194.9100  172.3310  138.3900 C   0  0  1  0  0  3  0  0  0  0  0  0
  195.0220  172.0230  136.8990 C   0  0  0  0  0  2  0  0  0  0  0  0
  196.2040  171.1140  136.6270 C   0  0  0  0  0  2  0  0  0  0  0  0
  195.7440  169.8730  135.4110 S   0  0  0  0  0  3  0  0  0  0  0  0
  194.0410  169.8940  135.4470 O   0  0  0  0  0  1  0  0  0  0  0  0
  196.0930  168.5500  136.0860 O   0  0  0  0  0  1  0  0  0  0  0  0
  195.0530  173.7020  138.6280 O   0  0  0  0  0  0  0  0  0  0  0  0
  196.7690  175.2490  139.1670 C   0  0  0  0  0  2  0  0  0  0  0  0
  196.4140  173.9610  138.4580 C   0  0  2  0  0  3  0  0  0  0  0  0
  196.5850  175.2430  137.6630 C   0  0  2  0  0  3  0  0  0  0  0  0
  197.9410  175.2220  136.9940 C   0  0  0  0  0  2  0  0  0  0  0  0
  196.4320  176.3860  135.4140 C   0  0  0  0  0  1  0  0  0  0  0  0
  197.8590  175.9330  135.6580 C   0  0  0  0  0  2  0  0  0  0  0  0
  192.1650  174.2050  135.7930 C   0  0  0  0  0  2  0  0  0  0  0  0
  192.6870  176.3400  135.9630 C   0  0  0  0  0  1  0  0  0  0  0  0
  193.2570  175.0680  135.9180 O   0  0  0  0  0  0  0  0  0  0  0  0
  189.9430  175.1720  142.0930 O   0  0  0  0  0  0  0  0  0  0  0  0
  187.8260  176.0430  142.1870 O   0  0  0  0  0  0  0  0  0  0  0  0
  188.9600  175.9370  142.7280 C   0  0  0  0  0  0  0  0  0  0  0  0
  189.2190  176.6050  144.0460 C   0  0  1  0  0  3  0  0  0  0  0  0
  188.7320  177.9110  144.0250 O   0  0  0  0  0  1  0  0  0  0  0  0
  188.5600  175.8380  145.1800 C   0  0  0  0  0  2  0  0  0  0  0  0
  189.6190  175.1090  145.9900 C   0  0  1  0  0  3  0  0  0  0  0  0
  190.1650  175.9460  147.1340 C   0  0  1  0  0  0  0  0  0  0  0  0
  189.6990  177.2550  147.2590 O   0  0  0  0  0  1  0  0  0  0  0  0
  189.1240  174.8970  147.4180 C   0  0  0  0  0  2  0  0  0  0  0  0
  191.5670  175.6240  147.6130 C   0  0  0  0  0  2  0  0  0  0  0  0
  192.2140  174.8140  146.6710 O   0  0  0  0  0  0  0  0  0  0  0  0
  192.7730  175.7070  145.7520 C   0  0  1  0  0  3  0  0  0  0  0  0
  194.0810  176.0070  146.1330 O   0  0  0  0  0  0  0  0  0  0  0  0
  194.5480  176.8830  145.1520 C   0  0  0  0  0  2  0  0  0  0  0  0
  195.9060  176.4150  144.6650 C   0  0  0  0  0  2  0  0  0  0  0  0
  195.9460  176.3930  143.1490 C   0  0  0  0  0  2  0  0  0  0  0  0
  197.2310  175.8930  142.6950 N   0  0  0  0  0  1  0  0  0  0  0  0
  192.7890  175.0790  144.3640 C   0  0  0  0  0  2  0  0  0  0  0  0
  194.1560  173.0060  144.7190 C   0  0  0  0  0  3  0  0  0  0  0  0
  194.2740  171.6140  144.7690 C   0  0  0  0  0  0  0  0  0  0  0  0
  195.5340  171.0190  145.0500 N   0  0  0  0  0  1  0  0  0  0  0  0
  192.9170  173.5950  144.4400 C   0  0  0  0  0  0  0  0  0  0  0  0
  193.1560  170.8080  144.5400 C   0  0  0  0  0  3  0  0  0  0  0  0
  191.9180  171.3940  144.2600 C   0  0  0  0  0  3  0  0  0  0  0  0
  191.7990  172.7860  144.2090 C   0  0  0  0  0  3  0  0  0  0  0  0
  1 35  1  1  0  0  0
  3 15  1  0  0  0  0
  4  5  1  6  0  0  0
  4  7  1  0  0  0  0
  6 32  1  6  0  0  0
  6  3  1  0  0  0  0
  7 11  1  0  0  0  0
  8 12  1  6  0  0  0
  8  4  1  0  0  0  0
  8 13  1  0  0  0  0
  9 13  1  6  0  0  0
  9 11  1  0  0  0  0
  9  1  1  0  0  0  0
 10  2  1  1  0  0  0
 10  6  1  0  0  0  0
 10  8  1  0  0  0  0
 11 14  1  1  0  0  0
 11  1  1  0  0  0  0
 15  4  1  0  0  0  0
 15 16  1  1  0  0  0
 16 18  1  6  0  0  0
 18 17  1  0  0  0  0
 19 20  1  6  0  0  0
 19 25  1  0  0  0  0
 19 16  1  0  0  0  0
 21 20  1  0  0  0  0
 22 23  1  0  0  0  0
 22 24  1  0  0  0  0
 22 21  1  0  0  0  0
 27 25  1  1  0  0  0
 27 26  1  0  0  0  0
 28 29  1  6  0  0  0
 28 27  1  0  0  0  0
 28 26  1  0  0  0  0
 30 31  1  0  0  0  0
 31 29  1  0  0  0  0
 32 34  1  0  0  0  0
 34 33  1  0  0  0  0
 35 37  1  0  0  0  0
 36 37  2  0  0  0  0
 37 38  1  0  0  0  0
 38 39  1  6  0  0  0
 38 40  1  0  0  0  0
 41 40  1  6  0  0  0
 41 42  1  0  0  0  0
 41 44  1  0  0  0  0
 42 43  1  1  0  0  0
 42 44  1  0  0  0  0
 42 45  1  0  0  0  0
 46 45  1  0  0  0  0
 47 53  1  6  0  0  0
 47 48  1  0  0  0  0
 47 46  1  0  0  0  0
 49 48  1  0  0  0  0
 50 49  1  0  0  0  0
 51 50  1  0  0  0  0
 52 51  1  0  0  0  0
 53 57  1  0  0  0  0
 54 55  1  0  0  0  0
 55 56  1  0  0  0  0
 57 54  2  0  0  0  0
 58 55  2  0  0  0  0
 59 58  1  0  0  0  0
 60 59  2  0  0  0  0
 60 57  1  0  0  0  0
M  END
>  <MODEL>
7

>  <REMARK>
 VINA RESULT:      -4.6      3.357      5.975
  Name = 
  26 active torsions:
  status: ('A' for Active; 'I' for Inactive)
    1  A    between atoms: O_1  and  C_15
    2  A    between atoms: O_1  and  C_48
    3  A    between atoms: C_3  and  O_23
    4  A    between atoms: S_6  and  C_39
    5  A    between atoms: C_10  and  C_37
    6  A    between atoms: C_13  and  C_60
    7  A    between atoms: C_14  and  C_33
    8  A    between atoms: C_14  and  C_48
    9  A    between atoms: C_15  and  C_34
   10  A    between atoms: C_16  and  C_38
   11  A    between atoms: C_16  and  C_54
   12  A    between atoms: C_17  and  C_55
   13  A    between atoms: O_19  and  C_25
   14  A    between atoms: O_19  and  C_32
   15  A    between atoms: O_20  and  C_48
   16  A    between atoms: O_20  and  C_55
   17  A    between atoms: O_23  and  C_49
   18  A    between atoms: C_24  and  C_37
   19  A    between atoms: C_24  and  C_49
   20  A    between atoms: C_32  and  C_50
   21  A    between atoms: C_32  and  C_51
   22  A    between atoms: C_34  and  C_36
   23  A    between atoms: C_39  and  C_51
   24  A    between atoms: O_43  and  C_50
   25  A    between atoms: O_47  and  C_60
   26  A    between atoms: C_50  and  C_58
                            x       y       z     vdW  Elec       q    Type
                         _______ _______ _______ _____ _____    ______ ____

>  <TORSDO>
F 26

$$$$
=
 OpenBabel11062420393D

 60 65  0  0  1  0  0  0  0  0999 V2000
  194.1440  175.6120  142.1310 C   0  0  1  0  0  3  0  0  0  0  0  0
  196.6150  175.0220  137.8700 C   0  0  0  0  0  1  0  0  0  0  0  0
  194.9580  172.2760  139.7680 O   0  0  0  0  0  0  0  0  0  0  0  0
  193.1100  173.7590  139.1910 C   0  0  2  0  0  0  0  0  0  0  0  0
  191.9200  173.7880  138.2320 C   0  0  0  0  0  1  0  0  0  0  0  0
  195.9050  172.8200  138.8710 C   0  0  2  0  0  3  0  0  0  0  0  0
  192.5700  174.1420  140.5810 C   0  0  0  0  0  2  0  0  0  0  0  0
  194.2280  174.7970  138.7480 C   0  0  1  0  0  0  0  0  0  0  0  0
  194.9300  174.9510  141.0000 C   0  0  1  0  0  3  0  0  0  0  0  0
  195.4450  174.0820  138.1150 C   0  0  1  0  0  3  0  0  0  0  0  0
  193.7060  174.2670  141.5870 C   0  0  1  0  0  0  0  0  0  0  0  0
  193.7150  175.6370  137.7520 O   0  0  0  0  0  1  0  0  0  0  0  0
  194.6370  175.6540  139.8110 O   0  0  0  0  0  0  0  0  0  0  0  0
  194.0290  173.1440  142.3520 O   0  0  0  0  0  1  0  0  0  0  0  0
  193.6740  172.3040  139.1870 C   0  0  2  0  0  3  0  0  0  0  0  0
  192.7380  171.2680  139.8590 C   0  0  1  0  0  3  0  0  0  0  0  0
  190.7740  170.2370  139.8530 C   0  0  0  0  0  1  0  0  0  0  0  0
  191.4740  171.2920  139.2610 O   0  0  0  0  0  0  0  0  0  0  0  0
  193.2750  169.8270  139.8700 C   0  0  1  0  0  3  0  0  0  0  0  0
  194.2120  169.5530  138.6970 C   0  0  0  0  0  2  0  0  0  0  0  0
  193.6470  168.4680  137.8020 C   0  0  0  0  0  2  0  0  0  0  0  0
  193.4260  169.1110  136.1380 S   0  0  0  0  0  3  0  0  0  0  0  0
  194.9790  169.6730  135.7210 O   0  0  0  0  0  1  0  0  0  0  0  0
  192.6310  170.3980  136.3440 O   0  0  0  0  0  1  0  0  0  0  0  0
  193.9050  169.5460  141.0870 O   0  0  0  0  0  0  0  0  0  0  0  0
  195.8250  168.2100  141.4850 C   0  0  0  0  0  2  0  0  0  0  0  0
  195.2600  169.4200  140.7760 C   0  0  2  0  0  3  0  0  0  0  0  0
  196.0830  169.5960  142.0380 C   0  0  2  0  0  3  0  0  0  0  0  0
  197.4770  170.0370  141.6520 C   0  0  0  0  0  2  0  0  0  0  0  0
  197.4260  171.7930  143.3960 C   0  0  0  0  0  1  0  0  0  0  0  0
  197.6330  171.5210  141.9170 C   0  0  0  0  0  2  0  0  0  0  0  0
  196.4910  171.7580  137.9420 C   0  0  0  0  0  2  0  0  0  0  0  0
  197.8900  170.0540  137.9590 C   0  0  0  0  0  1  0  0  0  0  0  0
  197.7700  171.3840  138.3620 O   0  0  0  0  0  0  0  0  0  0  0  0
  194.8650  175.4560  143.3490 O   0  0  0  0  0  0  0  0  0  0  0  0
  194.2710  174.5160  145.3520 O   0  0  0  0  0  0  0  0  0  0  0  0
  194.2520  175.5300  144.6030 C   0  0  0  0  0  0  0  0  0  0  0  0
  193.6030  176.7960  145.0830 C   0  0  1  0  0  3  0  0  0  0  0  0
  192.4610  177.0620  144.3290 O   0  0  0  0  0  1  0  0  0  0  0  0
  193.2260  176.6870  146.5500 C   0  0  0  0  0  2  0  0  0  0  0  0
  191.7180  176.8020  146.7030 C   0  0  1  0  0  3  0  0  0  0  0  0
  191.1030  175.6010  147.4010 C   0  0  1  0  0  0  0  0  0  0  0  0
  191.9500  174.5470  147.7440 O   0  0  0  0  0  1  0  0  0  0  0  0
  191.3500  176.8630  148.1830 C   0  0  0  0  0  2  0  0  0  0  0  0
  189.6510  175.2960  147.0910 C   0  0  0  0  0  2  0  0  0  0  0  0
  188.9830  176.4770  146.7410 O   0  0  0  0  0  0  0  0  0  0  0  0
  188.2240  176.1420  145.6160 C   0  0  1  0  0  3  0  0  0  0  0  0
  187.0140  176.8340  145.6490 O   0  0  0  0  0  0  0  0  0  0  0  0
  186.6290  176.8200  146.9900 C   0  0  0  0  0  2  0  0  0  0  0  0
  185.7250  178.0070  147.2670 C   0  0  0  0  0  2  0  0  0  0  0  0
  184.4370  177.8870  146.4760 C   0  0  0  0  0  2  0  0  0  0  0  0
  184.2930  179.0260  145.5880 N   0  0  0  0  0  1  0  0  0  0  0  0
  188.9820  176.5200  144.3490 C   0  0  0  0  0  2  0  0  0  0  0  0
  189.6900  174.2130  143.6670 C   0  0  0  0  0  3  0  0  0  0  0  0
  189.7230  173.1700  142.7370 C   0  0  0  0  0  0  0  0  0  0  0  0
  190.4250  171.9720  143.0390 N   0  0  0  0  0  1  0  0  0  0  0  0
  189.0020  175.3950  143.3710 C   0  0  0  0  0  0  0  0  0  0  0  0
  189.0670  173.3060  141.5100 C   0  0  0  0  0  3  0  0  0  0  0  0
  188.3800  174.4850  141.2120 C   0  0  0  0  0  3  0  0  0  0  0  0
  188.3490  175.5290  142.1410 C   0  0  0  0  0  3  0  0  0  0  0  0
  1 35  1  1  0  0  0
  4  5  1  6  0  0  0
  4  7  1  0  0  0  0
  6 32  1  6  0  0  0
  6  3  1  0  0  0  0
  7 11  1  0  0  0  0
  8 12  1  6  0  0  0
  8  4  1  0  0  0  0
  8 13  1  0  0  0  0
  9 13  1  6  0  0  0
  9 11  1  0  0  0  0
  9  1  1  0  0  0  0
 10  2  1  1  0  0  0
 10  8  1  0  0  0  0
 10  6  1  0  0  0  0
 11  1  1  0  0  0  0
 11 14  1  1  0  0  0
 15  4  1  0  0  0  0
 15  3  1  0  0  0  0
 15 16  1  1  0  0  0
 16 18  1  6  0  0  0
 16 19  1  0  0  0  0
 18 17  1  0  0  0  0
 19 20  1  6  0  0  0
 19 25  1  0  0  0  0
 21 20  1  0  0  0  0
 22 24  1  0  0  0  0
 22 21  1  0  0  0  0
 23 22  1  0  0  0  0
 26 28  1  0  0  0  0
 27 25  1  1  0  0  0
 27 26  1  0  0  0  0
 27 28  1  0  0  0  0
 28 29  1  6  0  0  0
 29 31  1  0  0  0  0
 31 30  1  0  0  0  0
 32 34  1  0  0  0  0
 33 34  1  0  0  0  0
 35 37  1  0  0  0  0
 37 38  1  0  0  0  0
 37 36  2  0  0  0  0
 38 39  1  6  0  0  0
 38 40  1  0  0  0  0
 41 40  1  1  0  0  0
 41 42  1  0  0  0  0
 41 44  1  0  0  0  0
 42 43  1  1  0  0  0
 42 44  1  0  0  0  0
 45 42  1  0  0  0  0
 46 45  1  0  0  0  0
 47 53  1  6  0  0  0
 47 48  1  0  0  0  0
 47 46  1  0  0  0  0
 48 49  1  0  0  0  0
 49 50  1  0  0  0  0
 51 50  1  0  0  0  0
 52 51  1  0  0  0  0
 55 56  1  0  0  0  0
 55 54  2  0  0  0  0
 57 54  1  0  0  0  0
 57 53  1  0  0  0  0
 58 55  1  0  0  0  0
 59 58  2  0  0  0  0
 59 60  1  0  0  0  0
 60 57  2  0  0  0  0
M  END
>  <MODEL>
8

>  <REMARK>
 VINA RESULT:      -4.6      2.883      5.726
  Name = 
  26 active torsions:
  status: ('A' for Active; 'I' for Inactive)
    1  A    between atoms: O_1  and  C_15
    2  A    between atoms: O_1  and  C_48
    3  A    between atoms: C_3  and  O_23
    4  A    between atoms: S_6  and  C_39
    5  A    between atoms: C_10  and  C_37
    6  A    between atoms: C_13  and  C_60
    7  A    between atoms: C_14  and  C_33
    8  A    between atoms: C_14  and  C_48
    9  A    between atoms: C_15  and  C_34
   10  A    between atoms: C_16  and  C_38
   11  A    between atoms: C_16  and  C_54
   12  A    between atoms: C_17  and  C_55
   13  A    between atoms: O_19  and  C_25
   14  A    between atoms: O_19  and  C_32
   15  A    between atoms: O_20  and  C_48
   16  A    between atoms: O_20  and  C_55
   17  A    between atoms: O_23  and  C_49
   18  A    between atoms: C_24  and  C_37
   19  A    between atoms: C_24  and  C_49
   20  A    between atoms: C_32  and  C_50
   21  A    between atoms: C_32  and  C_51
   22  A    between atoms: C_34  and  C_36
   23  A    between atoms: C_39  and  C_51
   24  A    between atoms: O_43  and  C_50
   25  A    between atoms: O_47  and  C_60
   26  A    between atoms: C_50  and  C_58
                            x       y       z     vdW  Elec       q    Type
                         _______ _______ _______ _____ _____    ______ ____

>  <TORSDO>
F 26

$$$$
=
 OpenBabel11062420393D

 60 65  0  0  1  0  0  0  0  0999 V2000
  189.5550  172.5740  138.2150 C   0  0  1  0  0  3  0  0  0  0  0  0
  193.2100  170.9390  135.2850 C   0  0  0  0  0  1  0  0  0  0  0  0
  193.5050  171.4710  138.9620 O   0  0  0  0  0  0  0  0  0  0  0  0
  191.7750  169.7620  138.7750 C   0  0  2  0  0  0  0  0  0  0  0  0
  191.6130  168.2620  139.0240 C   0  0  0  0  0  1  0  0  0  0  0  0
  193.9970  171.3650  137.6410 C   0  0  2  0  0  3  0  0  0  0  0  0
  190.5760  170.4560  139.4460 C   0  0  0  0  0  2  0  0  0  0  0  0
  191.7780  170.0870  137.2200 C   0  0  1  0  0  0  0  0  0  0  0  0
  190.9580  172.2510  137.7040 C   0  0  1  0  0  3  0  0  0  0  0  0
  193.2010  170.4250  136.7160 C   0  0  1  0  0  3  0  0  0  0  0  0
  190.5750  171.9490  139.1440 C   0  0  1  0  0  0  0  0  0  0  0  0
  191.3770  168.9520  136.5070 O   0  0  0  0  0  1  0  0  0  0  0  0
  190.8560  171.1160  136.8700 O   0  0  0  0  0  0  0  0  0  0  0  0
  191.1980  172.8010  140.0590 O   0  0  0  0  0  1  0  0  0  0  0  0
  193.1190  170.2000  139.4340 C   0  0  2  0  0  3  0  0  0  0  0  0
  193.0980  170.1660  140.9830 C   0  0  1  0  0  3  0  0  0  0  0  0
  191.9930  168.8350  142.3720 C   0  0  0  0  0  1  0  0  0  0  0  0
  193.0370  168.8470  141.4430 O   0  0  0  0  0  0  0  0  0  0  0  0
  194.2710  170.8940  141.6600 C   0  0  1  0  0  3  0  0  0  0  0  0
  193.7970  171.9470  142.6580 C   0  0  0  0  0  2  0  0  0  0  0  0
  193.7170  173.3100  142.0010 C   0  0  0  0  0  2  0  0  0  0  0  0
  195.2250  174.2300  142.3340 S   0  0  0  0  0  3  0  0  0  0  0  0
  194.7210  175.8560  142.2670 O   0  0  0  0  0  1  0  0  0  0  0  0
  196.0450  174.0650  141.0570 O   0  0  0  0  0  1  0  0  0  0  0  0
  195.1320  169.9770  142.2730 O   0  0  0  0  0  0  0  0  0  0  0  0
  197.4880  169.9010  142.5410 C   0  0  0  0  0  2  0  0  0  0  0  0
  196.2320  170.7300  142.6860 C   0  0  2  0  0  3  0  0  0  0  0  0
  196.8560  170.0780  143.9060 C   0  0  2  0  0  3  0  0  0  0  0  0
  197.6240  171.1280  144.6780 C   0  0  0  0  0  2  0  0  0  0  0  0
  196.8520  173.0570  146.0250 C   0  0  0  0  0  1  0  0  0  0  0  0
  196.8270  171.5450  145.8980 C   0  0  0  0  0  2  0  0  0  0  0  0
  195.4990  171.0890  137.6100 C   0  0  0  0  0  2  0  0  0  0  0  0
  196.9860  170.6560  136.0410 C   0  0  0  0  0  1  0  0  0  0  0  0
  196.0780  171.6290  136.4590 O   0  0  0  0  0  0  0  0  0  0  0  0
  189.4560  173.9760  138.4400 O   0  0  0  0  0  0  0  0  0  0  0  0
  187.4360  174.7900  137.7280 O   0  0  0  0  0  0  0  0  0  0  0  0
  188.2370  174.6170  138.6860 C   0  0  0  0  0  0  0  0  0  0  0  0
  187.8570  175.0730  140.0640 C   0  0  1  0  0  3  0  0  0  0  0  0
  188.9420  174.9360  140.9290 O   0  0  0  0  0  1  0  0  0  0  0  0
  187.4040  176.5230  140.0470 C   0  0  0  0  0  2  0  0  0  0  0  0
  186.5510  176.8090  141.2720 C   0  0  1  0  0  3  0  0  0  0  0  0
  187.1760  177.8400  142.1960 C   0  0  1  0  0  0  0  0  0  0  0  0
  188.4380  178.3310  141.8610 O   0  0  0  0  0  1  0  0  0  0  0  0
  186.0850  178.2620  141.2510 C   0  0  0  0  0  2  0  0  0  0  0  0
  186.7860  177.7760  143.6600 C   0  0  0  0  0  2  0  0  0  0  0  0
  187.8580  178.2040  144.4540 O   0  0  0  0  0  0  0  0  0  0  0  0
  188.1710  177.1040  145.2590 C   0  0  1  0  0  3  0  0  0  0  0  0
  187.0140  176.3650  145.5060 O   0  0  0  0  0  0  0  0  0  0  0  0
  186.8370  176.4270  146.8880 C   0  0  0  0  0  2  0  0  0  0  0  0
  185.7360  177.4190  147.2110 C   0  0  0  0  0  2  0  0  0  0  0  0
  186.2200  178.4370  148.2260 C   0  0  0  0  0  2  0  0  0  0  0  0
  186.0250  179.7800  147.7110 N   0  0  0  0  0  1  0  0  0  0  0  0
  189.1880  176.2180  144.5500 C   0  0  0  0  0  2  0  0  0  0  0  0
  191.2660  174.9230  145.0950 C   0  0  0  0  0  3  0  0  0  0  0  0
  192.3660  174.6690  145.9180 C   0  0  0  0  0  0  0  0  0  0  0  0
  193.2660  173.6180  145.5960 N   0  0  0  0  0  1  0  0  0  0  0  0
  190.3760  175.9560  145.4120 C   0  0  0  0  0  0  0  0  0  0  0  0
  192.5810  175.4480  147.0590 C   0  0  0  0  0  3  0  0  0  0  0  0
  191.6930  176.4790  147.3780 C   0  0  0  0  0  3  0  0  0  0  0  0
  190.5920  176.7320  146.5560 C   0  0  0  0  0  3  0  0  0  0  0  0
  1 35  1  1  0  0  0
  1 11  1  0  0  0  0
  3 15  1  0  0  0  0
  4  5  1  1  0  0  0
  4 15  1  0  0  0  0
  4  7  1  0  0  0  0
  6 32  1  1  0  0  0
  6  3  1  0  0  0  0
  8 12  1  6  0  0  0
  8  4  1  0  0  0  0
  9 13  1  6  0  0  0
  9  1  1  0  0  0  0
  9 11  1  0  0  0  0
 10  2  1  6  0  0  0
 10  8  1  0  0  0  0
 10  6  1  0  0  0  0
 11  7  1  0  0  0  0
 11 14  1  1  0  0  0
 13  8  1  0  0  0  0
 15 16  1  1  0  0  0
 16 18  1  6  0  0  0
 16 19  1  0  0  0  0
 18 17  1  0  0  0  0
 19 25  1  0  0  0  0
 19 20  1  1  0  0  0
 21 22  1  0  0  0  0
 21 20  1  0  0  0  0
 23 22  1  0  0  0  0
 24 22  1  0  0  0  0
 26 27  1  0  0  0  0
 26 28  1  0  0  0  0
 27 25  1  6  0  0  0
 27 28  1  0  0  0  0
 28 29  1  1  0  0  0
 29 31  1  0  0  0  0
 31 30  1  0  0  0  0
 33 34  1  0  0  0  0
 34 32  1  0  0  0  0
 35 37  1  0  0  0  0
 36 37  2  0  0  0  0
 37 38  1  0  0  0  0
 38 39  1  1  0  0  0
 40 38  1  0  0  0  0
 41 40  1  6  0  0  0
 41 42  1  0  0  0  0
 42 43  1  6  0  0  0
 42 45  1  0  0  0  0
 44 41  1  0  0  0  0
 44 42  1  0  0  0  0
 45 46  1  0  0  0  0
 46 47  1  0  0  0  0
 47 53  1  6  0  0  0
 47 48  1  0  0  0  0
 48 49  1  0  0  0  0
 49 50  1  0  0  0  0
 50 51  1  0  0  0  0
 52 51  1  0  0  0  0
 53 57  1  0  0  0  0
 54 57  2  0  0  0  0
 54 55  1  0  0  0  0
 55 58  2  0  0  0  0
 56 55  1  0  0  0  0
 57 60  1  0  0  0  0
 58 59  1  0  0  0  0
 60 59  2  0  0  0  0
M  END
>  <MODEL>
9

>  <REMARK>
 VINA RESULT:      -4.5      2.976      5.154
  Name = 
  26 active torsions:
  status: ('A' for Active; 'I' for Inactive)
    1  A    between atoms: O_1  and  C_15
    2  A    between atoms: O_1  and  C_48
    3  A    between atoms: C_3  and  O_23
    4  A    between atoms: S_6  and  C_39
    5  A    between atoms: C_10  and  C_37
    6  A    between atoms: C_13  and  C_60
    7  A    between atoms: C_14  and  C_33
    8  A    between atoms: C_14  and  C_48
    9  A    between atoms: C_15  and  C_34
   10  A    between atoms: C_16  and  C_38
   11  A    between atoms: C_16  and  C_54
   12  A    between atoms: C_17  and  C_55
   13  A    between atoms: O_19  and  C_25
   14  A    between atoms: O_19  and  C_32
   15  A    between atoms: O_20  and  C_48
   16  A    between atoms: O_20  and  C_55
   17  A    between atoms: O_23  and  C_49
   18  A    between atoms: C_24  and  C_37
   19  A    between atoms: C_24  and  C_49
   20  A    between atoms: C_32  and  C_50
   21  A    between atoms: C_32  and  C_51
   22  A    between atoms: C_34  and  C_36
   23  A    between atoms: C_39  and  C_51
   24  A    between atoms: O_43  and  C_50
   25  A    between atoms: O_47  and  C_60
   26  A    between atoms: C_50  and  C_58
                            x       y       z     vdW  Elec       q    Type
                         _______ _______ _______ _____ _____    ______ ____

>  <TORSDO>
F 26

$$$$
