=
 OpenBabel11062421253D

 31 34  0  0  1  0  0  0  0  0999 V2000
  187.0110  177.3330  139.6600 O   0  0  0  0  0  0  0  0  0  0  0  0
  186.3520  177.1810  143.1360 C   0  0  0  0  0  0  0  0  0  0  0  0
  187.7440  176.4050  144.9950 N   0  0  0  0  0  0  0  0  0  0  0  0
  185.5690  177.3300  145.5320 C   0  0  1  0  0  3  0  0  0  0  0  0
  186.5560  177.3400  140.8340 C   0  0  0  0  0  0  0  0  0  0  0  0
  185.6140  178.7830  145.8920 C   0  0  0  0  0  0  0  0  0  0  0  0
  184.0690  178.0100  143.1030 O   0  0  0  0  0  0  0  0  0  0  0  0
  187.4830  176.1650  146.3650 C   0  0  0  0  0  0  0  0  0  0  0  0
  184.9190  179.6880  145.2890 N   0  0  0  0  0  2  0  0  0  0  0  0
  187.4620  175.3280  141.9140 C   0  0  0  0  0  1  0  0  0  0  0  0
  186.5750  177.0190  144.4560 C   0  0  0  0  0  0  0  0  0  0  0  0
  186.0280  179.9450  147.9470 O   0  0  0  0  0  0  0  0  0  0  0  0
  186.2820  177.6410  147.7930 O   0  0  0  0  0  0  0  0  0  0  0  0
  187.3100  176.8370  142.0260 C   0  0  2  0  0  3  0  0  0  0  0  0
  185.1390  177.7180  142.5100 C   0  0  0  0  0  0  0  0  0  0  0  0
  185.2930  177.8180  141.1430 O   0  0  0  0  0  0  0  0  0  0  0  0
  186.1370  176.6260  146.8040 C   0  0  1  0  0  3  0  0  0  0  0  0
  188.3210  175.6290  147.1370 O   0  0  0  0  0  0  0  0  0  0  0  0
  185.9900  178.8820  147.2750 C   0  0  0  0  0  0  0  0  0  0  0  0
  189.0920  176.5070  144.4480 C   0  0  0  0  0  2  0  0  0  0  0  0
  189.6460  177.9030  144.6840 C   0  0  0  0  0  2  0  0  0  0  0  0
  190.9080  178.1220  143.8620 C   0  0  0  0  0  2  0  0  0  0  0  0
  191.1830  176.9580  142.9190 C   0  0  0  0  0  2  0  0  0  0  0  0
  193.2750  175.8160  142.2100 C   0  0  0  0  0  1  0  0  0  0  0  0
  192.3720  176.1270  143.3860 C   0  0  1  0  0  3  0  0  0  0  0  0
  193.1690  176.9010  144.4210 C   0  0  0  0  0  2  0  0  0  0  0  0
  193.7500  175.9570  145.4580 C   0  0  0  0  0  2  0  0  0  0  0  0
  193.3490  176.4160  146.8410 C   0  0  0  0  0  2  0  0  0  0  0  0
  191.4470  176.8180  148.3650 C   0  0  0  0  0  2  0  0  0  0  0  0
  191.8440  176.3310  146.9870 C   0  0  0  0  0  3  0  0  0  0  0  0
  191.5110  175.3340  148.0760 C   0  0  0  0  0  2  0  0  0  0  0  0
  1  5  2  0  0  0  0
  2 11  2  0  0  0  0
  3  8  1  0  0  0  0
  4 11  1  6  0  0  0
  4  6  1  0  0  0  0
  4 17  1  0  0  0  0
  5 16  1  0  0  0  0
  5 14  1  0  0  0  0
  6 19  1  0  0  0  0
  8 18  2  0  0  0  0
  9  6  2  0  0  0  0
 11  3  1  0  0  0  0
 14 10  1  6  0  0  0
 14  2  1  0  0  0  0
 15  7  2  0  0  0  0
 15  2  1  0  0  0  0
 16 15  1  0  0  0  0
 17  8  1  6  0  0  0
 17 13  1  0  0  0  0
 19 13  1  0  0  0  0
 19 12  2  0  0  0  0
 20 21  1  0  0  0  0
 20  3  1  0  0  0  0
 22 21  1  0  0  0  0
 23 25  1  0  0  0  0
 23 22  1  0  0  0  0
 25 24  1  6  0  0  0
 25 26  1  0  0  0  0
 26 27  1  0  0  0  0
 27 28  1  0  0  0  0
 28 30  1  0  0  0  0
 30 31  1  0  0  0  0
 30 29  1  0  0  0  0
 31 29  1  0  0  0  0
M  END
>  <MODEL>
1

>  <REMARK>
 VINA RESULT:      -7.3      0.000      0.000
  Name = 
  9 active torsions:
  status: ('A' for Active; 'I' for Inactive)
    1  A    between atoms: C_1  and  C_14
    2  A    between atoms: C_1  and  C_17
    3  A    between atoms: N_4  and  C_18
    4  A    between atoms: C_5  and  C_9
    5  A    between atoms: C_5  and  C_25
    6  A    between atoms: C_9  and  C_19
    7  A    between atoms: C_14  and  C_18
    8  A    between atoms: C_17  and  C_22
    9  A    between atoms: C_19  and  C_22
                            x       y       z     vdW  Elec       q    Type
                         _______ _______ _______ _____ _____    ______ ____

>  <TORSDO>
F 9

$$$$
=
 OpenBabel11062421253D

 31 34  0  0  1  0  0  0  0  0999 V2000
  187.0660  175.9830  142.0010 O   0  0  0  0  0  0  0  0  0  0  0  0
  190.3570  175.4580  143.2020 C   0  0  0  0  0  0  0  0  0  0  0  0
  191.4600  176.2530  145.2380 N   0  0  0  0  0  0  0  0  0  0  0  0
  192.7170  174.7770  143.7830 C   0  0  1  0  0  3  0  0  0  0  0  0
  188.2730  175.6950  142.2170 C   0  0  0  0  0  0  0  0  0  0  0  0
  192.6430  173.3370  144.1910 C   0  0  0  0  0  0  0  0  0  0  0  0
  191.2050  174.1340  141.3510 O   0  0  0  0  0  0  0  0  0  0  0  0
  192.8020  176.2200  145.6880 C   0  0  0  0  0  0  0  0  0  0  0  0
  192.2390  172.3950  143.4070 N   0  0  0  0  0  2  0  0  0  0  0  0
  189.2520  177.6790  143.2840 C   0  0  0  0  0  1  0  0  0  0  0  0
  191.4070  175.4700  144.0470 C   0  0  0  0  0  0  0  0  0  0  0  0
  193.9010  172.0120  145.7420 O   0  0  0  0  0  0  0  0  0  0  0  0
  194.2160  174.3080  145.5870 O   0  0  0  0  0  0  0  0  0  0  0  0
  189.0480  176.1770  143.4040 C   0  0  2  0  0  3  0  0  0  0  0  0
  190.2680  174.7530  141.9200 C   0  0  0  0  0  0  0  0  0  0  0  0
  189.0140  174.8950  141.3630 O   0  0  0  0  0  0  0  0  0  0  0  0
  193.6980  175.3970  144.8270 C   0  0  1  0  0  3  0  0  0  0  0  0
  193.1900  176.8150  146.7260 O   0  0  0  0  0  0  0  0  0  0  0  0
  193.6110  173.1250  145.2310 C   0  0  0  0  0  0  0  0  0  0  0  0
  190.3350  176.5510  146.1160 C   0  0  0  0  0  2  0  0  0  0  0  0
  189.9200  175.2990  146.8740 C   0  0  0  0  0  2  0  0  0  0  0  0
  188.4330  175.3390  147.1960 C   0  0  0  0  0  2  0  0  0  0  0  0
  187.7590  176.5810  146.6230 C   0  0  0  0  0  2  0  0  0  0  0  0
  186.5330  178.2900  147.9490 C   0  0  0  0  0  1  0  0  0  0  0  0
  186.4600  176.8990  147.3530 C   0  0  1  0  0  3  0  0  0  0  0  0
  185.2940  176.8460  146.3800 C   0  0  0  0  0  2  0  0  0  0  0  0
  184.4150  178.0730  146.5390 C   0  0  0  0  0  2  0  0  0  0  0  0
  184.2110  178.7260  145.1910 C   0  0  0  0  0  2  0  0  0  0  0  0
  185.7020  179.1050  143.2580 C   0  0  0  0  0  2  0  0  0  0  0  0
  185.0930  178.0520  144.1600 C   0  0  0  0  0  3  0  0  0  0  0  0
  184.5150  178.2940  142.7830 C   0  0  0  0  0  2  0  0  0  0  0  0
  1  5  2  0  0  0  0
  2 14  1  0  0  0  0
  2 11  2  0  0  0  0
  3  8  1  0  0  0  0
  3 20  1  0  0  0  0
  4 11  1  1  0  0  0
  4  6  1  0  0  0  0
  4 17  1  0  0  0  0
  5 14  1  0  0  0  0
  6 19  1  0  0  0  0
  7 15  2  0  0  0  0
  8 18  2  0  0  0  0
  9  6  2  0  0  0  0
 11  3  1  0  0  0  0
 14 10  1  6  0  0  0
 15  2  1  0  0  0  0
 16 15  1  0  0  0  0
 16  5  1  0  0  0  0
 17 13  1  1  0  0  0
 17  8  1  0  0  0  0
 19 13  1  0  0  0  0
 19 12  2  0  0  0  0
 20 21  1  0  0  0  0
 21 22  1  0  0  0  0
 23 22  1  0  0  0  0
 23 25  1  0  0  0  0
 25 24  1  6  0  0  0
 26 27  1  0  0  0  0
 26 25  1  0  0  0  0
 28 27  1  0  0  0  0
 29 30  1  0  0  0  0
 30 28  1  0  0  0  0
 31 29  1  0  0  0  0
 31 30  1  0  0  0  0
M  END
>  <MODEL>
2

>  <REMARK>
 VINA RESULT:      -7.2      2.969      7.070
  Name = 
  9 active torsions:
  status: ('A' for Active; 'I' for Inactive)
    1  A    between atoms: C_1  and  C_14
    2  A    between atoms: C_1  and  C_17
    3  A    between atoms: N_4  and  C_18
    4  A    between atoms: C_5  and  C_9
    5  A    between atoms: C_5  and  C_25
    6  A    between atoms: C_9  and  C_19
    7  A    between atoms: C_14  and  C_18
    8  A    between atoms: C_17  and  C_22
    9  A    between atoms: C_19  and  C_22
                            x       y       z     vdW  Elec       q    Type
                         _______ _______ _______ _____ _____    ______ ____

>  <TORSDO>
F 9

$$$$
=
 OpenBabel11062421253D

 31 34  0  0  1  0  0  0  0  0999 V2000
  191.5240  174.3900  141.9830 O   0  0  0  0  0  0  0  0  0  0  0  0
  188.5560  175.7730  143.3340 C   0  0  0  0  0  0  0  0  0  0  0  0
  187.9600  176.3320  145.6420 N   0  0  0  0  0  0  0  0  0  0  0  0
  186.3520  176.8630  143.9070 C   0  0  1  0  0  3  0  0  0  0  0  0
  190.3820  174.8520  142.2450 C   0  0  0  0  0  0  0  0  0  0  0  0
  186.4510  178.2760  143.4180 C   0  0  0  0  0  0  0  0  0  0  0  0
  187.2670  175.9230  141.2810 O   0  0  0  0  0  0  0  0  0  0  0  0
  186.7490  176.7240  146.2600 C   0  0  0  0  0  0  0  0  0  0  0  0
  186.6320  178.5900  142.1790 N   0  0  0  0  0  2  0  0  0  0  0  0
  189.7470  173.8800  144.4090 C   0  0  0  0  0  1  0  0  0  0  0  0
  187.7170  176.3200  144.2360 C   0  0  0  0  0  0  0  0  0  0  0  0
  185.5070  180.3400  144.1880 O   0  0  0  0  0  0  0  0  0  0  0  0
  185.2650  178.3770  145.4050 O   0  0  0  0  0  0  0  0  0  0  0  0
  189.9070  175.1740  143.6270 C   0  0  2  0  0  3  0  0  0  0  0  0
  188.3310  175.6430  141.8910 C   0  0  0  0  0  0  0  0  0  0  0  0
  189.4380  175.1090  141.2640 O   0  0  0  0  0  0  0  0  0  0  0  0
  185.6520  177.0100  145.2940 C   0  0  1  0  0  3  0  0  0  0  0  0
  186.6230  176.8360  147.5080 O   0  0  0  0  0  0  0  0  0  0  0  0
  185.7250  179.1100  144.3360 C   0  0  0  0  0  0  0  0  0  0  0  0
  189.2620  176.4720  146.2830 C   0  0  0  0  0  2  0  0  0  0  0  0
  189.4730  175.3480  147.2860 C   0  0  0  0  0  2  0  0  0  0  0  0
  190.9230  175.3080  147.7450 C   0  0  0  0  0  2  0  0  0  0  0  0
  191.7380  176.4540  147.1580 C   0  0  0  0  0  2  0  0  0  0  0  0
  194.1460  176.5910  146.5530 C   0  0  0  0  0  1  0  0  0  0  0  0
  192.8180  175.9460  146.2110 C   0  0  1  0  0  3  0  0  0  0  0  0
  192.9590  174.4400  146.3470 C   0  0  0  0  0  2  0  0  0  0  0  0
  193.5640  173.8480  145.0880 C   0  0  0  0  0  2  0  0  0  0  0  0
  194.5240  172.7410  145.4610 C   0  0  0  0  0  2  0  0  0  0  0  0
  196.9310  172.2680  145.7480 C   0  0  0  0  0  2  0  0  0  0  0  0
  195.9170  173.0950  144.9850 C   0  0  0  0  0  3  0  0  0  0  0  0
  196.6870  173.7120  146.1330 C   0  0  0  0  0  2  0  0  0  0  0  0
  1  5  2  0  0  0  0
  2 14  1  0  0  0  0
  2 11  2  0  0  0  0
  3  8  1  0  0  0  0
  3 20  1  0  0  0  0
  4  6  1  1  0  0  0
  4 11  1  0  0  0  0
  4 17  1  0  0  0  0
  5 14  1  0  0  0  0
  6 19  1  0  0  0  0
  7 15  2  0  0  0  0
  8 18  2  0  0  0  0
  9  6  2  0  0  0  0
 11  3  1  0  0  0  0
 12 19  2  0  0  0  0
 14 10  1  1  0  0  0
 15  2  1  0  0  0  0
 16 15  1  0  0  0  0
 16  5  1  0  0  0  0
 17 13  1  1  0  0  0
 17  8  1  0  0  0  0
 19 13  1  0  0  0  0
 20 21  1  0  0  0  0
 21 22  1  0  0  0  0
 23 22  1  0  0  0  0
 25 26  1  0  0  0  0
 25 24  1  1  0  0  0
 25 23  1  0  0  0  0
 27 28  1  0  0  0  0
 27 26  1  0  0  0  0
 29 31  1  0  0  0  0
 30 28  1  0  0  0  0
 30 29  1  0  0  0  0
 30 31  1  0  0  0  0
M  END
>  <MODEL>
3

>  <REMARK>
 VINA RESULT:      -7.1      2.472      3.819
  Name = 
  9 active torsions:
  status: ('A' for Active; 'I' for Inactive)
    1  A    between atoms: C_1  and  C_14
    2  A    between atoms: C_1  and  C_17
    3  A    between atoms: N_4  and  C_18
    4  A    between atoms: C_5  and  C_9
    5  A    between atoms: C_5  and  C_25
    6  A    between atoms: C_9  and  C_19
    7  A    between atoms: C_14  and  C_18
    8  A    between atoms: C_17  and  C_22
    9  A    between atoms: C_19  and  C_22
                            x       y       z     vdW  Elec       q    Type
                         _______ _______ _______ _____ _____    ______ ____

>  <TORSDO>
F 9

$$$$
=
 OpenBabel11062421253D

 31 34  0  0  1  0  0  0  0  0999 V2000
  188.5380  173.2510  140.9850 O   0  0  0  0  0  0  0  0  0  0  0  0
  190.6380  174.1030  143.7060 C   0  0  0  0  0  0  0  0  0  0  0  0
  192.5100  175.6750  143.8490 N   0  0  0  0  0  0  0  0  0  0  0  0
  191.8460  174.5320  145.8820 C   0  0  1  0  0  3  0  0  0  0  0  0
  189.1750  173.3760  142.0640 C   0  0  0  0  0  0  0  0  0  0  0  0
  190.9010  175.3280  146.7290 C   0  0  0  0  0  0  0  0  0  0  0  0
  189.7030  172.5950  145.3650 O   0  0  0  0  0  0  0  0  0  0  0  0
  193.4820  175.9340  144.8450 C   0  0  0  0  0  0  0  0  0  0  0  0
  189.7450  174.8950  147.1040 N   0  0  0  0  0  2  0  0  0  0  0  0
  191.5210  173.7130  141.4200 C   0  0  0  0  0  1  0  0  0  0  0  0
  191.5710  174.7650  144.4200 C   0  0  0  0  0  0  0  0  0  0  0  0
  191.2320  177.0040  148.4090 O   0  0  0  0  0  0  0  0  0  0  0  0
  193.0110  176.1790  147.1650 O   0  0  0  0  0  0  0  0  0  0  0  0
  190.3640  174.2700  142.2350 C   0  0  2  0  0  3  0  0  0  0  0  0
  189.7050  173.0890  144.2080 C   0  0  0  0  0  0  0  0  0  0  0  0
  188.8340  172.6860  143.2160 O   0  0  0  0  0  0  0  0  0  0  0  0
  193.2230  175.2240  146.1290 C   0  0  1  0  0  3  0  0  0  0  0  0
  194.4590  176.7060  144.6620 O   0  0  0  0  0  0  0  0  0  0  0  0
  191.6810  176.2480  147.5100 C   0  0  0  0  0  0  0  0  0  0  0  0
  192.2560  176.5780  142.7330 C   0  0  0  0  0  2  0  0  0  0  0  0
  191.6120  177.8600  143.2360 C   0  0  0  0  0  2  0  0  0  0  0  0
  190.1490  177.9210  142.8220 C   0  0  0  0  0  2  0  0  0  0  0  0
  189.2130  177.8090  144.0200 C   0  0  0  0  0  2  0  0  0  0  0  0
  187.8180  176.9380  142.1560 C   0  0  0  0  0  1  0  0  0  0  0  0
  187.8050  177.4100  143.5950 C   0  0  1  0  0  3  0  0  0  0  0  0
  187.2990  176.2800  144.4750 C   0  0  0  0  0  2  0  0  0  0  0  0
  187.0130  176.7870  145.8770 C   0  0  0  0  0  2  0  0  0  0  0  0
  185.5220  176.7730  146.1240 C   0  0  0  0  0  2  0  0  0  0  0  0
  184.0070  178.7020  145.8290 C   0  0  0  0  0  2  0  0  0  0  0  0
  185.0910  178.1050  146.7020 C   0  0  0  0  0  3  0  0  0  0  0  0
  185.4320  179.2030  145.7180 C   0  0  0  0  0  2  0  0  0  0  0  0
  1  5  2  0  0  0  0
  2 15  1  0  0  0  0
  2 11  2  0  0  0  0
  3 11  1  0  0  0  0
  3  8  1  0  0  0  0
  4 11  1  6  0  0  0
  4 17  1  0  0  0  0
  4  6  1  0  0  0  0
  5 14  1  0  0  0  0
  5 16  1  0  0  0  0
  6  9  2  0  0  0  0
  6 19  1  0  0  0  0
 13 19  1  0  0  0  0
 14 10  1  6  0  0  0
 14  2  1  0  0  0  0
 15  7  2  0  0  0  0
 16 15  1  0  0  0  0
 17  8  1  6  0  0  0
 17 13  1  0  0  0  0
 18  8  2  0  0  0  0
 19 12  2  0  0  0  0
 20 21  1  0  0  0  0
 20  3  1  0  0  0  0
 22 21  1  0  0  0  0
 22 23  1  0  0  0  0
 25 24  1  6  0  0  0
 25 23  1  0  0  0  0
 25 26  1  0  0  0  0
 26 27  1  0  0  0  0
 27 28  1  0  0  0  0
 28 30  1  0  0  0  0
 29 30  1  0  0  0  0
 31 29  1  0  0  0  0
 31 30  1  0  0  0  0
M  END
>  <MODEL>
4

>  <REMARK>
 VINA RESULT:      -7.0      2.942      5.980
  Name = 
  9 active torsions:
  status: ('A' for Active; 'I' for Inactive)
    1  A    between atoms: C_1  and  C_14
    2  A    between atoms: C_1  and  C_17
    3  A    between atoms: N_4  and  C_18
    4  A    between atoms: C_5  and  C_9
    5  A    between atoms: C_5  and  C_25
    6  A    between atoms: C_9  and  C_19
    7  A    between atoms: C_14  and  C_18
    8  A    between atoms: C_17  and  C_22
    9  A    between atoms: C_19  and  C_22
                            x       y       z     vdW  Elec       q    Type
                         _______ _______ _______ _____ _____    ______ ____

>  <TORSDO>
F 9

$$$$
=
 OpenBabel11062421253D

 31 34  0  0  1  0  0  0  0  0999 V2000
  186.9230  177.5400  139.6650 O   0  0  0  0  0  0  0  0  0  0  0  0
  186.2850  177.3260  143.1420 C   0  0  0  0  0  0  0  0  0  0  0  0
  187.6850  176.5090  144.9760 N   0  0  0  0  0  0  0  0  0  0  0  0
  185.5180  177.4350  145.5450 C   0  0  1  0  0  3  0  0  0  0  0  0
  186.4760  177.5270  140.8410 C   0  0  0  0  0  0  0  0  0  0  0  0
  185.5730  178.8810  145.9310 C   0  0  0  0  0  0  0  0  0  0  0  0
  184.0060  178.1670  143.1380 O   0  0  0  0  0  0  0  0  0  0  0  0
  187.4310  176.2440  146.3430 C   0  0  0  0  0  0  0  0  0  0  0  0
  184.8780  179.8000  145.3500 N   0  0  0  0  0  2  0  0  0  0  0  0
  187.3780  175.4920  141.8780 C   0  0  0  0  0  1  0  0  0  0  0  0
  186.5150  177.1390  144.4570 C   0  0  0  0  0  0  0  0  0  0  0  0
  186.0050  180.0020  148.0050 O   0  0  0  0  0  0  0  0  0  0  0  0
  186.2470  177.7000  147.8070 O   0  0  0  0  0  0  0  0  0  0  0  0
  187.2340  176.9990  142.0190 C   0  0  2  0  0  3  0  0  0  0  0  0
  185.0710  177.8810  142.5330 C   0  0  0  0  0  0  0  0  0  0  0  0
  185.2170  178.0060  141.1670 O   0  0  0  0  0  0  0  0  0  0  0  0
  186.0900  176.7040  146.8000 C   0  0  1  0  0  3  0  0  0  0  0  0
  188.2710  175.6900  147.1000 O   0  0  0  0  0  0  0  0  0  0  0  0
  185.9580  178.9520  147.3140 C   0  0  0  0  0  0  0  0  0  0  0  0
  189.0300  176.6150  144.4230 C   0  0  0  0  0  2  0  0  0  0  0  0
  189.6850  177.9060  144.8890 C   0  0  0  0  0  2  0  0  0  0  0  0
  190.8370  178.2810  143.9680 C   0  0  0  0  0  2  0  0  0  0  0  0
  191.1090  177.2030  142.9260 C   0  0  0  0  0  2  0  0  0  0  0  0
  192.6820  176.2410  144.5950 C   0  0  0  0  0  1  0  0  0  0  0  0
  192.4760  176.5610  143.1280 C   0  0  1  0  0  3  0  0  0  0  0  0
  192.5650  175.2720  142.3310 C   0  0  0  0  0  2  0  0  0  0  0  0
  191.1820  174.6880  142.1100 C   0  0  0  0  0  2  0  0  0  0  0  0
  191.0910  173.3370  142.7840 C   0  0  0  0  0  2  0  0  0  0  0  0
  190.1450  173.2610  145.0650 C   0  0  0  0  0  2  0  0  0  0  0  0
  189.8100  173.2570  143.5880 C   0  0  0  0  0  3  0  0  0  0  0  0
  189.8000  171.9610  144.3700 C   0  0  0  0  0  2  0  0  0  0  0  0
  1  5  2  0  0  0  0
  2 11  2  0  0  0  0
  3  8  1  0  0  0  0
  4 11  1  6  0  0  0
  4  6  1  0  0  0  0
  4 17  1  0  0  0  0
  5 16  1  0  0  0  0
  5 14  1  0  0  0  0
  6 19  1  0  0  0  0
  8 18  2  0  0  0  0
  9  6  2  0  0  0  0
 11  3  1  0  0  0  0
 14 10  1  6  0  0  0
 14  2  1  0  0  0  0
 15  7  2  0  0  0  0
 15  2  1  0  0  0  0
 16 15  1  0  0  0  0
 17  8  1  6  0  0  0
 17 13  1  0  0  0  0
 19 13  1  0  0  0  0
 19 12  2  0  0  0  0
 20 21  1  0  0  0  0
 20  3  1  0  0  0  0
 22 21  1  0  0  0  0
 23 25  1  0  0  0  0
 23 22  1  0  0  0  0
 25 24  1  1  0  0  0
 26 25  1  0  0  0  0
 27 26  1  0  0  0  0
 27 28  1  0  0  0  0
 28 30  1  0  0  0  0
 30 31  1  0  0  0  0
 30 29  1  0  0  0  0
 31 29  1  0  0  0  0
M  END
>  <MODEL>
5

>  <REMARK>
 VINA RESULT:      -7.0      1.417      2.150
  Name = 
  9 active torsions:
  status: ('A' for Active; 'I' for Inactive)
    1  A    between atoms: C_1  and  C_14
    2  A    between atoms: C_1  and  C_17
    3  A    between atoms: N_4  and  C_18
    4  A    between atoms: C_5  and  C_9
    5  A    between atoms: C_5  and  C_25
    6  A    between atoms: C_9  and  C_19
    7  A    between atoms: C_14  and  C_18
    8  A    between atoms: C_17  and  C_22
    9  A    between atoms: C_19  and  C_22
                            x       y       z     vdW  Elec       q    Type
                         _______ _______ _______ _____ _____    ______ ____

>  <TORSDO>
F 9

$$$$
=
 OpenBabel11062421253D

 31 34  0  0  1  0  0  0  0  0999 V2000
  186.9640  177.5140  139.5780 O   0  0  0  0  0  0  0  0  0  0  0  0
  186.4780  177.2010  143.0720 C   0  0  0  0  0  0  0  0  0  0  0  0
  187.9710  176.3670  144.8240 N   0  0  0  0  0  0  0  0  0  0  0  0
  185.8120  177.2320  145.5070 C   0  0  1  0  0  3  0  0  0  0  0  0
  186.5670  177.4630  140.7710 C   0  0  0  0  0  0  0  0  0  0  0  0
  185.8540  178.6690  145.9280 C   0  0  0  0  0  0  0  0  0  0  0  0
  184.1850  177.9930  143.1860 O   0  0  0  0  0  0  0  0  0  0  0  0
  187.7810  176.0630  146.1930 C   0  0  0  0  0  0  0  0  0  0  0  0
  185.1180  179.5880  145.4000 N   0  0  0  0  0  2  0  0  0  0  0  0
  187.5530  175.4210  141.7160 C   0  0  0  0  0  1  0  0  0  0  0  0
  186.7680  176.9850  144.3710 C   0  0  0  0  0  0  0  0  0  0  0  0
  186.3520  179.7460  148.0100 O   0  0  0  0  0  0  0  0  0  0  0  0
  186.6300  177.4560  147.7420 O   0  0  0  0  0  0  0  0  0  0  0  0
  187.3850  176.9210  141.9020 C   0  0  2  0  0  3  0  0  0  0  0  0
  185.2290  177.7440  142.5290 C   0  0  0  0  0  0  0  0  0  0  0  0
  185.3140  177.9070  141.1620 O   0  0  0  0  0  0  0  0  0  0  0  0
  186.4510  176.4830  146.7170 C   0  0  1  0  0  3  0  0  0  0  0  0
  188.6620  175.5070  146.8990 O   0  0  0  0  0  0  0  0  0  0  0  0
  186.2960  178.7130  147.2950 C   0  0  0  0  0  0  0  0  0  0  0  0
  189.2890  176.5140  144.2180 C   0  0  0  0  0  2  0  0  0  0  0  0
  189.8980  177.8500  144.6140 C   0  0  0  0  0  2  0  0  0  0  0  0
  191.4160  177.7930  144.5220 C   0  0  0  0  0  2  0  0  0  0  0  0
  191.9540  176.4040  144.8440 C   0  0  0  0  0  2  0  0  0  0  0  0
  192.3440  174.9920  146.8540 C   0  0  0  0  0  1  0  0  0  0  0  0
  192.5800  176.3540  146.2330 C   0  0  1  0  0  3  0  0  0  0  0  0
  194.0760  176.5920  146.1350 C   0  0  0  0  0  2  0  0  0  0  0  0
  194.8270  175.2750  146.1860 C   0  0  0  0  0  2  0  0  0  0  0  0
  195.6450  175.1100  144.9250 C   0  0  0  0  0  2  0  0  0  0  0  0
  195.6640  175.9700  142.6100 C   0  0  0  0  0  2  0  0  0  0  0  0
  195.5120  176.3510  144.0670 C   0  0  0  0  0  3  0  0  0  0  0  0
  196.8240  176.5990  143.3530 C   0  0  0  0  0  2  0  0  0  0  0  0
  1  5  2  0  0  0  0
  2 11  2  0  0  0  0
  3  8  1  0  0  0  0
  4 11  1  6  0  0  0
  4  6  1  0  0  0  0
  4 17  1  0  0  0  0
  5 16  1  0  0  0  0
  5 14  1  0  0  0  0
  6 19  1  0  0  0  0
  8 18  2  0  0  0  0
  9  6  2  0  0  0  0
 11  3  1  0  0  0  0
 14 10  1  6  0  0  0
 14  2  1  0  0  0  0
 15  2  1  0  0  0  0
 15  7  2  0  0  0  0
 16 15  1  0  0  0  0
 17  8  1  6  0  0  0
 17 13  1  0  0  0  0
 19 13  1  0  0  0  0
 19 12  2  0  0  0  0
 20 21  1  0  0  0  0
 20  3  1  0  0  0  0
 22 21  1  0  0  0  0
 22 23  1  0  0  0  0
 23 25  1  0  0  0  0
 25 24  1  6  0  0  0
 26 27  1  0  0  0  0
 26 25  1  0  0  0  0
 28 27  1  0  0  0  0
 29 31  1  0  0  0  0
 29 30  1  0  0  0  0
 30 28  1  0  0  0  0
 31 30  1  0  0  0  0
M  END
>  <MODEL>
6

>  <REMARK>
 VINA RESULT:      -7.0      1.141      2.414
  Name = 
  9 active torsions:
  status: ('A' for Active; 'I' for Inactive)
    1  A    between atoms: C_1  and  C_14
    2  A    between atoms: C_1  and  C_17
    3  A    between atoms: N_4  and  C_18
    4  A    between atoms: C_5  and  C_9
    5  A    between atoms: C_5  and  C_25
    6  A    between atoms: C_9  and  C_19
    7  A    between atoms: C_14  and  C_18
    8  A    between atoms: C_17  and  C_22
    9  A    between atoms: C_19  and  C_22
                            x       y       z     vdW  Elec       q    Type
                         _______ _______ _______ _____ _____    ______ ____

>  <TORSDO>
F 9

$$$$
=
 OpenBabel11062421253D

 31 34  0  0  1  0  0  0  0  0999 V2000
  187.0770  172.3590  141.9080 O   0  0  0  0  0  0  0  0  0  0  0  0
  189.9840  174.2260  142.6900 C   0  0  0  0  0  0  0  0  0  0  0  0
  190.2540  176.5810  143.3030 N   0  0  0  0  0  0  0  0  0  0  0  0
  192.2380  175.1890  143.2940 C   0  0  1  0  0  3  0  0  0  0  0  0
  188.2270  172.8280  142.1180 C   0  0  0  0  0  0  0  0  0  0  0  0
  192.5780  174.6300  144.6420 C   0  0  0  0  0  0  0  0  0  0  0  0
  191.6330  172.4740  142.3560 O   0  0  0  0  0  0  0  0  0  0  0  0
  191.3850  177.4160  143.4610 C   0  0  0  0  0  0  0  0  0  0  0  0
  192.7150  173.3690  144.8760 N   0  0  0  0  0  2  0  0  0  0  0  0
  188.1890  175.1150  141.2250 C   0  0  0  0  0  1  0  0  0  0  0  0
  190.7460  175.2560  143.1100 C   0  0  0  0  0  0  0  0  0  0  0  0
  193.8330  175.4880  146.4950 O   0  0  0  0  0  0  0  0  0  0  0  0
  193.3590  176.8110  144.6460 O   0  0  0  0  0  0  0  0  0  0  0  0
  188.4980  174.2630  142.4460 C   0  0  2  0  0  3  0  0  0  0  0  0
  190.4380  172.8650  142.3830 C   0  0  0  0  0  0  0  0  0  0  0  0
  189.3720  172.0500  142.0630 O   0  0  0  0  0  0  0  0  0  0  0  0
  192.6800  176.6820  143.4000 C   0  0  1  0  0  3  0  0  0  0  0  0
  191.2980  178.6570  143.6540 O   0  0  0  0  0  0  0  0  0  0  0  0
  193.2990  175.6410  145.3660 C   0  0  0  0  0  0  0  0  0  0  0  0
  188.9280  176.9370  143.7950 C   0  0  0  0  0  2  0  0  0  0  0  0
  188.8180  176.6150  145.2770 C   0  0  0  0  0  2  0  0  0  0  0  0
  187.8160  177.5410  145.9510 C   0  0  0  0  0  2  0  0  0  0  0  0
  186.9450  176.8010  146.9590 C   0  0  0  0  0  2  0  0  0  0  0  0
  185.9610  178.9820  147.6370 C   0  0  0  0  0  1  0  0  0  0  0  0
  185.6490  177.5540  147.2380 C   0  0  1  0  0  3  0  0  0  0  0  0
  184.7840  177.5740  145.9900 C   0  0  0  0  0  2  0  0  0  0  0  0
  184.5000  179.0030  145.5650 C   0  0  0  0  0  2  0  0  0  0  0  0
  184.9710  179.2100  144.1430 C   0  0  0  0  0  2  0  0  0  0  0  0
  185.8080  177.8740  142.2420 C   0  0  0  0  0  2  0  0  0  0  0  0
  184.7810  177.9320  143.3530 C   0  0  0  0  0  3  0  0  0  0  0  0
  184.3830  178.2840  141.9360 C   0  0  0  0  0  2  0  0  0  0  0  0
  1  5  2  0  0  0  0
  2 11  2  0  0  0  0
  3  8  1  0  0  0  0
  3 20  1  0  0  0  0
  4 11  1  1  0  0  0
  4 17  1  0  0  0  0
  4  6  1  0  0  0  0
  5 14  1  0  0  0  0
  6  9  2  0  0  0  0
  6 19  1  0  0  0  0
  7 15  2  0  0  0  0
  8 18  2  0  0  0  0
 11  3  1  0  0  0  0
 13 19  1  0  0  0  0
 14 10  1  6  0  0  0
 14  2  1  0  0  0  0
 15  2  1  0  0  0  0
 16  5  1  0  0  0  0
 16 15  1  0  0  0  0
 17  8  1  1  0  0  0
 17 13  1  0  0  0  0
 19 12  2  0  0  0  0
 20 21  1  0  0  0  0
 21 22  1  0  0  0  0
 22 23  1  0  0  0  0
 23 25  1  0  0  0  0
 25 24  1  6  0  0  0
 26 25  1  0  0  0  0
 27 26  1  0  0  0  0
 28 27  1  0  0  0  0
 29 30  1  0  0  0  0
 30 28  1  0  0  0  0
 31 29  1  0  0  0  0
 31 30  1  0  0  0  0
M  END
>  <MODEL>
7

>  <REMARK>
 VINA RESULT:      -6.9      3.299      7.060
  Name = 
  9 active torsions:
  status: ('A' for Active; 'I' for Inactive)
    1  A    between atoms: C_1  and  C_14
    2  A    between atoms: C_1  and  C_17
    3  A    between atoms: N_4  and  C_18
    4  A    between atoms: C_5  and  C_9
    5  A    between atoms: C_5  and  C_25
    6  A    between atoms: C_9  and  C_19
    7  A    between atoms: C_14  and  C_18
    8  A    between atoms: C_17  and  C_22
    9  A    between atoms: C_19  and  C_22
                            x       y       z     vdW  Elec       q    Type
                         _______ _______ _______ _____ _____    ______ ____

>  <TORSDO>
F 9

$$$$
=
 OpenBabel11062421253D

 31 34  0  0  1  0  0  0  0  0999 V2000
  191.2890  176.7990  148.1650 O   0  0  0  0  0  0  0  0  0  0  0  0
  191.0550  174.7760  145.2670 C   0  0  0  0  0  0  0  0  0  0  0  0
  189.2100  174.4490  143.6910 N   0  0  0  0  0  0  0  0  0  0  0  0
  191.3000  173.3130  143.2240 C   0  0  1  0  0  3  0  0  0  0  0  0
  191.4160  175.9950  147.2040 C   0  0  0  0  0  0  0  0  0  0  0  0
  192.1880  174.0660  142.2810 C   0  0  0  0  0  0  0  0  0  0  0  0
  193.2560  173.7530  145.3680 O   0  0  0  0  0  0  0  0  0  0  0  0
  188.9970  173.5430  142.6250 C   0  0  0  0  0  0  0  0  0  0  0  0
  193.4020  174.4020  142.5610 N   0  0  0  0  0  2  0  0  0  0  0  0
  189.2200  174.9290  146.9300 C   0  0  0  0  0  1  0  0  0  0  0  0
  190.5570  174.2640  144.1240 C   0  0  0  0  0  0  0  0  0  0  0  0
  192.3200  174.1650  139.8900 O   0  0  0  0  0  0  0  0  0  0  0  0
  190.6070  173.0130  140.9550 O   0  0  0  0  0  0  0  0  0  0  0  0
  190.3300  175.6890  146.2210 C   0  0  2  0  0  3  0  0  0  0  0  0
  192.3950  174.5510  145.8190 C   0  0  0  0  0  0  0  0  0  0  0  0
  192.5900  175.3010  146.9610 O   0  0  0  0  0  0  0  0  0  0  0  0
  190.1970  172.7260  142.2890 C   0  0  1  0  0  3  0  0  0  0  0  0
  187.9010  173.4520  142.0130 O   0  0  0  0  0  0  0  0  0  0  0  0
  191.7450  173.7870  140.9430 C   0  0  0  0  0  0  0  0  0  0  0  0
  188.4090  175.6520  143.8830 C   0  0  0  0  0  2  0  0  0  0  0  0
  188.8300  176.7230  142.8890 C   0  0  0  0  0  2  0  0  0  0  0  0
  187.8830  177.9130  142.9550 C   0  0  0  0  0  2  0  0  0  0  0  0
  186.4460  177.5160  142.6390 C   0  0  0  0  0  2  0  0  0  0  0  0
  184.1100  178.2900  142.2830 C   0  0  0  0  0  1  0  0  0  0  0  0
  185.5310  178.7320  142.5670 C   0  0  1  0  0  3  0  0  0  0  0  0
  185.5550  179.4780  143.8900 C   0  0  0  0  0  2  0  0  0  0  0  0
  184.2330  179.3130  144.6150 C   0  0  0  0  0  2  0  0  0  0  0  0
  184.4560  178.5600  145.9070 C   0  0  0  0  0  2  0  0  0  0  0  0
  186.2430  177.0240  146.6460 C   0  0  0  0  0  2  0  0  0  0  0  0
  185.9410  178.4290  146.1690 C   0  0  0  0  0  3  0  0  0  0  0  0
  186.1600  178.1610  147.6430 C   0  0  0  0  0  2  0  0  0  0  0  0
  2 15  1  0  0  0  0
  2 14  1  0  0  0  0
  3 20  1  0  0  0  0
  3 11  1  0  0  0  0
  4  6  1  6  0  0  0
  4 11  1  0  0  0  0
  5  1  2  0  0  0  0
  6  9  2  0  0  0  0
  7 15  2  0  0  0  0
  8  3  1  0  0  0  0
 11  2  2  0  0  0  0
 12 19  2  0  0  0  0
 14 10  1  1  0  0  0
 14  5  1  0  0  0  0
 15 16  1  0  0  0  0
 16  5  1  0  0  0  0
 17 13  1  6  0  0  0
 17  8  1  0  0  0  0
 17  4  1  0  0  0  0
 18  8  2  0  0  0  0
 19 13  1  0  0  0  0
 19  6  1  0  0  0  0
 21 22  1  0  0  0  0
 21 20  1  0  0  0  0
 23 22  1  0  0  0  0
 25 24  1  1  0  0  0
 25 23  1  0  0  0  0
 25 26  1  0  0  0  0
 26 27  1  0  0  0  0
 27 28  1  0  0  0  0
 28 30  1  0  0  0  0
 29 31  1  0  0  0  0
 30 29  1  0  0  0  0
 30 31  1  0  0  0  0
M  END
>  <MODEL>
8

>  <REMARK>
 VINA RESULT:      -6.7      3.064      7.546
  Name = 
  9 active torsions:
  status: ('A' for Active; 'I' for Inactive)
    1  A    between atoms: C_1  and  C_14
    2  A    between atoms: C_1  and  C_17
    3  A    between atoms: N_4  and  C_18
    4  A    between atoms: C_5  and  C_9
    5  A    between atoms: C_5  and  C_25
    6  A    between atoms: C_9  and  C_19
    7  A    between atoms: C_14  and  C_18
    8  A    between atoms: C_17  and  C_22
    9  A    between atoms: C_19  and  C_22
                            x       y       z     vdW  Elec       q    Type
                         _______ _______ _______ _____ _____    ______ ____

>  <TORSDO>
F 9

$$$$
=
 OpenBabel11062421253D

 31 34  0  0  1  0  0  0  0  0999 V2000
  185.9830  176.8340  148.0930 O   0  0  0  0  0  0  0  0  0  0  0  0
  185.7540  177.7280  144.6730 C   0  0  0  0  0  0  0  0  0  0  0  0
  186.6990  176.6700  142.6780 N   0  0  0  0  0  0  0  0  0  0  0  0
  185.2760  178.6060  142.3540 C   0  0  1  0  0  3  0  0  0  0  0  0
  185.7960  177.3480  146.9580 C   0  0  0  0  0  0  0  0  0  0  0  0
  183.8490  178.2530  142.0650 C   0  0  0  0  0  0  0  0  0  0  0  0
  184.4380  179.7550  144.9220 O   0  0  0  0  0  0  0  0  0  0  0  0
  186.7840  177.0640  141.3220 C   0  0  0  0  0  0  0  0  0  0  0  0
  182.8530  178.6830  142.7640 N   0  0  0  0  0  2  0  0  0  0  0  0
  187.8840  176.9960  145.7140 C   0  0  0  0  0  1  0  0  0  0  0  0
  185.8740  177.6320  143.3340 C   0  0  0  0  0  0  0  0  0  0  0  0
  182.6780  177.7150  140.0450 O   0  0  0  0  0  0  0  0  0  0  0  0
  184.9850  177.9840  140.0640 O   0  0  0  0  0  0  0  0  0  0  0  0
  186.3760  176.8060  145.6890 C   0  0  2  0  0  3  0  0  0  0  0  0
  185.0010  178.7440  145.4160 C   0  0  0  0  0  0  0  0  0  0  0  0
  185.0280  178.4860  146.7710 O   0  0  0  0  0  0  0  0  0  0  0  0
  186.0040  178.2950  141.0100 C   0  0  1  0  0  3  0  0  0  0  0  0
  187.4420  176.4220  140.4620 O   0  0  0  0  0  0  0  0  0  0  0  0
  183.7470  177.9520  140.6640 C   0  0  0  0  0  0  0  0  0  0  0  0
  186.9380  175.3020  143.1240 C   0  0  0  0  0  2  0  0  0  0  0  0
  188.3010  174.8290  142.6460 C   0  0  0  0  0  2  0  0  0  0  0  0
  189.3980  175.3430  143.5670 C   0  0  0  0  0  2  0  0  0  0  0  0
  190.6640  175.7040  142.7990 C   0  0  0  0  0  2  0  0  0  0  0  0
  189.9350  178.0770  142.6610 C   0  0  0  0  0  1  0  0  0  0  0  0
  191.0730  177.1520  143.0420 C   0  0  1  0  0  3  0  0  0  0  0  0
  191.3970  177.3580  144.5110 C   0  0  0  0  0  2  0  0  0  0  0  0
  192.7180  176.6980  144.8610 C   0  0  0  0  0  2  0  0  0  0  0  0
  192.6950  176.2540  146.3060 C   0  0  0  0  0  2  0  0  0  0  0  0
  191.1920  176.7950  148.1900 C   0  0  0  0  0  2  0  0  0  0  0  0
  191.2640  176.2020  146.7990 C   0  0  0  0  0  3  0  0  0  0  0  0
  191.1910  175.2920  148.0060 C   0  0  0  0  0  2  0  0  0  0  0  0
  2 15  1  0  0  0  0
  2 14  1  0  0  0  0
  3 20  1  0  0  0  0
  3 11  1  0  0  0  0
  4  6  1  6  0  0  0
  4 11  1  0  0  0  0
  5  1  2  0  0  0  0
  6  9  2  0  0  0  0
  7 15  2  0  0  0  0
  8  3  1  0  0  0  0
 11  2  2  0  0  0  0
 12 19  2  0  0  0  0
 13 19  1  0  0  0  0
 14 10  1  1  0  0  0
 14  5  1  0  0  0  0
 15 16  1  0  0  0  0
 16  5  1  0  0  0  0
 17 13  1  6  0  0  0
 17  8  1  0  0  0  0
 17  4  1  0  0  0  0
 18  8  2  0  0  0  0
 19  6  1  0  0  0  0
 21 20  1  0  0  0  0
 21 22  1  0  0  0  0
 23 25  1  0  0  0  0
 23 22  1  0  0  0  0
 25 24  1  1  0  0  0
 25 26  1  0  0  0  0
 26 27  1  0  0  0  0
 27 28  1  0  0  0  0
 28 30  1  0  0  0  0
 30 31  1  0  0  0  0
 30 29  1  0  0  0  0
 31 29  1  0  0  0  0
M  END
>  <MODEL>
9

>  <REMARK>
 VINA RESULT:      -6.7      1.528      4.413
  Name = 
  9 active torsions:
  status: ('A' for Active; 'I' for Inactive)
    1  A    between atoms: C_1  and  C_14
    2  A    between atoms: C_1  and  C_17
    3  A    between atoms: N_4  and  C_18
    4  A    between atoms: C_5  and  C_9
    5  A    between atoms: C_5  and  C_25
    6  A    between atoms: C_9  and  C_19
    7  A    between atoms: C_14  and  C_18
    8  A    between atoms: C_17  and  C_22
    9  A    between atoms: C_19  and  C_22
                            x       y       z     vdW  Elec       q    Type
                         _______ _______ _______ _____ _____    ______ ____

>  <TORSDO>
F 9

$$$$
