=
 OpenBabel11072408353D

 26 28  0  0  1  0  0  0  0  0999 V2000
  188.0140  175.7500  143.4740 O   0  0  0  0  0  1  0  0  0  0  0  0
  187.9710  176.4040  144.7070 C   0  0  2  0  0  3  0  0  0  0  0  0
  185.0390  177.4630  146.8080 C   0  0  0  0  0  3  0  0  0  0  0  0
  184.1530  178.4560  146.1640 C   0  0  0  0  0  3  0  0  0  0  0  0
  186.6510  178.4820  144.5450 N   0  0  0  0  0  2  0  0  0  0  0  0
  185.3720  178.8780  143.9460 C   0  0  2  0  0  3  0  0  0  0  0  0
  184.2870  179.0630  144.9800 C   0  0  0  0  0  3  0  0  0  0  0  0
  186.6060  177.0650  144.8950 C   0  0  2  0  0  3  0  0  0  0  0  0
  186.1140  176.8710  146.2900 C   0  0  0  0  0  3  0  0  0  0  0  0
  184.8010  178.2990  140.5340 C   0  0  0  0  0  2  0  0  0  0  0  0
  183.5010  178.0460  141.1170 N   0  0  0  0  0  2  0  0  0  0  0  0
  185.7590  178.2960  141.6830 C   0  0  0  0  0  2  0  0  0  0  0  0
  184.9600  177.9810  142.8540 N   0  0  2  0  0  0  0  0  0  0  0  0
  183.6360  178.3030  142.4940 N   0  0  0  0  0  2  0  0  0  0  0  0
  189.1140  177.4100  144.8050 C   0  0  0  0  0  2  0  0  0  0  0  0
  192.9240  176.0210  143.6910 C   0  0  0  0  0  2  0  0  0  0  0  0
  193.8700  175.6910  144.7570 N   0  0  0  0  0  0  0  0  0  0  0  0
  191.4190  176.7910  145.5070 C   0  0  0  0  0  0  0  0  0  0  0  0
  195.2650  175.4610  144.4830 C   0  0  0  0  0  0  0  0  0  0  0  0
  193.3140  175.2920  146.0510 C   0  0  0  0  0  2  0  0  0  0  0  0
  192.3760  176.3750  146.5810 C   0  0  0  0  0  2  0  0  0  0  0  0
  195.9470  174.7580  145.2760 O   0  0  0  0  0  0  0  0  0  0  0  0
  190.1260  176.9480  145.8060 C   0  0  0  0  0  3  0  0  0  0  0  0
  191.9740  177.1250  144.1490 C   0  0  0  0  0  2  0  0  0  0  0  0
  195.9530  176.0350  143.3140 C   0  0  0  0  0  3  0  0  0  0  0  0
  196.8210  176.9860  143.4200 N   0  0  0  0  0  2  0  0  0  0  0  0
  2  1  1  6  0  0  0
  2 15  1  0  0  0  0
  4  3  1  0  0  0  0
  5  8  1  0  0  0  0
  6  5  1  0  0  0  0
  6  7  1  1  0  0  0
  7  4  2  0  0  0  0
  8  2  1  1  0  0  0
  8  9  1  0  0  0  0
  9  3  2  0  0  0  0
 10 11  1  0  0  0  0
 10 12  1  0  0  0  0
 11 14  1  0  0  0  0
 13 12  1  6  0  0  0
 13  6  1  0  0  0  0
 14 13  1  0  0  0  0
 15 23  1  0  0  0  0
 16 24  1  0  0  0  0
 16 17  1  0  0  0  0
 17 20  1  0  0  0  0
 18 23  2  0  0  0  0
 18 21  1  0  0  0  0
 19 17  1  0  0  0  0
 19 22  2  0  0  0  0
 20 21  1  0  0  0  0
 24 18  1  0  0  0  0
 25 26  2  0  0  0  0
 25 19  1  0  0  0  0
M  END
>  <MODEL>
1

>  <REMARK>
 VINA RESULT:      -7.9      0.000      0.000
  Name = 
  5 active torsions:
  status: ('A' for Active; 'I' for Inactive)
    1  A    between atoms: C_2  and  C_15
    2  A    between atoms: C_6  and  C_14
    3  A    between atoms: C_6  and  C_25
    4  A    between atoms: C_10  and  N_22
    5  A    between atoms: C_14  and  C_17
                            x       y       z     vdW  Elec       q    Type
                         _______ _______ _______ _____ _____    ______ ____

>  <TORSDO>
F 5

$$$$
=
 OpenBabel11072408353D

 26 28  0  0  1  0  0  0  0  0999 V2000
  184.7330  176.7690  146.4460 O   0  0  0  0  0  1  0  0  0  0  0  0
  185.5330  177.8150  145.9820 C   0  0  2  0  0  3  0  0  0  0  0  0
  184.3230  178.3090  142.4570 C   0  0  0  0  0  3  0  0  0  0  0  0
  185.3750  178.1870  141.4270 C   0  0  0  0  0  3  0  0  0  0  0  0
  186.8410  178.4860  144.0010 N   0  0  0  0  0  2  0  0  0  0  0  0
  187.4660  177.8000  142.8640 C   0  0  2  0  0  3  0  0  0  0  0  0
  186.6900  177.9890  141.5830 C   0  0  0  0  0  3  0  0  0  0  0  0
  185.6940  177.7110  144.4660 C   0  0  2  0  0  3  0  0  0  0  0  0
  184.4420  178.1330  143.7730 C   0  0  0  0  0  3  0  0  0  0  0  0
  189.2820  174.8690  142.2190 C   0  0  0  0  0  2  0  0  0  0  0  0
  187.9190  174.4580  141.9570 N   0  0  0  0  0  2  0  0  0  0  0  0
  189.1710  176.1590  142.9690 C   0  0  0  0  0  2  0  0  0  0  0  0
  187.7470  176.3830  143.1470 N   0  0  2  0  0  0  0  0  0  0  0  0
  187.1240  175.6030  142.1530 N   0  0  0  0  0  2  0  0  0  0  0  0
  186.8770  177.8040  146.7040 C   0  0  0  0  0  2  0  0  0  0  0  0
  190.9130  176.8880  145.9570 C   0  0  0  0  0  2  0  0  0  0  0  0
  191.3490  175.5070  146.1600 N   0  0  0  0  0  0  0  0  0  0  0  0
  188.7200  176.1380  146.8420 C   0  0  0  0  0  0  0  0  0  0  0  0
  192.7450  175.1530  146.1830 C   0  0  0  0  0  0  0  0  0  0  0  0
  190.3400  174.4550  146.0220 C   0  0  0  0  0  2  0  0  0  0  0  0
  189.1710  174.7160  146.9680 C   0  0  0  0  0  2  0  0  0  0  0  0
  193.0920  173.9750  145.9010 O   0  0  0  0  0  0  0  0  0  0  0  0
  187.4120  176.4080  146.7800 C   0  0  0  0  0  3  0  0  0  0  0  0
  189.7600  177.2230  146.9010 C   0  0  0  0  0  2  0  0  0  0  0  0
  193.8040  176.1090  146.5490 C   0  0  0  0  0  3  0  0  0  0  0  0
  194.5640  176.6680  145.6660 N   0  0  0  0  0  2  0  0  0  0  0  0
  2  1  1  1  0  0  0
  2 15  1  0  0  0  0
  3  9  2  0  0  0  0
  4  7  2  0  0  0  0
  4  3  1  0  0  0  0
  5  8  1  0  0  0  0
  6  7  1  6  0  0  0
  6 13  1  0  0  0  0
  6  5  1  0  0  0  0
  8  2  1  1  0  0  0
  9  8  1  0  0  0  0
 10 12  1  0  0  0  0
 11 14  1  0  0  0  0
 11 10  1  0  0  0  0
 13 12  1  6  0  0  0
 14 13  1  0  0  0  0
 15 23  1  0  0  0  0
 16 17  1  0  0  0  0
 16 24  1  0  0  0  0
 17 19  1  0  0  0  0
 18 24  1  0  0  0  0
 18 21  1  0  0  0  0
 19 25  1  0  0  0  0
 20 17  1  0  0  0  0
 20 21  1  0  0  0  0
 22 19  2  0  0  0  0
 23 18  2  0  0  0  0
 26 25  2  0  0  0  0
M  END
>  <MODEL>
2

>  <REMARK>
 VINA RESULT:      -7.5      2.298      3.679
  Name = 
  5 active torsions:
  status: ('A' for Active; 'I' for Inactive)
    1  A    between atoms: C_2  and  C_15
    2  A    between atoms: C_6  and  C_14
    3  A    between atoms: C_6  and  C_25
    4  A    between atoms: C_10  and  N_22
    5  A    between atoms: C_14  and  C_17
                            x       y       z     vdW  Elec       q    Type
                         _______ _______ _______ _____ _____    ______ ____

>  <TORSDO>
F 5

$$$$
=
 OpenBabel11072408353D

 26 28  0  0  1  0  0  0  0  0999 V2000
  185.1840  177.2910  142.3940 O   0  0  0  0  0  1  0  0  0  0  0  0
  185.9990  176.5330  143.2350 C   0  0  2  0  0  3  0  0  0  0  0  0
  185.3630  179.3750  145.6130 C   0  0  0  0  0  3  0  0  0  0  0  0
  185.8800  179.1550  146.9800 C   0  0  0  0  0  3  0  0  0  0  0  0
  185.9080  176.4680  145.7000 N   0  0  0  0  0  2  0  0  0  0  0  0
  186.8270  176.7770  146.8010 C   0  0  2  0  0  3  0  0  0  0  0  0
  186.4790  178.0740  147.4920 C   0  0  0  0  0  3  0  0  0  0  0  0
  186.2440  177.2900  144.5410 C   0  0  2  0  0  3  0  0  0  0  0  0
  185.4860  178.5740  144.5540 C   0  0  0  0  0  3  0  0  0  0  0  0
  190.0850  175.5560  147.2500 C   0  0  0  0  0  2  0  0  0  0  0  0
  190.2660  176.9860  147.3740 N   0  0  0  0  0  2  0  0  0  0  0  0
  188.7320  175.3780  146.6360 C   0  0  0  0  0  2  0  0  0  0  0  0
  188.2390  176.7220  146.3880 N   0  0  2  0  0  0  0  0  0  0  0  0
  188.9830  177.5520  147.2490 N   0  0  0  0  0  2  0  0  0  0  0  0
  187.3020  176.1820  142.5230 C   0  0  0  0  0  2  0  0  0  0  0  0
  191.1780  175.1240  143.7670 C   0  0  0  0  0  2  0  0  0  0  0  0
  192.1550  176.1980  143.9450 N   0  0  0  0  0  0  0  0  0  0  0  0
  189.6490  176.8930  142.9370 C   0  0  0  0  0  0  0  0  0  0  0  0
  193.5580  175.9200  144.1120 C   0  0  0  0  0  0  0  0  0  0  0  0
  191.6410  177.5310  144.2640 C   0  0  0  0  0  2  0  0  0  0  0  0
  190.6440  177.9820  143.2000 C   0  0  0  0  0  2  0  0  0  0  0  0
  194.2920  176.7580  144.7020 O   0  0  0  0  0  0  0  0  0  0  0  0
  188.3530  177.2010  142.8340 C   0  0  0  0  0  3  0  0  0  0  0  0
  190.1660  175.5030  142.6880 C   0  0  0  0  0  2  0  0  0  0  0  0
  194.1950  174.6940  143.6010 C   0  0  0  0  0  3  0  0  0  0  0  0
  194.9840  174.7010  142.5780 N   0  0  0  0  0  2  0  0  0  0  0  0
  2  1  1  6  0  0  0
  3  4  1  0  0  0  0
  4  7  2  0  0  0  0
  5  6  1  0  0  0  0
  6  7  1  6  0  0  0
  8  2  1  6  0  0  0
  8  9  1  0  0  0  0
  8  5  1  0  0  0  0
  9  3  2  0  0  0  0
 10 11  1  0  0  0  0
 12 10  1  0  0  0  0
 13 12  1  1  0  0  0
 13  6  1  0  0  0  0
 13 14  1  0  0  0  0
 14 11  1  0  0  0  0
 15 23  1  0  0  0  0
 15  2  1  0  0  0  0
 16 17  1  0  0  0  0
 17 19  1  0  0  0  0
 17 20  1  0  0  0  0
 18 21  1  0  0  0  0
 19 22  2  0  0  0  0
 21 20  1  0  0  0  0
 23 18  2  0  0  0  0
 24 18  1  0  0  0  0
 24 16  1  0  0  0  0
 25 19  1  0  0  0  0
 26 25  2  0  0  0  0
M  END
>  <MODEL>
3

>  <REMARK>
 VINA RESULT:      -7.3      2.451      4.167
  Name = 
  5 active torsions:
  status: ('A' for Active; 'I' for Inactive)
    1  A    between atoms: C_2  and  C_15
    2  A    between atoms: C_6  and  C_14
    3  A    between atoms: C_6  and  C_25
    4  A    between atoms: C_10  and  N_22
    5  A    between atoms: C_14  and  C_17
                            x       y       z     vdW  Elec       q    Type
                         _______ _______ _______ _____ _____    ______ ____

>  <TORSDO>
F 5

$$$$
=
 OpenBabel11072408353D

 26 28  0  0  1  0  0  0  0  0999 V2000
  189.2090  177.5180  147.1530 O   0  0  0  0  0  1  0  0  0  0  0  0
  189.8380  177.3800  145.9150 C   0  0  2  0  0  3  0  0  0  0  0  0
  188.8920  177.8850  142.3110 C   0  0  0  0  0  3  0  0  0  0  0  0
  187.4740  177.6020  142.0060 C   0  0  0  0  0  3  0  0  0  0  0  0
  187.9510  176.3810  144.6790 N   0  0  0  0  0  2  0  0  0  0  0  0
  186.6020  176.8040  144.2840 C   0  0  2  0  0  3  0  0  0  0  0  0
  186.5130  177.1390  142.8140 C   0  0  0  0  0  3  0  0  0  0  0  0
  188.8150  177.5530  144.7920 C   0  0  2  0  0  3  0  0  0  0  0  0
  189.4960  177.8450  143.4980 C   0  0  0  0  0  3  0  0  0  0  0  0
  184.2670  177.9680  146.6290 C   0  0  0  0  0  2  0  0  0  0  0  0
  184.0700  178.8700  145.5150 N   0  0  0  0  0  2  0  0  0  0  0  0
  185.5720  177.2860  146.3620 C   0  0  0  0  0  2  0  0  0  0  0  0
  186.0780  177.8820  145.1380 N   0  0  2  0  0  0  0  0  0  0  0  0
  184.9490  178.4380  144.5040 N   0  0  0  0  0  2  0  0  0  0  0  0
  190.5520  176.0340  145.8390 C   0  0  0  0  0  2  0  0  0  0  0  0
  193.8480  175.7920  143.2380 C   0  0  0  0  0  2  0  0  0  0  0  0
  195.1770  176.0410  143.7950 N   0  0  0  0  0  0  0  0  0  0  0  0
  192.9880  176.3930  145.4860 C   0  0  0  0  0  0  0  0  0  0  0  0
  196.3250  176.2370  142.9460 C   0  0  0  0  0  0  0  0  0  0  0  0
  195.3710  175.7740  145.2210 C   0  0  0  0  0  2  0  0  0  0  0  0
  194.3650  176.5680  146.0490 C   0  0  0  0  0  2  0  0  0  0  0  0
  197.4770  175.9950  143.3950 O   0  0  0  0  0  0  0  0  0  0  0  0
  191.9640  176.1700  146.3150 C   0  0  0  0  0  3  0  0  0  0  0  0
  192.7950  176.5860  144.0070 C   0  0  0  0  0  2  0  0  0  0  0  0
  196.2200  176.7360  141.5650 C   0  0  0  0  0  3  0  0  0  0  0  0
  196.5420  176.0140  140.5430 N   0  0  0  0  0  2  0  0  0  0  0  0
  2  1  1  1  0  0  0
  3  9  2  0  0  0  0
  4  3  1  0  0  0  0
  4  7  2  0  0  0  0
  5  8  1  0  0  0  0
  6  7  1  6  0  0  0
  6  5  1  0  0  0  0
  6 13  1  0  0  0  0
  8  2  1  1  0  0  0
  9  8  1  0  0  0  0
 11 10  1  0  0  0  0
 12 10  1  0  0  0  0
 13 12  1  1  0  0  0
 14 13  1  0  0  0  0
 14 11  1  0  0  0  0
 15  2  1  0  0  0  0
 15 23  1  0  0  0  0
 16 17  1  0  0  0  0
 16 24  1  0  0  0  0
 17 20  1  0  0  0  0
 18 21  1  0  0  0  0
 18 23  2  0  0  0  0
 19 22  2  0  0  0  0
 19 17  1  0  0  0  0
 20 21  1  0  0  0  0
 24 18  1  0  0  0  0
 25 19  1  0  0  0  0
 26 25  2  0  0  0  0
M  END
>  <MODEL>
4

>  <REMARK>
 VINA RESULT:      -7.3      1.836      3.297
  Name = 
  5 active torsions:
  status: ('A' for Active; 'I' for Inactive)
    1  A    between atoms: C_2  and  C_15
    2  A    between atoms: C_6  and  C_14
    3  A    between atoms: C_6  and  C_25
    4  A    between atoms: C_10  and  N_22
    5  A    between atoms: C_14  and  C_17
                            x       y       z     vdW  Elec       q    Type
                         _______ _______ _______ _____ _____    ______ ____

>  <TORSDO>
F 5

$$$$
=
 OpenBabel11072408353D

 26 28  0  0  1  0  0  0  0  0999 V2000
  188.6040  175.1160  145.0760 O   0  0  0  0  0  1  0  0  0  0  0  0
  188.4110  176.2340  145.8890 C   0  0  2  0  0  3  0  0  0  0  0  0
  184.9480  177.4270  146.7410 C   0  0  0  0  0  3  0  0  0  0  0  0
  184.3730  178.3760  145.7660 C   0  0  0  0  0  3  0  0  0  0  0  0
  187.2830  178.2980  145.1450 N   0  0  0  0  0  2  0  0  0  0  0  0
  186.3100  178.6560  144.1070 C   0  0  2  0  0  3  0  0  0  0  0  0
  184.9330  178.9070  144.6730 C   0  0  0  0  0  3  0  0  0  0  0  0
  187.0830  176.9060  145.5390 C   0  0  2  0  0  3  0  0  0  0  0  0
  186.1240  176.8010  146.6760 C   0  0  0  0  0  3  0  0  0  0  0  0
  186.7930  177.9140  140.7120 C   0  0  0  0  0  2  0  0  0  0  0  0
  185.3990  177.5800  140.9110 N   0  0  0  0  0  2  0  0  0  0  0  0
  187.3750  178.0270  142.0860 C   0  0  0  0  0  2  0  0  0  0  0  0
  186.2920  177.6910  142.9950 N   0  0  2  0  0  0  0  0  0  0  0  0
  185.1120  177.8950  142.2520 N   0  0  0  0  0  2  0  0  0  0  0  0
  189.5920  177.1890  145.7520 C   0  0  0  0  0  2  0  0  0  0  0  0
  193.2410  176.1650  143.9300 C   0  0  0  0  0  2  0  0  0  0  0  0
  194.3520  175.7750  144.7980 N   0  0  0  0  0  0  0  0  0  0  0  0
  192.0010  176.6340  146.0270 C   0  0  0  0  0  0  0  0  0  0  0  0
  195.6970  175.6610  144.2950 C   0  0  0  0  0  0  0  0  0  0  0  0
  194.0190  175.2000  146.1020 C   0  0  0  0  0  2  0  0  0  0  0  0
  193.1280  176.1580  146.8900 C   0  0  0  0  0  2  0  0  0  0  0  0
  196.5210  174.9150  144.8880 O   0  0  0  0  0  0  0  0  0  0  0  0
  190.7640  176.6790  146.5300 C   0  0  0  0  0  3  0  0  0  0  0  0
  192.3270  177.1520  144.6520 C   0  0  0  0  0  2  0  0  0  0  0  0
  196.1730  176.4020  143.1150 C   0  0  0  0  0  3  0  0  0  0  0  0
  197.4220  176.4570  142.7910 N   0  0  0  0  0  2  0  0  0  0  0  0
  2  1  1  6  0  0  0
  4  3  1  0  0  0  0
  5  8  1  0  0  0  0
  6  7  1  1  0  0  0
  6  5  1  0  0  0  0
  7  4  2  0  0  0  0
  8  2  1  1  0  0  0
  8  9  1  0  0  0  0
  9  3  2  0  0  0  0
 10 11  1  0  0  0  0
 10 12  1  0  0  0  0
 11 14  1  0  0  0  0
 13 12  1  6  0  0  0
 13  6  1  0  0  0  0
 14 13  1  0  0  0  0
 15  2  1  0  0  0  0
 15 23  1  0  0  0  0
 16 24  1  0  0  0  0
 16 17  1  0  0  0  0
 17 20  1  0  0  0  0
 18 23  2  0  0  0  0
 18 21  1  0  0  0  0
 19 17  1  0  0  0  0
 19 22  2  0  0  0  0
 20 21  1  0  0  0  0
 24 18  1  0  0  0  0
 25 19  1  0  0  0  0
 26 25  2  0  0  0  0
M  END
>  <MODEL>
5

>  <REMARK>
 VINA RESULT:      -7.1      1.019      1.079
  Name = 
  5 active torsions:
  status: ('A' for Active; 'I' for Inactive)
    1  A    between atoms: C_2  and  C_15
    2  A    between atoms: C_6  and  C_14
    3  A    between atoms: C_6  and  C_25
    4  A    between atoms: C_10  and  N_22
    5  A    between atoms: C_14  and  C_17
                            x       y       z     vdW  Elec       q    Type
                         _______ _______ _______ _____ _____    ______ ____

>  <TORSDO>
F 5

$$$$
=
 OpenBabel11072408353D

 26 28  0  0  1  0  0  0  0  0999 V2000
  190.6980  175.2740  147.9750 O   0  0  0  0  0  1  0  0  0  0  0  0
  189.7930  175.3470  146.9140 C   0  0  2  0  0  3  0  0  0  0  0  0
  189.9640  173.2320  143.8090 C   0  0  0  0  0  3  0  0  0  0  0  0
  190.9550  173.6890  142.8130 C   0  0  0  0  0  3  0  0  0  0  0  0
  190.6160  175.9850  144.6770 N   0  0  0  0  0  2  0  0  0  0  0  0
  191.8630  175.8180  143.9210 C   0  0  2  0  0  3  0  0  0  0  0  0
  191.7430  174.7710  142.8400 C   0  0  0  0  0  3  0  0  0  0  0  0
  190.4700  174.8830  145.6240 C   0  0  2  0  0  3  0  0  0  0  0  0
  189.7210  173.7460  145.0150 C   0  0  0  0  0  3  0  0  0  0  0  0
  194.7020  177.0320  145.5860 C   0  0  0  0  0  2  0  0  0  0  0  0
  195.2550  176.0060  144.7280 N   0  0  0  0  0  2  0  0  0  0  0  0
  193.2260  176.7850  145.6000 C   0  0  0  0  0  2  0  0  0  0  0  0
  193.0250  175.5920  144.7960 N   0  0  2  0  0  0  0  0  0  0  0  0
  194.1740  175.4950  143.9860 N   0  0  0  0  0  2  0  0  0  0  0  0
  189.2410  176.7630  146.7950 C   0  0  0  0  0  2  0  0  0  0  0  0
  186.7180  178.2740  143.7880 C   0  0  0  0  0  2  0  0  0  0  0  0
  185.2740  178.1150  143.9640 N   0  0  0  0  0  0  0  0  0  0  0  0
  186.9380  176.9410  145.8690 C   0  0  0  0  0  0  0  0  0  0  0  0
  184.3520  178.3600  142.8850 C   0  0  0  0  0  0  0  0  0  0  0  0
  184.7700  178.0110  145.3340 C   0  0  0  0  0  2  0  0  0  0  0  0
  185.4560  176.8590  146.0640 C   0  0  0  0  0  2  0  0  0  0  0  0
  183.1570  178.6660  143.1460 O   0  0  0  0  0  0  0  0  0  0  0  0
  187.7490  176.7480  146.9140 C   0  0  0  0  0  3  0  0  0  0  0  0
  187.4630  177.1300  144.4710 C   0  0  0  0  0  2  0  0  0  0  0  0
  184.7350  178.2490  141.4670 C   0  0  0  0  0  3  0  0  0  0  0  0
  183.8670  178.2960  140.5110 N   0  0  0  0  0  2  0  0  0  0  0  0
  2  1  1  1  0  0  0
  3  9  2  0  0  0  0
  4  7  2  0  0  0  0
  4  3  1  0  0  0  0
  5  8  1  0  0  0  0
  6  7  1  6  0  0  0
  6  5  1  0  0  0  0
  6 13  1  0  0  0  0
  8  2  1  1  0  0  0
  9  8  1  0  0  0  0
 10 12  1  0  0  0  0
 11 10  1  0  0  0  0
 13 12  1  1  0  0  0
 14 11  1  0  0  0  0
 14 13  1  0  0  0  0
 15 23  1  0  0  0  0
 15  2  1  0  0  0  0
 16 17  1  0  0  0  0
 16 24  1  0  0  0  0
 17 20  1  0  0  0  0
 18 21  1  0  0  0  0
 18 23  2  0  0  0  0
 19 22  2  0  0  0  0
 19 17  1  0  0  0  0
 20 21  1  0  0  0  0
 24 18  1  0  0  0  0
 25 19  1  0  0  0  0
 26 25  2  0  0  0  0
M  END
>  <MODEL>
6

>  <REMARK>
 VINA RESULT:      -7.1      2.353      8.425
  Name = 
  5 active torsions:
  status: ('A' for Active; 'I' for Inactive)
    1  A    between atoms: C_2  and  C_15
    2  A    between atoms: C_6  and  C_14
    3  A    between atoms: C_6  and  C_25
    4  A    between atoms: C_10  and  N_22
    5  A    between atoms: C_14  and  C_17
                            x       y       z     vdW  Elec       q    Type
                         _______ _______ _______ _____ _____    ______ ____

>  <TORSDO>
F 5

$$$$
=
 OpenBabel11072408353D

 26 28  0  0  1  0  0  0  0  0999 V2000
  190.7380  176.7850  147.7920 O   0  0  0  0  0  1  0  0  0  0  0  0
  191.0930  175.4910  147.4060 C   0  0  2  0  0  3  0  0  0  0  0  0
  194.4820  176.6030  146.2160 C   0  0  0  0  0  3  0  0  0  0  0  0
  194.9900  175.8620  145.0430 C   0  0  0  0  0  3  0  0  0  0  0  0
  192.7380  174.2160  146.0810 N   0  0  0  0  0  2  0  0  0  0  0  0
  193.1270  174.1390  144.6680 C   0  0  2  0  0  3  0  0  0  0  0  0
  194.4430  174.8260  144.3970 C   0  0  0  0  0  3  0  0  0  0  0  0
  192.2150  175.5490  146.3690 C   0  0  2  0  0  3  0  0  0  0  0  0
  193.3010  176.4670  146.8190 C   0  0  0  0  0  3  0  0  0  0  0  0
  190.8220  173.4880  142.1050 C   0  0  0  0  0  2  0  0  0  0  0  0
  191.6360  174.5410  141.5360 N   0  0  0  0  0  2  0  0  0  0  0  0
  191.1290  173.4970  143.5700 C   0  0  0  0  0  2  0  0  0  0  0  0
  192.0580  174.5960  143.7650 N   0  0  2  0  0  0  0  0  0  0  0  0
  192.6230  174.8300  142.4960 N   0  0  0  0  0  2  0  0  0  0  0  0
  189.8670  174.7470  146.8840 C   0  0  0  0  0  2  0  0  0  0  0  0
  188.0400  177.5510  144.3370 C   0  0  0  0  0  2  0  0  0  0  0  0
  186.7660  178.1320  144.7620 N   0  0  0  0  0  0  0  0  0  0  0  0
  187.8690  176.1350  146.3680 C   0  0  0  0  0  0  0  0  0  0  0  0
  185.9440  178.8910  143.8550 C   0  0  0  0  0  0  0  0  0  0  0  0
  186.5000  178.1930  146.2010 C   0  0  0  0  0  2  0  0  0  0  0  0
  186.6040  176.8000  146.8180 C   0  0  0  0  0  2  0  0  0  0  0  0
  185.1320  179.7380  144.3140 O   0  0  0  0  0  0  0  0  0  0  0  0
  188.6180  175.4800  147.2600 C   0  0  0  0  0  3  0  0  0  0  0  0
  188.1910  176.1390  144.8980 C   0  0  0  0  0  2  0  0  0  0  0  0
  185.9900  178.7090  142.3950 C   0  0  0  0  0  3  0  0  0  0  0  0
  185.2520  177.8430  141.7830 N   0  0  0  0  0  2  0  0  0  0  0  0
  2  1  1  6  0  0  0
  3  9  2  0  0  0  0
  4  3  1  0  0  0  0
  5  8  1  0  0  0  0
  6  7  1  1  0  0  0
  6  5  1  0  0  0  0
  7  4  2  0  0  0  0
  8  9  1  0  0  0  0
  8  2  1  1  0  0  0
 10 12  1  0  0  0  0
 11 10  1  0  0  0  0
 11 14  1  0  0  0  0
 13 12  1  6  0  0  0
 13  6  1  0  0  0  0
 14 13  1  0  0  0  0
 15 23  1  0  0  0  0
 15  2  1  0  0  0  0
 16 17  1  0  0  0  0
 16 24  1  0  0  0  0
 17 20  1  0  0  0  0
 18 21  1  0  0  0  0
 18 23  2  0  0  0  0
 19 22  2  0  0  0  0
 19 17  1  0  0  0  0
 20 21  1  0  0  0  0
 24 18  1  0  0  0  0
 25 19  1  0  0  0  0
 26 25  2  0  0  0  0
M  END
>  <MODEL>
7

>  <REMARK>
 VINA RESULT:      -7.0      2.393      8.010
  Name = 
  5 active torsions:
  status: ('A' for Active; 'I' for Inactive)
    1  A    between atoms: C_2  and  C_15
    2  A    between atoms: C_6  and  C_14
    3  A    between atoms: C_6  and  C_25
    4  A    between atoms: C_10  and  N_22
    5  A    between atoms: C_14  and  C_17
                            x       y       z     vdW  Elec       q    Type
                         _______ _______ _______ _____ _____    ______ ____

>  <TORSDO>
F 5

$$$$
=
 OpenBabel11072408353D

 26 28  0  0  1  0  0  0  0  0999 V2000
  188.2070  175.8810  141.7990 O   0  0  0  0  0  1  0  0  0  0  0  0
  187.9060  175.6380  143.1400 C   0  0  2  0  0  3  0  0  0  0  0  0
  186.6560  177.8870  145.8820 C   0  0  0  0  0  3  0  0  0  0  0  0
  185.8630  179.0410  145.4100 C   0  0  0  0  0  3  0  0  0  0  0  0
  187.2460  178.0100  142.9850 N   0  0  0  0  0  2  0  0  0  0  0  0
  185.9860  178.7520  142.8640 C   0  0  2  0  0  3  0  0  0  0  0  0
  185.5880  179.4210  144.1570 C   0  0  0  0  0  3  0  0  0  0  0  0
  187.0030  176.7480  143.6780 C   0  0  2  0  0  3  0  0  0  0  0  0
  187.1780  176.9010  145.1510 C   0  0  0  0  0  3  0  0  0  0  0  0
  183.4230  178.2930  140.5130 C   0  0  0  0  0  2  0  0  0  0  0  0
  182.7130  178.2130  141.7710 N   0  0  0  0  0  2  0  0  0  0  0  0
  184.8710  178.1470  140.8630 C   0  0  0  0  0  2  0  0  0  0  0  0
  184.9020  177.9310  142.2990 N   0  0  2  0  0  0  0  0  0  0  0  0
  183.6750  178.4340  142.7740 N   0  0  0  0  0  2  0  0  0  0  0  0
  189.1930  175.5020  143.9470 C   0  0  0  0  0  2  0  0  0  0  0  0
  193.1420  175.2300  145.3680 C   0  0  0  0  0  2  0  0  0  0  0  0
  194.2280  175.4130  144.4060 N   0  0  0  0  0  0  0  0  0  0  0  0
  191.6210  175.4050  143.4160 C   0  0  0  0  0  0  0  0  0  0  0  0
  195.5910  175.0840  144.7360 C   0  0  0  0  0  0  0  0  0  0  0  0
  193.9490  176.2270  143.2220 C   0  0  0  0  0  2  0  0  0  0  0  0
  192.7480  175.6660  142.4640 C   0  0  0  0  0  2  0  0  0  0  0  0
  196.5330  175.6480  144.1180 O   0  0  0  0  0  0  0  0  0  0  0  0
  190.3810  175.7710  143.0780 C   0  0  0  0  0  3  0  0  0  0  0  0
  191.9160  174.6390  144.6760 C   0  0  0  0  0  2  0  0  0  0  0  0
  195.9450  174.0890  145.7620 C   0  0  0  0  0  3  0  0  0  0  0  0
  197.1710  173.7910  146.0420 N   0  0  0  0  0  2  0  0  0  0  0  0
  2  1  1  6  0  0  0
  2 15  1  0  0  0  0
  4  3  1  0  0  0  0
  5  8  1  0  0  0  0
  6  5  1  0  0  0  0
  6  7  1  1  0  0  0
  7  4  2  0  0  0  0
  8  2  1  6  0  0  0
  8  9  1  0  0  0  0
  9  3  2  0  0  0  0
 10 12  1  0  0  0  0
 10 11  1  0  0  0  0
 11 14  1  0  0  0  0
 13 12  1  6  0  0  0
 13 14  1  0  0  0  0
 13  6  1  0  0  0  0
 17 19  1  0  0  0  0
 17 16  1  0  0  0  0
 18 24  1  0  0  0  0
 19 25  1  0  0  0  0
 20 17  1  0  0  0  0
 21 20  1  0  0  0  0
 21 18  1  0  0  0  0
 22 19  2  0  0  0  0
 23 18  2  0  0  0  0
 23 15  1  0  0  0  0
 24 16  1  0  0  0  0
 25 26  2  0  0  0  0
M  END
>  <MODEL>
8

>  <REMARK>
 VINA RESULT:      -6.9      1.562      2.113
  Name = 
  5 active torsions:
  status: ('A' for Active; 'I' for Inactive)
    1  A    between atoms: C_2  and  C_15
    2  A    between atoms: C_6  and  C_14
    3  A    between atoms: C_6  and  C_25
    4  A    between atoms: C_10  and  N_22
    5  A    between atoms: C_14  and  C_17
                            x       y       z     vdW  Elec       q    Type
                         _______ _______ _______ _____ _____    ______ ____

>  <TORSDO>
F 5

$$$$
=
 OpenBabel11072408353D

 26 28  0  0  1  0  0  0  0  0999 V2000
  187.7780  176.0020  147.1440 O   0  0  0  0  0  1  0  0  0  0  0  0
  188.9210  176.6860  146.7270 C   0  0  2  0  0  3  0  0  0  0  0  0
  190.0800  177.9120  143.3660 C   0  0  0  0  0  3  0  0  0  0  0  0
  188.9940  178.1300  142.3880 C   0  0  0  0  0  3  0  0  0  0  0  0
  187.7700  176.4950  144.5530 N   0  0  0  0  0  2  0  0  0  0  0  0
  186.9360  177.3660  143.7170 C   0  0  2  0  0  3  0  0  0  0  0  0
  187.6830  177.8940  142.5160 C   0  0  0  0  0  3  0  0  0  0  0  0
  188.6780  177.3120  145.3530 C   0  0  2  0  0  3  0  0  0  0  0  0
  189.9690  177.5360  144.6400 C   0  0  0  0  0  3  0  0  0  0  0  0
  184.0690  178.7590  145.1800 C   0  0  0  0  0  2  0  0  0  0  0  0
  184.4850  179.7940  144.2580 N   0  0  0  0  0  2  0  0  0  0  0  0
  185.2440  177.8420  145.3050 C   0  0  0  0  0  2  0  0  0  0  0  0
  186.2900  178.4380  144.4910 N   0  0  2  0  0  0  0  0  0  0  0  0
  185.6170  179.2880  143.5920 N   0  0  0  0  0  2  0  0  0  0  0  0
  190.1210  175.7450  146.7240 C   0  0  0  0  0  2  0  0  0  0  0  0
  190.7060  174.1520  142.8760 C   0  0  0  0  0  2  0  0  0  0  0  0
  190.3420  172.7520  142.6540 N   0  0  0  0  0  0  0  0  0  0  0  0
  190.1280  173.7390  145.2540 C   0  0  0  0  0  0  0  0  0  0  0  0
  190.7410  172.0500  141.4610 C   0  0  0  0  0  0  0  0  0  0  0  0
  189.3030  172.1820  143.5130 C   0  0  0  0  0  2  0  0  0  0  0  0
  189.6910  172.3320  144.9820 C   0  0  0  0  0  2  0  0  0  0  0  0
  190.0720  171.0560  141.0720 O   0  0  0  0  0  0  0  0  0  0  0  0
  189.6920  174.3600  146.3540 C   0  0  0  0  0  3  0  0  0  0  0  0
  191.1360  174.3620  144.3260 C   0  0  0  0  0  2  0  0  0  0  0  0
  191.9260  172.4280  140.6720 C   0  0  0  0  0  3  0  0  0  0  0  0
  191.8520  173.2100  139.6460 N   0  0  0  0  0  2  0  0  0  0  0  0
  2  1  1  6  0  0  0
  3  9  2  0  0  0  0
  4  7  2  0  0  0  0
  4  3  1  0  0  0  0
  5  8  1  0  0  0  0
  6  7  1  6  0  0  0
  6 13  1  0  0  0  0
  6  5  1  0  0  0  0
  8  2  1  1  0  0  0
  9  8  1  0  0  0  0
 10 12  1  0  0  0  0
 11 10  1  0  0  0  0
 13 12  1  1  0  0  0
 14 11  1  0  0  0  0
 14 13  1  0  0  0  0
 15  2  1  0  0  0  0
 16 24  1  0  0  0  0
 17 16  1  0  0  0  0
 17 20  1  0  0  0  0
 18 23  2  0  0  0  0
 19 17  1  0  0  0  0
 20 21  1  0  0  0  0
 21 18  1  0  0  0  0
 22 19  2  0  0  0  0
 23 15  1  0  0  0  0
 24 18  1  0  0  0  0
 25 19  1  0  0  0  0
 26 25  2  0  0  0  0
M  END
>  <MODEL>
9

>  <REMARK>
 VINA RESULT:      -6.9      3.309      4.513
  Name = 
  5 active torsions:
  status: ('A' for Active; 'I' for Inactive)
    1  A    between atoms: C_2  and  C_15
    2  A    between atoms: C_6  and  C_14
    3  A    between atoms: C_6  and  C_25
    4  A    between atoms: C_10  and  N_22
    5  A    between atoms: C_14  and  C_17
                            x       y       z     vdW  Elec       q    Type
                         _______ _______ _______ _____ _____    ______ ____

>  <TORSDO>
F 5

$$$$
