=
 OpenBabel11062422573D

 29 30  0  0  1  0  0  0  0  0999 V2000
  188.6350  176.6380  145.9930 C   0  0  0  0  0  2  0  0  0  0  0  0
  187.6600  175.8860  143.5020 O   0  0  0  0  0  1  0  0  0  0  0  0
  185.9960  179.1770  144.8960 S   0  0  0  0  0  0  0  0  0  0  0  0
  186.7770  176.7140  144.2010 C   0  0  1  0  0  3  0  0  0  0  0  0
  187.1420  176.8060  145.6840 C   0  0  2  0  0  3  0  0  0  0  0  0
  186.6090  178.1200  146.2490 C   0  0  2  0  0  3  0  0  0  0  0  0
  186.7790  178.1230  143.6350 C   0  0  1  0  0  3  0  0  0  0  0  0
  185.8080  177.4660  148.3920 O   0  0  0  0  0  1  0  0  0  0  0  0
  185.5200  177.8660  147.2350 C   0  0  0  0  0  0  0  0  0  0  0  0
  184.1900  178.0890  146.8920 O   0  0  0  0  0  0  0  0  0  0  0  0
  186.0190  178.2200  142.3080 C   0  0  2  0  0  3  0  0  0  0  0  0
  184.9430  177.3290  142.2910 O   0  0  0  0  0  1  0  0  0  0  0  0
  188.2750  178.2060  141.2220 O   0  0  0  0  0  1  0  0  0  0  0  0
  186.4520  177.3560  140.1290 O   0  0  0  0  0  0  0  0  0  0  0  0
  186.9190  177.9120  141.1550 C   0  0  0  0  0  0  0  0  0  0  0  0
  189.0170  175.0890  146.8870 S   0  0  0  0  0  0  0  0  0  0  0  0
  190.7230  175.6120  147.2500 C   0  0  0  0  0  2  0  0  0  0  0  0
  191.1820  176.7190  146.3090 C   0  0  0  0  0  2  0  0  0  0  0  0
  193.9420  176.4200  146.4200 S   0  0  0  0  0  0  0  0  0  0  0  0
  194.0660  175.3110  142.5360 N   0  0  0  0  0  0  0  0  0  0  0  0
  193.8510  175.6770  143.7610 C   0  0  0  0  0  0  0  0  0  0  0  0
  192.5550  175.9470  144.2510 C   0  0  0  0  0  0  0  0  0  0  0  0
  192.4500  176.3450  145.6120 C   0  0  0  0  0  0  0  0  0  0  0  0
  195.0960  175.8720  144.9030 S   0  0  0  0  0  0  0  0  0  0  0  0
  191.4210  175.7970  143.3860 N   0  0  0  0  0  2  0  0  0  0  0  0
  190.8280  176.8400  142.7600 O   0  0  0  0  0  1  0  0  0  0  0  0
  195.3370  175.0440  142.0760 O   0  0  0  0  0  0  0  0  0  0  0  0
  195.8620  175.7600  140.9720 C   0  0  0  0  0  2  0  0  0  0  0  0
  196.2200  177.0490  141.3740 O   0  0  0  0  0  1  0  0  0  0  0  0
  1 16  1  0  0  0  0
  3  6  1  0  0  0  0
  4  2  1  6  0  0  0
  4  5  1  0  0  0  0
  5  1  1  6  0  0  0
  5  6  1  0  0  0  0
  6  9  1  1  0  0  0
  7 11  1  6  0  0  0
  7  4  1  0  0  0  0
  7  3  1  0  0  0  0
  9  8  1  0  0  0  0
 10  9  2  0  0  0  0
 11 12  1  1  0  0  0
 14 15  2  0  0  0  0
 15 13  1  0  0  0  0
 15 11  1  0  0  0  0
 16 17  1  0  0  0  0
 18 17  1  0  0  0  0
 20 21  2  0  0  0  0
 21 22  1  0  0  0  0
 21 24  1  0  0  0  0
 22 23  2  0  0  0  0
 23 18  1  0  0  0  0
 23 19  1  0  0  0  0
 24 19  1  0  0  0  0
 25 22  1  0  0  0  0
 26 25  1  0  0  0  0
 27 20  1  0  0  0  0
 28 29  1  0  0  0  0
 28 27  1  0  0  0  0
M  END
>  <MODEL>
1

>  <REMARK>
 VINA RESULT:      -5.7      0.000      0.000
  Name = 
  11 active torsions:
  status: ('A' for Active; 'I' for Inactive)
    1  A    between atoms: N_1  and  C_24
    2  A    between atoms: C_3  and  O_5
    3  A    between atoms: O_5  and  N_13
    4  A    between atoms: C_6  and  S_7
    5  A    between atoms: C_6  and  C_12
    6  A    between atoms: S_7  and  C_22
    7  A    between atoms: C_16  and  C_17
    8  A    between atoms: C_16  and  C_28
    9  A    between atoms: C_20  and  C_25
   10  A    between atoms: C_22  and  C_23
   11  A    between atoms: C_23  and  C_26
                            x       y       z     vdW  Elec       q    Type
                         _______ _______ _______ _____ _____    ______ ____

>  <TORSDO>
F 11

$$$$
=
 OpenBabel11062422573D

 29 30  0  0  1  0  0  0  0  0999 V2000
  188.1560  176.2460  145.2940 C   0  0  0  0  0  2  0  0  0  0  0  0
  186.7520  175.7990  142.9390 O   0  0  0  0  0  1  0  0  0  0  0  0
  185.9120  179.2660  144.6170 S   0  0  0  0  0  0  0  0  0  0  0  0
  186.1320  176.7390  143.7680 C   0  0  1  0  0  3  0  0  0  0  0  0
  186.6920  176.6940  145.1910 C   0  0  2  0  0  3  0  0  0  0  0  0
  186.4870  178.0540  145.8510 C   0  0  2  0  0  3  0  0  0  0  0  0
  186.3210  178.1480  143.2380 C   0  0  1  0  0  3  0  0  0  0  0  0
  185.8130  177.3330  148.0160 O   0  0  0  0  0  1  0  0  0  0  0  0
  185.5040  177.9540  146.9680 C   0  0  0  0  0  0  0  0  0  0  0  0
  184.2560  178.5610  146.8670 O   0  0  0  0  0  0  0  0  0  0  0  0
  185.4300  178.4420  142.0270 C   0  0  2  0  0  3  0  0  0  0  0  0
  184.1830  177.8290  142.1730 O   0  0  0  0  0  1  0  0  0  0  0  0
  185.2800  177.4920  139.7160 O   0  0  0  0  0  0  0  0  0  0  0  0
  187.3150  177.9760  140.6460 O   0  0  0  0  0  1  0  0  0  0  0  0
  186.0650  177.9500  140.7670 C   0  0  0  0  0  0  0  0  0  0  0  0
  189.3280  177.6410  145.4540 S   0  0  0  0  0  0  0  0  0  0  0  0
  190.2690  177.1390  143.9780 C   0  0  0  0  0  2  0  0  0  0  0  0
  191.7000  177.6600  144.0240 C   0  0  0  0  0  2  0  0  0  0  0  0
  192.3820  175.4290  142.5140 S   0  0  0  0  0  0  0  0  0  0  0  0
  195.7890  174.9300  144.6310 N   0  0  0  0  0  0  0  0  0  0  0  0
  194.6680  175.2320  144.0530 C   0  0  0  0  0  0  0  0  0  0  0  0
  193.8940  176.3460  144.4450 C   0  0  0  0  0  0  0  0  0  0  0  0
  192.6820  176.5690  143.7360 C   0  0  0  0  0  0  0  0  0  0  0  0
  194.0130  174.3280  142.7700 S   0  0  0  0  0  0  0  0  0  0  0  0
  194.3550  177.1970  145.5030 N   0  0  0  0  0  2  0  0  0  0  0  0
  194.0920  176.9570  146.8090 O   0  0  0  0  0  1  0  0  0  0  0  0
  196.5360  173.8440  144.2300 O   0  0  0  0  0  0  0  0  0  0  0  0
  197.2670  173.0900  145.1810 C   0  0  0  0  0  2  0  0  0  0  0  0
  197.0210  173.5850  146.4640 O   0  0  0  0  0  1  0  0  0  0  0  0
  1 16  1  0  0  0  0
  3  6  1  0  0  0  0
  4  2  1  6  0  0  0
  4  5  1  0  0  0  0
  5  1  1  6  0  0  0
  5  6  1  0  0  0  0
  6  9  1  1  0  0  0
  7 11  1  6  0  0  0
  7  4  1  0  0  0  0
  7  3  1  0  0  0  0
  9  8  1  0  0  0  0
 10  9  2  0  0  0  0
 11 12  1  1  0  0  0
 13 15  2  0  0  0  0
 14 15  1  0  0  0  0
 15 11  1  0  0  0  0
 17 18  1  0  0  0  0
 17 16  1  0  0  0  0
 19 24  1  0  0  0  0
 19 23  1  0  0  0  0
 21 22  1  0  0  0  0
 21 20  2  0  0  0  0
 22 25  1  0  0  0  0
 23 18  1  0  0  0  0
 23 22  2  0  0  0  0
 24 21  1  0  0  0  0
 25 26  1  0  0  0  0
 27 20  1  0  0  0  0
 27 28  1  0  0  0  0
 28 29  1  0  0  0  0
M  END
>  <MODEL>
2

>  <REMARK>
 VINA RESULT:      -5.6      2.283      2.650
  Name = 
  11 active torsions:
  status: ('A' for Active; 'I' for Inactive)
    1  A    between atoms: N_1  and  C_24
    2  A    between atoms: C_3  and  O_5
    3  A    between atoms: O_5  and  N_13
    4  A    between atoms: C_6  and  S_7
    5  A    between atoms: C_6  and  C_12
    6  A    between atoms: S_7  and  C_22
    7  A    between atoms: C_16  and  C_17
    8  A    between atoms: C_16  and  C_28
    9  A    between atoms: C_20  and  C_25
   10  A    between atoms: C_22  and  C_23
   11  A    between atoms: C_23  and  C_26
                            x       y       z     vdW  Elec       q    Type
                         _______ _______ _______ _____ _____    ______ ____

>  <TORSDO>
F 11

$$$$
=
 OpenBabel11062422573D

 29 30  0  0  1  0  0  0  0  0999 V2000
  187.8840  175.4310  143.4580 C   0  0  0  0  0  2  0  0  0  0  0  0
  187.6630  177.4500  145.3540 O   0  0  0  0  0  1  0  0  0  0  0  0
  184.9790  177.7140  142.4790 S   0  0  0  0  0  0  0  0  0  0  0  0
  187.0830  177.7930  144.1290 C   0  0  1  0  0  3  0  0  0  0  0  0
  187.5350  176.8560  143.0070 C   0  0  2  0  0  3  0  0  0  0  0  0
  186.4740  176.8410  141.9110 C   0  0  2  0  0  3  0  0  0  0  0  0
  185.5680  177.7320  144.2020 C   0  0  1  0  0  3  0  0  0  0  0  0
  188.0330  178.1800  140.7130 O   0  0  0  0  0  1  0  0  0  0  0  0
  186.9950  177.4720  140.6660 C   0  0  0  0  0  0  0  0  0  0  0  0
  186.3540  177.2650  139.4480 O   0  0  0  0  0  0  0  0  0  0  0  0
  184.9710  178.9220  144.9610 C   0  0  2  0  0  3  0  0  0  0  0  0
  185.7360  180.0720  144.7530 O   0  0  0  0  0  1  0  0  0  0  0  0
  185.6970  179.3650  147.3160 O   0  0  0  0  0  1  0  0  0  0  0  0
  184.1220  177.7660  146.8640 O   0  0  0  0  0  0  0  0  0  0  0  0
  184.9100  178.6410  146.4270 C   0  0  0  0  0  0  0  0  0  0  0  0
  189.0850  174.6010  142.3580 S   0  0  0  0  0  0  0  0  0  0  0  0
  189.4480  173.3020  143.5830 C   0  0  0  0  0  2  0  0  0  0  0  0
  190.0060  173.8900  144.8730 C   0  0  0  0  0  2  0  0  0  0  0  0
  192.5540  172.8110  144.6180 S   0  0  0  0  0  0  0  0  0  0  0  0
  194.2250  176.4870  144.8070 N   0  0  0  0  0  0  0  0  0  0  0  0
  193.5330  175.3910  144.7590 C   0  0  0  0  0  0  0  0  0  0  0  0
  192.1230  175.3840  144.8290 C   0  0  0  0  0  0  0  0  0  0  0  0
  191.4800  174.1180  144.7700 C   0  0  0  0  0  0  0  0  0  0  0  0
  194.2430  173.8520  144.6080 S   0  0  0  0  0  0  0  0  0  0  0  0
  191.4100  176.6240  144.9370 N   0  0  0  0  0  2  0  0  0  0  0  0
  190.9540  177.3080  143.8620 O   0  0  0  0  0  1  0  0  0  0  0  0
  195.6000  176.4740  144.7300 O   0  0  0  0  0  0  0  0  0  0  0  0
  196.2460  176.6650  143.4830 C   0  0  0  0  0  2  0  0  0  0  0  0
  197.3210  175.7800  143.3690 O   0  0  0  0  0  1  0  0  0  0  0  0
  3  7  1  0  0  0  0
  4  7  1  0  0  0  0
  4  2  1  1  0  0  0
  5  1  1  1  0  0  0
  5  4  1  0  0  0  0
  6  9  1  6  0  0  0
  6  3  1  0  0  0  0
  6  5  1  0  0  0  0
  7 11  1  1  0  0  0
  9  8  1  0  0  0  0
 10  9  2  0  0  0  0
 11 12  1  1  0  0  0
 11 15  1  0  0  0  0
 15 14  2  0  0  0  0
 15 13  1  0  0  0  0
 16  1  1  0  0  0  0
 16 17  1  0  0  0  0
 17 18  1  0  0  0  0
 19 23  1  0  0  0  0
 21 20  2  0  0  0  0
 21 22  1  0  0  0  0
 22 25  1  0  0  0  0
 23 22  2  0  0  0  0
 23 18  1  0  0  0  0
 24 19  1  0  0  0  0
 24 21  1  0  0  0  0
 26 25  1  0  0  0  0
 27 20  1  0  0  0  0
 28 27  1  0  0  0  0
 29 28  1  0  0  0  0
M  END
>  <MODEL>
3

>  <REMARK>
 VINA RESULT:      -5.3      2.315      4.131
  Name = 
  11 active torsions:
  status: ('A' for Active; 'I' for Inactive)
    1  A    between atoms: N_1  and  C_24
    2  A    between atoms: C_3  and  O_5
    3  A    between atoms: O_5  and  N_13
    4  A    between atoms: C_6  and  S_7
    5  A    between atoms: C_6  and  C_12
    6  A    between atoms: S_7  and  C_22
    7  A    between atoms: C_16  and  C_17
    8  A    between atoms: C_16  and  C_28
    9  A    between atoms: C_20  and  C_25
   10  A    between atoms: C_22  and  C_23
   11  A    between atoms: C_23  and  C_26
                            x       y       z     vdW  Elec       q    Type
                         _______ _______ _______ _____ _____    ______ ____

>  <TORSDO>
F 11

$$$$
=
 OpenBabel11062422573D

 29 30  0  0  1  0  0  0  0  0999 V2000
  190.8580  176.3920  145.5230 C   0  0  0  0  0  2  0  0  0  0  0  0
  193.3490  175.4620  146.3280 O   0  0  0  0  0  1  0  0  0  0  0  0
  192.2910  174.1800  142.7540 S   0  0  0  0  0  0  0  0  0  0  0  0
  192.7660  174.6600  145.3420 C   0  0  1  0  0  3  0  0  0  0  0  0
  191.2720  174.9540  145.1860 C   0  0  2  0  0  3  0  0  0  0  0  0
  190.8330  174.5710  143.7760 C   0  0  2  0  0  3  0  0  0  0  0  0
  193.4250  174.8820  143.9930 C   0  0  1  0  0  3  0  0  0  0  0  0
  189.0350  173.2760  142.9110 O   0  0  0  0  0  0  0  0  0  0  0  0
  189.9040  173.4070  143.8120 C   0  0  0  0  0  0  0  0  0  0  0  0
  190.0030  172.4530  144.8200 O   0  0  0  0  0  1  0  0  0  0  0  0
  194.8010  174.2150  143.8990 C   0  0  2  0  0  3  0  0  0  0  0  0
  194.9120  173.1810  144.8320 O   0  0  0  0  0  1  0  0  0  0  0  0
  195.6290  176.5700  144.0950 O   0  0  0  0  0  0  0  0  0  0  0  0
  197.0480  174.8050  144.4310 O   0  0  0  0  0  1  0  0  0  0  0  0
  195.8920  175.2060  144.1470 C   0  0  0  0  0  0  0  0  0  0  0  0
  190.4460  176.6300  147.2880 S   0  0  0  0  0  0  0  0  0  0  0  0
  188.9050  177.5210  146.9020 C   0  0  0  0  0  2  0  0  0  0  0  0
  187.7270  176.5650  146.7570 C   0  0  0  0  0  2  0  0  0  0  0  0
  185.4720  178.1870  146.8320 S   0  0  0  0  0  0  0  0  0  0  0  0
  184.8270  177.6190  142.8830 N   0  0  0  0  0  0  0  0  0  0  0  0
  185.1760  177.7000  144.1290 C   0  0  0  0  0  0  0  0  0  0  0  0
  186.3210  177.0460  144.6340 C   0  0  0  0  0  0  0  0  0  0  0  0
  186.5970  177.2080  146.0200 C   0  0  0  0  0  0  0  0  0  0  0  0
  184.3030  178.5940  145.2820 S   0  0  0  0  0  0  0  0  0  0  0  0
  187.1500  176.2770  143.7520 N   0  0  0  0  0  2  0  0  0  0  0  0
  188.2170  176.7980  143.1030 O   0  0  0  0  0  1  0  0  0  0  0  0
  183.7100  178.2710  142.4050 O   0  0  0  0  0  0  0  0  0  0  0  0
  183.4210  178.2670  141.0180 C   0  0  0  0  0  2  0  0  0  0  0  0
  184.6100  178.1930  140.2890 O   0  0  0  0  0  1  0  0  0  0  0  0
  1 16  1  0  0  0  0
  3  6  1  0  0  0  0
  3  7  1  0  0  0  0
  4  2  1  1  0  0  0
  5  4  1  0  0  0  0
  5  1  1  6  0  0  0
  6  9  1  1  0  0  0
  6  5  1  0  0  0  0
  7 11  1  1  0  0  0
  7  4  1  0  0  0  0
  8  9  2  0  0  0  0
  9 10  1  0  0  0  0
 11 15  1  0  0  0  0
 11 12  1  1  0  0  0
 13 15  2  0  0  0  0
 15 14  1  0  0  0  0
 17 16  1  0  0  0  0
 18 17  1  0  0  0  0
 20 21  2  0  0  0  0
 21 22  1  0  0  0  0
 21 24  1  0  0  0  0
 22 23  2  0  0  0  0
 23 18  1  0  0  0  0
 23 19  1  0  0  0  0
 24 19  1  0  0  0  0
 25 22  1  0  0  0  0
 26 25  1  0  0  0  0
 27 20  1  0  0  0  0
 28 27  1  0  0  0  0
 29 28  1  0  0  0  0
M  END
>  <MODEL>
4

>  <REMARK>
 VINA RESULT:      -5.2      2.875      8.101
  Name = 
  11 active torsions:
  status: ('A' for Active; 'I' for Inactive)
    1  A    between atoms: N_1  and  C_24
    2  A    between atoms: C_3  and  O_5
    3  A    between atoms: O_5  and  N_13
    4  A    between atoms: C_6  and  S_7
    5  A    between atoms: C_6  and  C_12
    6  A    between atoms: S_7  and  C_22
    7  A    between atoms: C_16  and  C_17
    8  A    between atoms: C_16  and  C_28
    9  A    between atoms: C_20  and  C_25
   10  A    between atoms: C_22  and  C_23
   11  A    between atoms: C_23  and  C_26
                            x       y       z     vdW  Elec       q    Type
                         _______ _______ _______ _____ _____    ______ ____

>  <TORSDO>
F 11

$$$$
=
 OpenBabel11062422573D

 29 30  0  0  1  0  0  0  0  0999 V2000
  191.0160  174.4890  144.7580 C   0  0  0  0  0  2  0  0  0  0  0  0
  192.3080  175.0910  142.3730 O   0  0  0  0  0  1  0  0  0  0  0  0
  194.7730  174.7210  145.4270 S   0  0  0  0  0  0  0  0  0  0  0  0
  193.0630  175.4360  143.4990 C   0  0  1  0  0  3  0  0  0  0  0  0
  192.2080  175.4550  144.7680 C   0  0  2  0  0  3  0  0  0  0  0  0
  193.1050  175.2090  145.9770 C   0  0  2  0  0  3  0  0  0  0  0  0
  194.1990  174.4550  143.7200 C   0  0  1  0  0  3  0  0  0  0  0  0
  194.2170  177.1420  146.8050 O   0  0  0  0  0  0  0  0  0  0  0  0
  193.1830  176.4280  146.8320 C   0  0  0  0  0  0  0  0  0  0  0  0
  192.1120  176.7920  147.6430 O   0  0  0  0  0  1  0  0  0  0  0  0
  195.3500  174.6610  142.7300 C   0  0  2  0  0  3  0  0  0  0  0  0
  196.5140  174.0390  143.1900 O   0  0  0  0  0  1  0  0  0  0  0  0
  196.3000  176.8440  143.5060 O   0  0  0  0  0  1  0  0  0  0  0  0
  195.2770  176.6790  141.4650 O   0  0  0  0  0  0  0  0  0  0  0  0
  195.6280  176.1160  142.5310 C   0  0  0  0  0  0  0  0  0  0  0  0
  189.5730  175.1150  145.6890 S   0  0  0  0  0  0  0  0  0  0  0  0
  189.6210  176.7330  144.8560 C   0  0  0  0  0  2  0  0  0  0  0  0
  188.3170  177.4980  145.0430 C   0  0  0  0  0  2  0  0  0  0  0  0
  188.3310  177.3730  142.2670 S   0  0  0  0  0  0  0  0  0  0  0  0
  184.3850  178.2370  142.1220 N   0  0  0  0  0  0  0  0  0  0  0  0
  185.6330  177.9670  142.3440 C   0  0  0  0  0  0  0  0  0  0  0  0
  186.1670  177.8840  143.6490 C   0  0  0  0  0  0  0  0  0  0  0  0
  187.5520  177.5850  143.7610 C   0  0  0  0  0  0  0  0  0  0  0  0
  186.7580  177.6850  141.0990 S   0  0  0  0  0  0  0  0  0  0  0  0
  185.3100  178.0820  144.7820 N   0  0  0  0  0  2  0  0  0  0  0  0
  185.2810  179.2340  145.4910 O   0  0  0  0  0  1  0  0  0  0  0  0
  183.8800  178.3060  140.8410 O   0  0  0  0  0  0  0  0  0  0  0  0
  182.5160  178.0090  140.5950 C   0  0  0  0  0  2  0  0  0  0  0  0
  181.7140  178.6790  141.5220 O   0  0  0  0  0  1  0  0  0  0  0  0
  1 16  1  0  0  0  0
  3  6  1  0  0  0  0
  4  2  1  6  0  0  0
  4  7  1  0  0  0  0
  4  5  1  0  0  0  0
  5  1  1  6  0  0  0
  5  6  1  0  0  0  0
  6  9  1  6  0  0  0
  7 11  1  6  0  0  0
  7  3  1  0  0  0  0
  8  9  2  0  0  0  0
  9 10  1  0  0  0  0
 11 12  1  1  0  0  0
 14 15  2  0  0  0  0
 15 11  1  0  0  0  0
 15 13  1  0  0  0  0
 17 18  1  0  0  0  0
 17 16  1  0  0  0  0
 19 23  1  0  0  0  0
 20 21  2  0  0  0  0
 21 22  1  0  0  0  0
 22 23  2  0  0  0  0
 22 25  1  0  0  0  0
 23 18  1  0  0  0  0
 24 19  1  0  0  0  0
 24 21  1  0  0  0  0
 25 26  1  0  0  0  0
 27 20  1  0  0  0  0
 28 27  1  0  0  0  0
 28 29  1  0  0  0  0
M  END
>  <MODEL>
5

>  <REMARK>
 VINA RESULT:      -5.2      3.104      8.378
  Name = 
  11 active torsions:
  status: ('A' for Active; 'I' for Inactive)
    1  A    between atoms: N_1  and  C_24
    2  A    between atoms: C_3  and  O_5
    3  A    between atoms: O_5  and  N_13
    4  A    between atoms: C_6  and  S_7
    5  A    between atoms: C_6  and  C_12
    6  A    between atoms: S_7  and  C_22
    7  A    between atoms: C_16  and  C_17
    8  A    between atoms: C_16  and  C_28
    9  A    between atoms: C_20  and  C_25
   10  A    between atoms: C_22  and  C_23
   11  A    between atoms: C_23  and  C_26
                            x       y       z     vdW  Elec       q    Type
                         _______ _______ _______ _____ _____    ______ ____

>  <TORSDO>
F 11

$$$$
=
 OpenBabel11062422573D

 29 30  0  0  1  0  0  0  0  0999 V2000
  189.8120  176.2670  143.0910 C   0  0  0  0  0  2  0  0  0  0  0  0
  189.5980  177.8090  145.3930 O   0  0  0  0  0  1  0  0  0  0  0  0
  186.1080  176.6850  143.9430 S   0  0  0  0  0  0  0  0  0  0  0  0
  188.4320  177.8240  144.6210 C   0  0  1  0  0  3  0  0  0  0  0  0
  188.6830  177.3010  143.2060 C   0  0  2  0  0  3  0  0  0  0  0  0
  187.3780  176.7540  142.6360 C   0  0  2  0  0  3  0  0  0  0  0  0
  187.3470  176.9660  145.2470 C   0  0  1  0  0  3  0  0  0  0  0  0
  187.3210  177.3710  140.3390 O   0  0  0  0  0  0  0  0  0  0  0  0
  186.9030  177.5980  141.5040 C   0  0  0  0  0  0  0  0  0  0  0  0
  185.9850  178.6220  141.7210 O   0  0  0  0  0  1  0  0  0  0  0  0
  186.7010  177.6370  146.4640 C   0  0  2  0  0  3  0  0  0  0  0  0
  186.3050  176.6790  147.4010 O   0  0  0  0  0  1  0  0  0  0  0  0
  184.2250  178.0000  146.3750 O   0  0  0  0  0  1  0  0  0  0  0  0
  185.6600  179.5270  145.4530 O   0  0  0  0  0  0  0  0  0  0  0  0
  185.5060  178.4370  146.0590 C   0  0  0  0  0  0  0  0  0  0  0  0
  189.2060  174.5440  143.0100 S   0  0  0  0  0  0  0  0  0  0  0  0
  189.7530  174.1750  144.7070 C   0  0  0  0  0  2  0  0  0  0  0  0
  190.9300  173.2070  144.7170 C   0  0  0  0  0  2  0  0  0  0  0  0
  192.5070  174.8580  146.3010 S   0  0  0  0  0  0  0  0  0  0  0  0
  195.4540  174.8430  143.5350 N   0  0  0  0  0  0  0  0  0  0  0  0
  194.4220  174.7400  144.3130 C   0  0  0  0  0  0  0  0  0  0  0  0
  193.2950  173.9600  143.9720 C   0  0  0  0  0  0  0  0  0  0  0  0
  192.2240  173.9300  144.9070 C   0  0  0  0  0  0  0  0  0  0  0  0
  194.3110  175.5250  145.8180 S   0  0  0  0  0  0  0  0  0  0  0  0
  193.2800  173.2330  142.7350 N   0  0  0  0  0  2  0  0  0  0  0  0
  193.7200  171.9590  142.6240 O   0  0  0  0  0  1  0  0  0  0  0  0
  196.5480  175.6020  143.8880 O   0  0  0  0  0  0  0  0  0  0  0  0
  196.7630  176.8680  143.2890 C   0  0  0  0  0  2  0  0  0  0  0  0
  196.4350  176.8080  141.9320 O   0  0  0  0  0  1  0  0  0  0  0  0
  3  7  1  0  0  0  0
  4  7  1  0  0  0  0
  4  2  1  1  0  0  0
  5  1  1  1  0  0  0
  5  4  1  0  0  0  0
  6  9  1  6  0  0  0
  6  5  1  0  0  0  0
  6  3  1  0  0  0  0
  7 11  1  1  0  0  0
  8  9  2  0  0  0  0
  9 10  1  0  0  0  0
 11 12  1  1  0  0  0
 14 15  2  0  0  0  0
 15 13  1  0  0  0  0
 15 11  1  0  0  0  0
 16  1  1  0  0  0  0
 16 17  1  0  0  0  0
 17 18  1  0  0  0  0
 18 23  1  0  0  0  0
 20 27  1  0  0  0  0
 20 21  2  0  0  0  0
 21 24  1  0  0  0  0
 22 21  1  0  0  0  0
 22 23  2  0  0  0  0
 23 19  1  0  0  0  0
 24 19  1  0  0  0  0
 25 22  1  0  0  0  0
 26 25  1  0  0  0  0
 28 27  1  0  0  0  0
 29 28  1  0  0  0  0
M  END
>  <MODEL>
6

>  <REMARK>
 VINA RESULT:      -5.2      2.149      3.980
  Name = 
  11 active torsions:
  status: ('A' for Active; 'I' for Inactive)
    1  A    between atoms: N_1  and  C_24
    2  A    between atoms: C_3  and  O_5
    3  A    between atoms: O_5  and  N_13
    4  A    between atoms: C_6  and  S_7
    5  A    between atoms: C_6  and  C_12
    6  A    between atoms: S_7  and  C_22
    7  A    between atoms: C_16  and  C_17
    8  A    between atoms: C_16  and  C_28
    9  A    between atoms: C_20  and  C_25
   10  A    between atoms: C_22  and  C_23
   11  A    between atoms: C_23  and  C_26
                            x       y       z     vdW  Elec       q    Type
                         _______ _______ _______ _____ _____    ______ ____

>  <TORSDO>
F 11

$$$$
=
 OpenBabel11062422573D

 29 30  0  0  1  0  0  0  0  0999 V2000
  192.4760  174.6220  145.6530 C   0  0  0  0  0  2  0  0  0  0  0  0
  190.2510  174.3560  144.0090 O   0  0  0  0  0  1  0  0  0  0  0  0
  193.6390  173.4690  142.1980 S   0  0  0  0  0  0  0  0  0  0  0  0
  191.4380  174.5280  143.2890 C   0  0  1  0  0  3  0  0  0  0  0  0
  192.5700  175.0440  144.1800 C   0  0  2  0  0  3  0  0  0  0  0  0
  193.9080  174.6330  143.5760 C   0  0  2  0  0  3  0  0  0  0  0  0
  191.8970  173.2220  142.6670 C   0  0  1  0  0  3  0  0  0  0  0  0
  194.5230  176.2150  141.9090 O   0  0  0  0  0  0  0  0  0  0  0  0
  194.6600  175.8280  143.0970 C   0  0  0  0  0  0  0  0  0  0  0  0
  195.4940  176.5310  143.9610 O   0  0  0  0  0  1  0  0  0  0  0  0
  191.0620  172.8340  141.4420 C   0  0  2  0  0  3  0  0  0  0  0  0
  190.4930  173.9670  140.8550 O   0  0  0  0  0  1  0  0  0  0  0  0
  190.2690  170.5910  142.2260 O   0  0  0  0  0  1  0  0  0  0  0  0
  188.7740  172.2720  141.8000 O   0  0  0  0  0  0  0  0  0  0  0  0
  189.9700  171.8870  141.8210 C   0  0  0  0  0  0  0  0  0  0  0  0
  192.5420  176.0330  146.8130 S   0  0  0  0  0  0  0  0  0  0  0  0
  190.7830  175.8710  147.2550 C   0  0  0  0  0  2  0  0  0  0  0  0
  190.0450  177.1970  147.1110 C   0  0  0  0  0  2  0  0  0  0  0  0
  189.9850  177.8370  144.4080 S   0  0  0  0  0  0  0  0  0  0  0  0
  186.1050  176.7350  144.1440 N   0  0  0  0  0  0  0  0  0  0  0  0
  187.3400  177.0400  144.3980 C   0  0  0  0  0  0  0  0  0  0  0  0
  187.9100  176.8750  145.6800 C   0  0  0  0  0  0  0  0  0  0  0  0
  189.2720  177.2490  145.8330 C   0  0  0  0  0  0  0  0  0  0  0  0
  188.4010  177.6660  143.2260 S   0  0  0  0  0  0  0  0  0  0  0  0
  187.1180  176.3340  146.7470 N   0  0  0  0  0  2  0  0  0  0  0  0
  186.3140  177.0940  147.5260 O   0  0  0  0  0  1  0  0  0  0  0  0
  185.5690  176.8950  142.8850 O   0  0  0  0  0  0  0  0  0  0  0  0
  184.5870  177.8890  142.6490 C   0  0  0  0  0  2  0  0  0  0  0  0
  184.5960  178.2480  141.2990 O   0  0  0  0  0  1  0  0  0  0  0  0
  1 16  1  0  0  0  0
  3  7  1  0  0  0  0
  3  6  1  0  0  0  0
  4  2  1  1  0  0  0
  4  5  1  0  0  0  0
  5  1  1  1  0  0  0
  6  9  1  6  0  0  0
  6  5  1  0  0  0  0
  7 11  1  6  0  0  0
  7  4  1  0  0  0  0
  8  9  2  0  0  0  0
  9 10  1  0  0  0  0
 11 12  1  1  0  0  0
 11 15  1  0  0  0  0
 14 15  2  0  0  0  0
 15 13  1  0  0  0  0
 16 17  1  0  0  0  0
 18 17  1  0  0  0  0
 19 23  1  0  0  0  0
 20 21  2  0  0  0  0
 21 22  1  0  0  0  0
 22 23  2  0  0  0  0
 22 25  1  0  0  0  0
 23 18  1  0  0  0  0
 24 21  1  0  0  0  0
 24 19  1  0  0  0  0
 25 26  1  0  0  0  0
 27 20  1  0  0  0  0
 28 27  1  0  0  0  0
 29 28  1  0  0  0  0
M  END
>  <MODEL>
7

>  <REMARK>
 VINA RESULT:      -5.2      3.019      7.423
  Name = 
  11 active torsions:
  status: ('A' for Active; 'I' for Inactive)
    1  A    between atoms: N_1  and  C_24
    2  A    between atoms: C_3  and  O_5
    3  A    between atoms: O_5  and  N_13
    4  A    between atoms: C_6  and  S_7
    5  A    between atoms: C_6  and  C_12
    6  A    between atoms: S_7  and  C_22
    7  A    between atoms: C_16  and  C_17
    8  A    between atoms: C_16  and  C_28
    9  A    between atoms: C_20  and  C_25
   10  A    between atoms: C_22  and  C_23
   11  A    between atoms: C_23  and  C_26
                            x       y       z     vdW  Elec       q    Type
                         _______ _______ _______ _____ _____    ______ ____

>  <TORSDO>
F 11

$$$$
=
 OpenBabel11062422573D

 29 30  0  0  1  0  0  0  0  0999 V2000
  192.9870  174.7790  145.8120 C   0  0  0  0  0  2  0  0  0  0  0  0
  194.8810  176.7510  145.3180 O   0  0  0  0  0  1  0  0  0  0  0  0
  195.5290  173.4300  143.2950 S   0  0  0  0  0  0  0  0  0  0  0  0
  195.3470  175.4670  145.0200 C   0  0  1  0  0  3  0  0  0  0  0  0
  194.4600  174.3850  145.6400 C   0  0  2  0  0  3  0  0  0  0  0  0
  194.5950  173.1020  144.8260 C   0  0  2  0  0  3  0  0  0  0  0  0
  195.3870  175.2320  143.5210 C   0  0  1  0  0  3  0  0  0  0  0  0
  194.6380  171.0050  145.9480 O   0  0  0  0  0  0  0  0  0  0  0  0
  195.2730  172.0410  145.6230 C   0  0  0  0  0  0  0  0  0  0  0  0
  196.6070  172.1780  145.9920 O   0  0  0  0  0  1  0  0  0  0  0  0
  196.5600  175.9510  142.8470 C   0  0  2  0  0  3  0  0  0  0  0  0
  196.8310  177.1610  143.4910 O   0  0  0  0  0  1  0  0  0  0  0  0
  195.0420  176.7850  141.0380 O   0  0  0  0  0  1  0  0  0  0  0  0
  197.1250  175.9800  140.5320 O   0  0  0  0  0  0  0  0  0  0  0  0
  196.2600  176.2270  141.4090 C   0  0  0  0  0  0  0  0  0  0  0  0
  191.8710  173.9180  144.6490 S   0  0  0  0  0  0  0  0  0  0  0  0
  191.7670  175.3580  143.5390 C   0  0  0  0  0  2  0  0  0  0  0  0
  191.4220  176.6300  144.3030 C   0  0  0  0  0  2  0  0  0  0  0  0
  189.0230  177.2890  143.0650 S   0  0  0  0  0  0  0  0  0  0  0  0
  187.0020  176.8090  146.5320 N   0  0  0  0  0  0  0  0  0  0  0  0
  187.7940  176.9160  145.5110 C   0  0  0  0  0  0  0  0  0  0  0  0
  189.1790  176.6550  145.6000 C   0  0  0  0  0  0  0  0  0  0  0  0
  189.9420  176.8110  144.4110 C   0  0  0  0  0  0  0  0  0  0  0  0
  187.2570  177.3760  143.9640 S   0  0  0  0  0  0  0  0  0  0  0  0
  189.7460  176.2390  146.8500 N   0  0  0  0  0  2  0  0  0  0  0  0
  190.4400  177.0720  147.6590 O   0  0  0  0  0  1  0  0  0  0  0  0
  185.6510  177.0600  146.4250 O   0  0  0  0  0  0  0  0  0  0  0  0
  185.0900  178.2190  147.0160 C   0  0  0  0  0  2  0  0  0  0  0  0
  184.5360  179.0320  146.0250 O   0  0  0  0  0  1  0  0  0  0  0  0
  3  7  1  0  0  0  0
  3  6  1  0  0  0  0
  4  2  1  6  0  0  0
  4  5  1  0  0  0  0
  5  1  1  6  0  0  0
  6  9  1  1  0  0  0
  6  5  1  0  0  0  0
  7 11  1  1  0  0  0
  7  4  1  0  0  0  0
  9  8  2  0  0  0  0
  9 10  1  0  0  0  0
 11 12  1  1  0  0  0
 13 15  1  0  0  0  0
 14 15  2  0  0  0  0
 15 11  1  0  0  0  0
 16  1  1  0  0  0  0
 17 18  1  0  0  0  0
 17 16  1  0  0  0  0
 18 23  1  0  0  0  0
 19 24  1  0  0  0  0
 19 23  1  0  0  0  0
 21 22  1  0  0  0  0
 21 20  2  0  0  0  0
 22 25  1  0  0  0  0
 23 22  2  0  0  0  0
 24 21  1  0  0  0  0
 25 26  1  0  0  0  0
 27 20  1  0  0  0  0
 27 28  1  0  0  0  0
 29 28  1  0  0  0  0
M  END
>  <MODEL>
8

>  <REMARK>
 VINA RESULT:      -5.1      3.223      8.742
  Name = 
  11 active torsions:
  status: ('A' for Active; 'I' for Inactive)
    1  A    between atoms: N_1  and  C_24
    2  A    between atoms: C_3  and  O_5
    3  A    between atoms: O_5  and  N_13
    4  A    between atoms: C_6  and  S_7
    5  A    between atoms: C_6  and  C_12
    6  A    between atoms: S_7  and  C_22
    7  A    between atoms: C_16  and  C_17
    8  A    between atoms: C_16  and  C_28
    9  A    between atoms: C_20  and  C_25
   10  A    between atoms: C_22  and  C_23
   11  A    between atoms: C_23  and  C_26
                            x       y       z     vdW  Elec       q    Type
                         _______ _______ _______ _____ _____    ______ ____

>  <TORSDO>
F 11

$$$$
=
 OpenBabel11062422573D

 29 30  0  0  1  0  0  0  0  0999 V2000
  191.0750  176.0440  143.6550 C   0  0  0  0  0  2  0  0  0  0  0  0
  193.3150  176.2480  142.0250 O   0  0  0  0  0  1  0  0  0  0  0  0
  194.0170  174.3420  145.4040 S   0  0  0  0  0  0  0  0  0  0  0  0
  193.6410  176.0370  143.3680 C   0  0  1  0  0  3  0  0  0  0  0  0
  192.4480  176.3030  144.2880 C   0  0  2  0  0  3  0  0  0  0  0  0
  192.6200  175.5010  145.5740 C   0  0  2  0  0  3  0  0  0  0  0  0
  194.1000  174.6090  143.6040 C   0  0  1  0  0  3  0  0  0  0  0  0
  191.9340  176.5660  147.5870 O   0  0  0  0  0  1  0  0  0  0  0  0
  192.8450  176.4080  146.7350 C   0  0  0  0  0  0  0  0  0  0  0  0
  194.0610  177.0640  146.8940 O   0  0  0  0  0  0  0  0  0  0  0  0
  195.5210  174.3590  143.0890 C   0  0  2  0  0  3  0  0  0  0  0  0
  195.8790  173.0200  143.2640 O   0  0  0  0  0  1  0  0  0  0  0  0
  196.6710  176.5530  143.4550 O   0  0  0  0  0  0  0  0  0  0  0  0
  197.1730  174.7420  144.7640 O   0  0  0  0  0  1  0  0  0  0  0  0
  196.5070  175.2190  143.8110 C   0  0  0  0  0  0  0  0  0  0  0  0
  189.9150  175.1820  144.7750 S   0  0  0  0  0  0  0  0  0  0  0  0
  189.0460  176.7220  145.2090 C   0  0  0  0  0  2  0  0  0  0  0  0
  187.5960  176.4570  145.5960 C   0  0  0  0  0  2  0  0  0  0  0  0
  185.8890  178.6450  145.4620 S   0  0  0  0  0  0  0  0  0  0  0  0
  184.9350  177.7770  141.6320 N   0  0  0  0  0  0  0  0  0  0  0  0
  185.3490  177.9160  142.8530 C   0  0  0  0  0  0  0  0  0  0  0  0
  186.2870  177.0360  143.4360 C   0  0  0  0  0  0  0  0  0  0  0  0
  186.6580  177.2910  144.7840 C   0  0  0  0  0  0  0  0  0  0  0  0
  184.8120  179.1620  143.8790 S   0  0  0  0  0  0  0  0  0  0  0  0
  186.8280  175.9570  142.6620 N   0  0  0  0  0  2  0  0  0  0  0  0
  187.8820  176.1060  141.8260 O   0  0  0  0  0  1  0  0  0  0  0  0
  184.0250  178.6500  141.0760 O   0  0  0  0  0  0  0  0  0  0  0  0
  182.7790  178.1740  140.5980 C   0  0  0  0  0  2  0  0  0  0  0  0
  181.8200  178.2670  141.6090 O   0  0  0  0  0  1  0  0  0  0  0  0
  1 16  1  0  0  0  0
  3  6  1  0  0  0  0
  4  2  1  6  0  0  0
  4  7  1  0  0  0  0
  4  5  1  0  0  0  0
  5  1  1  6  0  0  0
  5  6  1  0  0  0  0
  6  9  1  1  0  0  0
  7 11  1  1  0  0  0
  7  3  1  0  0  0  0
  9 10  2  0  0  0  0
  9  8  1  0  0  0  0
 11 12  1  1  0  0  0
 11 15  1  0  0  0  0
 13 15  2  0  0  0  0
 15 14  1  0  0  0  0
 16 17  1  0  0  0  0
 17 18  1  0  0  0  0
 20 21  2  0  0  0  0
 21 22  1  0  0  0  0
 21 24  1  0  0  0  0
 22 23  2  0  0  0  0
 23 19  1  0  0  0  0
 23 18  1  0  0  0  0
 24 19  1  0  0  0  0
 25 22  1  0  0  0  0
 26 25  1  0  0  0  0
 27 20  1  0  0  0  0
 28 27  1  0  0  0  0
 28 29  1  0  0  0  0
M  END
>  <MODEL>
9

>  <REMARK>
 VINA RESULT:      -5.1      2.840      8.525
  Name = 
  11 active torsions:
  status: ('A' for Active; 'I' for Inactive)
    1  A    between atoms: N_1  and  C_24
    2  A    between atoms: C_3  and  O_5
    3  A    between atoms: O_5  and  N_13
    4  A    between atoms: C_6  and  S_7
    5  A    between atoms: C_6  and  C_12
    6  A    between atoms: S_7  and  C_22
    7  A    between atoms: C_16  and  C_17
    8  A    between atoms: C_16  and  C_28
    9  A    between atoms: C_20  and  C_25
   10  A    between atoms: C_22  and  C_23
   11  A    between atoms: C_23  and  C_26
                            x       y       z     vdW  Elec       q    Type
                         _______ _______ _______ _____ _____    ______ ____

>  <TORSDO>
F 11

$$$$
