=
 OpenBabel11062422183D

 41 45  0  0  1  0  0  0  0  0999 V2000
  188.7200  176.1040  141.9370 C   0  0  2  0  0  3  0  0  0  0  0  0
  187.6440  173.8700  142.1280 C   0  0  0  0  0  3  0  0  0  0  0  0
  191.4640  178.6310  143.5660 C   0  0  0  0  0  1  0  0  0  0  0  0
  191.9840  172.5200  142.5180 C   0  0  0  0  0  3  0  0  0  0  0  0
  188.9550  173.2650  142.4020 C   0  0  0  0  0  0  0  0  0  0  0  0
  190.8010  177.3080  143.9060 C   0  0  2  0  0  3  0  0  0  0  0  0
  187.5260  175.1850  141.9320 C   0  0  0  0  0  3  0  0  0  0  0  0
  193.0690  171.6710  143.0130 C   0  0  0  0  0  3  0  0  0  0  0  0
  192.4460  175.0490  147.1250 O   0  0  0  0  0  1  0  0  0  0  0  0
  191.3530  173.5150  143.1450 C   0  0  0  0  0  0  0  0  0  0  0  0
  193.8730  173.0940  144.8780 C   0  0  0  0  0  3  0  0  0  0  0  0
  194.6590  175.3480  146.3390 C   0  0  0  0  0  1  0  0  0  0  0  0
  191.2940  176.7480  145.2390 C   0  0  0  0  0  2  0  0  0  0  0  0
  190.9640  176.3930  142.8510 O   0  0  0  0  0  0  0  0  0  0  0  0
  193.1890  175.2080  145.9520 C   0  0  2  0  0  0  0  0  0  0  0  0
  191.6590  173.9510  144.4390 O   0  0  0  0  0  0  0  0  0  0  0  0
  189.0330  172.0190  142.5680 O   0  0  0  0  0  0  0  0  0  0  0  0
  192.8000  176.5080  145.2460 C   0  0  0  0  0  2  0  0  0  0  0  0
  189.8260  175.5650  142.8730 C   0  0  2  0  0  3  0  0  0  0  0  0
  192.9290  174.0290  145.0310 C   0  0  0  0  0  0  0  0  0  0  0  0
  190.1910  174.1380  142.4130 C   0  0  2  0  0  3  0  0  0  0  0  0
  193.8610  171.8740  144.0590 C   0  0  0  0  0  0  0  0  0  0  0  0
  197.2100  169.2060  146.8000 C   0  0  0  0  0  1  0  0  0  0  0  0
  194.9220  170.8490  144.3070 C   0  0  1  0  0  3  0  0  0  0  0  0
  195.8550  169.7130  146.3550 C   0  0  1  0  0  3  0  0  0  0  0  0
  196.0220  171.3680  145.6500 S   0  0  0  0  0  0  0  0  0  0  0  0
  194.3270  169.5660  144.6550 N   0  0  0  0  0  2  0  0  0  0  0  0
  195.3140  168.8340  145.3330 N   0  0  0  0  0  2  0  0  0  0  0  0
  188.2680  177.5070  142.3250 C   0  0  0  0  0  2  0  0  0  0  0  0
  186.8490  177.7470  141.9240 C   0  0  0  0  0  0  0  0  0  0  0  0
  186.5760  177.9920  140.7590 O   0  0  0  0  0  0  0  0  0  0  0  0
  184.5150  177.6300  142.3700 O   0  0  0  0  0  1  0  0  0  0  0  0
  185.7740  177.7000  142.9680 C   0  0  2  0  0  3  0  0  0  0  0  0
  185.8550  178.8840  143.9250 C   0  0  0  0  0  2  0  0  0  0  0  0
  186.2870  176.9930  145.2600 C   0  0  1  0  0  3  0  0  0  0  0  0
  185.0020  178.4490  146.3210 S   0  0  0  0  0  0  0  0  0  0  0  0
  185.3360  178.9790  147.6870 O   0  0  0  0  0  0  0  0  0  0  0  0
  187.5750  176.4460  145.8500 C   0  0  0  0  0  1  0  0  0  0  0  0
  185.1670  176.7570  146.1940 N   0  0  0  0  0  2  0  0  0  0  0  0
  186.3290  178.4680  145.2410 N   0  0  0  0  0  0  0  0  0  0  0  0
  183.7060  178.9690  145.7580 O   0  0  0  0  0  0  0  0  0  0  0  0
  1 29  1  1  0  0  0
  1 19  1  0  0  0  0
  2  5  1  0  0  0  0
  4  8  1  0  0  0  0
  4 10  2  0  0  0  0
  5 17  2  0  0  0  0
  6  3  1  6  0  0  0
  6 13  1  0  0  0  0
  7  1  1  0  0  0  0
  7  2  2  0  0  0  0
  8 22  2  0  0  0  0
 10 16  1  0  0  0  0
 11 20  2  0  0  0  0
 13 18  1  0  0  0  0
 14  6  1  0  0  0  0
 15 12  1  1  0  0  0
 15  9  1  0  0  0  0
 16 20  1  0  0  0  0
 18 15  1  0  0  0  0
 19 14  1  6  0  0  0
 20 15  1  0  0  0  0
 21  5  1  1  0  0  0
 21 19  1  0  0  0  0
 21 10  1  0  0  0  0
 22 11  1  0  0  0  0
 24 22  1  1  0  0  0
 24 27  1  0  0  0  0
 24 26  1  0  0  0  0
 25 23  1  6  0  0  0
 26 25  1  0  0  0  0
 27 28  1  0  0  0  0
 28 25  1  0  0  0  0
 30 29  1  0  0  0  0
 30 33  1  0  0  0  0
 31 30  2  0  0  0  0
 33 32  1  6  0  0  0
 33 34  1  0  0  0  0
 34 40  1  0  0  0  0
 35 38  1  1  0  0  0
 35 39  1  0  0  0  0
 36 37  2  0  0  0  0
 39 36  1  0  0  0  0
 40 35  1  0  0  0  0
 40 36  1  0  0  0  0
 41 36  2  0  0  0  0
M  END
>  <MODEL>
1

>  <REMARK>
 VINA RESULT:      -8.8      0.000      0.000
  Name = 
  6 active torsions:
  status: ('A' for Active; 'I' for Inactive)
    1  A    between atoms: C_1  and  C_28
    2  A    between atoms: C_4  and  C_28
    3  A    between atoms: C_4  and  C_34
    4  A    between atoms: C_19  and  C_40
    5  A    between atoms: N_33  and  C_38
    6  A    between atoms: C_34  and  C_38
                            x       y       z     vdW  Elec       q    Type
                         _______ _______ _______ _____ _____    ______ ____

>  <TORSDO>
F 6

$$$$
=
 OpenBabel11062422183D

 41 45  0  0  1  0  0  0  0  0999 V2000
  189.9530  176.5880  143.2260 C   0  0  2  0  0  3  0  0  0  0  0  0
  192.0360  177.5640  144.1700 C   0  0  0  0  0  3  0  0  0  0  0  0
  188.4300  173.6970  140.7980 C   0  0  0  0  0  1  0  0  0  0  0  0
  192.9210  173.1800  145.0740 C   0  0  0  0  0  3  0  0  0  0  0  0
  192.5530  176.2110  144.4220 C   0  0  0  0  0  0  0  0  0  0  0  0
  189.7890  174.2660  141.1670 C   0  0  2  0  0  3  0  0  0  0  0  0
  190.8440  177.7450  143.5990 C   0  0  0  0  0  3  0  0  0  0  0  0
  193.7840  172.0110  145.2500 C   0  0  0  0  0  3  0  0  0  0  0  0
  193.2380  172.0950  139.9210 O   0  0  0  0  0  1  0  0  0  0  0  0
  192.4930  173.7350  143.9380 C   0  0  0  0  0  0  0  0  0  0  0  0
  193.5140  170.9730  143.0150 C   0  0  0  0  0  3  0  0  0  0  0  0
  192.3340  170.0340  140.6570 C   0  0  0  0  0  1  0  0  0  0  0  0
  190.9230  173.5630  140.4240 C   0  0  0  0  0  2  0  0  0  0  0  0
  189.9690  174.2400  142.5610 O   0  0  0  0  0  0  0  0  0  0  0  0
  192.3970  171.5420  140.8900 C   0  0  2  0  0  0  0  0  0  0  0  0
  192.7930  173.2500  142.6610 O   0  0  0  0  0  0  0  0  0  0  0  0
  193.6760  176.0760  144.9750 O   0  0  0  0  0  0  0  0  0  0  0  0
  190.9700  172.0670  140.7190 C   0  0  0  0  0  2  0  0  0  0  0  0
  190.7920  175.3400  142.8690 C   0  0  2  0  0  3  0  0  0  0  0  0
  192.9140  171.9070  142.2700 C   0  0  0  0  0  0  0  0  0  0  0  0
  191.6990  175.0110  144.0730 C   0  0  2  0  0  3  0  0  0  0  0  0
  194.0950  171.0760  144.3600 C   0  0  0  0  0  0  0  0  0  0  0  0
  197.1360  168.6020  147.5980 C   0  0  0  0  0  1  0  0  0  0  0  0
  194.9740  169.9630  144.8360 C   0  0  1  0  0  3  0  0  0  0  0  0
  195.8600  169.2320  147.0800 C   0  0  1  0  0  3  0  0  0  0  0  0
  196.2590  170.5850  145.9530 S   0  0  0  0  0  0  0  0  0  0  0  0
  194.1920  168.9530  145.5360 N   0  0  0  0  0  2  0  0  0  0  0  0
  195.0860  168.2420  146.3510 N   0  0  0  0  0  2  0  0  0  0  0  0
  189.0360  177.0130  142.0850 C   0  0  0  0  0  2  0  0  0  0  0  0
  187.7140  177.4810  142.6000 C   0  0  0  0  0  0  0  0  0  0  0  0
  187.2690  178.5620  142.2470 O   0  0  0  0  0  0  0  0  0  0  0  0
  186.2460  175.6280  142.8760 O   0  0  0  0  0  1  0  0  0  0  0  0
  186.9530  176.6170  143.5610 C   0  0  2  0  0  3  0  0  0  0  0  0
  186.0210  177.4360  144.4480 C   0  0  0  0  0  2  0  0  0  0  0  0
  187.2690  176.8440  146.3560 C   0  0  1  0  0  3  0  0  0  0  0  0
  185.6190  178.2260  146.8710 S   0  0  0  0  0  0  0  0  0  0  0  0
  185.8410  179.5040  147.6290 O   0  0  0  0  0  0  0  0  0  0  0  0
  188.7160  177.1070  146.7370 C   0  0  0  0  0  1  0  0  0  0  0  0
  186.4160  176.8850  147.5600 N   0  0  0  0  0  2  0  0  0  0  0  0
  186.7330  177.9900  145.5940 N   0  0  0  0  0  0  0  0  0  0  0  0
  184.1790  177.9550  146.5280 O   0  0  0  0  0  0  0  0  0  0  0  0
  1 29  1  6  0  0  0
  1  7  1  0  0  0  0
  2  5  1  0  0  0  0
  4  8  1  0  0  0  0
  5 17  2  0  0  0  0
  6  3  1  1  0  0  0
  6 14  1  0  0  0  0
  7  2  2  0  0  0  0
  9 15  1  0  0  0  0
 10  4  2  0  0  0  0
 11 22  1  0  0  0  0
 13 18  1  0  0  0  0
 13  6  1  0  0  0  0
 15 12  1  6  0  0  0
 15 20  1  0  0  0  0
 16 10  1  0  0  0  0
 18 15  1  0  0  0  0
 19 14  1  1  0  0  0
 19  1  1  0  0  0  0
 19 21  1  0  0  0  0
 20 16  1  0  0  0  0
 20 11  2  0  0  0  0
 21 10  1  6  0  0  0
 21  5  1  0  0  0  0
 22  8  2  0  0  0  0
 24 22  1  1  0  0  0
 24 27  1  0  0  0  0
 24 26  1  0  0  0  0
 25 23  1  6  0  0  0
 26 25  1  0  0  0  0
 27 28  1  0  0  0  0
 28 25  1  0  0  0  0
 29 30  1  0  0  0  0
 30 33  1  0  0  0  0
 31 30  2  0  0  0  0
 33 32  1  6  0  0  0
 33 34  1  0  0  0  0
 34 40  1  0  0  0  0
 35 38  1  1  0  0  0
 35 39  1  0  0  0  0
 36 39  1  0  0  0  0
 36 37  2  0  0  0  0
 40 35  1  0  0  0  0
 40 36  1  0  0  0  0
 41 36  2  0  0  0  0
M  END
>  <MODEL>
2

>  <REMARK>
 VINA RESULT:      -8.4      1.667      3.571
  Name = 
  6 active torsions:
  status: ('A' for Active; 'I' for Inactive)
    1  A    between atoms: C_1  and  C_28
    2  A    between atoms: C_4  and  C_28
    3  A    between atoms: C_4  and  C_34
    4  A    between atoms: C_19  and  C_40
    5  A    between atoms: N_33  and  C_38
    6  A    between atoms: C_34  and  C_38
                            x       y       z     vdW  Elec       q    Type
                         _______ _______ _______ _____ _____    ______ ____

>  <TORSDO>
F 6

$$$$
=
 OpenBabel11062422183D

 41 45  0  0  1  0  0  0  0  0999 V2000
  190.6180  175.9420  144.4950 C   0  0  2  0  0  3  0  0  0  0  0  0
  191.1600  177.6560  142.7780 C   0  0  0  0  0  3  0  0  0  0  0  0
  188.1900  175.0130  147.6280 C   0  0  0  0  0  1  0  0  0  0  0  0
  186.6420  177.5370  142.1540 C   0  0  0  0  0  3  0  0  0  0  0  0
  189.7250  177.8530  142.5260 C   0  0  0  0  0  0  0  0  0  0  0  0
  188.4920  176.2120  146.7450 C   0  0  2  0  0  3  0  0  0  0  0  0
  191.5790  176.7890  143.7010 C   0  0  0  0  0  3  0  0  0  0  0  0
  185.3320  178.1060  141.8310 C   0  0  0  0  0  3  0  0  0  0  0  0
  185.8400  179.5420  146.9680 O   0  0  0  0  0  1  0  0  0  0  0  0
  187.3320  177.6290  143.2930 C   0  0  0  0  0  0  0  0  0  0  0  0
  184.4980  178.5210  144.1290 C   0  0  0  0  0  3  0  0  0  0  0  0
  183.9250  178.1560  146.8430 C   0  0  0  0  0  1  0  0  0  0  0  0
  187.6510  177.4290  147.1270 C   0  0  0  0  0  2  0  0  0  0  0  0
  188.3490  175.8700  145.3890 O   0  0  0  0  0  0  0  0  0  0  0  0
  185.3820  178.3380  146.4250 C   0  0  2  0  0  0  0  0  0  0  0  0
  186.8820  178.3010  144.4350 O   0  0  0  0  0  0  0  0  0  0  0  0
  189.3640  178.6700  141.6380 O   0  0  0  0  0  0  0  0  0  0  0  0
  186.1540  177.1580  147.0160 C   0  0  0  0  0  2  0  0  0  0  0  0
  189.2690  176.6700  144.6860 C   0  0  2  0  0  3  0  0  0  0  0  0
  185.5660  178.3670  144.9180 C   0  0  0  0  0  0  0  0  0  0  0  0
  188.7140  177.0260  143.2910 C   0  0  2  0  0  3  0  0  0  0  0  0
  184.4150  178.5850  142.6630 C   0  0  0  0  0  0  0  0  0  0  0  0
  179.9740  178.1770  140.2220 C   0  0  0  0  0  1  0  0  0  0  0  0
  183.1390  179.0680  142.0490 C   0  0  1  0  0  3  0  0  0  0  0  0
  180.9850  177.9740  141.3310 C   0  0  1  0  0  3  0  0  0  0  0  0
  182.6570  178.0210  140.6500 S   0  0  0  0  0  0  0  0  0  0  0  0
  182.0630  179.0670  143.0300 N   0  0  0  0  0  2  0  0  0  0  0  0
  180.8600  179.0400  142.3100 N   0  0  0  0  0  2  0  0  0  0  0  0
  191.2650  175.5680  145.8240 C   0  0  0  0  0  2  0  0  0  0  0  0
  192.3640  174.5730  145.6290 C   0  0  0  0  0  0  0  0  0  0  0  0
  192.1370  173.5170  145.0600 O   0  0  0  0  0  0  0  0  0  0  0  0
  193.9000  176.2580  146.3080 O   0  0  0  0  0  1  0  0  0  0  0  0
  193.7340  174.8820  146.1520 C   0  0  2  0  0  3  0  0  0  0  0  0
  194.8280  174.3010  145.2620 C   0  0  0  0  0  2  0  0  0  0  0  0
  194.9190  174.2540  142.9090 C   0  0  1  0  0  3  0  0  0  0  0  0
  196.7320  175.1920  143.7650 S   0  0  0  0  0  0  0  0  0  0  0  0
  197.2130  176.5520  143.3470 O   0  0  0  0  0  0  0  0  0  0  0  0
  194.0620  174.9280  141.8520 C   0  0  0  0  0  1  0  0  0  0  0  0
  196.3210  174.1870  142.4510 N   0  0  0  0  0  2  0  0  0  0  0  0
  195.0520  175.1350  144.0860 N   0  0  0  0  0  0  0  0  0  0  0  0
  197.6060  174.5160  144.7870 O   0  0  0  0  0  0  0  0  0  0  0  0
  1 19  1  0  0  0  0
  1 29  1  1  0  0  0
  2  7  2  0  0  0  0
  4 10  2  0  0  0  0
  5  2  1  0  0  0  0
  6 13  1  0  0  0  0
  6  3  1  1  0  0  0
  7  1  1  0  0  0  0
  8  4  1  0  0  0  0
  8 22  2  0  0  0  0
 10 16  1  0  0  0  0
 11 20  2  0  0  0  0
 14  6  1  0  0  0  0
 15 12  1  1  0  0  0
 15  9  1  0  0  0  0
 15 18  1  0  0  0  0
 16 20  1  0  0  0  0
 17  5  2  0  0  0  0
 18 13  1  0  0  0  0
 19 14  1  6  0  0  0
 20 15  1  0  0  0  0
 21  5  1  1  0  0  0
 21 10  1  0  0  0  0
 21 19  1  0  0  0  0
 22 11  1  0  0  0  0
 24 22  1  1  0  0  0
 24 27  1  0  0  0  0
 25 23  1  6  0  0  0
 25 28  1  0  0  0  0
 26 25  1  0  0  0  0
 26 24  1  0  0  0  0
 28 27  1  0  0  0  0
 30 29  1  0  0  0  0
 30 33  1  0  0  0  0
 31 30  2  0  0  0  0
 33 32  1  6  0  0  0
 34 33  1  0  0  0  0
 35 38  1  6  0  0  0
 35 40  1  0  0  0  0
 36 40  1  0  0  0  0
 36 41  2  0  0  0  0
 37 36  2  0  0  0  0
 39 35  1  0  0  0  0
 39 36  1  0  0  0  0
 40 34  1  0  0  0  0
M  END
>  <MODEL>
3

>  <REMARK>
 VINA RESULT:      -8.3      3.266     10.131
  Name = 
  6 active torsions:
  status: ('A' for Active; 'I' for Inactive)
    1  A    between atoms: C_1  and  C_28
    2  A    between atoms: C_4  and  C_28
    3  A    between atoms: C_4  and  C_34
    4  A    between atoms: C_19  and  C_40
    5  A    between atoms: N_33  and  C_38
    6  A    between atoms: C_34  and  C_38
                            x       y       z     vdW  Elec       q    Type
                         _______ _______ _______ _____ _____    ______ ____

>  <TORSDO>
F 6

$$$$
=
 OpenBabel11062422183D

 41 45  0  0  1  0  0  0  0  0999 V2000
  195.0050  175.6050  143.7250 C   0  0  2  0  0  3  0  0  0  0  0  0
  194.6420  175.7380  146.1810 C   0  0  0  0  0  3  0  0  0  0  0  0
  193.4360  174.3450  140.1870 C   0  0  0  0  0  1  0  0  0  0  0  0
  190.5690  177.3040  144.8490 C   0  0  0  0  0  3  0  0  0  0  0  0
  193.2450  176.1320  145.9500 C   0  0  0  0  0  0  0  0  0  0  0  0
  193.1360  174.2130  141.6700 C   0  0  2  0  0  3  0  0  0  0  0  0
  195.4550  175.4740  145.1570 C   0  0  0  0  0  3  0  0  0  0  0  0
  189.1220  177.4970  144.9590 C   0  0  0  0  0  3  0  0  0  0  0  0
  189.3470  172.6080  142.7790 O   0  0  0  0  0  1  0  0  0  0  0  0
  191.2350  176.2280  144.4270 C   0  0  0  0  0  0  0  0  0  0  0  0
  188.3600  175.6880  143.4440 C   0  0  0  0  0  3  0  0  0  0  0  0
  188.1960  173.9820  141.2320 C   0  0  0  0  0  1  0  0  0  0  0  0
  191.8890  173.3700  141.9270 C   0  0  0  0  0  2  0  0  0  0  0  0
  193.0530  175.4830  142.2670 O   0  0  0  0  0  0  0  0  0  0  0  0
  189.4030  173.8590  142.1580 C   0  0  2  0  0  0  0  0  0  0  0  0
  190.6280  175.0530  143.9710 O   0  0  0  0  0  0  0  0  0  0  0  0
  192.5070  176.3880  146.9390 O   0  0  0  0  0  0  0  0  0  0  0  0
  190.6440  173.9570  141.2700 C   0  0  0  0  0  2  0  0  0  0  0  0
  193.4920  175.3200  143.5940 C   0  0  2  0  0  3  0  0  0  0  0  0
  189.4470  174.9430  143.2210 C   0  0  0  0  0  0  0  0  0  0  0  0
  192.7390  176.2860  144.5320 C   0  0  2  0  0  3  0  0  0  0  0  0
  188.1510  176.7800  144.4050 C   0  0  0  0  0  0  0  0  0  0  0  0
  184.2690  178.5990  147.1370 C   0  0  0  0  0  1  0  0  0  0  0  0
  186.7500  177.2390  144.6580 C   0  0  1  0  0  3  0  0  0  0  0  0
  185.6220  178.5980  146.4570 C   0  0  1  0  0  3  0  0  0  0  0  0
  186.2630  176.9110  146.3730 S   0  0  0  0  0  0  0  0  0  0  0  0
  186.6200  178.6650  144.3970 N   0  0  0  0  0  2  0  0  0  0  0  0
  185.4890  179.1040  145.1010 N   0  0  0  0  0  2  0  0  0  0  0  0
  195.8450  174.6800  142.8520 C   0  0  0  0  0  2  0  0  0  0  0  0
  197.2630  174.6320  143.3230 C   0  0  0  0  0  0  0  0  0  0  0  0
  197.8800  175.6690  143.5080 O   0  0  0  0  0  0  0  0  0  0  0  0
  197.8010  172.5010  142.4120 O   0  0  0  0  0  1  0  0  0  0  0  0
  197.9160  173.3020  143.5480 C   0  0  2  0  0  3  0  0  0  0  0  0
  197.3520  172.5890  144.7740 C   0  0  0  0  0  2  0  0  0  0  0  0
  195.2790  171.8100  145.5730 C   0  0  1  0  0  3  0  0  0  0  0  0
  196.5410  170.1420  144.8510 S   0  0  0  0  0  0  0  0  0  0  0  0
  196.0600  169.1430  143.8360 O   0  0  0  0  0  0  0  0  0  0  0  0
  193.8580  172.0400  145.0880 C   0  0  0  0  0  1  0  0  0  0  0  0
  195.4150  170.4350  146.0960 N   0  0  0  0  0  2  0  0  0  0  0  0
  196.2030  171.7640  144.4230 N   0  0  0  0  0  0  0  0  0  0  0  0
  197.9370  169.8860  145.3530 O   0  0  0  0  0  0  0  0  0  0  0  0
  1 29  1  6  0  0  0
  1  7  1  0  0  0  0
  4  8  1  0  0  0  0
  5  2  1  0  0  0  0
  5 17  2  0  0  0  0
  6  3  1  6  0  0  0
  6 13  1  0  0  0  0
  6 14  1  0  0  0  0
  7  2  2  0  0  0  0
 10  4  2  0  0  0  0
 11 22  1  0  0  0  0
 15 12  1  6  0  0  0
 15  9  1  0  0  0  0
 15 20  1  0  0  0  0
 16 10  1  0  0  0  0
 18 13  1  0  0  0  0
 18 15  1  0  0  0  0
 19 14  1  6  0  0  0
 19  1  1  0  0  0  0
 19 21  1  0  0  0  0
 20 11  2  0  0  0  0
 20 16  1  0  0  0  0
 21 10  1  1  0  0  0
 21  5  1  0  0  0  0
 22  8  2  0  0  0  0
 24 22  1  1  0  0  0
 24 26  1  0  0  0  0
 25 23  1  6  0  0  0
 26 25  1  0  0  0  0
 27 24  1  0  0  0  0
 27 28  1  0  0  0  0
 28 25  1  0  0  0  0
 29 30  1  0  0  0  0
 30 31  2  0  0  0  0
 30 33  1  0  0  0  0
 33 32  1  6  0  0  0
 33 34  1  0  0  0  0
 35 38  1  6  0  0  0
 35 39  1  0  0  0  0
 36 41  2  0  0  0  0
 36 39  1  0  0  0  0
 37 36  2  0  0  0  0
 40 34  1  0  0  0  0
 40 36  1  0  0  0  0
 40 35  1  0  0  0  0
M  END
>  <MODEL>
4

>  <REMARK>
 VINA RESULT:      -8.1      2.851      9.645
  Name = 
  6 active torsions:
  status: ('A' for Active; 'I' for Inactive)
    1  A    between atoms: C_1  and  C_28
    2  A    between atoms: C_4  and  C_28
    3  A    between atoms: C_4  and  C_34
    4  A    between atoms: C_19  and  C_40
    5  A    between atoms: N_33  and  C_38
    6  A    between atoms: C_34  and  C_38
                            x       y       z     vdW  Elec       q    Type
                         _______ _______ _______ _____ _____    ______ ____

>  <TORSDO>
F 6

$$$$
=
 OpenBabel11062422183D

 41 45  0  0  1  0  0  0  0  0999 V2000
  189.9810  173.9260  144.4410 C   0  0  2  0  0  3  0  0  0  0  0  0
  189.7230  171.9260  142.9860 C   0  0  0  0  0  3  0  0  0  0  0  0
  192.6440  176.2930  146.4100 C   0  0  0  0  0  1  0  0  0  0  0  0
  193.0500  173.9900  140.6440 C   0  0  0  0  0  3  0  0  0  0  0  0
  190.8710  172.3670  142.1810 C   0  0  0  0  0  0  0  0  0  0  0  0
  192.6420  174.9750  145.6550 C   0  0  2  0  0  3  0  0  0  0  0  0
  189.3200  172.6310  144.0440 C   0  0  0  0  0  3  0  0  0  0  0  0
  194.2460  174.0370  139.8020 C   0  0  0  0  0  3  0  0  0  0  0  0
  196.4190  173.2810  144.6410 O   0  0  0  0  0  1  0  0  0  0  0  0
  192.9630  173.7590  141.9550 C   0  0  0  0  0  0  0  0  0  0  0  0
  195.9610  174.3790  141.5610 C   0  0  0  0  0  3  0  0  0  0  0  0
  197.2500  175.3500  143.8470 C   0  0  0  0  0  1  0  0  0  0  0  0
  194.0310  174.3410  145.6110 C   0  0  0  0  0  2  0  0  0  0  0  0
  192.0930  175.1460  144.3730 O   0  0  0  0  0  0  0  0  0  0  0  0
  196.0160  174.4690  144.0260 C   0  0  2  0  0  0  0  0  0  0  0  0
  194.0620  173.5360  142.7920 O   0  0  0  0  0  0  0  0  0  0  0  0
  191.2170  171.6840  141.1800 O   0  0  0  0  0  0  0  0  0  0  0  0
  195.0590  175.2420  144.9350 C   0  0  0  0  0  2  0  0  0  0  0  0
  191.4750  173.9240  144.0460 C   0  0  2  0  0  3  0  0  0  0  0  0
  195.3250  174.1440  142.7140 C   0  0  0  0  0  0  0  0  0  0  0  0
  191.5710  173.6630  142.5290 C   0  0  2  0  0  3  0  0  0  0  0  0
  195.5140  174.1510  140.1790 C   0  0  0  0  0  0  0  0  0  0  0  0
  197.3920  175.4150  135.6280 C   0  0  0  0  0  1  0  0  0  0  0  0
  196.5360  174.2160  139.0890 C   0  0  1  0  0  3  0  0  0  0  0  0
  196.8440  175.6270  137.0230 C   0  0  1  0  0  3  0  0  0  0  0  0
  195.7410  174.2660  137.4610 S   0  0  0  0  0  0  0  0  0  0  0  0
  197.3740  175.3970  139.2390 N   0  0  0  0  0  2  0  0  0  0  0  0
  197.9370  175.6560  137.9800 N   0  0  0  0  0  2  0  0  0  0  0  0
  189.7790  174.1520  145.9350 C   0  0  0  0  0  2  0  0  0  0  0  0
  188.8750  175.3160  146.1870 C   0  0  0  0  0  0  0  0  0  0  0  0
  188.2780  175.4060  147.2490 O   0  0  0  0  0  0  0  0  0  0  0  0
  189.3500  177.5370  145.4800 O   0  0  0  0  0  1  0  0  0  0  0  0
  188.7010  176.3550  145.1210 C   0  0  2  0  0  3  0  0  0  0  0  0
  187.2300  176.6150  144.8120 C   0  0  0  0  0  2  0  0  0  0  0  0
  185.8420  177.6810  146.3880 C   0  0  1  0  0  3  0  0  0  0  0  0
  185.4980  178.4700  144.3490 S   0  0  0  0  0  0  0  0  0  0  0  0
  185.5630  179.9360  144.0270 O   0  0  0  0  0  0  0  0  0  0  0  0
  186.1610  178.5730  147.5750 C   0  0  0  0  0  1  0  0  0  0  0  0
  184.5870  178.1260  145.7480 N   0  0  0  0  0  2  0  0  0  0  0  0
  186.8110  177.9240  145.3010 N   0  0  0  0  0  0  0  0  0  0  0  0
  185.1470  177.5960  143.1750 O   0  0  0  0  0  0  0  0  0  0  0  0
  1 29  1  1  0  0  0
  2  7  2  0  0  0  0
  4 10  2  0  0  0  0
  5 21  1  0  0  0  0
  5  2  1  0  0  0  0
  6  3  1  6  0  0  0
  7  1  1  0  0  0  0
  8 22  2  0  0  0  0
  8  4  1  0  0  0  0
 10 16  1  0  0  0  0
 11 20  2  0  0  0  0
 13  6  1  0  0  0  0
 14  6  1  0  0  0  0
 15 12  1  6  0  0  0
 15  9  1  0  0  0  0
 15 18  1  0  0  0  0
 17  5  2  0  0  0  0
 18 13  1  0  0  0  0
 19 14  1  6  0  0  0
 19  1  1  0  0  0  0
 20 16  1  0  0  0  0
 20 15  1  0  0  0  0
 21 10  1  1  0  0  0
 21 19  1  0  0  0  0
 22 11  1  0  0  0  0
 24 27  1  0  0  0  0
 24 22  1  1  0  0  0
 25 23  1  6  0  0  0
 25 26  1  0  0  0  0
 25 28  1  0  0  0  0
 26 24  1  0  0  0  0
 28 27  1  0  0  0  0
 29 30  1  0  0  0  0
 30 31  2  0  0  0  0
 33 32  1  1  0  0  0
 33 30  1  0  0  0  0
 34 33  1  0  0  0  0
 34 40  1  0  0  0  0
 35 38  1  1  0  0  0
 36 40  1  0  0  0  0
 36 39  1  0  0  0  0
 37 36  2  0  0  0  0
 39 35  1  0  0  0  0
 40 35  1  0  0  0  0
 41 36  2  0  0  0  0
M  END
>  <MODEL>
5

>  <REMARK>
 VINA RESULT:      -8.0      3.959      5.025
  Name = 
  6 active torsions:
  status: ('A' for Active; 'I' for Inactive)
    1  A    between atoms: C_1  and  C_28
    2  A    between atoms: C_4  and  C_28
    3  A    between atoms: C_4  and  C_34
    4  A    between atoms: C_19  and  C_40
    5  A    between atoms: N_33  and  C_38
    6  A    between atoms: C_34  and  C_38
                            x       y       z     vdW  Elec       q    Type
                         _______ _______ _______ _____ _____    ______ ____

>  <TORSDO>
F 6

$$$$
=
 OpenBabel11062422183D

 41 45  0  0  1  0  0  0  0  0999 V2000
  193.2560  174.8110  145.3010 C   0  0  2  0  0  3  0  0  0  0  0  0
  191.8820  175.2360  147.3290 C   0  0  0  0  0  3  0  0  0  0  0  0
  193.1690  173.6550  141.3980 C   0  0  0  0  0  1  0  0  0  0  0  0
  189.3600  177.5950  144.3470 C   0  0  0  0  0  3  0  0  0  0  0  0
  190.8810  175.9260  146.5030 C   0  0  0  0  0  0  0  0  0  0  0  0
  192.2170  173.7260  142.5800 C   0  0  2  0  0  3  0  0  0  0  0  0
  192.9720  174.7010  146.7760 C   0  0  0  0  0  3  0  0  0  0  0  0
  188.1150  178.1310  143.7960 C   0  0  0  0  0  3  0  0  0  0  0  0
  188.0650  173.1570  141.8040 O   0  0  0  0  0  1  0  0  0  0  0  0
  189.8550  176.3600  144.2390 C   0  0  0  0  0  0  0  0  0  0  0  0
  187.6850  176.4290  142.0440 C   0  0  0  0  0  3  0  0  0  0  0  0
  188.1060  174.6250  139.9470 C   0  0  0  0  0  1  0  0  0  0  0  0
  190.8200  173.2240  142.2190 C   0  0  0  0  0  2  0  0  0  0  0  0
  192.1950  175.0260  143.1130 O   0  0  0  0  0  0  0  0  0  0  0  0
  188.7010  174.3020  141.3150 C   0  0  2  0  0  0  0  0  0  0  0  0
  189.2430  175.3250  143.5220 O   0  0  0  0  0  0  0  0  0  0  0  0
  189.8700  176.4320  147.0580 O   0  0  0  0  0  0  0  0  0  0  0  0
  190.1890  174.0290  141.0880 C   0  0  0  0  0  2  0  0  0  0  0  0
  191.9420  174.8790  144.4900 C   0  0  2  0  0  3  0  0  0  0  0  0
  188.5350  175.4320  142.3150 C   0  0  0  0  0  0  0  0  0  0  0  0
  191.1160  176.0720  145.0140 C   0  0  2  0  0  3  0  0  0  0  0  0
  187.3490  177.6180  142.8400 C   0  0  0  0  0  0  0  0  0  0  0  0
  182.8920  178.4950  140.5580 C   0  0  0  0  0  1  0  0  0  0  0  0
  186.1440  178.4120  142.4460 C   0  0  1  0  0  3  0  0  0  0  0  0
  183.8690  177.8500  141.5180 C   0  0  1  0  0  3  0  0  0  0  0  0
  185.5340  177.8970  140.8190 S   0  0  0  0  0  0  0  0  0  0  0  0
  185.0770  178.2460  143.4220 N   0  0  0  0  0  2  0  0  0  0  0  0
  183.8790  178.5810  142.7730 N   0  0  0  0  0  2  0  0  0  0  0  0
  194.1370  173.6420  144.8740 C   0  0  0  0  0  2  0  0  0  0  0  0
  195.5640  174.0650  144.7340 C   0  0  0  0  0  0  0  0  0  0  0  0
  195.9600  175.0730  145.2970 O   0  0  0  0  0  0  0  0  0  0  0  0
  197.3410  172.4840  144.6860 O   0  0  0  0  0  1  0  0  0  0  0  0
  196.4910  173.2480  143.8860 C   0  0  2  0  0  3  0  0  0  0  0  0
  197.2910  174.1140  142.9180 C   0  0  0  0  0  2  0  0  0  0  0  0
  197.4390  174.4660  140.5940 C   0  0  1  0  0  3  0  0  0  0  0  0
  196.4230  176.1550  141.6000 S   0  0  0  0  0  0  0  0  0  0  0  0
  195.0720  176.6570  141.1740 O   0  0  0  0  0  0  0  0  0  0  0  0
  196.8310  173.7190  139.4190 C   0  0  0  0  0  1  0  0  0  0  0  0
  197.4940  175.9110  140.2960 N   0  0  0  0  0  2  0  0  0  0  0  0
  196.5050  174.4510  141.7370 N   0  0  0  0  0  0  0  0  0  0  0  0
  197.0340  176.9230  142.7410 O   0  0  0  0  0  0  0  0  0  0  0  0
  1 29  1  6  0  0  0
  1  7  1  0  0  0  0
  5 17  2  0  0  0  0
  5  2  1  0  0  0  0
  6  3  1  6  0  0  0
  6 14  1  0  0  0  0
  7  2  2  0  0  0  0
  8  4  1  0  0  0  0
 10  4  2  0  0  0  0
 11 20  2  0  0  0  0
 11 22  1  0  0  0  0
 13  6  1  0  0  0  0
 15 12  1  6  0  0  0
 15  9  1  0  0  0  0
 15 20  1  0  0  0  0
 16 10  1  0  0  0  0
 18 15  1  0  0  0  0
 18 13  1  0  0  0  0
 19 14  1  6  0  0  0
 19 21  1  0  0  0  0
 19  1  1  0  0  0  0
 20 16  1  0  0  0  0
 21 10  1  6  0  0  0
 21  5  1  0  0  0  0
 22  8  2  0  0  0  0
 24 22  1  1  0  0  0
 24 27  1  0  0  0  0
 25 23  1  6  0  0  0
 25 28  1  0  0  0  0
 26 25  1  0  0  0  0
 26 24  1  0  0  0  0
 28 27  1  0  0  0  0
 30 29  1  0  0  0  0
 30 31  2  0  0  0  0
 33 32  1  1  0  0  0
 33 30  1  0  0  0  0
 34 33  1  0  0  0  0
 35 38  1  6  0  0  0
 35 40  1  0  0  0  0
 36 40  1  0  0  0  0
 36 41  2  0  0  0  0
 37 36  2  0  0  0  0
 39 35  1  0  0  0  0
 39 36  1  0  0  0  0
 40 34  1  0  0  0  0
M  END
>  <MODEL>
6

>  <REMARK>
 VINA RESULT:      -8.0      3.376      9.773
  Name = 
  6 active torsions:
  status: ('A' for Active; 'I' for Inactive)
    1  A    between atoms: C_1  and  C_28
    2  A    between atoms: C_4  and  C_28
    3  A    between atoms: C_4  and  C_34
    4  A    between atoms: C_19  and  C_40
    5  A    between atoms: N_33  and  C_38
    6  A    between atoms: C_34  and  C_38
                            x       y       z     vdW  Elec       q    Type
                         _______ _______ _______ _____ _____    ______ ____

>  <TORSDO>
F 6

$$$$
=
 OpenBabel11062422183D

 41 45  0  0  1  0  0  0  0  0999 V2000
  194.9070  174.9770  144.4290 C   0  0  2  0  0  3  0  0  0  0  0  0
  194.2640  176.0050  146.5990 C   0  0  0  0  0  3  0  0  0  0  0  0
  193.6840  172.5510  141.3970 C   0  0  0  0  0  1  0  0  0  0  0  0
  190.5020  177.0750  144.2500 C   0  0  0  0  0  3  0  0  0  0  0  0
  192.9370  176.3210  146.0530 C   0  0  0  0  0  0  0  0  0  0  0  0
  193.2000  172.9770  142.7730 C   0  0  2  0  0  3  0  0  0  0  0  0
  195.1720  175.3660  145.8600 C   0  0  0  0  0  3  0  0  0  0  0  0
  189.0700  177.3290  144.0830 C   0  0  0  0  0  3  0  0  0  0  0  0
  189.2000  171.9770  143.8520 O   0  0  0  0  0  1  0  0  0  0  0  0
  191.1350  175.9030  144.3370 C   0  0  0  0  0  0  0  0  0  0  0  0
  188.3660  175.1110  143.2270 C   0  0  0  0  0  3  0  0  0  0  0  0
  188.3450  172.7200  141.7730 C   0  0  0  0  0  1  0  0  0  0  0  0
  191.8740  172.3150  143.1420 C   0  0  0  0  0  2  0  0  0  0  0  0
  193.1380  174.3780  142.8580 O   0  0  0  0  0  0  0  0  0  0  0  0
  189.4200  172.9150  142.8390 C   0  0  2  0  0  0  0  0  0  0  0  0
  190.5030  174.6570  144.2530 O   0  0  0  0  0  0  0  0  0  0  0  0
  192.1070  176.9380  146.7740 O   0  0  0  0  0  0  0  0  0  0  0  0
  190.7620  172.6530  142.1530 C   0  0  0  0  0  2  0  0  0  0  0  0
  193.4040  174.7000  144.2020 C   0  0  2  0  0  3  0  0  0  0  0  0
  189.4160  174.3100  143.4370 C   0  0  0  0  0  0  0  0  0  0  0  0
  192.6160  175.9590  144.6190 C   0  0  2  0  0  3  0  0  0  0  0  0
  188.1240  176.4830  143.6950 C   0  0  0  0  0  0  0  0  0  0  0  0
  183.9840  179.0410  145.1660 C   0  0  0  0  0  1  0  0  0  0  0  0
  186.7390  177.0360  143.5720 C   0  0  1  0  0  3  0  0  0  0  0  0
  185.4280  178.8290  144.7650 C   0  0  1  0  0  3  0  0  0  0  0  0
  185.9430  177.1520  145.1960 S   0  0  0  0  0  0  0  0  0  0  0  0
  186.7650  178.3600  142.9660 N   0  0  0  0  0  2  0  0  0  0  0  0
  185.5680  178.9940  143.3280 N   0  0  0  0  0  2  0  0  0  0  0  0
  195.7760  173.7770  144.0690 C   0  0  0  0  0  2  0  0  0  0  0  0
  197.2270  174.0860  144.2500 C   0  0  0  0  0  0  0  0  0  0  0  0
  197.8140  173.6940  145.2460 O   0  0  0  0  0  0  0  0  0  0  0  0
  197.6290  176.2460  143.3360 O   0  0  0  0  0  1  0  0  0  0  0  0
  197.9410  174.8920  143.2080 C   0  0  2  0  0  3  0  0  0  0  0  0
  197.6390  174.3960  141.7970 C   0  0  0  0  0  2  0  0  0  0  0  0
  195.7600  175.4000  140.7940 C   0  0  1  0  0  3  0  0  0  0  0  0
  197.3380  174.9750  139.3010 S   0  0  0  0  0  0  0  0  0  0  0  0
  197.8810  176.0280  138.3760 O   0  0  0  0  0  0  0  0  0  0  0  0
  195.1360  176.7740  140.9670 C   0  0  0  0  0  1  0  0  0  0  0  0
  195.6360  174.9660  139.3880 N   0  0  0  0  0  2  0  0  0  0  0  0
  197.2270  175.4930  140.9290 N   0  0  0  0  0  0  0  0  0  0  0  0
  197.9360  173.6090  139.0990 O   0  0  0  0  0  0  0  0  0  0  0  0
  1 29  1  1  0  0  0
  1  7  1  0  0  0  0
  4 10  2  0  0  0  0
  5  2  1  0  0  0  0
  5 17  2  0  0  0  0
  6  3  1  6  0  0  0
  6 14  1  0  0  0  0
  6 13  1  0  0  0  0
  7  2  2  0  0  0  0
  8  4  1  0  0  0  0
 11 20  2  0  0  0  0
 11 22  1  0  0  0  0
 15 12  1  6  0  0  0
 15 20  1  0  0  0  0
 15  9  1  0  0  0  0
 16 10  1  0  0  0  0
 18 15  1  0  0  0  0
 18 13  1  0  0  0  0
 19 14  1  6  0  0  0
 19  1  1  0  0  0  0
 19 21  1  0  0  0  0
 20 16  1  0  0  0  0
 21 10  1  1  0  0  0
 21  5  1  0  0  0  0
 22  8  2  0  0  0  0
 24 22  1  1  0  0  0
 24 26  1  0  0  0  0
 25 23  1  6  0  0  0
 25 26  1  0  0  0  0
 27 28  1  0  0  0  0
 27 24  1  0  0  0  0
 28 25  1  0  0  0  0
 29 30  1  0  0  0  0
 30 31  2  0  0  0  0
 33 32  1  6  0  0  0
 33 30  1  0  0  0  0
 34 33  1  0  0  0  0
 35 40  1  0  0  0  0
 35 38  1  6  0  0  0
 36 39  1  0  0  0  0
 36 40  1  0  0  0  0
 37 36  2  0  0  0  0
 39 35  1  0  0  0  0
 40 34  1  0  0  0  0
 41 36  2  0  0  0  0
M  END
>  <MODEL>
7

>  <REMARK>
 VINA RESULT:      -7.9      3.691      9.764
  Name = 
  6 active torsions:
  status: ('A' for Active; 'I' for Inactive)
    1  A    between atoms: C_1  and  C_28
    2  A    between atoms: C_4  and  C_28
    3  A    between atoms: C_4  and  C_34
    4  A    between atoms: C_19  and  C_40
    5  A    between atoms: N_33  and  C_38
    6  A    between atoms: C_34  and  C_38
                            x       y       z     vdW  Elec       q    Type
                         _______ _______ _______ _____ _____    ______ ____

>  <TORSDO>
F 6

$$$$
=
 OpenBabel11062422183D

 41 45  0  0  1  0  0  0  0  0999 V2000
  192.7490  175.1520  145.8000 C   0  0  2  0  0  3  0  0  0  0  0  0
  191.1920  175.4230  147.7190 C   0  0  0  0  0  3  0  0  0  0  0  0
  193.0430  174.1630  141.8620 C   0  0  0  0  0  1  0  0  0  0  0  0
  188.8090  177.7870  144.6300 C   0  0  0  0  0  3  0  0  0  0  0  0
  190.2290  176.1000  146.8400 C   0  0  0  0  0  0  0  0  0  0  0  0
  191.9950  174.1380  142.9610 C   0  0  2  0  0  3  0  0  0  0  0  0
  192.3500  174.9650  147.2410 C   0  0  0  0  0  3  0  0  0  0  0  0
  187.5870  178.2870  143.9970 C   0  0  0  0  0  3  0  0  0  0  0  0
  187.9550  173.4070  141.8150 O   0  0  0  0  0  1  0  0  0  0  0  0
  189.3720  176.5820  144.5160 C   0  0  0  0  0  0  0  0  0  0  0  0
  187.3910  176.6430  142.1500 C   0  0  0  0  0  3  0  0  0  0  0  0
  188.0750  174.9540  140.0270 C   0  0  0  0  0  1  0  0  0  0  0  0
  190.6600  173.5860  142.4640 C   0  0  0  0  0  2  0  0  0  0  0  0
  191.8630  175.4110  143.5410 O   0  0  0  0  0  0  0  0  0  0  0  0
  188.5700  174.6000  141.4270 C   0  0  2  0  0  0  0  0  0  0  0  0
  188.8760  175.5520  143.7100 O   0  0  0  0  0  0  0  0  0  0  0  0
  189.1510  176.5330  147.3270 O   0  0  0  0  0  0  0  0  0  0  0  0
  190.0830  174.4090  141.3160 C   0  0  0  0  0  2  0  0  0  0  0  0
  191.5040  175.1930  144.8850 C   0  0  2  0  0  3  0  0  0  0  0  0
  188.2650  175.6770  142.4520 C   0  0  0  0  0  0  0  0  0  0  0  0
  190.5780  176.3220  145.3830 C   0  0  2  0  0  3  0  0  0  0  0  0
  186.9300  177.7790  142.9600 C   0  0  0  0  0  0  0  0  0  0  0  0
  182.5270  178.4690  140.5140 C   0  0  0  0  0  1  0  0  0  0  0  0
  185.7230  178.5320  142.4970 C   0  0  1  0  0  3  0  0  0  0  0  0
  183.4870  177.8850  141.5290 C   0  0  1  0  0  3  0  0  0  0  0  0
  185.1710  177.9360  140.8770 S   0  0  0  0  0  0  0  0  0  0  0  0
  184.6300  178.3870  143.4490 N   0  0  0  0  0  2  0  0  0  0  0  0
  183.4460  178.6700  142.7500 N   0  0  0  0  0  2  0  0  0  0  0  0
  193.7210  174.0460  145.4040 C   0  0  0  0  0  2  0  0  0  0  0  0
  195.0950  174.5890  145.1790 C   0  0  0  0  0  0  0  0  0  0  0  0
  195.2400  175.7310  144.7720 O   0  0  0  0  0  0  0  0  0  0  0  0
  197.1670  173.7510  144.3660 O   0  0  0  0  0  1  0  0  0  0  0  0
  196.2820  173.7150  145.4440 C   0  0  2  0  0  3  0  0  0  0  0  0
  195.8740  172.2800  145.7630 C   0  0  0  0  0  2  0  0  0  0  0  0
  195.2030  170.9120  143.9680 C   0  0  1  0  0  3  0  0  0  0  0  0
  196.4200  169.7800  145.4300 S   0  0  0  0  0  0  0  0  0  0  0  0
  197.6390  168.9960  145.0340 O   0  0  0  0  0  0  0  0  0  0  0  0
  195.5290  170.9600  142.4850 C   0  0  0  0  0  1  0  0  0  0  0  0
  195.0810  169.5080  144.4100 N   0  0  0  0  0  2  0  0  0  0  0  0
  196.3720  171.3520  144.7550 N   0  0  0  0  0  0  0  0  0  0  0  0
  196.0830  169.6990  146.8950 O   0  0  0  0  0  0  0  0  0  0  0  0
  1 29  1  6  0  0  0
  1  7  1  0  0  0  0
  5 17  2  0  0  0  0
  5  2  1  0  0  0  0
  6  3  1  6  0  0  0
  6 14  1  0  0  0  0
  7  2  2  0  0  0  0
  8  4  1  0  0  0  0
 10  4  2  0  0  0  0
 11 20  2  0  0  0  0
 11 22  1  0  0  0  0
 13  6  1  0  0  0  0
 15 12  1  6  0  0  0
 15  9  1  0  0  0  0
 15 20  1  0  0  0  0
 16 10  1  0  0  0  0
 18 15  1  0  0  0  0
 18 13  1  0  0  0  0
 19 14  1  6  0  0  0
 19 21  1  0  0  0  0
 19  1  1  0  0  0  0
 20 16  1  0  0  0  0
 21 10  1  6  0  0  0
 21  5  1  0  0  0  0
 22  8  2  0  0  0  0
 24 22  1  1  0  0  0
 24 27  1  0  0  0  0
 25 23  1  6  0  0  0
 25 28  1  0  0  0  0
 26 25  1  0  0  0  0
 26 24  1  0  0  0  0
 28 27  1  0  0  0  0
 30 29  1  0  0  0  0
 30 33  1  0  0  0  0
 31 30  2  0  0  0  0
 33 32  1  6  0  0  0
 33 34  1  0  0  0  0
 35 38  1  6  0  0  0
 35 39  1  0  0  0  0
 35 40  1  0  0  0  0
 36 41  2  0  0  0  0
 37 36  2  0  0  0  0
 39 36  1  0  0  0  0
 40 36  1  0  0  0  0
 40 34  1  0  0  0  0
M  END
>  <MODEL>
8

>  <REMARK>
 VINA RESULT:      -7.7      2.795      9.958
  Name = 
  6 active torsions:
  status: ('A' for Active; 'I' for Inactive)
    1  A    between atoms: C_1  and  C_28
    2  A    between atoms: C_4  and  C_28
    3  A    between atoms: C_4  and  C_34
    4  A    between atoms: C_19  and  C_40
    5  A    between atoms: N_33  and  C_38
    6  A    between atoms: C_34  and  C_38
                            x       y       z     vdW  Elec       q    Type
                         _______ _______ _______ _____ _____    ______ ____

>  <TORSDO>
F 6

$$$$
=
 OpenBabel11062422183D

 41 45  0  0  1  0  0  0  0  0999 V2000
  190.7430  175.9070  144.4580 C   0  0  2  0  0  3  0  0  0  0  0  0
  191.2760  177.6640  142.7810 C   0  0  0  0  0  3  0  0  0  0  0  0
  188.3280  174.8990  147.5760 C   0  0  0  0  0  1  0  0  0  0  0  0
  186.7560  177.5540  142.1730 C   0  0  0  0  0  3  0  0  0  0  0  0
  189.8400  177.8660  142.5400 C   0  0  0  0  0  0  0  0  0  0  0  0
  188.6260  176.1200  146.7220 C   0  0  2  0  0  3  0  0  0  0  0  0
  191.6990  176.7750  143.6810 C   0  0  0  0  0  3  0  0  0  0  0  0
  185.4450  178.1300  141.8680 C   0  0  0  0  0  3  0  0  0  0  0  0
  185.9710  179.4390  147.0380 O   0  0  0  0  0  1  0  0  0  0  0  0
  187.4500  177.6200  143.3100 C   0  0  0  0  0  0  0  0  0  0  0  0
  184.6180  178.4880  144.1790 C   0  0  0  0  0  3  0  0  0  0  0  0
  184.0570  178.0540  146.8860 C   0  0  0  0  0  1  0  0  0  0  0  0
  187.7850  177.3260  147.1380 C   0  0  0  0  0  2  0  0  0  0  0  0
  188.4780  175.8110  145.3590 O   0  0  0  0  0  0  0  0  0  0  0  0
  185.5120  178.2490  146.4660 C   0  0  2  0  0  0  0  0  0  0  0  0
  187.0040  178.2620  144.4710 O   0  0  0  0  0  0  0  0  0  0  0  0
  189.4750  178.7040  141.6730 O   0  0  0  0  0  0  0  0  0  0  0  0
  186.2880  177.0560  147.0250 C   0  0  0  0  0  2  0  0  0  0  0  0
  189.3940  176.6290  144.6720 C   0  0  2  0  0  3  0  0  0  0  0  0
  185.6900  178.3150  144.9600 C   0  0  0  0  0  0  0  0  0  0  0  0
  188.8330  177.0180  143.2880 C   0  0  2  0  0  3  0  0  0  0  0  0
  184.5300  178.5870  142.7150 C   0  0  0  0  0  0  0  0  0  0  0  0
  180.0710  178.2310  140.2990 C   0  0  0  0  0  1  0  0  0  0  0  0
  183.2510  179.0840  142.1180 C   0  0  1  0  0  3  0  0  0  0  0  0
  181.0890  178.0070  141.3980 C   0  0  1  0  0  3  0  0  0  0  0  0
  182.7570  178.0610  140.7060 S   0  0  0  0  0  0  0  0  0  0  0  0
  182.1820  179.0690  143.1070 N   0  0  0  0  0  2  0  0  0  0  0  0
  180.9730  179.0570  142.3950 N   0  0  0  0  0  2  0  0  0  0  0  0
  191.3960  175.5020  145.7750 C   0  0  0  0  0  2  0  0  0  0  0  0
  192.7300  174.8680  145.5440 C   0  0  0  0  0  0  0  0  0  0  0  0
  193.7480  175.5320  145.6590 O   0  0  0  0  0  0  0  0  0  0  0  0
  193.8550  172.7900  145.8150 O   0  0  0  0  0  1  0  0  0  0  0  0
  192.7990  173.4220  145.1580 C   0  0  2  0  0  3  0  0  0  0  0  0
  192.9120  173.2390  143.6480 C   0  0  0  0  0  2  0  0  0  0  0  0
  191.0010  171.8630  143.6780 C   0  0  1  0  0  3  0  0  0  0  0  0
  191.7830  172.1090  141.6220 S   0  0  0  0  0  0  0  0  0  0  0  0
  190.9240  172.5740  140.4800 O   0  0  0  0  0  0  0  0  0  0  0  0
  189.5570  172.1490  144.0510 C   0  0  0  0  0  1  0  0  0  0  0  0
  191.0500  170.8930  142.5660 N   0  0  0  0  0  2  0  0  0  0  0  0
  191.6000  173.0510  143.0390 N   0  0  0  0  0  0  0  0  0  0  0  0
  193.2040  171.7940  141.2370 O   0  0  0  0  0  0  0  0  0  0  0  0
  1 19  1  0  0  0  0
  1 29  1  1  0  0  0
  2  7  2  0  0  0  0
  4 10  2  0  0  0  0
  5  2  1  0  0  0  0
  6 13  1  0  0  0  0
  6  3  1  1  0  0  0
  7  1  1  0  0  0  0
  8  4  1  0  0  0  0
  8 22  2  0  0  0  0
 10 16  1  0  0  0  0
 11 20  2  0  0  0  0
 14  6  1  0  0  0  0
 15 12  1  1  0  0  0
 15 18  1  0  0  0  0
 15  9  1  0  0  0  0
 16 20  1  0  0  0  0
 17  5  2  0  0  0  0
 18 13  1  0  0  0  0
 19 14  1  6  0  0  0
 20 15  1  0  0  0  0
 21  5  1  1  0  0  0
 21 10  1  0  0  0  0
 21 19  1  0  0  0  0
 22 11  1  0  0  0  0
 24 22  1  1  0  0  0
 24 27  1  0  0  0  0
 25 23  1  6  0  0  0
 25 28  1  0  0  0  0
 26 25  1  0  0  0  0
 26 24  1  0  0  0  0
 28 27  1  0  0  0  0
 30 31  2  0  0  0  0
 30 29  1  0  0  0  0
 33 30  1  0  0  0  0
 33 32  1  1  0  0  0
 34 33  1  0  0  0  0
 35 38  1  6  0  0  0
 36 39  1  0  0  0  0
 36 40  1  0  0  0  0
 37 36  2  0  0  0  0
 39 35  1  0  0  0  0
 40 34  1  0  0  0  0
 40 35  1  0  0  0  0
 41 36  2  0  0  0  0
M  END
>  <MODEL>
9

>  <REMARK>
 VINA RESULT:      -7.7      3.017      9.711
  Name = 
  6 active torsions:
  status: ('A' for Active; 'I' for Inactive)
    1  A    between atoms: C_1  and  C_28
    2  A    between atoms: C_4  and  C_28
    3  A    between atoms: C_4  and  C_34
    4  A    between atoms: C_19  and  C_40
    5  A    between atoms: N_33  and  C_38
    6  A    between atoms: C_34  and  C_38
                            x       y       z     vdW  Elec       q    Type
                         _______ _______ _______ _____ _____    ______ ____

>  <TORSDO>
F 6

$$$$
