=
 OpenBabel11062419513D

 30 34  0  0  1  0  0  0  0  0999 V2000
  190.4250  173.6220  140.3590 C   0  0  0  0  0  3  0  0  0  0  0  0
  191.1310  173.8000  141.4710 C   0  0  0  0  0  3  0  0  0  0  0  0
  188.1930  174.8070  140.9280 C   0  0  0  0  0  3  0  0  0  0  0  0
  188.4280  175.2340  142.1610 C   0  0  0  0  0  0  0  0  0  0  0  0
  189.0960  174.0750  140.1010 N   0  0  0  0  0  0  0  0  0  0  0  0
  189.3220  175.7710  144.3060 C   0  0  0  0  0  2  0  0  0  0  0  0
  189.6220  175.0910  142.9980 C   0  0  0  0  0  0  0  0  0  0  0  0
  190.7910  174.4890  142.7300 C   0  0  0  0  0  0  0  0  0  0  0  0
  187.9640  176.2710  144.1340 N   0  0  0  0  0  0  0  0  0  0  0  0
  187.4420  175.9530  142.8780 N   0  0  0  0  0  0  0  0  0  0  0  0
  195.4490  175.2910  143.5440 C   0  0  1  0  0  3  0  0  0  0  0  0
  196.6470  174.5350  144.1550 C   0  0  0  0  0  2  0  0  0  0  0  0
  192.9530  175.3840  143.4320 N   0  0  0  0  0  2  0  0  0  0  0  0
  191.8530  174.4870  143.7930 C   0  0  2  0  0  3  0  0  0  0  0  0
  196.3580  173.9740  145.8750 S   0  0  0  0  0  0  0  0  0  0  0  0
  193.9620  173.6000  144.6700 C   0  0  0  0  0  0  0  0  0  0  0  0
  192.4880  172.8030  144.0850 S   0  0  0  0  0  0  0  0  0  0  0  0
  195.3920  174.9730  142.0570 C   0  0  0  0  0  1  0  0  0  0  0  0
  194.1020  175.0230  144.2580 C   0  0  1  0  0  3  0  0  0  0  0  0
  194.8750  171.2850  145.7640 Cl  0  0  0  0  0  0  0  0  0  0  0  0
  194.9210  173.0030  145.3900 C   0  0  0  0  0  0  0  0  0  0  0  0
  187.2290  176.9880  145.1350 C   0  0  0  0  0  0  0  0  0  0  0  0
  185.9150  178.8110  146.9110 C   0  0  0  0  0  2  0  0  0  0  0  0
  187.0030  177.9110  147.4810 C   0  0  0  0  0  2  0  0  0  0  0  0
  185.0690  178.0350  145.9010 C   0  0  1  0  0  0  0  0  0  0  0  0
  185.9430  177.3020  144.9100 C   0  0  0  0  0  3  0  0  0  0  0  0
  184.2870  177.1050  146.5930 O   0  0  0  0  0  1  0  0  0  0  0  0
  187.9510  177.4890  146.3630 C   0  0  0  0  0  2  0  0  0  0  0  0
  184.2110  178.9700  145.2080 N   0  0  0  0  0  0  0  0  0  0  0  0
  184.0360  178.9280  143.9340 C   0  0  0  0  0  2  0  0  0  0  0  0
  1  2  2  0  0  0  0
  2  8  1  0  0  0  0
  3  4  1  0  0  0  0
  4 10  2  0  0  0  0
  4  7  1  0  0  0  0
  5  1  1  0  0  0  0
  5  3  2  0  0  0  0
  7  6  1  0  0  0  0
  8  7  2  0  0  0  0
  9  6  1  0  0  0  0
  9 22  1  0  0  0  0
 10  9  1  0  0  0  0
 11 18  1  6  0  0  0
 11 12  1  0  0  0  0
 11 19  1  0  0  0  0
 12 15  1  0  0  0  0
 13 14  1  0  0  0  0
 14  8  1  6  0  0  0
 14 17  1  0  0  0  0
 16 21  2  0  0  0  0
 17 16  1  0  0  0  0
 19 13  1  6  0  0  0
 19 16  1  0  0  0  0
 21 20  1  0  0  0  0
 21 15  1  0  0  0  0
 22 28  1  0  0  0  0
 23 24  1  0  0  0  0
 25 27  1  1  0  0  0
 25 23  1  0  0  0  0
 26 22  2  0  0  0  0
 26 25  1  0  0  0  0
 28 24  1  0  0  0  0
 29 25  1  0  0  0  0
 30 29  2  0  0  0  0
M  END
>  <MODEL>
1

>  <REMARK>
 VINA RESULT:      -7.4      0.000      0.000
  Name = 
  3 active torsions:
  status: ('A' for Active; 'I' for Inactive)
    1  A    between atoms: C_1  and  N_28
    2  A    between atoms: C_12  and  C_25
    3  A    between atoms: N_13  and  C_16
                            x       y       z     vdW  Elec       q    Type
                         _______ _______ _______ _____ _____    ______ ____

>  <TORSDO>
F 3

$$$$
=
 OpenBabel11062419513D

 30 34  0  0  1  0  0  0  0  0999 V2000
  192.4900  174.3250  145.5340 C   0  0  0  0  0  3  0  0  0  0  0  0
  191.8600  173.7760  144.5000 C   0  0  0  0  0  3  0  0  0  0  0  0
  190.9190  176.2880  146.1560 C   0  0  0  0  0  3  0  0  0  0  0  0
  189.9580  176.1530  145.2520 C   0  0  0  0  0  0  0  0  0  0  0  0
  192.0720  175.4610  146.2920 N   0  0  0  0  0  0  0  0  0  0  0  0
  188.5210  175.4990  143.4640 C   0  0  0  0  0  2  0  0  0  0  0  0
  189.8010  175.1660  144.1810 C   0  0  0  0  0  0  0  0  0  0  0  0
  190.5930  174.1380  143.8380 C   0  0  0  0  0  0  0  0  0  0  0  0
  188.0160  176.6640  144.1780 N   0  0  0  0  0  0  0  0  0  0  0  0
  188.8610  177.0470  145.2230 N   0  0  0  0  0  0  0  0  0  0  0  0
  191.0530  169.7730  141.9030 C   0  0  1  0  0  3  0  0  0  0  0  0
  191.4780  169.1640  140.5510 C   0  0  0  0  0  2  0  0  0  0  0  0
  190.2520  171.8590  143.0260 N   0  0  0  0  0  2  0  0  0  0  0  0
  190.1860  173.2790  142.6750 C   0  0  2  0  0  3  0  0  0  0  0  0
  190.4990  169.7820  139.1310 S   0  0  0  0  0  0  0  0  0  0  0  0
  190.8010  171.9700  140.6980 C   0  0  0  0  0  0  0  0  0  0  0  0
  191.2240  173.6140  141.2150 S   0  0  0  0  0  0  0  0  0  0  0  0
  192.2930  169.9150  142.7740 C   0  0  0  0  0  1  0  0  0  0  0  0
  190.2640  171.0990  141.7790 C   0  0  1  0  0  3  0  0  0  0  0  0
  191.7490  172.4270  138.1910 Cl  0  0  0  0  0  0  0  0  0  0  0  0
  190.9720  171.4890  139.4590 C   0  0  0  0  0  0  0  0  0  0  0  0
  186.8070  177.3610  143.8470 C   0  0  0  0  0  0  0  0  0  0  0  0
  184.1710  178.3730  143.3640 C   0  0  0  0  0  2  0  0  0  0  0  0
  185.0650  178.0950  142.1630 C   0  0  0  0  0  2  0  0  0  0  0  0
  184.9940  178.9830  144.4990 C   0  0  1  0  0  0  0  0  0  0  0  0
  186.2520  178.1840  144.7490 C   0  0  0  0  0  3  0  0  0  0  0  0
  185.3470  180.2890  144.1440 O   0  0  0  0  0  1  0  0  0  0  0  0
  186.1150  177.0550  142.5400 C   0  0  0  0  0  2  0  0  0  0  0  0
  184.1780  179.0090  145.6940 N   0  0  0  0  0  0  0  0  0  0  0  0
  184.4370  178.2760  146.7180 C   0  0  0  0  0  2  0  0  0  0  0  0
  1  5  1  0  0  0  0
  2  1  2  0  0  0  0
  3  5  2  0  0  0  0
  4  3  1  0  0  0  0
  6  9  1  0  0  0  0
  6  7  1  0  0  0  0
  7  4  1  0  0  0  0
  8  7  2  0  0  0  0
  8  2  1  0  0  0  0
  9 10  1  0  0  0  0
 10  4  2  0  0  0  0
 11 18  1  1  0  0  0
 12 11  1  0  0  0  0
 14 13  1  0  0  0  0
 14  8  1  1  0  0  0
 15 21  1  0  0  0  0
 15 12  1  0  0  0  0
 16 17  1  0  0  0  0
 17 14  1  0  0  0  0
 19 16  1  6  0  0  0
 19 11  1  0  0  0  0
 19 13  1  0  0  0  0
 20 21  1  0  0  0  0
 21 16  2  0  0  0  0
 22  9  1  0  0  0  0
 22 26  2  0  0  0  0
 23 25  1  0  0  0  0
 24 28  1  0  0  0  0
 24 23  1  0  0  0  0
 25 27  1  6  0  0  0
 25 26  1  0  0  0  0
 25 29  1  0  0  0  0
 28 22  1  0  0  0  0
 29 30  2  0  0  0  0
M  END
>  <MODEL>
2

>  <REMARK>
 VINA RESULT:      -7.3      3.049      4.923
  Name = 
  3 active torsions:
  status: ('A' for Active; 'I' for Inactive)
    1  A    between atoms: C_1  and  N_28
    2  A    between atoms: C_12  and  C_25
    3  A    between atoms: N_13  and  C_16
                            x       y       z     vdW  Elec       q    Type
                         _______ _______ _______ _____ _____    ______ ____

>  <TORSDO>
F 3

$$$$
=
 OpenBabel11062419513D

 30 34  0  0  1  0  0  0  0  0999 V2000
  193.3060  174.0280  145.7480 C   0  0  0  0  0  3  0  0  0  0  0  0
  192.4880  173.7540  144.7360 C   0  0  0  0  0  3  0  0  0  0  0  0
  191.9470  175.7700  147.0990 C   0  0  0  0  0  3  0  0  0  0  0  0
  190.8430  175.8660  146.3710 C   0  0  0  0  0  0  0  0  0  0  0  0
  193.0710  174.9370  146.8240 N   0  0  0  0  0  0  0  0  0  0  0  0
  189.0980  175.6800  144.7550 C   0  0  0  0  0  2  0  0  0  0  0  0
  190.4660  175.1790  145.1340 C   0  0  0  0  0  0  0  0  0  0  0  0
  191.1440  174.2700  144.4150 C   0  0  0  0  0  0  0  0  0  0  0  0
  188.7720  176.6290  145.8120 N   0  0  0  0  0  0  0  0  0  0  0  0
  189.7970  176.7380  146.7550 N   0  0  0  0  0  0  0  0  0  0  0  0
  190.8110  170.3940  141.6100 C   0  0  1  0  0  3  0  0  0  0  0  0
  191.0130  170.0430  140.1210 C   0  0  0  0  0  2  0  0  0  0  0  0
  190.4170  172.2700  143.2160 N   0  0  0  0  0  2  0  0  0  0  0  0
  190.5100  173.7300  143.1650 C   0  0  2  0  0  3  0  0  0  0  0  0
  189.9910  171.0550  138.9860 S   0  0  0  0  0  0  0  0  0  0  0  0
  190.7420  172.8110  140.9060 C   0  0  0  0  0  0  0  0  0  0  0  0
  191.4340  174.2490  141.6820 S   0  0  0  0  0  0  0  0  0  0  0  0
  192.1390  170.2070  142.3280 C   0  0  0  0  0  1  0  0  0  0  0  0
  190.2010  171.7960  141.8510 C   0  0  1  0  0  3  0  0  0  0  0  0
  191.4890  173.6820  138.4410 Cl  0  0  0  0  0  0  0  0  0  0  0  0
  190.7210  172.5890  139.5850 C   0  0  0  0  0  0  0  0  0  0  0  0
  187.5560  177.3850  145.8780 C   0  0  0  0  0  0  0  0  0  0  0  0
  185.4080  179.2770  145.9830 C   0  0  0  0  0  2  0  0  0  0  0  0
  185.6360  178.3830  147.1940 C   0  0  0  0  0  2  0  0  0  0  0  0
  185.6190  178.4810  144.6950 C   0  0  1  0  0  0  0  0  0  0  0  0
  186.9170  177.7080  144.7420 C   0  0  0  0  0  3  0  0  0  0  0  0
  184.5590  177.5820  144.5450 O   0  0  0  0  0  1  0  0  0  0  0  0
  187.0880  177.9150  147.2130 C   0  0  0  0  0  2  0  0  0  0  0  0
  185.6340  179.4050  143.5820 N   0  0  0  0  0  0  0  0  0  0  0  0
  185.9470  179.0390  142.3890 C   0  0  0  0  0  2  0  0  0  0  0  0
  1  5  1  0  0  0  0
  2  1  2  0  0  0  0
  4 10  2  0  0  0  0
  4  3  1  0  0  0  0
  5  3  2  0  0  0  0
  6  7  1  0  0  0  0
  6  9  1  0  0  0  0
  7  4  1  0  0  0  0
  8  2  1  0  0  0  0
  8  7  2  0  0  0  0
  9 22  1  0  0  0  0
  9 10  1  0  0  0  0
 11 19  1  0  0  0  0
 11 18  1  1  0  0  0
 12 11  1  0  0  0  0
 14 13  1  0  0  0  0
 14  8  1  1  0  0  0
 15 21  1  0  0  0  0
 15 12  1  0  0  0  0
 16 17  1  0  0  0  0
 17 14  1  0  0  0  0
 19 16  1  6  0  0  0
 19 13  1  0  0  0  0
 20 21  1  0  0  0  0
 21 16  2  0  0  0  0
 22 28  1  0  0  0  0
 23 24  1  0  0  0  0
 24 28  1  0  0  0  0
 25 27  1  6  0  0  0
 25 26  1  0  0  0  0
 25 23  1  0  0  0  0
 26 22  2  0  0  0  0
 29 25  1  0  0  0  0
 30 29  2  0  0  0  0
M  END
>  <MODEL>
3

>  <REMARK>
 VINA RESULT:      -7.0      2.922      4.833
  Name = 
  3 active torsions:
  status: ('A' for Active; 'I' for Inactive)
    1  A    between atoms: C_1  and  N_28
    2  A    between atoms: C_12  and  C_25
    3  A    between atoms: N_13  and  C_16
                            x       y       z     vdW  Elec       q    Type
                         _______ _______ _______ _____ _____    ______ ____

>  <TORSDO>
F 3

$$$$
=
 OpenBabel11062419513D

 30 34  0  0  1  0  0  0  0  0999 V2000
  193.0940  175.4110  146.3670 C   0  0  0  0  0  3  0  0  0  0  0  0
  193.0320  175.4220  145.0390 C   0  0  0  0  0  3  0  0  0  0  0  0
  190.7590  176.3080  147.0360 C   0  0  0  0  0  3  0  0  0  0  0  0
  190.2040  176.5110  145.8480 C   0  0  0  0  0  0  0  0  0  0  0  0
  192.0710  175.8080  147.2800 N   0  0  0  0  0  0  0  0  0  0  0  0
  189.6710  176.6960  143.5310 C   0  0  0  0  0  2  0  0  0  0  0  0
  190.7440  176.2900  144.5050 C   0  0  0  0  0  0  0  0  0  0  0  0
  191.9450  175.8230  144.1270 C   0  0  0  0  0  0  0  0  0  0  0  0
  188.5710  177.1230  144.3850 N   0  0  0  0  0  0  0  0  0  0  0  0
  188.8870  177.0170  145.7420 N   0  0  0  0  0  0  0  0  0  0  0  0
  192.5490  172.6970  140.5410 C   0  0  1  0  0  3  0  0  0  0  0  0
  193.6120  172.3830  139.4680 C   0  0  0  0  0  2  0  0  0  0  0  0
  191.7180  174.4460  142.1230 N   0  0  0  0  0  2  0  0  0  0  0  0
  192.2370  175.7060  142.6580 C   0  0  2  0  0  3  0  0  0  0  0  0
  194.0160  173.8150  138.3990 S   0  0  0  0  0  0  0  0  0  0  0  0
  193.6900  174.9200  140.8490 C   0  0  0  0  0  0  0  0  0  0  0  0
  194.0240  175.8390  142.3300 S   0  0  0  0  0  0  0  0  0  0  0  0
  192.8740  171.8850  141.7860 C   0  0  0  0  0  1  0  0  0  0  0  0
  192.3840  174.2050  140.8450 C   0  0  1  0  0  3  0  0  0  0  0  0
  196.1430  175.5060  139.8350 Cl  0  0  0  0  0  0  0  0  0  0  0  0
  194.5270  174.8120  139.8100 C   0  0  0  0  0  0  0  0  0  0  0  0
  187.3140  177.6180  143.9050 C   0  0  0  0  0  0  0  0  0  0  0  0
  184.6370  178.1740  143.0490 C   0  0  0  0  0  2  0  0  0  0  0  0
  185.7470  178.2160  142.0080 C   0  0  0  0  0  2  0  0  0  0  0  0
  185.1270  178.7830  144.3630 C   0  0  1  0  0  0  0  0  0  0  0  0
  186.4660  178.2070  144.7630 C   0  0  0  0  0  3  0  0  0  0  0  0
  185.2580  180.1650  144.1950 O   0  0  0  0  0  1  0  0  0  0  0  0
  186.9140  177.3510  142.4730 C   0  0  0  0  0  2  0  0  0  0  0  0
  184.1440  178.5100  145.3890 N   0  0  0  0  0  0  0  0  0  0  0  0
  184.3970  178.6620  146.6410 C   0  0  0  0  0  2  0  0  0  0  0  0
  1  5  1  0  0  0  0
  2  1  2  0  0  0  0
  3  5  2  0  0  0  0
  4  3  1  0  0  0  0
  6  9  1  0  0  0  0
  6  7  1  0  0  0  0
  7  4  1  0  0  0  0
  8  7  2  0  0  0  0
  8  2  1  0  0  0  0
  9 10  1  0  0  0  0
 10  4  2  0  0  0  0
 11 19  1  0  0  0  0
 11 18  1  1  0  0  0
 12 11  1  0  0  0  0
 13 14  1  0  0  0  0
 14  8  1  1  0  0  0
 15 12  1  0  0  0  0
 15 21  1  0  0  0  0
 16 17  1  0  0  0  0
 17 14  1  0  0  0  0
 19 16  1  1  0  0  0
 19 13  1  0  0  0  0
 21 20  1  0  0  0  0
 21 16  2  0  0  0  0
 22  9  1  0  0  0  0
 22 26  2  0  0  0  0
 23 25  1  0  0  0  0
 24 28  1  0  0  0  0
 24 23  1  0  0  0  0
 25 27  1  6  0  0  0
 25 26  1  0  0  0  0
 25 29  1  0  0  0  0
 28 22  1  0  0  0  0
 29 30  2  0  0  0  0
M  END
>  <MODEL>
4

>  <REMARK>
 VINA RESULT:      -6.9      2.786      4.442
  Name = 
  3 active torsions:
  status: ('A' for Active; 'I' for Inactive)
    1  A    between atoms: C_1  and  N_28
    2  A    between atoms: C_12  and  C_25
    3  A    between atoms: N_13  and  C_16
                            x       y       z     vdW  Elec       q    Type
                         _______ _______ _______ _____ _____    ______ ____

>  <TORSDO>
F 3

$$$$
=
 OpenBabel11062419513D

 30 34  0  0  1  0  0  0  0  0999 V2000
  190.6020  173.3940  139.5810 C   0  0  0  0  0  3  0  0  0  0  0  0
  191.0930  173.7380  140.7680 C   0  0  0  0  0  3  0  0  0  0  0  0
  188.2550  174.4880  139.6170 C   0  0  0  0  0  3  0  0  0  0  0  0
  188.2500  175.0630  140.8130 C   0  0  0  0  0  0  0  0  0  0  0  0
  189.3200  173.7290  139.0500 N   0  0  0  0  0  0  0  0  0  0  0  0
  188.7280  175.8900  142.9980 C   0  0  0  0  0  2  0  0  0  0  0  0
  189.2830  175.0890  141.8510 C   0  0  0  0  0  0  0  0  0  0  0  0
  190.5060  174.5380  141.8600 C   0  0  0  0  0  0  0  0  0  0  0  0
  187.4010  176.2790  142.5400 N   0  0  0  0  0  0  0  0  0  0  0  0
  187.1220  175.7910  141.2600 N   0  0  0  0  0  0  0  0  0  0  0  0
  194.8540  175.8950  143.3620 C   0  0  1  0  0  3  0  0  0  0  0  0
  195.9960  175.3160  144.2240 C   0  0  0  0  0  2  0  0  0  0  0  0
  192.4180  175.7080  142.8320 N   0  0  0  0  0  2  0  0  0  0  0  0
  191.3640  174.7210  143.0800 C   0  0  2  0  0  3  0  0  0  0  0  0
  195.4680  174.8410  145.9130 S   0  0  0  0  0  0  0  0  0  0  0  0
  193.3650  174.1290  144.3640 C   0  0  0  0  0  0  0  0  0  0  0  0
  192.0980  173.1400  143.6110 S   0  0  0  0  0  0  0  0  0  0  0  0
  195.0860  175.4760  141.9180 C   0  0  0  0  0  1  0  0  0  0  0  0
  193.4360  175.5290  143.8640 C   0  0  1  0  0  3  0  0  0  0  0  0
  194.2940  172.0040  145.7820 Cl  0  0  0  0  0  0  0  0  0  0  0  0
  194.2380  173.6880  145.2790 C   0  0  0  0  0  0  0  0  0  0  0  0
  186.4700  177.0540  143.3080 C   0  0  0  0  0  0  0  0  0  0  0  0
  184.4300  178.1820  144.9720 C   0  0  0  0  0  2  0  0  0  0  0  0
  184.3830  178.4770  143.4790 C   0  0  0  0  0  2  0  0  0  0  0  0
  185.8760  178.2090  145.4670 C   0  0  1  0  0  0  0  0  0  0  0  0
  186.7710  177.3790  144.5750 C   0  0  0  0  0  3  0  0  0  0  0  0
  186.3270  179.5320  145.4600 O   0  0  0  0  0  1  0  0  0  0  0  0
  185.1170  177.3760  142.7200 C   0  0  0  0  0  2  0  0  0  0  0  0
  185.9070  177.6920  146.8170 N   0  0  0  0  0  0  0  0  0  0  0  0
  186.7180  176.7600  147.1780 C   0  0  0  0  0  2  0  0  0  0  0  0
  1  2  2  0  0  0  0
  2  8  1  0  0  0  0
  3  4  1  0  0  0  0
  4 10  2  0  0  0  0
  4  7  1  0  0  0  0
  5  1  1  0  0  0  0
  5  3  2  0  0  0  0
  7  8  2  0  0  0  0
  7  6  1  0  0  0  0
  9  6  1  0  0  0  0
  9 22  1  0  0  0  0
 10  9  1  0  0  0  0
 11 18  1  6  0  0  0
 11 19  1  0  0  0  0
 11 12  1  0  0  0  0
 12 15  1  0  0  0  0
 13 14  1  0  0  0  0
 14  8  1  6  0  0  0
 14 17  1  0  0  0  0
 16 21  2  0  0  0  0
 17 16  1  0  0  0  0
 19 13  1  6  0  0  0
 19 16  1  0  0  0  0
 21 20  1  0  0  0  0
 21 15  1  0  0  0  0
 22 26  2  0  0  0  0
 23 25  1  0  0  0  0
 24 23  1  0  0  0  0
 25 27  1  1  0  0  0
 25 29  1  0  0  0  0
 26 25  1  0  0  0  0
 28 22  1  0  0  0  0
 28 24  1  0  0  0  0
 29 30  2  0  0  0  0
M  END
>  <MODEL>
5

>  <REMARK>
 VINA RESULT:      -6.8      1.285      2.021
  Name = 
  3 active torsions:
  status: ('A' for Active; 'I' for Inactive)
    1  A    between atoms: C_1  and  N_28
    2  A    between atoms: C_12  and  C_25
    3  A    between atoms: N_13  and  C_16
                            x       y       z     vdW  Elec       q    Type
                         _______ _______ _______ _____ _____    ______ ____

>  <TORSDO>
F 3

$$$$
=
 OpenBabel11062419513D

 30 34  0  0  1  0  0  0  0  0999 V2000
  195.1440  175.6550  145.2660 C   0  0  0  0  0  3  0  0  0  0  0  0
  194.5250  175.5130  144.0980 C   0  0  0  0  0  3  0  0  0  0  0  0
  193.2060  176.3530  146.8350 C   0  0  0  0  0  3  0  0  0  0  0  0
  192.1780  176.3590  145.9980 C   0  0  0  0  0  0  0  0  0  0  0  0
  194.5570  176.0340  146.5110 N   0  0  0  0  0  0  0  0  0  0  0  0
  190.6930  176.2250  144.1360 C   0  0  0  0  0  2  0  0  0  0  0  0
  192.1250  176.0530  144.5670 C   0  0  0  0  0  0  0  0  0  0  0  0
  193.1070  175.6850  143.7300 C   0  0  0  0  0  0  0  0  0  0  0  0
  190.0080  176.6180  145.3600 N   0  0  0  0  0  0  0  0  0  0  0  0
  190.8800  176.6990  146.4490 N   0  0  0  0  0  0  0  0  0  0  0  0
  192.3870  172.2550  140.4560 C   0  0  1  0  0  3  0  0  0  0  0  0
  192.9230  171.8820  139.0570 C   0  0  0  0  0  2  0  0  0  0  0  0
  192.1660  174.1140  142.1130 N   0  0  0  0  0  2  0  0  0  0  0  0
  192.7640  175.4390  142.2880 C   0  0  2  0  0  3  0  0  0  0  0  0
  192.7310  173.2200  137.8200 S   0  0  0  0  0  0  0  0  0  0  0  0
  193.3790  174.5410  140.0930 C   0  0  0  0  0  0  0  0  0  0  0  0
  194.2330  175.6100  141.2240 S   0  0  0  0  0  0  0  0  0  0  0  0
  193.2660  171.5800  141.4990 C   0  0  0  0  0  1  0  0  0  0  0  0
  192.2510  173.7780  140.6940 C   0  0  1  0  0  3  0  0  0  0  0  0
  195.1270  175.1230  138.0950 Cl  0  0  0  0  0  0  0  0  0  0  0  0
  193.7080  174.3670  138.8070 C   0  0  0  0  0  0  0  0  0  0  0  0
  188.6070  176.9120  145.4490 C   0  0  0  0  0  0  0  0  0  0  0  0
  185.9490  177.9400  145.7390 C   0  0  0  0  0  2  0  0  0  0  0  0
  186.4050  176.8480  146.6980 C   0  0  0  0  0  2  0  0  0  0  0  0
  186.4740  177.6550  144.3320 C   0  0  1  0  0  0  0  0  0  0  0  0
  187.9510  177.3370  144.3580 C   0  0  0  0  0  3  0  0  0  0  0  0
  185.7820  176.5570  143.8090 O   0  0  0  0  0  1  0  0  0  0  0  0
  187.9270  176.8640  146.7970 C   0  0  0  0  0  2  0  0  0  0  0  0
  186.2320  178.8190  143.5080 N   0  0  0  0  0  0  0  0  0  0  0  0
  185.4860  179.7920  143.8960 C   0  0  0  0  0  2  0  0  0  0  0  0
  1  5  1  0  0  0  0
  2  1  2  0  0  0  0
  4 10  2  0  0  0  0
  4  3  1  0  0  0  0
  5  3  2  0  0  0  0
  6  7  1  0  0  0  0
  6  9  1  0  0  0  0
  7  4  1  0  0  0  0
  8  2  1  0  0  0  0
  8  7  2  0  0  0  0
  9 22  1  0  0  0  0
  9 10  1  0  0  0  0
 11 19  1  0  0  0  0
 11 18  1  1  0  0  0
 12 11  1  0  0  0  0
 13 14  1  0  0  0  0
 14  8  1  1  0  0  0
 15 21  1  0  0  0  0
 15 12  1  0  0  0  0
 16 17  1  0  0  0  0
 17 14  1  0  0  0  0
 19 16  1  1  0  0  0
 19 13  1  0  0  0  0
 20 21  1  0  0  0  0
 21 16  2  0  0  0  0
 22 28  1  0  0  0  0
 23 24  1  0  0  0  0
 24 28  1  0  0  0  0
 25 27  1  6  0  0  0
 25 26  1  0  0  0  0
 25 23  1  0  0  0  0
 26 22  2  0  0  0  0
 29 30  2  0  0  0  0
 29 25  1  0  0  0  0
M  END
>  <MODEL>
6

>  <REMARK>
 VINA RESULT:      -6.7      3.032      4.770
  Name = 
  3 active torsions:
  status: ('A' for Active; 'I' for Inactive)
    1  A    between atoms: C_1  and  N_28
    2  A    between atoms: C_12  and  C_25
    3  A    between atoms: N_13  and  C_16
                            x       y       z     vdW  Elec       q    Type
                         _______ _______ _______ _____ _____    ______ ____

>  <TORSDO>
F 3

$$$$
=
 OpenBabel11062419513D

 30 34  0  0  1  0  0  0  0  0999 V2000
  189.6970  177.5180  147.4580 C   0  0  0  0  0  3  0  0  0  0  0  0
  189.6260  177.4030  146.1350 C   0  0  0  0  0  3  0  0  0  0  0  0
  192.1280  176.7730  147.9470 C   0  0  0  0  0  3  0  0  0  0  0  0
  192.5700  176.4990  146.7270 C   0  0  0  0  0  0  0  0  0  0  0  0
  190.8240  177.2370  148.2880 N   0  0  0  0  0  0  0  0  0  0  0  0
  192.8770  176.1510  144.3880 C   0  0  0  0  0  2  0  0  0  0  0  0
  191.8890  176.5890  145.4340 C   0  0  0  0  0  0  0  0  0  0  0  0
  190.6350  176.9750  145.1490 C   0  0  0  0  0  0  0  0  0  0  0  0
  194.0770  175.8380  145.1540 N   0  0  0  0  0  0  0  0  0  0  0  0
  193.8940  176.0400  146.5240 N   0  0  0  0  0  0  0  0  0  0  0  0
  187.1030  178.2800  142.1780 C   0  0  1  0  0  3  0  0  0  0  0  0
  186.1940  177.6130  141.1240 C   0  0  0  0  0  2  0  0  0  0  0  0
  189.2430  178.0450  143.4510 N   0  0  0  0  0  2  0  0  0  0  0  0
  190.1930  176.9620  143.7130 C   0  0  2  0  0  3  0  0  0  0  0  0
  187.1210  176.7720  139.7870 S   0  0  0  0  0  0  0  0  0  0  0  0
  188.5880  176.2530  142.0030 C   0  0  0  0  0  0  0  0  0  0  0  0
  189.4540  175.3570  143.2670 S   0  0  0  0  0  0  0  0  0  0  0  0
  186.4170  178.1780  143.5320 C   0  0  0  0  0  1  0  0  0  0  0  0
  188.5490  177.7270  142.2050 C   0  0  1  0  0  3  0  0  0  0  0  0
  187.8500  173.9500  140.7620 Cl  0  0  0  0  0  0  0  0  0  0  0  0
  187.9670  175.6940  140.9570 C   0  0  0  0  0  0  0  0  0  0  0  0
  195.3030  175.3580  144.5850 C   0  0  0  0  0  0  0  0  0  0  0  0
  197.4830  174.0560  143.2590 C   0  0  0  0  0  2  0  0  0  0  0  0
  197.4940  174.1060  144.7810 C   0  0  0  0  0  2  0  0  0  0  0  0
  196.9690  175.3820  142.6950 C   0  0  1  0  0  0  0  0  0  0  0  0
  195.6880  175.8020  143.3790 C   0  0  0  0  0  3  0  0  0  0  0  0
  197.9410  176.3650  142.9050 O   0  0  0  0  0  1  0  0  0  0  0  0
  196.0680  174.2660  145.2950 C   0  0  0  0  0  2  0  0  0  0  0  0
  196.7430  175.2180  141.2760 N   0  0  0  0  0  0  0  0  0  0  0  0
  197.6340  175.5180  140.3990 C   0  0  0  0  0  2  0  0  0  0  0  0
  1  5  1  0  0  0  0
  2  1  2  0  0  0  0
  3  5  2  0  0  0  0
  4  3  1  0  0  0  0
  6  9  1  0  0  0  0
  6  7  1  0  0  0  0
  7  4  1  0  0  0  0
  8  7  2  0  0  0  0
  8  2  1  0  0  0  0
  9 10  1  0  0  0  0
 10  4  2  0  0  0  0
 11 19  1  0  0  0  0
 11 18  1  1  0  0  0
 12 11  1  0  0  0  0
 13 14  1  0  0  0  0
 14  8  1  1  0  0  0
 15 21  1  0  0  0  0
 15 12  1  0  0  0  0
 16 17  1  0  0  0  0
 17 14  1  0  0  0  0
 19 16  1  1  0  0  0
 19 13  1  0  0  0  0
 20 21  1  0  0  0  0
 21 16  2  0  0  0  0
 22  9  1  0  0  0  0
 22 28  1  0  0  0  0
 23 24  1  0  0  0  0
 24 28  1  0  0  0  0
 25 27  1  1  0  0  0
 25 23  1  0  0  0  0
 25 26  1  0  0  0  0
 26 22  2  0  0  0  0
 29 25  1  0  0  0  0
 30 29  2  0  0  0  0
M  END
>  <MODEL>
7

>  <REMARK>
 VINA RESULT:      -6.7      4.210      9.027
  Name = 
  3 active torsions:
  status: ('A' for Active; 'I' for Inactive)
    1  A    between atoms: C_1  and  N_28
    2  A    between atoms: C_12  and  C_25
    3  A    between atoms: N_13  and  C_16
                            x       y       z     vdW  Elec       q    Type
                         _______ _______ _______ _____ _____    ______ ____

>  <TORSDO>
F 3

$$$$
=
 OpenBabel11062419513D

 30 34  0  0  1  0  0  0  0  0999 V2000
  186.0740  177.7120  139.9710 C   0  0  0  0  0  3  0  0  0  0  0  0
  186.1790  177.3710  141.2520 C   0  0  0  0  0  3  0  0  0  0  0  0
  187.4480  175.8590  138.7940 C   0  0  0  0  0  3  0  0  0  0  0  0
  187.8450  175.1280  139.8270 C   0  0  0  0  0  0  0  0  0  0  0  0
  186.6430  177.0340  138.8500 N   0  0  0  0  0  0  0  0  0  0  0  0
  188.2870  174.1710  141.9660 C   0  0  0  0  0  2  0  0  0  0  0  0
  187.5860  175.2980  141.2580 C   0  0  0  0  0  0  0  0  0  0  0  0
  186.8760  176.2420  141.8960 C   0  0  0  0  0  0  0  0  0  0  0  0
  188.9070  173.4150  140.8850 N   0  0  0  0  0  0  0  0  0  0  0  0
  188.6480  173.9790  139.6330 N   0  0  0  0  0  0  0  0  0  0  0  0
  184.9180  178.3270  145.7460 C   0  0  1  0  0  3  0  0  0  0  0  0
  185.3950  178.9240  147.0860 C   0  0  0  0  0  2  0  0  0  0  0  0
  185.5460  176.8010  143.8670 N   0  0  0  0  0  2  0  0  0  0  0  0
  186.7820  176.1750  143.3940 C   0  0  2  0  0  3  0  0  0  0  0  0
  186.3580  177.7470  148.1090 S   0  0  0  0  0  0  0  0  0  0  0  0
  187.1670  177.2060  145.5830 C   0  0  0  0  0  0  0  0  0  0  0  0
  188.2260  176.9640  144.1790 S   0  0  0  0  0  0  0  0  0  0  0  0
  184.9270  179.4330  144.7010 C   0  0  0  0  0  1  0  0  0  0  0  0
  185.7130  177.0790  145.2910 C   0  0  1  0  0  3  0  0  0  0  0  0
  189.2820  177.8380  147.1700 Cl  0  0  0  0  0  0  0  0  0  0  0  0
  187.5890  177.5210  146.8140 C   0  0  0  0  0  0  0  0  0  0  0  0
  189.7080  172.2400  141.0700 C   0  0  0  0  0  0  0  0  0  0  0  0
  190.8950  169.6640  141.4700 C   0  0  0  0  0  2  0  0  0  0  0  0
  191.1260  170.7330  142.5290 C   0  0  0  0  0  2  0  0  0  0  0  0
  190.9510  170.2870  140.0750 C   0  0  1  0  0  0  0  0  0  0  0  0
  190.0890  171.5260  139.9990 C   0  0  0  0  0  3  0  0  0  0  0  0
  192.2750  170.6350  139.7930 O   0  0  0  0  0  1  0  0  0  0  0  0
  189.9970  171.7570  142.4720 C   0  0  0  0  0  2  0  0  0  0  0  0
  190.4920  169.3060  139.1160 N   0  0  0  0  0  0  0  0  0  0  0  0
  189.9420  169.6390  138.0020 C   0  0  0  0  0  2  0  0  0  0  0  0
  1  2  2  0  0  0  0
  2  8  1  0  0  0  0
  3  5  2  0  0  0  0
  3  4  1  0  0  0  0
  4  7  1  0  0  0  0
  5  1  1  0  0  0  0
  7  8  2  0  0  0  0
  7  6  1  0  0  0  0
  9 22  1  0  0  0  0
  9  6  1  0  0  0  0
 10  4  2  0  0  0  0
 10  9  1  0  0  0  0
 11 18  1  6  0  0  0
 11 12  1  0  0  0  0
 12 15  1  0  0  0  0
 14  8  1  6  0  0  0
 14 13  1  0  0  0  0
 14 17  1  0  0  0  0
 16 21  2  0  0  0  0
 17 16  1  0  0  0  0
 19 13  1  6  0  0  0
 19 16  1  0  0  0  0
 19 11  1  0  0  0  0
 21 20  1  0  0  0  0
 21 15  1  0  0  0  0
 22 28  1  0  0  0  0
 23 24  1  0  0  0  0
 25 27  1  6  0  0  0
 25 23  1  0  0  0  0
 26 25  1  0  0  0  0
 26 22  2  0  0  0  0
 28 24  1  0  0  0  0
 29 25  1  0  0  0  0
 30 29  2  0  0  0  0
M  END
>  <MODEL>
8

>  <REMARK>
 VINA RESULT:      -6.6      4.604      8.420
  Name = 
  3 active torsions:
  status: ('A' for Active; 'I' for Inactive)
    1  A    between atoms: C_1  and  N_28
    2  A    between atoms: C_12  and  C_25
    3  A    between atoms: N_13  and  C_16
                            x       y       z     vdW  Elec       q    Type
                         _______ _______ _______ _____ _____    ______ ____

>  <TORSDO>
F 3

$$$$
=
 OpenBabel11062419513D

 30 34  0  0  1  0  0  0  0  0999 V2000
  192.2300  172.5240  143.3220 C   0  0  0  0  0  3  0  0  0  0  0  0
  191.7030  172.6460  142.1070 C   0  0  0  0  0  3  0  0  0  0  0  0
  190.7450  174.1090  144.7300 C   0  0  0  0  0  3  0  0  0  0  0  0
  189.9040  174.5680  143.8130 C   0  0  0  0  0  0  0  0  0  0  0  0
  191.8040  173.1790  144.5160 N   0  0  0  0  0  0  0  0  0  0  0  0
  188.6700  175.0800  141.8370 C   0  0  0  0  0  2  0  0  0  0  0  0
  189.8160  174.2700  142.3820 C   0  0  0  0  0  0  0  0  0  0  0  0
  190.5650  173.4520  141.6260 C   0  0  0  0  0  0  0  0  0  0  0  0
  188.1660  175.7950  143.0030 N   0  0  0  0  0  0  0  0  0  0  0  0
  188.8920  175.4950  144.1580 N   0  0  0  0  0  0  0  0  0  0  0  0
  189.6910  170.3470  138.0770 C   0  0  1  0  0  3  0  0  0  0  0  0
  190.2420  170.0400  136.6680 C   0  0  0  0  0  2  0  0  0  0  0  0
  189.5590  172.0870  139.8680 N   0  0  0  0  0  2  0  0  0  0  0  0
  190.2500  173.3440  140.1610 C   0  0  2  0  0  3  0  0  0  0  0  0
  190.1920  171.4790  135.5350 S   0  0  0  0  0  0  0  0  0  0  0  0
  190.8660  172.5690  137.9200 C   0  0  0  0  0  0  0  0  0  0  0  0
  191.7620  173.4790  139.1530 S   0  0  0  0  0  0  0  0  0  0  0  0
  190.4810  169.5280  139.0870 C   0  0  0  0  0  1  0  0  0  0  0  0
  189.6640  171.8540  138.4300 C   0  0  1  0  0  3  0  0  0  0  0  0
  192.7170  173.1610  136.0200 Cl  0  0  0  0  0  0  0  0  0  0  0  0
  191.2220  172.4670  136.6330 C   0  0  0  0  0  0  0  0  0  0  0  0
  187.0680  176.7170  142.9790 C   0  0  0  0  0  0  0  0  0  0  0  0
  184.6000  178.1710  142.9380 C   0  0  0  0  0  2  0  0  0  0  0  0
  185.5270  178.2940  141.7360 C   0  0  0  0  0  2  0  0  0  0  0  0
  185.4180  178.1530  144.2300 C   0  0  1  0  0  0  0  0  0  0  0  0
  186.5580  177.1650  144.1370 C   0  0  0  0  0  3  0  0  0  0  0  0
  185.9410  179.4320  144.4480 O   0  0  0  0  0  1  0  0  0  0  0  0
  186.4240  177.0640  141.6580 C   0  0  0  0  0  2  0  0  0  0  0  0
  184.5400  177.7950  145.3220 N   0  0  0  0  0  0  0  0  0  0  0  0
  184.0710  178.6680  146.1420 C   0  0  0  0  0  2  0  0  0  0  0  0
  1  5  1  0  0  0  0
  2  1  2  0  0  0  0
  4 10  2  0  0  0  0
  4  3  1  0  0  0  0
  5  3  2  0  0  0  0
  6  7  1  0  0  0  0
  6  9  1  0  0  0  0
  7  4  1  0  0  0  0
  8  2  1  0  0  0  0
  8  7  2  0  0  0  0
  9 10  1  0  0  0  0
 11 19  1  0  0  0  0
 11 18  1  1  0  0  0
 12 11  1  0  0  0  0
 13 14  1  0  0  0  0
 14  8  1  1  0  0  0
 15 21  1  0  0  0  0
 15 12  1  0  0  0  0
 16 17  1  0  0  0  0
 17 14  1  0  0  0  0
 19 16  1  1  0  0  0
 19 13  1  0  0  0  0
 20 21  1  0  0  0  0
 21 16  2  0  0  0  0
 22  9  1  0  0  0  0
 22 26  2  0  0  0  0
 23 25  1  0  0  0  0
 24 23  1  0  0  0  0
 25 27  1  1  0  0  0
 25 29  1  0  0  0  0
 26 25  1  0  0  0  0
 28 24  1  0  0  0  0
 28 22  1  0  0  0  0
 29 30  2  0  0  0  0
M  END
>  <MODEL>
9

>  <REMARK>
 VINA RESULT:      -6.6      3.490      5.777
  Name = 
  3 active torsions:
  status: ('A' for Active; 'I' for Inactive)
    1  A    between atoms: C_1  and  N_28
    2  A    between atoms: C_12  and  C_25
    3  A    between atoms: N_13  and  C_16
                            x       y       z     vdW  Elec       q    Type
                         _______ _______ _______ _____ _____    ______ ____

>  <TORSDO>
F 3

$$$$
