=
 OpenBabel11062418593D

 51 60  0  0  1  0  0  0  0  0999 V2000
  190.3960  175.1320  145.5440 O   0  0  0  0  0  0  0  0  0  0  0  0
  194.6430  176.8790  145.3210 N   0  0  0  0  0  0  0  0  0  0  0  0
  191.5400  177.5650  143.0940 C   0  0  0  0  0  1  0  0  0  0  0  0
  190.9820  176.3450  145.1760 C   0  0  2  0  0  3  0  0  0  0  0  0
  194.6780  175.5840  145.2910 C   0  0  0  0  0  0  0  0  0  0  0  0
  193.3370  177.3520  145.1900 N   0  0  0  0  0  2  0  0  0  0  0  0
  191.6010  176.2130  143.7850 C   0  0  2  0  0  3  0  0  0  0  0  0
  192.4850  176.1930  145.0300 C   0  0  2  0  0  0  0  0  0  0  0  0
  193.3360  174.9360  145.1430 C   0  0  2  0  0  3  0  0  0  0  0  0
  193.0180  174.1750  146.4180 C   0  0  0  0  0  1  0  0  0  0  0  0
  195.8640  174.8500  145.3980 O   0  0  0  0  0  0  0  0  0  0  0  0
  195.6580  172.6320  144.4010 C   0  0  1  0  0  3  0  0  0  0  0  0
  196.6800  171.9100  143.5590 C   0  0  0  0  0  2  0  0  0  0  0  0
  196.3640  172.1320  145.6450 C   0  0  2  0  0  3  0  0  0  0  0  0
  196.3530  173.9890  144.3630 C   0  0  2  0  0  0  0  0  0  0  0  0
  197.5730  172.2290  144.7340 C   0  0  2  0  0  3  0  0  0  0  0  0
  197.7080  173.6290  144.6060 O   0  0  0  0  0  0  0  0  0  0  0  0
  196.4530  168.7420  147.2480 C   0  0  0  0  0  3  0  0  0  0  0  0
  194.8280  170.1730  145.5770 N   0  0  0  0  0  0  0  0  0  0  0  0
  195.2700  168.1660  146.7870 C   0  0  0  0  0  3  0  0  0  0  0  0
  196.7910  170.0020  146.8660 N   0  0  0  0  0  0  0  0  0  0  0  0
  195.9930  170.7170  146.0230 C   0  0  0  0  0  0  0  0  0  0  0  0
  194.4580  168.9150  145.9380 C   0  0  0  0  0  3  0  0  0  0  0  0
  196.2250  174.6180  143.0850 O   0  0  0  0  0  0  0  0  0  0  0  0
  197.3570  176.6810  143.0150 C   0  0  0  0  0  2  0  0  0  0  0  0
  197.2250  175.4410  142.5720 C   0  0  0  0  0  3  0  0  0  0  0  0
  189.3990  175.4820  146.4560 C   0  0  0  0  0  2  0  0  0  0  0  0
  189.5250  176.9480  146.8480 C   0  0  0  0  0  2  0  0  0  0  0  0
  188.1690  177.5300  147.2170 C   0  0  0  0  0  2  0  0  0  0  0  0
  186.2980  177.7560  145.8770 C   0  0  1  0  0  3  0  0  0  0  0  0
  185.9110  177.2560  147.0800 O   0  0  0  0  0  0  0  0  0  0  0  0
  187.1070  176.7830  146.5680 N   0  0  0  0  0  0  0  0  0  0  0  0
  185.5760  177.1300  144.8510 O   0  0  0  0  0  0  0  0  0  0  0  0
  187.9920  177.0340  142.0740 N   0  0  1  0  0  0  0  0  0  0  0  0
  187.2620  177.8260  141.0850 C   0  0  0  0  0  2  0  0  0  0  0  0
  186.1120  177.6120  143.6380 C   0  0  1  0  0  0  0  0  0  0  0  0
  184.4330  179.3140  143.9900 C   0  0  0  0  0  1  0  0  0  0  0  0
  187.6330  177.5240  143.4040 C   0  0  0  0  0  2  0  0  0  0  0  0
  185.1740  177.6420  142.5490 N   0  0  1  0  0  0  0  0  0  0  0  0
  185.5750  178.8730  143.1930 N   0  0  0  0  0  0  0  0  0  0  0  0
  185.7430  177.6270  141.1880 C   0  0  0  0  0  2  0  0  0  0  0  0
  192.0800  171.8360  140.0110 C   0  0  0  0  0  2  0  0  0  0  0  0
  187.7010  175.5980  141.9530 C   0  0  2  0  0  3  0  0  0  0  0  0
  188.3180  174.8840  143.0170 O   0  0  0  0  0  0  0  0  0  0  0  0
  189.3430  174.0490  141.3040 C   0  0  0  0  0  0  0  0  0  0  0  0
  190.2620  173.2520  140.5510 N   0  0  0  0  0  0  0  0  0  0  0  0
  188.3810  175.0160  140.7050 C   0  0  0  0  0  2  0  0  0  0  0  0
  191.2370  172.3670  141.1570 C   0  0  0  0  0  2  0  0  0  0  0  0
  190.3230  173.2660  139.1040 C   0  0  0  0  0  2  0  0  0  0  0  0
  191.3460  172.2060  138.7290 C   0  0  0  0  0  2  0  0  0  0  0  0
  189.2750  174.0030  142.5870 N   0  0  0  0  0  0  0  0  0  0  0  0
  1 27  1  0  0  0  0
  4  1  1  1  0  0  0
  5  2  2  0  0  0  0
  5 11  1  0  0  0  0
  6  2  1  0  0  0  0
  7  3  1  6  0  0  0
  7  8  1  0  0  0  0
  7  4  1  0  0  0  0
  8  9  1  0  0  0  0
  8  4  1  0  0  0  0
  8  6  1  1  0  0  0
  9  5  1  0  0  0  0
  9 10  1  1  0  0  0
 12 13  1  6  0  0  0
 12 14  1  0  0  0  0
 14 22  1  6  0  0  0
 15 24  1  6  0  0  0
 15 12  1  0  0  0  0
 15 17  1  0  0  0  0
 15 11  1  0  0  0  0
 16 13  1  6  0  0  0
 16 14  1  0  0  0  0
 17 16  1  0  0  0  0
 19 23  1  0  0  0  0
 19 22  2  0  0  0  0
 20 18  1  0  0  0  0
 21 18  2  0  0  0  0
 22 21  1  0  0  0  0
 23 20  2  0  0  0  0
 26 25  2  0  0  0  0
 26 24  1  0  0  0  0
 27 28  1  0  0  0  0
 28 29  1  0  0  0  0
 30 33  1  6  0  0  0
 30 32  1  0  0  0  0
 30 31  1  0  0  0  0
 32 31  1  0  0  0  0
 32 29  1  0  0  0  0
 34 35  1  6  0  0  0
 34 38  1  0  0  0  0
 35 41  1  0  0  0  0
 36 33  1  1  0  0  0
 38 36  1  0  0  0  0
 39 41  1  6  0  0  0
 39 40  1  0  0  0  0
 39 36  1  0  0  0  0
 40 36  1  0  0  0  0
 40 37  1  0  0  0  0
 42 48  1  0  0  0  0
 43 47  1  6  0  0  0
 43 34  1  0  0  0  0
 43 44  1  0  0  0  0
 45 51  2  0  0  0  0
 46 48  1  0  0  0  0
 46 45  1  0  0  0  0
 47 45  1  0  0  0  0
 49 46  1  0  0  0  0
 50 49  1  0  0  0  0
 50 42  1  0  0  0  0
 51 44  1  0  0  0  0
M  END
>  <MODEL>
1

>  <REMARK>
 VINA RESULT:      -7.8      0.000      0.000
  Name = 
  13 active torsions:
  status: ('A' for Active; 'I' for Inactive)
    1  A    between atoms: N_5  and  C_11
    2  A    between atoms: C_7  and  O_43
    3  A    between atoms: C_10  and  O_22
    4  A    between atoms: C_12  and  O_45
    5  A    between atoms: C_17  and  O_45
    6  A    between atoms: C_18  and  N_29
    7  A    between atoms: C_18  and  C_34
    8  A    between atoms: O_21  and  C_26
    9  A    between atoms: O_21  and  C_28
   10  A    between atoms: O_22  and  C_28
   11  A    between atoms: C_27  and  C_36
   12  A    between atoms: C_30  and  C_34
   13  A    between atoms: C_30  and  O_43
                            x       y       z     vdW  Elec       q    Type
                         _______ _______ _______ _____ _____    ______ ____

>  <TORSDO>
F 13

$$$$
=
 OpenBabel11062418593D

 51 60  0  0  1  0  0  0  0  0999 V2000
  190.2850  171.5260  139.7800 O   0  0  0  0  0  0  0  0  0  0  0  0
  189.2150  174.8960  142.7180 N   0  0  0  0  0  0  0  0  0  0  0  0
  191.0360  171.5260  143.3400 C   0  0  0  0  0  1  0  0  0  0  0  0
  190.8360  172.0860  140.9350 C   0  0  2  0  0  3  0  0  0  0  0  0
  188.1600  174.4860  142.0870 C   0  0  0  0  0  0  0  0  0  0  0  0
  190.3030  174.0550  142.4820 N   0  0  0  0  0  2  0  0  0  0  0  0
  190.0770  171.5800  142.1610 C   0  0  2  0  0  3  0  0  0  0  0  0
  189.8310  172.9890  141.6260 C   0  0  2  0  0  0  0  0  0  0  0  0
  188.3740  173.2500  141.2700 C   0  0  2  0  0  3  0  0  0  0  0  0
  188.2280  173.6050  139.8000 C   0  0  0  0  0  1  0  0  0  0  0  0
  186.9270  175.1450  142.1530 O   0  0  0  0  0  0  0  0  0  0  0  0
  187.1810  177.2710  143.3250 C   0  0  1  0  0  3  0  0  0  0  0  0
  186.5040  178.5800  143.0010 C   0  0  0  0  0  2  0  0  0  0  0  0
  185.9520  176.8560  144.1080 C   0  0  2  0  0  3  0  0  0  0  0  0
  186.7870  176.5650  142.0320 C   0  0  2  0  0  0  0  0  0  0  0  0
  185.2640  177.7200  143.0670 C   0  0  2  0  0  3  0  0  0  0  0  0
  185.4160  176.9270  141.9080 O   0  0  0  0  0  0  0  0  0  0  0  0
  187.0340  178.1280  147.4660 C   0  0  0  0  0  3  0  0  0  0  0  0
  184.7210  177.8460  146.0320 N   0  0  0  0  0  0  0  0  0  0  0  0
  185.8280  178.5500  148.0240 C   0  0  0  0  0  3  0  0  0  0  0  0
  187.0530  177.5810  146.2220 N   0  0  0  0  0  0  0  0  0  0  0  0
  185.9040  177.4260  145.5070 C   0  0  0  0  0  0  0  0  0  0  0  0
  184.6640  178.3980  147.2740 C   0  0  0  0  0  3  0  0  0  0  0  0
  187.5340  177.0490  140.9120 O   0  0  0  0  0  0  0  0  0  0  0  0
  186.7280  176.6880  138.7290 C   0  0  0  0  0  2  0  0  0  0  0  0
  186.9030  177.5040  139.7550 C   0  0  0  0  0  3  0  0  0  0  0  0
  191.3330  171.5120  138.8580 C   0  0  0  0  0  2  0  0  0  0  0  0
  191.5800  172.9100  138.3090 C   0  0  0  0  0  2  0  0  0  0  0  0
  193.0390  173.0920  137.9200 C   0  0  0  0  0  2  0  0  0  0  0  0
  194.6290  174.2620  139.1230 C   0  0  1  0  0  3  0  0  0  0  0  0
  193.4030  174.5470  139.6350 O   0  0  0  0  0  0  0  0  0  0  0  0
  193.4880  174.4300  138.2590 N   0  0  0  0  0  0  0  0  0  0  0  0
  195.4150  175.4240  139.1030 O   0  0  0  0  0  0  0  0  0  0  0  0
  195.4810  176.2350  142.6940 N   0  0  1  0  0  0  0  0  0  0  0  0
  196.6240  175.4240  143.1080 C   0  0  0  0  0  2  0  0  0  0  0  0
  196.0500  175.4950  140.3610 C   0  0  1  0  0  0  0  0  0  0  0  0
  197.9330  174.7390  139.0500 C   0  0  0  0  0  1  0  0  0  0  0  0
  195.6990  176.6570  141.3120 C   0  0  0  0  0  2  0  0  0  0  0  0
  196.5410  174.2350  140.8470 N   0  0  1  0  0  0  0  0  0  0  0  0
  197.4650  175.2270  140.3440 N   0  0  0  0  0  0  0  0  0  0  0  0
  196.7340  174.1210  142.3050 C   0  0  0  0  0  2  0  0  0  0  0  0
  190.4710  176.8110  147.4440 C   0  0  0  0  0  2  0  0  0  0  0  0
  194.2120  175.5020  142.8200 C   0  0  2  0  0  3  0  0  0  0  0  0
  193.1270  176.3330  142.4250 O   0  0  0  0  0  0  0  0  0  0  0  0
  192.6560  175.9920  144.5090 C   0  0  0  0  0  0  0  0  0  0  0  0
  191.9630  176.0830  145.7570 N   0  0  0  0  0  0  0  0  0  0  0  0
  193.9050  175.2080  144.2950 C   0  0  0  0  0  2  0  0  0  0  0  0
  190.7880  176.9060  145.9620 C   0  0  0  0  0  2  0  0  0  0  0  0
  192.3810  175.3760  146.9500 C   0  0  0  0  0  2  0  0  0  0  0  0
  191.3140  175.6680  147.9930 C   0  0  0  0  0  2  0  0  0  0  0  0
  192.2560  176.5980  143.4480 N   0  0  0  0  0  0  0  0  0  0  0  0
  4  1  1  6  0  0  0
  4  8  1  0  0  0  0
  4  7  1  0  0  0  0
  5 11  1  0  0  0  0
  5  2  2  0  0  0  0
  6  2  1  0  0  0  0
  7  3  1  1  0  0  0
  8  7  1  0  0  0  0
  8  6  1  1  0  0  0
  9 10  1  6  0  0  0
  9  8  1  0  0  0  0
  9  5  1  0  0  0  0
 12 13  1  6  0  0  0
 12 14  1  0  0  0  0
 14 22  1  1  0  0  0
 15 24  1  6  0  0  0
 15 11  1  0  0  0  0
 15 12  1  0  0  0  0
 16 13  1  6  0  0  0
 16 14  1  0  0  0  0
 17 15  1  0  0  0  0
 17 16  1  0  0  0  0
 18 20  1  0  0  0  0
 19 23  1  0  0  0  0
 21 18  2  0  0  0  0
 22 19  2  0  0  0  0
 22 21  1  0  0  0  0
 23 20  2  0  0  0  0
 25 26  2  0  0  0  0
 26 24  1  0  0  0  0
 27  1  1  0  0  0  0
 28 27  1  0  0  0  0
 29 32  1  0  0  0  0
 29 28  1  0  0  0  0
 30 33  1  6  0  0  0
 30 31  1  0  0  0  0
 32 30  1  0  0  0  0
 32 31  1  0  0  0  0
 34 38  1  6  0  0  0
 34 43  1  0  0  0  0
 34 35  1  0  0  0  0
 36 33  1  6  0  0  0
 36 39  1  0  0  0  0
 36 38  1  0  0  0  0
 37 40  1  0  0  0  0
 39 41  1  1  0  0  0
 40 36  1  0  0  0  0
 40 39  1  0  0  0  0
 41 35  1  0  0  0  0
 42 50  1  0  0  0  0
 43 47  1  1  0  0  0
 44 43  1  0  0  0  0
 44 51  1  0  0  0  0
 45 46  1  0  0  0  0
 46 48  1  0  0  0  0
 46 49  1  0  0  0  0
 47 45  1  0  0  0  0
 48 42  1  0  0  0  0
 49 50  1  0  0  0  0
 51 45  2  0  0  0  0
M  END
>  <MODEL>
2

>  <REMARK>
 VINA RESULT:      -7.7      3.120      9.879
  Name = 
  13 active torsions:
  status: ('A' for Active; 'I' for Inactive)
    1  A    between atoms: N_5  and  C_11
    2  A    between atoms: C_7  and  O_43
    3  A    between atoms: C_10  and  O_22
    4  A    between atoms: C_12  and  O_45
    5  A    between atoms: C_17  and  O_45
    6  A    between atoms: C_18  and  N_29
    7  A    between atoms: C_18  and  C_34
    8  A    between atoms: O_21  and  C_26
    9  A    between atoms: O_21  and  C_28
   10  A    between atoms: O_22  and  C_28
   11  A    between atoms: C_27  and  C_36
   12  A    between atoms: C_30  and  C_34
   13  A    between atoms: C_30  and  O_43
                            x       y       z     vdW  Elec       q    Type
                         _______ _______ _______ _____ _____    ______ ____

>  <TORSDO>
F 13

$$$$
=
 OpenBabel11062418593D

 51 60  0  0  1  0  0  0  0  0999 V2000
  195.6410  174.8210  142.3410 O   0  0  0  0  0  0  0  0  0  0  0  0
  193.2240  177.1630  145.4720 N   0  0  0  0  0  0  0  0  0  0  0  0
  196.0410  174.5370  145.9450 C   0  0  0  0  0  1  0  0  0  0  0  0
  195.8640  175.3520  143.6130 C   0  0  2  0  0  3  0  0  0  0  0  0
  192.4340  176.5250  144.6670 C   0  0  0  0  0  0  0  0  0  0  0  0
  194.5520  176.7770  145.2880 N   0  0  0  0  0  2  0  0  0  0  0  0
  195.2270  174.4450  144.6650 C   0  0  2  0  0  3  0  0  0  0  0  0
  194.5530  175.7550  144.2630 C   0  0  2  0  0  0  0  0  0  0  0  0
  193.1320  175.5680  143.7510 C   0  0  2  0  0  3  0  0  0  0  0  0
  192.9970  176.0700  142.3240 C   0  0  0  0  0  1  0  0  0  0  0  0
  191.0490  176.7200  144.6450 O   0  0  0  0  0  0  0  0  0  0  0  0
  188.7290  176.0560  145.0140 C   0  0  1  0  0  3  0  0  0  0  0  0
  188.0550  175.7860  146.3360 C   0  0  0  0  0  2  0  0  0  0  0  0
  188.4550  177.5340  145.2030 C   0  0  2  0  0  3  0  0  0  0  0  0
  190.1510  176.0890  145.5650 C   0  0  2  0  0  0  0  0  0  0  0  0
  188.6060  177.1530  146.6640 C   0  0  2  0  0  3  0  0  0  0  0  0
  189.9910  176.8830  146.7360 O   0  0  0  0  0  0  0  0  0  0  0  0
  185.1960  177.7520  143.3600 C   0  0  0  0  0  3  0  0  0  0  0  0
  186.3420  178.7820  145.6200 N   0  0  0  0  0  0  0  0  0  0  0  0
  184.4600  178.6220  144.1640 C   0  0  0  0  0  3  0  0  0  0  0  0
  186.4710  177.4250  143.7010 N   0  0  0  0  0  0  0  0  0  0  0  0
  187.0530  177.9440  144.8180 C   0  0  0  0  0  0  0  0  0  0  0  0
  185.0640  179.1310  145.3110 C   0  0  0  0  0  3  0  0  0  0  0  0
  190.6200  174.7820  145.9090 O   0  0  0  0  0  0  0  0  0  0  0  0
  189.6940  172.6800  145.3930 C   0  0  0  0  0  2  0  0  0  0  0  0
  190.4630  173.7000  145.0460 C   0  0  0  0  0  3  0  0  0  0  0  0
  196.6550  175.3620  141.5480 C   0  0  0  0  0  2  0  0  0  0  0  0
  196.1350  175.6640  140.1490 C   0  0  0  0  0  2  0  0  0  0  0  0
  195.4530  174.4460  139.5480 C   0  0  0  0  0  2  0  0  0  0  0  0
  193.3590  173.4780  139.3930 C   0  0  1  0  0  3  0  0  0  0  0  0
  193.6980  173.9740  138.1740 O   0  0  0  0  0  0  0  0  0  0  0  0
  194.0570  174.7340  139.2730 N   0  0  0  0  0  0  0  0  0  0  0  0
  191.9980  173.7130  139.6370 O   0  0  0  0  0  0  0  0  0  0  0  0
  192.2720  170.6660  141.6850 N   0  0  1  0  0  0  0  0  0  0  0  0
  190.8530  170.3750  141.8840 C   0  0  0  0  0  2  0  0  0  0  0  0
  191.4810  172.5200  140.1860 C   0  0  1  0  0  0  0  0  0  0  0  0
  189.5950  173.1260  138.8020 C   0  0  0  0  0  1  0  0  0  0  0  0
  192.4250  171.3180  140.3860 C   0  0  0  0  0  2  0  0  0  0  0  0
  190.2980  172.7010  140.9800 N   0  0  1  0  0  0  0  0  0  0  0  0
  190.2020  172.1150  139.6630 N   0  0  0  0  0  0  0  0  0  0  0  0
  190.0050  171.6510  141.9750 C   0  0  0  0  0  2  0  0  0  0  0  0
  196.9930  169.1910  146.5360 C   0  0  0  0  0  2  0  0  0  0  0  0
  192.8160  171.5110  142.7590 C   0  0  2  0  0  3  0  0  0  0  0  0
  194.1370  171.9250  142.4320 O   0  0  0  0  0  0  0  0  0  0  0  0
  194.4970  170.7470  144.2100 C   0  0  0  0  0  0  0  0  0  0  0  0
  195.2150  170.0950  145.2620 N   0  0  0  0  0  0  0  0  0  0  0  0
  193.0180  170.6890  144.0400 C   0  0  0  0  0  2  0  0  0  0  0  0
  196.6600  170.1070  145.3710 C   0  0  0  0  0  2  0  0  0  0  0  0
  194.5680  169.3390  146.3140 C   0  0  0  0  0  2  0  0  0  0  0  0
  195.6820  168.9210  147.2600 C   0  0  0  0  0  2  0  0  0  0  0  0
  195.0800  171.4440  143.3010 N   0  0  0  0  0  0  0  0  0  0  0  0
  4  1  1  6  0  0  0
  4  8  1  0  0  0  0
  4  7  1  0  0  0  0
  5  2  2  0  0  0  0
  6  2  1  0  0  0  0
  7  3  1  1  0  0  0
  8  7  1  0  0  0  0
  8  6  1  1  0  0  0
  9 10  1  6  0  0  0
  9  8  1  0  0  0  0
  9  5  1  0  0  0  0
 11  5  1  0  0  0  0
 12 14  1  0  0  0  0
 12 15  1  0  0  0  0
 12 13  1  1  0  0  0
 14 22  1  1  0  0  0
 14 16  1  0  0  0  0
 15 11  1  6  0  0  0
 15 24  1  0  0  0  0
 15 17  1  0  0  0  0
 16 13  1  6  0  0  0
 16 17  1  0  0  0  0
 18 21  2  0  0  0  0
 18 20  1  0  0  0  0
 20 23  2  0  0  0  0
 21 22  1  0  0  0  0
 22 19  2  0  0  0  0
 23 19  1  0  0  0  0
 26 25  2  0  0  0  0
 26 24  1  0  0  0  0
 27  1  1  0  0  0  0
 28 27  1  0  0  0  0
 29 28  1  0  0  0  0
 30 33  1  6  0  0  0
 31 32  1  0  0  0  0
 31 30  1  0  0  0  0
 32 30  1  0  0  0  0
 32 29  1  0  0  0  0
 34 38  1  6  0  0  0
 34 35  1  0  0  0  0
 34 43  1  0  0  0  0
 35 41  1  0  0  0  0
 36 33  1  6  0  0  0
 36 38  1  0  0  0  0
 36 39  1  0  0  0  0
 37 40  1  0  0  0  0
 39 41  1  1  0  0  0
 40 36  1  0  0  0  0
 40 39  1  0  0  0  0
 42 50  1  0  0  0  0
 43 47  1  1  0  0  0
 44 43  1  0  0  0  0
 44 51  1  0  0  0  0
 45 46  1  0  0  0  0
 46 48  1  0  0  0  0
 46 49  1  0  0  0  0
 47 45  1  0  0  0  0
 48 42  1  0  0  0  0
 49 50  1  0  0  0  0
 51 45  2  0  0  0  0
M  END
>  <MODEL>
3

>  <REMARK>
 VINA RESULT:      -7.3      2.133      8.645
  Name = 
  13 active torsions:
  status: ('A' for Active; 'I' for Inactive)
    1  A    between atoms: N_5  and  C_11
    2  A    between atoms: C_7  and  O_43
    3  A    between atoms: C_10  and  O_22
    4  A    between atoms: C_12  and  O_45
    5  A    between atoms: C_17  and  O_45
    6  A    between atoms: C_18  and  N_29
    7  A    between atoms: C_18  and  C_34
    8  A    between atoms: O_21  and  C_26
    9  A    between atoms: O_21  and  C_28
   10  A    between atoms: O_22  and  C_28
   11  A    between atoms: C_27  and  C_36
   12  A    between atoms: C_30  and  C_34
   13  A    between atoms: C_30  and  O_43
                            x       y       z     vdW  Elec       q    Type
                         _______ _______ _______ _____ _____    ______ ____

>  <TORSDO>
F 13

$$$$
=
 OpenBabel11062418593D

 51 60  0  0  1  0  0  0  0  0999 V2000
  191.4670  171.2560  139.9150 O   0  0  0  0  0  0  0  0  0  0  0  0
  187.7610  173.5060  141.4430 N   0  0  0  0  0  0  0  0  0  0  0  0
  189.4290  173.5290  137.9380 C   0  0  0  0  0  1  0  0  0  0  0  0
  190.2520  171.6960  139.3860 C   0  0  2  0  0  3  0  0  0  0  0  0
  188.7860  173.7460  142.1980 C   0  0  0  0  0  0  0  0  0  0  0  0
  188.1360  172.8250  140.2840 N   0  0  0  0  0  2  0  0  0  0  0  0
  190.3250  173.2000  139.1220 C   0  0  2  0  0  3  0  0  0  0  0  0
  189.5720  172.6640  140.3380 C   0  0  2  0  0  0  0  0  0  0  0  0
  190.0830  173.2290  141.6560 C   0  0  2  0  0  3  0  0  0  0  0  0
  190.5850  172.1210  142.5650 C   0  0  0  0  0  1  0  0  0  0  0  0
  188.6920  174.4210  143.4200 O   0  0  0  0  0  0  0  0  0  0  0  0
  188.2690  176.4630  144.6880 C   0  0  1  0  0  3  0  0  0  0  0  0
  188.6170  177.8750  144.2880 C   0  0  0  0  0  2  0  0  0  0  0  0
  186.9970  176.5710  143.8720 C   0  0  2  0  0  3  0  0  0  0  0  0
  189.0940  175.7830  143.6000 C   0  0  2  0  0  0  0  0  0  0  0  0
  187.8690  177.4870  143.0350 C   0  0  2  0  0  3  0  0  0  0  0  0
  188.7640  176.5610  142.4550 O   0  0  0  0  0  0  0  0  0  0  0  0
  184.6460  177.6710  146.5800 C   0  0  0  0  0  3  0  0  0  0  0  0
  185.1500  178.2380  143.9510 N   0  0  0  0  0  0  0  0  0  0  0  0
  183.8850  178.6430  145.9320 C   0  0  0  0  0  3  0  0  0  0  0  0
  185.6260  177.0130  145.9050 N   0  0  0  0  0  0  0  0  0  0  0  0
  185.8740  177.2810  144.5920 C   0  0  0  0  0  0  0  0  0  0  0  0
  184.1620  178.9160  144.5940 C   0  0  0  0  0  3  0  0  0  0  0  0
  190.4970  175.8610  143.8680 O   0  0  0  0  0  0  0  0  0  0  0  0
  191.9690  177.5420  143.1230 C   0  0  0  0  0  2  0  0  0  0  0  0
  191.3940  176.3660  142.9280 C   0  0  0  0  0  3  0  0  0  0  0  0
  191.5090  169.8920  139.6190 C   0  0  0  0  0  2  0  0  0  0  0  0
  192.7280  169.2430  140.2590 C   0  0  0  0  0  2  0  0  0  0  0  0
  193.4310  170.2130  141.1960 C   0  0  0  0  0  2  0  0  0  0  0  0
  194.9620  171.8700  140.6880 C   0  0  1  0  0  3  0  0  0  0  0  0
  194.7240  171.1420  139.5660 O   0  0  0  0  0  0  0  0  0  0  0  0
  194.7960  170.4390  140.7560 N   0  0  0  0  0  0  0  0  0  0  0  0
  196.3240  172.1930  140.7620 O   0  0  0  0  0  0  0  0  0  0  0  0
  195.3260  175.4640  142.1250 N   0  0  1  0  0  0  0  0  0  0  0  0
  196.4650  176.2710  141.6890 C   0  0  0  0  0  2  0  0  0  0  0  0
  196.3960  173.6010  140.8220 C   0  0  1  0  0  0  0  0  0  0  0  0
  197.8850  173.2470  138.9530 C   0  0  0  0  0  1  0  0  0  0  0  0
  195.1180  174.4030  141.1420 C   0  0  0  0  0  2  0  0  0  0  0  0
  197.7080  174.1140  141.1060 N   0  0  1  0  0  0  0  0  0  0  0  0
  197.1630  174.2170  139.7700 N   0  0  0  0  0  0  0  0  0  0  0  0
  197.7750  175.4700  141.6830 C   0  0  0  0  0  2  0  0  0  0  0  0
  191.1340  175.4700  147.6410 C   0  0  0  0  0  2  0  0  0  0  0  0
  195.5330  174.8990  143.4660 C   0  0  2  0  0  3  0  0  0  0  0  0
  194.7670  173.7100  143.6180 O   0  0  0  0  0  0  0  0  0  0  0  0
  193.8660  174.9810  145.1200 C   0  0  0  0  0  0  0  0  0  0  0  0
  192.9770  175.4050  146.1570 N   0  0  0  0  0  0  0  0  0  0  0  0
  194.9450  175.8290  144.5380 C   0  0  0  0  0  2  0  0  0  0  0  0
  191.8910  174.5890  146.6620 C   0  0  0  0  0  2  0  0  0  0  0  0
  193.0630  176.7020  146.7940 C   0  0  0  0  0  2  0  0  0  0  0  0
  192.0150  176.6860  147.8950 C   0  0  0  0  0  2  0  0  0  0  0  0
  193.8030  173.8130  144.5850 N   0  0  0  0  0  0  0  0  0  0  0  0
  2  5  2  0  0  0  0
  4  1  1  1  0  0  0
  4  8  1  0  0  0  0
  5 11  1  0  0  0  0
  6  2  1  0  0  0  0
  7  3  1  6  0  0  0
  7  4  1  0  0  0  0
  7  8  1  0  0  0  0
  8  6  1  6  0  0  0
  8  9  1  0  0  0  0
  9  5  1  0  0  0  0
  9 10  1  1  0  0  0
 12 13  1  6  0  0  0
 14 22  1  1  0  0  0
 14 12  1  0  0  0  0
 15 11  1  6  0  0  0
 15 24  1  0  0  0  0
 15 12  1  0  0  0  0
 16 14  1  0  0  0  0
 16 13  1  1  0  0  0
 17 16  1  0  0  0  0
 17 15  1  0  0  0  0
 19 22  2  0  0  0  0
 19 23  1  0  0  0  0
 20 18  1  0  0  0  0
 21 18  2  0  0  0  0
 22 21  1  0  0  0  0
 23 20  2  0  0  0  0
 26 25  2  0  0  0  0
 26 24  1  0  0  0  0
 27  1  1  0  0  0  0
 27 28  1  0  0  0  0
 28 29  1  0  0  0  0
 30 32  1  0  0  0  0
 30 33  1  6  0  0  0
 31 30  1  0  0  0  0
 31 32  1  0  0  0  0
 32 29  1  0  0  0  0
 34 38  1  6  0  0  0
 34 43  1  0  0  0  0
 35 34  1  0  0  0  0
 36 33  1  6  0  0  0
 36 39  1  0  0  0  0
 36 38  1  0  0  0  0
 37 40  1  0  0  0  0
 39 41  1  1  0  0  0
 40 36  1  0  0  0  0
 40 39  1  0  0  0  0
 41 35  1  0  0  0  0
 42 50  1  0  0  0  0
 43 44  1  0  0  0  0
 43 47  1  1  0  0  0
 44 51  1  0  0  0  0
 45 46  1  0  0  0  0
 46 48  1  0  0  0  0
 46 49  1  0  0  0  0
 47 45  1  0  0  0  0
 48 42  1  0  0  0  0
 49 50  1  0  0  0  0
 51 45  2  0  0  0  0
M  END
>  <MODEL>
4

>  <REMARK>
 VINA RESULT:      -7.3      2.791      9.782
  Name = 
  13 active torsions:
  status: ('A' for Active; 'I' for Inactive)
    1  A    between atoms: N_5  and  C_11
    2  A    between atoms: C_7  and  O_43
    3  A    between atoms: C_10  and  O_22
    4  A    between atoms: C_12  and  O_45
    5  A    between atoms: C_17  and  O_45
    6  A    between atoms: C_18  and  N_29
    7  A    between atoms: C_18  and  C_34
    8  A    between atoms: O_21  and  C_26
    9  A    between atoms: O_21  and  C_28
   10  A    between atoms: O_22  and  C_28
   11  A    between atoms: C_27  and  C_36
   12  A    between atoms: C_30  and  C_34
   13  A    between atoms: C_30  and  O_43
                            x       y       z     vdW  Elec       q    Type
                         _______ _______ _______ _____ _____    ______ ____

>  <TORSDO>
F 13

$$$$
=
 OpenBabel11062418593D

 51 60  0  0  1  0  0  0  0  0999 V2000
  189.4300  175.1340  142.0720 O   0  0  0  0  0  0  0  0  0  0  0  0
  191.1290  170.8740  142.3920 N   0  0  0  0  0  0  0  0  0  0  0  0
  189.6900  173.2030  145.1440 C   0  0  0  0  0  1  0  0  0  0  0  0
  189.1960  173.9990  142.8510 C   0  0  2  0  0  3  0  0  0  0  0  0
  191.9850  171.6680  141.8300 C   0  0  0  0  0  0  0  0  0  0  0  0
  190.0540  171.5870  142.9240 N   0  0  0  0  0  2  0  0  0  0  0  0
  190.2840  173.8770  143.9170 C   0  0  2  0  0  3  0  0  0  0  0  0
  190.3150  172.9880  142.6750 C   0  0  2  0  0  0  0  0  0  0  0  0
  191.6050  173.1150  141.8780 C   0  0  2  0  0  3  0  0  0  0  0  0
  191.3250  173.5940  140.4640 C   0  0  0  0  0  1  0  0  0  0  0  0
  193.1590  171.2140  141.2210 O   0  0  0  0  0  0  0  0  0  0  0  0
  195.1600  172.5090  141.7480 C   0  0  1  0  0  3  0  0  0  0  0  0
  196.5210  171.9780  142.1190 C   0  0  0  0  0  2  0  0  0  0  0  0
  195.5180  172.3390  140.2850 C   0  0  2  0  0  3  0  0  0  0  0  0
  194.4280  171.1780  141.8850 C   0  0  2  0  0  0  0  0  0  0  0  0
  196.3360  171.1900  140.8440 C   0  0  2  0  0  3  0  0  0  0  0  0
  195.3180  170.2870  141.2230 O   0  0  0  0  0  0  0  0  0  0  0  0
  197.2140  175.6660  139.9410 C   0  0  0  0  0  3  0  0  0  0  0  0
  197.0650  173.2950  138.5860 N   0  0  0  0  0  0  0  0  0  0  0  0
  197.9410  175.5060  138.7620 C   0  0  0  0  0  3  0  0  0  0  0  0
  196.4380  174.6510  140.4060 N   0  0  0  0  0  0  0  0  0  0  0  0
  196.3490  173.4710  139.7300 C   0  0  0  0  0  0  0  0  0  0  0  0
  197.8510  174.2890  138.0910 C   0  0  0  0  0  3  0  0  0  0  0  0
  194.2660  170.7980  143.2540 O   0  0  0  0  0  0  0  0  0  0  0  0
  193.3950  172.0970  145.0140 C   0  0  0  0  0  2  0  0  0  0  0  0
  194.4350  171.7130  144.2910 C   0  0  0  0  0  3  0  0  0  0  0  0
  188.1710  175.5030  141.5950 C   0  0  0  0  0  2  0  0  0  0  0  0
  188.1350  176.9920  141.2790 C   0  0  0  0  0  2  0  0  0  0  0  0
  186.7070  177.4670  141.0600 C   0  0  0  0  0  2  0  0  0  0  0  0
  185.6350  178.0480  143.0250 C   0  0  1  0  0  3  0  0  0  0  0  0
  185.0310  178.6960  141.9940 O   0  0  0  0  0  0  0  0  0  0  0  0
  186.4090  178.5870  141.9350 N   0  0  0  0  0  0  0  0  0  0  0  0
  185.7200  178.9010  144.1350 O   0  0  0  0  0  0  0  0  0  0  0  0
  187.8480  176.6190  146.0890 N   0  0  1  0  0  0  0  0  0  0  0  0
  187.1990  176.7350  147.3940 C   0  0  0  0  0  2  0  0  0  0  0  0
  185.9810  178.0770  145.2500 C   0  0  1  0  0  0  0  0  0  0  0  0
  183.6950  178.6640  145.7660 C   0  0  0  0  0  1  0  0  0  0  0  0
  186.8290  176.8030  145.0570 C   0  0  0  0  0  2  0  0  0  0  0  0
  185.8980  178.7520  146.5150 N   0  0  1  0  0  0  0  0  0  0  0  0
  184.8510  177.8410  146.1100 N   0  0  0  0  0  0  0  0  0  0  0  0
  186.6330  178.1410  147.6380 C   0  0  0  0  0  2  0  0  0  0  0  0
  194.5350  175.6020  144.5920 C   0  0  0  0  0  2  0  0  0  0  0  0
  188.9360  177.5940  145.9270 C   0  0  2  0  0  3  0  0  0  0  0  0
  189.2550  177.7450  144.5480 O   0  0  0  0  0  0  0  0  0  0  0  0
  191.1090  176.9410  145.3200 C   0  0  0  0  0  0  0  0  0  0  0  0
  192.4490  176.4410  145.3330 N   0  0  0  0  0  0  0  0  0  0  0  0
  190.2400  177.0490  146.5260 C   0  0  0  0  0  2  0  0  0  0  0  0
  193.2540  176.2810  144.1380 C   0  0  0  0  0  2  0  0  0  0  0  0
  193.1300  176.0250  146.5410 C   0  0  0  0  0  2  0  0  0  0  0  0
  194.5460  175.6750  146.1130 C   0  0  0  0  0  2  0  0  0  0  0  0
  190.5270  177.3400  144.2450 N   0  0  0  0  0  0  0  0  0  0  0  0
  2  6  1  0  0  0  0
  4  1  1  6  0  0  0
  4  7  1  0  0  0  0
  5  9  1  0  0  0  0
  5  2  2  0  0  0  0
  7  3  1  1  0  0  0
  8  4  1  0  0  0  0
  8  6  1  1  0  0  0
  8  7  1  0  0  0  0
  9 10  1  6  0  0  0
  9  8  1  0  0  0  0
 11  5  1  0  0  0  0
 12 15  1  0  0  0  0
 12 13  1  1  0  0  0
 14 22  1  1  0  0  0
 14 16  1  0  0  0  0
 14 12  1  0  0  0  0
 15 11  1  6  0  0  0
 15 24  1  0  0  0  0
 16 17  1  0  0  0  0
 16 13  1  1  0  0  0
 17 15  1  0  0  0  0
 18 21  2  0  0  0  0
 19 22  2  0  0  0  0
 20 18  1  0  0  0  0
 22 21  1  0  0  0  0
 23 19  1  0  0  0  0
 23 20  2  0  0  0  0
 24 26  1  0  0  0  0
 26 25  2  0  0  0  0
 27  1  1  0  0  0  0
 28 27  1  0  0  0  0
 29 28  1  0  0  0  0
 29 32  1  0  0  0  0
 30 33  1  1  0  0  0
 31 30  1  0  0  0  0
 32 31  1  0  0  0  0
 32 30  1  0  0  0  0
 34 38  1  6  0  0  0
 34 35  1  0  0  0  0
 35 41  1  0  0  0  0
 36 33  1  6  0  0  0
 36 40  1  0  0  0  0
 36 39  1  0  0  0  0
 37 40  1  0  0  0  0
 38 36  1  0  0  0  0
 39 41  1  1  0  0  0
 40 39  1  0  0  0  0
 42 50  1  0  0  0  0
 43 34  1  0  0  0  0
 43 47  1  1  0  0  0
 44 43  1  0  0  0  0
 45 46  1  0  0  0  0
 45 47  1  0  0  0  0
 46 49  1  0  0  0  0
 48 42  1  0  0  0  0
 48 46  1  0  0  0  0
 50 49  1  0  0  0  0
 51 44  1  0  0  0  0
 51 45  2  0  0  0  0
M  END
>  <MODEL>
5

>  <REMARK>
 VINA RESULT:      -7.2      2.673      5.741
  Name = 
  13 active torsions:
  status: ('A' for Active; 'I' for Inactive)
    1  A    between atoms: N_5  and  C_11
    2  A    between atoms: C_7  and  O_43
    3  A    between atoms: C_10  and  O_22
    4  A    between atoms: C_12  and  O_45
    5  A    between atoms: C_17  and  O_45
    6  A    between atoms: C_18  and  N_29
    7  A    between atoms: C_18  and  C_34
    8  A    between atoms: O_21  and  C_26
    9  A    between atoms: O_21  and  C_28
   10  A    between atoms: O_22  and  C_28
   11  A    between atoms: C_27  and  C_36
   12  A    between atoms: C_30  and  C_34
   13  A    between atoms: C_30  and  O_43
                            x       y       z     vdW  Elec       q    Type
                         _______ _______ _______ _____ _____    ______ ____

>  <TORSDO>
F 13

$$$$
=
 OpenBabel11062418593D

 51 60  0  0  1  0  0  0  0  0999 V2000
  190.1200  171.5500  139.3570 O   0  0  0  0  0  0  0  0  0  0  0  0
  191.1600  173.3710  143.4480 N   0  0  0  0  0  0  0  0  0  0  0  0
  191.8480  169.8170  142.0490 C   0  0  0  0  0  1  0  0  0  0  0  0
  191.1430  171.4230  140.3000 C   0  0  2  0  0  3  0  0  0  0  0  0
  189.8920  173.4840  143.2050 C   0  0  0  0  0  0  0  0  0  0  0  0
  191.7830  172.5470  142.5100 N   0  0  0  0  0  2  0  0  0  0  0  0
  190.6580  170.5640  141.4680 C   0  0  2  0  0  3  0  0  0  0  0  0
  190.7500  172.0820  141.6090 C   0  0  2  0  0  0  0  0  0  0  0  0
  189.4290  172.7310  141.9980 C   0  0  2  0  0  3  0  0  0  0  0  0
  188.9810  173.7270  140.9420 C   0  0  0  0  0  1  0  0  0  0  0  0
  189.0300  174.2500  143.9960 O   0  0  0  0  0  0  0  0  0  0  0  0
  187.8810  176.3980  144.1520 C   0  0  1  0  0  3  0  0  0  0  0  0
  188.4810  177.7710  143.9780 C   0  0  0  0  0  2  0  0  0  0  0  0
  187.7290  176.2980  142.6480 C   0  0  2  0  0  3  0  0  0  0  0  0
  189.2090  175.6530  144.2250 C   0  0  2  0  0  0  0  0  0  0  0  0
  188.9730  177.1660  142.6840 C   0  0  2  0  0  3  0  0  0  0  0  0
  189.9360  176.2480  143.1560 O   0  0  0  0  0  0  0  0  0  0  0  0
  184.3340  177.8820  142.4740 C   0  0  0  0  0  3  0  0  0  0  0  0
  186.4940  177.4860  140.8430 N   0  0  0  0  0  0  0  0  0  0  0  0
  184.3030  178.3700  141.1680 C   0  0  0  0  0  3  0  0  0  0  0  0
  185.4300  177.2150  142.9250 N   0  0  0  0  0  0  0  0  0  0  0  0
  186.5040  177.0030  142.1150 C   0  0  0  0  0  0  0  0  0  0  0  0
  185.4160  178.1580  140.3570 C   0  0  0  0  0  3  0  0  0  0  0  0
  189.8780  175.8760  145.4690 O   0  0  0  0  0  0  0  0  0  0  0  0
  188.9620  174.9000  147.4060 C   0  0  0  0  0  2  0  0  0  0  0  0
  189.8990  174.9080  146.4710 C   0  0  0  0  0  3  0  0  0  0  0  0
  190.7700  171.9070  138.1750 C   0  0  0  0  0  2  0  0  0  0  0  0
  190.5470  173.3820  137.8670 C   0  0  0  0  0  2  0  0  0  0  0  0
  191.8700  174.0970  137.6440 C   0  0  0  0  0  2  0  0  0  0  0  0
  194.1000  173.9170  137.0580 C   0  0  1  0  0  3  0  0  0  0  0  0
  193.3410  173.5560  135.9900 O   0  0  0  0  0  0  0  0  0  0  0  0
  192.8920  173.1500  137.2350 N   0  0  0  0  0  0  0  0  0  0  0  0
  195.2160  173.0730  137.1520 O   0  0  0  0  0  0  0  0  0  0  0  0
  196.0970  175.2930  139.9540 N   0  0  1  0  0  0  0  0  0  0  0  0
  197.4790  174.8720  140.1760 C   0  0  0  0  0  2  0  0  0  0  0  0
  196.1440  173.7340  137.9840 C   0  0  1  0  0  0  0  0  0  0  0  0
  197.7020  172.7420  136.4260 C   0  0  0  0  0  1  0  0  0  0  0  0
  195.7950  175.1320  138.5330 C   0  0  0  0  0  2  0  0  0  0  0  0
  197.0590  172.8570  138.6610 N   0  0  1  0  0  0  0  0  0  0  0  0
  197.5150  173.6580  137.5470 N   0  0  0  0  0  0  0  0  0  0  0  0
  197.6840  173.3780  139.8910 C   0  0  0  0  0  2  0  0  0  0  0  0
  193.3640  176.8000  146.1390 C   0  0  0  0  0  2  0  0  0  0  0  0
  195.1500  174.5280  140.7780 C   0  0  2  0  0  3  0  0  0  0  0  0
  193.8580  175.1220  140.7160 O   0  0  0  0  0  0  0  0  0  0  0  0
  194.3240  175.3540  142.8160 C   0  0  0  0  0  0  0  0  0  0  0  0
  194.1780  175.7430  144.1840 N   0  0  0  0  0  0  0  0  0  0  0  0
  195.5140  174.6450  142.2650 C   0  0  0  0  0  2  0  0  0  0  0  0
  193.0440  176.4930  144.6870 C   0  0  0  0  0  2  0  0  0  0  0  0
  195.1620  175.4410  145.2040 C   0  0  0  0  0  2  0  0  0  0  0  0
  194.5590  175.9330  146.5100 C   0  0  0  0  0  2  0  0  0  0  0  0
  193.4290  175.5980  141.9260 N   0  0  0  0  0  0  0  0  0  0  0  0
  4  1  1  6  0  0  0
  4  7  1  0  0  0  0
  4  8  1  0  0  0  0
  5  2  2  0  0  0  0
  5 11  1  0  0  0  0
  6  2  1  0  0  0  0
  7  8  1  0  0  0  0
  7  3  1  1  0  0  0
  8  9  1  0  0  0  0
  8  6  1  1  0  0  0
  9 10  1  6  0  0  0
  9  5  1  0  0  0  0
 12 13  1  6  0  0  0
 12 15  1  0  0  0  0
 14 22  1  1  0  0  0
 14 16  1  0  0  0  0
 14 12  1  0  0  0  0
 15 11  1  6  0  0  0
 15 24  1  0  0  0  0
 16 17  1  0  0  0  0
 16 13  1  1  0  0  0
 17 15  1  0  0  0  0
 18 21  2  0  0  0  0
 19 22  2  0  0  0  0
 20 18  1  0  0  0  0
 22 21  1  0  0  0  0
 23 19  1  0  0  0  0
 23 20  2  0  0  0  0
 24 26  1  0  0  0  0
 26 25  2  0  0  0  0
 27  1  1  0  0  0  0
 28 27  1  0  0  0  0
 29 28  1  0  0  0  0
 30 33  1  6  0  0  0
 30 32  1  0  0  0  0
 31 30  1  0  0  0  0
 31 32  1  0  0  0  0
 32 29  1  0  0  0  0
 34 38  1  6  0  0  0
 34 35  1  0  0  0  0
 34 43  1  0  0  0  0
 36 33  1  6  0  0  0
 36 38  1  0  0  0  0
 36 39  1  0  0  0  0
 37 40  1  0  0  0  0
 39 41  1  1  0  0  0
 40 36  1  0  0  0  0
 40 39  1  0  0  0  0
 41 35  1  0  0  0  0
 42 50  1  0  0  0  0
 43 47  1  1  0  0  0
 44 43  1  0  0  0  0
 44 51  1  0  0  0  0
 45 46  1  0  0  0  0
 46 48  1  0  0  0  0
 46 49  1  0  0  0  0
 47 45  1  0  0  0  0
 48 42  1  0  0  0  0
 49 50  1  0  0  0  0
 51 45  2  0  0  0  0
M  END
>  <MODEL>
6

>  <REMARK>
 VINA RESULT:      -7.2      3.229      9.927
  Name = 
  13 active torsions:
  status: ('A' for Active; 'I' for Inactive)
    1  A    between atoms: N_5  and  C_11
    2  A    between atoms: C_7  and  O_43
    3  A    between atoms: C_10  and  O_22
    4  A    between atoms: C_12  and  O_45
    5  A    between atoms: C_17  and  O_45
    6  A    between atoms: C_18  and  N_29
    7  A    between atoms: C_18  and  C_34
    8  A    between atoms: O_21  and  C_26
    9  A    between atoms: O_21  and  C_28
   10  A    between atoms: O_22  and  C_28
   11  A    between atoms: C_27  and  C_36
   12  A    between atoms: C_30  and  C_34
   13  A    between atoms: C_30  and  O_43
                            x       y       z     vdW  Elec       q    Type
                         _______ _______ _______ _____ _____    ______ ____

>  <TORSDO>
F 13

$$$$
=
 OpenBabel11062418593D

 51 60  0  0  1  0  0  0  0  0999 V2000
  191.3320  175.0290  145.1450 O   0  0  0  0  0  0  0  0  0  0  0  0
  195.7160  173.6990  144.7620 N   0  0  0  0  0  0  0  0  0  0  0  0
  194.1940  176.8100  146.5130 C   0  0  0  0  0  1  0  0  0  0  0  0
  192.4940  175.1100  145.9160 C   0  0  2  0  0  3  0  0  0  0  0  0
  195.1590  173.7840  143.5950 C   0  0  0  0  0  0  0  0  0  0  0  0
  194.8970  174.2410  145.7530 N   0  0  0  0  0  2  0  0  0  0  0  0
  193.3980  176.2120  145.3640 C   0  0  2  0  0  3  0  0  0  0  0  0
  193.7130  174.7430  145.0900 C   0  0  2  0  0  0  0  0  0  0  0  0
  193.8020  174.4140  143.6060 C   0  0  2  0  0  3  0  0  0  0  0  0
  192.7730  173.3660  143.2190 C   0  0  0  0  0  1  0  0  0  0  0  0
  195.7680  173.3180  142.4240 O   0  0  0  0  0  0  0  0  0  0  0  0
  195.6300  174.7840  140.4780 C   0  0  1  0  0  3  0  0  0  0  0  0
  196.7490  175.1690  139.5430 C   0  0  0  0  0  2  0  0  0  0  0  0
  195.4290  173.5140  139.6770 C   0  0  2  0  0  3  0  0  0  0  0  0
  196.5240  174.1570  141.5430 C   0  0  2  0  0  0  0  0  0  0  0  0
  196.9230  173.6710  139.4630 C   0  0  2  0  0  3  0  0  0  0  0  0
  197.4180  173.3810  140.7530 O   0  0  0  0  0  0  0  0  0  0  0  0
  192.9480  174.9180  137.2400 C   0  0  0  0  0  3  0  0  0  0  0  0
  194.8410  172.9450  137.3260 N   0  0  0  0  0  0  0  0  0  0  0  0
  193.1660  174.1310  136.1100 C   0  0  0  0  0  3  0  0  0  0  0  0
  193.6700  174.7010  138.3710 N   0  0  0  0  0  0  0  0  0  0  0  0
  194.6060  173.7120  138.4260 C   0  0  0  0  0  0  0  0  0  0  0  0
  194.1370  173.1340  136.1770 C   0  0  0  0  0  3  0  0  0  0  0  0
  197.2430  175.1460  142.2860 O   0  0  0  0  0  0  0  0  0  0  0  0
  196.7420  177.0910  143.5130 C   0  0  0  0  0  2  0  0  0  0  0  0
  196.8120  176.4690  142.3480 C   0  0  0  0  0  3  0  0  0  0  0  0
  190.4070  174.3790  145.9640 C   0  0  0  0  0  2  0  0  0  0  0  0
  190.0370  175.2560  147.1520 C   0  0  0  0  0  2  0  0  0  0  0  0
  189.4400  176.5750  146.6880 C   0  0  0  0  0  2  0  0  0  0  0  0
  187.6310  177.5550  145.6320 C   0  0  1  0  0  3  0  0  0  0  0  0
  187.3930  177.5370  146.9700 O   0  0  0  0  0  0  0  0  0  0  0  0
  188.0180  176.4230  146.4360 N   0  0  0  0  0  0  0  0  0  0  0  0
  186.4490  177.2620  144.9370 O   0  0  0  0  0  0  0  0  0  0  0  0
  188.1040  177.0170  141.6570 N   0  0  1  0  0  0  0  0  0  0  0  0
  187.1380  177.7480  140.8390 C   0  0  0  0  0  2  0  0  0  0  0  0
  186.6590  177.6760  143.6040 C   0  0  1  0  0  0  0  0  0  0  0  0
  185.0900  179.3890  144.2690 C   0  0  0  0  0  1  0  0  0  0  0  0
  188.0770  177.5810  143.0050 C   0  0  0  0  0  2  0  0  0  0  0  0
  185.4810  177.6410  142.7830 N   0  0  1  0  0  0  0  0  0  0  0  0
  186.0070  178.9070  143.2400 N   0  0  0  0  0  0  0  0  0  0  0  0
  185.6960  177.5500  141.3260 C   0  0  0  0  0  2  0  0  0  0  0  0
  191.5870  171.7340  138.8370 C   0  0  0  0  0  2  0  0  0  0  0  0
  187.8170  175.5750  141.6890 C   0  0  2  0  0  3  0  0  0  0  0  0
  188.7090  174.9210  142.5840 O   0  0  0  0  0  0  0  0  0  0  0  0
  189.2550  174.0010  140.7040 C   0  0  0  0  0  0  0  0  0  0  0  0
  189.9530  173.1690  139.7730 N   0  0  0  0  0  0  0  0  0  0  0  0
  188.1500  174.9310  140.3360 C   0  0  0  0  0  2  0  0  0  0  0  0
  191.0710  172.3220  140.1390 C   0  0  0  0  0  2  0  0  0  0  0  0
  189.6260  173.1060  138.3640 C   0  0  0  0  0  2  0  0  0  0  0  0
  190.5310  172.0330  137.7810 C   0  0  0  0  0  2  0  0  0  0  0  0
  189.5320  174.0220  141.9590 N   0  0  0  0  0  0  0  0  0  0  0  0
  1 27  1  0  0  0  0
  2  6  1  0  0  0  0
  4  1  1  6  0  0  0
  5  9  1  0  0  0  0
  5  2  2  0  0  0  0
  7  4  1  0  0  0  0
  7  3  1  1  0  0  0
  8  7  1  0  0  0  0
  8  6  1  1  0  0  0
  8  4  1  0  0  0  0
  9 10  1  1  0  0  0
  9  8  1  0  0  0  0
 11  5  1  0  0  0  0
 12 13  1  6  0  0  0
 12 15  1  0  0  0  0
 14 22  1  6  0  0  0
 14 12  1  0  0  0  0
 15 24  1  1  0  0  0
 15 11  1  0  0  0  0
 16 13  1  1  0  0  0
 16 14  1  0  0  0  0
 16 17  1  0  0  0  0
 17 15  1  0  0  0  0
 18 21  2  0  0  0  0
 19 22  2  0  0  0  0
 20 23  2  0  0  0  0
 20 18  1  0  0  0  0
 21 22  1  0  0  0  0
 23 19  1  0  0  0  0
 24 26  1  0  0  0  0
 26 25  2  0  0  0  0
 27 28  1  0  0  0  0
 29 28  1  0  0  0  0
 30 33  1  6  0  0  0
 30 32  1  0  0  0  0
 30 31  1  0  0  0  0
 32 29  1  0  0  0  0
 32 31  1  0  0  0  0
 34 35  1  6  0  0  0
 34 43  1  0  0  0  0
 34 38  1  0  0  0  0
 35 41  1  0  0  0  0
 36 33  1  1  0  0  0
 38 36  1  0  0  0  0
 39 41  1  6  0  0  0
 39 40  1  0  0  0  0
 39 36  1  0  0  0  0
 40 36  1  0  0  0  0
 40 37  1  0  0  0  0
 42 48  1  0  0  0  0
 43 47  1  6  0  0  0
 43 44  1  0  0  0  0
 45 51  2  0  0  0  0
 46 48  1  0  0  0  0
 46 45  1  0  0  0  0
 47 45  1  0  0  0  0
 49 46  1  0  0  0  0
 50 49  1  0  0  0  0
 50 42  1  0  0  0  0
 51 44  1  0  0  0  0
M  END
>  <MODEL>
7

>  <REMARK>
 VINA RESULT:      -7.2      2.322      4.251
  Name = 
  13 active torsions:
  status: ('A' for Active; 'I' for Inactive)
    1  A    between atoms: N_5  and  C_11
    2  A    between atoms: C_7  and  O_43
    3  A    between atoms: C_10  and  O_22
    4  A    between atoms: C_12  and  O_45
    5  A    between atoms: C_17  and  O_45
    6  A    between atoms: C_18  and  N_29
    7  A    between atoms: C_18  and  C_34
    8  A    between atoms: O_21  and  C_26
    9  A    between atoms: O_21  and  C_28
   10  A    between atoms: O_22  and  C_28
   11  A    between atoms: C_27  and  C_36
   12  A    between atoms: C_30  and  C_34
   13  A    between atoms: C_30  and  O_43
                            x       y       z     vdW  Elec       q    Type
                         _______ _______ _______ _____ _____    ______ ____

>  <TORSDO>
F 13

$$$$
=
 OpenBabel11062418593D

 51 60  0  0  1  0  0  0  0  0999 V2000
  189.3580  173.4030  141.5630 O   0  0  0  0  0  0  0  0  0  0  0  0
  192.5790  174.0730  138.3520 N   0  0  0  0  0  0  0  0  0  0  0  0
  189.7010  171.4740  138.4970 C   0  0  0  0  0  1  0  0  0  0  0  0
  189.4560  173.2800  140.1750 C   0  0  2  0  0  3  0  0  0  0  0  0
  193.1220  173.8960  139.5160 C   0  0  0  0  0  0  0  0  0  0  0  0
  191.2130  173.7910  138.3840 N   0  0  0  0  0  2  0  0  0  0  0  0
  190.2160  172.0010  139.8270 C   0  0  2  0  0  3  0  0  0  0  0  0
  190.9050  173.3610  139.7300 C   0  0  2  0  0  0  0  0  0  0  0  0
  192.1640  173.4580  140.5800 C   0  0  2  0  0  3  0  0  0  0  0  0
  192.0400  174.5660  141.6110 C   0  0  0  0  0  1  0  0  0  0  0  0
  194.4830  174.1040  139.7620 O   0  0  0  0  0  0  0  0  0  0  0  0
  195.4400  172.3940  141.2180 C   0  0  1  0  0  3  0  0  0  0  0  0
  196.7790  171.7150  141.0730 C   0  0  0  0  0  2  0  0  0  0  0  0
  196.1260  173.5430  141.9280 C   0  0  2  0  0  3  0  0  0  0  0  0
  195.4410  173.0410  139.8370 C   0  0  2  0  0  0  0  0  0  0  0  0
  197.2660  173.1430  141.0110 C   0  0  2  0  0  3  0  0  0  0  0  0
  196.7660  173.5510  139.7550 O   0  0  0  0  0  0  0  0  0  0  0  0
  197.5760  173.7910  145.3780 C   0  0  0  0  0  3  0  0  0  0  0  0
  195.6330  172.3760  144.0710 N   0  0  0  0  0  0  0  0  0  0  0  0
  196.8170  172.8590  146.0840 C   0  0  0  0  0  3  0  0  0  0  0  0
  197.3490  173.9880  144.0520 N   0  0  0  0  0  0  0  0  0  0  0  0
  196.3920  173.2780  143.3910 C   0  0  0  0  0  0  0  0  0  0  0  0
  195.8320  172.1520  145.3980 C   0  0  0  0  0  3  0  0  0  0  0  0
  195.2090  172.0840  138.7990 O   0  0  0  0  0  0  0  0  0  0  0  0
  196.3290  171.3000  136.8820 C   0  0  0  0  0  2  0  0  0  0  0  0
  195.6920  172.2770  137.5070 C   0  0  0  0  0  3  0  0  0  0  0  0
  188.2210  174.1860  141.7700 C   0  0  0  0  0  2  0  0  0  0  0  0
  188.5600  175.6640  141.6420 C   0  0  0  0  0  2  0  0  0  0  0  0
  187.5030  176.3960  140.8300 C   0  0  0  0  0  2  0  0  0  0  0  0
  186.1070  177.6640  142.1680 C   0  0  1  0  0  3  0  0  0  0  0  0
  186.0620  178.1590  140.9040 O   0  0  0  0  0  0  0  0  0  0  0  0
  187.2980  177.7330  141.3580 N   0  0  0  0  0  0  0  0  0  0  0  0
  186.0990  178.7200  143.0910 O   0  0  0  0  0  0  0  0  0  0  0  0
  187.4680  176.8730  145.9660 N   0  0  1  0  0  0  0  0  0  0  0  0
  186.4850  177.2380  146.9840 C   0  0  0  0  0  2  0  0  0  0  0  0
  185.9920  178.1300  144.3680 C   0  0  1  0  0  0  0  0  0  0  0  0
  183.6870  178.7960  144.0870 C   0  0  0  0  0  1  0  0  0  0  0  0
  186.7930  176.8470  144.6700 C   0  0  0  0  0  2  0  0  0  0  0  0
  185.5900  179.0390  145.4060 N   0  0  1  0  0  0  0  0  0  0  0  0
  184.6540  178.0610  144.8970 N   0  0  0  0  0  0  0  0  0  0  0  0
  185.9460  178.6610  146.7870 C   0  0  0  0  0  2  0  0  0  0  0  0
  194.2100  175.6130  144.9900 C   0  0  0  0  0  2  0  0  0  0  0  0
  188.6070  177.8020  145.9420 C   0  0  2  0  0  3  0  0  0  0  0  0
  189.0490  177.9980  144.6040 O   0  0  0  0  0  0  0  0  0  0  0  0
  190.7950  177.0770  145.4900 C   0  0  0  0  0  0  0  0  0  0  0  0
  192.1060  176.5150  145.5910 N   0  0  0  0  0  0  0  0  0  0  0  0
  189.8300  177.1710  146.6220 C   0  0  0  0  0  2  0  0  0  0  0  0
  193.0040  176.3700  144.4620 C   0  0  0  0  0  2  0  0  0  0  0  0
  192.6620  176.0160  146.8310 C   0  0  0  0  0  2  0  0  0  0  0  0
  194.0930  175.6200  146.5080 C   0  0  0  0  0  2  0  0  0  0  0  0
  190.3250  177.5480  144.3900 N   0  0  0  0  0  0  0  0  0  0  0  0
  1 27  1  0  0  0  0
  2  6  1  0  0  0  0
  2  5  2  0  0  0  0
  4  1  1  1  0  0  0
  5 11  1  0  0  0  0
  5  9  1  0  0  0  0
  7  3  1  6  0  0  0
  7  4  1  0  0  0  0
  8  6  1  6  0  0  0
  8  7  1  0  0  0  0
  8  4  1  0  0  0  0
  8  9  1  0  0  0  0
  9 10  1  1  0  0  0
 11 15  1  0  0  0  0
 12 13  1  6  0  0  0
 12 14  1  0  0  0  0
 14 22  1  1  0  0  0
 15 24  1  6  0  0  0
 15 12  1  0  0  0  0
 16 13  1  6  0  0  0
 16 14  1  0  0  0  0
 17 15  1  0  0  0  0
 17 16  1  0  0  0  0
 18 20  1  0  0  0  0
 19 23  1  0  0  0  0
 21 18  2  0  0  0  0
 22 21  1  0  0  0  0
 22 19  2  0  0  0  0
 23 20  2  0  0  0  0
 25 26  2  0  0  0  0
 26 24  1  0  0  0  0
 28 27  1  0  0  0  0
 29 32  1  0  0  0  0
 29 28  1  0  0  0  0
 30 33  1  1  0  0  0
 31 32  1  0  0  0  0
 31 30  1  0  0  0  0
 32 30  1  0  0  0  0
 34 38  1  6  0  0  0
 34 35  1  0  0  0  0
 36 33  1  6  0  0  0
 36 38  1  0  0  0  0
 36 40  1  0  0  0  0
 36 39  1  0  0  0  0
 37 40  1  0  0  0  0
 39 41  1  1  0  0  0
 40 39  1  0  0  0  0
 41 35  1  0  0  0  0
 42 50  1  0  0  0  0
 43 34  1  0  0  0  0
 43 47  1  1  0  0  0
 44 43  1  0  0  0  0
 45 46  1  0  0  0  0
 45 47  1  0  0  0  0
 46 49  1  0  0  0  0
 48 42  1  0  0  0  0
 48 46  1  0  0  0  0
 50 49  1  0  0  0  0
 51 44  1  0  0  0  0
 51 45  2  0  0  0  0
M  END
>  <MODEL>
8

>  <REMARK>
 VINA RESULT:      -7.0      2.393      5.333
  Name = 
  13 active torsions:
  status: ('A' for Active; 'I' for Inactive)
    1  A    between atoms: N_5  and  C_11
    2  A    between atoms: C_7  and  O_43
    3  A    between atoms: C_10  and  O_22
    4  A    between atoms: C_12  and  O_45
    5  A    between atoms: C_17  and  O_45
    6  A    between atoms: C_18  and  N_29
    7  A    between atoms: C_18  and  C_34
    8  A    between atoms: O_21  and  C_26
    9  A    between atoms: O_21  and  C_28
   10  A    between atoms: O_22  and  C_28
   11  A    between atoms: C_27  and  C_36
   12  A    between atoms: C_30  and  C_34
   13  A    between atoms: C_30  and  O_43
                            x       y       z     vdW  Elec       q    Type
                         _______ _______ _______ _____ _____    ______ ____

>  <TORSDO>
F 13

$$$$
=
 OpenBabel11062418593D

 51 60  0  0  1  0  0  0  0  0999 V2000
  191.9290  170.9050  141.7980 O   0  0  0  0  0  0  0  0  0  0  0  0
  188.0220  173.2380  141.1440 N   0  0  0  0  0  0  0  0  0  0  0  0
  190.6220  171.9480  138.5670 C   0  0  0  0  0  1  0  0  0  0  0  0
  190.9320  170.9710  140.8220 C   0  0  2  0  0  3  0  0  0  0  0  0
  188.7960  173.8640  141.9730 C   0  0  0  0  0  0  0  0  0  0  0  0
  188.6880  172.1730  140.5370 N   0  0  0  0  0  2  0  0  0  0  0  0
  191.1300  172.2260  139.9730 C   0  0  2  0  0  3  0  0  0  0  0  0
  190.0430  172.1810  141.0450 C   0  0  2  0  0  0  0  0  0  0  0  0
  190.1750  173.2900  142.0800 C   0  0  2  0  0  3  0  0  0  0  0  0
  190.3570  172.7140  143.4730 C   0  0  0  0  0  1  0  0  0  0  0  0
  188.3800  174.9760  142.7130 O   0  0  0  0  0  0  0  0  0  0  0  0
  187.6630  177.2870  143.0310 C   0  0  1  0  0  3  0  0  0  0  0  0
  187.8130  178.4320  142.0620 C   0  0  0  0  0  2  0  0  0  0  0  0
  186.3960  176.8730  142.3120 C   0  0  2  0  0  3  0  0  0  0  0  0
  188.5850  176.3270  142.2860 C   0  0  2  0  0  0  0  0  0  0  0  0
  187.1380  177.4580  141.1250 C   0  0  2  0  0  3  0  0  0  0  0  0
  188.1590  176.5000  140.9400 O   0  0  0  0  0  0  0  0  0  0  0  0
  183.0360  178.5370  142.2130 C   0  0  0  0  0  3  0  0  0  0  0  0
  185.0700  178.1360  143.9980 N   0  0  0  0  0  0  0  0  0  0  0  0
  182.9160  179.0370  143.5090 C   0  0  0  0  0  3  0  0  0  0  0  0
  184.1560  177.8600  141.8460 N   0  0  0  0  0  0  0  0  0  0  0  0
  185.1780  177.6670  142.7250 C   0  0  0  0  0  0  0  0  0  0  0  0
  183.9640  178.8190  144.4010 C   0  0  0  0  0  3  0  0  0  0  0  0
  189.9610  176.6940  142.4260 O   0  0  0  0  0  0  0  0  0  0  0  0
  191.2730  178.4800  143.2200 C   0  0  0  0  0  2  0  0  0  0  0  0
  190.3960  177.5190  143.4610 C   0  0  0  0  0  3  0  0  0  0  0  0
  192.3270  169.5670  141.8090 C   0  0  0  0  0  2  0  0  0  0  0  0
  193.2630  169.2980  142.9780 C   0  0  0  0  0  2  0  0  0  0  0  0
  192.8310  170.0760  144.2110 C   0  0  0  0  0  2  0  0  0  0  0  0
  193.9510  172.0590  144.6120 C   0  0  1  0  0  3  0  0  0  0  0  0
  194.7680  171.2370  143.9020 O   0  0  0  0  0  0  0  0  0  0  0  0
  193.9880  170.6420  144.8800 N   0  0  0  0  0  0  0  0  0  0  0  0
  194.6970  172.7450  145.5820 O   0  0  0  0  0  0  0  0  0  0  0  0
  192.6990  175.7950  145.0750 N   0  0  1  0  0  0  0  0  0  0  0  0
  193.7420  176.8050  145.2510 C   0  0  0  0  0  2  0  0  0  0  0  0
  194.5580  174.1190  145.2910 C   0  0  1  0  0  0  0  0  0  0  0  0
  196.9410  173.9190  144.9480 C   0  0  0  0  0  1  0  0  0  0  0  0
  193.3160  174.5970  144.5110 C   0  0  0  0  0  2  0  0  0  0  0  0
  195.2790  174.9860  146.1810 N   0  0  1  0  0  0  0  0  0  0  0  0
  195.7590  174.7690  144.8350 N   0  0  0  0  0  0  0  0  0  0  0  0
  194.7970  176.3770  146.2800 C   0  0  0  0  0  2  0  0  0  0  0  0
  186.2010  177.1460  147.0620 C   0  0  0  0  0  2  0  0  0  0  0  0
  192.0160  175.4840  146.3390 C   0  0  2  0  0  3  0  0  0  0  0  0
  191.1120  174.4010  146.1520 O   0  0  0  0  0  0  0  0  0  0  0  0
  189.7500  175.9950  146.6860 C   0  0  0  0  0  0  0  0  0  0  0  0
  188.5170  176.6700  146.9530 N   0  0  0  0  0  0  0  0  0  0  0  0
  191.0930  176.6400  146.7500 C   0  0  0  0  0  2  0  0  0  0  0  0
  187.2170  176.0430  146.8190 C   0  0  0  0  0  2  0  0  0  0  0  0
  188.4450  178.0560  147.3650 C   0  0  0  0  0  2  0  0  0  0  0  0
  186.9740  178.3240  147.6400 C   0  0  0  0  0  2  0  0  0  0  0  0
  189.8040  174.7550  146.3540 N   0  0  0  0  0  0  0  0  0  0  0  0
  1 27  1  0  0  0  0
  2  5  2  0  0  0  0
  4  8  1  0  0  0  0
  4  1  1  1  0  0  0
  5  9  1  0  0  0  0
  5 11  1  0  0  0  0
  6  2  1  0  0  0  0
  7  3  1  6  0  0  0
  7  4  1  0  0  0  0
  7  8  1  0  0  0  0
  8  6  1  6  0  0  0
  8  9  1  0  0  0  0
  9 10  1  1  0  0  0
 12 13  1  6  0  0  0
 14 22  1  1  0  0  0
 14 12  1  0  0  0  0
 15 24  1  1  0  0  0
 15 11  1  0  0  0  0
 15 12  1  0  0  0  0
 16 13  1  1  0  0  0
 16 14  1  0  0  0  0
 17 16  1  0  0  0  0
 17 15  1  0  0  0  0
 18 20  1  0  0  0  0
 19 23  1  0  0  0  0
 20 23  2  0  0  0  0
 21 18  2  0  0  0  0
 21 22  1  0  0  0  0
 22 19  2  0  0  0  0
 24 26  1  0  0  0  0
 25 26  2  0  0  0  0
 27 28  1  0  0  0  0
 28 29  1  0  0  0  0
 29 32  1  0  0  0  0
 30 32  1  0  0  0  0
 30 33  1  1  0  0  0
 31 30  1  0  0  0  0
 31 32  1  0  0  0  0
 34 38  1  1  0  0  0
 34 35  1  0  0  0  0
 34 43  1  0  0  0  0
 35 41  1  0  0  0  0
 36 33  1  1  0  0  0
 36 39  1  0  0  0  0
 38 36  1  0  0  0  0
 39 41  1  6  0  0  0
 40 37  1  0  0  0  0
 40 36  1  0  0  0  0
 40 39  1  0  0  0  0
 42 50  1  0  0  0  0
 43 47  1  6  0  0  0
 44 43  1  0  0  0  0
 44 51  1  0  0  0  0
 45 47  1  0  0  0  0
 45 46  1  0  0  0  0
 46 49  1  0  0  0  0
 48 46  1  0  0  0  0
 48 42  1  0  0  0  0
 49 50  1  0  0  0  0
 51 45  2  0  0  0  0
M  END
>  <MODEL>
9

>  <REMARK>
 VINA RESULT:      -7.0      2.214      9.610
  Name = 
  13 active torsions:
  status: ('A' for Active; 'I' for Inactive)
    1  A    between atoms: N_5  and  C_11
    2  A    between atoms: C_7  and  O_43
    3  A    between atoms: C_10  and  O_22
    4  A    between atoms: C_12  and  O_45
    5  A    between atoms: C_17  and  O_45
    6  A    between atoms: C_18  and  N_29
    7  A    between atoms: C_18  and  C_34
    8  A    between atoms: O_21  and  C_26
    9  A    between atoms: O_21  and  C_28
   10  A    between atoms: O_22  and  C_28
   11  A    between atoms: C_27  and  C_36
   12  A    between atoms: C_30  and  C_34
   13  A    between atoms: C_30  and  O_43
                            x       y       z     vdW  Elec       q    Type
                         _______ _______ _______ _____ _____    ______ ____

>  <TORSDO>
F 13

$$$$
