=
 OpenBabel11062418333D

 54 57  0  0  1  0  0  0  0  0999 V2000
  189.7540  172.4630  141.5630 N   0  0  0  0  0  0  0  0  0  0  0  0
  188.4890  173.3400  138.0910 C   0  0  0  0  0  1  0  0  0  0  0  0
  188.1590  174.5820  140.2230 C   0  0  0  0  0  2  0  0  0  0  0  0
  188.4520  173.2140  139.5990 C   0  0  2  0  0  3  0  0  0  0  0  0
  189.7720  172.6400  140.1050 C   0  0  0  0  0  2  0  0  0  0  0  0
  189.1630  173.6010  142.2930 C   0  0  0  0  0  2  0  0  0  0  0  0
  189.0360  174.8760  141.4470 C   0  0  2  0  0  3  0  0  0  0  0  0
  188.4630  176.0300  142.2740 C   0  0  2  0  0  3  0  0  0  0  0  0
  188.2850  177.2770  141.4100 C   0  0  0  0  0  2  0  0  0  0  0  0
  185.9890  177.6420  140.6410 C   0  0  0  0  0  3  0  0  0  0  0  0
  186.9250  177.8760  141.5740 C   0  0  0  0  0  0  0  0  0  0  0  0
  184.6200  178.2490  140.6630 C   0  0  0  0  0  2  0  0  0  0  0  0
  183.7820  177.5690  139.7780 O   0  0  0  0  0  1  0  0  0  0  0  0
  186.7040  178.8200  142.7180 C   0  0  0  0  0  2  0  0  0  0  0  0
  185.6750  178.2610  143.6880 C   0  0  0  0  0  2  0  0  0  0  0  0
  184.8200  179.3810  144.2540 C   0  0  0  0  0  2  0  0  0  0  0  0
  184.0810  178.9040  145.4900 C   0  0  0  0  0  2  0  0  0  0  0  0
  185.7140  179.4050  147.1430 O   0  0  0  0  0  0  0  0  0  0  0  0
  186.1810  176.7000  147.8810 C   0  0  0  0  0  1  0  0  0  0  0  0
  185.0540  178.5130  146.5440 C   0  0  0  0  0  0  0  0  0  0  0  0
  185.2460  177.1330  146.8570 N   0  0  0  0  0  2  0  0  0  0  0  0
  189.3940  176.3560  143.4380 C   0  0  0  0  0  2  0  0  0  0  0  0
  191.2430  176.4380  148.0290 C   0  0  0  0  0  2  0  0  0  0  0  0
  190.0340  176.6200  147.1430 C   0  0  1  0  0  3  0  0  0  0  0  0
  191.4970  175.1130  147.2920 C   0  0  0  0  0  2  0  0  0  0  0  0
  189.8180  177.8200  146.3650 N   0  0  0  0  0  2  0  0  0  0  0  0
  188.6140  177.5110  145.5560 C   0  0  0  0  0  2  0  0  0  0  0  0
  190.5950  175.6210  146.1930 C   0  0  1  0  0  3  0  0  0  0  0  0
  188.6910  176.1430  144.7760 C   0  0  2  0  0  3  0  0  0  0  0  0
  189.3670  174.9970  145.5900 C   0  0  0  0  0  2  0  0  0  0  0  0
  191.1410  172.3550  141.9830 C   0  0  0  0  0  2  0  0  0  0  0  0
  191.8170  171.1960  141.2600 C   0  0  2  0  0  3  0  0  0  0  0  0
  190.5270  169.0750  141.5100 O   0  0  0  0  0  0  0  0  0  0  0  0
  192.2130  169.5730  142.9820 O   0  0  0  0  0  1  0  0  0  0  0  0
  191.5370  169.9100  141.9740 C   0  0  0  0  0  0  0  0  0  0  0  0
  193.8560  170.7680  140.0290 O   0  0  0  0  0  1  0  0  0  0  0  0
  193.3210  171.4570  141.1210 C   0  0  1  0  0  3  0  0  0  0  0  0
  193.6500  172.9660  141.0500 C   0  0  1  0  0  3  0  0  0  0  0  0
  194.6950  173.4070  142.0880 C   0  0  2  0  0  3  0  0  0  0  0  0
  195.5920  172.2530  142.5320 C   0  0  0  0  0  1  0  0  0  0  0  0
  194.0390  176.2380  142.2880 O   0  0  0  0  0  0  0  0  0  0  0  0
  194.9510  176.3320  144.4560 C   0  0  0  0  0  0  0  0  0  0  0  0
  194.3500  173.3840  144.6290 C   0  0  1  0  0  3  0  0  0  0  0  0
  194.0470  174.1070  143.2980 C   0  0  1  0  0  3  0  0  0  0  0  0
  194.3480  175.5960  143.2800 C   0  0  0  0  0  0  0  0  0  0  0  0
  194.0110  177.2100  144.9640 F   0  0  0  0  0  0  0  0  0  0  0  0
  196.0460  177.0580  144.0240 F   0  0  0  0  0  0  0  0  0  0  0  0
  195.4060  175.3980  145.5720 C   0  0  0  0  0  2  0  0  0  0  0  0
  194.3710  174.3200  145.8250 C   0  0  0  0  0  2  0  0  0  0  0  0
  193.3320  172.2860  144.8770 C   0  0  0  0  0  1  0  0  0  0  0  0
  193.9610  173.5120  139.6370 C   0  0  2  0  0  3  0  0  0  0  0  0
  195.0670  174.3630  139.6630 O   0  0  0  0  0  1  0  0  0  0  0  0
  192.9190  174.6430  137.8400 O   0  0  0  0  0  0  0  0  0  0  0  0
  192.8060  174.1940  138.9700 C   0  0  0  0  0  3  0  0  0  0  0  0
  1 31  1  0  0  0  0
  1  6  1  0  0  0  0
  3  7  1  0  0  0  0
  4  2  1  6  0  0  0
  4  5  1  0  0  0  0
  4  3  1  0  0  0  0
  5  1  1  0  0  0  0
  7  8  1  1  0  0  0
  7  6  1  0  0  0  0
  8  9  1  6  0  0  0
  8 22  1  0  0  0  0
  9 11  1  0  0  0  0
 10 12  1  0  0  0  0
 10 11  2  0  0  0  0
 11 14  1  0  0  0  0
 13 12  1  0  0  0  0
 14 15  1  0  0  0  0
 15 16  1  0  0  0  0
 16 17  1  0  0  0  0
 17 20  1  0  0  0  0
 20 21  1  0  0  0  0
 20 18  2  0  0  0  0
 21 19  1  0  0  0  0
 24 23  1  1  0  0  0
 25 23  1  0  0  0  0
 26 24  1  0  0  0  0
 27 26  1  0  0  0  0
 28 30  1  1  0  0  0
 28 24  1  0  0  0  0
 28 25  1  0  0  0  0
 29 22  1  6  0  0  0
 29 27  1  0  0  0  0
 29 30  1  0  0  0  0
 32 35  1  0  0  0  0
 32 31  1  1  0  0  0
 33 35  2  0  0  0  0
 35 34  1  0  0  0  0
 37 36  1  6  0  0  0
 37 32  1  0  0  0  0
 38 51  1  6  0  0  0
 38 37  1  0  0  0  0
 38 39  1  0  0  0  0
 39 40  1  1  0  0  0
 41 45  2  0  0  0  0
 42 46  1  0  0  0  0
 42 48  1  0  0  0  0
 43 50  1  1  0  0  0
 43 49  1  0  0  0  0
 44 39  1  6  0  0  0
 44 43  1  0  0  0  0
 45 44  1  0  0  0  0
 45 42  1  0  0  0  0
 47 42  1  0  0  0  0
 48 49  1  0  0  0  0
 51 52  1  1  0  0  0
 53 54  2  0  0  0  0
 54 51  1  0  0  0  0
M  END
>  <MODEL>
1

>  <REMARK>
 VINA RESULT:      -6.7      0.000      0.000
  Name = 
  20 active torsions:
  status: ('A' for Active; 'I' for Inactive)
    1  A    between atoms: N_1  and  C_5
    2  A    between atoms: C_2  and  C_18
    3  A    between atoms: C_2  and  C_30
    4  A    between atoms: C_5  and  C_39
    5  A    between atoms: C_6  and  C_20
    6  A    between atoms: C_6  and  C_47
    7  A    between atoms: C_9  and  C_22
    8  A    between atoms: C_13  and  C_47
    9  A    between atoms: C_13  and  C_48
   10  A    between atoms: C_16  and  C_17
   11  A    between atoms: C_16  and  C_41
   12  A    between atoms: C_16  and  C_49
   13  A    between atoms: C_17  and  C_30
   14  A    between atoms: C_18  and  C_52
   15  A    between atoms: C_21  and  C_43
   16  A    between atoms: C_39  and  C_44
   17  A    between atoms: C_39  and  C_54
   18  A    between atoms: C_40  and  C_49
   19  A    between atoms: C_43  and  C_52
   20  A    between atoms: C_44  and  C_47
                            x       y       z     vdW  Elec       q    Type
                         _______ _______ _______ _____ _____    ______ ____

>  <TORSDO>
F 20

$$$$
=
 OpenBabel11062418333D

 54 57  0  0  1  0  0  0  0  0999 V2000
  192.2510  175.4780  145.4370 N   0  0  0  0  0  0  0  0  0  0  0  0
  188.9980  174.7670  147.2620 C   0  0  0  0  0  1  0  0  0  0  0  0
  189.3330  175.4120  144.8810 C   0  0  0  0  0  2  0  0  0  0  0  0
  189.9300  175.4590  146.2920 C   0  0  2  0  0  3  0  0  0  0  0  0
  191.3070  174.8020  146.3360 C   0  0  0  0  0  2  0  0  0  0  0  0
  191.6810  175.8110  144.1180 C   0  0  0  0  0  2  0  0  0  0  0  0
  190.3730  175.0690  143.8070 C   0  0  2  0  0  3  0  0  0  0  0  0
  189.8600  175.4200  142.4080 C   0  0  2  0  0  3  0  0  0  0  0  0
  188.3330  175.4340  142.3810 C   0  0  0  0  0  2  0  0  0  0  0  0
  187.1530  176.1960  140.3760 C   0  0  0  0  0  3  0  0  0  0  0  0
  187.8040  176.5220  141.5030 C   0  0  0  0  0  0  0  0  0  0  0  0
  186.6470  177.1990  139.3850 C   0  0  0  0  0  2  0  0  0  0  0  0
  186.5960  176.6290  138.1120 O   0  0  0  0  0  1  0  0  0  0  0  0
  188.1380  177.9410  141.8580 C   0  0  0  0  0  2  0  0  0  0  0  0
  186.9030  178.6780  142.3530 C   0  0  0  0  0  2  0  0  0  0  0  0
  186.5720  178.2560  143.7730 C   0  0  0  0  0  2  0  0  0  0  0  0
  185.7030  179.3040  144.4430 C   0  0  0  0  0  2  0  0  0  0  0  0
  184.0770  178.8810  146.1260 O   0  0  0  0  0  0  0  0  0  0  0  0
  185.9300  177.8820  148.0370 C   0  0  0  0  0  1  0  0  0  0  0  0
  185.2930  178.8350  145.7940 C   0  0  0  0  0  0  0  0  0  0  0  0
  186.2790  178.3550  146.7080 N   0  0  0  0  0  2  0  0  0  0  0  0
  190.3690  174.4030  141.3900 C   0  0  0  0  0  2  0  0  0  0  0  0
  190.7410  170.3040  138.6390 C   0  0  0  0  0  2  0  0  0  0  0  0
  190.2510  170.9350  139.9210 C   0  0  1  0  0  3  0  0  0  0  0  0
  190.0920  171.4830  137.8960 C   0  0  0  0  0  2  0  0  0  0  0  0
  191.1330  171.2130  141.0340 N   0  0  0  0  0  2  0  0  0  0  0  0
  190.2750  171.9440  141.9980 C   0  0  0  0  0  2  0  0  0  0  0  0
  190.0830  172.2290  139.2080 C   0  0  1  0  0  3  0  0  0  0  0  0
  189.4870  173.1580  141.3730 C   0  0  2  0  0  3  0  0  0  0  0  0
  188.9410  172.8770  139.9400 C   0  0  0  0  0  2  0  0  0  0  0  0
  193.3440  174.5480  145.2120 C   0  0  0  0  0  2  0  0  0  0  0  0
  194.5900  175.0160  145.9550 C   0  0  2  0  0  3  0  0  0  0  0  0
  195.1400  177.2420  144.9730 O   0  0  0  0  0  0  0  0  0  0  0  0
  194.1530  177.1110  147.0380 O   0  0  0  0  0  1  0  0  0  0  0  0
  194.6140  176.5110  146.0310 C   0  0  0  0  0  0  0  0  0  0  0  0
  196.8040  174.0820  146.2400 O   0  0  0  0  0  1  0  0  0  0  0  0
  195.8510  174.4570  145.2880 C   0  0  1  0  0  3  0  0  0  0  0  0
  195.5360  173.2950  144.3190 C   0  0  1  0  0  3  0  0  0  0  0  0
  196.0410  173.5450  142.8870 C   0  0  2  0  0  3  0  0  0  0  0  0
  197.0050  174.7280  142.8140 C   0  0  0  0  0  1  0  0  0  0  0  0
  194.6110  171.3900  141.5480 O   0  0  0  0  0  0  0  0  0  0  0  0
  194.7340  172.5370  139.4960 C   0  0  0  0  0  0  0  0  0  0  0  0
  194.9340  175.0570  141.1370 C   0  0  1  0  0  3  0  0  0  0  0  0
  194.8810  173.7080  141.8870 C   0  0  1  0  0  3  0  0  0  0  0  0
  194.7550  172.4760  141.0080 C   0  0  0  0  0  0  0  0  0  0  0  0
  193.4800  172.1590  139.0510 F   0  0  0  0  0  0  0  0  0  0  0  0
  195.6680  171.6510  138.9920 F   0  0  0  0  0  0  0  0  0  0  0  0
  195.0510  173.9260  138.9530 C   0  0  0  0  0  2  0  0  0  0  0  0
  194.3230  174.9930  139.7480 C   0  0  0  0  0  2  0  0  0  0  0  0
  194.2300  176.1360  141.9390 C   0  0  0  0  0  1  0  0  0  0  0  0
  195.9080  171.8830  144.8310 C   0  0  2  0  0  3  0  0  0  0  0  0
  196.8150  171.2620  143.9710 O   0  0  0  0  0  1  0  0  0  0  0  0
  194.5150  170.5350  146.1860 O   0  0  0  0  0  0  0  0  0  0  0  0
  194.7330  170.9850  145.0720 C   0  0  0  0  0  3  0  0  0  0  0  0
  1  5  1  0  0  0  0
  3  4  1  0  0  0  0
  4  5  1  0  0  0  0
  4  2  1  1  0  0  0
  6  1  1  0  0  0  0
  7  8  1  6  0  0  0
  7  6  1  0  0  0  0
  7  3  1  0  0  0  0
  8 22  1  6  0  0  0
  9  8  1  0  0  0  0
 10 11  2  0  0  0  0
 11 14  1  0  0  0  0
 11  9  1  0  0  0  0
 12 10  1  0  0  0  0
 13 12  1  0  0  0  0
 14 15  1  0  0  0  0
 15 16  1  0  0  0  0
 16 17  1  0  0  0  0
 17 20  1  0  0  0  0
 20 18  2  0  0  0  0
 20 21  1  0  0  0  0
 21 19  1  0  0  0  0
 24 23  1  6  0  0  0
 24 26  1  0  0  0  0
 25 23  1  0  0  0  0
 26 27  1  0  0  0  0
 28 25  1  6  0  0  0
 28 24  1  0  0  0  0
 28 30  1  0  0  0  0
 29 22  1  6  0  0  0
 29 27  1  0  0  0  0
 30 29  1  0  0  0  0
 31  1  1  0  0  0  0
 32 31  1  6  0  0  0
 32 35  1  0  0  0  0
 33 35  2  0  0  0  0
 35 34  1  0  0  0  0
 37 32  1  0  0  0  0
 37 36  1  1  0  0  0
 38 39  1  6  0  0  0
 38 51  1  0  0  0  0
 38 37  1  0  0  0  0
 39 40  1  1  0  0  0
 42 45  1  0  0  0  0
 43 44  1  0  0  0  0
 43 50  1  1  0  0  0
 44 39  1  6  0  0  0
 45 41  2  0  0  0  0
 45 44  1  0  0  0  0
 46 42  1  0  0  0  0
 47 42  1  0  0  0  0
 48 42  1  0  0  0  0
 48 49  1  0  0  0  0
 49 43  1  0  0  0  0
 51 52  1  6  0  0  0
 51 54  1  0  0  0  0
 54 53  2  0  0  0  0
M  END
>  <MODEL>
2

>  <REMARK>
 VINA RESULT:      -6.3      2.500      5.820
  Name = 
  20 active torsions:
  status: ('A' for Active; 'I' for Inactive)
    1  A    between atoms: N_1  and  C_5
    2  A    between atoms: C_2  and  C_18
    3  A    between atoms: C_2  and  C_30
    4  A    between atoms: C_5  and  C_39
    5  A    between atoms: C_6  and  C_20
    6  A    between atoms: C_6  and  C_47
    7  A    between atoms: C_9  and  C_22
    8  A    between atoms: C_13  and  C_47
    9  A    between atoms: C_13  and  C_48
   10  A    between atoms: C_16  and  C_17
   11  A    between atoms: C_16  and  C_41
   12  A    between atoms: C_16  and  C_49
   13  A    between atoms: C_17  and  C_30
   14  A    between atoms: C_18  and  C_52
   15  A    between atoms: C_21  and  C_43
   16  A    between atoms: C_39  and  C_44
   17  A    between atoms: C_39  and  C_54
   18  A    between atoms: C_40  and  C_49
   19  A    between atoms: C_43  and  C_52
   20  A    between atoms: C_44  and  C_47
                            x       y       z     vdW  Elec       q    Type
                         _______ _______ _______ _____ _____    ______ ____

>  <TORSDO>
F 20

$$$$
=
 OpenBabel11062418333D

 54 57  0  0  1  0  0  0  0  0999 V2000
  190.8500  174.2940  144.3220 N   0  0  0  0  0  0  0  0  0  0  0  0
  193.2470  176.2020  146.5660 C   0  0  0  0  0  1  0  0  0  0  0  0
  193.2350  173.7740  146.0160 C   0  0  0  0  0  2  0  0  0  0  0  0
  192.3840  175.0450  146.1110 C   0  0  2  0  0  3  0  0  0  0  0  0
  191.7300  175.3800  144.7740 C   0  0  0  0  0  2  0  0  0  0  0  0
  191.4280  172.9480  144.4970 C   0  0  0  0  0  2  0  0  0  0  0  0
  192.9420  172.9560  144.7520 C   0  0  2  0  0  3  0  0  0  0  0  0
  193.4870  171.5310  144.8760 C   0  0  2  0  0  3  0  0  0  0  0  0
  194.9370  171.4650  144.4020 C   0  0  0  0  0  2  0  0  0  0  0  0
  195.5880  169.8010  146.0770 C   0  0  0  0  0  3  0  0  0  0  0  0
  195.8500  170.9740  145.4800 C   0  0  0  0  0  0  0  0  0  0  0  0
  196.3880  169.2480  147.2160 C   0  0  0  0  0  2  0  0  0  0  0  0
  197.4450  168.4780  146.7260 O   0  0  0  0  0  1  0  0  0  0  0  0
  196.9560  171.8800  145.9350 C   0  0  0  0  0  2  0  0  0  0  0  0
  196.4870  173.3260  145.9740 C   0  0  0  0  0  2  0  0  0  0  0  0
  197.1390  174.1220  144.8580 C   0  0  0  0  0  2  0  0  0  0  0  0
  196.3330  175.3730  144.5660 C   0  0  0  0  0  2  0  0  0  0  0  0
  195.7640  174.1760  142.5920 O   0  0  0  0  0  0  0  0  0  0  0  0
  193.8940  176.0970  141.6480 C   0  0  0  0  0  1  0  0  0  0  0  0
  195.5770  175.2050  143.2960 C   0  0  0  0  0  0  0  0  0  0  0  0
  194.6590  176.2160  142.8770 N   0  0  0  0  0  2  0  0  0  0  0  0
  192.6430  170.5710  144.0430 C   0  0  0  0  0  2  0  0  0  0  0  0
  190.7990  169.3160  139.6230 C   0  0  0  0  0  2  0  0  0  0  0  0
  191.9630  169.8840  140.4000 C   0  0  1  0  0  3  0  0  0  0  0  0
  190.7680  168.1690  140.6470 C   0  0  0  0  0  2  0  0  0  0  0  0
  191.9800  171.2480  140.8820 N   0  0  0  0  0  2  0  0  0  0  0  0
  193.2200  171.3260  141.6930 C   0  0  0  0  0  2  0  0  0  0  0  0
  191.5750  169.0500  141.5690 C   0  0  1  0  0  3  0  0  0  0  0  0
  193.3700  170.1760  142.7600 C   0  0  2  0  0  3  0  0  0  0  0  0
  192.8900  168.7830  142.2490 C   0  0  0  0  0  2  0  0  0  0  0  0
  190.6450  174.4930  142.8980 C   0  0  0  0  0  2  0  0  0  0  0  0
  189.1550  174.5650  142.5880 C   0  0  2  0  0  3  0  0  0  0  0  0
  187.5800  172.6310  142.6470 O   0  0  0  0  0  1  0  0  0  0  0  0
  189.2460  172.7080  141.0730 O   0  0  0  0  0  0  0  0  0  0  0  0
  188.6750  173.2500  142.0560 C   0  0  0  0  0  0  0  0  0  0  0  0
  188.1590  175.2670  140.4980 O   0  0  0  0  0  1  0  0  0  0  0  0
  188.8650  175.7150  141.6180 C   0  0  1  0  0  3  0  0  0  0  0  0
  188.1390  176.8940  142.3060 C   0  0  1  0  0  3  0  0  0  0  0  0
  187.4220  176.4890  143.6040 C   0  0  2  0  0  3  0  0  0  0  0  0
  186.0780  175.8130  143.3360 C   0  0  0  0  0  1  0  0  0  0  0  0
  188.7870  176.8230  146.1550 O   0  0  0  0  0  0  0  0  0  0  0  0
  186.7770  177.4830  147.1850 C   0  0  0  0  0  0  0  0  0  0  0  0
  185.8860  178.3630  144.4440 C   0  0  1  0  0  3  0  0  0  0  0  0
  187.2650  177.6780  144.5710 C   0  0  1  0  0  3  0  0  0  0  0  0
  187.6680  177.2800  145.9800 C   0  0  0  0  0  0  0  0  0  0  0  0
  187.3490  178.4340  148.0100 F   0  0  0  0  0  0  0  0  0  0  0  0
  186.6780  176.2940  147.8830 F   0  0  0  0  0  0  0  0  0  0  0  0
  185.3700  177.9370  146.8130 C   0  0  0  0  0  2  0  0  0  0  0  0
  185.4160  179.0050  145.7380 C   0  0  0  0  0  2  0  0  0  0  0  0
  185.9180  179.4160  143.3510 C   0  0  0  0  0  1  0  0  0  0  0  0
  188.9790  178.1810  142.4790 C   0  0  2  0  0  3  0  0  0  0  0  0
  189.1150  178.8560  141.2650 O   0  0  0  0  0  1  0  0  0  0  0  0
  190.7540  178.7310  143.9430 O   0  0  0  0  0  0  0  0  0  0  0  0
  190.3270  177.9610  143.0970 C   0  0  0  0  0  3  0  0  0  0  0  0
  1  6  1  0  0  0  0
  1  5  1  0  0  0  0
  3  4  1  0  0  0  0
  4  2  1  6  0  0  0
  5  4  1  0  0  0  0
  6  7  1  0  0  0  0
  7  8  1  1  0  0  0
  7  3  1  0  0  0  0
  8 22  1  6  0  0  0
  9  8  1  0  0  0  0
  9 11  1  0  0  0  0
 10 12  1  0  0  0  0
 11 14  1  0  0  0  0
 11 10  2  0  0  0  0
 13 12  1  0  0  0  0
 14 15  1  0  0  0  0
 16 15  1  0  0  0  0
 17 16  1  0  0  0  0
 18 20  2  0  0  0  0
 19 21  1  0  0  0  0
 20 17  1  0  0  0  0
 21 20  1  0  0  0  0
 23 25  1  0  0  0  0
 24 23  1  6  0  0  0
 24 26  1  0  0  0  0
 24 28  1  0  0  0  0
 26 27  1  0  0  0  0
 27 29  1  0  0  0  0
 28 25  1  6  0  0  0
 28 30  1  0  0  0  0
 29 22  1  1  0  0  0
 30 29  1  0  0  0  0
 31  1  1  0  0  0  0
 32 31  1  6  0  0  0
 34 35  2  0  0  0  0
 35 32  1  0  0  0  0
 35 33  1  0  0  0  0
 37 36  1  6  0  0  0
 37 32  1  0  0  0  0
 38 37  1  1  0  0  0
 38 51  1  0  0  0  0
 38 39  1  0  0  0  0
 39 40  1  6  0  0  0
 42 47  1  0  0  0  0
 42 46  1  0  0  0  0
 43 50  1  6  0  0  0
 43 44  1  0  0  0  0
 43 49  1  0  0  0  0
 44 39  1  6  0  0  0
 44 45  1  0  0  0  0
 45 41  2  0  0  0  0
 45 42  1  0  0  0  0
 48 42  1  0  0  0  0
 49 48  1  0  0  0  0
 51 52  1  6  0  0  0
 51 54  1  0  0  0  0
 54 53  2  0  0  0  0
M  END
>  <MODEL>
3

>  <REMARK>
 VINA RESULT:      -6.3      3.098      9.231
  Name = 
  20 active torsions:
  status: ('A' for Active; 'I' for Inactive)
    1  A    between atoms: N_1  and  C_5
    2  A    between atoms: C_2  and  C_18
    3  A    between atoms: C_2  and  C_30
    4  A    between atoms: C_5  and  C_39
    5  A    between atoms: C_6  and  C_20
    6  A    between atoms: C_6  and  C_47
    7  A    between atoms: C_9  and  C_22
    8  A    between atoms: C_13  and  C_47
    9  A    between atoms: C_13  and  C_48
   10  A    between atoms: C_16  and  C_17
   11  A    between atoms: C_16  and  C_41
   12  A    between atoms: C_16  and  C_49
   13  A    between atoms: C_17  and  C_30
   14  A    between atoms: C_18  and  C_52
   15  A    between atoms: C_21  and  C_43
   16  A    between atoms: C_39  and  C_44
   17  A    between atoms: C_39  and  C_54
   18  A    between atoms: C_40  and  C_49
   19  A    between atoms: C_43  and  C_52
   20  A    between atoms: C_44  and  C_47
                            x       y       z     vdW  Elec       q    Type
                         _______ _______ _______ _____ _____    ______ ____

>  <TORSDO>
F 20

$$$$
=
 OpenBabel11062418333D

 54 57  0  0  1  0  0  0  0  0999 V2000
  192.8610  176.2790  143.9080 N   0  0  0  0  0  0  0  0  0  0  0  0
  191.6050  176.1600  147.4910 C   0  0  0  0  0  1  0  0  0  0  0  0
  190.2820  176.2450  145.3840 C   0  0  0  0  0  2  0  0  0  0  0  0
  191.6310  176.5710  146.0340 C   0  0  2  0  0  3  0  0  0  0  0  0
  192.7800  175.8690  145.3170 C   0  0  0  0  0  2  0  0  0  0  0  0
  191.5510  176.3420  143.2310 C   0  0  0  0  0  2  0  0  0  0  0  0
  190.4300  175.6200  143.9910 C   0  0  2  0  0  3  0  0  0  0  0  0
  189.1110  175.6800  143.2150 C   0  0  2  0  0  3  0  0  0  0  0  0
  189.3360  175.3360  141.7440 C   0  0  0  0  0  2  0  0  0  0  0  0
  189.9790  173.0130  142.1810 C   0  0  0  0  0  3  0  0  0  0  0  0
  189.2050  173.8670  141.4930 C   0  0  0  0  0  0  0  0  0  0  0  0
  189.9870  171.5320  141.9600 C   0  0  0  0  0  2  0  0  0  0  0  0
  190.9180  170.9280  142.8070 O   0  0  0  0  0  1  0  0  0  0  0  0
  188.2990  173.4190  140.3850 C   0  0  0  0  0  2  0  0  0  0  0  0
  188.2730  174.4420  139.2610 C   0  0  0  0  0  2  0  0  0  0  0  0
  188.6720  173.7940  137.9480 C   0  0  0  0  0  2  0  0  0  0  0  0
  190.1320  173.3820  137.9880 C   0  0  0  0  0  2  0  0  0  0  0  0
  190.8610  171.7890  136.3810 O   0  0  0  0  0  0  0  0  0  0  0  0
  189.8750  169.5250  137.7890 C   0  0  0  0  0  1  0  0  0  0  0  0
  190.2810  171.9910  137.4820 C   0  0  0  0  0  0  0  0  0  0  0  0
  189.7520  170.9010  138.2370 N   0  0  0  0  0  2  0  0  0  0  0  0
  188.5050  177.0760  143.3160 C   0  0  0  0  0  2  0  0  0  0  0  0
  184.5470  178.2870  146.0320 C   0  0  0  0  0  2  0  0  0  0  0  0
  185.1490  178.1480  144.6540 C   0  0  1  0  0  3  0  0  0  0  0  0
  185.0860  176.8780  146.3320 C   0  0  0  0  0  2  0  0  0  0  0  0
  186.0490  179.1360  144.0990 N   0  0  0  0  0  2  0  0  0  0  0  0
  186.4930  178.5360  142.8170 C   0  0  0  0  0  2  0  0  0  0  0  0
  186.0170  177.0500  145.1560 C   0  0  1  0  0  3  0  0  0  0  0  0
  187.0250  177.0570  142.9440 C   0  0  2  0  0  3  0  0  0  0  0  0
  186.2060  176.1820  143.9420 C   0  0  0  0  0  2  0  0  0  0  0  0
  193.6490  175.2670  143.2280 C   0  0  0  0  0  2  0  0  0  0  0  0
  195.1020  175.7170  143.1250 C   0  0  2  0  0  3  0  0  0  0  0  0
  196.6350  176.7340  141.4400 O   0  0  0  0  0  1  0  0  0  0  0  0
  194.3800  176.6490  141.0360 O   0  0  0  0  0  0  0  0  0  0  0  0
  195.3390  176.3950  141.8110 C   0  0  0  0  0  0  0  0  0  0  0  0
  196.9410  174.7700  144.3800 O   0  0  0  0  0  1  0  0  0  0  0  0
  196.0460  174.5280  143.3340 C   0  0  1  0  0  3  0  0  0  0  0  0
  195.2810  173.2020  143.5440 C   0  0  1  0  0  3  0  0  0  0  0  0
  195.5370  172.1710  142.4320 C   0  0  2  0  0  3  0  0  0  0  0  0
  196.4360  172.7240  141.3280 C   0  0  0  0  0  1  0  0  0  0  0  0
  194.2820  169.6440  143.1540 O   0  0  0  0  0  0  0  0  0  0  0  0
  193.8970  169.1460  140.8860 C   0  0  0  0  0  0  0  0  0  0  0  0
  193.9430  172.1240  140.4240 C   0  0  1  0  0  3  0  0  0  0  0  0
  194.2240  171.6100  141.8530 C   0  0  1  0  0  3  0  0  0  0  0  0
  194.1630  170.1020  142.0280 C   0  0  0  0  0  0  0  0  0  0  0  0
  192.6670  168.5460  141.0820 F   0  0  0  0  0  0  0  0  0  0  0  0
  194.8720  168.1660  140.8780 F   0  0  0  0  0  0  0  0  0  0  0  0
  193.8990  169.8330  139.5240 C   0  0  0  0  0  2  0  0  0  0  0  0
  193.1410  171.1450  139.5830 C   0  0  0  0  0  2  0  0  0  0  0  0
  193.2070  173.4510  140.4750 C   0  0  0  0  0  1  0  0  0  0  0  0
  195.4030  172.5800  144.9560 C   0  0  2  0  0  3  0  0  0  0  0  0
  196.1350  171.3930  144.9170 O   0  0  0  0  0  1  0  0  0  0  0  0
  193.0740  172.1680  144.9980 O   0  0  0  0  0  0  0  0  0  0  0  0
  194.0920  172.3520  145.6460 C   0  0  0  0  0  3  0  0  0  0  0  0
  1  5  1  0  0  0  0
  3  4  1  0  0  0  0
  4  2  1  1  0  0  0
  5  4  1  0  0  0  0
  6  1  1  0  0  0  0
  6  7  1  0  0  0  0
  7  8  1  6  0  0  0
  7  3  1  0  0  0  0
  8  9  1  6  0  0  0
  8 22  1  0  0  0  0
 11  9  1  0  0  0  0
 11 10  2  0  0  0  0
 12 10  1  0  0  0  0
 12 13  1  0  0  0  0
 14 11  1  0  0  0  0
 15 14  1  0  0  0  0
 16 17  1  0  0  0  0
 16 15  1  0  0  0  0
 18 20  2  0  0  0  0
 19 21  1  0  0  0  0
 20 17  1  0  0  0  0
 20 21  1  0  0  0  0
 23 25  1  0  0  0  0
 24 28  1  0  0  0  0
 24 23  1  1  0  0  0
 26 24  1  0  0  0  0
 27 29  1  0  0  0  0
 27 26  1  0  0  0  0
 28 30  1  6  0  0  0
 28 25  1  0  0  0  0
 29 22  1  1  0  0  0
 29 30  1  0  0  0  0
 31  1  1  0  0  0  0
 32 31  1  6  0  0  0
 32 37  1  0  0  0  0
 33 35  1  0  0  0  0
 34 35  2  0  0  0  0
 35 32  1  0  0  0  0
 37 38  1  0  0  0  0
 37 36  1  1  0  0  0
 38 39  1  6  0  0  0
 38 51  1  0  0  0  0
 39 40  1  6  0  0  0
 42 46  1  0  0  0  0
 42 45  1  0  0  0  0
 43 50  1  1  0  0  0
 43 44  1  0  0  0  0
 44 45  1  0  0  0  0
 44 39  1  6  0  0  0
 45 41  2  0  0  0  0
 47 42  1  0  0  0  0
 48 49  1  0  0  0  0
 48 42  1  0  0  0  0
 49 43  1  0  0  0  0
 51 52  1  6  0  0  0
 51 54  1  0  0  0  0
 53 54  2  0  0  0  0
M  END
>  <MODEL>
4

>  <REMARK>
 VINA RESULT:      -6.1      3.232      7.085
  Name = 
  20 active torsions:
  status: ('A' for Active; 'I' for Inactive)
    1  A    between atoms: N_1  and  C_5
    2  A    between atoms: C_2  and  C_18
    3  A    between atoms: C_2  and  C_30
    4  A    between atoms: C_5  and  C_39
    5  A    between atoms: C_6  and  C_20
    6  A    between atoms: C_6  and  C_47
    7  A    between atoms: C_9  and  C_22
    8  A    between atoms: C_13  and  C_47
    9  A    between atoms: C_13  and  C_48
   10  A    between atoms: C_16  and  C_17
   11  A    between atoms: C_16  and  C_41
   12  A    between atoms: C_16  and  C_49
   13  A    between atoms: C_17  and  C_30
   14  A    between atoms: C_18  and  C_52
   15  A    between atoms: C_21  and  C_43
   16  A    between atoms: C_39  and  C_44
   17  A    between atoms: C_39  and  C_54
   18  A    between atoms: C_40  and  C_49
   19  A    between atoms: C_43  and  C_52
   20  A    between atoms: C_44  and  C_47
                            x       y       z     vdW  Elec       q    Type
                         _______ _______ _______ _____ _____    ______ ____

>  <TORSDO>
F 20

$$$$
=
 OpenBabel11062418333D

 54 57  0  0  1  0  0  0  0  0999 V2000
  194.9090  175.5280  142.3940 N   0  0  0  0  0  0  0  0  0  0  0  0
  196.0790  174.3160  145.7970 C   0  0  0  0  0  1  0  0  0  0  0  0
  193.8620  175.2510  145.1600 C   0  0  0  0  0  2  0  0  0  0  0  0
  195.3510  175.1960  144.8040 C   0  0  2  0  0  3  0  0  0  0  0  0
  195.5670  174.6710  143.3880 C   0  0  0  0  0  2  0  0  0  0  0  0
  193.5490  175.9510  142.7800 C   0  0  0  0  0  2  0  0  0  0  0  0
  192.9520  175.1290  143.9310 C   0  0  2  0  0  3  0  0  0  0  0  0
  191.5260  175.5840  144.2510 C   0  0  2  0  0  3  0  0  0  0  0  0
  190.7860  175.9750  142.9740 C   0  0  0  0  0  2  0  0  0  0  0  0
  189.9140  173.6910  142.8430 C   0  0  0  0  0  3  0  0  0  0  0  0
  189.7020  175.0000  142.6410 C   0  0  0  0  0  0  0  0  0  0  0  0
  188.9310  172.6210  142.4770 C   0  0  0  0  0  2  0  0  0  0  0  0
  189.4680  171.7980  141.4860 O   0  0  0  0  0  1  0  0  0  0  0  0
  188.4640  175.5220  141.9750 C   0  0  0  0  0  2  0  0  0  0  0  0
  187.6840  176.4270  142.9160 C   0  0  0  0  0  2  0  0  0  0  0  0
  187.7480  177.8660  142.4370 C   0  0  0  0  0  2  0  0  0  0  0  0
  186.5040  178.2090  141.6400 C   0  0  0  0  0  2  0  0  0  0  0  0
  184.2480  177.7950  142.2640 O   0  0  0  0  0  0  0  0  0  0  0  0
  184.3560  179.3120  144.6650 C   0  0  0  0  0  1  0  0  0  0  0  0
  185.3390  178.3550  142.5530 C   0  0  0  0  0  0  0  0  0  0  0  0
  185.4620  179.1420  143.7390 N   0  0  0  0  0  2  0  0  0  0  0  0
  191.5550  176.7790  145.2000 C   0  0  0  0  0  2  0  0  0  0  0  0
  186.8160  176.4400  146.5880 C   0  0  0  0  0  2  0  0  0  0  0  0
  188.2420  176.0000  146.8180 C   0  0  1  0  0  3  0  0  0  0  0  0
  187.3420  177.8850  146.5570 C   0  0  0  0  0  2  0  0  0  0  0  0
  188.8880  175.0050  145.9900 N   0  0  0  0  0  2  0  0  0  0  0  0
  190.2890  174.9900  146.4740 C   0  0  0  0  0  2  0  0  0  0  0  0
  188.7180  177.3140  146.3100 C   0  0  1  0  0  3  0  0  0  0  0  0
  190.9610  176.4140  146.5570 C   0  0  2  0  0  3  0  0  0  0  0  0
  189.9990  177.5300  147.0670 C   0  0  0  0  0  2  0  0  0  0  0  0
  194.7860  174.7350  141.1820 C   0  0  0  0  0  2  0  0  0  0  0  0
  196.1240  174.0920  140.8400 C   0  0  2  0  0  3  0  0  0  0  0  0
  196.6970  175.1610  138.6600 O   0  0  0  0  0  0  0  0  0  0  0  0
  197.8700  175.7120  140.5510 O   0  0  0  0  0  1  0  0  0  0  0  0
  196.9530  175.0320  140.0200 C   0  0  0  0  0  0  0  0  0  0  0  0
  196.9690  171.8740  140.3670 O   0  0  0  0  0  1  0  0  0  0  0  0
  195.9070  172.7520  140.1290 C   0  0  1  0  0  3  0  0  0  0  0  0
  194.5510  172.1070  140.4960 C   0  0  1  0  0  3  0  0  0  0  0  0
  193.8700  171.4100  139.3050 C   0  0  2  0  0  3  0  0  0  0  0  0
  194.3890  171.9200  137.9620 C   0  0  0  0  0  1  0  0  0  0  0  0
  192.0120  169.1710  139.4460 O   0  0  0  0  0  0  0  0  0  0  0  0
  190.6280  170.1730  137.8270 C   0  0  0  0  0  0  0  0  0  0  0  0
  191.7920  172.8000  138.7370 C   0  0  1  0  0  3  0  0  0  0  0  0
  192.3340  171.5060  139.3830 C   0  0  1  0  0  3  0  0  0  0  0  0
  191.6920  170.2170  138.9020 C   0  0  0  0  0  0  0  0  0  0  0  0
  189.4340  169.7690  138.3970 F   0  0  0  0  0  0  0  0  0  0  0  0
  190.9930  169.2520  136.8630 F   0  0  0  0  0  0  0  0  0  0  0  0
  190.4170  171.5210  137.1450 C   0  0  0  0  0  2  0  0  0  0  0  0
  190.3930  172.6410  138.1650 C   0  0  0  0  0  2  0  0  0  0  0  0
  191.7890  173.9340  139.7450 C   0  0  0  0  0  1  0  0  0  0  0  0
  194.5570  171.2230  141.7650 C   0  0  2  0  0  3  0  0  0  0  0  0
  194.5170  169.8690  141.4310 O   0  0  0  0  0  1  0  0  0  0  0  0
  193.7340  171.7580  143.9170 O   0  0  0  0  0  0  0  0  0  0  0  0
  193.4690  171.5420  142.7450 C   0  0  0  0  0  3  0  0  0  0  0  0
  1  6  1  0  0  0  0
  1  5  1  0  0  0  0
  4  3  1  0  0  0  0
  4  2  1  1  0  0  0
  5  4  1  0  0  0  0
  6  7  1  0  0  0  0
  7  8  1  1  0  0  0
  7  3  1  0  0  0  0
  8  9  1  6  0  0  0
  8 22  1  0  0  0  0
 11 10  2  0  0  0  0
 11  9  1  0  0  0  0
 12 10  1  0  0  0  0
 13 12  1  0  0  0  0
 14 11  1  0  0  0  0
 14 15  1  0  0  0  0
 16 15  1  0  0  0  0
 17 16  1  0  0  0  0
 17 20  1  0  0  0  0
 18 20  2  0  0  0  0
 20 21  1  0  0  0  0
 21 19  1  0  0  0  0
 24 23  1  6  0  0  0
 25 23  1  0  0  0  0
 26 27  1  0  0  0  0
 26 24  1  0  0  0  0
 27 29  1  0  0  0  0
 28 25  1  1  0  0  0
 28 24  1  0  0  0  0
 28 30  1  0  0  0  0
 29 22  1  6  0  0  0
 29 30  1  0  0  0  0
 31  1  1  0  0  0  0
 32 31  1  6  0  0  0
 33 35  2  0  0  0  0
 35 34  1  0  0  0  0
 35 32  1  0  0  0  0
 37 36  1  1  0  0  0
 37 38  1  0  0  0  0
 37 32  1  0  0  0  0
 38 39  1  6  0  0  0
 38 51  1  0  0  0  0
 39 40  1  6  0  0  0
 42 46  1  0  0  0  0
 42 45  1  0  0  0  0
 43 44  1  0  0  0  0
 43 50  1  1  0  0  0
 44 39  1  6  0  0  0
 45 44  1  0  0  0  0
 45 41  2  0  0  0  0
 47 42  1  0  0  0  0
 48 42  1  0  0  0  0
 48 49  1  0  0  0  0
 49 43  1  0  0  0  0
 51 52  1  6  0  0  0
 51 54  1  0  0  0  0
 54 53  2  0  0  0  0
M  END
>  <MODEL>
5

>  <REMARK>
 VINA RESULT:      -6.1      3.018      6.097
  Name = 
  20 active torsions:
  status: ('A' for Active; 'I' for Inactive)
    1  A    between atoms: N_1  and  C_5
    2  A    between atoms: C_2  and  C_18
    3  A    between atoms: C_2  and  C_30
    4  A    between atoms: C_5  and  C_39
    5  A    between atoms: C_6  and  C_20
    6  A    between atoms: C_6  and  C_47
    7  A    between atoms: C_9  and  C_22
    8  A    between atoms: C_13  and  C_47
    9  A    between atoms: C_13  and  C_48
   10  A    between atoms: C_16  and  C_17
   11  A    between atoms: C_16  and  C_41
   12  A    between atoms: C_16  and  C_49
   13  A    between atoms: C_17  and  C_30
   14  A    between atoms: C_18  and  C_52
   15  A    between atoms: C_21  and  C_43
   16  A    between atoms: C_39  and  C_44
   17  A    between atoms: C_39  and  C_54
   18  A    between atoms: C_40  and  C_49
   19  A    between atoms: C_43  and  C_52
   20  A    between atoms: C_44  and  C_47
                            x       y       z     vdW  Elec       q    Type
                         _______ _______ _______ _____ _____    ______ ____

>  <TORSDO>
F 20

$$$$
=
 OpenBabel11062418333D

 54 57  0  0  1  0  0  0  0  0999 V2000
  192.6180  175.6600  144.9830 N   0  0  0  0  0  0  0  0  0  0  0  0
  190.4350  175.1130  148.0420 C   0  0  0  0  0  1  0  0  0  0  0  0
  189.7690  175.1340  145.6440 C   0  0  0  0  0  2  0  0  0  0  0  0
  190.8040  175.6190  146.6650 C   0  0  2  0  0  3  0  0  0  0  0  0
  192.2090  175.1510  146.2990 C   0  0  0  0  0  2  0  0  0  0  0  0
  191.5630  175.5670  143.9560 C   0  0  0  0  0  2  0  0  0  0  0  0
  190.4080  174.6330  144.3420 C   0  0  2  0  0  3  0  0  0  0  0  0
  189.3730  174.5420  143.2170 C   0  0  2  0  0  3  0  0  0  0  0  0
  189.9580  175.0580  141.9050 C   0  0  0  0  0  2  0  0  0  0  0  0
  188.6170  173.6530  140.4120 C   0  0  0  0  0  3  0  0  0  0  0  0
  189.8370  174.0460  140.8090 C   0  0  0  0  0  0  0  0  0  0  0  0
  188.3780  172.5940  139.3790 C   0  0  0  0  0  2  0  0  0  0  0  0
  188.1720  173.1840  138.1310 O   0  0  0  0  0  1  0  0  0  0  0  0
  191.0960  173.4200  140.2860 C   0  0  0  0  0  2  0  0  0  0  0  0
  191.6670  172.4340  141.2920 C   0  0  0  0  0  2  0  0  0  0  0  0
  191.6840  171.0330  140.7070 C   0  0  0  0  0  2  0  0  0  0  0  0
  191.7740  171.0980  139.1940 C   0  0  0  0  0  2  0  0  0  0  0  0
  190.5630  169.0530  139.2570 O   0  0  0  0  0  0  0  0  0  0  0  0
  191.4080  168.1680  136.6910 C   0  0  0  0  0  1  0  0  0  0  0  0
  191.3370  169.8050  138.6040 C   0  0  0  0  0  0  0  0  0  0  0  0
  191.8090  169.4180  137.3120 N   0  0  0  0  0  2  0  0  0  0  0  0
  188.1370  175.3620  143.5730 C   0  0  0  0  0  2  0  0  0  0  0  0
  184.7820  179.0020  143.6240 C   0  0  0  0  0  2  0  0  0  0  0  0
  186.2270  178.6080  143.4290 C   0  0  1  0  0  3  0  0  0  0  0  0
  184.4130  177.8440  142.6830 C   0  0  0  0  0  2  0  0  0  0  0  0
  187.1160  178.3460  144.5410 N   0  0  0  0  0  2  0  0  0  0  0  0
  188.3630  177.8660  143.8980 C   0  0  0  0  0  2  0  0  0  0  0  0
  185.7850  177.2720  142.9460 C   0  0  1  0  0  3  0  0  0  0  0  0
  188.1470  176.7070  142.8510 C   0  0  2  0  0  3  0  0  0  0  0  0
  186.8680  176.8850  141.9770 C   0  0  0  0  0  2  0  0  0  0  0  0
  193.7240  174.8280  144.5430 C   0  0  0  0  0  2  0  0  0  0  0  0
  195.0090  175.2510  145.2440 C   0  0  2  0  0  3  0  0  0  0  0  0
  194.9990  177.7260  145.5620 O   0  0  0  0  0  1  0  0  0  0  0  0
  196.1060  176.8030  143.7800 O   0  0  0  0  0  0  0  0  0  0  0  0
  195.4030  176.6300  144.8100 C   0  0  0  0  0  0  0  0  0  0  0  0
  196.8330  173.9470  146.1540 O   0  0  0  0  0  1  0  0  0  0  0  0
  196.1210  174.2300  144.9840 C   0  0  1  0  0  3  0  0  0  0  0  0
  195.5880  172.9380  144.3240 C   0  0  1  0  0  3  0  0  0  0  0  0
  196.3430  172.5580  143.0390 C   0  0  2  0  0  3  0  0  0  0  0  0
  197.4360  173.5670  142.6910 C   0  0  0  0  0  1  0  0  0  0  0  0
  195.3870  169.9900  142.0520 O   0  0  0  0  0  0  0  0  0  0  0  0
  195.8030  170.6490  139.8310 C   0  0  0  0  0  0  0  0  0  0  0  0
  195.4680  173.4790  140.8120 C   0  0  1  0  0  3  0  0  0  0  0  0
  195.3870  172.3390  141.8510 C   0  0  1  0  0  3  0  0  0  0  0  0
  195.5390  170.9350  141.2930 C   0  0  0  0  0  0  0  0  0  0  0  0
  194.6950  170.0220  139.2910 F   0  0  0  0  0  0  0  0  0  0  0  0
  196.8890  169.8000  139.7230 F   0  0  0  0  0  0  0  0  0  0  0  0
  196.0980  171.9080  139.0240 C   0  0  0  0  0  2  0  0  0  0  0  0
  195.1430  173.0240  139.4000 C   0  0  0  0  0  2  0  0  0  0  0  0
  194.5340  174.6110  141.1950 C   0  0  0  0  0  1  0  0  0  0  0  0
  195.4070  171.7310  145.2740 C   0  0  2  0  0  3  0  0  0  0  0  0
  196.4130  170.7850  145.0770 O   0  0  0  0  0  1  0  0  0  0  0  0
  193.9700  169.8660  145.0470 O   0  0  0  0  0  0  0  0  0  0  0  0
  194.0620  171.0750  145.1910 C   0  0  0  0  0  3  0  0  0  0  0  0
  1  5  1  0  0  0  0
  3  4  1  0  0  0  0
  4  2  1  1  0  0  0
  5  4  1  0  0  0  0
  6  7  1  0  0  0  0
  6  1  1  0  0  0  0
  7  8  1  6  0  0  0
  7  3  1  0  0  0  0
  8  9  1  6  0  0  0
  8 22  1  0  0  0  0
 10 11  2  0  0  0  0
 11  9  1  0  0  0  0
 12 10  1  0  0  0  0
 13 12  1  0  0  0  0
 14 11  1  0  0  0  0
 14 15  1  0  0  0  0
 16 15  1  0  0  0  0
 17 16  1  0  0  0  0
 19 21  1  0  0  0  0
 20 17  1  0  0  0  0
 20 18  2  0  0  0  0
 21 20  1  0  0  0  0
 24 23  1  1  0  0  0
 24 26  1  0  0  0  0
 25 28  1  0  0  0  0
 25 23  1  0  0  0  0
 27 26  1  0  0  0  0
 28 30  1  6  0  0  0
 28 24  1  0  0  0  0
 29 22  1  1  0  0  0
 29 27  1  0  0  0  0
 30 29  1  0  0  0  0
 31  1  1  0  0  0  0
 32 31  1  6  0  0  0
 34 35  2  0  0  0  0
 35 32  1  0  0  0  0
 35 33  1  0  0  0  0
 37 32  1  0  0  0  0
 37 36  1  1  0  0  0
 38 39  1  6  0  0  0
 38 37  1  0  0  0  0
 38 51  1  0  0  0  0
 39 40  1  6  0  0  0
 42 45  1  0  0  0  0
 43 50  1  1  0  0  0
 43 44  1  0  0  0  0
 44 39  1  1  0  0  0
 45 44  1  0  0  0  0
 45 41  2  0  0  0  0
 46 42  1  0  0  0  0
 47 42  1  0  0  0  0
 48 49  1  0  0  0  0
 48 42  1  0  0  0  0
 49 43  1  0  0  0  0
 51 52  1  6  0  0  0
 53 54  2  0  0  0  0
 54 51  1  0  0  0  0
M  END
>  <MODEL>
6

>  <REMARK>
 VINA RESULT:      -5.9      3.089      7.412
  Name = 
  20 active torsions:
  status: ('A' for Active; 'I' for Inactive)
    1  A    between atoms: N_1  and  C_5
    2  A    between atoms: C_2  and  C_18
    3  A    between atoms: C_2  and  C_30
    4  A    between atoms: C_5  and  C_39
    5  A    between atoms: C_6  and  C_20
    6  A    between atoms: C_6  and  C_47
    7  A    between atoms: C_9  and  C_22
    8  A    between atoms: C_13  and  C_47
    9  A    between atoms: C_13  and  C_48
   10  A    between atoms: C_16  and  C_17
   11  A    between atoms: C_16  and  C_41
   12  A    between atoms: C_16  and  C_49
   13  A    between atoms: C_17  and  C_30
   14  A    between atoms: C_18  and  C_52
   15  A    between atoms: C_21  and  C_43
   16  A    between atoms: C_39  and  C_44
   17  A    between atoms: C_39  and  C_54
   18  A    between atoms: C_40  and  C_49
   19  A    between atoms: C_43  and  C_52
   20  A    between atoms: C_44  and  C_47
                            x       y       z     vdW  Elec       q    Type
                         _______ _______ _______ _____ _____    ______ ____

>  <TORSDO>
F 20

$$$$
=
 OpenBabel11062418333D

 54 57  0  0  1  0  0  0  0  0999 V2000
  190.0960  173.2230  141.2920 N   0  0  0  0  0  0  0  0  0  0  0  0
  187.5190  175.9690  140.8030 C   0  0  0  0  0  1  0  0  0  0  0  0
  189.2950  175.7980  142.5400 C   0  0  0  0  0  2  0  0  0  0  0  0
  188.4110  175.0130  141.5650 C   0  0  2  0  0  3  0  0  0  0  0  0
  189.2490  174.1940  140.5880 C   0  0  0  0  0  2  0  0  0  0  0  0
  190.7600  173.7720  142.4900 C   0  0  0  0  0  2  0  0  0  0  0  0
  190.7480  175.3060  142.5520 C   0  0  2  0  0  3  0  0  0  0  0  0
  191.4930  175.8130  143.7890 C   0  0  2  0  0  3  0  0  0  0  0  0
  190.6760  176.8840  144.5100 C   0  0  0  0  0  2  0  0  0  0  0  0
  191.3140  176.8460  146.8740 C   0  0  0  0  0  3  0  0  0  0  0  0
  190.4140  176.5150  145.9350 C   0  0  0  0  0  0  0  0  0  0  0  0
  191.1930  176.4630  148.3170 C   0  0  0  0  0  2  0  0  0  0  0  0
  191.5380  177.5450  149.1280 O   0  0  0  0  0  1  0  0  0  0  0  0
  189.2080  175.6750  146.2360 C   0  0  0  0  0  2  0  0  0  0  0  0
  188.0610  176.5380  146.7360 C   0  0  0  0  0  2  0  0  0  0  0  0
  187.0840  176.8220  145.6100 C   0  0  0  0  0  2  0  0  0  0  0  0
  187.2230  178.2590  145.1440 C   0  0  0  0  0  2  0  0  0  0  0  0
  185.6200  179.7810  144.2680 O   0  0  0  0  0  0  0  0  0  0  0  0
  184.4460  177.9190  142.4690 C   0  0  0  0  0  1  0  0  0  0  0  0
  186.0940  178.6120  144.2430 C   0  0  0  0  0  0  0  0  0  0  0  0
  185.5460  177.6230  143.3710 N   0  0  0  0  0  2  0  0  0  0  0  0
  192.8430  176.3990  143.3860 C   0  0  0  0  0  2  0  0  0  0  0  0
  196.2730  172.8320  143.2700 C   0  0  0  0  0  2  0  0  0  0  0  0
  195.8680  174.1880  143.7960 C   0  0  1  0  0  3  0  0  0  0  0  0
  194.8840  172.3300  143.6960 C   0  0  0  0  0  2  0  0  0  0  0  0
  195.9590  175.3890  142.9930 N   0  0  0  0  0  2  0  0  0  0  0  0
  195.3370  176.4350  143.8400 C   0  0  0  0  0  2  0  0  0  0  0  0
  194.4410  173.7730  143.7350 C   0  0  1  0  0  3  0  0  0  0  0  0
  193.9190  176.0480  144.4100 C   0  0  2  0  0  3  0  0  0  0  0  0
  193.8090  174.5560  144.8510 C   0  0  0  0  0  2  0  0  0  0  0  0
  191.1400  172.8330  140.3610 C   0  0  0  0  0  2  0  0  0  0  0  0
  191.0360  171.3440  140.0530 C   0  0  2  0  0  3  0  0  0  0  0  0
  190.4450  169.5580  141.6920 O   0  0  0  0  0  0  0  0  0  0  0  0
  192.3950  170.7390  141.9340 O   0  0  0  0  0  1  0  0  0  0  0  0
  191.3380  170.5410  141.2800 C   0  0  0  0  0  0  0  0  0  0  0  0
  191.4010  169.9580  138.1020 O   0  0  0  0  0  1  0  0  0  0  0  0
  191.9580  170.9740  138.8860 C   0  0  1  0  0  3  0  0  0  0  0  0
  192.3400  172.2020  138.0280 C   0  0  1  0  0  3  0  0  0  0  0  0
  193.8580  172.3660  137.8470 C   0  0  2  0  0  3  0  0  0  0  0  0
  194.6540  171.4790  138.8030 C   0  0  0  0  0  1  0  0  0  0  0  0
  194.6600  174.0910  135.6420 O   0  0  0  0  0  0  0  0  0  0  0  0
  196.5040  174.8740  136.8780 C   0  0  0  0  0  0  0  0  0  0  0  0
  194.9090  174.1690  139.3360 C   0  0  1  0  0  3  0  0  0  0  0  0
  194.2960  173.8390  137.9580 C   0  0  1  0  0  3  0  0  0  0  0  0
  195.1350  174.2400  136.7570 C   0  0  0  0  0  0  0  0  0  0  0  0
  196.4340  176.1770  136.4200 F   0  0  0  0  0  0  0  0  0  0  0  0
  197.4000  174.1750  136.0910 F   0  0  0  0  0  0  0  0  0  0  0  0
  197.0290  174.8820  138.3090 C   0  0  0  0  0  2  0  0  0  0  0  0
  195.9380  175.2850  139.2810 C   0  0  0  0  0  2  0  0  0  0  0  0
  193.8190  174.5480  140.3220 C   0  0  0  0  0  1  0  0  0  0  0  0
  191.5730  172.3430  136.6930 C   0  0  2  0  0  3  0  0  0  0  0  0
  192.3680  171.9490  135.6160 O   0  0  0  0  0  1  0  0  0  0  0  0
  190.1480  174.1690  137.1730 O   0  0  0  0  0  0  0  0  0  0  0  0
  191.0130  173.7110  136.4430 C   0  0  0  0  0  3  0  0  0  0  0  0
  1  6  1  0  0  0  0
  3  7  1  0  0  0  0
  4  2  1  6  0  0  0
  4  3  1  0  0  0  0
  5  1  1  0  0  0  0
  5  4  1  0  0  0  0
  6  7  1  0  0  0  0
  7  8  1  1  0  0  0
  8 22  1  6  0  0  0
  8  9  1  0  0  0  0
  9 11  1  0  0  0  0
 10 12  1  0  0  0  0
 11 14  1  0  0  0  0
 11 10  2  0  0  0  0
 12 13  1  0  0  0  0
 14 15  1  0  0  0  0
 16 15  1  0  0  0  0
 17 16  1  0  0  0  0
 19 21  1  0  0  0  0
 20 18  2  0  0  0  0
 20 17  1  0  0  0  0
 21 20  1  0  0  0  0
 23 25  1  0  0  0  0
 24 23  1  6  0  0  0
 26 24  1  0  0  0  0
 26 27  1  0  0  0  0
 27 29  1  0  0  0  0
 28 25  1  1  0  0  0
 28 24  1  0  0  0  0
 28 30  1  0  0  0  0
 29 22  1  6  0  0  0
 29 30  1  0  0  0  0
 31  1  1  0  0  0  0
 32 31  1  1  0  0  0
 32 35  1  0  0  0  0
 35 33  2  0  0  0  0
 35 34  1  0  0  0  0
 37 36  1  6  0  0  0
 37 32  1  0  0  0  0
 38 51  1  6  0  0  0
 38 37  1  0  0  0  0
 39 38  1  0  0  0  0
 39 40  1  1  0  0  0
 41 45  2  0  0  0  0
 42 48  1  0  0  0  0
 43 50  1  1  0  0  0
 44 39  1  1  0  0  0
 44 43  1  0  0  0  0
 45 42  1  0  0  0  0
 45 44  1  0  0  0  0
 46 42  1  0  0  0  0
 47 42  1  0  0  0  0
 48 49  1  0  0  0  0
 49 43  1  0  0  0  0
 51 52  1  6  0  0  0
 54 51  1  0  0  0  0
 54 53  2  0  0  0  0
M  END
>  <MODEL>
7

>  <REMARK>
 VINA RESULT:      -5.9      2.824      5.299
  Name = 
  20 active torsions:
  status: ('A' for Active; 'I' for Inactive)
    1  A    between atoms: N_1  and  C_5
    2  A    between atoms: C_2  and  C_18
    3  A    between atoms: C_2  and  C_30
    4  A    between atoms: C_5  and  C_39
    5  A    between atoms: C_6  and  C_20
    6  A    between atoms: C_6  and  C_47
    7  A    between atoms: C_9  and  C_22
    8  A    between atoms: C_13  and  C_47
    9  A    between atoms: C_13  and  C_48
   10  A    between atoms: C_16  and  C_17
   11  A    between atoms: C_16  and  C_41
   12  A    between atoms: C_16  and  C_49
   13  A    between atoms: C_17  and  C_30
   14  A    between atoms: C_18  and  C_52
   15  A    between atoms: C_21  and  C_43
   16  A    between atoms: C_39  and  C_44
   17  A    between atoms: C_39  and  C_54
   18  A    between atoms: C_40  and  C_49
   19  A    between atoms: C_43  and  C_52
   20  A    between atoms: C_44  and  C_47
                            x       y       z     vdW  Elec       q    Type
                         _______ _______ _______ _____ _____    ______ ____

>  <TORSDO>
F 20

$$$$
=
 OpenBabel11062418333D

 54 57  0  0  1  0  0  0  0  0999 V2000
  189.8190  173.5330  140.7400 N   0  0  0  0  0  0  0  0  0  0  0  0
  186.6160  172.0010  142.0880 C   0  0  0  0  0  1  0  0  0  0  0  0
  187.4750  174.3180  142.3890 C   0  0  0  0  0  2  0  0  0  0  0  0
  187.8590  172.8640  142.0920 C   0  0  2  0  0  3  0  0  0  0  0  0
  188.5820  172.7400  140.7550 C   0  0  0  0  0  2  0  0  0  0  0  0
  189.6700  174.8770  141.3290 C   0  0  0  0  0  2  0  0  0  0  0  0
  188.2090  175.3210  141.4900 C   0  0  2  0  0  3  0  0  0  0  0  0
  188.1250  176.7400  142.0600 C   0  0  2  0  0  3  0  0  0  0  0  0
  187.4760  177.6870  141.0530 C   0  0  0  0  0  2  0  0  0  0  0  0
  185.1700  178.1080  140.3430 C   0  0  0  0  0  3  0  0  0  0  0  0
  186.0280  177.9090  141.3560 C   0  0  0  0  0  0  0  0  0  0  0  0
  183.7160  178.4140  140.5300 C   0  0  0  0  0  2  0  0  0  0  0  0
  182.9410  177.5330  139.7730 O   0  0  0  0  0  1  0  0  0  0  0  0
  185.6170  178.0260  142.7930 C   0  0  0  0  0  2  0  0  0  0  0  0
  186.0230  179.3760  143.3630 C   0  0  0  0  0  2  0  0  0  0  0  0
  184.9420  179.9050  144.2880 C   0  0  0  0  0  2  0  0  0  0  0  0
  184.3270  178.7670  145.0810 C   0  0  0  0  0  2  0  0  0  0  0  0
  185.5670  179.4210  147.0010 O   0  0  0  0  0  0  0  0  0  0  0  0
  186.3200  176.7820  147.7400 C   0  0  0  0  0  1  0  0  0  0  0  0
  185.1620  178.4730  146.2760 C   0  0  0  0  0  0  0  0  0  0  0  0
  185.5110  177.1220  146.5820 N   0  0  0  0  0  2  0  0  0  0  0  0
  189.5200  177.2520  142.4030 C   0  0  0  0  0  2  0  0  0  0  0  0
  190.6680  175.3360  146.8210 C   0  0  0  0  0  2  0  0  0  0  0  0
  190.5790  176.5700  145.9560 C   0  0  1  0  0  3  0  0  0  0  0  0
  189.2410  174.9960  146.3590 C   0  0  0  0  0  2  0  0  0  0  0  0
  191.5770  176.8900  144.9580 N   0  0  0  0  0  2  0  0  0  0  0  0
  191.0250  178.0810  144.2680 C   0  0  0  0  0  2  0  0  0  0  0  0
  189.4500  175.9520  145.2100 C   0  0  1  0  0  3  0  0  0  0  0  0
  189.5360  177.9140  143.7790 C   0  0  2  0  0  3  0  0  0  0  0  0
  188.6310  177.1400  144.7850 C   0  0  0  0  0  2  0  0  0  0  0  0
  190.1780  173.7110  139.3440 C   0  0  0  0  0  2  0  0  0  0  0  0
  191.6580  173.4070  139.1410 C   0  0  2  0  0  3  0  0  0  0  0  0
  193.4130  173.8180  137.4160 O   0  0  0  0  0  1  0  0  0  0  0  0
  191.1950  173.9140  136.8420 O   0  0  0  0  0  0  0  0  0  0  0  0
  192.0630  173.7310  137.7360 C   0  0  0  0  0  0  0  0  0  0  0  0
  191.9700  171.1380  138.3590 O   0  0  0  0  0  1  0  0  0  0  0  0
  191.9570  171.9470  139.5000 C   0  0  1  0  0  3  0  0  0  0  0  0
  193.2650  171.7990  140.3100 C   0  0  1  0  0  3  0  0  0  0  0  0
  193.3350  172.7410  141.5240 C   0  0  2  0  0  3  0  0  0  0  0  0
  193.7870  174.1480  141.1380 C   0  0  0  0  0  1  0  0  0  0  0  0
  192.3790  171.4600  143.9590 O   0  0  0  0  0  0  0  0  0  0  0  0
  193.9190  172.6850  145.2500 C   0  0  0  0  0  0  0  0  0  0  0  0
  195.5860  172.8600  142.7450 C   0  0  1  0  0  3  0  0  0  0  0  0
  194.2110  172.1630  142.6520 C   0  0  1  0  0  3  0  0  0  0  0  0
  193.4290  172.0840  143.9510 C   0  0  0  0  0  0  0  0  0  0  0  0
  194.2000  171.6620  146.1380 F   0  0  0  0  0  0  0  0  0  0  0  0
  192.9220  173.4780  145.7890 F   0  0  0  0  0  0  0  0  0  0  0  0
  195.1680  173.5410  145.0740 C   0  0  0  0  0  2  0  0  0  0  0  0
  196.1610  172.8610  144.1520 C   0  0  0  0  0  2  0  0  0  0  0  0
  196.5790  172.2000  141.8060 C   0  0  0  0  0  1  0  0  0  0  0  0
  193.6620  170.3480  140.6710 C   0  0  2  0  0  3  0  0  0  0  0  0
  194.4450  169.7790  139.6650 O   0  0  0  0  0  1  0  0  0  0  0  0
  192.5730  168.6520  141.9080 O   0  0  0  0  0  0  0  0  0  0  0  0
  192.5040  169.4520  140.9890 C   0  0  0  0  0  3  0  0  0  0  0  0
  1  5  1  0  0  0  0
  1  6  1  0  0  0  0
  4  2  1  6  0  0  0
  4  3  1  0  0  0  0
  5  4  1  0  0  0  0
  6  7  1  0  0  0  0
  7  8  1  1  0  0  0
  7  3  1  0  0  0  0
  8  9  1  6  0  0  0
  8 22  1  0  0  0  0
  9 11  1  0  0  0  0
 10 12  1  0  0  0  0
 10 11  2  0  0  0  0
 11 14  1  0  0  0  0
 13 12  1  0  0  0  0
 14 15  1  0  0  0  0
 15 16  1  0  0  0  0
 16 17  1  0  0  0  0
 17 20  1  0  0  0  0
 20 21  1  0  0  0  0
 20 18  2  0  0  0  0
 21 19  1  0  0  0  0
 24 23  1  1  0  0  0
 25 23  1  0  0  0  0
 26 24  1  0  0  0  0
 27 26  1  0  0  0  0
 28 30  1  1  0  0  0
 28 24  1  0  0  0  0
 28 25  1  0  0  0  0
 29 22  1  6  0  0  0
 29 27  1  0  0  0  0
 29 30  1  0  0  0  0
 31  1  1  0  0  0  0
 32 31  1  6  0  0  0
 32 37  1  0  0  0  0
 33 35  1  0  0  0  0
 34 35  2  0  0  0  0
 35 32  1  0  0  0  0
 37 36  1  6  0  0  0
 38 37  1  1  0  0  0
 38 51  1  0  0  0  0
 38 39  1  0  0  0  0
 39 40  1  6  0  0  0
 42 47  1  0  0  0  0
 42 46  1  0  0  0  0
 43 50  1  6  0  0  0
 43 49  1  0  0  0  0
 44 39  1  6  0  0  0
 44 43  1  0  0  0  0
 44 45  1  0  0  0  0
 45 41  2  0  0  0  0
 45 42  1  0  0  0  0
 48 42  1  0  0  0  0
 49 48  1  0  0  0  0
 51 52  1  6  0  0  0
 51 54  1  0  0  0  0
 54 53  2  0  0  0  0
M  END
>  <MODEL>
8

>  <REMARK>
 VINA RESULT:      -5.9      1.772      3.159
  Name = 
  20 active torsions:
  status: ('A' for Active; 'I' for Inactive)
    1  A    between atoms: N_1  and  C_5
    2  A    between atoms: C_2  and  C_18
    3  A    between atoms: C_2  and  C_30
    4  A    between atoms: C_5  and  C_39
    5  A    between atoms: C_6  and  C_20
    6  A    between atoms: C_6  and  C_47
    7  A    between atoms: C_9  and  C_22
    8  A    between atoms: C_13  and  C_47
    9  A    between atoms: C_13  and  C_48
   10  A    between atoms: C_16  and  C_17
   11  A    between atoms: C_16  and  C_41
   12  A    between atoms: C_16  and  C_49
   13  A    between atoms: C_17  and  C_30
   14  A    between atoms: C_18  and  C_52
   15  A    between atoms: C_21  and  C_43
   16  A    between atoms: C_39  and  C_44
   17  A    between atoms: C_39  and  C_54
   18  A    between atoms: C_40  and  C_49
   19  A    between atoms: C_43  and  C_52
   20  A    between atoms: C_44  and  C_47
                            x       y       z     vdW  Elec       q    Type
                         _______ _______ _______ _____ _____    ______ ____

>  <TORSDO>
F 20

$$$$
=
 OpenBabel11062418333D

 54 57  0  0  1  0  0  0  0  0999 V2000
  190.9370  173.9470  143.6580 N   0  0  0  0  0  0  0  0  0  0  0  0
  192.2620  175.4560  146.8810 C   0  0  0  0  0  1  0  0  0  0  0  0
  193.3990  173.8860  145.3200 C   0  0  0  0  0  2  0  0  0  0  0  0
  192.0450  174.3960  145.8230 C   0  0  2  0  0  3  0  0  0  0  0  0
  191.2040  174.9640  144.6840 C   0  0  0  0  0  2  0  0  0  0  0  0
  192.1140  173.1270  143.3130 C   0  0  0  0  0  2  0  0  0  0  0  0
  193.4440  173.7240  143.7950 C   0  0  2  0  0  3  0  0  0  0  0  0
  194.6270  172.8520  143.3650 C   0  0  2  0  0  3  0  0  0  0  0  0
  195.0680  173.2040  141.9460 C   0  0  0  0  0  2  0  0  0  0  0  0
  196.7470  174.7490  142.8370 C   0  0  0  0  0  3  0  0  0  0  0  0
  195.8150  174.4980  141.9030 C   0  0  0  0  0  0  0  0  0  0  0  0
  197.5020  176.0390  142.9360 C   0  0  0  0  0  2  0  0  0  0  0  0
  196.7300  176.9940  143.5990 O   0  0  0  0  0  1  0  0  0  0  0  0
  195.4000  175.5200  140.8860 C   0  0  0  0  0  2  0  0  0  0  0  0
  195.5430  174.9670  139.4770 C   0  0  0  0  0  2  0  0  0  0  0  0
  194.1840  174.8690  138.8080 C   0  0  0  0  0  2  0  0  0  0  0  0
  194.0020  173.4950  138.1900 C   0  0  0  0  0  2  0  0  0  0  0  0
  191.7100  173.3510  138.8070 O   0  0  0  0  0  0  0  0  0  0  0  0
  191.9390  170.8200  140.0800 C   0  0  0  0  0  1  0  0  0  0  0  0
  192.8460  172.8040  138.8220 C   0  0  0  0  0  0  0  0  0  0  0  0
  193.0360  171.5370  139.4530 N   0  0  0  0  0  2  0  0  0  0  0  0
  194.2400  171.3770  143.4190 C   0  0  0  0  0  2  0  0  0  0  0  0
  196.0840  168.2170  146.7540 C   0  0  0  0  0  2  0  0  0  0  0  0
  195.9610  168.6000  145.2980 C   0  0  1  0  0  3  0  0  0  0  0  0
  196.4480  169.6840  147.0360 C   0  0  0  0  0  2  0  0  0  0  0  0
  194.7750  168.3130  144.5200 N   0  0  0  0  0  2  0  0  0  0  0  0
  195.0310  168.9770  143.2190 C   0  0  0  0  0  2  0  0  0  0  0  0
  195.8440  170.0280  145.6960 C   0  0  1  0  0  3  0  0  0  0  0  0
  195.4760  170.4850  143.3370 C   0  0  2  0  0  3  0  0  0  0  0  0
  196.4460  170.7580  144.5270 C   0  0  0  0  0  2  0  0  0  0  0  0
  190.5460  174.6650  142.4570 C   0  0  0  0  0  2  0  0  0  0  0  0
  189.0270  174.6850  142.3310 C   0  0  2  0  0  3  0  0  0  0  0  0
  187.4230  172.7740  142.3890 O   0  0  0  0  0  1  0  0  0  0  0  0
  189.1130  172.8070  140.8400 O   0  0  0  0  0  0  0  0  0  0  0  0
  188.5360  173.3700  141.8070 C   0  0  0  0  0  0  0  0  0  0  0  0
  187.6720  175.4340  140.4710 O   0  0  0  0  0  1  0  0  0  0  0  0
  188.5790  175.8550  141.4490 C   0  0  1  0  0  3  0  0  0  0  0  0
  188.0080  177.0280  142.2780 C   0  0  1  0  0  3  0  0  0  0  0  0
  187.3940  176.5830  143.6160 C   0  0  2  0  0  3  0  0  0  0  0  0
  186.1020  175.7900  143.4230 C   0  0  0  0  0  1  0  0  0  0  0  0
  188.7430  176.9920  146.1640 O   0  0  0  0  0  0  0  0  0  0  0  0
  186.7040  177.5650  147.1920 C   0  0  0  0  0  0  0  0  0  0  0  0
  185.7750  178.3890  144.4450 C   0  0  1  0  0  3  0  0  0  0  0  0
  187.1830  177.7680  144.5760 C   0  0  1  0  0  3  0  0  0  0  0  0
  187.6040  177.3970  145.9870 C   0  0  0  0  0  0  0  0  0  0  0  0
  187.2330  178.5460  148.0110 F   0  0  0  0  0  0  0  0  0  0  0  0
  186.6600  176.3760  147.8960 F   0  0  0  0  0  0  0  0  0  0  0  0
  185.2780  177.9530  146.8170 C   0  0  0  0  0  2  0  0  0  0  0  0
  185.2760  179.0160  145.7360 C   0  0  0  0  0  2  0  0  0  0  0  0
  185.7580  179.4360  143.3480 C   0  0  0  0  0  1  0  0  0  0  0  0
  188.9490  178.2450  142.4430 C   0  0  2  0  0  3  0  0  0  0  0  0
  188.9750  179.0180  141.2810 O   0  0  0  0  0  1  0  0  0  0  0  0
  190.8200  178.3440  143.8870 O   0  0  0  0  0  0  0  0  0  0  0  0
  190.3470  177.8930  142.8560 C   0  0  0  0  0  3  0  0  0  0  0  0
  1  5  1  0  0  0  0
  3  4  1  0  0  0  0
  4  2  1  1  0  0  0
  5  4  1  0  0  0  0
  6  1  1  0  0  0  0
  6  7  1  0  0  0  0
  7  8  1  1  0  0  0
  7  3  1  0  0  0  0
  8  9  1  6  0  0  0
  8 22  1  0  0  0  0
 10 12  1  0  0  0  0
 11  9  1  0  0  0  0
 11 10  2  0  0  0  0
 12 13  1  0  0  0  0
 14 11  1  0  0  0  0
 15 14  1  0  0  0  0
 16 15  1  0  0  0  0
 17 16  1  0  0  0  0
 17 20  1  0  0  0  0
 18 20  2  0  0  0  0
 20 21  1  0  0  0  0
 21 19  1  0  0  0  0
 23 25  1  0  0  0  0
 24 28  1  0  0  0  0
 24 23  1  1  0  0  0
 26 24  1  0  0  0  0
 27 29  1  0  0  0  0
 27 26  1  0  0  0  0
 28 30  1  6  0  0  0
 28 25  1  0  0  0  0
 29 22  1  1  0  0  0
 29 30  1  0  0  0  0
 31  1  1  0  0  0  0
 32 31  1  6  0  0  0
 34 35  2  0  0  0  0
 35 32  1  0  0  0  0
 35 33  1  0  0  0  0
 37 36  1  6  0  0  0
 37 32  1  0  0  0  0
 38 37  1  1  0  0  0
 38 51  1  0  0  0  0
 38 39  1  0  0  0  0
 39 40  1  6  0  0  0
 42 47  1  0  0  0  0
 42 46  1  0  0  0  0
 43 50  1  6  0  0  0
 43 44  1  0  0  0  0
 43 49  1  0  0  0  0
 44 39  1  6  0  0  0
 44 45  1  0  0  0  0
 45 41  2  0  0  0  0
 45 42  1  0  0  0  0
 48 42  1  0  0  0  0
 49 48  1  0  0  0  0
 51 52  1  6  0  0  0
 51 54  1  0  0  0  0
 54 53  2  0  0  0  0
M  END
>  <MODEL>
9

>  <REMARK>
 VINA RESULT:      -5.8      3.116      8.885
  Name = 
  20 active torsions:
  status: ('A' for Active; 'I' for Inactive)
    1  A    between atoms: N_1  and  C_5
    2  A    between atoms: C_2  and  C_18
    3  A    between atoms: C_2  and  C_30
    4  A    between atoms: C_5  and  C_39
    5  A    between atoms: C_6  and  C_20
    6  A    between atoms: C_6  and  C_47
    7  A    between atoms: C_9  and  C_22
    8  A    between atoms: C_13  and  C_47
    9  A    between atoms: C_13  and  C_48
   10  A    between atoms: C_16  and  C_17
   11  A    between atoms: C_16  and  C_41
   12  A    between atoms: C_16  and  C_49
   13  A    between atoms: C_17  and  C_30
   14  A    between atoms: C_18  and  C_52
   15  A    between atoms: C_21  and  C_43
   16  A    between atoms: C_39  and  C_44
   17  A    between atoms: C_39  and  C_54
   18  A    between atoms: C_40  and  C_49
   19  A    between atoms: C_43  and  C_52
   20  A    between atoms: C_44  and  C_47
                            x       y       z     vdW  Elec       q    Type
                         _______ _______ _______ _____ _____    ______ ____

>  <TORSDO>
F 20

$$$$
