=
 OpenBabel11062420223D

 53 56  0  0  1  0  0  0  0  0999 V2000
  190.1930  172.1710  144.2660 O   0  0  0  0  0  0  0  0  0  0  0  0
  187.4680  174.3720  142.3510 O   0  0  0  0  0  0  0  0  0  0  0  0
  187.7540  173.1040  141.8380 C   0  0  0  0  0  0  0  0  0  0  0  0
  190.6690  174.4450  143.7220 C   0  0  2  0  0  3  0  0  0  0  0  0
  192.0480  174.5920  143.8930 O   0  0  0  0  0  1  0  0  0  0  0  0
  188.1330  176.3680  143.4890 C   0  0  2  0  0  3  0  0  0  0  0  0
  186.8530  172.2260  141.8650 O   0  0  0  0  0  0  0  0  0  0  0  0
  189.8360  175.0080  144.8870 C   0  0  2  0  0  3  0  0  0  0  0  0
  189.0400  172.7670  141.2080 C   0  0  0  0  0  0  0  0  0  0  0  0
  189.3010  176.4100  144.4960 C   0  0  2  0  0  3  0  0  0  0  0  0
  191.3530  171.8820  139.9090 C   0  0  0  0  0  3  0  0  0  0  0  0
  189.0150  172.4320  139.8510 C   0  0  0  0  0  3  0  0  0  0  0  0
  190.3030  173.0440  143.3580 C   0  0  0  0  0  0  0  0  0  0  0  0
  188.3850  175.4440  142.3010 C   0  0  0  0  0  2  0  0  0  0  0  0
  191.4280  172.2470  141.2680 C   0  0  0  0  0  0  0  0  0  0  0  0
  190.1630  171.9870  139.2030 C   0  0  0  0  0  3  0  0  0  0  0  0
  190.2530  172.6670  141.9340 C   0  0  0  0  0  0  0  0  0  0  0  0
  187.7360  176.9840  146.3740 O   0  0  0  0  0  1  0  0  0  0  0  0
  189.6390  178.2180  146.0380 O   0  0  0  0  0  0  0  0  0  0  0  0
  188.9190  177.2380  145.6950 C   0  0  0  0  0  0  0  0  0  0  0  0
  189.7970  174.5060  147.2310 O   0  0  0  0  0  1  0  0  0  0  0  0
  190.6070  174.9880  146.2050 C   0  0  0  0  0  2  0  0  0  0  0  0
  187.7270  177.7730  143.0190 C   0  0  1  0  0  3  0  0  0  0  0  0
  188.5030  178.2170  141.7750 C   0  0  0  0  0  1  0  0  0  0  0  0
  186.2230  177.8750  142.8180 C   0  0  0  0  0  2  0  0  0  0  0  0
  185.5280  177.3200  143.9680 N   0  0  0  0  0  2  0  0  0  0  0  0
  184.6170  178.3410  144.4660 C   0  0  0  0  0  3  0  0  0  0  0  0
  184.4050  178.1520  145.9600 C   0  0  0  0  0  1  0  0  0  0  0  0
  185.2090  179.7100  144.2160 C   0  0  0  0  0  1  0  0  0  0  0  0
  192.7460  172.0540  142.0050 C   0  0  1  0  0  3  0  0  0  0  0  0
  192.8720  170.7570  142.8120 C   0  0  2  0  0  3  0  0  0  0  0  0
  194.8230  170.2370  144.4710 C   0  0  1  0  0  3  0  0  0  0  0  0
  193.2320  168.6150  142.6120 O   0  0  0  0  0  0  0  0  0  0  0  0
  194.7090  168.7140  144.4730 C   0  0  0  0  0  2  0  0  0  0  0  0
  193.4540  170.9000  144.2420 C   0  0  0  0  0  2  0  0  0  0  0  0
  194.4660  168.1660  143.0770 C   0  0  0  0  0  2  0  0  0  0  0  0
  193.5030  169.7710  142.0350 O   0  0  0  0  0  0  0  0  0  0  0  0
  195.5530  170.6390  145.7650 C   0  0  1  0  0  3  0  0  0  0  0  0
  194.6540  169.0570  147.4850 O   0  0  0  0  0  1  0  0  0  0  0  0
  195.6990  169.4470  146.6570 C   0  0  0  0  0  0  0  0  0  0  0  0
  196.7640  168.7720  146.6300 O   0  0  0  0  0  0  0  0  0  0  0  0
  196.8940  171.3870  145.6690 C   0  0  1  0  0  3  0  0  0  0  0  0
  197.7890  170.7510  144.8100 O   0  0  0  0  0  1  0  0  0  0  0  0
  196.0820  176.7370  144.1170 O   0  0  0  0  0  1  0  0  0  0  0  0
  196.0580  175.3530  144.3020 C   0  0  2  0  0  3  0  0  0  0  0  0
  194.3710  175.4410  146.1570 C   0  0  0  0  0  1  0  0  0  0  0  0
  196.7460  172.8340  145.3310 C   0  0  0  0  0  0  0  0  0  0  0  0
  195.7770  175.0110  145.7700 C   0  0  1  0  0  3  0  0  0  0  0  0
  197.4170  174.7830  143.9370 C   0  0  0  0  0  2  0  0  0  0  0  0
  197.4550  173.3860  144.2490 O   0  0  0  0  0  0  0  0  0  0  0  0
  195.9390  173.5760  146.0290 N   0  0  0  0  0  0  0  0  0  0  0  0
  194.9230  173.2440  141.6630 C   0  0  0  0  0  1  0  0  0  0  0  0
  193.9730  172.1960  141.1100 C   0  0  0  0  0  2  0  0  0  0  0  0
  3  7  2  0  0  0  0
  3  2  1  0  0  0  0
  4  5  1  1  0  0  0
  4  8  1  0  0  0  0
  6 23  1  6  0  0  0
  6 10  1  0  0  0  0
  8 22  1  1  0  0  0
  9  3  1  0  0  0  0
  9 17  1  0  0  0  0
 10  8  1  0  0  0  0
 10 20  1  1  0  0  0
 11 15  1  0  0  0  0
 12  9  2  0  0  0  0
 13  4  1  0  0  0  0
 13  1  2  0  0  0  0
 14  2  1  0  0  0  0
 14  6  1  0  0  0  0
 15 17  2  0  0  0  0
 15 30  1  0  0  0  0
 16 12  1  0  0  0  0
 16 11  2  0  0  0  0
 17 13  1  0  0  0  0
 20 19  2  0  0  0  0
 20 18  1  0  0  0  0
 22 21  1  0  0  0  0
 23 24  1  6  0  0  0
 25 23  1  0  0  0  0
 25 26  1  0  0  0  0
 26 27  1  0  0  0  0
 27 28  1  0  0  0  0
 29 27  1  0  0  0  0
 30 53  1  6  0  0  0
 31 30  1  6  0  0  0
 31 35  1  0  0  0  0
 32 34  1  0  0  0  0
 32 38  1  1  0  0  0
 33 36  1  0  0  0  0
 35 32  1  0  0  0  0
 36 34  1  0  0  0  0
 37 33  1  0  0  0  0
 37 31  1  0  0  0  0
 38 40  1  6  0  0  0
 40 39  1  0  0  0  0
 41 40  2  0  0  0  0
 42 43  1  6  0  0  0
 42 38  1  0  0  0  0
 45 44  1  1  0  0  0
 45 48  1  0  0  0  0
 47 42  1  0  0  0  0
 47 51  2  0  0  0  0
 48 51  1  0  0  0  0
 48 46  1  6  0  0  0
 49 50  1  0  0  0  0
 49 45  1  0  0  0  0
 50 47  1  0  0  0  0
 53 52  1  0  0  0  0
M  END
>  <MODEL>
1

>  <REMARK>
 VINA RESULT:      -7.4      0.000      0.000
  Name = 
  13 active torsions:
  status: ('A' for Active; 'I' for Inactive)
    1  A    between atoms: C_4  and  C_29
    2  A    between atoms: C_4  and  C_31
    3  A    between atoms: C_9  and  C_26
    4  A    between atoms: N_10  and  C_14
    5  A    between atoms: N_10  and  C_45
    6  A    between atoms: C_12  and  C_31
    7  A    between atoms: C_16  and  C_26
    8  A    between atoms: C_17  and  C_19
    9  A    between atoms: C_19  and  C_45
   10  A    between atoms: C_26  and  C_46
   11  A    between atoms: C_28  and  C_31
   12  A    between atoms: C_32  and  C_40
   13  A    between atoms: C_37  and  C_52
                            x       y       z     vdW  Elec       q    Type
                         _______ _______ _______ _____ _____    ______ ____

>  <TORSDO>
F 13

$$$$
=
 OpenBabel11062420223D

 53 56  0  0  1  0  0  0  0  0999 V2000
  192.9670  173.8650  145.2350 O   0  0  0  0  0  0  0  0  0  0  0  0
  189.6820  174.4830  143.0520 O   0  0  0  0  0  0  0  0  0  0  0  0
  190.6710  173.6560  142.5150 C   0  0  0  0  0  0  0  0  0  0  0  0
  192.1530  176.0850  144.9120 C   0  0  2  0  0  3  0  0  0  0  0  0
  193.1940  176.9290  145.3080 O   0  0  0  0  0  1  0  0  0  0  0  0
  189.0130  176.3420  144.4000 C   0  0  2  0  0  3  0  0  0  0  0  0
  190.4110  172.4360  142.3460 O   0  0  0  0  0  0  0  0  0  0  0  0
  191.0380  175.9420  145.9630 C   0  0  2  0  0  3  0  0  0  0  0  0
  191.9840  174.1580  142.0750 C   0  0  0  0  0  0  0  0  0  0  0  0
  189.8570  176.8700  145.5800 C   0  0  2  0  0  3  0  0  0  0  0  0
  194.5120  174.8530  141.1060 C   0  0  0  0  0  3  0  0  0  0  0  0
  192.2810  174.0540  140.7140 C   0  0  0  0  0  3  0  0  0  0  0  0
  192.6630  174.7740  144.4100 C   0  0  0  0  0  0  0  0  0  0  0  0
  189.8500  175.8750  143.2120 C   0  0  0  0  0  2  0  0  0  0  0  0
  194.2400  175.0090  142.4790 C   0  0  0  0  0  0  0  0  0  0  0  0
  193.5390  174.3930  140.2280 C   0  0  0  0  0  3  0  0  0  0  0  0
  192.9700  174.6310  142.9760 C   0  0  0  0  0  0  0  0  0  0  0  0
  189.1410  178.3580  147.4710 O   0  0  0  0  0  1  0  0  0  0  0  0
  188.1040  176.3420  147.1310 O   0  0  0  0  0  0  0  0  0  0  0  0
  188.9650  177.1850  146.7510 C   0  0  0  0  0  0  0  0  0  0  0  0
  191.3660  175.0120  148.1490 O   0  0  0  0  0  1  0  0  0  0  0  0
  191.5580  176.1600  147.3830 C   0  0  0  0  0  2  0  0  0  0  0  0
  187.9450  177.3540  143.9590 C   0  0  1  0  0  3  0  0  0  0  0  0
  188.2040  177.8970  142.5510 C   0  0  0  0  0  1  0  0  0  0  0  0
  186.5460  176.7740  144.0960 C   0  0  0  0  0  2  0  0  0  0  0  0
  185.6010  177.5620  143.3210 N   0  0  0  0  0  2  0  0  0  0  0  0
  184.7730  178.3030  144.2600 C   0  0  0  0  0  3  0  0  0  0  0  0
  184.8720  177.6710  145.6390 C   0  0  0  0  0  1  0  0  0  0  0  0
  185.2500  179.7360  144.3320 C   0  0  0  0  0  1  0  0  0  0  0  0
  195.3630  175.4590  143.4010 C   0  0  1  0  0  3  0  0  0  0  0  0
  196.3000  174.3520  143.8980 C   0  0  2  0  0  3  0  0  0  0  0  0
  195.6410  171.8280  144.0610 C   0  0  1  0  0  3  0  0  0  0  0  0
  197.3230  173.6120  145.6760 O   0  0  0  0  0  0  0  0  0  0  0  0
  196.6790  171.3980  145.0950 C   0  0  0  0  0  2  0  0  0  0  0  0
  196.1680  172.9800  143.1870 C   0  0  0  0  0  2  0  0  0  0  0  0
  196.8250  172.4230  146.2060 C   0  0  0  0  0  2  0  0  0  0  0  0
  196.2460  174.2760  145.3000 O   0  0  0  0  0  0  0  0  0  0  0  0
  195.2030  170.5620  143.3040 C   0  0  1  0  0  3  0  0  0  0  0  0
  196.1580  168.4710  144.2960 O   0  0  0  0  0  1  0  0  0  0  0  0
  196.2730  169.5210  143.3930 C   0  0  0  0  0  0  0  0  0  0  0  0
  197.2690  169.5780  142.6210 O   0  0  0  0  0  0  0  0  0  0  0  0
  193.8350  169.9340  143.6210 C   0  0  1  0  0  3  0  0  0  0  0  0
  193.1360  170.6600  144.5830 O   0  0  0  0  0  1  0  0  0  0  0  0
  190.4880  169.3220  139.1360 O   0  0  0  0  0  1  0  0  0  0  0  0
  191.1760  169.7440  140.2760 C   0  0  2  0  0  3  0  0  0  0  0  0
  193.0130  170.8610  138.9830 C   0  0  0  0  0  1  0  0  0  0  0  0
  192.9990  169.6840  142.4090 C   0  0  0  0  0  0  0  0  0  0  0  0
  192.6850  169.7870  140.0090 C   0  0  1  0  0  3  0  0  0  0  0  0
  190.9240  168.7520  141.3980 C   0  0  0  0  0  2  0  0  0  0  0  0
  191.7280  169.0930  142.5330 O   0  0  0  0  0  0  0  0  0  0  0  0
  193.4420  170.0380  141.2400 N   0  0  0  0  0  0  0  0  0  0  0  0
  197.6760  176.2120  142.8010 C   0  0  0  0  0  1  0  0  0  0  0  0
  196.2060  176.5940  142.8290 C   0  0  0  0  0  2  0  0  0  0  0  0
  2 14  1  0  0  0  0
  3  2  1  0  0  0  0
  4  5  1  1  0  0  0
  4  8  1  0  0  0  0
  6 23  1  6  0  0  0
  6 10  1  0  0  0  0
  7  3  2  0  0  0  0
  8 22  1  1  0  0  0
  9  3  1  0  0  0  0
  9 17  1  0  0  0  0
 10  8  1  0  0  0  0
 10 20  1  1  0  0  0
 11 15  1  0  0  0  0
 12  9  2  0  0  0  0
 13  4  1  0  0  0  0
 13  1  2  0  0  0  0
 14  6  1  0  0  0  0
 15 17  2  0  0  0  0
 15 30  1  0  0  0  0
 16 12  1  0  0  0  0
 16 11  2  0  0  0  0
 17 13  1  0  0  0  0
 20 19  2  0  0  0  0
 20 18  1  0  0  0  0
 22 21  1  0  0  0  0
 23 24  1  6  0  0  0
 23 25  1  0  0  0  0
 26 25  1  0  0  0  0
 26 27  1  0  0  0  0
 27 29  1  0  0  0  0
 27 28  1  0  0  0  0
 30 53  1  6  0  0  0
 31 30  1  6  0  0  0
 31 37  1  0  0  0  0
 32 38  1  6  0  0  0
 32 34  1  0  0  0  0
 33 36  1  0  0  0  0
 34 36  1  0  0  0  0
 35 31  1  0  0  0  0
 35 32  1  0  0  0  0
 37 33  1  0  0  0  0
 38 40  1  1  0  0  0
 38 42  1  0  0  0  0
 40 39  1  0  0  0  0
 41 40  2  0  0  0  0
 42 43  1  1  0  0  0
 45 44  1  6  0  0  0
 45 49  1  0  0  0  0
 47 50  1  0  0  0  0
 47 42  1  0  0  0  0
 48 46  1  6  0  0  0
 48 45  1  0  0  0  0
 48 51  1  0  0  0  0
 49 50  1  0  0  0  0
 51 47  2  0  0  0  0
 52 53  1  0  0  0  0
M  END
>  <MODEL>
2

>  <REMARK>
 VINA RESULT:      -7.4      2.063      4.472
  Name = 
  13 active torsions:
  status: ('A' for Active; 'I' for Inactive)
    1  A    between atoms: C_4  and  C_29
    2  A    between atoms: C_4  and  C_31
    3  A    between atoms: C_9  and  C_26
    4  A    between atoms: N_10  and  C_14
    5  A    between atoms: N_10  and  C_45
    6  A    between atoms: C_12  and  C_31
    7  A    between atoms: C_16  and  C_26
    8  A    between atoms: C_17  and  C_19
    9  A    between atoms: C_19  and  C_45
   10  A    between atoms: C_26  and  C_46
   11  A    between atoms: C_28  and  C_31
   12  A    between atoms: C_32  and  C_40
   13  A    between atoms: C_37  and  C_52
                            x       y       z     vdW  Elec       q    Type
                         _______ _______ _______ _____ _____    ______ ____

>  <TORSDO>
F 13

$$$$
=
 OpenBabel11062420223D

 53 56  0  0  1  0  0  0  0  0999 V2000
  192.4410  175.1670  141.7370 O   0  0  0  0  0  0  0  0  0  0  0  0
  189.4670  174.1570  139.2730 O   0  0  0  0  0  0  0  0  0  0  0  0
  189.1600  174.3210  140.6260 C   0  0  0  0  0  0  0  0  0  0  0  0
  192.7310  173.3690  140.1960 C   0  0  2  0  0  3  0  0  0  0  0  0
  193.8720  172.6850  140.6250 O   0  0  0  0  0  1  0  0  0  0  0  0
  190.9840  173.5400  137.5300 C   0  0  2  0  0  3  0  0  0  0  0  0
  188.4020  175.2680  140.9620 O   0  0  0  0  0  0  0  0  0  0  0  0
  192.9800  174.2980  138.9950 C   0  0  2  0  0  3  0  0  0  0  0  0
  189.6300  173.3970  141.6710 C   0  0  0  0  0  0  0  0  0  0  0  0
  192.5180  173.5860  137.6980 C   0  0  2  0  0  3  0  0  0  0  0  0
  190.3280  171.7700  143.8340 C   0  0  0  0  0  3  0  0  0  0  0  0
  188.6570  172.6680  142.3600 C   0  0  0  0  0  3  0  0  0  0  0  0
  192.0300  174.0430  141.3290 C   0  0  0  0  0  0  0  0  0  0  0  0
  190.2470  173.0870  138.7870 C   0  0  0  0  0  2  0  0  0  0  0  0
  191.3430  172.4580  143.1410 C   0  0  0  0  0  0  0  0  0  0  0  0
  189.0000  171.8620  143.4410 C   0  0  0  0  0  3  0  0  0  0  0  0
  190.9890  173.3040  142.0640 C   0  0  0  0  0  0  0  0  0  0  0  0
  194.0830  173.4280  135.7400 O   0  0  0  0  0  0  0  0  0  0  0  0
  192.9030  175.3560  136.1240 O   0  0  0  0  0  1  0  0  0  0  0  0
  193.1550  174.1650  136.4620 C   0  0  0  0  0  0  0  0  0  0  0  0
  194.5970  175.8650  139.8190 O   0  0  0  0  0  1  0  0  0  0  0  0
  194.4240  174.7950  138.9450 C   0  0  0  0  0  2  0  0  0  0  0  0
  190.5640  172.7050  136.3120 C   0  0  1  0  0  3  0  0  0  0  0  0
  189.9970  171.3390  136.7090 C   0  0  0  0  0  1  0  0  0  0  0  0
  189.6080  173.4780  135.4170 C   0  0  0  0  0  2  0  0  0  0  0  0
  189.6310  174.8900  135.7650 N   0  0  0  0  0  2  0  0  0  0  0  0
  188.3380  175.4530  135.4050 C   0  0  0  0  0  3  0  0  0  0  0  0
  187.4590  175.5480  136.6430 C   0  0  0  0  0  1  0  0  0  0  0  0
  188.5320  176.8360  134.8240 C   0  0  0  0  0  1  0  0  0  0  0  0
  192.7720  172.3650  143.6560 C   0  0  1  0  0  3  0  0  0  0  0  0
  193.1470  173.3620  144.7580 C   0  0  2  0  0  3  0  0  0  0  0  0
  191.8680  175.5930  145.2240 C   0  0  1  0  0  3  0  0  0  0  0  0
  194.6870  174.7840  145.3610 O   0  0  0  0  0  0  0  0  0  0  0  0
  192.9860  176.3390  145.9490 C   0  0  0  0  0  2  0  0  0  0  0  0
  191.9640  174.0760  145.4610 C   0  0  0  0  0  2  0  0  0  0  0  0
  194.3310  176.1290  145.2750 C   0  0  0  0  0  2  0  0  0  0  0  0
  194.1430  174.2360  144.2900 O   0  0  0  0  0  0  0  0  0  0  0  0
  190.5400  176.2510  145.6400 C   0  0  1  0  0  3  0  0  0  0  0  0
  190.4790  177.5450  147.7820 O   0  0  0  0  0  0  0  0  0  0  0  0
  190.4510  176.3180  147.1310 C   0  0  0  0  0  0  0  0  0  0  0  0
  190.3150  175.2570  147.7990 O   0  0  0  0  0  1  0  0  0  0  0  0
  190.1550  177.6110  145.0320 C   0  0  1  0  0  3  0  0  0  0  0  0
  191.0380  178.0050  144.0280 O   0  0  0  0  0  1  0  0  0  0  0  0
  184.8350  177.4790  143.1940 O   0  0  0  0  0  1  0  0  0  0  0  0
  186.1440  177.2090  143.6000 C   0  0  2  0  0  3  0  0  0  0  0  0
  185.5200  176.8200  145.9980 C   0  0  0  0  0  1  0  0  0  0  0  0
  188.7360  177.6760  144.5690 C   0  0  0  0  0  0  0  0  0  0  0  0
  186.3610  177.6580  145.0490 C   0  0  1  0  0  3  0  0  0  0  0  0
  187.1030  177.9870  142.7160 C   0  0  0  0  0  2  0  0  0  0  0  0
  188.4420  177.8310  143.2020 O   0  0  0  0  0  0  0  0  0  0  0  0
  187.7740  177.5660  145.4350 N   0  0  0  0  0  0  0  0  0  0  0  0
  194.1920  171.0290  145.2280 C   0  0  0  0  0  1  0  0  0  0  0  0
  193.1700  170.9640  144.1070 C   0  0  0  0  0  2  0  0  0  0  0  0
  2  3  1  0  0  0  0
  3  7  2  0  0  0  0
  3  9  1  0  0  0  0
  4  5  1  1  0  0  0
  4 13  1  0  0  0  0
  6 23  1  6  0  0  0
  6 10  1  0  0  0  0
  6 14  1  0  0  0  0
  8 22  1  6  0  0  0
  8  4  1  0  0  0  0
  9 17  2  0  0  0  0
  9 12  1  0  0  0  0
 10 20  1  6  0  0  0
 10  8  1  0  0  0  0
 12 16  2  0  0  0  0
 13  1  2  0  0  0  0
 13 17  1  0  0  0  0
 14  2  1  0  0  0  0
 15 30  1  0  0  0  0
 15 11  2  0  0  0  0
 16 11  1  0  0  0  0
 17 15  1  0  0  0  0
 18 20  2  0  0  0  0
 19 20  1  0  0  0  0
 22 21  1  0  0  0  0
 23 24  1  1  0  0  0
 25 26  1  0  0  0  0
 25 23  1  0  0  0  0
 27 26  1  0  0  0  0
 27 28  1  0  0  0  0
 29 27  1  0  0  0  0
 30 53  1  1  0  0  0
 31 30  1  6  0  0  0
 31 35  1  0  0  0  0
 32 35  1  0  0  0  0
 32 38  1  1  0  0  0
 32 34  1  0  0  0  0
 36 33  1  0  0  0  0
 36 34  1  0  0  0  0
 37 31  1  0  0  0  0
 37 33  1  0  0  0  0
 38 40  1  1  0  0  0
 40 39  2  0  0  0  0
 40 41  1  0  0  0  0
 42 43  1  6  0  0  0
 42 38  1  0  0  0  0
 45 44  1  6  0  0  0
 45 48  1  0  0  0  0
 47 42  1  0  0  0  0
 47 51  2  0  0  0  0
 48 51  1  0  0  0  0
 48 46  1  1  0  0  0
 49 50  1  0  0  0  0
 49 45  1  0  0  0  0
 50 47  1  0  0  0  0
 53 52  1  0  0  0  0
M  END
>  <MODEL>
3

>  <REMARK>
 VINA RESULT:      -7.3      3.250      7.647
  Name = 
  13 active torsions:
  status: ('A' for Active; 'I' for Inactive)
    1  A    between atoms: C_4  and  C_29
    2  A    between atoms: C_4  and  C_31
    3  A    between atoms: C_9  and  C_26
    4  A    between atoms: N_10  and  C_14
    5  A    between atoms: N_10  and  C_45
    6  A    between atoms: C_12  and  C_31
    7  A    between atoms: C_16  and  C_26
    8  A    between atoms: C_17  and  C_19
    9  A    between atoms: C_19  and  C_45
   10  A    between atoms: C_26  and  C_46
   11  A    between atoms: C_28  and  C_31
   12  A    between atoms: C_32  and  C_40
   13  A    between atoms: C_37  and  C_52
                            x       y       z     vdW  Elec       q    Type
                         _______ _______ _______ _____ _____    ______ ____

>  <TORSDO>
F 13

$$$$
=
 OpenBabel11062420223D

 53 56  0  0  1  0  0  0  0  0999 V2000
  193.4120  175.2550  142.4040 O   0  0  0  0  0  0  0  0  0  0  0  0
  191.2210  173.6450  139.4810 O   0  0  0  0  0  0  0  0  0  0  0  0
  190.6200  173.7960  140.7330 C   0  0  0  0  0  0  0  0  0  0  0  0
  194.3120  173.4880  141.0770 C   0  0  2  0  0  3  0  0  0  0  0  0
  195.4400  173.0360  141.7680 O   0  0  0  0  0  1  0  0  0  0  0  0
  193.1450  173.2530  138.1160 C   0  0  2  0  0  3  0  0  0  0  0  0
  189.6600  174.6020  140.8480 O   0  0  0  0  0  0  0  0  0  0  0  0
  194.6410  174.4070  139.8870 C   0  0  2  0  0  3  0  0  0  0  0  0
  191.0160  173.0080  141.9120 C   0  0  0  0  0  0  0  0  0  0  0  0
  194.5810  173.5800  138.5770 C   0  0  2  0  0  3  0  0  0  0  0  0
  191.5210  171.6050  144.2770 C   0  0  0  0  0  3  0  0  0  0  0  0
  190.0600  172.1390  142.4460 C   0  0  0  0  0  3  0  0  0  0  0  0
  193.2900  174.0630  142.0020 C   0  0  0  0  0  0  0  0  0  0  0  0
  192.2530  172.7170  139.2320 C   0  0  0  0  0  2  0  0  0  0  0  0
  192.5250  172.4410  143.7500 C   0  0  0  0  0  0  0  0  0  0  0  0
  190.3050  171.4440  143.6250 C   0  0  0  0  0  3  0  0  0  0  0  0
  192.2610  173.1730  142.5690 C   0  0  0  0  0  0  0  0  0  0  0  0
  196.5250  173.6480  136.9880 O   0  0  0  0  0  1  0  0  0  0  0  0
  194.9680  175.3310  136.9820 O   0  0  0  0  0  0  0  0  0  0  0  0
  195.3500  174.2220  137.4530 C   0  0  0  0  0  0  0  0  0  0  0  0
  195.7280  176.3860  140.6900 O   0  0  0  0  0  1  0  0  0  0  0  0
  195.9590  175.1530  140.0860 C   0  0  0  0  0  2  0  0  0  0  0  0
  193.1310  172.3160  136.9000 C   0  0  1  0  0  3  0  0  0  0  0  0
  193.6340  170.9110  137.2410 C   0  0  0  0  0  1  0  0  0  0  0  0
  191.7590  172.2850  136.2440 C   0  0  0  0  0  2  0  0  0  0  0  0
  191.3010  170.9110  136.1120 N   0  0  0  0  0  2  0  0  0  0  0  0
  189.9040  170.8710  136.5210 C   0  0  0  0  0  3  0  0  0  0  0  0
  189.7870  170.1810  137.8710 C   0  0  0  0  0  1  0  0  0  0  0  0
  189.3720  172.2820  136.6340 C   0  0  0  0  0  1  0  0  0  0  0  0
  193.8130  172.6240  144.5390 C   0  0  1  0  0  3  0  0  0  0  0  0
  193.7870  173.7230  145.6070 C   0  0  2  0  0  3  0  0  0  0  0  0
  192.1990  175.7980  145.5480 C   0  0  1  0  0  3  0  0  0  0  0  0
  194.9610  175.3610  146.4410 O   0  0  0  0  0  0  0  0  0  0  0  0
  193.0090  176.7200  146.4560 C   0  0  0  0  0  2  0  0  0  0  0  0
  192.3940  174.3210  145.9340 C   0  0  0  0  0  2  0  0  0  0  0  0
  194.4950  176.6430  146.1530 C   0  0  0  0  0  2  0  0  0  0  0  0
  194.7690  174.6870  145.3230 O   0  0  0  0  0  0  0  0  0  0  0  0
  190.7460  176.3060  145.5660 C   0  0  1  0  0  3  0  0  0  0  0  0
  190.1530  177.5860  147.6360 O   0  0  0  0  0  1  0  0  0  0  0  0
  190.2460  176.3670  146.9740 C   0  0  0  0  0  0  0  0  0  0  0  0
  189.8750  175.3100  147.5530 O   0  0  0  0  0  0  0  0  0  0  0  0
  190.3990  177.6130  144.8320 C   0  0  1  0  0  3  0  0  0  0  0  0
  191.3880  177.9810  143.9210 O   0  0  0  0  0  1  0  0  0  0  0  0
  185.3290  177.1740  142.4260 O   0  0  0  0  0  1  0  0  0  0  0  0
  186.5710  176.9770  143.0350 C   0  0  2  0  0  3  0  0  0  0  0  0
  185.6570  177.1000  145.3680 C   0  0  0  0  0  1  0  0  0  0  0  0
  189.0480  177.6000  144.1970 C   0  0  0  0  0  0  0  0  0  0  0  0
  186.6350  177.7130  144.3780 C   0  0  1  0  0  3  0  0  0  0  0  0
  187.6550  177.5420  142.1350 C   0  0  0  0  0  2  0  0  0  0  0  0
  188.9210  177.4730  142.8020 O   0  0  0  0  0  0  0  0  0  0  0  0
  187.9880  177.6840  144.9440 N   0  0  0  0  0  0  0  0  0  0  0  0
  195.7090  170.9900  144.6390 C   0  0  0  0  0  1  0  0  0  0  0  0
  194.3290  171.3370  145.1730 C   0  0  0  0  0  2  0  0  0  0  0  0
  2  3  1  0  0  0  0
  3  7  2  0  0  0  0
  3  9  1  0  0  0  0
  4  5  1  1  0  0  0
  4 13  1  0  0  0  0
  6 23  1  6  0  0  0
  6 10  1  0  0  0  0
  6 14  1  0  0  0  0
  8 22  1  1  0  0  0
  8  4  1  0  0  0  0
  9 12  2  0  0  0  0
  9 17  1  0  0  0  0
 10 20  1  6  0  0  0
 10  8  1  0  0  0  0
 12 16  1  0  0  0  0
 13  1  2  0  0  0  0
 13 17  1  0  0  0  0
 14  2  1  0  0  0  0
 15 11  1  0  0  0  0
 15 30  1  0  0  0  0
 16 11  2  0  0  0  0
 17 15  2  0  0  0  0
 18 20  1  0  0  0  0
 19 20  2  0  0  0  0
 22 21  1  0  0  0  0
 23 24  1  1  0  0  0
 25 23  1  0  0  0  0
 26 25  1  0  0  0  0
 26 27  1  0  0  0  0
 27 29  1  0  0  0  0
 27 28  1  0  0  0  0
 30 53  1  1  0  0  0
 31 30  1  6  0  0  0
 31 35  1  0  0  0  0
 32 38  1  1  0  0  0
 32 35  1  0  0  0  0
 32 34  1  0  0  0  0
 36 33  1  0  0  0  0
 36 34  1  0  0  0  0
 37 31  1  0  0  0  0
 37 33  1  0  0  0  0
 38 40  1  1  0  0  0
 40 41  2  0  0  0  0
 40 39  1  0  0  0  0
 42 43  1  6  0  0  0
 42 38  1  0  0  0  0
 45 44  1  6  0  0  0
 45 48  1  0  0  0  0
 47 42  1  0  0  0  0
 47 51  2  0  0  0  0
 48 51  1  0  0  0  0
 48 46  1  1  0  0  0
 49 50  1  0  0  0  0
 49 45  1  0  0  0  0
 50 47  1  0  0  0  0
 52 53  1  0  0  0  0
M  END
>  <MODEL>
4

>  <REMARK>
 VINA RESULT:      -7.1      3.106      8.055
  Name = 
  13 active torsions:
  status: ('A' for Active; 'I' for Inactive)
    1  A    between atoms: C_4  and  C_29
    2  A    between atoms: C_4  and  C_31
    3  A    between atoms: C_9  and  C_26
    4  A    between atoms: N_10  and  C_14
    5  A    between atoms: N_10  and  C_45
    6  A    between atoms: C_12  and  C_31
    7  A    between atoms: C_16  and  C_26
    8  A    between atoms: C_17  and  C_19
    9  A    between atoms: C_19  and  C_45
   10  A    between atoms: C_26  and  C_46
   11  A    between atoms: C_28  and  C_31
   12  A    between atoms: C_32  and  C_40
   13  A    between atoms: C_37  and  C_52
                            x       y       z     vdW  Elec       q    Type
                         _______ _______ _______ _____ _____    ______ ____

>  <TORSDO>
F 13

$$$$
=
 OpenBabel11062420223D

 53 56  0  0  1  0  0  0  0  0999 V2000
  189.5760  173.2420  144.0120 O   0  0  0  0  0  0  0  0  0  0  0  0
  192.8770  171.4580  142.6500 O   0  0  0  0  0  0  0  0  0  0  0  0
  192.8480  171.8260  143.9970 C   0  0  0  0  0  0  0  0  0  0  0  0
  190.5940  174.0050  141.9930 C   0  0  2  0  0  3  0  0  0  0  0  0
  190.0190  175.2510  141.7290 O   0  0  0  0  0  1  0  0  0  0  0  0
  192.2500  171.8120  140.3690 C   0  0  2  0  0  3  0  0  0  0  0  0
  192.8610  170.9200  144.8700 O   0  0  0  0  0  0  0  0  0  0  0  0
  190.0130  172.8610  141.1440 C   0  0  2  0  0  3  0  0  0  0  0  0
  192.8700  173.2280  144.4450 C   0  0  0  0  0  0  0  0  0  0  0  0
  190.9710  172.5720  139.9590 C   0  0  2  0  0  3  0  0  0  0  0  0
  192.9700  175.7880  145.5640 C   0  0  0  0  0  3  0  0  0  0  0  0
  193.9830  173.6440  145.1810 C   0  0  0  0  0  3  0  0  0  0  0  0
  190.6130  173.7030  143.4560 C   0  0  0  0  0  0  0  0  0  0  0  0
  192.9390  172.3970  141.5990 C   0  0  0  0  0  2  0  0  0  0  0  0
  191.8470  175.4210  144.7960 C   0  0  0  0  0  0  0  0  0  0  0  0
  194.0340  174.9150  145.7430 C   0  0  0  0  0  3  0  0  0  0  0  0
  191.7820  174.1160  144.2530 C   0  0  0  0  0  0  0  0  0  0  0  0
  189.9690  172.5340  137.6570 O   0  0  0  0  0  0  0  0  0  0  0  0
  189.9300  170.6520  138.9650 O   0  0  0  0  0  1  0  0  0  0  0  0
  190.2870  171.8550  138.8240 C   0  0  0  0  0  0  0  0  0  0  0  0
  187.6830  172.6150  141.6540 O   0  0  0  0  0  1  0  0  0  0  0  0
  188.5720  173.1390  140.7180 C   0  0  0  0  0  2  0  0  0  0  0  0
  193.2350  171.6720  139.2000 C   0  0  1  0  0  3  0  0  0  0  0  0
  193.7060  173.0290  138.6690 C   0  0  0  0  0  1  0  0  0  0  0  0
  194.4030  170.7690  139.5670 C   0  0  0  0  0  2  0  0  0  0  0  0
  195.6600  171.4690  139.3560 N   0  0  0  0  0  2  0  0  0  0  0  0
  196.5080  171.2070  140.5100 C   0  0  0  0  0  3  0  0  0  0  0  0
  196.6150  172.4640  141.3600 C   0  0  0  0  0  1  0  0  0  0  0  0
  195.9040  170.0960  141.3390 C   0  0  0  0  0  1  0  0  0  0  0  0
  190.6860  176.3980  144.6850 C   0  0  1  0  0  3  0  0  0  0  0  0
  189.7710  176.4860  145.9120 C   0  0  2  0  0  3  0  0  0  0  0  0
  187.3840  177.5490  145.8980 C   0  0  1  0  0  3  0  0  0  0  0  0
  189.5660  177.4470  147.8590 O   0  0  0  0  0  0  0  0  0  0  0  0
  187.2700  177.8500  147.3900 C   0  0  0  0  0  2  0  0  0  0  0  0
  188.2540  176.3060  145.6440 C   0  0  0  0  0  2  0  0  0  0  0  0
  188.5640  178.4120  147.9510 C   0  0  0  0  0  2  0  0  0  0  0  0
  190.0870  177.6320  146.6600 O   0  0  0  0  0  0  0  0  0  0  0  0
  185.9520  177.4870  145.3370 C   0  0  1  0  0  3  0  0  0  0  0  0
  184.2010  178.2430  146.9590 O   0  0  0  0  0  1  0  0  0  0  0  0
  184.9840  177.2170  146.4440 C   0  0  0  0  0  0  0  0  0  0  0  0
  184.8530  176.0440  146.8890 O   0  0  0  0  0  0  0  0  0  0  0  0
  185.4380  178.6450  144.4640 C   0  0  1  0  0  3  0  0  0  0  0  0
  185.9430  179.8770  144.8770 O   0  0  0  0  0  1  0  0  0  0  0  0
  186.1970  177.4490  139.0150 O   0  0  0  0  0  1  0  0  0  0  0  0
  185.9460  177.4470  140.3900 C   0  0  2  0  0  3  0  0  0  0  0  0
  183.4950  177.9180  140.1350 C   0  0  0  0  0  1  0  0  0  0  0  0
  185.6500  178.4290  143.0020 C   0  0  0  0  0  0  0  0  0  0  0  0
  184.8050  178.4110  140.7310 C   0  0  1  0  0  3  0  0  0  0  0  0
  187.1930  177.9160  141.1180 C   0  0  0  0  0  2  0  0  0  0  0  0
  186.9140  178.0500  142.5160 O   0  0  0  0  0  0  0  0  0  0  0  0
  184.6520  178.5730  142.1810 N   0  0  0  0  0  0  0  0  0  0  0  0
  190.3090  178.2940  143.0920 C   0  0  0  0  0  1  0  0  0  0  0  0
  191.1100  177.8080  144.2870 C   0  0  0  0  0  2  0  0  0  0  0  0
  2  3  1  0  0  0  0
  3  9  1  0  0  0  0
  3  7  2  0  0  0  0
  4  5  1  1  0  0  0
  4 13  1  0  0  0  0
  6 23  1  6  0  0  0
  6 14  1  0  0  0  0
  8 22  1  6  0  0  0
  8  4  1  0  0  0  0
  9 12  1  0  0  0  0
 10 20  1  6  0  0  0
 10  6  1  0  0  0  0
 10  8  1  0  0  0  0
 11 16  1  0  0  0  0
 12 16  2  0  0  0  0
 13  1  2  0  0  0  0
 13 17  1  0  0  0  0
 14  2  1  0  0  0  0
 15 11  2  0  0  0  0
 17  9  2  0  0  0  0
 17 15  1  0  0  0  0
 18 20  2  0  0  0  0
 20 19  1  0  0  0  0
 22 21  1  0  0  0  0
 23 24  1  1  0  0  0
 23 25  1  0  0  0  0
 26 25  1  0  0  0  0
 26 27  1  0  0  0  0
 27 29  1  0  0  0  0
 27 28  1  0  0  0  0
 30 53  1  1  0  0  0
 30 15  1  0  0  0  0
 31 30  1  6  0  0  0
 31 37  1  0  0  0  0
 32 38  1  1  0  0  0
 32 34  1  0  0  0  0
 33 36  1  0  0  0  0
 34 36  1  0  0  0  0
 35 32  1  0  0  0  0
 35 31  1  0  0  0  0
 37 33  1  0  0  0  0
 38 40  1  1  0  0  0
 40 41  2  0  0  0  0
 40 39  1  0  0  0  0
 42 43  1  1  0  0  0
 42 38  1  0  0  0  0
 45 44  1  6  0  0  0
 45 48  1  0  0  0  0
 45 49  1  0  0  0  0
 47 42  1  0  0  0  0
 48 46  1  1  0  0  0
 48 51  1  0  0  0  0
 49 50  1  0  0  0  0
 50 47  1  0  0  0  0
 51 47  2  0  0  0  0
 52 53  1  0  0  0  0
M  END
>  <MODEL>
5

>  <REMARK>
 VINA RESULT:      -6.8      2.674      9.763
  Name = 
  13 active torsions:
  status: ('A' for Active; 'I' for Inactive)
    1  A    between atoms: C_4  and  C_29
    2  A    between atoms: C_4  and  C_31
    3  A    between atoms: C_9  and  C_26
    4  A    between atoms: N_10  and  C_14
    5  A    between atoms: N_10  and  C_45
    6  A    between atoms: C_12  and  C_31
    7  A    between atoms: C_16  and  C_26
    8  A    between atoms: C_17  and  C_19
    9  A    between atoms: C_19  and  C_45
   10  A    between atoms: C_26  and  C_46
   11  A    between atoms: C_28  and  C_31
   12  A    between atoms: C_32  and  C_40
   13  A    between atoms: C_37  and  C_52
                            x       y       z     vdW  Elec       q    Type
                         _______ _______ _______ _____ _____    ______ ____

>  <TORSDO>
F 13

$$$$
=
 OpenBabel11062420223D

 53 56  0  0  1  0  0  0  0  0999 V2000
  192.6490  177.0040  142.6130 O   0  0  0  0  0  0  0  0  0  0  0  0
  191.5400  176.5190  146.4170 O   0  0  0  0  0  0  0  0  0  0  0  0
  192.9020  176.4200  146.1210 C   0  0  0  0  0  0  0  0  0  0  0  0
  190.8460  175.5360  143.1490 C   0  0  2  0  0  3  0  0  0  0  0  0
  190.6270  174.7720  141.9990 O   0  0  0  0  0  1  0  0  0  0  0  0
  189.2420  176.2370  145.8180 C   0  0  2  0  0  3  0  0  0  0  0  0
  193.6840  177.2900  146.5840 O   0  0  0  0  0  0  0  0  0  0  0  0
  189.8320  176.6790  143.3360 C   0  0  2  0  0  3  0  0  0  0  0  0
  193.4740  175.3070  145.3470 C   0  0  0  0  0  0  0  0  0  0  0  0
  188.7500  176.2360  144.3550 C   0  0  2  0  0  3  0  0  0  0  0  0
  194.8240  173.2840  143.9680 C   0  0  0  0  0  3  0  0  0  0  0  0
  194.3730  174.4670  146.0090 C   0  0  0  0  0  3  0  0  0  0  0  0
  192.2660  175.9840  143.2550 C   0  0  0  0  0  0  0  0  0  0  0  0
  190.5940  175.5560  146.0080 C   0  0  0  0  0  2  0  0  0  0  0  0
  193.8960  174.0840  143.2720 C   0  0  0  0  0  0  0  0  0  0  0  0
  195.0510  173.4630  145.3260 C   0  0  0  0  0  3  0  0  0  0  0  0
  193.2330  175.1260  143.9620 C   0  0  0  0  0  0  0  0  0  0  0  0
  186.3300  176.4570  143.7240 O   0  0  0  0  0  0  0  0  0  0  0  0
  187.4830  178.2660  144.5310 O   0  0  0  0  0  1  0  0  0  0  0  0
  187.4810  177.0380  144.2360 C   0  0  0  0  0  0  0  0  0  0  0  0
  189.3570  178.5490  141.9130 O   0  0  0  0  0  1  0  0  0  0  0  0
  189.2620  177.1620  142.0030 C   0  0  0  0  0  2  0  0  0  0  0  0
  188.1920  175.6590  146.7780 C   0  0  1  0  0  3  0  0  0  0  0  0
  188.7590  174.5370  147.6530 C   0  0  0  0  0  1  0  0  0  0  0  0
  187.5410  176.7540  147.6090 C   0  0  0  0  0  2  0  0  0  0  0  0
  186.0940  176.6840  147.4790 N   0  0  0  0  0  2  0  0  0  0  0  0
  185.5640  178.0100  147.7610 C   0  0  0  0  0  3  0  0  0  0  0  0
  186.7110  178.9830  147.9860 C   0  0  0  0  0  1  0  0  0  0  0  0
  184.7330  178.4820  146.5880 C   0  0  0  0  0  1  0  0  0  0  0  0
  193.7340  173.8800  141.7730 C   0  0  1  0  0  3  0  0  0  0  0  0
  194.7470  174.6170  140.8890 C   0  0  2  0  0  3  0  0  0  0  0  0
  194.7790  174.5080  138.2780 C   0  0  1  0  0  3  0  0  0  0  0  0
  196.8580  174.6720  140.3440 O   0  0  0  0  0  0  0  0  0  0  0  0
  196.2370  174.9050  138.0600 C   0  0  0  0  0  2  0  0  0  0  0  0
  194.2030  175.1660  139.5440 C   0  0  0  0  0  2  0  0  0  0  0  0
  197.1600  174.2270  139.0580 C   0  0  0  0  0  2  0  0  0  0  0  0
  195.9150  173.8480  140.7610 O   0  0  0  0  0  0  0  0  0  0  0  0
  194.0260  174.8070  136.9690 C   0  0  1  0  0  3  0  0  0  0  0  0
  194.7730  172.5450  136.1990 O   0  0  0  0  0  1  0  0  0  0  0  0
  194.4800  173.8690  135.8970 C   0  0  0  0  0  0  0  0  0  0  0  0
  194.5640  174.2740  134.7050 O   0  0  0  0  0  0  0  0  0  0  0  0
  192.4900  174.8780  136.9860 C   0  0  1  0  0  3  0  0  0  0  0  0
  191.9850  175.5900  135.9000 O   0  0  0  0  0  1  0  0  0  0  0  0
  189.6960  170.0300  137.6060 O   0  0  0  0  0  1  0  0  0  0  0  0
  190.1180  171.3590  137.5220 C   0  0  2  0  0  3  0  0  0  0  0  0
  189.5710  171.5770  135.0830 C   0  0  0  0  0  1  0  0  0  0  0  0
  191.8330  173.5430  137.1170 C   0  0  0  0  0  0  0  0  0  0  0  0
  190.6750  171.6600  136.1260 C   0  0  1  0  0  3  0  0  0  0  0  0
  191.2290  171.5860  138.5320 C   0  0  0  0  0  2  0  0  0  0  0  0
  191.7680  172.9030  138.3680 O   0  0  0  0  0  0  0  0  0  0  0  0
  191.3020  172.9850  136.0710 N   0  0  0  0  0  0  0  0  0  0  0  0
  192.4720  171.7220  141.9340 C   0  0  0  0  0  1  0  0  0  0  0  0
  193.6950  172.4130  141.3560 C   0  0  0  0  0  2  0  0  0  0  0  0
  1 13  2  0  0  0  0
  3  2  1  0  0  0  0
  3  7  2  0  0  0  0
  4  5  1  6  0  0  0
  4 13  1  0  0  0  0
  4  8  1  0  0  0  0
  6 14  1  0  0  0  0
  6 23  1  1  0  0  0
  8 22  1  6  0  0  0
  8 10  1  0  0  0  0
  9 12  1  0  0  0  0
  9  3  1  0  0  0  0
 10 20  1  1  0  0  0
 10  6  1  0  0  0  0
 11 16  1  0  0  0  0
 13 17  1  0  0  0  0
 14  2  1  0  0  0  0
 15 17  1  0  0  0  0
 15 11  2  0  0  0  0
 16 12  2  0  0  0  0
 17  9  2  0  0  0  0
 18 20  2  0  0  0  0
 20 19  1  0  0  0  0
 21 22  1  0  0  0  0
 23 25  1  0  0  0  0
 23 24  1  1  0  0  0
 26 25  1  0  0  0  0
 26 27  1  0  0  0  0
 27 28  1  0  0  0  0
 29 27  1  0  0  0  0
 30 53  1  1  0  0  0
 30 15  1  0  0  0  0
 31 30  1  6  0  0  0
 32 38  1  6  0  0  0
 32 35  1  0  0  0  0
 33 37  1  0  0  0  0
 34 32  1  0  0  0  0
 34 36  1  0  0  0  0
 35 31  1  0  0  0  0
 36 33  1  0  0  0  0
 37 31  1  0  0  0  0
 38 40  1  6  0  0  0
 38 42  1  0  0  0  0
 40 39  1  0  0  0  0
 41 40  2  0  0  0  0
 42 43  1  6  0  0  0
 42 47  1  0  0  0  0
 45 44  1  6  0  0  0
 45 49  1  0  0  0  0
 47 50  1  0  0  0  0
 48 46  1  6  0  0  0
 48 45  1  0  0  0  0
 50 49  1  0  0  0  0
 51 48  1  0  0  0  0
 51 47  2  0  0  0  0
 53 52  1  0  0  0  0
M  END
>  <MODEL>
6

>  <REMARK>
 VINA RESULT:      -6.6      3.637      7.214
  Name = 
  13 active torsions:
  status: ('A' for Active; 'I' for Inactive)
    1  A    between atoms: C_4  and  C_29
    2  A    between atoms: C_4  and  C_31
    3  A    between atoms: C_9  and  C_26
    4  A    between atoms: N_10  and  C_14
    5  A    between atoms: N_10  and  C_45
    6  A    between atoms: C_12  and  C_31
    7  A    between atoms: C_16  and  C_26
    8  A    between atoms: C_17  and  C_19
    9  A    between atoms: C_19  and  C_45
   10  A    between atoms: C_26  and  C_46
   11  A    between atoms: C_28  and  C_31
   12  A    between atoms: C_32  and  C_40
   13  A    between atoms: C_37  and  C_52
                            x       y       z     vdW  Elec       q    Type
                         _______ _______ _______ _____ _____    ______ ____

>  <TORSDO>
F 13

$$$$
=
 OpenBabel11062420223D

 53 56  0  0  1  0  0  0  0  0999 V2000
  189.8610  173.5750  145.2490 O   0  0  0  0  0  0  0  0  0  0  0  0
  187.3700  174.8780  142.4140 O   0  0  0  0  0  0  0  0  0  0  0  0
  188.3150  173.9140  142.0540 C   0  0  0  0  0  0  0  0  0  0  0  0
  189.5230  175.9180  144.9470 C   0  0  2  0  0  3  0  0  0  0  0  0
  190.5550  176.5420  145.6540 O   0  0  0  0  0  1  0  0  0  0  0  0
  186.6950  176.7590  143.7290 C   0  0  2  0  0  3  0  0  0  0  0  0
  187.9110  172.7710  141.7170 O   0  0  0  0  0  0  0  0  0  0  0  0
  188.1730  175.9260  145.6850 C   0  0  2  0  0  3  0  0  0  0  0  0
  189.7590  174.1940  141.9870 C   0  0  0  0  0  0  0  0  0  0  0  0
  187.2910  177.0680  145.1180 C   0  0  2  0  0  3  0  0  0  0  0  0
  192.5270  174.4710  141.7140 C   0  0  0  0  0  3  0  0  0  0  0  0
  190.3660  174.1050  140.7310 C   0  0  0  0  0  3  0  0  0  0  0  0
  189.9230  174.5640  144.4630 C   0  0  0  0  0  0  0  0  0  0  0  0
  187.7150  176.2080  142.7370 C   0  0  0  0  0  2  0  0  0  0  0  0
  191.9490  174.6060  142.9910 C   0  0  0  0  0  0  0  0  0  0  0  0
  191.7440  174.2370  140.5920 C   0  0  0  0  0  3  0  0  0  0  0  0
  190.5520  174.4380  143.1350 C   0  0  0  0  0  0  0  0  0  0  0  0
  185.1700  176.6020  146.3790 O   0  0  0  0  0  0  0  0  0  0  0  0
  186.1720  178.6580  146.5240 O   0  0  0  0  0  1  0  0  0  0  0  0
  186.1980  177.4810  146.0680 C   0  0  0  0  0  0  0  0  0  0  0  0
  188.5770  174.6990  147.7050 O   0  0  0  0  0  1  0  0  0  0  0  0
  188.3490  175.9780  147.2020 C   0  0  0  0  0  2  0  0  0  0  0  0
  185.9490  177.9660  143.1410 C   0  0  1  0  0  3  0  0  0  0  0  0
  186.8740  178.8880  142.3420 C   0  0  0  0  0  1  0  0  0  0  0  0
  184.7430  177.5250  142.3270 C   0  0  0  0  0  2  0  0  0  0  0  0
  183.5790  178.3170  142.6910 N   0  0  0  0  0  2  0  0  0  0  0  0
  182.5460  178.0640  141.6980 C   0  0  0  0  0  3  0  0  0  0  0  0
  181.3830  179.0210  141.9140 C   0  0  0  0  0  1  0  0  0  0  0  0
  183.1140  178.2740  140.3130 C   0  0  0  0  0  1  0  0  0  0  0  0
  192.8640  174.8030  144.1910 C   0  0  1  0  0  3  0  0  0  0  0  0
  193.9290  173.7200  144.3980 C   0  0  2  0  0  3  0  0  0  0  0  0
  195.4360  172.7510  142.4950 C   0  0  1  0  0  3  0  0  0  0  0  0
  194.1880  171.6120  144.8960 O   0  0  0  0  0  0  0  0  0  0  0  0
  195.8010  171.4250  143.1590 C   0  0  0  0  0  2  0  0  0  0  0  0
  195.2150  173.8570  143.5420 C   0  0  0  0  0  2  0  0  0  0  0  0
  194.6050  170.7930  143.8480 C   0  0  0  0  0  2  0  0  0  0  0  0
  193.3350  172.4490  144.3350 O   0  0  0  0  0  0  0  0  0  0  0  0
  196.5150  173.0400  141.4360 C   0  0  1  0  0  3  0  0  0  0  0  0
  195.1340  171.7320  139.8080 O   0  0  0  0  0  1  0  0  0  0  0  0
  196.3860  172.0720  140.3040 C   0  0  0  0  0  0  0  0  0  0  0  0
  197.4230  171.5880  139.7730 O   0  0  0  0  0  0  0  0  0  0  0  0
  196.6620  174.4700  140.8870 C   0  0  1  0  0  3  0  0  0  0  0  0
  197.9410  174.9830  141.0980 O   0  0  0  0  0  1  0  0  0  0  0  0
  195.0860  175.3670  135.5570 O   0  0  0  0  0  1  0  0  0  0  0  0
  195.4920  175.4510  136.8910 C   0  0  2  0  0  3  0  0  0  0  0  0
  197.9400  175.3730  136.3490 C   0  0  0  0  0  1  0  0  0  0  0  0
  196.2480  174.6050  139.4580 C   0  0  0  0  0  0  0  0  0  0  0  0
  196.8070  174.6930  137.1030 C   0  0  1  0  0  3  0  0  0  0  0  0
  194.4320  174.8090  137.7680 C   0  0  0  0  0  2  0  0  0  0  0  0
  194.8910  174.7620  139.1250 O   0  0  0  0  0  0  0  0  0  0  0  0
  197.1530  174.6010  138.5260 N   0  0  0  0  0  0  0  0  0  0  0  0
  193.9420  176.5330  145.6460 C   0  0  0  0  0  1  0  0  0  0  0  0
  193.5400  176.1690  144.2270 C   0  0  0  0  0  2  0  0  0  0  0  0
  2 14  1  0  0  0  0
  3  2  1  0  0  0  0
  4  5  1  1  0  0  0
  4  8  1  0  0  0  0
  6 23  1  6  0  0  0
  6 10  1  0  0  0  0
  7  3  2  0  0  0  0
  8 22  1  1  0  0  0
  9  3  1  0  0  0  0
  9 17  1  0  0  0  0
 10  8  1  0  0  0  0
 10 20  1  1  0  0  0
 11 15  1  0  0  0  0
 12  9  2  0  0  0  0
 13  4  1  0  0  0  0
 13  1  2  0  0  0  0
 14  6  1  0  0  0  0
 15 17  2  0  0  0  0
 15 30  1  0  0  0  0
 16 12  1  0  0  0  0
 16 11  2  0  0  0  0
 17 13  1  0  0  0  0
 20 18  2  0  0  0  0
 20 19  1  0  0  0  0
 22 21  1  0  0  0  0
 23 24  1  6  0  0  0
 25 26  1  0  0  0  0
 25 23  1  0  0  0  0
 27 28  1  0  0  0  0
 27 26  1  0  0  0  0
 29 27  1  0  0  0  0
 30 53  1  6  0  0  0
 31 30  1  6  0  0  0
 32 38  1  6  0  0  0
 32 34  1  0  0  0  0
 32 35  1  0  0  0  0
 34 36  1  0  0  0  0
 35 31  1  0  0  0  0
 36 33  1  0  0  0  0
 37 31  1  0  0  0  0
 37 33  1  0  0  0  0
 38 40  1  6  0  0  0
 39 40  1  0  0  0  0
 41 40  2  0  0  0  0
 42 43  1  6  0  0  0
 42 38  1  0  0  0  0
 45 44  1  6  0  0  0
 45 48  1  0  0  0  0
 45 49  1  0  0  0  0
 47 42  1  0  0  0  0
 48 46  1  6  0  0  0
 48 51  1  0  0  0  0
 49 50  1  0  0  0  0
 50 47  1  0  0  0  0
 51 47  2  0  0  0  0
 53 52  1  0  0  0  0
M  END
>  <MODEL>
7

>  <REMARK>
 VINA RESULT:      -6.5      3.102      4.537
  Name = 
  13 active torsions:
  status: ('A' for Active; 'I' for Inactive)
    1  A    between atoms: C_4  and  C_29
    2  A    between atoms: C_4  and  C_31
    3  A    between atoms: C_9  and  C_26
    4  A    between atoms: N_10  and  C_14
    5  A    between atoms: N_10  and  C_45
    6  A    between atoms: C_12  and  C_31
    7  A    between atoms: C_16  and  C_26
    8  A    between atoms: C_17  and  C_19
    9  A    between atoms: C_19  and  C_45
   10  A    between atoms: C_26  and  C_46
   11  A    between atoms: C_28  and  C_31
   12  A    between atoms: C_32  and  C_40
   13  A    between atoms: C_37  and  C_52
                            x       y       z     vdW  Elec       q    Type
                         _______ _______ _______ _____ _____    ______ ____

>  <TORSDO>
F 13

$$$$
=
 OpenBabel11062420223D

 53 56  0  0  1  0  0  0  0  0999 V2000
  191.9340  175.7720  142.0550 O   0  0  0  0  0  0  0  0  0  0  0  0
  190.5860  173.5820  139.0010 O   0  0  0  0  0  0  0  0  0  0  0  0
  189.7120  173.8180  140.0660 C   0  0  0  0  0  0  0  0  0  0  0  0
  193.2480  173.9670  141.2130 C   0  0  2  0  0  3  0  0  0  0  0  0
  194.2290  173.7310  142.1820 O   0  0  0  0  0  1  0  0  0  0  0  0
  192.7910  173.2430  138.1390 C   0  0  2  0  0  3  0  0  0  0  0  0
  188.6880  174.5190  139.8610 O   0  0  0  0  0  0  0  0  0  0  0  0
  193.7560  174.7640  139.9980 C   0  0  2  0  0  3  0  0  0  0  0  0
  189.9000  173.2280  141.4010 C   0  0  0  0  0  0  0  0  0  0  0  0
  194.0570  173.7820  138.8370 C   0  0  2  0  0  3  0  0  0  0  0  0
  189.9820  172.1910  143.9960 C   0  0  0  0  0  3  0  0  0  0  0  0
  188.9250  172.3300  141.8440 C   0  0  0  0  0  3  0  0  0  0  0  0
  192.0030  174.5330  141.8120 C   0  0  0  0  0  0  0  0  0  0  0  0
  191.7210  172.7510  139.1100 C   0  0  0  0  0  2  0  0  0  0  0  0
  191.0050  173.0630  143.5760 C   0  0  0  0  0  0  0  0  0  0  0  0
  188.9590  171.8160  143.1360 C   0  0  0  0  0  3  0  0  0  0  0  0
  190.9500  173.6110  142.2730 C   0  0  0  0  0  0  0  0  0  0  0  0
  194.5890  175.3980  136.9910 O   0  0  0  0  0  0  0  0  0  0  0  0
  196.1470  173.8550  137.6600 O   0  0  0  0  0  1  0  0  0  0  0  0
  195.0010  174.3630  137.8180 C   0  0  0  0  0  0  0  0  0  0  0  0
  194.4880  176.9750  140.5660 O   0  0  0  0  0  1  0  0  0  0  0  0
  194.9310  175.6710  140.3590 C   0  0  0  0  0  2  0  0  0  0  0  0
  193.1240  172.1680  137.0940 C   0  0  1  0  0  3  0  0  0  0  0  0
  192.8230  170.7530  137.5970 C   0  0  0  0  0  1  0  0  0  0  0  0
  192.4390  172.4570  135.7670 C   0  0  0  0  0  2  0  0  0  0  0  0
  191.7550  171.2660  135.2890 N   0  0  0  0  0  2  0  0  0  0  0  0
  190.3840  171.6420  134.9750 C   0  0  0  0  0  3  0  0  0  0  0  0
  189.4640  171.2100  136.1060 C   0  0  0  0  0  1  0  0  0  0  0  0
  190.2980  173.1430  134.8090 C   0  0  0  0  0  1  0  0  0  0  0  0
  192.0670  173.4830  144.5820 C   0  0  1  0  0  3  0  0  0  0  0  0
  191.5470  174.1980  145.8350 C   0  0  2  0  0  3  0  0  0  0  0  0
  189.9060  176.2310  145.7990 C   0  0  1  0  0  3  0  0  0  0  0  0
  192.1750  175.4640  147.4970 O   0  0  0  0  0  0  0  0  0  0  0  0
  190.2370  176.8040  147.1750 C   0  0  0  0  0  2  0  0  0  0  0  0
  190.0830  174.7030  145.7720 C   0  0  0  0  0  2  0  0  0  0  0  0
  191.7300  176.7840  147.4480 C   0  0  0  0  0  2  0  0  0  0  0  0
  192.4710  175.1750  146.2430 O   0  0  0  0  0  0  0  0  0  0  0  0
  188.5080  176.7490  145.4160 C   0  0  1  0  0  3  0  0  0  0  0  0
  187.0640  176.0410  147.3360 O   0  0  0  0  0  1  0  0  0  0  0  0
  187.7240  177.0550  146.6520 C   0  0  0  0  0  0  0  0  0  0  0  0
  187.6900  178.2350  147.0960 O   0  0  0  0  0  0  0  0  0  0  0  0
  188.3860  177.9130  144.4180 C   0  0  1  0  0  3  0  0  0  0  0  0
  189.5100  178.0230  143.6010 O   0  0  0  0  0  1  0  0  0  0  0  0
  183.6970  178.1710  141.3130 O   0  0  0  0  0  1  0  0  0  0  0  0
  184.9030  178.3940  141.9830 C   0  0  2  0  0  3  0  0  0  0  0  0
  186.3250  177.5410  140.1000 C   0  0  0  0  0  1  0  0  0  0  0  0
  187.1270  177.8810  143.6150 C   0  0  0  0  0  0  0  0  0  0  0  0
  185.9520  177.3580  141.5630 C   0  0  1  0  0  3  0  0  0  0  0  0
  184.6700  178.2490  143.4760 C   0  0  0  0  0  2  0  0  0  0  0  0
  185.9190  178.3400  144.1710 O   0  0  0  0  0  0  0  0  0  0  0  0
  187.1590  177.4480  142.3910 N   0  0  0  0  0  0  0  0  0  0  0  0
  194.3700  172.8730  145.3530 C   0  0  0  0  0  1  0  0  0  0  0  0
  192.9870  172.3460  145.0120 C   0  0  0  0  0  2  0  0  0  0  0  0
  2 14  1  0  0  0  0
  2  3  1  0  0  0  0
  3  9  1  0  0  0  0
  4 13  1  0  0  0  0
  4  5  1  1  0  0  0
  6 23  1  6  0  0  0
  6 10  1  0  0  0  0
  6 14  1  0  0  0  0
  7  3  2  0  0  0  0
  8 22  1  1  0  0  0
  8  4  1  0  0  0  0
  9 12  2  0  0  0  0
  9 17  1  0  0  0  0
 10 20  1  6  0  0  0
 10  8  1  0  0  0  0
 12 16  1  0  0  0  0
 13  1  2  0  0  0  0
 13 17  1  0  0  0  0
 15 11  1  0  0  0  0
 15 30  1  0  0  0  0
 16 11  2  0  0  0  0
 17 15  2  0  0  0  0
 18 20  2  0  0  0  0
 19 20  1  0  0  0  0
 22 21  1  0  0  0  0
 23 24  1  1  0  0  0
 25 23  1  0  0  0  0
 26 25  1  0  0  0  0
 27 26  1  0  0  0  0
 27 28  1  0  0  0  0
 29 27  1  0  0  0  0
 30 53  1  1  0  0  0
 31 30  1  6  0  0  0
 31 37  1  0  0  0  0
 32 38  1  1  0  0  0
 32 34  1  0  0  0  0
 34 36  1  0  0  0  0
 35 32  1  0  0  0  0
 35 31  1  0  0  0  0
 36 33  1  0  0  0  0
 37 33  1  0  0  0  0
 38 40  1  1  0  0  0
 40 41  2  0  0  0  0
 40 39  1  0  0  0  0
 42 43  1  6  0  0  0
 42 38  1  0  0  0  0
 45 44  1  6  0  0  0
 45 49  1  0  0  0  0
 47 50  1  0  0  0  0
 47 42  1  0  0  0  0
 48 46  1  6  0  0  0
 48 45  1  0  0  0  0
 48 51  1  0  0  0  0
 49 50  1  0  0  0  0
 51 47  2  0  0  0  0
 53 52  1  0  0  0  0
M  END
>  <MODEL>
8

>  <REMARK>
 VINA RESULT:      -6.5      3.248      8.756
  Name = 
  13 active torsions:
  status: ('A' for Active; 'I' for Inactive)
    1  A    between atoms: C_4  and  C_29
    2  A    between atoms: C_4  and  C_31
    3  A    between atoms: C_9  and  C_26
    4  A    between atoms: N_10  and  C_14
    5  A    between atoms: N_10  and  C_45
    6  A    between atoms: C_12  and  C_31
    7  A    between atoms: C_16  and  C_26
    8  A    between atoms: C_17  and  C_19
    9  A    between atoms: C_19  and  C_45
   10  A    between atoms: C_26  and  C_46
   11  A    between atoms: C_28  and  C_31
   12  A    between atoms: C_32  and  C_40
   13  A    between atoms: C_37  and  C_52
                            x       y       z     vdW  Elec       q    Type
                         _______ _______ _______ _____ _____    ______ ____

>  <TORSDO>
F 13

$$$$
=
 OpenBabel11062420223D

 53 56  0  0  1  0  0  0  0  0999 V2000
  190.5700  173.1150  144.6970 O   0  0  0  0  0  0  0  0  0  0  0  0
  194.3320  172.0340  143.9140 O   0  0  0  0  0  0  0  0  0  0  0  0
  194.0630  172.5780  145.1720 C   0  0  0  0  0  0  0  0  0  0  0  0
  191.6060  173.8020  142.6600 C   0  0  2  0  0  3  0  0  0  0  0  0
  190.7890  174.8110  142.1430 O   0  0  0  0  0  1  0  0  0  0  0  0
  193.9070  171.8790  141.5650 C   0  0  2  0  0  3  0  0  0  0  0  0
  194.1870  171.8430  146.1850 O   0  0  0  0  0  0  0  0  0  0  0  0
  191.4120  172.4360  141.9770 C   0  0  2  0  0  3  0  0  0  0  0  0
  193.7030  173.9910  145.3730 C   0  0  0  0  0  0  0  0  0  0  0  0
  192.5410  172.2250  140.9360 C   0  0  2  0  0  3  0  0  0  0  0  0
  193.0690  176.6310  146.0400 C   0  0  0  0  0  3  0  0  0  0  0  0
  194.5940  174.7770  146.1080 C   0  0  0  0  0  3  0  0  0  0  0  0
  191.5270  173.7340  144.1490 C   0  0  0  0  0  0  0  0  0  0  0  0
  194.2920  172.7930  142.7250 C   0  0  0  0  0  2  0  0  0  0  0  0
  192.1600  175.8850  145.2650 C   0  0  0  0  0  0  0  0  0  0  0  0
  194.2800  176.0890  146.4470 C   0  0  0  0  0  3  0  0  0  0  0  0
  192.4660  174.5400  144.9500 C   0  0  0  0  0  0  0  0  0  0  0  0
  191.9790  171.5830  138.5740 O   0  0  0  0  0  0  0  0  0  0  0  0
  191.9810  170.0000  140.2320 O   0  0  0  0  0  1  0  0  0  0  0  0
  192.1800  171.2000  139.8920 C   0  0  0  0  0  0  0  0  0  0  0  0
  189.1320  171.8190  142.3860 O   0  0  0  0  0  1  0  0  0  0  0  0
  190.0050  172.2780  141.4030 C   0  0  0  0  0  2  0  0  0  0  0  0
  195.0250  171.8190  140.5150 C   0  0  1  0  0  3  0  0  0  0  0  0
  195.0390  170.4890  139.7550 C   0  0  0  0  0  1  0  0  0  0  0  0
  194.9620  173.0110  139.5720 C   0  0  0  0  0  2  0  0  0  0  0  0
  195.7000  174.1310  140.1350 N   0  0  0  0  0  2  0  0  0  0  0  0
  194.9860  175.3490  139.7830 C   0  0  0  0  0  3  0  0  0  0  0  0
  193.7450  175.0000  138.9770 C   0  0  0  0  0  1  0  0  0  0  0  0
  194.5750  176.0760  141.0430 C   0  0  0  0  0  1  0  0  0  0  0  0
  190.8220  176.5120  144.9000 C   0  0  1  0  0  3  0  0  0  0  0  0
  189.8130  176.6380  146.0470 C   0  0  2  0  0  3  0  0  0  0  0  0
  187.3950  177.5930  145.7840 C   0  0  1  0  0  3  0  0  0  0  0  0
  189.4210  177.7110  147.9050 O   0  0  0  0  0  0  0  0  0  0  0  0
  187.1540  177.9840  147.2410 C   0  0  0  0  0  2  0  0  0  0  0  0
  188.3290  176.3750  145.6790 C   0  0  0  0  0  2  0  0  0  0  0  0
  188.3790  178.6360  147.8580 C   0  0  0  0  0  2  0  0  0  0  0  0
  190.0250  177.8420  146.7390 O   0  0  0  0  0  0  0  0  0  0  0  0
  186.0140  177.4330  145.1230 C   0  0  1  0  0  3  0  0  0  0  0  0
  184.8240  176.1090  146.8840 O   0  0  0  0  0  1  0  0  0  0  0  0
  184.9600  177.2970  146.1760 C   0  0  0  0  0  0  0  0  0  0  0  0
  184.2130  178.2770  146.4450 O   0  0  0  0  0  0  0  0  0  0  0  0
  185.5660  178.4560  144.0650 C   0  0  1  0  0  3  0  0  0  0  0  0
  186.1390  179.7100  144.2730 O   0  0  0  0  0  1  0  0  0  0  0  0
  186.6060  176.9630  138.7380 O   0  0  0  0  0  1  0  0  0  0  0  0
  186.5930  177.5140  140.0220 C   0  0  2  0  0  3  0  0  0  0  0  0
  188.0710  175.7390  141.0030 C   0  0  0  0  0  1  0  0  0  0  0  0
  185.7670  177.9890  142.6610 C   0  0  0  0  0  0  0  0  0  0  0  0
  186.7100  176.4120  141.0820 C   0  0  1  0  0  3  0  0  0  0  0  0
  185.2740  178.2350  140.2340 C   0  0  0  0  0  2  0  0  0  0  0  0
  185.1850  178.6900  141.5900 O   0  0  0  0  0  0  0  0  0  0  0  0
  186.5030  176.9430  142.4340 N   0  0  0  0  0  0  0  0  0  0  0  0
  190.0430  177.9370  142.9930 C   0  0  0  0  0  1  0  0  0  0  0  0
  190.9500  177.8660  144.2090 C   0  0  0  0  0  2  0  0  0  0  0  0
  2  3  1  0  0  0  0
  3  9  1  0  0  0  0
  3  7  2  0  0  0  0
  4  5  1  6  0  0  0
  4 13  1  0  0  0  0
  6 23  1  6  0  0  0
  6 14  1  0  0  0  0
  8 22  1  6  0  0  0
  8  4  1  0  0  0  0
  9 12  1  0  0  0  0
 10 20  1  6  0  0  0
 10  6  1  0  0  0  0
 10  8  1  0  0  0  0
 11 16  1  0  0  0  0
 12 16  2  0  0  0  0
 13  1  2  0  0  0  0
 13 17  1  0  0  0  0
 14  2  1  0  0  0  0
 15 11  2  0  0  0  0
 17 15  1  0  0  0  0
 17  9  2  0  0  0  0
 18 20  2  0  0  0  0
 20 19  1  0  0  0  0
 22 21  1  0  0  0  0
 23 24  1  6  0  0  0
 25 26  1  0  0  0  0
 25 23  1  0  0  0  0
 27 26  1  0  0  0  0
 27 29  1  0  0  0  0
 28 27  1  0  0  0  0
 30 53  1  1  0  0  0
 30 15  1  0  0  0  0
 31 30  1  6  0  0  0
 31 37  1  0  0  0  0
 32 38  1  1  0  0  0
 32 34  1  0  0  0  0
 34 36  1  0  0  0  0
 35 32  1  0  0  0  0
 35 31  1  0  0  0  0
 36 33  1  0  0  0  0
 37 33  1  0  0  0  0
 38 40  1  1  0  0  0
 40 41  2  0  0  0  0
 40 39  1  0  0  0  0
 42 43  1  6  0  0  0
 42 38  1  0  0  0  0
 45 44  1  6  0  0  0
 45 49  1  0  0  0  0
 45 48  1  0  0  0  0
 47 42  1  0  0  0  0
 48 46  1  1  0  0  0
 48 51  1  0  0  0  0
 49 50  1  0  0  0  0
 50 47  1  0  0  0  0
 51 47  2  0  0  0  0
 52 53  1  0  0  0  0
M  END
>  <MODEL>
9

>  <REMARK>
 VINA RESULT:      -6.4      2.480      9.605
  Name = 
  13 active torsions:
  status: ('A' for Active; 'I' for Inactive)
    1  A    between atoms: C_4  and  C_29
    2  A    between atoms: C_4  and  C_31
    3  A    between atoms: C_9  and  C_26
    4  A    between atoms: N_10  and  C_14
    5  A    between atoms: N_10  and  C_45
    6  A    between atoms: C_12  and  C_31
    7  A    between atoms: C_16  and  C_26
    8  A    between atoms: C_17  and  C_19
    9  A    between atoms: C_19  and  C_45
   10  A    between atoms: C_26  and  C_46
   11  A    between atoms: C_28  and  C_31
   12  A    between atoms: C_32  and  C_40
   13  A    between atoms: C_37  and  C_52
                            x       y       z     vdW  Elec       q    Type
                         _______ _______ _______ _____ _____    ______ ____

>  <TORSDO>
F 13

$$$$
