=
 OpenBabel11062419573D

 28 29  0  0  1  0  0  0  0  0999 V2000
  187.5760  176.5220  145.5810 C   0  0  2  0  0  3  0  0  0  0  0  0
  190.0910  177.9880  147.8170 O   0  0  0  0  0  0  0  0  0  0  0  0
  190.5700  175.5960  145.5330 N   0  0  2  0  0  0  0  0  0  0  0  0
  191.1540  175.4350  148.0220 C   0  0  0  0  0  1  0  0  0  0  0  0
  190.1230  175.7510  146.9340 C   0  0  1  0  0  3  0  0  0  0  0  0
  189.4390  174.9790  144.8300 C   0  0  0  0  0  2  0  0  0  0  0  0
  189.5140  177.1150  147.1140 C   0  0  0  0  0  0  0  0  0  0  0  0
  188.3080  177.4600  146.4290 N   0  0  0  0  0  2  0  0  0  0  0  0
  188.4080  176.0240  144.3890 C   0  0  2  0  0  3  0  0  0  0  0  0
  193.3280  176.7170  144.9310 C   0  0  2  0  0  3  0  0  0  0  0  0
  191.7860  174.7610  145.3750 C   0  0  1  0  0  3  0  0  0  0  0  0
  194.4640  177.3820  145.3860 O   0  0  0  0  0  1  0  0  0  0  0  0
  192.5700  175.0140  141.7100 O   0  0  0  0  0  1  0  0  0  0  0  0
  192.0280  174.2960  143.9220 C   0  0  0  0  0  2  0  0  0  0  0  0
  192.3350  175.4780  143.0030 C   0  0  1  0  0  3  0  0  0  0  0  0
  193.0300  175.5300  145.8450 C   0  0  0  0  0  2  0  0  0  0  0  0
  193.5590  176.2330  143.5040 C   0  0  0  0  0  2  0  0  0  0  0  0
  189.0480  177.1260  143.6800 N   0  0  0  0  0  2  0  0  0  0  0  0
  189.1560  176.7420  142.3370 N   0  0  0  0  0  2  0  0  0  0  0  0
  187.8000  176.5640  141.8460 C   0  0  0  0  0  2  0  0  0  0  0  0
  187.1790  177.9130  141.5310 C   0  0  0  0  0  2  0  0  0  0  0  0
  185.0070  178.4270  140.4180 O   0  0  0  0  0  1  0  0  0  0  0  0
  186.5750  177.1290  139.3630 O   0  0  0  0  0  0  0  0  0  0  0  0
  186.2480  177.8060  140.3720 C   0  0  0  0  0  0  0  0  0  0  0  0
  186.2260  177.0970  145.1470 C   0  0  0  0  0  2  0  0  0  0  0  0
  185.9370  178.4760  145.7280 C   0  0  0  0  0  3  0  0  0  0  0  0
  185.6830  179.4500  144.5970 C   0  0  0  0  0  1  0  0  0  0  0  0
  184.7120  178.4230  146.6200 C   0  0  0  0  0  1  0  0  0  0  0  0
  1 25  1  6  0  0  0
  1  8  1  0  0  0  0
  3  6  1  6  0  0  0
  3  5  1  0  0  0  0
  5  7  1  0  0  0  0
  5  4  1  1  0  0  0
  7  2  2  0  0  0  0
  8  7  1  0  0  0  0
  9 18  1  1  0  0  0
  9  6  1  0  0  0  0
  9  1  1  0  0  0  0
 10 12  1  1  0  0  0
 10 16  1  0  0  0  0
 11 14  1  6  0  0  0
 11  3  1  0  0  0  0
 11 16  1  0  0  0  0
 15 13  1  6  0  0  0
 15 17  1  0  0  0  0
 15 14  1  0  0  0  0
 17 10  1  0  0  0  0
 19 18  1  0  0  0  0
 20 19  1  0  0  0  0
 21 20  1  0  0  0  0
 23 24  2  0  0  0  0
 24 22  1  0  0  0  0
 24 21  1  0  0  0  0
 25 26  1  0  0  0  0
 26 28  1  0  0  0  0
 27 26  1  0  0  0  0
M  END
>  <MODEL>
1

>  <REMARK>
 VINA RESULT:      -6.6      0.000      0.000
  Name = 
  8 active torsions:
  status: ('A' for Active; 'I' for Inactive)
    1  A    between atoms: N_1  and  N_6
    2  A    between atoms: N_1  and  C_27
    3  A    between atoms: C_2  and  C_23
    4  A    between atoms: C_3  and  N_6
    5  A    between atoms: C_3  and  C_18
    6  A    between atoms: C_4  and  C_23
    7  A    between atoms: N_7  and  C_15
    8  A    between atoms: C_18  and  C_28
                            x       y       z     vdW  Elec       q    Type
                         _______ _______ _______ _____ _____    ______ ____

>  <TORSDO>
F 8

$$$$
=
 OpenBabel11062419573D

 28 29  0  0  1  0  0  0  0  0999 V2000
  187.2380  176.2650  142.5670 C   0  0  2  0  0  3  0  0  0  0  0  0
  188.0360  172.7570  141.8400 O   0  0  0  0  0  0  0  0  0  0  0  0
  190.1810  175.1900  142.6430 N   0  0  2  0  0  0  0  0  0  0  0  0
  190.2990  173.7120  140.5530 C   0  0  0  0  0  1  0  0  0  0  0  0
  189.4840  174.6390  141.4600 C   0  0  1  0  0  3  0  0  0  0  0  0
  189.7450  176.5880  142.7350 C   0  0  0  0  0  2  0  0  0  0  0  0
  188.1910  174.0060  141.8950 C   0  0  0  0  0  0  0  0  0  0  0  0
  187.1460  174.8120  142.4480 N   0  0  0  0  0  2  0  0  0  0  0  0
  188.4020  176.7150  143.4630 C   0  0  2  0  0  3  0  0  0  0  0  0
  191.8970  173.3970  144.3940 C   0  0  2  0  0  3  0  0  0  0  0  0
  191.6610  175.1220  142.5580 C   0  0  1  0  0  3  0  0  0  0  0  0
  192.3650  172.1170  144.6850 O   0  0  0  0  0  1  0  0  0  0  0  0
  192.8110  176.7430  145.7460 O   0  0  0  0  0  1  0  0  0  0  0  0
  192.3770  176.1360  143.4770 C   0  0  0  0  0  2  0  0  0  0  0  0
  192.1300  175.8210  144.9520 C   0  0  1  0  0  3  0  0  0  0  0  0
  192.1550  173.7130  142.9230 C   0  0  0  0  0  2  0  0  0  0  0  0
  192.6100  174.4130  145.2800 C   0  0  0  0  0  2  0  0  0  0  0  0
  188.4210  175.9900  144.7280 N   0  0  0  0  0  2  0  0  0  0  0  0
  188.6070  176.9380  145.7420 N   0  0  0  0  0  2  0  0  0  0  0  0
  187.7910  176.5100  146.8660 C   0  0  0  0  0  2  0  0  0  0  0  0
  186.3280  176.8060  146.5900 C   0  0  0  0  0  2  0  0  0  0  0  0
  184.5740  178.4570  147.2340 O   0  0  0  0  0  0  0  0  0  0  0  0
  186.7100  178.6570  148.0420 O   0  0  0  0  0  1  0  0  0  0  0  0
  185.8860  178.0170  147.3380 C   0  0  0  0  0  0  0  0  0  0  0  0
  185.9030  176.8770  142.9990 C   0  0  0  0  0  2  0  0  0  0  0  0
  185.6710  178.2790  142.4500 C   0  0  0  0  0  3  0  0  0  0  0  0
  184.3610  178.3060  141.6900 C   0  0  0  0  0  1  0  0  0  0  0  0
  185.6060  179.2830  143.5850 C   0  0  0  0  0  1  0  0  0  0  0  0
  1 25  1  1  0  0  0
  1  9  1  0  0  0  0
  2  7  2  0  0  0  0
  3  6  1  6  0  0  0
  5  4  1  1  0  0  0
  5  7  1  0  0  0  0
  5  3  1  0  0  0  0
  6  9  1  0  0  0  0
  7  8  1  0  0  0  0
  8  1  1  0  0  0  0
  9 18  1  1  0  0  0
 10 12  1  1  0  0  0
 10 17  1  0  0  0  0
 11  3  1  0  0  0  0
 11 16  1  1  0  0  0
 11 14  1  0  0  0  0
 14 15  1  0  0  0  0
 15 17  1  0  0  0  0
 15 13  1  1  0  0  0
 16 10  1  0  0  0  0
 18 19  1  0  0  0  0
 19 20  1  0  0  0  0
 21 20  1  0  0  0  0
 21 24  1  0  0  0  0
 22 24  2  0  0  0  0
 24 23  1  0  0  0  0
 26 25  1  0  0  0  0
 26 28  1  0  0  0  0
 27 26  1  0  0  0  0
M  END
>  <MODEL>
2

>  <REMARK>
 VINA RESULT:      -6.1      2.462      4.732
  Name = 
  8 active torsions:
  status: ('A' for Active; 'I' for Inactive)
    1  A    between atoms: N_1  and  N_6
    2  A    between atoms: N_1  and  C_27
    3  A    between atoms: C_2  and  C_23
    4  A    between atoms: C_3  and  N_6
    5  A    between atoms: C_3  and  C_18
    6  A    between atoms: C_4  and  C_23
    7  A    between atoms: N_7  and  C_15
    8  A    between atoms: C_18  and  C_28
                            x       y       z     vdW  Elec       q    Type
                         _______ _______ _______ _____ _____    ______ ____

>  <TORSDO>
F 8

$$$$
=
 OpenBabel11062419573D

 28 29  0  0  1  0  0  0  0  0999 V2000
  188.9850  176.5180  145.3940 C   0  0  2  0  0  3  0  0  0  0  0  0
  192.6280  176.9600  145.4430 O   0  0  0  0  0  0  0  0  0  0  0  0
  190.9120  174.5140  143.9470 N   0  0  2  0  0  0  0  0  0  0  0  0
  192.7920  174.2010  145.6590 C   0  0  0  0  0  1  0  0  0  0  0  0
  191.4650  174.8620  145.2740 C   0  0  1  0  0  3  0  0  0  0  0  0
  189.4670  174.3620  144.1560 C   0  0  0  0  0  2  0  0  0  0  0  0
  191.5210  176.3590  145.4130 C   0  0  0  0  0  0  0  0  0  0  0  0
  190.3130  177.1240  145.4390 N   0  0  0  0  0  2  0  0  0  0  0  0
  188.7420  175.7110  144.1090 C   0  0  2  0  0  3  0  0  0  0  0  0
  192.2290  174.3750  141.2140 C   0  0  2  0  0  3  0  0  0  0  0  0
  191.4760  173.2730  143.3630 C   0  0  1  0  0  3  0  0  0  0  0  0
  193.3380  174.6480  140.4150 O   0  0  0  0  0  1  0  0  0  0  0  0
  189.1110  172.4510  140.5630 O   0  0  0  0  0  1  0  0  0  0  0  0
  190.4540  172.4610  142.5380 C   0  0  0  0  0  2  0  0  0  0  0  0
  190.0130  173.2260  141.2900 C   0  0  1  0  0  3  0  0  0  0  0  0
  192.6710  173.6020  142.4540 C   0  0  0  0  0  2  0  0  0  0  0  0
  191.2180  173.5560  140.4190 C   0  0  0  0  0  2  0  0  0  0  0  0
  189.1170  176.4660  142.9190 N   0  0  0  0  0  2  0  0  0  0  0  0
  188.2440  176.0770  141.8950 N   0  0  0  0  0  2  0  0  0  0  0  0
  186.9200  176.5360  142.2800 C   0  0  0  0  0  2  0  0  0  0  0  0
  186.8000  178.0320  142.0490 C   0  0  0  0  0  2  0  0  0  0  0  0
  184.3610  177.9860  142.5680 O   0  0  0  0  0  0  0  0  0  0  0  0
  185.7140  179.5920  143.4870 O   0  0  0  0  0  1  0  0  0  0  0  0
  185.6040  178.5780  142.7510 C   0  0  0  0  0  0  0  0  0  0  0  0
  187.8880  177.5570  145.6420 C   0  0  0  0  0  2  0  0  0  0  0  0
  186.8490  177.1120  146.6640 C   0  0  0  0  0  3  0  0  0  0  0  0
  186.5910  178.2430  147.6370 C   0  0  0  0  0  1  0  0  0  0  0  0
  185.5510  176.7510  145.9690 C   0  0  0  0  0  1  0  0  0  0  0  0
  1  8  1  0  0  0  0
  1 25  1  6  0  0  0
  3  6  1  1  0  0  0
  3  5  1  0  0  0  0
  5  7  1  0  0  0  0
  5  4  1  6  0  0  0
  7  8  1  0  0  0  0
  7  2  2  0  0  0  0
  9 18  1  6  0  0  0
  9  6  1  0  0  0  0
  9  1  1  0  0  0  0
 10 12  1  6  0  0  0
 10 16  1  0  0  0  0
 11 16  1  6  0  0  0
 11  3  1  0  0  0  0
 14 11  1  0  0  0  0
 15 13  1  6  0  0  0
 15 14  1  0  0  0  0
 17 10  1  0  0  0  0
 17 15  1  0  0  0  0
 19 20  1  0  0  0  0
 19 18  1  0  0  0  0
 21 20  1  0  0  0  0
 21 24  1  0  0  0  0
 22 24  2  0  0  0  0
 24 23  1  0  0  0  0
 25 26  1  0  0  0  0
 26 27  1  0  0  0  0
 28 26  1  0  0  0  0
M  END
>  <MODEL>
3

>  <REMARK>
 VINA RESULT:      -6.0      2.001      2.979
  Name = 
  8 active torsions:
  status: ('A' for Active; 'I' for Inactive)
    1  A    between atoms: N_1  and  N_6
    2  A    between atoms: N_1  and  C_27
    3  A    between atoms: C_2  and  C_23
    4  A    between atoms: C_3  and  N_6
    5  A    between atoms: C_3  and  C_18
    6  A    between atoms: C_4  and  C_23
    7  A    between atoms: N_7  and  C_15
    8  A    between atoms: C_18  and  C_28
                            x       y       z     vdW  Elec       q    Type
                         _______ _______ _______ _____ _____    ______ ____

>  <TORSDO>
F 8

$$$$
=
 OpenBabel11062419573D

 28 29  0  0  1  0  0  0  0  0999 V2000
  188.8130  176.1050  146.3930 C   0  0  2  0  0  3  0  0  0  0  0  0
  185.2260  176.7690  146.7930 O   0  0  0  0  0  0  0  0  0  0  0  0
  187.2370  177.9240  144.3870 N   0  0  2  0  0  0  0  0  0  0  0  0
  185.7790  179.3490  145.9390 C   0  0  0  0  0  1  0  0  0  0  0  0
  186.8280  178.2450  145.7720 C   0  0  1  0  0  3  0  0  0  0  0  0
  188.6890  177.7220  144.4480 C   0  0  0  0  0  2  0  0  0  0  0  0
  186.4280  176.9780  146.4780 C   0  0  0  0  0  0  0  0  0  0  0  0
  187.4000  175.9610  146.7340 N   0  0  0  0  0  2  0  0  0  0  0  0
  189.0440  176.2970  144.8860 C   0  0  2  0  0  3  0  0  0  0  0  0
  184.6480  178.0220  142.8010 C   0  0  2  0  0  3  0  0  0  0  0  0
  186.9110  178.9830  143.4000 C   0  0  1  0  0  3  0  0  0  0  0  0
  183.2810  178.2890  142.7760 O   0  0  0  0  0  1  0  0  0  0  0  0
  187.0690  177.2000  140.0970 O   0  0  0  0  0  1  0  0  0  0  0  0
  187.3820  178.6540  141.9660 C   0  0  0  0  0  2  0  0  0  0  0  0
  186.6330  177.4490  141.3970 C   0  0  1  0  0  3  0  0  0  0  0  0
  185.3950  179.2310  143.3600 C   0  0  0  0  0  2  0  0  0  0  0  0
  185.1330  177.7150  141.3890 C   0  0  0  0  0  2  0  0  0  0  0  0
  188.3170  175.3090  144.0980 N   0  0  0  0  0  2  0  0  0  0  0  0
  188.9900  175.1810  142.8770 N   0  0  0  0  0  2  0  0  0  0  0  0
  189.2270  173.7610  142.6800 C   0  0  0  0  0  2  0  0  0  0  0  0
  188.1760  173.1820  141.7490 C   0  0  0  0  0  2  0  0  0  0  0  0
  188.4540  174.2210  139.4990 O   0  0  0  0  0  0  0  0  0  0  0  0
  189.2830  172.1270  139.9220 O   0  0  0  0  0  1  0  0  0  0  0  0
  188.6790  173.1450  140.3470 C   0  0  0  0  0  0  0  0  0  0  0  0
  189.6460  174.9550  146.9660 C   0  0  0  0  0  2  0  0  0  0  0  0
  190.9300  175.4140  147.6450 C   0  0  0  0  0  3  0  0  0  0  0  0
  192.1010  175.1690  146.7160 C   0  0  0  0  0  1  0  0  0  0  0  0
  190.8540  176.8940  147.9680 C   0  0  0  0  0  1  0  0  0  0  0  0
  1  8  1  0  0  0  0
  1 25  1  6  0  0  0
  3  6  1  1  0  0  0
  3  5  1  0  0  0  0
  5  4  1  6  0  0  0
  5  7  1  0  0  0  0
  6  9  1  0  0  0  0
  7  8  1  0  0  0  0
  7  2  2  0  0  0  0
  9 18  1  6  0  0  0
  9  1  1  0  0  0  0
 10 12  1  6  0  0  0
 10 16  1  0  0  0  0
 11 14  1  6  0  0  0
 11  3  1  0  0  0  0
 15 13  1  6  0  0  0
 15 14  1  0  0  0  0
 16 11  1  0  0  0  0
 17 15  1  0  0  0  0
 17 10  1  0  0  0  0
 19 18  1  0  0  0  0
 20 19  1  0  0  0  0
 21 20  1  0  0  0  0
 22 24  2  0  0  0  0
 23 24  1  0  0  0  0
 24 21  1  0  0  0  0
 25 26  1  0  0  0  0
 26 28  1  0  0  0  0
 27 26  1  0  0  0  0
M  END
>  <MODEL>
4

>  <REMARK>
 VINA RESULT:      -5.9      2.790      5.877
  Name = 
  8 active torsions:
  status: ('A' for Active; 'I' for Inactive)
    1  A    between atoms: N_1  and  N_6
    2  A    between atoms: N_1  and  C_27
    3  A    between atoms: C_2  and  C_23
    4  A    between atoms: C_3  and  N_6
    5  A    between atoms: C_3  and  C_18
    6  A    between atoms: C_4  and  C_23
    7  A    between atoms: N_7  and  C_15
    8  A    between atoms: C_18  and  C_28
                            x       y       z     vdW  Elec       q    Type
                         _______ _______ _______ _____ _____    ______ ____

>  <TORSDO>
F 8

$$$$
=
 OpenBabel11062419573D

 28 29  0  0  1  0  0  0  0  0999 V2000
  187.2270  176.0800  142.5550 C   0  0  2  0  0  3  0  0  0  0  0  0
  187.9850  172.6000  141.6680 O   0  0  0  0  0  0  0  0  0  0  0  0
  190.1720  175.0200  142.3940 N   0  0  2  0  0  0  0  0  0  0  0  0
  190.1490  173.6060  140.2570 C   0  0  0  0  0  1  0  0  0  0  0  0
  189.3960  174.5010  141.2460 C   0  0  1  0  0  3  0  0  0  0  0  0
  189.7380  176.4120  142.5590 C   0  0  0  0  0  2  0  0  0  0  0  0
  188.1390  173.8480  141.7510 C   0  0  0  0  0  0  0  0  0  0  0  0
  187.1320  174.6310  142.3990 N   0  0  0  0  0  2  0  0  0  0  0  0
  188.4480  176.5100  143.3820 C   0  0  2  0  0  3  0  0  0  0  0  0
  192.0730  173.6170  144.3030 C   0  0  2  0  0  3  0  0  0  0  0  0
  191.6420  174.9630  142.2040 C   0  0  1  0  0  3  0  0  0  0  0  0
  192.6010  172.4220  144.7870 O   0  0  0  0  0  1  0  0  0  0  0  0
  192.9770  177.1710  144.9350 O   0  0  0  0  0  1  0  0  0  0  0  0
  192.3930  176.1440  142.8600 C   0  0  0  0  0  2  0  0  0  0  0  0
  192.2680  176.1060  144.3830 C   0  0  1  0  0  3  0  0  0  0  0  0
  192.2080  173.6560  142.7820 C   0  0  0  0  0  2  0  0  0  0  0  0
  192.8170  174.7920  144.9250 C   0  0  0  0  0  2  0  0  0  0  0  0
  188.5580  175.7470  144.6200 N   0  0  0  0  0  2  0  0  0  0  0  0
  188.2570  176.6230  145.6700 N   0  0  0  0  0  2  0  0  0  0  0  0
  188.2580  175.8290  146.8870 C   0  0  0  0  0  2  0  0  0  0  0  0
  189.5150  174.9810  146.9540 C   0  0  0  0  0  2  0  0  0  0  0  0
  190.6600  177.0940  147.6200 O   0  0  0  0  0  0  0  0  0  0  0  0
  191.4830  175.0640  148.2960 O   0  0  0  0  0  1  0  0  0  0  0  0
  190.6020  175.7070  147.6700 C   0  0  0  0  0  0  0  0  0  0  0  0
  185.9230  176.6700  143.0970 C   0  0  0  0  0  2  0  0  0  0  0  0
  185.4410  177.8930  142.3250 C   0  0  0  0  0  3  0  0  0  0  0  0
  185.8340  179.1450  143.0810 C   0  0  0  0  0  1  0  0  0  0  0  0
  186.0730  177.9270  140.9470 C   0  0  0  0  0  1  0  0  0  0  0  0
  1 25  1  1  0  0  0
  1  9  1  0  0  0  0
  2  7  2  0  0  0  0
  3  6  1  6  0  0  0
  5  4  1  1  0  0  0
  5  7  1  0  0  0  0
  5  3  1  0  0  0  0
  6  9  1  0  0  0  0
  7  8  1  0  0  0  0
  8  1  1  0  0  0  0
  9 18  1  1  0  0  0
 10 12  1  1  0  0  0
 10 17  1  0  0  0  0
 11  3  1  0  0  0  0
 11 16  1  1  0  0  0
 11 14  1  0  0  0  0
 14 15  1  0  0  0  0
 15 17  1  0  0  0  0
 15 13  1  1  0  0  0
 16 10  1  0  0  0  0
 18 19  1  0  0  0  0
 19 20  1  0  0  0  0
 20 21  1  0  0  0  0
 21 24  1  0  0  0  0
 22 24  2  0  0  0  0
 24 23  1  0  0  0  0
 26 27  1  0  0  0  0
 26 25  1  0  0  0  0
 28 26  1  0  0  0  0
M  END
>  <MODEL>
5

>  <REMARK>
 VINA RESULT:      -5.9      2.362      5.225
  Name = 
  8 active torsions:
  status: ('A' for Active; 'I' for Inactive)
    1  A    between atoms: N_1  and  N_6
    2  A    between atoms: N_1  and  C_27
    3  A    between atoms: C_2  and  C_23
    4  A    between atoms: C_3  and  N_6
    5  A    between atoms: C_3  and  C_18
    6  A    between atoms: C_4  and  C_23
    7  A    between atoms: N_7  and  C_15
    8  A    between atoms: C_18  and  C_28
                            x       y       z     vdW  Elec       q    Type
                         _______ _______ _______ _____ _____    ______ ____

>  <TORSDO>
F 8

$$$$
=
 OpenBabel11062419573D

 28 29  0  0  1  0  0  0  0  0999 V2000
  188.3230  176.5080  141.7500 C   0  0  2  0  0  3  0  0  0  0  0  0
  187.4060  172.9550  141.8250 O   0  0  0  0  0  0  0  0  0  0  0  0
  189.5470  174.5300  143.8510 N   0  0  2  0  0  0  0  0  0  0  0  0
  190.0630  172.4540  142.4410 C   0  0  0  0  0  1  0  0  0  0  0  0
  189.5130  173.8820  142.5210 C   0  0  1  0  0  3  0  0  0  0  0  0
  189.9530  175.9170  143.5960 C   0  0  0  0  0  2  0  0  0  0  0  0
  188.1240  173.9830  141.9540 C   0  0  0  0  0  0  0  0  0  0  0  0
  187.5750  175.2600  141.6210 N   0  0  0  0  0  2  0  0  0  0  0  0
  188.7610  176.7920  143.1950 C   0  0  2  0  0  3  0  0  0  0  0  0
  189.2330  174.6740  146.8680 C   0  0  2  0  0  3  0  0  0  0  0  0
  190.4810  173.8930  144.8110 C   0  0  1  0  0  3  0  0  0  0  0  0
  188.5680  174.2430  148.0140 O   0  0  0  0  0  1  0  0  0  0  0  0
  192.2490  176.8030  146.3980 O   0  0  0  0  0  1  0  0  0  0  0  0
  191.6540  174.8080  145.2280 C   0  0  0  0  0  2  0  0  0  0  0  0
  191.1610  176.0180  146.0210 C   0  0  1  0  0  3  0  0  0  0  0  0
  189.7330  173.4640  146.0830 C   0  0  0  0  0  2  0  0  0  0  0  0
  190.4070  175.5630  147.2640 C   0  0  0  0  0  2  0  0  0  0  0  0
  187.6570  176.6360  144.1340 N   0  0  0  0  0  2  0  0  0  0  0  0
  187.4900  177.8680  144.7800 N   0  0  0  0  0  2  0  0  0  0  0  0
  186.2800  178.4620  144.2340 C   0  0  0  0  0  2  0  0  0  0  0  0
  185.6620  179.4070  145.2490 C   0  0  0  0  0  2  0  0  0  0  0  0
  184.4540  177.6060  146.4800 O   0  0  0  0  0  0  0  0  0  0  0  0
  185.8210  179.0640  147.6020 O   0  0  0  0  0  1  0  0  0  0  0  0
  185.3300  178.6830  146.5080 C   0  0  0  0  0  0  0  0  0  0  0  0
  187.5620  177.6830  141.1320 C   0  0  0  0  0  2  0  0  0  0  0  0
  186.3200  177.2620  140.3550 C   0  0  0  0  0  3  0  0  0  0  0  0
  185.2280  178.2910  140.5650 C   0  0  0  0  0  1  0  0  0  0  0  0
  186.6340  177.1680  138.8750 C   0  0  0  0  0  1  0  0  0  0  0  0
  1 25  1  1  0  0  0
  1  9  1  0  0  0  0
  2  7  2  0  0  0  0
  3  6  1  6  0  0  0
  3 11  1  0  0  0  0
  5  4  1  1  0  0  0
  5  3  1  0  0  0  0
  7  5  1  0  0  0  0
  8  1  1  0  0  0  0
  8  7  1  0  0  0  0
  9  6  1  0  0  0  0
  9 18  1  1  0  0  0
 10 17  1  0  0  0  0
 10 12  1  1  0  0  0
 11 14  1  1  0  0  0
 11 16  1  0  0  0  0
 14 15  1  0  0  0  0
 15 13  1  1  0  0  0
 15 17  1  0  0  0  0
 16 10  1  0  0  0  0
 18 19  1  0  0  0  0
 20 19  1  0  0  0  0
 20 21  1  0  0  0  0
 21 24  1  0  0  0  0
 22 24  2  0  0  0  0
 24 23  1  0  0  0  0
 26 27  1  0  0  0  0
 26 25  1  0  0  0  0
 28 26  1  0  0  0  0
M  END
>  <MODEL>
6

>  <REMARK>
 VINA RESULT:      -5.8      2.429      5.018
  Name = 
  8 active torsions:
  status: ('A' for Active; 'I' for Inactive)
    1  A    between atoms: N_1  and  N_6
    2  A    between atoms: N_1  and  C_27
    3  A    between atoms: C_2  and  C_23
    4  A    between atoms: C_3  and  N_6
    5  A    between atoms: C_3  and  C_18
    6  A    between atoms: C_4  and  C_23
    7  A    between atoms: N_7  and  C_15
    8  A    between atoms: C_18  and  C_28
                            x       y       z     vdW  Elec       q    Type
                         _______ _______ _______ _____ _____    ______ ____

>  <TORSDO>
F 8

$$$$
=
 OpenBabel11062419573D

 28 29  0  0  1  0  0  0  0  0999 V2000
  189.4630  176.2810  144.5120 C   0  0  2  0  0  3  0  0  0  0  0  0
  193.0080  176.2410  143.5610 O   0  0  0  0  0  0  0  0  0  0  0  0
  190.6490  174.0580  142.6470 N   0  0  2  0  0  0  0  0  0  0  0  0
  192.8670  173.4820  143.7930 C   0  0  0  0  0  1  0  0  0  0  0  0
  191.5820  174.3160  143.7660 C   0  0  1  0  0  3  0  0  0  0  0  0
  189.3090  174.0940  143.2430 C   0  0  0  0  0  2  0  0  0  0  0  0
  191.8670  175.7900  143.8470 C   0  0  0  0  0  0  0  0  0  0  0  0
  190.8210  176.7070  144.1800 N   0  0  0  0  0  2  0  0  0  0  0  0
  188.7790  175.5270  143.3610 C   0  0  2  0  0  3  0  0  0  0  0  0
  191.6660  173.7970  139.7970 C   0  0  2  0  0  3  0  0  0  0  0  0
  190.8690  172.7600  141.9630 C   0  0  1  0  0  3  0  0  0  0  0  0
  192.7360  173.8660  138.9070 O   0  0  0  0  0  1  0  0  0  0  0  0
  188.1520  172.6490  139.3710 O   0  0  0  0  0  1  0  0  0  0  0  0
  189.6240  172.2450  141.2080 C   0  0  0  0  0  2  0  0  0  0  0  0
  189.2630  173.1610  140.0390 C   0  0  1  0  0  3  0  0  0  0  0  0
  192.0260  172.8720  140.9580 C   0  0  0  0  0  2  0  0  0  0  0  0
  190.4340  173.2700  139.0710 C   0  0  0  0  0  2  0  0  0  0  0  0
  188.9100  176.2400  142.0950 N   0  0  0  0  0  2  0  0  0  0  0  0
  187.6690  176.1630  141.4510 N   0  0  0  0  0  2  0  0  0  0  0  0
  186.9900  177.4230  141.7070 C   0  0  0  0  0  2  0  0  0  0  0  0
  185.6470  177.1640  142.3680 C   0  0  0  0  0  2  0  0  0  0  0  0
  185.9430  179.4160  143.3990 O   0  0  0  0  0  1  0  0  0  0  0  0
  183.8430  178.5810  143.0140 O   0  0  0  0  0  0  0  0  0  0  0  0
  185.0880  178.4250  142.9330 C   0  0  0  0  0  0  0  0  0  0  0  0
  188.6190  177.4510  145.0220 C   0  0  0  0  0  2  0  0  0  0  0  0
  187.9200  177.1660  146.3450 C   0  0  0  0  0  3  0  0  0  0  0  0
  186.4230  177.1280  146.1200 C   0  0  0  0  0  1  0  0  0  0  0  0
  188.3720  175.8290  146.9000 C   0  0  0  0  0  1  0  0  0  0  0  0
  1 25  1  6  0  0  0
  2  7  2  0  0  0  0
  3  6  1  1  0  0  0
  3  5  1  0  0  0  0
  5  4  1  6  0  0  0
  5  7  1  0  0  0  0
  6  9  1  0  0  0  0
  7  8  1  0  0  0  0
  8  1  1  0  0  0  0
  9 18  1  6  0  0  0
  9  1  1  0  0  0  0
 10 12  1  6  0  0  0
 10 16  1  0  0  0  0
 11 16  1  6  0  0  0
 11  3  1  0  0  0  0
 14 11  1  0  0  0  0
 15 13  1  6  0  0  0
 15 14  1  0  0  0  0
 17 10  1  0  0  0  0
 17 15  1  0  0  0  0
 19 20  1  0  0  0  0
 19 18  1  0  0  0  0
 20 21  1  0  0  0  0
 21 24  1  0  0  0  0
 24 23  2  0  0  0  0
 24 22  1  0  0  0  0
 25 26  1  0  0  0  0
 26 28  1  0  0  0  0
 27 26  1  0  0  0  0
M  END
>  <MODEL>
7

>  <REMARK>
 VINA RESULT:      -5.6      2.579      4.079
  Name = 
  8 active torsions:
  status: ('A' for Active; 'I' for Inactive)
    1  A    between atoms: N_1  and  N_6
    2  A    between atoms: N_1  and  C_27
    3  A    between atoms: C_2  and  C_23
    4  A    between atoms: C_3  and  N_6
    5  A    between atoms: C_3  and  C_18
    6  A    between atoms: C_4  and  C_23
    7  A    between atoms: N_7  and  C_15
    8  A    between atoms: C_18  and  C_28
                            x       y       z     vdW  Elec       q    Type
                         _______ _______ _______ _____ _____    ______ ____

>  <TORSDO>
F 8

$$$$
=
 OpenBabel11062419573D

 28 29  0  0  1  0  0  0  0  0999 V2000
  191.1560  176.0690  145.8100 C   0  0  2  0  0  3  0  0  0  0  0  0
  194.5610  177.2480  146.5100 O   0  0  0  0  0  0  0  0  0  0  0  0
  193.6110  175.1380  144.0980 N   0  0  2  0  0  0  0  0  0  0  0  0
  195.4000  174.6830  145.8750 C   0  0  0  0  0  1  0  0  0  0  0  0
  193.9760  175.1300  145.5320 C   0  0  1  0  0  3  0  0  0  0  0  0
  192.2420  174.6150  144.0430 C   0  0  0  0  0  2  0  0  0  0  0  0
  193.6450  176.4670  146.1370 C   0  0  0  0  0  0  0  0  0  0  0  0
  192.2840  176.8980  146.2290 N   0  0  0  0  0  2  0  0  0  0  0  0
  191.2050  175.7100  144.3170 C   0  0  2  0  0  3  0  0  0  0  0  0
  195.1550  176.2370  141.7250 C   0  0  2  0  0  3  0  0  0  0  0  0
  194.5050  174.3200  143.2430 C   0  0  1  0  0  3  0  0  0  0  0  0
  196.2310  176.9850  141.2520 O   0  0  0  0  0  1  0  0  0  0  0  0
  192.6570  174.1000  139.9800 O   0  0  0  0  0  1  0  0  0  0  0  0
  193.7830  173.6700  142.0420 C   0  0  0  0  0  2  0  0  0  0  0  0
  193.2810  174.7260  141.0570 C   0  0  1  0  0  3  0  0  0  0  0  0
  195.6610  175.1760  142.7000 C   0  0  0  0  0  2  0  0  0  0  0  0
  194.4430  175.5720  140.5520 C   0  0  0  0  0  2  0  0  0  0  0  0
  191.4510  176.8830  143.4860 N   0  0  0  0  0  2  0  0  0  0  0  0
  190.2110  177.2990  142.9860 N   0  0  0  0  0  2  0  0  0  0  0  0
  189.5250  176.1030  142.5270 C   0  0  0  0  0  2  0  0  0  0  0  0
  188.0350  176.2210  142.7950 C   0  0  0  0  0  2  0  0  0  0  0  0
  186.1040  177.1860  141.5480 O   0  0  0  0  0  1  0  0  0  0  0  0
  187.7230  175.9980  140.4430 O   0  0  0  0  0  0  0  0  0  0  0  0
  187.2910  176.4660  141.5270 C   0  0  0  0  0  0  0  0  0  0  0  0
  189.8200  176.7000  146.2110 C   0  0  0  0  0  2  0  0  0  0  0  0
  188.6900  175.6880  146.3570 C   0  0  0  0  0  3  0  0  0  0  0  0
  189.0760  174.6560  147.3960 C   0  0  0  0  0  1  0  0  0  0  0  0
  187.4170  176.3840  146.7980 C   0  0  0  0  0  1  0  0  0  0  0  0
  1 25  1  6  0  0  0
  1  8  1  0  0  0  0
  3  6  1  1  0  0  0
  3  5  1  0  0  0  0
  5  4  1  6  0  0  0
  5  7  1  0  0  0  0
  6  9  1  0  0  0  0
  7  8  1  0  0  0  0
  7  2  2  0  0  0  0
  9 18  1  6  0  0  0
  9  1  1  0  0  0  0
 10 12  1  6  0  0  0
 10 16  1  0  0  0  0
 11 14  1  6  0  0  0
 11  3  1  0  0  0  0
 15 13  1  6  0  0  0
 15 14  1  0  0  0  0
 16 11  1  0  0  0  0
 17 15  1  0  0  0  0
 17 10  1  0  0  0  0
 19 18  1  0  0  0  0
 20 21  1  0  0  0  0
 20 19  1  0  0  0  0
 23 24  2  0  0  0  0
 24 22  1  0  0  0  0
 24 21  1  0  0  0  0
 25 26  1  0  0  0  0
 26 28  1  0  0  0  0
 26 27  1  0  0  0  0
M  END
>  <MODEL>
8

>  <REMARK>
 VINA RESULT:      -5.6      2.189      3.485
  Name = 
  8 active torsions:
  status: ('A' for Active; 'I' for Inactive)
    1  A    between atoms: N_1  and  N_6
    2  A    between atoms: N_1  and  C_27
    3  A    between atoms: C_2  and  C_23
    4  A    between atoms: C_3  and  N_6
    5  A    between atoms: C_3  and  C_18
    6  A    between atoms: C_4  and  C_23
    7  A    between atoms: N_7  and  C_15
    8  A    between atoms: C_18  and  C_28
                            x       y       z     vdW  Elec       q    Type
                         _______ _______ _______ _____ _____    ______ ____

>  <TORSDO>
F 8

$$$$
=
 OpenBabel11062419573D

 28 29  0  0  1  0  0  0  0  0999 V2000
  191.3930  174.0110  144.7010 C   0  0  2  0  0  3  0  0  0  0  0  0
  189.1530  174.7530  147.5120 O   0  0  0  0  0  0  0  0  0  0  0  0
  189.3080  176.3470  144.5780 N   0  0  2  0  0  0  0  0  0  0  0  0
  189.5320  177.4290  146.8900 C   0  0  0  0  0  1  0  0  0  0  0  0
  189.9690  176.3430  145.9020 C   0  0  1  0  0  3  0  0  0  0  0  0
  190.3720  176.0570  143.6110 C   0  0  0  0  0  2  0  0  0  0  0  0
  189.8740  174.9660  146.5010 C   0  0  0  0  0  0  0  0  0  0  0  0
  190.5470  173.8660  145.8830 N   0  0  0  0  0  2  0  0  0  0  0  0
  190.6270  174.5510  143.4840 C   0  0  2  0  0  3  0  0  0  0  0  0
  186.3060  176.7900  144.7120 C   0  0  2  0  0  3  0  0  0  0  0  0
  188.6450  177.6300  144.2380 C   0  0  1  0  0  3  0  0  0  0  0  0
  185.1700  176.9980  145.4920 O   0  0  0  0  0  1  0  0  0  0  0  0
  186.8420  176.8760  141.0300 O   0  0  0  0  0  1  0  0  0  0  0  0
  188.2560  177.7450  142.7480 C   0  0  0  0  0  2  0  0  0  0  0  0
  187.1810  176.7240  142.3730 C   0  0  1  0  0  3  0  0  0  0  0  0
  187.3740  177.8180  145.0810 C   0  0  0  0  0  2  0  0  0  0  0  0
  185.9420  176.9210  143.2370 C   0  0  0  0  0  2  0  0  0  0  0  0
  189.3800  173.8260  143.2650 N   0  0  0  0  0  2  0  0  0  0  0  0
  189.5100  173.1440  142.0480 N   0  0  0  0  0  2  0  0  0  0  0  0
  188.2730  173.3610  141.3170 C   0  0  0  0  0  2  0  0  0  0  0  0
  188.5660  174.0300  139.9850 C   0  0  0  0  0  2  0  0  0  0  0  0
  188.9960  171.9130  138.7390 O   0  0  0  0  0  0  0  0  0  0  0  0
  190.5920  173.5550  138.8250 O   0  0  0  0  0  1  0  0  0  0  0  0
  189.4400  173.1640  139.1440 C   0  0  0  0  0  0  0  0  0  0  0  0
  192.1410  172.7130  144.3860 C   0  0  0  0  0  2  0  0  0  0  0  0
  193.6510  172.8240  144.5590 C   0  0  0  0  0  3  0  0  0  0  0  0
  193.9780  174.1250  145.2620 C   0  0  0  0  0  1  0  0  0  0  0  0
  194.1710  171.6670  145.3890 C   0  0  0  0  0  1  0  0  0  0  0  0
  1 25  1  6  0  0  0
  1  8  1  0  0  0  0
  3  6  1  6  0  0  0
  3  5  1  0  0  0  0
  5  7  1  0  0  0  0
  5  4  1  1  0  0  0
  7  2  2  0  0  0  0
  8  7  1  0  0  0  0
  9 18  1  1  0  0  0
  9  6  1  0  0  0  0
  9  1  1  0  0  0  0
 10 16  1  0  0  0  0
 10 12  1  1  0  0  0
 11 14  1  6  0  0  0
 11  3  1  0  0  0  0
 11 16  1  0  0  0  0
 15 13  1  6  0  0  0
 15 14  1  0  0  0  0
 15 17  1  0  0  0  0
 17 10  1  0  0  0  0
 19 18  1  0  0  0  0
 20 19  1  0  0  0  0
 21 20  1  0  0  0  0
 22 24  2  0  0  0  0
 23 24  1  0  0  0  0
 24 21  1  0  0  0  0
 25 26  1  0  0  0  0
 26 27  1  0  0  0  0
 26 28  1  0  0  0  0
M  END
>  <MODEL>
9

>  <REMARK>
 VINA RESULT:      -5.4      2.695      5.930
  Name = 
  8 active torsions:
  status: ('A' for Active; 'I' for Inactive)
    1  A    between atoms: N_1  and  N_6
    2  A    between atoms: N_1  and  C_27
    3  A    between atoms: C_2  and  C_23
    4  A    between atoms: C_3  and  N_6
    5  A    between atoms: C_3  and  C_18
    6  A    between atoms: C_4  and  C_23
    7  A    between atoms: N_7  and  C_15
    8  A    between atoms: C_18  and  C_28
                            x       y       z     vdW  Elec       q    Type
                         _______ _______ _______ _____ _____    ______ ____

>  <TORSDO>
F 8

$$$$
