=
 OpenBabel11062422583D

 29 31  0  0  1  0  0  0  0  0999 V2000
  187.0970  177.2120  145.5720 C   0  0  0  0  0  0  0  0  0  0  0  0
  187.7580  178.1230  143.4780 O   0  0  0  0  0  1  0  0  0  0  0  0
  186.0380  176.8060  146.5390 C   0  0  0  0  0  2  0  0  0  0  0  0
  184.6970  178.8390  146.3960 N   0  0  0  0  0  0  0  0  0  0  0  0
  185.3830  178.2570  144.0850 C   0  0  0  0  0  0  0  0  0  0  0  0
  186.7730  177.8490  144.4230 C   0  0  0  0  0  0  0  0  0  0  0  0
  184.5010  178.7520  144.9750 C   0  0  0  0  0  3  0  0  0  0  0  0
  185.3850  178.0120  147.1200 C   0  0  0  0  0  3  0  0  0  0  0  0
  188.4730  176.8220  145.9490 C   0  0  0  0  0  3  0  0  0  0  0  0
  188.9230  175.5730  146.0200 C   0  0  0  0  0  3  0  0  0  0  0  0
  191.1330  176.5890  146.4320 C   0  0  0  0  0  2  0  0  0  0  0  0
  192.4820  174.4030  145.3130 C   0  0  0  0  0  2  0  0  0  0  0  0
  193.1060  174.9520  146.5930 C   0  0  0  0  0  2  0  0  0  0  0  0
  190.9600  174.2640  145.4520 C   0  0  0  0  0  2  0  0  0  0  0  0
  190.3320  175.2890  146.4110 C   0  0  0  0  0  3  0  0  0  0  0  0
  192.5690  176.3520  146.9190 C   0  0  0  0  0  2  0  0  0  0  0  0
  185.0150  178.2850  142.6310 C   0  0  1  0  0  3  0  0  0  0  0  0
  185.7900  177.3030  141.8870 N   0  0  0  0  0  1  0  0  0  0  0  0
  183.5500  178.6520  140.2110 O   0  0  0  0  0  0  0  0  0  0  0  0
  183.5900  178.0320  142.4620 N   0  0  0  0  0  2  0  0  0  0  0  0
  182.9170  178.2290  141.2180 C   0  0  0  0  0  0  0  0  0  0  0  0
  181.5520  177.9480  141.1310 O   0  0  0  0  0  0  0  0  0  0  0  0
  180.5590  178.8050  141.6830 C   0  0  1  0  0  3  0  0  0  0  0  0
  180.3650  180.0000  140.7640 C   0  0  0  0  0  2  0  0  0  0  0  0
  179.1620  179.7950  139.9500 N   0  0  0  0  0  0  0  0  0  0  0  0
  178.4010  181.0310  139.9970 C   0  0  0  0  0  1  0  0  0  0  0  0
  178.9080  177.2180  142.3220 O   0  0  0  0  0  0  0  0  0  0  0  0
  179.2400  178.1570  141.6170 C   0  0  0  0  0  0  0  0  0  0  0  0
  178.3570  178.7730  140.6120 C   0  0  0  0  0  2  0  0  0  0  0  0
  1  9  1  0  0  0  0
  1  3  1  0  0  0  0
  2  6  1  0  0  0  0
  3  8  1  0  0  0  0
  4  8  2  0  0  0  0
  5  6  1  0  0  0  0
  5  7  2  0  0  0  0
  6  1  2  0  0  0  0
  7  4  1  0  0  0  0
  9 10  2  0  0  0  0
 10 15  1  0  0  0  0
 11 16  1  0  0  0  0
 12 14  1  0  0  0  0
 12 13  1  0  0  0  0
 13 16  1  0  0  0  0
 14 15  1  0  0  0  0
 15 11  1  0  0  0  0
 17 18  1  6  0  0  0
 17  5  1  0  0  0  0
 19 21  2  0  0  0  0
 20 17  1  0  0  0  0
 21 20  1  0  0  0  0
 22 21  1  0  0  0  0
 23 22  1  6  0  0  0
 24 23  1  0  0  0  0
 25 26  1  0  0  0  0
 25 29  1  0  0  0  0
 25 24  1  0  0  0  0
 28 23  1  0  0  0  0
 28 27  2  0  0  0  0
 29 28  1  0  0  0  0
M  END
>  <MODEL>
1

>  <REMARK>
 VINA RESULT:      -8.1      0.000      0.000
  Name = 
  6 active torsions:
  status: ('A' for Active; 'I' for Inactive)
    1  A    between atoms: C_2  and  C_6
    2  A    between atoms: N_4  and  C_10
    3  A    between atoms: C_5  and  O_25
    4  A    between atoms: C_7  and  O_25
    5  A    between atoms: C_10  and  C_21
    6  A    between atoms: C_15  and  C_27
                            x       y       z     vdW  Elec       q    Type
                         _______ _______ _______ _____ _____    ______ ____

>  <TORSDO>
F 6

$$$$
=
 OpenBabel11062422583D

 29 31  0  0  1  0  0  0  0  0999 V2000
  189.6050  175.6690  145.6010 C   0  0  0  0  0  0  0  0  0  0  0  0
  190.8390  177.4880  144.6920 O   0  0  0  0  0  1  0  0  0  0  0  0
  189.5470  174.2970  146.1800 C   0  0  0  0  0  2  0  0  0  0  0  0
  190.9660  173.2040  144.5250 N   0  0  0  0  0  0  0  0  0  0  0  0
  192.0300  175.3750  145.0740 C   0  0  0  0  0  0  0  0  0  0  0  0
  190.7710  176.1670  145.1280 C   0  0  0  0  0  0  0  0  0  0  0  0
  192.0910  174.0710  144.7430 C   0  0  0  0  0  3  0  0  0  0  0  0
  189.8190  173.2830  145.1240 C   0  0  0  0  0  3  0  0  0  0  0  0
  188.3320  176.4210  145.6390 C   0  0  0  0  0  3  0  0  0  0  0  0
  187.3780  176.3600  144.7150 C   0  0  0  0  0  3  0  0  0  0  0  0
  186.4660  178.6490  144.7910 C   0  0  0  0  0  2  0  0  0  0  0  0
  184.5590  177.9570  146.7240 C   0  0  0  0  0  2  0  0  0  0  0  0
  184.0410  178.8630  145.6110 C   0  0  0  0  0  2  0  0  0  0  0  0
  185.4020  176.8070  146.1580 C   0  0  0  0  0  2  0  0  0  0  0  0
  186.1300  177.1620  144.8500 C   0  0  0  0  0  3  0  0  0  0  0  0
  185.1950  179.5100  144.8350 C   0  0  0  0  0  2  0  0  0  0  0  0
  193.3180  176.1310  145.2200 C   0  0  1  0  0  3  0  0  0  0  0  0
  193.7370  176.1650  146.6130 N   0  0  0  0  0  1  0  0  0  0  0  0
  195.7590  177.3930  144.4570 O   0  0  0  0  0  0  0  0  0  0  0  0
  194.3580  175.5270  144.3970 N   0  0  0  0  0  2  0  0  0  0  0  0
  195.5630  176.2120  144.0570 C   0  0  0  0  0  0  0  0  0  0  0  0
  196.5210  175.5580  143.2790 O   0  0  0  0  0  0  0  0  0  0  0  0
  196.9270  176.0420  142.0030 C   0  0  1  0  0  3  0  0  0  0  0  0
  197.8680  175.0330  141.3640 C   0  0  0  0  0  2  0  0  0  0  0  0
  197.1280  174.2350  140.3810 N   0  0  0  0  0  0  0  0  0  0  0  0
  197.9390  174.1860  139.1770 C   0  0  0  0  0  1  0  0  0  0  0  0
  194.8470  176.7970  141.1330 O   0  0  0  0  0  0  0  0  0  0  0  0
  195.7880  176.0220  141.0720 C   0  0  0  0  0  0  0  0  0  0  0  0
  195.9120  174.9720  140.0470 C   0  0  0  0  0  2  0  0  0  0  0  0
  1  9  1  0  0  0  0
  1  3  1  0  0  0  0
  2  6  1  0  0  0  0
  4  7  1  0  0  0  0
  4  8  2  0  0  0  0
  5  6  1  0  0  0  0
  5 17  1  0  0  0  0
  6  1  2  0  0  0  0
  7  5  2  0  0  0  0
  8  3  1  0  0  0  0
 10 15  1  0  0  0  0
 10  9  2  0  0  0  0
 11 16  1  0  0  0  0
 11 15  1  0  0  0  0
 13 12  1  0  0  0  0
 14 12  1  0  0  0  0
 15 14  1  0  0  0  0
 16 13  1  0  0  0  0
 17 18  1  1  0  0  0
 20 17  1  0  0  0  0
 21 20  1  0  0  0  0
 21 19  2  0  0  0  0
 22 21  1  0  0  0  0
 23 22  1  1  0  0  0
 24 23  1  0  0  0  0
 25 24  1  0  0  0  0
 26 25  1  0  0  0  0
 28 27  2  0  0  0  0
 28 23  1  0  0  0  0
 29 25  1  0  0  0  0
 29 28  1  0  0  0  0
M  END
>  <MODEL>
2

>  <REMARK>
 VINA RESULT:      -7.7      5.932     11.397
  Name = 
  6 active torsions:
  status: ('A' for Active; 'I' for Inactive)
    1  A    between atoms: C_2  and  C_6
    2  A    between atoms: N_4  and  C_10
    3  A    between atoms: C_5  and  O_25
    4  A    between atoms: C_7  and  O_25
    5  A    between atoms: C_10  and  C_21
    6  A    between atoms: C_15  and  C_27
                            x       y       z     vdW  Elec       q    Type
                         _______ _______ _______ _____ _____    ______ ____

>  <TORSDO>
F 6

$$$$
=
 OpenBabel11062422583D

 29 31  0  0  1  0  0  0  0  0999 V2000
  190.2330  177.0260  145.9200 C   0  0  0  0  0  0  0  0  0  0  0  0
  191.2060  176.9130  143.7540 O   0  0  0  0  0  1  0  0  0  0  0  0
  190.3540  176.9740  147.4050 C   0  0  0  0  0  2  0  0  0  0  0  0
  191.7020  174.9450  147.5320 N   0  0  0  0  0  0  0  0  0  0  0  0
  192.6140  176.3080  145.6720 C   0  0  0  0  0  0  0  0  0  0  0  0
  191.3000  176.7530  145.1340 C   0  0  0  0  0  0  0  0  0  0  0  0
  192.7600  175.4540  146.7030 C   0  0  0  0  0  3  0  0  0  0  0  0
  190.6140  175.5760  147.8480 C   0  0  0  0  0  3  0  0  0  0  0  0
  188.9070  177.4400  145.4120 C   0  0  0  0  0  3  0  0  0  0  0  0
  187.7680  176.7880  145.6240 C   0  0  0  0  0  3  0  0  0  0  0  0
  186.7150  178.6290  144.3660 C   0  0  0  0  0  2  0  0  0  0  0  0
  184.3750  178.5050  145.9020 C   0  0  0  0  0  2  0  0  0  0  0  0
  184.1470  178.6880  144.4050 C   0  0  0  0  0  2  0  0  0  0  0  0
  185.4270  177.4210  146.1760 C   0  0  0  0  0  2  0  0  0  0  0  0
  186.4830  177.2920  145.0650 C   0  0  0  0  0  3  0  0  0  0  0  0
  185.4320  179.1390  143.6960 C   0  0  0  0  0  2  0  0  0  0  0  0
  193.8360  176.6980  144.8950 C   0  0  1  0  0  3  0  0  0  0  0  0
  194.6140  177.6880  145.6250 N   0  0  0  0  0  1  0  0  0  0  0  0
  195.5080  176.3640  142.6080 O   0  0  0  0  0  0  0  0  0  0  0  0
  194.6550  175.5250  144.6130 N   0  0  0  0  0  2  0  0  0  0  0  0
  195.4780  175.4240  143.4510 C   0  0  0  0  0  0  0  0  0  0  0  0
  196.2470  174.2750  143.2600 O   0  0  0  0  0  0  0  0  0  0  0  0
  195.9930  173.0610  143.9590 C   0  0  1  0  0  3  0  0  0  0  0  0
  196.1540  171.8920  143.0020 C   0  0  0  0  0  2  0  0  0  0  0  0
  197.4670  171.2700  143.2140 N   0  0  0  0  0  0  0  0  0  0  0  0
  197.2510  169.8350  143.2790 C   0  0  0  0  0  1  0  0  0  0  0  0
  197.2150  173.4400  145.9640 O   0  0  0  0  0  0  0  0  0  0  0  0
  197.0670  172.8060  144.9310 C   0  0  0  0  0  0  0  0  0  0  0  0
  197.9410  171.6910  144.5290 C   0  0  0  0  0  2  0  0  0  0  0  0
  1  3  1  0  0  0  0
  2  6  1  0  0  0  0
  3  8  1  0  0  0  0
  4  8  2  0  0  0  0
  5  7  2  0  0  0  0
  6  5  1  0  0  0  0
  6  1  2  0  0  0  0
  7  4  1  0  0  0  0
  9 10  2  0  0  0  0
  9  1  1  0  0  0  0
 11 15  1  0  0  0  0
 12 14  1  0  0  0  0
 13 12  1  0  0  0  0
 15 10  1  0  0  0  0
 15 14  1  0  0  0  0
 16 11  1  0  0  0  0
 16 13  1  0  0  0  0
 17 18  1  1  0  0  0
 17  5  1  0  0  0  0
 19 21  2  0  0  0  0
 20 17  1  0  0  0  0
 21 20  1  0  0  0  0
 22 21  1  0  0  0  0
 23 22  1  6  0  0  0
 23 28  1  0  0  0  0
 24 25  1  0  0  0  0
 24 23  1  0  0  0  0
 25 26  1  0  0  0  0
 25 29  1  0  0  0  0
 28 27  2  0  0  0  0
 29 28  1  0  0  0  0
M  END
>  <MODEL>
3

>  <REMARK>
 VINA RESULT:      -7.7      5.998     12.026
  Name = 
  6 active torsions:
  status: ('A' for Active; 'I' for Inactive)
    1  A    between atoms: C_2  and  C_6
    2  A    between atoms: N_4  and  C_10
    3  A    between atoms: C_5  and  O_25
    4  A    between atoms: C_7  and  O_25
    5  A    between atoms: C_10  and  C_21
    6  A    between atoms: C_15  and  C_27
                            x       y       z     vdW  Elec       q    Type
                         _______ _______ _______ _____ _____    ______ ____

>  <TORSDO>
F 6

$$$$
=
 OpenBabel11062422583D

 29 31  0  0  1  0  0  0  0  0999 V2000
  189.4250  175.7560  145.7410 C   0  0  0  0  0  0  0  0  0  0  0  0
  190.6340  177.5590  144.7710 O   0  0  0  0  0  1  0  0  0  0  0  0
  189.3860  174.4100  146.3810 C   0  0  0  0  0  2  0  0  0  0  0  0
  190.8540  173.2750  144.7980 N   0  0  0  0  0  0  0  0  0  0  0  0
  191.8630  175.4920  145.2660 C   0  0  0  0  0  0  0  0  0  0  0  0
  190.5870  176.2570  145.2650 C   0  0  0  0  0  0  0  0  0  0  0  0
  191.9580  174.1760  144.9940 C   0  0  0  0  0  3  0  0  0  0  0  0
  189.6960  173.3560  145.3750 C   0  0  0  0  0  3  0  0  0  0  0  0
  188.1360  176.4810  145.7250 C   0  0  0  0  0  3  0  0  0  0  0  0
  187.2870  176.5130  144.7030 C   0  0  0  0  0  3  0  0  0  0  0  0
  186.2590  178.7360  144.4210 C   0  0  0  0  0  2  0  0  0  0  0  0
  184.5500  178.3590  146.6100 C   0  0  0  0  0  2  0  0  0  0  0  0
  183.8970  179.0100  145.3940 C   0  0  0  0  0  2  0  0  0  0  0  0
  185.4080  177.1540  146.2010 C   0  0  0  0  0  2  0  0  0  0  0  0
  186.0110  177.2760  144.7910 C   0  0  0  0  0  3  0  0  0  0  0  0
  184.9500  179.5390  144.4110 C   0  0  0  0  0  2  0  0  0  0  0  0
  193.1320  176.2810  145.3980 C   0  0  1  0  0  3  0  0  0  0  0  0
  193.6130  176.2530  146.7710 N   0  0  0  0  0  1  0  0  0  0  0  0
  195.6890  177.4590  144.9400 O   0  0  0  0  0  0  0  0  0  0  0  0
  194.1530  175.7580  144.4980 N   0  0  0  0  0  2  0  0  0  0  0  0
  195.4180  176.3930  144.3200 C   0  0  0  0  0  0  0  0  0  0  0  0
  196.3510  175.8200  143.4530 O   0  0  0  0  0  0  0  0  0  0  0  0
  197.3130  174.8650  143.8890 C   0  0  1  0  0  3  0  0  0  0  0  0
  196.8510  174.2580  145.2040 C   0  0  0  0  0  2  0  0  0  0  0  0
  196.2540  172.9430  144.9470 N   0  0  0  0  0  0  0  0  0  0  0  0
  196.8150  172.0240  145.9220 C   0  0  0  0  0  1  0  0  0  0  0  0
  197.7400  173.7050  141.8580 O   0  0  0  0  0  0  0  0  0  0  0  0
  197.3020  173.6960  142.9970 C   0  0  0  0  0  0  0  0  0  0  0  0
  196.7140  172.5040  143.6330 C   0  0  0  0  0  2  0  0  0  0  0  0
  1  3  1  0  0  0  0
  2  6  1  0  0  0  0
  4  7  1  0  0  0  0
  4  8  2  0  0  0  0
  5 17  1  0  0  0  0
  6  5  1  0  0  0  0
  6  1  2  0  0  0  0
  7  5  2  0  0  0  0
  8  3  1  0  0  0  0
  9  1  1  0  0  0  0
 10 15  1  0  0  0  0
 10  9  2  0  0  0  0
 11 15  1  0  0  0  0
 13 12  1  0  0  0  0
 14 12  1  0  0  0  0
 15 14  1  0  0  0  0
 16 11  1  0  0  0  0
 16 13  1  0  0  0  0
 17 18  1  1  0  0  0
 20 17  1  0  0  0  0
 21 20  1  0  0  0  0
 21 19  2  0  0  0  0
 22 21  1  0  0  0  0
 23 22  1  6  0  0  0
 23 24  1  0  0  0  0
 25 24  1  0  0  0  0
 25 26  1  0  0  0  0
 27 28  2  0  0  0  0
 28 29  1  0  0  0  0
 28 23  1  0  0  0  0
 29 25  1  0  0  0  0
M  END
>  <MODEL>
4

>  <REMARK>
 VINA RESULT:      -7.6      5.809     11.825
  Name = 
  6 active torsions:
  status: ('A' for Active; 'I' for Inactive)
    1  A    between atoms: C_2  and  C_6
    2  A    between atoms: N_4  and  C_10
    3  A    between atoms: C_5  and  O_25
    4  A    between atoms: C_7  and  O_25
    5  A    between atoms: C_10  and  C_21
    6  A    between atoms: C_15  and  C_27
                            x       y       z     vdW  Elec       q    Type
                         _______ _______ _______ _____ _____    ______ ____

>  <TORSDO>
F 6

$$$$
=
 OpenBabel11062422583D

 29 31  0  0  1  0  0  0  0  0999 V2000
  190.1900  177.1090  145.1640 C   0  0  0  0  0  0  0  0  0  0  0  0
  191.9650  176.5600  143.6800 O   0  0  0  0  0  1  0  0  0  0  0  0
  189.6620  177.3090  146.5430 C   0  0  0  0  0  2  0  0  0  0  0  0
  190.5520  175.2560  147.5140 N   0  0  0  0  0  0  0  0  0  0  0  0
  192.3350  176.2160  146.0820 C   0  0  0  0  0  0  0  0  0  0  0  0
  191.4430  176.6380  144.9690 C   0  0  0  0  0  0  0  0  0  0  0  0
  191.9180  175.5480  147.1750 C   0  0  0  0  0  3  0  0  0  0  0  0
  189.5250  175.9980  147.2350 C   0  0  0  0  0  3  0  0  0  0  0  0
  189.2700  177.5070  144.0750 C   0  0  0  0  0  3  0  0  0  0  0  0
  187.9560  177.6600  144.2010 C   0  0  0  0  0  3  0  0  0  0  0  0
  185.7680  177.3560  143.1030 C   0  0  0  0  0  2  0  0  0  0  0  0
  186.8980  177.4820  140.5420 C   0  0  0  0  0  2  0  0  0  0  0  0
  185.5870  178.2470  140.7000 C   0  0  0  0  0  2  0  0  0  0  0  0
  187.8460  177.7550  141.7170 C   0  0  0  0  0  2  0  0  0  0  0  0
  187.1190  178.0650  143.0370 C   0  0  0  0  0  3  0  0  0  0  0  0
  184.8400  177.8170  141.9700 C   0  0  0  0  0  2  0  0  0  0  0  0
  193.8110  176.3890  145.8770 C   0  0  1  0  0  3  0  0  0  0  0  0
  194.3310  177.4330  146.7470 N   0  0  0  0  0  1  0  0  0  0  0  0
  196.1670  175.5150  144.5270 O   0  0  0  0  0  0  0  0  0  0  0  0
  194.5090  175.1340  146.1260 N   0  0  0  0  0  2  0  0  0  0  0  0
  195.6910  174.7590  145.4190 C   0  0  0  0  0  0  0  0  0  0  0  0
  196.3130  173.5470  145.7280 O   0  0  0  0  0  0  0  0  0  0  0  0
  196.1650  172.3860  144.9180 C   0  0  1  0  0  3  0  0  0  0  0  0
  197.4110  171.5240  145.0510 C   0  0  0  0  0  2  0  0  0  0  0  0
  197.1400  170.4210  145.9810 N   0  0  0  0  0  0  0  0  0  0  0  0
  197.6370  169.2080  145.3560 C   0  0  0  0  0  1  0  0  0  0  0  0
  193.9350  171.7550  145.4500 O   0  0  0  0  0  0  0  0  0  0  0  0
  195.1300  171.5070  145.4830 C   0  0  0  0  0  0  0  0  0  0  0  0
  195.6910  170.2850  146.0850 C   0  0  0  0  0  2  0  0  0  0  0  0
  1  3  1  0  0  0  0
  2  6  1  0  0  0  0
  3  8  1  0  0  0  0
  5  7  2  0  0  0  0
  6  1  2  0  0  0  0
  6  5  1  0  0  0  0
  7  4  1  0  0  0  0
  8  4  2  0  0  0  0
  9 10  2  0  0  0  0
  9  1  1  0  0  0  0
 12 13  1  0  0  0  0
 12 14  1  0  0  0  0
 13 16  1  0  0  0  0
 14 15  1  0  0  0  0
 15 11  1  0  0  0  0
 15 10  1  0  0  0  0
 16 11  1  0  0  0  0
 17  5  1  0  0  0  0
 17 20  1  0  0  0  0
 17 18  1  1  0  0  0
 19 21  2  0  0  0  0
 21 22  1  0  0  0  0
 21 20  1  0  0  0  0
 23 24  1  0  0  0  0
 23 28  1  0  0  0  0
 23 22  1  1  0  0  0
 24 25  1  0  0  0  0
 25 29  1  0  0  0  0
 26 25  1  0  0  0  0
 27 28  2  0  0  0  0
 28 29  1  0  0  0  0
M  END
>  <MODEL>
5

>  <REMARK>
 VINA RESULT:      -7.6      5.972     12.097
  Name = 
  6 active torsions:
  status: ('A' for Active; 'I' for Inactive)
    1  A    between atoms: C_2  and  C_6
    2  A    between atoms: N_4  and  C_10
    3  A    between atoms: C_5  and  O_25
    4  A    between atoms: C_7  and  O_25
    5  A    between atoms: C_10  and  C_21
    6  A    between atoms: C_15  and  C_27
                            x       y       z     vdW  Elec       q    Type
                         _______ _______ _______ _____ _____    ______ ____

>  <TORSDO>
F 6

$$$$
=
 OpenBabel11062422583D

 29 31  0  0  1  0  0  0  0  0999 V2000
  190.3020  176.9880  145.9100 C   0  0  0  0  0  0  0  0  0  0  0  0
  191.3150  177.0920  143.7610 O   0  0  0  0  0  1  0  0  0  0  0  0
  190.3980  176.8190  147.3870 C   0  0  0  0  0  2  0  0  0  0  0  0
  191.8270  174.8420  147.3760 N   0  0  0  0  0  0  0  0  0  0  0  0
  192.7130  176.3890  145.6520 C   0  0  0  0  0  0  0  0  0  0  0  0
  191.3910  176.8230  145.1250 C   0  0  0  0  0  0  0  0  0  0  0  0
  192.8780  175.4600  146.6140 C   0  0  0  0  0  3  0  0  0  0  0  0
  190.7090  175.4010  147.7210 C   0  0  0  0  0  3  0  0  0  0  0  0
  188.9680  177.3890  145.4100 C   0  0  0  0  0  3  0  0  0  0  0  0
  187.8160  176.8320  145.7700 C   0  0  0  0  0  3  0  0  0  0  0  0
  186.7390  178.6460  144.4930 C   0  0  0  0  0  2  0  0  0  0  0  0
  184.3990  178.5040  146.0280 C   0  0  0  0  0  2  0  0  0  0  0  0
  184.1710  178.6690  144.5280 C   0  0  0  0  0  2  0  0  0  0  0  0
  185.4650  177.4370  146.3130 C   0  0  0  0  0  2  0  0  0  0  0  0
  186.5240  177.3130  145.2040 C   0  0  0  0  0  3  0  0  0  0  0  0
  185.4490  179.1320  143.8160 C   0  0  0  0  0  2  0  0  0  0  0  0
  193.9320  176.8900  144.9340 C   0  0  1  0  0  3  0  0  0  0  0  0
  194.6740  177.8200  145.7710 N   0  0  0  0  0  1  0  0  0  0  0  0
  193.8980  175.5960  142.3930 O   0  0  0  0  0  0  0  0  0  0  0  0
  194.7860  175.7750  144.5440 N   0  0  0  0  0  2  0  0  0  0  0  0
  194.7240  175.1760  143.2500 C   0  0  0  0  0  0  0  0  0  0  0  0
  195.5890  174.1220  142.9460 O   0  0  0  0  0  0  0  0  0  0  0  0
  195.2760  172.7670  143.2500 C   0  0  1  0  0  3  0  0  0  0  0  0
  196.4140  172.1630  144.0580 C   0  0  0  0  0  2  0  0  0  0  0  0
  196.0430  172.1460  145.4780 N   0  0  0  0  0  0  0  0  0  0  0  0
  196.3710  170.8260  145.9860 C   0  0  0  0  0  1  0  0  0  0  0  0
  193.0050  172.9750  143.9230 O   0  0  0  0  0  0  0  0  0  0  0  0
  194.1620  172.7090  144.2080 C   0  0  0  0  0  0  0  0  0  0  0  0
  194.5920  172.2840  145.5510 C   0  0  0  0  0  2  0  0  0  0  0  0
  1  3  1  0  0  0  0
  2  6  1  0  0  0  0
  3  8  1  0  0  0  0
  4  8  2  0  0  0  0
  5  7  2  0  0  0  0
  6  5  1  0  0  0  0
  6  1  2  0  0  0  0
  7  4  1  0  0  0  0
  9 10  2  0  0  0  0
  9  1  1  0  0  0  0
 11 15  1  0  0  0  0
 12 14  1  0  0  0  0
 13 12  1  0  0  0  0
 15 10  1  0  0  0  0
 15 14  1  0  0  0  0
 16 11  1  0  0  0  0
 16 13  1  0  0  0  0
 17  5  1  0  0  0  0
 17 18  1  1  0  0  0
 19 21  2  0  0  0  0
 20 17  1  0  0  0  0
 21 20  1  0  0  0  0
 22 21  1  0  0  0  0
 23 22  1  1  0  0  0
 23 24  1  0  0  0  0
 23 28  1  0  0  0  0
 24 25  1  0  0  0  0
 25 29  1  0  0  0  0
 25 26  1  0  0  0  0
 27 28  2  0  0  0  0
 28 29  1  0  0  0  0
M  END
>  <MODEL>
6

>  <REMARK>
 VINA RESULT:      -7.4      6.046     11.280
  Name = 
  6 active torsions:
  status: ('A' for Active; 'I' for Inactive)
    1  A    between atoms: C_2  and  C_6
    2  A    between atoms: N_4  and  C_10
    3  A    between atoms: C_5  and  O_25
    4  A    between atoms: C_7  and  O_25
    5  A    between atoms: C_10  and  C_21
    6  A    between atoms: C_15  and  C_27
                            x       y       z     vdW  Elec       q    Type
                         _______ _______ _______ _____ _____    ______ ____

>  <TORSDO>
F 6

$$$$
=
 OpenBabel11062422583D

 29 31  0  0  1  0  0  0  0  0999 V2000
  190.1640  176.9680  145.7810 C   0  0  0  0  0  0  0  0  0  0  0  0
  191.2080  176.9650  143.6450 O   0  0  0  0  0  1  0  0  0  0  0  0
  190.2410  176.8800  147.2670 C   0  0  0  0  0  2  0  0  0  0  0  0
  191.6880  174.9200  147.3850 N   0  0  0  0  0  0  0  0  0  0  0  0
  192.5850  176.3800  145.5920 C   0  0  0  0  0  0  0  0  0  0  0  0
  191.2670  176.7710  145.0230 C   0  0  0  0  0  0  0  0  0  0  0  0
  192.7440  175.5060  146.6050 C   0  0  0  0  0  3  0  0  0  0  0  0
  190.5590  175.4860  147.6820 C   0  0  0  0  0  3  0  0  0  0  0  0
  188.8340  177.3270  145.2410 C   0  0  0  0  0  3  0  0  0  0  0  0
  187.6700  176.9430  145.7540 C   0  0  0  0  0  3  0  0  0  0  0  0
  186.6230  178.5600  144.2150 C   0  0  0  0  0  2  0  0  0  0  0  0
  184.2990  178.7240  145.7720 C   0  0  0  0  0  2  0  0  0  0  0  0
  184.0560  178.6570  144.2670 C   0  0  0  0  0  2  0  0  0  0  0  0
  185.3420  177.6880  146.2140 C   0  0  0  0  0  2  0  0  0  0  0  0
  186.3840  177.3620  145.1300 C   0  0  0  0  0  3  0  0  0  0  0  0
  185.3370  178.9670  143.4810 C   0  0  0  0  0  2  0  0  0  0  0  0
  193.8090  176.8530  144.8650 C   0  0  1  0  0  3  0  0  0  0  0  0
  194.5550  177.8000  145.6790 N   0  0  0  0  0  1  0  0  0  0  0  0
  193.6720  175.3960  142.4170 O   0  0  0  0  0  0  0  0  0  0  0  0
  194.6570  175.7220  144.5080 N   0  0  0  0  0  2  0  0  0  0  0  0
  194.5420  175.0400  143.2590 C   0  0  0  0  0  0  0  0  0  0  0  0
  195.4030  173.9760  142.9830 O   0  0  0  0  0  0  0  0  0  0  0  0
  196.5440  174.1160  142.1440 C   0  0  1  0  0  3  0  0  0  0  0  0
  196.1240  173.9290  140.6960 C   0  0  0  0  0  2  0  0  0  0  0  0
  195.9910  175.2430  140.0560 N   0  0  0  0  0  0  0  0  0  0  0  0
  196.6740  175.1640  138.7770 C   0  0  0  0  0  1  0  0  0  0  0  0
  197.5600  176.0440  143.0950 O   0  0  0  0  0  0  0  0  0  0  0  0
  197.0030  175.5130  142.1470 C   0  0  0  0  0  0  0  0  0  0  0  0
  196.7280  176.2020  140.8750 C   0  0  0  0  0  2  0  0  0  0  0  0
  1  3  1  0  0  0  0
  2  6  1  0  0  0  0
  3  8  1  0  0  0  0
  4  8  2  0  0  0  0
  5  7  2  0  0  0  0
  6  5  1  0  0  0  0
  6  1  2  0  0  0  0
  7  4  1  0  0  0  0
  9 10  2  0  0  0  0
  9  1  1  0  0  0  0
 11 15  1  0  0  0  0
 12 14  1  0  0  0  0
 13 12  1  0  0  0  0
 15 10  1  0  0  0  0
 15 14  1  0  0  0  0
 16 11  1  0  0  0  0
 16 13  1  0  0  0  0
 17  5  1  0  0  0  0
 17 18  1  1  0  0  0
 19 21  2  0  0  0  0
 20 17  1  0  0  0  0
 21 20  1  0  0  0  0
 22 21  1  0  0  0  0
 23 28  1  0  0  0  0
 23 22  1  1  0  0  0
 24 23  1  0  0  0  0
 25 24  1  0  0  0  0
 25 29  1  0  0  0  0
 26 25  1  0  0  0  0
 28 27  2  0  0  0  0
 29 28  1  0  0  0  0
M  END
>  <MODEL>
7

>  <REMARK>
 VINA RESULT:      -7.4      5.945     11.291
  Name = 
  6 active torsions:
  status: ('A' for Active; 'I' for Inactive)
    1  A    between atoms: C_2  and  C_6
    2  A    between atoms: N_4  and  C_10
    3  A    between atoms: C_5  and  O_25
    4  A    between atoms: C_7  and  O_25
    5  A    between atoms: C_10  and  C_21
    6  A    between atoms: C_15  and  C_27
                            x       y       z     vdW  Elec       q    Type
                         _______ _______ _______ _____ _____    ______ ____

>  <TORSDO>
F 6

$$$$
=
 OpenBabel11062422583D

 29 31  0  0  1  0  0  0  0  0999 V2000
  190.2390  177.0100  145.8510 C   0  0  0  0  0  0  0  0  0  0  0  0
  191.1030  176.9120  143.6370 O   0  0  0  0  0  1  0  0  0  0  0  0
  190.4320  176.9460  147.3270 C   0  0  0  0  0  2  0  0  0  0  0  0
  191.7840  174.9160  147.3720 N   0  0  0  0  0  0  0  0  0  0  0  0
  192.6030  176.2930  145.4790 C   0  0  0  0  0  0  0  0  0  0  0  0
  191.2640  176.7420  145.0100 C   0  0  0  0  0  0  0  0  0  0  0  0
  192.8000  175.4310  146.4960 C   0  0  0  0  0  3  0  0  0  0  0  0
  190.7140  175.5460  147.7470 C   0  0  0  0  0  3  0  0  0  0  0  0
  188.8890  177.4280  145.4120 C   0  0  0  0  0  3  0  0  0  0  0  0
  187.7620  176.7750  145.6760 C   0  0  0  0  0  3  0  0  0  0  0  0
  186.6360  178.6650  144.5620 C   0  0  0  0  0  2  0  0  0  0  0  0
  184.3450  178.3990  146.1530 C   0  0  0  0  0  2  0  0  0  0  0  0
  184.0690  178.6660  144.6770 C   0  0  0  0  0  2  0  0  0  0  0  0
  185.4250  177.3230  146.3310 C   0  0  0  0  0  2  0  0  0  0  0  0
  186.4510  177.2840  145.1850 C   0  0  0  0  0  3  0  0  0  0  0  0
  185.3230  179.1860  143.9600 C   0  0  0  0  0  2  0  0  0  0  0  0
  193.7860  176.6880  144.6450 C   0  0  1  0  0  3  0  0  0  0  0  0
  194.8320  177.2610  145.4780 N   0  0  0  0  0  1  0  0  0  0  0  0
  193.9450  176.4690  141.8050 O   0  0  0  0  0  0  0  0  0  0  0  0
  194.3010  175.5350  143.9150 N   0  0  0  0  0  2  0  0  0  0  0  0
  194.3600  175.4930  142.4900 C   0  0  0  0  0  0  0  0  0  0  0  0
  194.8840  174.3590  141.8640 O   0  0  0  0  0  0  0  0  0  0  0  0
  194.0650  173.2740  141.4410 C   0  0  1  0  0  3  0  0  0  0  0  0
  192.6850  173.4200  142.0620 C   0  0  0  0  0  2  0  0  0  0  0  0
  191.7630  173.9800  141.0670 N   0  0  0  0  0  0  0  0  0  0  0  0
  190.5530  173.1780  141.1120 C   0  0  0  0  0  1  0  0  0  0  0  0
  194.5820  173.2060  139.1210 O   0  0  0  0  0  0  0  0  0  0  0  0
  193.7640  173.4000  140.0070 C   0  0  0  0  0  0  0  0  0  0  0  0
  192.3630  173.7740  139.7520 C   0  0  0  0  0  2  0  0  0  0  0  0
  1  3  1  0  0  0  0
  2  6  1  0  0  0  0
  3  8  1  0  0  0  0
  4  8  2  0  0  0  0
  5  7  2  0  0  0  0
  6  5  1  0  0  0  0
  6  1  2  0  0  0  0
  7  4  1  0  0  0  0
  9 10  2  0  0  0  0
  9  1  1  0  0  0  0
 11 15  1  0  0  0  0
 12 14  1  0  0  0  0
 13 12  1  0  0  0  0
 15 10  1  0  0  0  0
 15 14  1  0  0  0  0
 16 11  1  0  0  0  0
 16 13  1  0  0  0  0
 17 18  1  1  0  0  0
 17  5  1  0  0  0  0
 19 21  2  0  0  0  0
 20 17  1  0  0  0  0
 21 20  1  0  0  0  0
 22 21  1  0  0  0  0
 23 22  1  1  0  0  0
 23 24  1  0  0  0  0
 25 26  1  0  0  0  0
 25 24  1  0  0  0  0
 27 28  2  0  0  0  0
 28 23  1  0  0  0  0
 29 28  1  0  0  0  0
 29 25  1  0  0  0  0
M  END
>  <MODEL>
8

>  <REMARK>
 VINA RESULT:      -7.3      5.746     10.073
  Name = 
  6 active torsions:
  status: ('A' for Active; 'I' for Inactive)
    1  A    between atoms: C_2  and  C_6
    2  A    between atoms: N_4  and  C_10
    3  A    between atoms: C_5  and  O_25
    4  A    between atoms: C_7  and  O_25
    5  A    between atoms: C_10  and  C_21
    6  A    between atoms: C_15  and  C_27
                            x       y       z     vdW  Elec       q    Type
                         _______ _______ _______ _____ _____    ______ ____

>  <TORSDO>
F 6

$$$$
=
 OpenBabel11062422583D

 29 31  0  0  1  0  0  0  0  0999 V2000
  189.9840  176.3770  144.3560 C   0  0  0  0  0  0  0  0  0  0  0  0
  190.0440  174.2770  145.4700 O   0  0  0  0  0  1  0  0  0  0  0  0
  190.5390  177.3390  143.3630 C   0  0  0  0  0  2  0  0  0  0  0  0
  192.8770  177.1610  144.0370 N   0  0  0  0  0  0  0  0  0  0  0  0
  191.9450  174.8630  144.0310 C   0  0  0  0  0  0  0  0  0  0  0  0
  190.6280  175.2170  144.6250 C   0  0  0  0  0  0  0  0  0  0  0  0
  192.9490  175.7390  143.8370 C   0  0  0  0  0  3  0  0  0  0  0  0
  191.8270  177.9000  143.8580 C   0  0  0  0  0  3  0  0  0  0  0  0
  188.6900  176.7700  144.9550 C   0  0  0  0  0  3  0  0  0  0  0  0
  188.0590  177.9190  144.7320 C   0  0  0  0  0  3  0  0  0  0  0  0
  186.0550  176.9100  145.7540 C   0  0  0  0  0  2  0  0  0  0  0  0
  184.3710  178.8830  144.6940 C   0  0  0  0  0  2  0  0  0  0  0  0
  184.0740  178.5000  146.1410 C   0  0  0  0  0  2  0  0  0  0  0  0
  185.8760  179.0810  144.4690 C   0  0  0  0  0  2  0  0  0  0  0  0
  186.7560  178.2160  145.3880 C   0  0  0  0  0  3  0  0  0  0  0  0
  184.7480  177.1730  146.5160 C   0  0  0  0  0  2  0  0  0  0  0  0
  192.2220  173.4050  143.8080 C   0  0  1  0  0  3  0  0  0  0  0  0
  192.7150  172.7850  145.0290 N   0  0  0  0  0  1  0  0  0  0  0  0
  191.3790  173.1940  141.0910 O   0  0  0  0  0  0  0  0  0  0  0  0
  191.0180  172.7230  143.3490 N   0  0  0  0  0  2  0  0  0  0  0  0
  190.6570  172.6470  141.9700 C   0  0  0  0  0  0  0  0  0  0  0  0
  189.4970  171.9600  141.6080 O   0  0  0  0  0  0  0  0  0  0  0  0
  188.2610  172.6240  141.3630 C   0  0  1  0  0  3  0  0  0  0  0  0
  188.2550  173.9520  142.1030 C   0  0  0  0  0  2  0  0  0  0  0  0
  188.5620  175.0330  141.1590 N   0  0  0  0  0  0  0  0  0  0  0  0
  187.5920  176.0880  141.3930 C   0  0  0  0  0  1  0  0  0  0  0  0
  188.0410  172.2990  139.0180 O   0  0  0  0  0  0  0  0  0  0  0  0
  188.1940  173.0600  139.9600 C   0  0  0  0  0  0  0  0  0  0  0  0
  188.3200  174.5200  139.8140 C   0  0  0  0  0  2  0  0  0  0  0  0
  1  6  2  0  0  0  0
  1  9  1  0  0  0  0
  3  8  1  0  0  0  0
  3  1  1  0  0  0  0
  5  6  1  0  0  0  0
  6  2  1  0  0  0  0
  7  5  2  0  0  0  0
  7  4  1  0  0  0  0
  8  4  2  0  0  0  0
 10  9  2  0  0  0  0
 10 15  1  0  0  0  0
 11 16  1  0  0  0  0
 12 13  1  0  0  0  0
 13 16  1  0  0  0  0
 14 12  1  0  0  0  0
 14 15  1  0  0  0  0
 15 11  1  0  0  0  0
 17  5  1  0  0  0  0
 17 18  1  1  0  0  0
 19 21  2  0  0  0  0
 20 17  1  0  0  0  0
 21 20  1  0  0  0  0
 22 21  1  0  0  0  0
 23 22  1  6  0  0  0
 23 24  1  0  0  0  0
 25 26  1  0  0  0  0
 25 24  1  0  0  0  0
 27 28  2  0  0  0  0
 28 23  1  0  0  0  0
 29 28  1  0  0  0  0
 29 25  1  0  0  0  0
M  END
>  <MODEL>
9

>  <REMARK>
 VINA RESULT:      -7.3      5.146      8.284
  Name = 
  6 active torsions:
  status: ('A' for Active; 'I' for Inactive)
    1  A    between atoms: C_2  and  C_6
    2  A    between atoms: N_4  and  C_10
    3  A    between atoms: C_5  and  O_25
    4  A    between atoms: C_7  and  O_25
    5  A    between atoms: C_10  and  C_21
    6  A    between atoms: C_15  and  C_27
                            x       y       z     vdW  Elec       q    Type
                         _______ _______ _______ _____ _____    ______ ____

>  <TORSDO>
F 6

$$$$
