=
 OpenBabel11062423113D

 28 30  0  0  1  0  0  0  0  0999 V2000
  189.9690  176.3300  144.6820 C   0  0  2  0  0  3  0  0  0  0  0  0
  189.5240  176.5510  143.2300 C   0  0  2  0  0  3  0  0  0  0  0  0
  186.0730  176.9010  141.9060 O   0  0  0  0  0  0  0  0  0  0  0  0
  189.2710  178.0240  142.8870 C   0  0  0  0  0  2  0  0  0  0  0  0
  187.6140  175.9160  140.2400 O   0  0  0  0  0  0  0  0  0  0  0  0
  188.3030  175.7190  142.8640 C   0  0  1  0  0  3  0  0  0  0  0  0
  187.5090  176.6160  141.5670 S   0  0  0  0  0  0  0  0  0  0  0  0
  188.7060  174.4620  142.4100 O   0  0  0  0  0  1  0  0  0  0  0  0
  188.4790  178.0900  141.5920 C   0  0  0  0  0  2  0  0  0  0  0  0
  190.9350  174.6780  146.2520 N   0  0  0  0  0  0  0  0  0  0  0  0
  192.9620  176.5170  145.4890 C   0  0  2  0  0  3  0  0  0  0  0  0
  190.9500  175.1550  144.8660 C   0  0  2  0  0  3  0  0  0  0  0  0
  192.8500  175.9880  146.8930 C   0  0  0  0  0  2  0  0  0  0  0  0
  191.8730  175.1450  147.2320 C   0  0  0  0  0  3  0  0  0  0  0  0
  192.3820  175.5320  144.4700 C   0  0  0  0  0  2  0  0  0  0  0  0
  194.9020  177.8480  145.6700 O   0  0  0  0  0  0  0  0  0  0  0  0
  194.3820  176.8720  145.1530 C   0  0  0  0  0  0  0  0  0  0  0  0
  195.1880  176.0510  144.1890 C   0  0  0  0  0  2  0  0  0  0  0  0
  196.3000  176.8080  143.6360 N   0  0  0  0  0  1  0  0  0  0  0  0
  188.7870  176.1400  145.5130 N   0  0  0  0  0  2  0  0  0  0  0  0
  188.3390  177.1110  146.4680 C   0  0  0  0  0  0  0  0  0  0  0  0
  185.0440  177.7330  145.0930 C   0  0  0  0  0  2  0  0  0  0  0  0
  187.0340  177.4090  146.5530 C   0  0  0  0  0  0  0  0  0  0  0  0
  189.3380  177.7910  147.3550 C   0  0  0  0  0  1  0  0  0  0  0  0
  186.5240  178.4200  147.5510 C   0  0  0  0  0  2  0  0  0  0  0  0
  186.0340  176.7170  145.6670 C   0  0  0  0  0  2  0  0  0  0  0  0
  184.9960  178.4710  147.5570 C   0  0  0  0  0  2  0  0  0  0  0  0
  184.4490  178.6880  146.1430 C   0  0  0  0  0  2  0  0  0  0  0  0
  1 20  1  1  0  0  0
  2  1  1  1  0  0  0
  4  2  1  0  0  0  0
  5  7  2  0  0  0  0
  6  8  1  6  0  0  0
  6  2  1  0  0  0  0
  7  9  1  0  0  0  0
  7  3  2  0  0  0  0
  7  6  1  0  0  0  0
  9  4  1  0  0  0  0
 10 14  2  0  0  0  0
 11 17  1  6  0  0  0
 11 13  1  0  0  0  0
 12  1  1  1  0  0  0
 12 10  1  0  0  0  0
 13 14  1  0  0  0  0
 15 12  1  0  0  0  0
 15 11  1  0  0  0  0
 17 16  2  0  0  0  0
 18 17  1  0  0  0  0
 19 18  1  0  0  0  0
 20 21  1  0  0  0  0
 21 23  2  0  0  0  0
 21 24  1  0  0  0  0
 22 26  1  0  0  0  0
 22 28  1  0  0  0  0
 23 25  1  0  0  0  0
 25 27  1  0  0  0  0
 26 23  1  0  0  0  0
 28 27  1  0  0  0  0
M  END
>  <MODEL>
1

>  <REMARK>
 VINA RESULT:      -7.5      0.000      0.000
  Name = 
  6 active torsions:
  status: ('A' for Active; 'I' for Inactive)
    1  A    between atoms: C_1  and  C_2
    2  A    between atoms: C_2  and  C_12
    3  A    between atoms: C_2  and  N_20
    4  A    between atoms: C_4  and  C_11
    5  A    between atoms: C_4  and  C_18
    6  A    between atoms: C_7  and  N_20
                            x       y       z     vdW  Elec       q    Type
                         _______ _______ _______ _____ _____    ______ ____

>  <TORSDO>
F 6

$$$$
=
 OpenBabel11062423113D

 28 30  0  0  1  0  0  0  0  0999 V2000
  188.8840  175.8840  143.8070 C   0  0  2  0  0  3  0  0  0  0  0  0
  189.8160  175.6280  144.9980 C   0  0  2  0  0  3  0  0  0  0  0  0
  190.3500  177.7450  148.0010 O   0  0  0  0  0  0  0  0  0  0  0  0
  189.1130  174.9770  146.1950 C   0  0  0  0  0  2  0  0  0  0  0  0
  192.3660  176.4360  147.4150 O   0  0  0  0  0  0  0  0  0  0  0  0
  190.5420  176.8880  145.4480 C   0  0  1  0  0  3  0  0  0  0  0  0
  190.8970  176.6280  147.1580 S   0  0  0  0  0  0  0  0  0  0  0  0
  191.7250  177.0380  144.7230 O   0  0  0  0  0  1  0  0  0  0  0  0
  190.0010  175.1300  147.4190 C   0  0  0  0  0  2  0  0  0  0  0  0
  188.3280  174.9280  141.5920 N   0  0  0  0  0  0  0  0  0  0  0  0
  189.6700  172.9560  143.1330 C   0  0  2  0  0  3  0  0  0  0  0  0
  189.4260  175.3600  142.4610 C   0  0  2  0  0  3  0  0  0  0  0  0
  188.5170  172.6150  142.2290 C   0  0  0  0  0  2  0  0  0  0  0  0
  187.8870  173.5630  141.5350 C   0  0  0  0  0  3  0  0  0  0  0  0
  190.4150  174.2030  142.6490 C   0  0  0  0  0  2  0  0  0  0  0  0
  191.2900  171.6880  144.2900 O   0  0  0  0  0  0  0  0  0  0  0  0
  190.6060  171.7910  143.2840 C   0  0  0  0  0  0  0  0  0  0  0  0
  190.7260  170.7380  142.2200 C   0  0  0  0  0  2  0  0  0  0  0  0
  191.7770  171.0540  141.2660 N   0  0  0  0  0  1  0  0  0  0  0  0
  188.6080  177.3120  143.7220 N   0  0  0  0  0  2  0  0  0  0  0  0
  187.3000  177.8420  143.4720 C   0  0  0  0  0  0  0  0  0  0  0  0
  185.7990  177.1100  146.6880 C   0  0  0  0  0  2  0  0  0  0  0  0
  186.4700  178.0830  144.4980 C   0  0  0  0  0  0  0  0  0  0  0  0
  186.8700  178.1100  142.0610 C   0  0  0  0  0  1  0  0  0  0  0  0
  185.0890  178.6480  144.2730 C   0  0  0  0  0  2  0  0  0  0  0  0
  186.9110  177.8210  145.9120 C   0  0  0  0  0  2  0  0  0  0  0  0
  184.4010  178.9740  145.5980 C   0  0  0  0  0  2  0  0  0  0  0  0
  184.4140  177.7630  146.5360 C   0  0  0  0  0  2  0  0  0  0  0  0
  1 20  1  6  0  0  0
  2  1  1  6  0  0  0
  2  6  1  0  0  0  0
  2  4  1  0  0  0  0
  4  9  1  0  0  0  0
  6  8  1  6  0  0  0
  6  7  1  0  0  0  0
  7  5  2  0  0  0  0
  7  9  1  0  0  0  0
  7  3  2  0  0  0  0
 10 12  1  0  0  0  0
 11 17  1  6  0  0  0
 12 15  1  0  0  0  0
 12  1  1  1  0  0  0
 13 11  1  0  0  0  0
 14 10  2  0  0  0  0
 14 13  1  0  0  0  0
 15 11  1  0  0  0  0
 17 16  2  0  0  0  0
 18 17  1  0  0  0  0
 19 18  1  0  0  0  0
 21 20  1  0  0  0  0
 21 23  2  0  0  0  0
 23 26  1  0  0  0  0
 24 21  1  0  0  0  0
 25 23  1  0  0  0  0
 25 27  1  0  0  0  0
 26 22  1  0  0  0  0
 27 28  1  0  0  0  0
 28 22  1  0  0  0  0
M  END
>  <MODEL>
2

>  <REMARK>
 VINA RESULT:      -6.8      3.404      5.149
  Name = 
  6 active torsions:
  status: ('A' for Active; 'I' for Inactive)
    1  A    between atoms: C_1  and  C_2
    2  A    between atoms: C_2  and  C_12
    3  A    between atoms: C_2  and  N_20
    4  A    between atoms: C_4  and  C_11
    5  A    between atoms: C_4  and  C_18
    6  A    between atoms: C_7  and  N_20
                            x       y       z     vdW  Elec       q    Type
                         _______ _______ _______ _____ _____    ______ ____

>  <TORSDO>
F 6

$$$$
=
 OpenBabel11062423113D

 28 30  0  0  1  0  0  0  0  0999 V2000
  190.0270  175.0530  144.8550 C   0  0  2  0  0  3  0  0  0  0  0  0
  189.5570  174.0290  143.8140 C   0  0  2  0  0  3  0  0  0  0  0  0
  191.5790  172.2500  141.2580 O   0  0  0  0  0  0  0  0  0  0  0  0
  189.7500  172.5740  144.2580 C   0  0  0  0  0  2  0  0  0  0  0  0
  189.2410  172.5880  140.5250 O   0  0  0  0  0  0  0  0  0  0  0  0
  190.2070  174.2440  142.4540 C   0  0  1  0  0  3  0  0  0  0  0  0
  190.1960  172.6550  141.6830 S   0  0  0  0  0  0  0  0  0  0  0  0
  189.4550  175.1520  141.7070 O   0  0  0  0  0  1  0  0  0  0  0  0
  189.6290  171.6760  143.0380 C   0  0  0  0  0  2  0  0  0  0  0  0
  190.5220  174.9810  147.2800 N   0  0  0  0  0  2  0  0  0  0  0  0
  192.6960  176.2170  145.9340 C   0  0  2  0  0  3  0  0  0  0  0  0
  190.9120  174.4550  145.9680 C   0  0  2  0  0  3  0  0  0  0  0  0
  192.2070  176.6990  147.2720 C   0  0  0  0  0  3  0  0  0  0  0  0
  191.1680  176.1170  147.8730 C   0  0  0  0  0  3  0  0  0  0  0  0
  192.4010  174.7290  145.7300 C   0  0  0  0  0  2  0  0  0  0  0  0
  194.6490  177.4960  146.2770 O   0  0  0  0  0  0  0  0  0  0  0  0
  194.1570  176.5100  145.7510 C   0  0  0  0  0  0  0  0  0  0  0  0
  195.0400  175.6150  144.9300 C   0  0  0  0  0  2  0  0  0  0  0  0
  195.7930  176.3660  143.9370 N   0  0  0  0  0  1  0  0  0  0  0  0
  188.8600  175.7080  145.4310 N   0  0  0  0  0  0  0  0  0  0  0  0
  188.3420  176.9530  144.9440 C   0  0  0  0  0  0  0  0  0  0  0  0
  185.0090  176.7350  146.3500 C   0  0  0  0  0  2  0  0  0  0  0  0
  187.2230  177.4650  145.4780 C   0  0  0  0  0  3  0  0  0  0  0  0
  189.0540  177.6640  143.8330 C   0  0  0  0  0  1  0  0  0  0  0  0
  186.6530  178.7770  144.9960 C   0  0  0  0  0  2  0  0  0  0  0  0
  186.5190  176.7520  146.6000 C   0  0  0  0  0  2  0  0  0  0  0  0
  185.4710  179.2170  145.8590 C   0  0  0  0  0  2  0  0  0  0  0  0
  184.4230  178.1050  145.9640 C   0  0  0  0  0  2  0  0  0  0  0  0
  1 20  1  1  0  0  0
  2  4  1  0  0  0  0
  2  1  1  1  0  0  0
  3  7  2  0  0  0  0
  5  7  2  0  0  0  0
  6  8  1  6  0  0  0
  6  2  1  0  0  0  0
  7  6  1  0  0  0  0
  7  9  1  0  0  0  0
  9  4  1  0  0  0  0
 10 14  1  0  0  0  0
 11 17  1  1  0  0  0
 11 13  1  0  0  0  0
 12  1  1  6  0  0  0
 12 10  1  0  0  0  0
 13 14  2  0  0  0  0
 15 11  1  0  0  0  0
 15 12  1  0  0  0  0
 17 16  2  0  0  0  0
 18 17  1  0  0  0  0
 19 18  1  0  0  0  0
 21 20  2  0  0  0  0
 21 23  1  0  0  0  0
 22 26  1  0  0  0  0
 23 26  1  0  0  0  0
 24 21  1  0  0  0  0
 25 23  1  0  0  0  0
 25 27  1  0  0  0  0
 27 28  1  0  0  0  0
 28 22  1  0  0  0  0
M  END
>  <MODEL>
3

>  <REMARK>
 VINA RESULT:      -6.8      1.950      2.821
  Name = 
  6 active torsions:
  status: ('A' for Active; 'I' for Inactive)
    1  A    between atoms: C_1  and  C_2
    2  A    between atoms: C_2  and  C_12
    3  A    between atoms: C_2  and  N_20
    4  A    between atoms: C_4  and  C_11
    5  A    between atoms: C_4  and  C_18
    6  A    between atoms: C_7  and  N_20
                            x       y       z     vdW  Elec       q    Type
                         _______ _______ _______ _____ _____    ______ ____

>  <TORSDO>
F 6

$$$$
=
 OpenBabel11062423113D

 28 30  0  0  1  0  0  0  0  0999 V2000
  191.5980  175.6110  144.6850 C   0  0  2  0  0  3  0  0  0  0  0  0
  190.5940  174.5340  144.2570 C   0  0  2  0  0  3  0  0  0  0  0  0
  191.2800  171.0680  143.1150 O   0  0  0  0  0  0  0  0  0  0  0  0
  190.2290  173.5590  145.3830 C   0  0  0  0  0  2  0  0  0  0  0  0
  189.2140  171.9860  142.1130 O   0  0  0  0  0  0  0  0  0  0  0  0
  191.0610  173.7580  143.0330 C   0  0  1  0  0  3  0  0  0  0  0  0
  190.2730  172.1830  143.1600 S   0  0  0  0  0  0  0  0  0  0  0  0
  190.6510  174.4140  141.8720 O   0  0  0  0  0  1  0  0  0  0  0  0
  189.5620  172.3380  144.7680 C   0  0  0  0  0  2  0  0  0  0  0  0
  192.8290  176.1810  146.7570 N   0  0  0  0  0  2  0  0  0  0  0  0
  194.6800  175.9840  144.6120 C   0  0  2  0  0  3  0  0  0  0  0  0
  192.6110  175.1390  145.7490 C   0  0  2  0  0  3  0  0  0  0  0  0
  194.8060  177.0340  145.6820 C   0  0  0  0  0  3  0  0  0  0  0  0
  193.9090  177.1210  146.6650 C   0  0  0  0  0  3  0  0  0  0  0  0
  193.9540  174.7390  145.1280 C   0  0  0  0  0  2  0  0  0  0  0  0
  196.4670  174.5030  144.1850 O   0  0  0  0  0  0  0  0  0  0  0  0
  196.0220  175.6300  144.0370 C   0  0  0  0  0  0  0  0  0  0  0  0
  196.8400  176.6340  143.2770 C   0  0  0  0  0  2  0  0  0  0  0  0
  196.3710  176.7840  141.9080 N   0  0  0  0  0  1  0  0  0  0  0  0
  190.8650  176.7760  145.1640 N   0  0  0  0  0  2  0  0  0  0  0  0
  189.7370  177.3280  144.4730 C   0  0  0  0  0  0  0  0  0  0  0  0
  187.1510  176.3850  146.8310 C   0  0  0  0  0  2  0  0  0  0  0  0
  188.5760  177.5020  145.1240 C   0  0  0  0  0  0  0  0  0  0  0  0
  189.8640  177.6940  143.0250 C   0  0  0  0  0  1  0  0  0  0  0  0
  187.3700  178.0870  144.4320 C   0  0  0  0  0  2  0  0  0  0  0  0
  188.4570  177.1420  146.5800 C   0  0  0  0  0  2  0  0  0  0  0  0
  186.2260  178.3250  145.4180 C   0  0  0  0  0  2  0  0  0  0  0  0
  185.9110  177.0530  146.2100 C   0  0  0  0  0  2  0  0  0  0  0  0
  1 20  1  1  0  0  0
  2  1  1  1  0  0  0
  2  4  1  0  0  0  0
  3  7  2  0  0  0  0
  5  7  2  0  0  0  0
  6  8  1  6  0  0  0
  6  7  1  0  0  0  0
  6  2  1  0  0  0  0
  7  9  1  0  0  0  0
  9  4  1  0  0  0  0
 11 17  1  1  0  0  0
 11 15  1  0  0  0  0
 11 13  1  0  0  0  0
 12  1  1  6  0  0  0
 12 10  1  0  0  0  0
 13 14  2  0  0  0  0
 14 10  1  0  0  0  0
 15 12  1  0  0  0  0
 17 16  2  0  0  0  0
 18 17  1  0  0  0  0
 19 18  1  0  0  0  0
 21 23  2  0  0  0  0
 21 20  1  0  0  0  0
 23 26  1  0  0  0  0
 24 21  1  0  0  0  0
 25 23  1  0  0  0  0
 25 27  1  0  0  0  0
 26 22  1  0  0  0  0
 27 28  1  0  0  0  0
 28 22  1  0  0  0  0
M  END
>  <MODEL>
4

>  <REMARK>
 VINA RESULT:      -6.7      2.275      3.497
  Name = 
  6 active torsions:
  status: ('A' for Active; 'I' for Inactive)
    1  A    between atoms: C_1  and  C_2
    2  A    between atoms: C_2  and  C_12
    3  A    between atoms: C_2  and  N_20
    4  A    between atoms: C_4  and  C_11
    5  A    between atoms: C_4  and  C_18
    6  A    between atoms: C_7  and  N_20
                            x       y       z     vdW  Elec       q    Type
                         _______ _______ _______ _____ _____    ______ ____

>  <TORSDO>
F 6

$$$$
=
 OpenBabel11062423113D

 28 30  0  0  1  0  0  0  0  0999 V2000
  190.1420  176.0330  144.2710 C   0  0  2  0  0  3  0  0  0  0  0  0
  191.5580  176.2980  144.8000 C   0  0  2  0  0  3  0  0  0  0  0  0
  194.5850  174.1790  144.4380 O   0  0  0  0  0  0  0  0  0  0  0  0
  192.4880  176.9350  143.7600 C   0  0  0  0  0  2  0  0  0  0  0  0
  194.6290  175.5180  146.5180 O   0  0  0  0  0  0  0  0  0  0  0  0
  192.2060  175.0460  145.3750 C   0  0  1  0  0  3  0  0  0  0  0  0
  193.9440  175.3060  145.1970 S   0  0  0  0  0  0  0  0  0  0  0  0
  191.8700  174.9160  146.7230 O   0  0  0  0  0  1  0  0  0  0  0  0
  193.9220  176.7910  144.2420 C   0  0  0  0  0  2  0  0  0  0  0  0
  188.6900  176.4560  142.3120 N   0  0  0  0  0  2  0  0  0  0  0  0
  189.2650  173.6780  142.4470 C   0  0  2  0  0  3  0  0  0  0  0  0
  190.0330  176.0490  142.7330 C   0  0  2  0  0  3  0  0  0  0  0  0
  187.9100  174.1940  142.0480 C   0  0  0  0  0  3  0  0  0  0  0  0
  187.6580  175.5040  142.0160 C   0  0  0  0  0  3  0  0  0  0  0  0
  190.3710  174.6850  142.1170 C   0  0  0  0  0  2  0  0  0  0  0  0
  189.6910  171.3580  142.5270 O   0  0  0  0  0  0  0  0  0  0  0  0
  189.5450  172.3430  141.8190 C   0  0  0  0  0  0  0  0  0  0  0  0
  189.6520  172.1820  140.3310 C   0  0  0  0  0  2  0  0  0  0  0  0
  190.6590  171.1980  139.9660 N   0  0  0  0  0  1  0  0  0  0  0  0
  189.2310  177.0090  144.8540 N   0  0  0  0  0  2  0  0  0  0  0  0
  188.2120  176.6610  145.8000 C   0  0  0  0  0  0  0  0  0  0  0  0
  185.9380  179.4140  145.1790 C   0  0  0  0  0  2  0  0  0  0  0  0
  186.9980  177.2260  145.7130 C   0  0  0  0  0  0  0  0  0  0  0  0
  188.5190  175.6750  146.8870 C   0  0  0  0  0  1  0  0  0  0  0  0
  185.8990  176.8780  146.6860 C   0  0  0  0  0  2  0  0  0  0  0  0
  186.6920  178.2070  144.6140 C   0  0  0  0  0  2  0  0  0  0  0  0
  184.5770  177.5330  146.2860 C   0  0  0  0  0  2  0  0  0  0  0  0
  184.7500  179.0410  146.0840 C   0  0  0  0  0  2  0  0  0  0  0  0
  1 20  1  1  0  0  0
  2  1  1  6  0  0  0
  2  6  1  0  0  0  0
  3  7  2  0  0  0  0
  4  9  1  0  0  0  0
  4  2  1  0  0  0  0
  6  8  1  1  0  0  0
  7  6  1  0  0  0  0
  7  5  2  0  0  0  0
  9  7  1  0  0  0  0
 10 12  1  0  0  0  0
 11 17  1  6  0  0  0
 12  1  1  1  0  0  0
 13 11  1  0  0  0  0
 14 13  2  0  0  0  0
 14 10  1  0  0  0  0
 15 11  1  0  0  0  0
 15 12  1  0  0  0  0
 17 16  2  0  0  0  0
 18 17  1  0  0  0  0
 19 18  1  0  0  0  0
 20 21  1  0  0  0  0
 21 24  1  0  0  0  0
 22 28  1  0  0  0  0
 23 21  2  0  0  0  0
 23 25  1  0  0  0  0
 26 22  1  0  0  0  0
 26 23  1  0  0  0  0
 27 25  1  0  0  0  0
 28 27  1  0  0  0  0
M  END
>  <MODEL>
5

>  <REMARK>
 VINA RESULT:      -6.5      3.025      5.347
  Name = 
  6 active torsions:
  status: ('A' for Active; 'I' for Inactive)
    1  A    between atoms: C_1  and  C_2
    2  A    between atoms: C_2  and  C_12
    3  A    between atoms: C_2  and  N_20
    4  A    between atoms: C_4  and  C_11
    5  A    between atoms: C_4  and  C_18
    6  A    between atoms: C_7  and  N_20
                            x       y       z     vdW  Elec       q    Type
                         _______ _______ _______ _____ _____    ______ ____

>  <TORSDO>
F 6

$$$$
=
 OpenBabel11062423113D

 28 30  0  0  1  0  0  0  0  0999 V2000
  189.7740  175.3610  144.0000 C   0  0  2  0  0  3  0  0  0  0  0  0
  191.2700  175.3600  144.3400 C   0  0  2  0  0  3  0  0  0  0  0  0
  192.9630  176.8520  147.2880 O   0  0  0  0  0  0  0  0  0  0  0  0
  191.6760  174.2360  145.3000 C   0  0  0  0  0  2  0  0  0  0  0  0
  194.4290  176.8090  145.2960 O   0  0  0  0  0  0  0  0  0  0  0  0
  191.7420  176.7010  144.8850 C   0  0  1  0  0  3  0  0  0  0  0  0
  193.1400  176.3190  145.8940 S   0  0  0  0  0  0  0  0  0  0  0  0
  192.1170  177.5350  143.8310 O   0  0  0  0  0  1  0  0  0  0  0  0
  193.0500  174.5570  145.8660 C   0  0  0  0  0  2  0  0  0  0  0  0
  188.0380  175.1780  142.2440 N   0  0  0  0  0  2  0  0  0  0  0  0
  189.6840  172.8660  142.1520 C   0  0  2  0  0  3  0  0  0  0  0  0
  189.4740  175.3430  142.4870 C   0  0  2  0  0  3  0  0  0  0  0  0
  188.1970  172.7960  141.9400 C   0  0  0  0  0  3  0  0  0  0  0  0
  187.4420  173.8940  142.0130 C   0  0  0  0  0  3  0  0  0  0  0  0
  190.2450  174.2350  141.7590 C   0  0  0  0  0  2  0  0  0  0  0  0
  190.2140  171.6170  140.2220 O   0  0  0  0  0  0  0  0  0  0  0  0
  190.3910  171.7610  141.4210 C   0  0  0  0  0  0  0  0  0  0  0  0
  191.3190  170.8190  142.1310 C   0  0  0  0  0  2  0  0  0  0  0  0
  191.4690  171.1660  143.5350 N   0  0  0  0  0  1  0  0  0  0  0  0
  189.1480  176.5170  144.6280 N   0  0  0  0  0  2  0  0  0  0  0  0
  188.2010  176.4090  145.6980 C   0  0  0  0  0  0  0  0  0  0  0  0
  185.9800  179.1020  144.7220 C   0  0  0  0  0  2  0  0  0  0  0  0
  187.0050  177.0070  145.5930 C   0  0  0  0  0  0  0  0  0  0  0  0
  188.5640  175.6370  146.9300 C   0  0  0  0  0  1  0  0  0  0  0  0
  185.9790  176.9090  146.6960 C   0  0  0  0  0  2  0  0  0  0  0  0
  186.6420  177.7730  144.3500 C   0  0  0  0  0  2  0  0  0  0  0  0
  184.6520  177.5410  146.2770 C   0  0  0  0  0  2  0  0  0  0  0  0
  184.8600  178.9710  145.7700 C   0  0  0  0  0  2  0  0  0  0  0  0
  1 20  1  6  0  0  0
  2  1  1  1  0  0  0
  2  6  1  0  0  0  0
  2  4  1  0  0  0  0
  4  9  1  0  0  0  0
  5  7  2  0  0  0  0
  6  8  1  6  0  0  0
  6  7  1  0  0  0  0
  7  3  2  0  0  0  0
  9  7  1  0  0  0  0
 10 12  1  0  0  0  0
 11 17  1  6  0  0  0
 12  1  1  1  0  0  0
 13 14  2  0  0  0  0
 13 11  1  0  0  0  0
 14 10  1  0  0  0  0
 15 11  1  0  0  0  0
 15 12  1  0  0  0  0
 16 17  2  0  0  0  0
 17 18  1  0  0  0  0
 18 19  1  0  0  0  0
 20 21  1  0  0  0  0
 21 24  1  0  0  0  0
 22 28  1  0  0  0  0
 23 21  2  0  0  0  0
 23 25  1  0  0  0  0
 26 22  1  0  0  0  0
 26 23  1  0  0  0  0
 27 25  1  0  0  0  0
 28 27  1  0  0  0  0
M  END
>  <MODEL>
6

>  <REMARK>
 VINA RESULT:      -6.5      3.053      5.278
  Name = 
  6 active torsions:
  status: ('A' for Active; 'I' for Inactive)
    1  A    between atoms: C_1  and  C_2
    2  A    between atoms: C_2  and  C_12
    3  A    between atoms: C_2  and  N_20
    4  A    between atoms: C_4  and  C_11
    5  A    between atoms: C_4  and  C_18
    6  A    between atoms: C_7  and  N_20
                            x       y       z     vdW  Elec       q    Type
                         _______ _______ _______ _____ _____    ______ ____

>  <TORSDO>
F 6

$$$$
=
 OpenBabel11062423113D

 28 30  0  0  1  0  0  0  0  0999 V2000
  190.4730  175.1610  144.9660 C   0  0  2  0  0  3  0  0  0  0  0  0
  190.6130  174.3100  143.6980 C   0  0  2  0  0  3  0  0  0  0  0  0
  187.9230  172.9570  141.5250 O   0  0  0  0  0  0  0  0  0  0  0  0
  190.5600  175.1310  142.4030 C   0  0  0  0  0  2  0  0  0  0  0  0
  189.9380  171.5220  141.5140 O   0  0  0  0  0  0  0  0  0  0  0  0
  189.5880  173.1860  143.6380 C   0  0  1  0  0  3  0  0  0  0  0  0
  189.3700  172.8540  141.9170 S   0  0  0  0  0  0  0  0  0  0  0  0
  190.0850  172.0570  144.2910 O   0  0  0  0  0  1  0  0  0  0  0  0
  190.3130  174.1840  141.2400 C   0  0  0  0  0  2  0  0  0  0  0  0
  191.1460  175.5270  147.3200 N   0  0  0  0  0  2  0  0  0  0  0  0
  193.4450  175.7280  145.6660 C   0  0  2  0  0  3  0  0  0  0  0  0
  191.2570  174.6160  146.1780 C   0  0  2  0  0  3  0  0  0  0  0  0
  193.2300  176.6330  146.8470 C   0  0  0  0  0  3  0  0  0  0  0  0
  192.1300  176.5350  147.5940 C   0  0  0  0  0  3  0  0  0  0  0  0
  192.7360  174.3830  145.8500 C   0  0  0  0  0  2  0  0  0  0  0  0
  195.5800  174.8350  146.1300 O   0  0  0  0  0  0  0  0  0  0  0  0
  194.9090  175.5340  145.3880 C   0  0  0  0  0  0  0  0  0  0  0  0
  195.5760  176.1840  144.2100 C   0  0  0  0  0  2  0  0  0  0  0  0
  194.8360  175.9560  142.9790 N   0  0  0  0  0  1  0  0  0  0  0  0
  189.0600  175.2930  145.2930 N   0  0  0  0  0  2  0  0  0  0  0  0
  188.3930  176.5580  145.3860 C   0  0  0  0  0  0  0  0  0  0  0  0
  187.2560  176.8210  141.9550 C   0  0  0  0  0  2  0  0  0  0  0  0
  187.5340  176.9330  144.4260 C   0  0  0  0  0  0  0  0  0  0  0  0
  188.6730  177.4560  146.5540 C   0  0  0  0  0  1  0  0  0  0  0  0
  186.8080  178.2540  144.4940 C   0  0  0  0  0  2  0  0  0  0  0  0
  187.2490  176.0240  143.2610 C   0  0  0  0  0  2  0  0  0  0  0  0
  185.7800  178.3800  143.3710 C   0  0  0  0  0  2  0  0  0  0  0  0
  186.4220  178.1130  142.0060 C   0  0  0  0  0  2  0  0  0  0  0  0
  1 20  1  1  0  0  0
  2  1  1  1  0  0  0
  3  7  2  0  0  0  0
  4  2  1  0  0  0  0
  5  7  2  0  0  0  0
  6  2  1  0  0  0  0
  6  8  1  1  0  0  0
  7  6  1  0  0  0  0
  9  7  1  0  0  0  0
  9  4  1  0  0  0  0
 10 14  1  0  0  0  0
 11 17  1  1  0  0  0
 11 15  1  0  0  0  0
 11 13  1  0  0  0  0
 12  1  1  6  0  0  0
 12 10  1  0  0  0  0
 13 14  2  0  0  0  0
 15 12  1  0  0  0  0
 17 16  2  0  0  0  0
 18 17  1  0  0  0  0
 19 18  1  0  0  0  0
 20 21  1  0  0  0  0
 21 24  1  0  0  0  0
 22 28  1  0  0  0  0
 22 26  1  0  0  0  0
 23 25  1  0  0  0  0
 23 21  2  0  0  0  0
 26 23  1  0  0  0  0
 27 25  1  0  0  0  0
 28 27  1  0  0  0  0
M  END
>  <MODEL>
7

>  <REMARK>
 VINA RESULT:      -6.2      2.164      2.849
  Name = 
  6 active torsions:
  status: ('A' for Active; 'I' for Inactive)
    1  A    between atoms: C_1  and  C_2
    2  A    between atoms: C_2  and  C_12
    3  A    between atoms: C_2  and  N_20
    4  A    between atoms: C_4  and  C_11
    5  A    between atoms: C_4  and  C_18
    6  A    between atoms: C_7  and  N_20
                            x       y       z     vdW  Elec       q    Type
                         _______ _______ _______ _____ _____    ______ ____

>  <TORSDO>
F 6

$$$$
=
 OpenBabel11062423113D

 28 30  0  0  1  0  0  0  0  0999 V2000
  188.9400  174.5480  143.1390 C   0  0  2  0  0  3  0  0  0  0  0  0
  189.0860  173.2620  142.3160 C   0  0  2  0  0  3  0  0  0  0  0  0
  192.1340  171.9010  140.6910 O   0  0  0  0  0  0  0  0  0  0  0  0
  189.5930  172.0680  143.1340 C   0  0  0  0  0  2  0  0  0  0  0  0
  190.0720  171.2600  139.4850 O   0  0  0  0  0  0  0  0  0  0  0  0
  189.9630  173.4560  141.0870 C   0  0  1  0  0  3  0  0  0  0  0  0
  190.6330  171.8580  140.7450 S   0  0  0  0  0  0  0  0  0  0  0  0
  189.1860  173.8960  140.0150 O   0  0  0  0  0  1  0  0  0  0  0  0
  190.0670  170.9900  142.1730 C   0  0  0  0  0  2  0  0  0  0  0  0
  189.0790  176.8850  142.3350 N   0  0  0  0  0  0  0  0  0  0  0  0
  187.1240  176.7350  144.3900 C   0  0  2  0  0  3  0  0  0  0  0  0
  188.2270  175.6940  142.3920 C   0  0  2  0  0  3  0  0  0  0  0  0
  188.0600  177.9050  144.2620 C   0  0  0  0  0  2  0  0  0  0  0  0
  188.9860  177.9400  143.3030 C   0  0  0  0  0  3  0  0  0  0  0  0
  186.8850  176.0560  143.0380 C   0  0  0  0  0  2  0  0  0  0  0  0
  185.5740  176.7870  146.1690 O   0  0  0  0  0  0  0  0  0  0  0  0
  185.8270  177.1430  145.0280 C   0  0  0  0  0  0  0  0  0  0  0  0
  184.8220  177.9840  144.2960 C   0  0  0  0  0  2  0  0  0  0  0  0
  184.7300  179.3230  144.8560 N   0  0  0  0  0  1  0  0  0  0  0  0
  190.2600  174.9760  143.5840 N   0  0  0  0  0  0  0  0  0  0  0  0
  190.6180  175.0970  144.9670 C   0  0  0  0  0  0  0  0  0  0  0  0
  194.1230  175.9140  144.5440 C   0  0  0  0  0  2  0  0  0  0  0  0
  191.7640  175.7050  145.3080 C   0  0  0  0  0  3  0  0  0  0  0  0
  189.7100  174.5310  146.0170 C   0  0  0  0  0  1  0  0  0  0  0  0
  192.1700  175.8580  146.7540 C   0  0  0  0  0  2  0  0  0  0  0  0
  192.6670  176.2800  144.2510 C   0  0  0  0  0  2  0  0  0  0  0  0
  193.4300  176.7130  146.8880 C   0  0  0  0  0  2  0  0  0  0  0  0
  194.5540  176.1770  145.9980 C   0  0  0  0  0  2  0  0  0  0  0  0
  1 20  1  6  0  0  0
  2  4  1  0  0  0  0
  2  1  1  1  0  0  0
  3  7  2  0  0  0  0
  5  7  2  0  0  0  0
  6  8  1  6  0  0  0
  6  2  1  0  0  0  0
  7  6  1  0  0  0  0
  7  9  1  0  0  0  0
  9  4  1  0  0  0  0
 10 12  1  0  0  0  0
 10 14  2  0  0  0  0
 11 17  1  6  0  0  0
 12 15  1  0  0  0  0
 12  1  1  1  0  0  0
 13 11  1  0  0  0  0
 14 13  1  0  0  0  0
 15 11  1  0  0  0  0
 17 16  2  0  0  0  0
 18 19  1  0  0  0  0
 18 17  1  0  0  0  0
 20 21  2  0  0  0  0
 21 23  1  0  0  0  0
 21 24  1  0  0  0  0
 22 28  1  0  0  0  0
 23 25  1  0  0  0  0
 25 27  1  0  0  0  0
 26 22  1  0  0  0  0
 26 23  1  0  0  0  0
 28 27  1  0  0  0  0
M  END
>  <MODEL>
8

>  <REMARK>
 VINA RESULT:      -6.2      2.956      6.673
  Name = 
  6 active torsions:
  status: ('A' for Active; 'I' for Inactive)
    1  A    between atoms: C_1  and  C_2
    2  A    between atoms: C_2  and  C_12
    3  A    between atoms: C_2  and  N_20
    4  A    between atoms: C_4  and  C_11
    5  A    between atoms: C_4  and  C_18
    6  A    between atoms: C_7  and  N_20
                            x       y       z     vdW  Elec       q    Type
                         _______ _______ _______ _____ _____    ______ ____

>  <TORSDO>
F 6

$$$$
=
 OpenBabel11062423113D

 28 30  0  0  1  0  0  0  0  0999 V2000
  190.8310  175.4590  144.4850 C   0  0  2  0  0  3  0  0  0  0  0  0
  189.8080  174.4130  144.0230 C   0  0  2  0  0  3  0  0  0  0  0  0
  190.0830  172.0090  141.2070 O   0  0  0  0  0  0  0  0  0  0  0  0
  190.0690  173.0130  144.5900 C   0  0  0  0  0  2  0  0  0  0  0  0
  187.7380  172.6580  141.6520 O   0  0  0  0  0  0  0  0  0  0  0  0
  189.6940  174.3440  142.5070 C   0  0  1  0  0  3  0  0  0  0  0  0
  189.1510  172.6990  142.1630 S   0  0  0  0  0  0  0  0  0  0  0  0
  188.7510  175.2700  142.0600 O   0  0  0  0  0  1  0  0  0  0  0  0
  189.2660  172.0070  143.7820 C   0  0  0  0  0  2  0  0  0  0  0  0
  192.3600  175.7130  146.4150 N   0  0  0  0  0  2  0  0  0  0  0  0
  193.8410  176.0650  144.0180 C   0  0  2  0  0  3  0  0  0  0  0  0
  192.0240  174.8690  145.2650 C   0  0  2  0  0  3  0  0  0  0  0  0
  194.0960  176.8980  145.2440 C   0  0  0  0  0  3  0  0  0  0  0  0
  193.3700  176.7300  146.3500 C   0  0  0  0  0  3  0  0  0  0  0  0
  193.2630  174.6940  144.3790 C   0  0  0  0  0  2  0  0  0  0  0  0
  195.0020  175.9380  141.9670 O   0  0  0  0  0  0  0  0  0  0  0  0
  195.0840  175.9270  143.1860 C   0  0  0  0  0  0  0  0  0  0  0  0
  196.4370  175.7740  143.8170 C   0  0  0  0  0  2  0  0  0  0  0  0
  197.4420  176.5770  143.1370 N   0  0  0  0  0  1  0  0  0  0  0  0
  190.1480  176.4650  145.2870 N   0  0  0  0  0  2  0  0  0  0  0  0
  188.9740  176.1840  146.0610 C   0  0  0  0  0  0  0  0  0  0  0  0
  186.8190  178.7750  144.7290 C   0  0  0  0  0  2  0  0  0  0  0  0
  187.7910  176.6950  145.6880 C   0  0  0  0  0  0  0  0  0  0  0  0
  189.0870  175.3300  147.2880 C   0  0  0  0  0  1  0  0  0  0  0  0
  186.5340  176.4140  146.4740 C   0  0  0  0  0  2  0  0  0  0  0  0
  187.6830  177.5430  144.4500 C   0  0  0  0  0  2  0  0  0  0  0  0
  185.3010  176.9770  145.7670 C   0  0  0  0  0  2  0  0  0  0  0  0
  185.4880  178.4600  145.4350 C   0  0  0  0  0  2  0  0  0  0  0  0
  1 20  1  1  0  0  0
  2  1  1  6  0  0  0
  2  4  1  0  0  0  0
  3  7  2  0  0  0  0
  5  7  2  0  0  0  0
  6  8  1  1  0  0  0
  6  2  1  0  0  0  0
  7  6  1  0  0  0  0
  7  9  1  0  0  0  0
  9  4  1  0  0  0  0
 11 17  1  1  0  0  0
 11 15  1  0  0  0  0
 11 13  1  0  0  0  0
 12  1  1  6  0  0  0
 12 10  1  0  0  0  0
 13 14  2  0  0  0  0
 14 10  1  0  0  0  0
 15 12  1  0  0  0  0
 16 17  2  0  0  0  0
 17 18  1  0  0  0  0
 19 18  1  0  0  0  0
 20 21  1  0  0  0  0
 21 24  1  0  0  0  0
 22 28  1  0  0  0  0
 23 21  2  0  0  0  0
 23 25  1  0  0  0  0
 26 22  1  0  0  0  0
 26 23  1  0  0  0  0
 27 25  1  0  0  0  0
 28 27  1  0  0  0  0
M  END
>  <MODEL>
9

>  <REMARK>
 VINA RESULT:      -6.1      1.989      2.884
  Name = 
  6 active torsions:
  status: ('A' for Active; 'I' for Inactive)
    1  A    between atoms: C_1  and  C_2
    2  A    between atoms: C_2  and  C_12
    3  A    between atoms: C_2  and  N_20
    4  A    between atoms: C_4  and  C_11
    5  A    between atoms: C_4  and  C_18
    6  A    between atoms: C_7  and  N_20
                            x       y       z     vdW  Elec       q    Type
                         _______ _______ _______ _____ _____    ______ ____

>  <TORSDO>
F 6

$$$$
