=
 OpenBabel11062420173D

 25 29  0  0  0  0  0  0  0  0999 V2000
  185.6120  178.1350  144.6170 C   0  0  0  0  0  0  0  0  0  0  0  0
  186.6000  178.2350  147.2280 N   0  0  0  0  0  0  0  0  0  0  0  0
  190.2260  174.7600  145.7930 C   0  0  0  0  0  3  0  0  0  0  0  0
  185.1340  178.1700  143.2150 C   0  0  0  0  0  0  0  0  0  0  0  0
  183.2270  178.2910  141.7090 C   0  0  0  0  0  0  0  0  0  0  0  0
  190.1410  175.3490  147.0750 C   0  0  0  0  0  3  0  0  0  0  0  0
  186.6260  177.2820  145.0410 C   0  0  0  0  0  0  0  0  0  0  0  0
  184.0860  178.3250  140.6100 C   0  0  0  0  0  3  0  0  0  0  0  0
  188.1610  176.4990  146.3980 C   0  0  0  0  0  0  0  0  0  0  0  0
  185.0870  178.9880  145.5490 N   0  0  0  0  0  0  0  0  0  0  0  0
  186.0090  178.2010  142.0950 C   0  0  0  0  0  0  0  0  0  0  0  0
  189.3620  174.2990  143.1750 S   0  0  0  0  0  0  0  0  0  0  0  0
  181.8860  178.3330  141.5210 F   0  0  0  0  0  0  0  0  0  0  0  0
  188.2340  175.9200  145.1460 C   0  0  0  0  0  0  0  0  0  0  0  0
  188.2310  176.2330  141.6380 C   0  0  0  0  0  2  0  0  0  0  0  0
  185.4680  178.2910  140.8040 C   0  0  0  0  0  3  0  0  0  0  0  0
  189.2600  175.0410  144.8080 C   0  0  0  0  0  0  0  0  0  0  0  0
  187.5070  178.2710  142.2550 C   0  0  0  0  0  2  0  0  0  0  0  0
  185.5660  179.0410  146.8340 C   0  0  0  0  0  3  0  0  0  0  0  0
  183.7490  178.2240  143.0010 C   0  0  0  0  0  3  0  0  0  0  0  0
  189.0980  176.2410  147.3930 C   0  0  0  0  0  3  0  0  0  0  0  0
  187.1020  177.3670  146.3200 C   0  0  0  0  0  0  0  0  0  0  0  0
  187.2890  176.3810  144.3520 O   0  0  0  0  0  0  0  0  0  0  0  0
  189.5540  175.8910  142.3070 C   0  0  0  0  0  2  0  0  0  0  0  0
  188.1910  177.5770  141.2410 O   0  0  0  0  0  0  0  0  0  0  0  0
  1  7  2  0  0  0  0
  1 10  1  0  0  0  0
  3  6  1  0  0  0  0
  4  1  1  0  0  0  0
  5 20  2  0  0  0  0
  6 21  2  0  0  0  0
  7 22  1  0  0  0  0
  8 16  2  0  0  0  0
  8  5  1  0  0  0  0
  9 21  1  0  0  0  0
 10 19  2  0  0  0  0
 11 18  1  0  0  0  0
 11  4  2  0  0  0  0
 12 17  1  0  0  0  0
 13  5  1  0  0  0  0
 14  9  2  0  0  0  0
 15 24  1  0  0  0  0
 16 11  1  0  0  0  0
 17 14  1  0  0  0  0
 17  3  2  0  0  0  0
 19  2  1  0  0  0  0
 20  4  1  0  0  0  0
 22  9  1  0  0  0  0
 22  2  2  0  0  0  0
 23  7  1  0  0  0  0
 23 14  1  0  0  0  0
 24 12  1  0  0  0  0
 25 15  1  0  0  0  0
 25 18  1  0  0  0  0
M  END
>  <MODEL>
1

>  <REMARK>
 VINA RESULT:      -8.6      0.000      0.000
  Name = 
  0 active torsions:
  status: ('A' for Active; 'I' for Inactive)
                            x       y       z     vdW  Elec       q    Type
                         _______ _______ _______ _____ _____    ______ ____

>  <TORSDO>
F 0

$$$$
=
 OpenBabel11062420173D

 25 29  0  0  0  0  0  0  0  0999 V2000
  187.2220  176.5080  141.5410 C   0  0  0  0  0  0  0  0  0  0  0  0
  184.9860  178.1720  141.3370 N   0  0  0  0  0  0  0  0  0  0  0  0
  184.7890  178.2380  146.5570 C   0  0  0  0  0  3  0  0  0  0  0  0
  188.4640  175.7060  141.6280 C   0  0  0  0  0  0  0  0  0  0  0  0
  189.7880  173.8820  140.7110 C   0  0  0  0  0  0  0  0  0  0  0  0
  183.9200  178.9640  145.7110 C   0  0  0  0  0  3  0  0  0  0  0  0
  186.4890  176.8770  142.6640 C   0  0  0  0  0  0  0  0  0  0  0  0
  190.8090  174.1530  141.6220 C   0  0  0  0  0  3  0  0  0  0  0  0
  184.9790  177.9840  143.8080 C   0  0  0  0  0  0  0  0  0  0  0  0
  186.7690  176.9530  140.3290 N   0  0  0  0  0  0  0  0  0  0  0  0
  189.5030  175.9790  142.5590 C   0  0  0  0  0  0  0  0  0  0  0  0
  186.8680  176.4460  147.0840 S   0  0  0  0  0  0  0  0  0  0  0  0
  189.9260  172.8700  139.8210 F   0  0  0  0  0  0  0  0  0  0  0  0
  185.8260  177.2660  144.6300 C   0  0  0  0  0  0  0  0  0  0  0  0
  189.0820  176.2600  145.5200 C   0  0  0  0  0  2  0  0  0  0  0  0
  190.6700  175.2020  142.5330 C   0  0  0  0  0  3  0  0  0  0  0  0
  185.7570  177.3700  146.0170 C   0  0  0  0  0  0  0  0  0  0  0  0
  189.4470  177.1630  143.4930 C   0  0  0  0  0  2  0  0  0  0  0  0
  185.6700  177.7690  140.2220 C   0  0  0  0  0  3  0  0  0  0  0  0
  188.6290  174.6600  140.7090 C   0  0  0  0  0  3  0  0  0  0  0  0
  184.0120  178.8480  144.3100 C   0  0  0  0  0  3  0  0  0  0  0  0
  185.4110  177.7080  142.5350 C   0  0  0  0  0  0  0  0  0  0  0  0
  186.7080  176.5860  143.9270 O   0  0  0  0  0  0  0  0  0  0  0  0
  188.3780  177.2430  146.4440 C   0  0  0  0  0  2  0  0  0  0  0  0
  190.0510  176.9000  144.7360 O   0  0  0  0  0  0  0  0  0  0  0  0
  1  4  1  0  0  0  0
  1  7  1  0  0  0  0
  2 22  1  0  0  0  0
  4 11  1  0  0  0  0
  5  8  2  0  0  0  0
  6  3  2  0  0  0  0
  7 23  1  0  0  0  0
  8 16  1  0  0  0  0
  9 21  2  0  0  0  0
  9 14  1  0  0  0  0
 10  1  2  0  0  0  0
 11 18  1  0  0  0  0
 13  5  1  0  0  0  0
 14 17  2  0  0  0  0
 15 24  1  0  0  0  0
 16 11  2  0  0  0  0
 17  3  1  0  0  0  0
 17 12  1  0  0  0  0
 18 25  1  0  0  0  0
 19 10  1  0  0  0  0
 19  2  2  0  0  0  0
 20  5  1  0  0  0  0
 20  4  2  0  0  0  0
 21  6  1  0  0  0  0
 22  7  2  0  0  0  0
 22  9  1  0  0  0  0
 23 14  1  0  0  0  0
 24 12  1  0  0  0  0
 25 15  1  0  0  0  0
M  END
>  <MODEL>
2

>  <REMARK>
 VINA RESULT:      -8.6      3.001      5.540
  Name = 
  0 active torsions:
  status: ('A' for Active; 'I' for Inactive)
                            x       y       z     vdW  Elec       q    Type
                         _______ _______ _______ _____ _____    ______ ____

>  <TORSDO>
F 0

$$$$
=
 OpenBabel11062420173D

 25 29  0  0  0  0  0  0  0  0999 V2000
  188.8130  176.8870  146.2100 C   0  0  0  0  0  0  0  0  0  0  0  0
  191.3400  175.8110  146.7240 N   0  0  0  0  0  0  0  0  0  0  0  0
  190.7990  172.9510  142.3850 C   0  0  0  0  0  3  0  0  0  0  0  0
  187.5200  177.5410  145.9050 C   0  0  0  0  0  0  0  0  0  0  0  0
  185.4280  178.4360  146.7670 C   0  0  0  0  0  0  0  0  0  0  0  0
  191.9530  172.9600  143.2030 C   0  0  0  0  0  3  0  0  0  0  0  0
  189.3300  175.8520  145.4370 C   0  0  0  0  0  0  0  0  0  0  0  0
  185.0670  178.8510  145.4850 C   0  0  0  0  0  3  0  0  0  0  0  0
  190.8530  174.4500  144.7110 C   0  0  0  0  0  0  0  0  0  0  0  0
  189.5750  177.3170  147.2630 N   0  0  0  0  0  0  0  0  0  0  0  0
  187.1490  177.9600  144.5970 C   0  0  0  0  0  0  0  0  0  0  0  0
  188.1910  173.6930  141.7090 S   0  0  0  0  0  0  0  0  0  0  0  0
  184.5970  178.6660  147.8110 F   0  0  0  0  0  0  0  0  0  0  0  0
  189.7200  174.4390  143.9200 C   0  0  0  0  0  0  0  0  0  0  0  0
  187.2000  176.1780  142.1800 C   0  0  0  0  0  2  0  0  0  0  0  0
  185.9280  178.6220  144.4100 C   0  0  0  0  0  3  0  0  0  0  0  0
  189.6600  173.6950  142.7440 C   0  0  0  0  0  0  0  0  0  0  0  0
  188.0870  177.8290  143.4220 C   0  0  0  0  0  2  0  0  0  0  0  0
  190.8160  176.7910  147.5210 C   0  0  0  0  0  3  0  0  0  0  0  0
  186.6510  177.7960  146.9750 C   0  0  0  0  0  3  0  0  0  0  0  0
  191.9940  173.7240  144.3860 C   0  0  0  0  0  3  0  0  0  0  0  0
  190.5780  175.3590  145.7010 C   0  0  0  0  0  0  0  0  0  0  0  0
  188.8060  175.2650  144.3850 O   0  0  0  0  0  0  0  0  0  0  0  0
  188.2660  175.4780  141.3490 C   0  0  0  0  0  2  0  0  0  0  0  0
  187.4100  177.5630  142.2180 O   0  0  0  0  0  0  0  0  0  0  0  0
  1 10  1  0  0  0  0
  2 19  1  0  0  0  0
  3 17  2  0  0  0  0
  3  6  1  0  0  0  0
  4  1  1  0  0  0  0
  4 20  1  0  0  0  0
  5 20  2  0  0  0  0
  5 13  1  0  0  0  0
  6 21  2  0  0  0  0
  7 22  1  0  0  0  0
  7  1  2  0  0  0  0
  8  5  1  0  0  0  0
  9 22  1  0  0  0  0
 10 19  2  0  0  0  0
 11  4  2  0  0  0  0
 12 17  1  0  0  0  0
 14 23  1  0  0  0  0
 14  9  2  0  0  0  0
 15 25  1  0  0  0  0
 16 11  1  0  0  0  0
 16  8  2  0  0  0  0
 17 14  1  0  0  0  0
 18 11  1  0  0  0  0
 21  9  1  0  0  0  0
 22  2  2  0  0  0  0
 23  7  1  0  0  0  0
 24 12  1  0  0  0  0
 24 15  1  0  0  0  0
 25 18  1  0  0  0  0
M  END
>  <MODEL>
3

>  <REMARK>
 VINA RESULT:      -8.2      2.545      3.967
  Name = 
  0 active torsions:
  status: ('A' for Active; 'I' for Inactive)
                            x       y       z     vdW  Elec       q    Type
                         _______ _______ _______ _____ _____    ______ ____

>  <TORSDO>
F 0

$$$$
=
 OpenBabel11062420173D

 25 29  0  0  0  0  0  0  0  0999 V2000
  189.6690  175.2450  145.1710 C   0  0  0  0  0  0  0  0  0  0  0  0
  188.0790  175.4440  147.4590 N   0  0  0  0  0  0  0  0  0  0  0  0
  184.8530  178.5120  144.7250 C   0  0  0  0  0  3  0  0  0  0  0  0
  190.4740  175.0470  143.9430 C   0  0  0  0  0  0  0  0  0  0  0  0
  192.6910  174.8220  142.9660 C   0  0  0  0  0  0  0  0  0  0  0  0
  184.6340  178.1040  146.0610 C   0  0  0  0  0  3  0  0  0  0  0  0
  188.5690  176.0950  145.2160 C   0  0  0  0  0  0  0  0  0  0  0  0
  192.1250  174.5980  141.7100 C   0  0  0  0  0  3  0  0  0  0  0  0
  186.7380  176.9740  146.0440 C   0  0  0  0  0  0  0  0  0  0  0  0
  189.9660  174.5500  146.3120 N   0  0  0  0  0  0  0  0  0  0  0  0
  189.8970  174.8230  142.6620 C   0  0  0  0  0  0  0  0  0  0  0  0
  186.3190  178.6630  142.3510 S   0  0  0  0  0  0  0  0  0  0  0  0
  194.0370  174.8220  143.1110 F   0  0  0  0  0  0  0  0  0  0  0  0
  186.9620  177.3770  144.7420 C   0  0  0  0  0  0  0  0  0  0  0  0
  187.8210  176.6000  141.4160 C   0  0  0  0  0  2  0  0  0  0  0  0
  190.7370  174.5900  141.5640 C   0  0  0  0  0  3  0  0  0  0  0  0
  186.0340  178.1510  144.0490 C   0  0  0  0  0  0  0  0  0  0  0  0
  188.4060  174.7010  142.4690 C   0  0  0  0  0  2  0  0  0  0  0  0
  189.1900  174.6460  147.4400 C   0  0  0  0  0  3  0  0  0  0  0  0
  191.8690  175.0340  144.0740 C   0  0  0  0  0  3  0  0  0  0  0  0
  185.5830  177.3150  146.7410 C   0  0  0  0  0  3  0  0  0  0  0  0
  187.7980  176.1570  146.3440 C   0  0  0  0  0  0  0  0  0  0  0  0
  188.0780  176.8620  144.2690 O   0  0  0  0  0  0  0  0  0  0  0  0
  186.3690  176.9620  141.6960 C   0  0  0  0  0  2  0  0  0  0  0  0
  187.9770  175.2190  141.2340 O   0  0  0  0  0  0  0  0  0  0  0  0
  1  7  2  0  0  0  0
  1 10  1  0  0  0  0
  3  6  1  0  0  0  0
  4 20  1  0  0  0  0
  4  1  1  0  0  0  0
  5 13  1  0  0  0  0
  5 20  2  0  0  0  0
  6 21  2  0  0  0  0
  7 22  1  0  0  0  0
  8  5  1  0  0  0  0
  9 22  1  0  0  0  0
  9 21  1  0  0  0  0
 10 19  2  0  0  0  0
 11  4  2  0  0  0  0
 12 17  1  0  0  0  0
 14  9  2  0  0  0  0
 15 24  1  0  0  0  0
 16  8  2  0  0  0  0
 16 11  1  0  0  0  0
 17  3  2  0  0  0  0
 17 14  1  0  0  0  0
 18 11  1  0  0  0  0
 19  2  1  0  0  0  0
 22  2  2  0  0  0  0
 23 14  1  0  0  0  0
 23  7  1  0  0  0  0
 24 12  1  0  0  0  0
 25 15  1  0  0  0  0
 25 18  1  0  0  0  0
M  END
>  <MODEL>
4

>  <REMARK>
 VINA RESULT:      -8.0      3.350      5.778
  Name = 
  0 active torsions:
  status: ('A' for Active; 'I' for Inactive)
                            x       y       z     vdW  Elec       q    Type
                         _______ _______ _______ _____ _____    ______ ____

>  <TORSDO>
F 0

$$$$
=
 OpenBabel11062420173D

 25 29  0  0  0  0  0  0  0  0999 V2000
  188.0530  175.6080  142.3930 C   0  0  0  0  0  0  0  0  0  0  0  0
  186.2750  177.2440  140.9900 N   0  0  0  0  0  0  0  0  0  0  0  0
  184.2870  178.7150  145.5920 C   0  0  0  0  0  3  0  0  0  0  0  0
  189.0670  174.8100  143.1200 C   0  0  0  0  0  0  0  0  0  0  0  0
  190.3680  172.7560  143.2150 C   0  0  0  0  0  0  0  0  0  0  0  0
  183.8720  179.2220  144.3380 C   0  0  0  0  0  3  0  0  0  0  0  0
  187.0330  176.2940  143.0440 C   0  0  0  0  0  0  0  0  0  0  0  0
  191.0360  173.2200  144.3480 C   0  0  0  0  0  3  0  0  0  0  0  0
  185.3840  177.7260  143.2510 C   0  0  0  0  0  0  0  0  0  0  0  0
  188.1140  175.7300  141.0310 N   0  0  0  0  0  0  0  0  0  0  0  0
  189.7450  175.2810  144.2780 C   0  0  0  0  0  0  0  0  0  0  0  0
  185.7900  177.0480  147.2570 S   0  0  0  0  0  0  0  0  0  0  0  0
  190.6690  171.5380  142.7040 F   0  0  0  0  0  0  0  0  0  0  0  0
  185.7870  177.2210  144.4720 C   0  0  0  0  0  0  0  0  0  0  0  0
  188.3630  176.3620  146.7160 C   0  0  0  0  0  2  0  0  0  0  0  0
  190.7310  174.4790  144.8690 C   0  0  0  0  0  3  0  0  0  0  0  0
  185.2550  177.6960  145.6690 C   0  0  0  0  0  0  0  0  0  0  0  0
  189.5280  176.6740  144.8170 C   0  0  0  0  0  2  0  0  0  0  0  0
  187.2420  176.5310  140.3360 C   0  0  0  0  0  3  0  0  0  0  0  0
  189.3990  173.5510  142.6000 C   0  0  0  0  0  3  0  0  0  0  0  0
  184.4280  178.7310  143.1410 C   0  0  0  0  0  3  0  0  0  0  0  0
  186.1900  177.1020  142.3330 C   0  0  0  0  0  0  0  0  0  0  0  0
  186.7580  176.3430  144.3280 O   0  0  0  0  0  0  0  0  0  0  0  0
  187.5210  177.5840  147.0540 C   0  0  0  0  0  2  0  0  0  0  0  0
  189.6210  176.7290  146.2200 O   0  0  0  0  0  0  0  0  0  0  0  0
  1  7  1  0  0  0  0
  1  4  1  0  0  0  0
  2 22  1  0  0  0  0
  3 17  1  0  0  0  0
  4 11  1  0  0  0  0
  5  8  2  0  0  0  0
  6  3  2  0  0  0  0
  7 23  1  0  0  0  0
  8 16  1  0  0  0  0
  9 14  1  0  0  0  0
 10  1  2  0  0  0  0
 11 18  1  0  0  0  0
 11 16  2  0  0  0  0
 13  5  1  0  0  0  0
 14 17  2  0  0  0  0
 15 24  1  0  0  0  0
 17 12  1  0  0  0  0
 18 25  1  0  0  0  0
 19  2  2  0  0  0  0
 19 10  1  0  0  0  0
 20  4  2  0  0  0  0
 20  5  1  0  0  0  0
 21  9  2  0  0  0  0
 21  6  1  0  0  0  0
 22  7  2  0  0  0  0
 22  9  1  0  0  0  0
 23 14  1  0  0  0  0
 24 12  1  0  0  0  0
 25 15  1  0  0  0  0
M  END
>  <MODEL>
5

>  <REMARK>
 VINA RESULT:      -8.0      3.352      6.254
  Name = 
  0 active torsions:
  status: ('A' for Active; 'I' for Inactive)
                            x       y       z     vdW  Elec       q    Type
                         _______ _______ _______ _____ _____    ______ ____

>  <TORSDO>
F 0

$$$$
=
 OpenBabel11062420173D

 25 29  0  0  0  0  0  0  0  0999 V2000
  187.5520  177.5620  146.6240 C   0  0  0  0  0  0  0  0  0  0  0  0
  184.8890  178.4060  146.5890 N   0  0  0  0  0  0  0  0  0  0  0  0
  185.1140  178.2910  141.3710 C   0  0  0  0  0  3  0  0  0  0  0  0
  188.9300  177.0220  146.6660 C   0  0  0  0  0  0  0  0  0  0  0  0
  191.1090  177.0590  147.7500 C   0  0  0  0  0  0  0  0  0  0  0  0
  183.9570  178.6080  142.1180 C   0  0  0  0  0  3  0  0  0  0  0  0
  186.9110  177.8880  145.4330 C   0  0  0  0  0  0  0  0  0  0  0  0
  191.5520  176.0320  146.9160 C   0  0  0  0  0  3  0  0  0  0  0  0
  185.2230  178.4100  144.1330 C   0  0  0  0  0  0  0  0  0  0  0  0
  186.8360  177.7220  147.7790 N   0  0  0  0  0  0  0  0  0  0  0  0
  189.3840  175.9780  145.8120 C   0  0  0  0  0  0  0  0  0  0  0  0
  187.8150  177.6330  141.0760 S   0  0  0  0  0  0  0  0  0  0  0  0
  191.9410  177.5800  148.6820 F   0  0  0  0  0  0  0  0  0  0  0  0
  186.3590  178.1080  143.4080 C   0  0  0  0  0  0  0  0  0  0  0  0
  189.1350  176.0210  142.8200 C   0  0  0  0  0  2  0  0  0  0  0  0
  190.6900  175.4900  145.9600 C   0  0  0  0  0  3  0  0  0  0  0  0
  186.3400  178.0400  142.0180 C   0  0  0  0  0  0  0  0  0  0  0  0
  188.4620  175.2890  144.8370 C   0  0  0  0  0  2  0  0  0  0  0  0
  185.5280  178.1390  147.7690 C   0  0  0  0  0  3  0  0  0  0  0  0
  189.8040  177.5410  147.6310 C   0  0  0  0  0  3  0  0  0  0  0  0
  183.9980  178.6650  143.5250 C   0  0  0  0  0  3  0  0  0  0  0  0
  185.6010  178.2790  145.4450 C   0  0  0  0  0  0  0  0  0  0  0  0
  187.3700  177.8230  144.2030 O   0  0  0  0  0  0  0  0  0  0  0  0
  187.9990  175.9740  141.8080 C   0  0  0  0  0  2  0  0  0  0  0  0
  189.1210  174.8970  143.6570 O   0  0  0  0  0  0  0  0  0  0  0  0
  1  4  1  0  0  0  0
  1 10  1  0  0  0  0
  2 19  1  0  0  0  0
  3 17  2  0  0  0  0
  3  6  1  0  0  0  0
  4 20  1  0  0  0  0
  5 13  1  0  0  0  0
  6 21  2  0  0  0  0
  7 22  1  0  0  0  0
  7  1  2  0  0  0  0
  8  5  1  0  0  0  0
  9 22  1  0  0  0  0
 11 16  1  0  0  0  0
 11  4  2  0  0  0  0
 12 24  1  0  0  0  0
 12 17  1  0  0  0  0
 14  9  2  0  0  0  0
 14 23  1  0  0  0  0
 15 25  1  0  0  0  0
 16  8  2  0  0  0  0
 17 14  1  0  0  0  0
 18 11  1  0  0  0  0
 19 10  2  0  0  0  0
 20  5  2  0  0  0  0
 21  9  1  0  0  0  0
 22  2  2  0  0  0  0
 23  7  1  0  0  0  0
 24 15  1  0  0  0  0
 25 18  1  0  0  0  0
M  END
>  <MODEL>
6

>  <REMARK>
 VINA RESULT:      -7.9      2.843      5.821
  Name = 
  0 active torsions:
  status: ('A' for Active; 'I' for Inactive)
                            x       y       z     vdW  Elec       q    Type
                         _______ _______ _______ _____ _____    ______ ____

>  <TORSDO>
F 0

$$$$
=
 OpenBabel11062420173D

 25 29  0  0  0  0  0  0  0  0999 V2000
  188.3120  176.2500  143.5550 C   0  0  0  0  0  0  0  0  0  0  0  0
  189.4250  174.8890  141.3830 N   0  0  0  0  0  0  0  0  0  0  0  0
  193.9450  174.7900  144.0010 C   0  0  0  0  0  3  0  0  0  0  0  0
  187.6770  176.8840  144.7340 C   0  0  0  0  0  0  0  0  0  0  0  0
  186.0910  178.5330  145.5610 C   0  0  0  0  0  0  0  0  0  0  0  0
  193.7350  174.1910  142.7370 C   0  0  0  0  0  3  0  0  0  0  0  0
  189.6720  175.9640  143.4990 C   0  0  0  0  0  0  0  0  0  0  0  0
  186.3340  178.1220  146.8720 C   0  0  0  0  0  3  0  0  0  0  0  0
  191.5060  175.0480  142.7200 C   0  0  0  0  0  0  0  0  0  0  0  0
  187.5540  175.8800  142.4770 N   0  0  0  0  0  0  0  0  0  0  0  0
  187.9280  176.4690  146.0700 C   0  0  0  0  0  0  0  0  0  0  0  0
  193.1800  176.2930  146.2290 S   0  0  0  0  0  0  0  0  0  0  0  0
  185.2050  179.5280  145.3170 F   0  0  0  0  0  0  0  0  0  0  0  0
  191.7080  175.6420  143.9500 C   0  0  0  0  0  0  0  0  0  0  0  0
  190.6710  176.2110  147.2680 C   0  0  0  0  0  2  0  0  0  0  0  0
  187.2400  177.0900  147.1220 C   0  0  0  0  0  3  0  0  0  0  0  0
  192.9230  175.5320  144.6220 C   0  0  0  0  0  0  0  0  0  0  0  0
  188.8170  175.2910  146.3860 C   0  0  0  0  0  2  0  0  0  0  0  0
  188.0960  175.2130  141.4060 C   0  0  0  0  0  3  0  0  0  0  0  0
  186.7510  177.9100  144.5010 C   0  0  0  0  0  3  0  0  0  0  0  0
  192.4960  174.3100  142.0790 C   0  0  0  0  0  3  0  0  0  0  0  0
  190.1850  175.2800  142.4330 C   0  0  0  0  0  0  0  0  0  0  0  0
  190.6050  176.2110  144.3910 O   0  0  0  0  0  0  0  0  0  0  0  0
  191.8840  175.3160  147.0590 C   0  0  0  0  0  2  0  0  0  0  0  0
  189.5310  175.4600  147.5860 O   0  0  0  0  0  0  0  0  0  0  0  0
  1  4  1  0  0  0  0
  2 19  2  0  0  0  0
  2 22  1  0  0  0  0
  3 17  1  0  0  0  0
  4 11  1  0  0  0  0
  5  8  2  0  0  0  0
  6  3  2  0  0  0  0
  7  1  1  0  0  0  0
  7 23  1  0  0  0  0
  8 16  1  0  0  0  0
  9 14  1  0  0  0  0
 10  1  2  0  0  0  0
 11 18  1  0  0  0  0
 11 16  2  0  0  0  0
 12 24  1  0  0  0  0
 13  5  1  0  0  0  0
 14 23  1  0  0  0  0
 14 17  2  0  0  0  0
 15 25  1  0  0  0  0
 17 12  1  0  0  0  0
 18 25  1  0  0  0  0
 19 10  1  0  0  0  0
 20  4  2  0  0  0  0
 20  5  1  0  0  0  0
 21  9  2  0  0  0  0
 21  6  1  0  0  0  0
 22  9  1  0  0  0  0
 22  7  2  0  0  0  0
 24 15  1  0  0  0  0
M  END
>  <MODEL>
7

>  <REMARK>
 VINA RESULT:      -7.7      3.143      5.266
  Name = 
  0 active torsions:
  status: ('A' for Active; 'I' for Inactive)
                            x       y       z     vdW  Elec       q    Type
                         _______ _______ _______ _____ _____    ______ ____

>  <TORSDO>
F 0

$$$$
=
 OpenBabel11062420173D

 25 29  0  0  0  0  0  0  0  0999 V2000
  189.7450  176.9690  146.7330 C   0  0  0  0  0  0  0  0  0  0  0  0
  192.1390  177.1960  148.1560 N   0  0  0  0  0  0  0  0  0  0  0  0
  194.4270  174.3850  144.3940 C   0  0  0  0  0  3  0  0  0  0  0  0
  188.4890  176.9440  145.9470 C   0  0  0  0  0  0  0  0  0  0  0  0
  186.0630  176.7690  145.9760 C   0  0  0  0  0  0  0  0  0  0  0  0
  195.1010  174.9350  145.5080 C   0  0  0  0  0  3  0  0  0  0  0  0
  190.8910  176.2890  146.3350 C   0  0  0  0  0  0  0  0  0  0  0  0
  186.0230  176.9590  144.5950 C   0  0  0  0  0  3  0  0  0  0  0  0
  193.0180  175.7520  146.3450 C   0  0  0  0  0  0  0  0  0  0  0  0
  189.8290  177.7120  147.8790 N   0  0  0  0  0  0  0  0  0  0  0  0
  188.4490  177.1330  144.5380 C   0  0  0  0  0  0  0  0  0  0  0  0
  192.1670  173.8230  142.8480 S   0  0  0  0  0  0  0  0  0  0  0  0
  184.9120  176.5920  146.6680 F   0  0  0  0  0  0  0  0  0  0  0  0
  192.3530  175.2090  145.2620 C   0  0  0  0  0  0  0  0  0  0  0  0
  190.0990  175.5650  142.5790 C   0  0  0  0  0  2  0  0  0  0  0  0
  187.2090  177.1500  143.8840 C   0  0  0  0  0  3  0  0  0  0  0  0
  193.0310  174.5160  144.2630 C   0  0  0  0  0  0  0  0  0  0  0  0
  189.6910  177.4470  143.7400 C   0  0  0  0  0  2  0  0  0  0  0  0
  191.0020  177.8260  148.5840 C   0  0  0  0  0  3  0  0  0  0  0  0
  187.2870  176.7720  146.6470 C   0  0  0  0  0  3  0  0  0  0  0  0
  194.3950  175.6380  146.5040 C   0  0  0  0  0  3  0  0  0  0  0  0
  192.0530  176.4350  147.0400 C   0  0  0  0  0  0  0  0  0  0  0  0
  191.0730  175.5190  145.2860 O   0  0  0  0  0  0  0  0  0  0  0  0
  191.5760  175.4360  142.2380 C   0  0  0  0  0  2  0  0  0  0  0  0
  189.6570  176.8880  142.4490 O   0  0  0  0  0  0  0  0  0  0  0  0
  1 10  1  0  0  0  0
  2 19  1  0  0  0  0
  3  6  1  0  0  0  0
  4 20  1  0  0  0  0
  4  1  1  0  0  0  0
  5 20  2  0  0  0  0
  5 13  1  0  0  0  0
  6 21  2  0  0  0  0
  7  1  2  0  0  0  0
  7 22  1  0  0  0  0
  8  5  1  0  0  0  0
  9 21  1  0  0  0  0
  9 22  1  0  0  0  0
 10 19  2  0  0  0  0
 11  4  2  0  0  0  0
 12 17  1  0  0  0  0
 14 23  1  0  0  0  0
 14  9  2  0  0  0  0
 16 11  1  0  0  0  0
 16  8  2  0  0  0  0
 17  3  2  0  0  0  0
 17 14  1  0  0  0  0
 18 11  1  0  0  0  0
 22  2  2  0  0  0  0
 23  7  1  0  0  0  0
 24 15  1  0  0  0  0
 24 12  1  0  0  0  0
 25 15  1  0  0  0  0
 25 18  1  0  0  0  0
M  END
>  <MODEL>
8

>  <REMARK>
 VINA RESULT:      -7.5      3.025      4.505
  Name = 
  0 active torsions:
  status: ('A' for Active; 'I' for Inactive)
                            x       y       z     vdW  Elec       q    Type
                         _______ _______ _______ _____ _____    ______ ____

>  <TORSDO>
F 0

$$$$
=
 OpenBabel11062420173D

 25 29  0  0  0  0  0  0  0  0999 V2000
  188.4450  175.1370  143.1230 C   0  0  0  0  0  0  0  0  0  0  0  0
  189.6110  172.7120  142.3700 N   0  0  0  0  0  0  0  0  0  0  0  0
  193.4740  173.7380  145.7350 C   0  0  0  0  0  3  0  0  0  0  0  0
  187.7620  176.3700  143.5780 C   0  0  0  0  0  0  0  0  0  0  0  0
  186.4390  178.3180  142.9660 C   0  0  0  0  0  0  0  0  0  0  0  0
  193.3680  172.5540  144.9700 C   0  0  0  0  0  3  0  0  0  0  0  0
  189.7030  174.7640  143.5860 C   0  0  0  0  0  0  0  0  0  0  0  0
  186.3540  178.6940  144.3070 C   0  0  0  0  0  3  0  0  0  0  0  0
  191.4100  173.4270  143.9180 C   0  0  0  0  0  0  0  0  0  0  0  0
  187.8290  174.2880  142.2430 N   0  0  0  0  0  0  0  0  0  0  0  0
  187.6790  176.7560  144.9440 C   0  0  0  0  0  0  0  0  0  0  0  0
  192.6630  176.2850  146.5500 S   0  0  0  0  0  0  0  0  0  0  0  0
  185.8410  179.0730  142.0130 F   0  0  0  0  0  0  0  0  0  0  0  0
  191.5120  174.5900  144.6570 C   0  0  0  0  0  0  0  0  0  0  0  0
  190.0500  176.9960  146.7720 C   0  0  0  0  0  2  0  0  0  0  0  0
  186.9630  177.9100  145.2890 C   0  0  0  0  0  3  0  0  0  0  0  0
  192.5380  174.7790  145.5790 C   0  0  0  0  0  0  0  0  0  0  0  0
  188.2290  175.8900  146.0510 C   0  0  0  0  0  2  0  0  0  0  0  0
  188.3980  173.0960  141.8690 C   0  0  0  0  0  3  0  0  0  0  0  0
  187.1290  177.1590  142.6070 C   0  0  0  0  0  3  0  0  0  0  0  0
  192.3180  172.3810  144.0470 C   0  0  0  0  0  3  0  0  0  0  0  0
  190.2390  173.5620  143.2160 C   0  0  0  0  0  0  0  0  0  0  0  0
  190.4940  175.3920  144.4260 O   0  0  0  0  0  0  0  0  0  0  0  0
  191.0640  176.0460  147.3920 C   0  0  0  0  0  2  0  0  0  0  0  0
  188.7390  176.6450  147.1230 O   0  0  0  0  0  0  0  0  0  0  0  0
  1  4  1  0  0  0  0
  1  7  1  0  0  0  0
  2 22  1  0  0  0  0
  4 11  1  0  0  0  0
  5  8  2  0  0  0  0
  6  3  2  0  0  0  0
  7 23  1  0  0  0  0
  8 16  1  0  0  0  0
  9 21  2  0  0  0  0
  9 14  1  0  0  0  0
 10  1  2  0  0  0  0
 11 16  2  0  0  0  0
 11 18  1  0  0  0  0
 12 24  1  0  0  0  0
 13  5  1  0  0  0  0
 14 17  2  0  0  0  0
 15 25  1  0  0  0  0
 15 24  1  0  0  0  0
 17  3  1  0  0  0  0
 17 12  1  0  0  0  0
 18 25  1  0  0  0  0
 19 10  1  0  0  0  0
 19  2  2  0  0  0  0
 20  5  1  0  0  0  0
 20  4  2  0  0  0  0
 21  6  1  0  0  0  0
 22  7  2  0  0  0  0
 22  9  1  0  0  0  0
 23 14  1  0  0  0  0
M  END
>  <MODEL>
9

>  <REMARK>
 VINA RESULT:      -7.5      3.185      4.988
  Name = 
  0 active torsions:
  status: ('A' for Active; 'I' for Inactive)
                            x       y       z     vdW  Elec       q    Type
                         _______ _______ _______ _____ _____    ______ ____

>  <TORSDO>
F 0

$$$$
