=
 OpenBabel11062419383D

 42 47  0  0  1  0  0  0  0  0999 V2000
  194.3210  174.4460  144.2190 C   0  0  0  0  0  0  0  0  0  0  0  0
  191.8950  174.8470  145.7180 C   0  0  1  0  0  3  0  0  0  0  0  0
  191.8180  174.6310  144.1910 C   0  0  1  0  0  3  0  0  0  0  0  0
  194.3910  174.9250  145.6470 C   0  0  0  0  0  2  0  0  0  0  0  0
  193.1500  174.2430  143.5940 C   0  0  0  0  0  3  0  0  0  0  0  0
  195.4670  174.0600  143.6030 F   0  0  0  0  0  0  0  0  0  0  0  0
  193.1310  175.6700  146.0710 C   0  0  0  0  0  2  0  0  0  0  0  0
  189.7450  178.4390  148.1100 Cl  0  0  0  0  0  0  0  0  0  0  0  0
  189.6520  174.6950  146.9390 C   0  0  0  0  0  3  0  0  0  0  0  0
  188.1870  176.5940  146.9720 N   0  0  0  0  0  0  0  0  0  0  0  0
  189.2640  177.5410  146.6430 C   0  0  2  0  0  3  0  0  0  0  0  0
  190.6650  175.5190  146.2560 C   0  0  0  0  0  0  0  0  0  0  0  0
  190.4670  176.8360  146.0800 C   0  0  0  0  0  3  0  0  0  0  0  0
  188.4710  175.2170  147.2650 C   0  0  0  0  0  3  0  0  0  0  0  0
  186.5770  177.1900  147.1840 S   0  0  0  0  0  0  0  0  0  0  0  0
  185.9600  176.5510  148.3980 O   0  0  0  0  0  0  0  0  0  0  0  0
  186.6190  178.6830  147.3630 O   0  0  0  0  0  0  0  0  0  0  0  0
  185.6370  176.7830  145.7870 N   0  0  0  0  0  2  0  0  0  0  0  0
  185.9520  178.2160  142.3690 C   0  0  2  0  0  3  0  0  0  0  0  0
  186.4370  177.4020  143.5540 C   0  0  0  0  0  2  0  0  0  0  0  0
  184.2000  178.4370  140.9910 O   0  0  0  0  0  0  0  0  0  0  0  0
  183.6940  178.9480  145.5820 O   0  0  0  0  0  0  0  0  0  0  0  0
  184.5110  177.9560  142.2490 C   0  0  2  0  0  3  0  0  0  0  0  0
  186.4530  177.8310  141.1380 O   0  0  0  0  0  0  0  0  0  0  0  0
  185.3820  178.1510  140.2650 C   0  0  0  0  0  2  0  0  0  0  0  0
  185.7290  177.8880  144.8430 C   0  0  1  0  0  3  0  0  0  0  0  0
  184.3480  178.4870  144.6090 C   0  0  0  0  0  0  0  0  0  0  0  0
  183.8390  178.6180  143.3080 O   0  0  0  0  0  0  0  0  0  0  0  0
  190.7900  173.5620  143.8190 C   0  0  0  0  0  2  0  0  0  0  0  0
  191.5220  170.7270  140.3520 C   0  0  0  0  0  3  0  0  0  0  0  0
  189.6790  174.1420  143.0010 C   0  0  0  0  0  0  0  0  0  0  0  0
  189.9720  171.9480  137.4260 O   0  0  0  0  0  0  0  0  0  0  0  0
  190.1260  170.8450  142.2730 O   0  0  0  0  0  1  0  0  0  0  0  0
  190.1450  172.7650  140.8790 C   0  0  0  0  0  0  0  0  0  0  0  0
  189.8070  172.8480  139.6160 C   0  0  0  0  0  0  0  0  0  0  0  0
  188.7370  174.6020  140.6600 C   0  0  0  0  0  3  0  0  0  0  0  0
  191.2000  170.8540  139.0940 N   0  0  0  0  0  0  0  0  0  0  0  0
  188.9520  173.9540  139.3620 N   0  0  0  0  0  0  0  0  0  0  0  0
  190.3020  171.8790  138.6390 C   0  0  0  0  0  0  0  0  0  0  0  0
  190.9430  171.6160  141.4420 C   0  0  2  0  0  3  0  0  0  0  0  0
  189.5290  173.8220  141.6090 N   0  0  0  0  0  0  0  0  0  0  0  0
  188.8780  174.9520  143.5470 O   0  0  0  0  0  0  0  0  0  0  0  0
  1  4  1  0  0  0  0
  2  7  1  0  0  0  0
  2 12  1  6  0  0  0
  3 29  1  1  0  0  0
  3  2  1  0  0  0  0
  4  7  1  0  0  0  0
  5  3  1  0  0  0  0
  5  1  2  0  0  0  0
  6  1  1  0  0  0  0
  9 14  2  0  0  0  0
 10 15  1  0  0  0  0
 10 14  1  0  0  0  0
 11 10  1  0  0  0  0
 11  8  1  1  0  0  0
 12  9  1  0  0  0  0
 13 12  2  0  0  0  0
 13 11  1  0  0  0  0
 15 17  2  0  0  0  0
 15 16  2  0  0  0  0
 18 15  1  0  0  0  0
 19 20  1  1  0  0  0
 20 26  1  0  0  0  0
 23 21  1  6  0  0  0
 23 19  1  0  0  0  0
 23 28  1  0  0  0  0
 24 19  1  0  0  0  0
 25 21  1  0  0  0  0
 25 24  1  0  0  0  0
 26 18  1  1  0  0  0
 27 26  1  0  0  0  0
 27 22  2  0  0  0  0
 28 27  1  0  0  0  0
 30 40  1  0  0  0  0
 31 42  2  0  0  0  0
 31 29  1  0  0  0  0
 32 39  2  0  0  0  0
 34 40  1  0  0  0  0
 34 41  1  0  0  0  0
 35 34  2  0  0  0  0
 36 41  1  0  0  0  0
 37 30  2  0  0  0  0
 38 35  1  0  0  0  0
 38 36  2  0  0  0  0
 39 37  1  0  0  0  0
 39 35  1  0  0  0  0
 40 33  1  1  0  0  0
 41 31  1  0  0  0  0
M  END
>  <MODEL>
1

>  <REMARK>
 VINA RESULT:      -8.9      0.000      0.000
  Name = 
  6 active torsions:
  status: ('A' for Active; 'I' for Inactive)
    1  A    between atoms: C_7  and  C_24
    2  A    between atoms: C_10  and  C_31
    3  A    between atoms: N_11  and  S_13
    4  A    between atoms: S_13  and  N_25
    5  A    between atoms: C_18  and  C_31
    6  A    between atoms: N_25  and  C_32
                            x       y       z     vdW  Elec       q    Type
                         _______ _______ _______ _____ _____    ______ ____

>  <TORSDO>
F 6

$$$$
=
 OpenBabel11062419383D

 42 47  0  0  1  0  0  0  0  0999 V2000
  190.8120  177.4670  147.9750 C   0  0  0  0  0  0  0  0  0  0  0  0
  190.8030  176.2530  145.3640 C   0  0  1  0  0  3  0  0  0  0  0  0
  189.4680  176.6950  146.0010 C   0  0  1  0  0  3  0  0  0  0  0  0
  192.0550  176.7870  147.4590 C   0  0  0  0  0  2  0  0  0  0  0  0
  189.6680  177.4850  147.2730 C   0  0  0  0  0  3  0  0  0  0  0  0
  190.8970  178.2130  149.1050 F   0  0  0  0  0  0  0  0  0  0  0  0
  191.7400  175.7020  146.4360 C   0  0  0  0  0  2  0  0  0  0  0  0
  190.7360  171.6760  143.8490 Cl  0  0  0  0  0  0  0  0  0  0  0  0
  191.1910  175.4700  142.9600 C   0  0  0  0  0  3  0  0  0  0  0  0
  189.9920  173.5700  142.1210 N   0  0  0  0  0  0  0  0  0  0  0  0
  189.6790  173.0640  143.4660 C   0  0  2  0  0  3  0  0  0  0  0  0
  190.6020  175.2260  144.2880 C   0  0  0  0  0  0  0  0  0  0  0  0
  189.8630  174.1270  144.5140 C   0  0  0  0  0  3  0  0  0  0  0  0
  190.8850  174.6800  141.9330 C   0  0  0  0  0  3  0  0  0  0  0  0
  189.4200  172.7010  140.7390 S   0  0  0  0  0  0  0  0  0  0  0  0
  190.0100  171.3170  140.7350 O   0  0  0  0  0  0  0  0  0  0  0  0
  187.9200  172.6110  140.7940 O   0  0  0  0  0  0  0  0  0  0  0  0
  189.9160  173.5340  139.3040 N   0  0  0  0  0  2  0  0  0  0  0  0
  187.4430  175.1000  137.0080 C   0  0  2  0  0  3  0  0  0  0  0  0
  188.0720  174.8490  138.3660 C   0  0  0  0  0  2  0  0  0  0  0  0
  187.9650  175.7200  134.9200 O   0  0  0  0  0  0  0  0  0  0  0  0
  189.9180  171.9680  136.8440 O   0  0  0  0  0  0  0  0  0  0  0  0
  188.5500  175.1690  136.0450 C   0  0  2  0  0  3  0  0  0  0  0  0
  186.8110  176.3210  136.8620 O   0  0  0  0  0  0  0  0  0  0  0  0
  187.0080  176.5990  135.4850 C   0  0  0  0  0  2  0  0  0  0  0  0
  188.8150  173.4900  138.3530 C   0  0  1  0  0  3  0  0  0  0  0  0
  189.3290  173.0740  136.9810 C   0  0  0  0  0  0  0  0  0  0  0  0
  189.0700  173.8650  135.8520 O   0  0  0  0  0  0  0  0  0  0  0  0
  188.6280  177.5330  145.0370 C   0  0  0  0  0  2  0  0  0  0  0  0
  187.2630  177.5640  140.7090 C   0  0  0  0  0  3  0  0  0  0  0  0
  187.1780  177.4930  145.4060 C   0  0  0  0  0  0  0  0  0  0  0  0
  183.8580  178.4720  140.5070 O   0  0  0  0  0  0  0  0  0  0  0  0
  187.7080  175.9630  142.4100 O   0  0  0  0  0  1  0  0  0  0  0  0
  186.2710  177.7530  143.0130 C   0  0  0  0  0  0  0  0  0  0  0  0
  185.1210  178.0790  142.4780 C   0  0  0  0  0  0  0  0  0  0  0  0
  184.7690  178.0860  144.7560 C   0  0  0  0  0  3  0  0  0  0  0  0
  186.1160  177.9270  140.2030 N   0  0  0  0  0  0  0  0  0  0  0  0
  184.1230  178.3230  143.4600 N   0  0  0  0  0  0  0  0  0  0  0  0
  184.9640  178.1690  141.0270 C   0  0  0  0  0  0  0  0  0  0  0  0
  187.4640  177.3220  142.1970 C   0  0  2  0  0  3  0  0  0  0  0  0
  186.1520  177.7360  144.4330 N   0  0  0  0  0  0  0  0  0  0  0  0
  186.8610  177.2680  146.6080 O   0  0  0  0  0  0  0  0  0  0  0  0
  1  6  1  0  0  0  0
  2 12  1  6  0  0  0
  2  3  1  0  0  0  0
  2  7  1  0  0  0  0
  3 29  1  6  0  0  0
  3  5  1  0  0  0  0
  4  1  1  0  0  0  0
  5  1  2  0  0  0  0
  7  4  1  0  0  0  0
  9 12  1  0  0  0  0
 10 11  1  0  0  0  0
 11  8  1  1  0  0  0
 11 13  1  0  0  0  0
 12 13  2  0  0  0  0
 14 10  1  0  0  0  0
 14  9  2  0  0  0  0
 15 17  2  0  0  0  0
 15 10  1  0  0  0  0
 16 15  2  0  0  0  0
 18 15  1  0  0  0  0
 19 20  1  1  0  0  0
 21 25  1  0  0  0  0
 22 27  2  0  0  0  0
 23 21  1  6  0  0  0
 23 19  1  0  0  0  0
 24 19  1  0  0  0  0
 25 24  1  0  0  0  0
 26 20  1  0  0  0  0
 26 18  1  1  0  0  0
 27 26  1  0  0  0  0
 28 23  1  0  0  0  0
 28 27  1  0  0  0  0
 29 31  1  0  0  0  0
 30 40  1  0  0  0  0
 31 42  2  0  0  0  0
 32 39  2  0  0  0  0
 34 41  1  0  0  0  0
 35 34  2  0  0  0  0
 35 38  1  0  0  0  0
 37 30  2  0  0  0  0
 37 39  1  0  0  0  0
 38 36  2  0  0  0  0
 39 35  1  0  0  0  0
 40 33  1  6  0  0  0
 40 34  1  0  0  0  0
 41 36  1  0  0  0  0
 41 31  1  0  0  0  0
M  END
>  <MODEL>
2

>  <REMARK>
 VINA RESULT:      -8.5      3.193      7.038
  Name = 
  6 active torsions:
  status: ('A' for Active; 'I' for Inactive)
    1  A    between atoms: C_7  and  C_24
    2  A    between atoms: C_10  and  C_31
    3  A    between atoms: N_11  and  S_13
    4  A    between atoms: S_13  and  N_25
    5  A    between atoms: C_18  and  C_31
    6  A    between atoms: N_25  and  C_32
                            x       y       z     vdW  Elec       q    Type
                         _______ _______ _______ _____ _____    ______ ____

>  <TORSDO>
F 6

$$$$
=
 OpenBabel11062419383D

 42 47  0  0  1  0  0  0  0  0999 V2000
  184.4420  178.2880  143.4490 C   0  0  0  0  0  0  0  0  0  0  0  0
  187.1760  177.8490  144.2410 C   0  0  1  0  0  3  0  0  0  0  0  0
  186.6600  177.2370  142.9210 C   0  0  1  0  0  3  0  0  0  0  0  0
  184.8850  178.6390  144.8470 C   0  0  0  0  0  2  0  0  0  0  0  0
  185.2760  177.7230  142.5600 C   0  0  0  0  0  3  0  0  0  0  0  0
  183.2180  178.6960  143.0300 F   0  0  0  0  0  0  0  0  0  0  0  0
  186.0800  177.8100  145.3030 C   0  0  0  0  0  2  0  0  0  0  0  0
  189.3590  174.8710  147.3410 Cl  0  0  0  0  0  0  0  0  0  0  0  0
  189.6530  177.9110  144.8780 C   0  0  0  0  0  3  0  0  0  0  0  0
  190.8140  175.8620  145.3330 N   0  0  0  0  0  0  0  0  0  0  0  0
  189.5730  175.1130  145.5840 C   0  0  2  0  0  3  0  0  0  0  0  0
  188.4000  177.1450  144.7480 C   0  0  0  0  0  0  0  0  0  0  0  0
  188.3720  175.8330  145.0370 C   0  0  0  0  0  3  0  0  0  0  0  0
  190.7970  177.2870  145.1460 C   0  0  0  0  0  3  0  0  0  0  0  0
  192.3310  175.0400  145.4460 S   0  0  0  0  0  0  0  0  0  0  0  0
  192.7200  174.8960  146.8920 O   0  0  0  0  0  0  0  0  0  0  0  0
  192.2080  173.6800  144.8160 O   0  0  0  0  0  0  0  0  0  0  0  0
  193.5380  175.9710  144.6220 N   0  0  0  0  0  2  0  0  0  0  0  0
  195.7960  174.9870  141.8340 C   0  0  2  0  0  3  0  0  0  0  0  0
  194.4590  175.3950  142.4240 C   0  0  0  0  0  2  0  0  0  0  0  0
  197.9400  175.6260  141.7400 O   0  0  0  0  0  0  0  0  0  0  0  0
  195.8980  174.7450  145.8200 O   0  0  0  0  0  0  0  0  0  0  0  0
  196.8160  175.7840  142.5280 C   0  0  2  0  0  3  0  0  0  0  0  0
  195.9820  175.3130  140.5020 O   0  0  0  0  0  0  0  0  0  0  0  0
  197.3810  175.5380  140.4420 C   0  0  0  0  0  2  0  0  0  0  0  0
  194.4280  175.0470  143.9330 C   0  0  1  0  0  3  0  0  0  0  0  0
  195.7970  175.0500  144.6010 C   0  0  0  0  0  0  0  0  0  0  0  0
  196.9570  175.2920  143.8500 O   0  0  0  0  0  0  0  0  0  0  0  0
  187.5980  177.5350  141.7510 C   0  0  0  0  0  2  0  0  0  0  0  0
  189.5560  173.4450  141.5800 C   0  0  0  0  0  3  0  0  0  0  0  0
  186.9580  177.1900  140.4420 C   0  0  0  0  0  0  0  0  0  0  0  0
  189.4250  172.1630  138.2940 O   0  0  0  0  0  0  0  0  0  0  0  0
  187.4970  174.3890  142.3020 O   0  0  0  0  0  1  0  0  0  0  0  0
  188.1920  174.9580  140.1050 C   0  0  0  0  0  0  0  0  0  0  0  0
  188.4130  174.1540  139.0960 C   0  0  0  0  0  0  0  0  0  0  0  0
  187.0980  175.8520  138.2580 C   0  0  0  0  0  3  0  0  0  0  0  0
  189.7930  172.6800  140.5490 N   0  0  0  0  0  0  0  0  0  0  0  0
  187.7990  174.6140  137.9000 N   0  0  0  0  0  0  0  0  0  0  0  0
  189.2180  172.9440  139.2590 C   0  0  0  0  0  0  0  0  0  0  0  0
  188.6240  174.6440  141.5160 C   0  0  2  0  0  3  0  0  0  0  0  0
  187.3840  176.0510  139.6790 N   0  0  0  0  0  0  0  0  0  0  0  0
  186.0460  177.9390  139.9940 O   0  0  0  0  0  0  0  0  0  0  0  0
  1  4  1  0  0  0  0
  2 12  1  1  0  0  0
  2  7  1  0  0  0  0
  3 29  1  6  0  0  0
  3  2  1  0  0  0  0
  4  7  1  0  0  0  0
  5  3  1  0  0  0  0
  5  1  2  0  0  0  0
  6  1  1  0  0  0  0
  9 14  2  0  0  0  0
 10 15  1  0  0  0  0
 10 11  1  0  0  0  0
 11  8  1  1  0  0  0
 12  9  1  0  0  0  0
 12 13  2  0  0  0  0
 13 11  1  0  0  0  0
 14 10  1  0  0  0  0
 15 16  2  0  0  0  0
 17 15  2  0  0  0  0
 18 15  1  0  0  0  0
 19 20  1  1  0  0  0
 19 23  1  0  0  0  0
 20 26  1  0  0  0  0
 23 21  1  6  0  0  0
 23 28  1  0  0  0  0
 24 19  1  0  0  0  0
 25 24  1  0  0  0  0
 25 21  1  0  0  0  0
 26 27  1  0  0  0  0
 26 18  1  1  0  0  0
 27 22  2  0  0  0  0
 28 27  1  0  0  0  0
 31 29  1  0  0  0  0
 32 39  2  0  0  0  0
 34 40  1  0  0  0  0
 35 39  1  0  0  0  0
 35 34  2  0  0  0  0
 36 41  1  0  0  0  0
 37 30  2  0  0  0  0
 38 36  2  0  0  0  0
 38 35  1  0  0  0  0
 39 37  1  0  0  0  0
 40 30  1  0  0  0  0
 40 33  1  1  0  0  0
 41 34  1  0  0  0  0
 41 31  1  0  0  0  0
 42 31  2  0  0  0  0
M  END
>  <MODEL>
3

>  <REMARK>
 VINA RESULT:      -8.3      4.029      7.592
  Name = 
  6 active torsions:
  status: ('A' for Active; 'I' for Inactive)
    1  A    between atoms: C_7  and  C_24
    2  A    between atoms: C_10  and  C_31
    3  A    between atoms: N_11  and  S_13
    4  A    between atoms: S_13  and  N_25
    5  A    between atoms: C_18  and  C_31
    6  A    between atoms: N_25  and  C_32
                            x       y       z     vdW  Elec       q    Type
                         _______ _______ _______ _____ _____    ______ ____

>  <TORSDO>
F 6

$$$$
=
 OpenBabel11062419383D

 42 47  0  0  1  0  0  0  0  0999 V2000
  184.8910  178.1390  145.7550 C   0  0  0  0  0  0  0  0  0  0  0  0
  187.7390  177.7120  145.7570 C   0  0  1  0  0  3  0  0  0  0  0  0
  186.9230  177.3960  144.4840 C   0  0  1  0  0  3  0  0  0  0  0  0
  185.6560  178.1800  147.0540 C   0  0  0  0  0  2  0  0  0  0  0  0
  185.4890  177.8570  144.5860 C   0  0  0  0  0  3  0  0  0  0  0  0
  183.5980  178.5500  145.7450 F   0  0  0  0  0  0  0  0  0  0  0  0
  186.9330  177.3500  147.0010 C   0  0  0  0  0  2  0  0  0  0  0  0
  191.1970  175.2910  148.0840 Cl  0  0  0  0  0  0  0  0  0  0  0  0
  190.2000  177.5970  145.0710 C   0  0  0  0  0  3  0  0  0  0  0  0
  191.4440  175.5800  145.4420 N   0  0  0  0  0  0  0  0  0  0  0  0
  190.5000  175.0810  146.4540 C   0  0  2  0  0  3  0  0  0  0  0  0
  189.0560  176.9930  145.7760 C   0  0  0  0  0  0  0  0  0  0  0  0
  189.1820  175.8030  146.3850 C   0  0  0  0  0  3  0  0  0  0  0  0
  191.3280  176.9090  144.9090 C   0  0  0  0  0  3  0  0  0  0  0  0
  192.8170  174.6160  145.0230 S   0  0  0  0  0  0  0  0  0  0  0  0
  193.4370  175.1450  143.7580 O   0  0  0  0  0  0  0  0  0  0  0  0
  193.8220  174.6690  146.1400 O   0  0  0  0  0  0  0  0  0  0  0  0
  192.3010  172.9820  144.7620 N   0  0  0  0  0  2  0  0  0  0  0  0
  191.8370  171.5730  141.3520 C   0  0  2  0  0  3  0  0  0  0  0  0
  192.6280  172.2780  142.4370 C   0  0  0  0  0  2  0  0  0  0  0  0
  190.6580  169.7070  140.9710 O   0  0  0  0  0  0  0  0  0  0  0  0
  189.4330  172.6460  144.3560 O   0  0  0  0  0  0  0  0  0  0  0  0
  191.0790  170.5050  142.0180 C   0  0  2  0  0  3  0  0  0  0  0  0
  192.5920  170.8930  140.4120 O   0  0  0  0  0  0  0  0  0  0  0  0
  191.7380  169.8160  140.0620 C   0  0  0  0  0  2  0  0  0  0  0  0
  191.6550  172.9150  143.4600 C   0  0  1  0  0  3  0  0  0  0  0  0
  190.3180  172.1950  143.5800 C   0  0  0  0  0  0  0  0  0  0  0  0
  190.0260  171.0910  142.7640 O   0  0  0  0  0  0  0  0  0  0  0  0
  187.5480  178.0230  143.2380 C   0  0  0  0  0  2  0  0  0  0  0  0
  189.1770  174.3040  141.2130 C   0  0  0  0  0  3  0  0  0  0  0  0
  186.5590  178.0980  142.1160 C   0  0  0  0  0  0  0  0  0  0  0  0
  188.0910  174.1620  137.8570 O   0  0  0  0  0  0  0  0  0  0  0  0
  187.4420  174.8690  142.7380 O   0  0  0  0  0  1  0  0  0  0  0  0
  187.5400  176.1550  140.7460 C   0  0  0  0  0  0  0  0  0  0  0  0
  187.4370  175.7360  139.5100 C   0  0  0  0  0  0  0  0  0  0  0  0
  186.0310  177.5550  139.6650 C   0  0  0  0  0  3  0  0  0  0  0  0
  189.0850  173.9290  139.9660 N   0  0  0  0  0  0  0  0  0  0  0  0
  186.5440  176.5350  138.7450 N   0  0  0  0  0  0  0  0  0  0  0  0
  188.1940  174.5760  139.0420 C   0  0  0  0  0  0  0  0  0  0  0  0
  188.3240  175.4160  141.8020 C   0  0  2  0  0  3  0  0  0  0  0  0
  186.7030  177.2920  140.9380 N   0  0  0  0  0  0  0  0  0  0  0  0
  185.5980  178.9130  142.2040 O   0  0  0  0  0  0  0  0  0  0  0  0
  1  4  1  0  0  0  0
  2 12  1  6  0  0  0
  2  7  1  0  0  0  0
  3 29  1  6  0  0  0
  3  5  1  0  0  0  0
  3  2  1  0  0  0  0
  5  1  2  0  0  0  0
  6  1  1  0  0  0  0
  7  4  1  0  0  0  0
  9 12  1  0  0  0  0
 10 11  1  0  0  0  0
 11  8  1  1  0  0  0
 12 13  2  0  0  0  0
 13 11  1  0  0  0  0
 14  9  2  0  0  0  0
 14 10  1  0  0  0  0
 15 10  1  0  0  0  0
 15 17  2  0  0  0  0
 16 15  2  0  0  0  0
 18 15  1  0  0  0  0
 19 23  1  0  0  0  0
 19 20  1  1  0  0  0
 20 26  1  0  0  0  0
 23 21  1  6  0  0  0
 23 28  1  0  0  0  0
 24 19  1  0  0  0  0
 25 24  1  0  0  0  0
 25 21  1  0  0  0  0
 26 27  1  0  0  0  0
 26 18  1  1  0  0  0
 27 22  2  0  0  0  0
 28 27  1  0  0  0  0
 30 40  1  0  0  0  0
 31 42  2  0  0  0  0
 31 29  1  0  0  0  0
 32 39  2  0  0  0  0
 34 41  1  0  0  0  0
 34 40  1  0  0  0  0
 35 34  2  0  0  0  0
 36 41  1  0  0  0  0
 37 30  2  0  0  0  0
 38 35  1  0  0  0  0
 38 36  2  0  0  0  0
 39 35  1  0  0  0  0
 39 37  1  0  0  0  0
 40 33  1  1  0  0  0
 41 31  1  0  0  0  0
M  END
>  <MODEL>
4

>  <REMARK>
 VINA RESULT:      -8.0      3.330      6.890
  Name = 
  6 active torsions:
  status: ('A' for Active; 'I' for Inactive)
    1  A    between atoms: C_7  and  C_24
    2  A    between atoms: C_10  and  C_31
    3  A    between atoms: N_11  and  S_13
    4  A    between atoms: S_13  and  N_25
    5  A    between atoms: C_18  and  C_31
    6  A    between atoms: N_25  and  C_32
                            x       y       z     vdW  Elec       q    Type
                         _______ _______ _______ _____ _____    ______ ____

>  <TORSDO>
F 6

$$$$
=
 OpenBabel11062419383D

 42 47  0  0  1  0  0  0  0  0999 V2000
  185.8770  177.7380  147.1610 C   0  0  0  0  0  0  0  0  0  0  0  0
  188.4820  177.7260  145.9340 C   0  0  1  0  0  3  0  0  0  0  0  0
  187.4660  176.6210  145.5710 C   0  0  1  0  0  3  0  0  0  0  0  0
  186.9650  178.6340  147.6990 C   0  0  0  0  0  2  0  0  0  0  0  0
  186.0950  176.8850  146.1470 C   0  0  0  0  0  3  0  0  0  0  0  0
  184.6080  177.9110  147.6080 F   0  0  0  0  0  0  0  0  0  0  0  0
  188.3590  178.0890  147.4110 C   0  0  0  0  0  2  0  0  0  0  0  0
  191.8480  176.1220  142.8780 Cl  0  0  0  0  0  0  0  0  0  0  0  0
  190.6000  176.4460  146.5830 C   0  0  0  0  0  3  0  0  0  0  0  0
  192.6240  176.7910  145.3420 N   0  0  0  0  0  0  0  0  0  0  0  0
  191.9180  177.3450  144.1770 C   0  0  2  0  0  3  0  0  0  0  0  0
  189.8940  177.3170  145.6270 C   0  0  0  0  0  0  0  0  0  0  0  0
  190.5190  177.7700  144.5280 C   0  0  0  0  0  3  0  0  0  0  0  0
  191.9030  176.2120  146.4420 C   0  0  0  0  0  3  0  0  0  0  0  0
  194.3490  176.6740  145.3050 S   0  0  0  0  0  0  0  0  0  0  0  0
  194.8170  176.5890  143.8780 O   0  0  0  0  0  0  0  0  0  0  0  0
  194.9450  177.8890  145.9620 O   0  0  0  0  0  0  0  0  0  0  0  0
  194.8350  175.2420  146.1500 N   0  0  0  0  0  2  0  0  0  0  0  0
  196.6570  172.2670  144.8580 C   0  0  2  0  0  3  0  0  0  0  0  0
  196.5570  173.7120  145.3100 C   0  0  0  0  0  2  0  0  0  0  0  0
  196.1830  170.1830  145.5270 O   0  0  0  0  0  0  0  0  0  0  0  0
  192.8300  173.3770  145.1460 O   0  0  0  0  0  0  0  0  0  0  0  0
  195.7990  171.4890  145.7630 C   0  0  2  0  0  3  0  0  0  0  0  0
  197.9010  171.6810  145.0110 O   0  0  0  0  0  0  0  0  0  0  0  0
  197.5660  170.3250  145.2570 C   0  0  0  0  0  2  0  0  0  0  0  0
  195.0950  174.2030  145.1640 C   0  0  1  0  0  3  0  0  0  0  0  0
  194.0520  173.1000  145.2850 C   0  0  0  0  0  0  0  0  0  0  0  0
  194.4430  171.7630  145.4520 O   0  0  0  0  0  0  0  0  0  0  0  0
  187.3320  176.4460  144.0590 C   0  0  0  0  0  2  0  0  0  0  0  0
  186.6740  177.5380  139.7040 C   0  0  0  0  0  3  0  0  0  0  0  0
  188.2090  175.3400  143.5610 C   0  0  0  0  0  0  0  0  0  0  0  0
  187.5960  174.8460  137.6150 O   0  0  0  0  0  0  0  0  0  0  0  0
  188.2620  177.9840  141.4160 O   0  0  0  0  0  1  0  0  0  0  0  0
  187.7250  175.6990  141.0610 C   0  0  0  0  0  0  0  0  0  0  0  0
  187.8780  174.9960  139.9670 C   0  0  0  0  0  0  0  0  0  0  0  0
  188.7460  173.7000  141.6640 C   0  0  0  0  0  3  0  0  0  0  0  0
  186.8040  176.8010  138.6340 N   0  0  0  0  0  0  0  0  0  0  0  0
  188.4850  173.7360  140.2210 N   0  0  0  0  0  0  0  0  0  0  0  0
  187.4410  175.5140  138.6710 C   0  0  0  0  0  0  0  0  0  0  0  0
  187.2210  177.1220  141.0590 C   0  0  2  0  0  3  0  0  0  0  0  0
  188.2330  174.9710  142.1740 N   0  0  0  0  0  0  0  0  0  0  0  0
  188.9170  174.7040  144.3910 O   0  0  0  0  0  0  0  0  0  0  0  0
  1  6  1  0  0  0  0
  1  4  1  0  0  0  0
  2 12  1  1  0  0  0
  2  7  1  0  0  0  0
  3 29  1  6  0  0  0
  3  2  1  0  0  0  0
  3  5  1  0  0  0  0
  5  1  2  0  0  0  0
  7  4  1  0  0  0  0
 10 14  1  0  0  0  0
 11  8  1  6  0  0  0
 11 13  1  0  0  0  0
 11 10  1  0  0  0  0
 12  9  1  0  0  0  0
 13 12  2  0  0  0  0
 14  9  2  0  0  0  0
 15 10  1  0  0  0  0
 15 17  2  0  0  0  0
 15 18  1  0  0  0  0
 16 15  2  0  0  0  0
 19 24  1  0  0  0  0
 19 20  1  1  0  0  0
 19 23  1  0  0  0  0
 21 23  1  0  0  0  0
 22 27  2  0  0  0  0
 23 28  1  6  0  0  0
 24 25  1  0  0  0  0
 25 21  1  0  0  0  0
 26 27  1  0  0  0  0
 26 20  1  0  0  0  0
 26 18  1  1  0  0  0
 27 28  1  0  0  0  0
 30 40  1  0  0  0  0
 31 29  1  0  0  0  0
 31 42  2  0  0  0  0
 32 39  2  0  0  0  0
 34 41  1  0  0  0  0
 35 38  1  0  0  0  0
 35 34  2  0  0  0  0
 36 41  1  0  0  0  0
 37 39  1  0  0  0  0
 37 30  2  0  0  0  0
 38 36  2  0  0  0  0
 39 35  1  0  0  0  0
 40 34  1  0  0  0  0
 40 33  1  6  0  0  0
 41 31  1  0  0  0  0
M  END
>  <MODEL>
5

>  <REMARK>
 VINA RESULT:      -8.0      4.184      8.160
  Name = 
  6 active torsions:
  status: ('A' for Active; 'I' for Inactive)
    1  A    between atoms: C_7  and  C_24
    2  A    between atoms: C_10  and  C_31
    3  A    between atoms: N_11  and  S_13
    4  A    between atoms: S_13  and  N_25
    5  A    between atoms: C_18  and  C_31
    6  A    between atoms: N_25  and  C_32
                            x       y       z     vdW  Elec       q    Type
                         _______ _______ _______ _____ _____    ______ ____

>  <TORSDO>
F 6

$$$$
=
 OpenBabel11062419383D

 42 47  0  0  1  0  0  0  0  0999 V2000
  185.0400  177.5150  146.5710 C   0  0  0  0  0  0  0  0  0  0  0  0
  187.8630  177.6810  146.0230 C   0  0  1  0  0  3  0  0  0  0  0  0
  187.0140  176.6030  145.3160 C   0  0  1  0  0  3  0  0  0  0  0  0
  185.9260  178.3680  147.4440 C   0  0  0  0  0  2  0  0  0  0  0  0
  185.5340  176.7780  145.5620 C   0  0  0  0  0  3  0  0  0  0  0  0
  183.6940  177.6160  146.7090 F   0  0  0  0  0  0  0  0  0  0  0  0
  187.3710  177.8830  147.4540 C   0  0  0  0  0  2  0  0  0  0  0  0
  192.0640  177.1390  148.3240 Cl  0  0  0  0  0  0  0  0  0  0  0  0
  190.1820  177.8680  144.9600 C   0  0  0  0  0  3  0  0  0  0  0  0
  191.9640  176.4660  145.7430 N   0  0  0  0  0  0  0  0  0  0  0  0
  191.2970  176.1850  147.0240 C   0  0  2  0  0  3  0  0  0  0  0  0
  189.3230  177.3340  146.0320 C   0  0  0  0  0  0  0  0  0  0  0  0
  189.8320  176.5170  146.9690 C   0  0  0  0  0  3  0  0  0  0  0  0
  191.4350  177.4380  144.8270 C   0  0  0  0  0  3  0  0  0  0  0  0
  193.5020  175.7460  145.4180 S   0  0  0  0  0  0  0  0  0  0  0  0
  194.4360  176.0120  146.5680 O   0  0  0  0  0  0  0  0  0  0  0  0
  193.3300  174.2630  145.2390 O   0  0  0  0  0  0  0  0  0  0  0  0
  194.1600  176.4480  143.9780 N   0  0  0  0  0  2  0  0  0  0  0  0
  194.4880  174.8480  140.6360 C   0  0  2  0  0  3  0  0  0  0  0  0
  193.7010  175.4310  141.7940 C   0  0  0  0  0  2  0  0  0  0  0  0
  196.1590  175.3350  139.2270 O   0  0  0  0  0  0  0  0  0  0  0  0
  196.8480  175.3270  143.8220 O   0  0  0  0  0  0  0  0  0  0  0  0
  195.6740  175.6980  140.4690 C   0  0  2  0  0  3  0  0  0  0  0  0
  193.8660  174.9160  139.4010 O   0  0  0  0  0  0  0  0  0  0  0  0
  194.9680  175.0450  138.5180 C   0  0  0  0  0  2  0  0  0  0  0  0
  194.5530  175.3650  143.0870 C   0  0  1  0  0  3  0  0  0  0  0  0
  196.0560  175.4110  142.8460 C   0  0  0  0  0  0  0  0  0  0  0  0
  196.5690  175.4470  141.5400 O   0  0  0  0  0  0  0  0  0  0  0  0
  187.2560  176.5880  143.8060 C   0  0  0  0  0  2  0  0  0  0  0  0
  186.7170  177.3610  139.3680 C   0  0  0  0  0  3  0  0  0  0  0  0
  188.1610  175.4630  143.4150 C   0  0  0  0  0  0  0  0  0  0  0  0
  187.7350  174.5430  137.5020 O   0  0  0  0  0  0  0  0  0  0  0  0
  188.2460  177.9500  141.0900 O   0  0  0  0  0  1  0  0  0  0  0  0
  187.7490  175.6380  140.8820 C   0  0  0  0  0  0  0  0  0  0  0  0
  187.9440  174.8620  139.8450 C   0  0  0  0  0  0  0  0  0  0  0  0
  188.7770  173.7010  141.6540 C   0  0  0  0  0  3  0  0  0  0  0  0
  186.8880  176.5530  138.3570 N   0  0  0  0  0  0  0  0  0  0  0  0
  188.5580  173.6320  140.2050 N   0  0  0  0  0  0  0  0  0  0  0  0
  187.5410  175.2810  138.5040 C   0  0  0  0  0  0  0  0  0  0  0  0
  187.2280  177.0490  140.7650 C   0  0  2  0  0  3  0  0  0  0  0  0
  188.2320  174.9970  142.0580 N   0  0  0  0  0  0  0  0  0  0  0  0
  188.8520  174.8970  144.3080 O   0  0  0  0  0  0  0  0  0  0  0  0
  1  6  1  0  0  0  0
  1  4  1  0  0  0  0
  2 12  1  1  0  0  0
  2  7  1  0  0  0  0
  3 29  1  6  0  0  0
  3  5  1  0  0  0  0
  3  2  1  0  0  0  0
  4  7  1  0  0  0  0
  5  1  2  0  0  0  0
  9 12  1  0  0  0  0
 10 11  1  0  0  0  0
 11  8  1  1  0  0  0
 12 13  2  0  0  0  0
 13 11  1  0  0  0  0
 14  9  2  0  0  0  0
 14 10  1  0  0  0  0
 15 10  1  0  0  0  0
 15 16  2  0  0  0  0
 17 15  2  0  0  0  0
 18 15  1  0  0  0  0
 19 20  1  1  0  0  0
 20 26  1  0  0  0  0
 23 21  1  6  0  0  0
 23 19  1  0  0  0  0
 23 28  1  0  0  0  0
 24 19  1  0  0  0  0
 25 21  1  0  0  0  0
 25 24  1  0  0  0  0
 26 18  1  1  0  0  0
 27 26  1  0  0  0  0
 27 22  2  0  0  0  0
 28 27  1  0  0  0  0
 30 40  1  0  0  0  0
 31 29  1  0  0  0  0
 31 42  2  0  0  0  0
 32 39  2  0  0  0  0
 34 41  1  0  0  0  0
 35 38  1  0  0  0  0
 35 34  2  0  0  0  0
 36 41  1  0  0  0  0
 37 39  1  0  0  0  0
 37 30  2  0  0  0  0
 38 36  2  0  0  0  0
 39 35  1  0  0  0  0
 40 34  1  0  0  0  0
 40 33  1  6  0  0  0
 41 31  1  0  0  0  0
M  END
>  <MODEL>
6

>  <REMARK>
 VINA RESULT:      -8.0      4.090      7.504
  Name = 
  6 active torsions:
  status: ('A' for Active; 'I' for Inactive)
    1  A    between atoms: C_7  and  C_24
    2  A    between atoms: C_10  and  C_31
    3  A    between atoms: N_11  and  S_13
    4  A    between atoms: S_13  and  N_25
    5  A    between atoms: C_18  and  C_31
    6  A    between atoms: N_25  and  C_32
                            x       y       z     vdW  Elec       q    Type
                         _______ _______ _______ _____ _____    ______ ____

>  <TORSDO>
F 6

$$$$
=
 OpenBabel11062419383D

 42 47  0  0  1  0  0  0  0  0999 V2000
  189.1500  172.7000  138.8010 C   0  0  0  0  0  0  0  0  0  0  0  0
  189.9950  174.1650  141.1320 C   0  0  1  0  0  3  0  0  0  0  0  0
  190.3510  172.6670  141.0040 C   0  0  1  0  0  3  0  0  0  0  0  0
  188.5860  174.0730  139.0710 C   0  0  0  0  0  2  0  0  0  0  0  0
  190.0070  172.1050  139.6450 C   0  0  0  0  0  3  0  0  0  0  0  0
  188.9060  172.1190  137.5990 F   0  0  0  0  0  0  0  0  0  0  0  0
  188.6070  174.4270  140.5530 C   0  0  0  0  0  2  0  0  0  0  0  0
  192.0620  176.7250  144.6550 Cl  0  0  0  0  0  0  0  0  0  0  0  0
  189.8380  173.6590  143.6340 C   0  0  0  0  0  3  0  0  0  0  0  0
  189.7750  175.4660  145.2100 N   0  0  0  0  0  0  0  0  0  0  0  0
  190.3460  176.4310  144.2580 C   0  0  2  0  0  3  0  0  0  0  0  0
  190.0510  174.6390  142.5540 C   0  0  0  0  0  0  0  0  0  0  0  0
  190.2460  175.9370  142.8410 C   0  0  0  0  0  3  0  0  0  0  0  0
  189.6970  174.0670  144.8930 C   0  0  0  0  0  3  0  0  0  0  0  0
  189.3570  175.9990  146.8010 S   0  0  0  0  0  0  0  0  0  0  0  0
  189.7770  174.9610  147.8060 O   0  0  0  0  0  0  0  0  0  0  0  0
  190.0590  177.2970  147.0920 O   0  0  0  0  0  0  0  0  0  0  0  0
  187.6410  176.2160  146.8910 N   0  0  0  0  0  2  0  0  0  0  0  0
  185.7590  178.2230  144.3870 C   0  0  2  0  0  3  0  0  0  0  0  0
  186.7160  177.1230  144.8100 C   0  0  0  0  0  2  0  0  0  0  0  0
  183.6920  178.9930  144.7710 O   0  0  0  0  0  0  0  0  0  0  0  0
  186.7870  178.6660  148.2210 O   0  0  0  0  0  0  0  0  0  0  0  0
  184.6730  178.2300  145.3760 C   0  0  2  0  0  3  0  0  0  0  0  0
  185.1030  178.0110  143.1880 O   0  0  0  0  0  0  0  0  0  0  0  0
  183.8640  178.6670  143.4040 C   0  0  0  0  0  2  0  0  0  0  0  0
  187.3050  177.4540  146.2030 C   0  0  1  0  0  3  0  0  0  0  0  0
  186.3950  178.3050  147.0800 C   0  0  0  0  0  0  0  0  0  0  0  0
  185.1650  178.7710  146.5900 O   0  0  0  0  0  0  0  0  0  0  0  0
  191.8330  172.4100  141.2750 C   0  0  0  0  0  2  0  0  0  0  0  0
  194.3130  173.8760  144.7810 C   0  0  0  0  0  3  0  0  0  0  0  0
  192.6990  173.2710  140.4100 C   0  0  0  0  0  0  0  0  0  0  0  0
  196.0920  176.7910  143.8870 O   0  0  0  0  0  0  0  0  0  0  0  0
  194.4230  172.1670  143.1320 O   0  0  0  0  0  1  0  0  0  0  0  0
  194.0160  174.3640  142.3310 C   0  0  0  0  0  0  0  0  0  0  0  0
  194.7750  175.4230  142.4620 C   0  0  0  0  0  0  0  0  0  0  0  0
  194.1750  175.3620  140.2380 C   0  0  0  0  0  3  0  0  0  0  0  0
  195.0360  174.9570  144.8920 N   0  0  0  0  0  0  0  0  0  0  0  0
  194.9300  176.1260  141.2370 N   0  0  0  0  0  0  0  0  0  0  0  0
  195.3530  175.7790  143.7570 C   0  0  0  0  0  0  0  0  0  0  0  0
  193.7890  173.3720  143.4460 C   0  0  2  0  0  3  0  0  0  0  0  0
  193.5890  174.2450  140.9770 N   0  0  0  0  0  0  0  0  0  0  0  0
  192.6180  173.1530  139.1560 O   0  0  0  0  0  0  0  0  0  0  0  0
  1  4  1  0  0  0  0
  1  5  2  0  0  0  0
  2 12  1  1  0  0  0
  3  2  1  0  0  0  0
  3 29  1  6  0  0  0
  4  7  1  0  0  0  0
  5  3  1  0  0  0  0
  6  1  1  0  0  0  0
  7  2  1  0  0  0  0
  9 14  2  0  0  0  0
 10 15  1  0  0  0  0
 11  8  1  1  0  0  0
 11 10  1  0  0  0  0
 12 13  2  0  0  0  0
 12  9  1  0  0  0  0
 13 11  1  0  0  0  0
 14 10  1  0  0  0  0
 15 18  1  0  0  0  0
 15 17  2  0  0  0  0
 15 16  2  0  0  0  0
 19 20  1  1  0  0  0
 19 23  1  0  0  0  0
 20 26  1  0  0  0  0
 23 21  1  6  0  0  0
 23 28  1  0  0  0  0
 24 25  1  0  0  0  0
 24 19  1  0  0  0  0
 25 21  1  0  0  0  0
 26 18  1  1  0  0  0
 26 27  1  0  0  0  0
 27 22  2  0  0  0  0
 28 27  1  0  0  0  0
 30 37  2  0  0  0  0
 31 41  1  0  0  0  0
 31 29  1  0  0  0  0
 34 35  2  0  0  0  0
 34 40  1  0  0  0  0
 35 39  1  0  0  0  0
 36 41  1  0  0  0  0
 36 38  2  0  0  0  0
 38 35  1  0  0  0  0
 39 32  2  0  0  0  0
 39 37  1  0  0  0  0
 40 33  1  6  0  0  0
 40 30  1  0  0  0  0
 41 34  1  0  0  0  0
 42 31  2  0  0  0  0
M  END
>  <MODEL>
7

>  <REMARK>
 VINA RESULT:      -7.9      3.102      5.083
  Name = 
  6 active torsions:
  status: ('A' for Active; 'I' for Inactive)
    1  A    between atoms: C_7  and  C_24
    2  A    between atoms: C_10  and  C_31
    3  A    between atoms: N_11  and  S_13
    4  A    between atoms: S_13  and  N_25
    5  A    between atoms: C_18  and  C_31
    6  A    between atoms: N_25  and  C_32
                            x       y       z     vdW  Elec       q    Type
                         _______ _______ _______ _____ _____    ______ ____

>  <TORSDO>
F 6

$$$$
=
 OpenBabel11062419383D

 42 47  0  0  1  0  0  0  0  0999 V2000
  188.4600  172.9590  142.3450 C   0  0  0  0  0  0  0  0  0  0  0  0
  190.9090  174.1030  143.3380 C   0  0  1  0  0  3  0  0  0  0  0  0
  189.8070  175.0310  142.7830 C   0  0  1  0  0  3  0  0  0  0  0  0
  189.6420  172.0680  142.6330 C   0  0  0  0  0  2  0  0  0  0  0  0
  188.5230  174.2920  142.4890 C   0  0  0  0  0  3  0  0  0  0  0  0
  187.2580  172.3840  142.0860 F   0  0  0  0  0  0  0  0  0  0  0  0
  190.9680  172.8120  142.5260 C   0  0  0  0  0  2  0  0  0  0  0  0
  194.1110  177.1630  145.2410 Cl  0  0  0  0  0  0  0  0  0  0  0  0
  192.7950  175.2710  142.0660 C   0  0  0  0  0  3  0  0  0  0  0  0
  194.8890  175.6830  143.1610 N   0  0  0  0  0  0  0  0  0  0  0  0
  194.3120  175.5480  144.5070 C   0  0  2  0  0  3  0  0  0  0  0  0
  192.2560  174.7640  143.3400 C   0  0  0  0  0  0  0  0  0  0  0  0
  192.9780  174.8550  144.4690 C   0  0  0  0  0  3  0  0  0  0  0  0
  194.0550  175.6960  141.9910 C   0  0  0  0  0  3  0  0  0  0  0  0
  196.5800  176.0110  142.9980 S   0  0  0  0  0  0  0  0  0  0  0  0
  196.9740  175.9170  141.5490 O   0  0  0  0  0  0  0  0  0  0  0  0
  196.8700  177.3940  143.5130 O   0  0  0  0  0  0  0  0  0  0  0  0
  197.4720  174.8370  143.9070 N   0  0  0  0  0  2  0  0  0  0  0  0
  196.5470  171.2680  143.4210 C   0  0  2  0  0  3  0  0  0  0  0  0
  196.8240  172.6800  142.9400 C   0  0  0  0  0  2  0  0  0  0  0  0
  197.4570  169.6140  144.6270 O   0  0  0  0  0  0  0  0  0  0  0  0
  196.6920  173.7910  146.5140 O   0  0  0  0  0  0  0  0  0  0  0  0
  197.5350  170.9850  144.4710 C   0  0  2  0  0  3  0  0  0  0  0  0
  196.7710  170.2680  142.4910 O   0  0  0  0  0  0  0  0  0  0  0  0
  197.1750  169.1820  143.3080 C   0  0  0  0  0  2  0  0  0  0  0  0
  196.6170  173.6770  144.1080 C   0  0  1  0  0  3  0  0  0  0  0  0
  196.8660  173.0810  145.4880 C   0  0  0  0  0  0  0  0  0  0  0  0
  197.1920  171.7240  145.6310 O   0  0  0  0  0  0  0  0  0  0  0  0
  189.4970  176.1820  143.7400 C   0  0  0  0  0  2  0  0  0  0  0  0
  186.3890  176.7850  146.9910 C   0  0  0  0  0  3  0  0  0  0  0  0
  188.8450  177.3220  143.0230 C   0  0  0  0  0  0  0  0  0  0  0  0
  183.6910  178.7020  145.7640 O   0  0  0  0  0  0  0  0  0  0  0  0
  188.5150  177.6660  146.3950 O   0  0  0  0  0  1  0  0  0  0  0  0
  186.8880  177.6080  144.6670 C   0  0  0  0  0  0  0  0  0  0  0  0
  185.7210  178.2000  144.6400 C   0  0  0  0  0  0  0  0  0  0  0  0
  186.7000  178.6660  142.6060 C   0  0  0  0  0  3  0  0  0  0  0  0
  185.2150  177.3520  146.9230 N   0  0  0  0  0  0  0  0  0  0  0  0
  185.4900  178.8710  143.4080 N   0  0  0  0  0  0  0  0  0  0  0  0
  184.8100  178.1260  145.7820 C   0  0  0  0  0  0  0  0  0  0  0  0
  187.4360  176.9290  145.8990 C   0  0  2  0  0  3  0  0  0  0  0  0
  187.5710  177.8370  143.4390 N   0  0  0  0  0  0  0  0  0  0  0  0
  189.4210  177.8160  142.0130 O   0  0  0  0  0  0  0  0  0  0  0  0
  1  5  2  0  0  0  0
  1  4  1  0  0  0  0
  2 12  1  6  0  0  0
  3  2  1  0  0  0  0
  3 29  1  1  0  0  0
  5  3  1  0  0  0  0
  6  1  1  0  0  0  0
  7  4  1  0  0  0  0
  7  2  1  0  0  0  0
  9 12  1  0  0  0  0
 10 11  1  0  0  0  0
 11  8  1  6  0  0  0
 12 13  2  0  0  0  0
 13 11  1  0  0  0  0
 14  9  2  0  0  0  0
 14 10  1  0  0  0  0
 15 10  1  0  0  0  0
 15 17  2  0  0  0  0
 15 18  1  0  0  0  0
 16 15  2  0  0  0  0
 19 20  1  6  0  0  0
 19 23  1  0  0  0  0
 20 26  1  0  0  0  0
 23 21  1  1  0  0  0
 23 28  1  0  0  0  0
 24 25  1  0  0  0  0
 24 19  1  0  0  0  0
 25 21  1  0  0  0  0
 26 18  1  6  0  0  0
 26 27  1  0  0  0  0
 27 28  1  0  0  0  0
 27 22  2  0  0  0  0
 31 41  1  0  0  0  0
 31 29  1  0  0  0  0
 32 39  2  0  0  0  0
 34 40  1  0  0  0  0
 35 34  2  0  0  0  0
 35 39  1  0  0  0  0
 36 38  2  0  0  0  0
 36 41  1  0  0  0  0
 37 30  2  0  0  0  0
 38 35  1  0  0  0  0
 39 37  1  0  0  0  0
 40 33  1  1  0  0  0
 40 30  1  0  0  0  0
 41 34  1  0  0  0  0
 42 31  2  0  0  0  0
M  END
>  <MODEL>
8

>  <REMARK>
 VINA RESULT:      -7.9      4.604      9.557
  Name = 
  6 active torsions:
  status: ('A' for Active; 'I' for Inactive)
    1  A    between atoms: C_7  and  C_24
    2  A    between atoms: C_10  and  C_31
    3  A    between atoms: N_11  and  S_13
    4  A    between atoms: S_13  and  N_25
    5  A    between atoms: C_18  and  C_31
    6  A    between atoms: N_25  and  C_32
                            x       y       z     vdW  Elec       q    Type
                         _______ _______ _______ _____ _____    ______ ____

>  <TORSDO>
F 6

$$$$
=
 OpenBabel11062419383D

 42 47  0  0  1  0  0  0  0  0999 V2000
  184.5740  178.2690  143.4730 C   0  0  0  0  0  0  0  0  0  0  0  0
  187.3300  177.8580  144.2000 C   0  0  1  0  0  3  0  0  0  0  0  0
  186.7870  177.2370  142.8940 C   0  0  1  0  0  3  0  0  0  0  0  0
  185.0470  178.6290  144.8590 C   0  0  0  0  0  2  0  0  0  0  0  0
  185.3910  177.7090  142.5660 C   0  0  0  0  0  3  0  0  0  0  0  0
  183.3360  178.6650  143.0820 F   0  0  0  0  0  0  0  0  0  0  0  0
  186.2600  177.8130  145.2880 C   0  0  0  0  0  2  0  0  0  0  0  0
  189.6550  175.0540  147.3580 Cl  0  0  0  0  0  0  0  0  0  0  0  0
  189.8410  177.9170  144.6820 C   0  0  0  0  0  3  0  0  0  0  0  0
  190.9980  175.8820  145.2050 N   0  0  0  0  0  0  0  0  0  0  0  0
  189.7650  175.1740  145.5790 C   0  0  2  0  0  3  0  0  0  0  0  0
  188.5730  177.1670  144.6800 C   0  0  0  0  0  0  0  0  0  0  0  0
  188.5430  175.8780  145.0570 C   0  0  0  0  0  3  0  0  0  0  0  0
  190.9910  177.2910  144.9230 C   0  0  0  0  0  3  0  0  0  0  0  0
  192.5080  175.0420  145.2810 S   0  0  0  0  0  0  0  0  0  0  0  0
  193.3150  175.3420  144.0470 O   0  0  0  0  0  0  0  0  0  0  0  0
  193.2650  175.4880  146.5020 O   0  0  0  0  0  0  0  0  0  0  0  0
  192.2020  173.3380  145.3590 N   0  0  0  0  0  2  0  0  0  0  0  0
  195.3970  171.4340  145.3220 C   0  0  2  0  0  3  0  0  0  0  0  0
  194.5410  172.6510  145.6190 C   0  0  0  0  0  2  0  0  0  0  0  0
  195.4840  169.2230  145.6670 O   0  0  0  0  0  0  0  0  0  0  0  0
  191.8720  171.1460  143.4640 O   0  0  0  0  0  0  0  0  0  0  0  0
  194.5700  170.2600  145.6310 C   0  0  2  0  0  3  0  0  0  0  0  0
  196.5040  171.2730  146.1360 O   0  0  0  0  0  0  0  0  0  0  0  0
  196.6360  169.8620  146.1880 C   0  0  0  0  0  2  0  0  0  0  0  0
  193.2990  172.6520  144.6920 C   0  0  1  0  0  3  0  0  0  0  0  0
  192.8510  171.2650  144.2490 C   0  0  0  0  0  0  0  0  0  0  0  0
  193.5770  170.1250  144.6290 O   0  0  0  0  0  0  0  0  0  0  0  0
  187.6940  177.5390  141.7010 C   0  0  0  0  0  2  0  0  0  0  0  0
  189.6180  173.4310  141.6030 C   0  0  0  0  0  3  0  0  0  0  0  0
  187.0330  177.1680  140.4110 C   0  0  0  0  0  0  0  0  0  0  0  0
  189.4300  172.0690  138.3520 O   0  0  0  0  0  0  0  0  0  0  0  0
  187.5770  174.4090  142.3310 O   0  0  0  0  0  1  0  0  0  0  0  0
  188.2440  174.9180  140.1110 C   0  0  0  0  0  0  0  0  0  0  0  0
  188.4440  174.0880  139.1190 C   0  0  0  0  0  0  0  0  0  0  0  0
  187.1310  175.7750  138.2590 C   0  0  0  0  0  3  0  0  0  0  0  0
  189.8340  172.6390  140.5880 N   0  0  0  0  0  0  0  0  0  0  0  0
  187.8170  174.5230  137.9210 N   0  0  0  0  0  0  0  0  0  0  0  0
  189.2420  172.8760  139.3000 C   0  0  0  0  0  0  0  0  0  0  0  0
  188.6940  174.6350  141.5230 C   0  0  2  0  0  3  0  0  0  0  0  0
  187.4380  176.0070  139.6700 N   0  0  0  0  0  0  0  0  0  0  0  0
  186.1200  177.9130  139.9570 O   0  0  0  0  0  0  0  0  0  0  0  0
  1  4  1  0  0  0  0
  2 12  1  1  0  0  0
  2  7  1  0  0  0  0
  3 29  1  6  0  0  0
  3  2  1  0  0  0  0
  4  7  1  0  0  0  0
  5  3  1  0  0  0  0
  5  1  2  0  0  0  0
  6  1  1  0  0  0  0
  9 14  2  0  0  0  0
 10 15  1  0  0  0  0
 10 11  1  0  0  0  0
 11  8  1  1  0  0  0
 12  9  1  0  0  0  0
 12 13  2  0  0  0  0
 13 11  1  0  0  0  0
 14 10  1  0  0  0  0
 15 18  1  0  0  0  0
 15 17  2  0  0  0  0
 16 15  2  0  0  0  0
 19 20  1  1  0  0  0
 19 23  1  0  0  0  0
 19 24  1  0  0  0  0
 21 25  1  0  0  0  0
 22 27  2  0  0  0  0
 23 28  1  6  0  0  0
 23 21  1  0  0  0  0
 24 25  1  0  0  0  0
 26 18  1  1  0  0  0
 26 20  1  0  0  0  0
 27 28  1  0  0  0  0
 27 26  1  0  0  0  0
 31 29  1  0  0  0  0
 32 39  2  0  0  0  0
 34 40  1  0  0  0  0
 35 39  1  0  0  0  0
 35 34  2  0  0  0  0
 36 41  1  0  0  0  0
 37 30  2  0  0  0  0
 38 36  2  0  0  0  0
 38 35  1  0  0  0  0
 39 37  1  0  0  0  0
 40 30  1  0  0  0  0
 40 33  1  1  0  0  0
 41 34  1  0  0  0  0
 41 31  1  0  0  0  0
 42 31  2  0  0  0  0
M  END
>  <MODEL>
9

>  <REMARK>
 VINA RESULT:      -7.8      3.684      7.879
  Name = 
  6 active torsions:
  status: ('A' for Active; 'I' for Inactive)
    1  A    between atoms: C_7  and  C_24
    2  A    between atoms: C_10  and  C_31
    3  A    between atoms: N_11  and  S_13
    4  A    between atoms: S_13  and  N_25
    5  A    between atoms: C_18  and  C_31
    6  A    between atoms: N_25  and  C_32
                            x       y       z     vdW  Elec       q    Type
                         _______ _______ _______ _____ _____    ______ ____

>  <TORSDO>
F 6

$$$$
