=
 OpenBabel11062421263D

 31 34  0  0  1  0  0  0  0  0999 V2000
  187.7980  177.0810  144.2510 C   0  0  0  0  0  0  0  0  0  0  0  0
  186.0050  176.7820  145.8310 C   0  0  2  0  0  3  0  0  0  0  0  0
  187.4330  177.3550  146.8350 S   0  0  0  0  0  0  0  0  0  0  0  0
  188.4360  177.4200  145.3550 C   0  0  2  0  0  3  0  0  0  0  0  0
  186.4380  176.7210  144.4420 N   0  0  0  0  0  0  0  0  0  0  0  0
  188.5700  175.6900  142.3890 C   0  0  1  0  0  3  0  0  0  0  0  0
  189.6230  174.9510  142.3690 N   0  0  0  0  0  2  0  0  0  0  0  0
  187.4040  176.6890  140.7540 N   0  0  0  0  0  0  0  0  0  0  0  0
  188.4450  177.0700  142.9010 C   0  0  1  0  0  3  0  0  0  0  0  0
  188.5120  174.5920  140.3830 N   0  0  0  0  0  0  0  0  0  0  0  0
  187.8880  175.5780  141.1790 C   0  0  0  0  0  0  0  0  0  0  0  0
  187.5020  177.6810  141.8330 C   0  0  0  0  0  2  0  0  0  0  0  0
  189.5110  174.2180  141.1330 C   0  0  0  0  0  3  0  0  0  0  0  0
  184.8310  177.7450  145.9750 C   0  0  2  0  0  3  0  0  0  0  0  0
  184.4510  178.2250  144.7210 O   0  0  0  0  0  1  0  0  0  0  0  0
  185.2180  178.9230  146.8510 C   0  0  0  0  0  1  0  0  0  0  0  0
  189.8120  177.8070  145.3590 N   0  0  0  0  0  2  0  0  0  0  0  0
  190.8860  176.8380  145.2230 C   0  0  0  0  0  2  0  0  0  0  0  0
  190.8940  175.8980  146.4190 C   0  0  1  0  0  3  0  0  0  0  0  0
  190.3460  174.5320  146.0280 C   0  0  0  0  0  2  0  0  0  0  0  0
  189.2470  174.2120  146.8240 O   0  0  0  0  0  1  0  0  0  0  0  0
  192.3040  175.7810  146.9890 C   0  0  0  0  0  2  0  0  0  0  0  0
  193.1040  174.9720  146.1760 O   0  0  0  0  0  0  0  0  0  0  0  0
  194.9660  173.8730  144.6310 O   0  0  0  0  0  1  0  0  0  0  0  0
  194.4070  176.9420  146.3510 C   0  0  0  0  0  2  0  0  0  0  0  0
  194.6410  177.3930  145.0340 O   0  0  0  0  0  0  0  0  0  0  0  0
  194.4080  175.4320  146.3840 C   0  0  2  0  0  3  0  0  0  0  0  0
  194.0330  176.0050  143.1940 C   0  0  0  0  0  1  0  0  0  0  0  0
  195.0740  176.2900  144.2700 C   0  0  0  0  0  0  0  0  0  0  0  0
  196.3890  176.6300  143.5990 C   0  0  0  0  0  1  0  0  0  0  0  0
  195.2820  175.1090  145.2090 C   0  0  2  0  0  3  0  0  0  0  0  0
  1  5  2  0  0  0  0
  1  4  1  0  0  0  0
  2 14  1  6  0  0  0
  2  3  1  0  0  0  0
  4 17  1  6  0  0  0
  4  3  1  0  0  0  0
  5  2  1  0  0  0  0
  6 11  1  6  0  0  0
  6  9  1  0  0  0  0
  7  6  1  0  0  0  0
  8 11  2  0  0  0  0
  8 12  1  0  0  0  0
  9  1  1  1  0  0  0
 10 13  2  0  0  0  0
 10 11  1  0  0  0  0
 12  9  1  0  0  0  0
 13  7  1  0  0  0  0
 14 16  1  1  0  0  0
 15 14  1  0  0  0  0
 18 17  1  0  0  0  0
 19 18  1  6  0  0  0
 19 22  1  0  0  0  0
 20 19  1  0  0  0  0
 20 21  1  0  0  0  0
 23 22  1  0  0  0  0
 25 27  1  0  0  0  0
 26 25  1  0  0  0  0
 27 23  1  6  0  0  0
 28 29  1  0  0  0  0
 29 26  1  0  0  0  0
 29 31  1  0  0  0  0
 30 29  1  0  0  0  0
 31 24  1  6  0  0  0
 31 27  1  0  0  0  0
M  END
>  <MODEL>
1

>  <REMARK>
 VINA RESULT:      -6.7      0.000      0.000
  Name = 
  9 active torsions:
  status: ('A' for Active; 'I' for Inactive)
    1  A    between atoms: C_2  and  C_10
    2  A    between atoms: C_3  and  C_4
    3  A    between atoms: C_3  and  C_18
    4  A    between atoms: C_3  and  C_19
    5  A    between atoms: C_4  and  N_17
    6  A    between atoms: C_8  and  C_25
    7  A    between atoms: C_13  and  O_15
    8  A    between atoms: O_15  and  C_18
    9  A    between atoms: N_17  and  C_30
                            x       y       z     vdW  Elec       q    Type
                         _______ _______ _______ _____ _____    ______ ____

>  <TORSDO>
F 9

$$$$
=
 OpenBabel11062421263D

 31 34  0  0  1  0  0  0  0  0999 V2000
  187.4660  177.1130  144.4290 C   0  0  0  0  0  0  0  0  0  0  0  0
  185.5400  176.8160  145.8430 C   0  0  2  0  0  3  0  0  0  0  0  0
  186.9280  177.1530  146.9970 S   0  0  0  0  0  0  0  0  0  0  0  0
  188.0440  177.2780  145.6040 C   0  0  2  0  0  3  0  0  0  0  0  0
  186.0710  176.8580  144.4880 N   0  0  0  0  0  0  0  0  0  0  0  0
  188.3320  175.8400  142.5230 C   0  0  1  0  0  3  0  0  0  0  0  0
  189.3610  175.0680  142.5210 N   0  0  0  0  0  2  0  0  0  0  0  0
  187.3220  177.0030  140.8920 N   0  0  0  0  0  0  0  0  0  0  0  0
  188.2110  177.1810  143.1320 C   0  0  1  0  0  3  0  0  0  0  0  0
  188.3900  174.9010  140.4390 N   0  0  0  0  0  0  0  0  0  0  0  0
  187.7390  175.8460  141.2630 C   0  0  0  0  0  0  0  0  0  0  0  0
  187.3700  177.9050  142.0500 C   0  0  0  0  0  2  0  0  0  0  0  0
  189.3190  174.4350  141.2260 C   0  0  0  0  0  3  0  0  0  0  0  0
  184.4410  177.8610  146.0110 C   0  0  2  0  0  3  0  0  0  0  0  0
  184.2570  178.5560  144.8160 O   0  0  0  0  0  1  0  0  0  0  0  0
  184.8160  178.8510  147.0990 C   0  0  0  0  0  1  0  0  0  0  0  0
  189.4430  177.5380  145.7420 N   0  0  0  0  0  2  0  0  0  0  0  0
  190.1530  177.2920  146.9850 C   0  0  0  0  0  2  0  0  0  0  0  0
  190.8270  175.9300  146.9400 C   0  0  1  0  0  3  0  0  0  0  0  0
  189.9140  174.8620  147.5270 C   0  0  0  0  0  2  0  0  0  0  0  0
  189.3180  174.1280  146.5030 O   0  0  0  0  0  1  0  0  0  0  0  0
  191.2240  175.5850  145.5080 C   0  0  0  0  0  2  0  0  0  0  0  0
  192.6100  175.4260  145.4000 O   0  0  0  0  0  0  0  0  0  0  0  0
  194.6760  176.8480  146.2780 O   0  0  0  0  0  1  0  0  0  0  0  0
  193.2140  175.9210  143.1640 C   0  0  0  0  0  2  0  0  0  0  0  0
  194.5450  175.4820  142.9950 O   0  0  0  0  0  0  0  0  0  0  0  0
  193.0260  176.4650  144.5610 C   0  0  2  0  0  3  0  0  0  0  0  0
  195.7940  174.7680  144.8970 C   0  0  0  0  0  1  0  0  0  0  0  0
  195.3000  175.9600  144.0860 C   0  0  0  0  0  0  0  0  0  0  0  0
  196.4990  176.7280  143.5670 C   0  0  0  0  0  1  0  0  0  0  0  0
  194.4210  176.8980  144.9020 C   0  0  2  0  0  3  0  0  0  0  0  0
  1  5  2  0  0  0  0
  1  4  1  0  0  0  0
  2 14  1  6  0  0  0
  2  3  1  0  0  0  0
  4 17  1  6  0  0  0
  4  3  1  0  0  0  0
  5  2  1  0  0  0  0
  6 11  1  6  0  0  0
  6  9  1  0  0  0  0
  7  6  1  0  0  0  0
  8 11  2  0  0  0  0
  8 12  1  0  0  0  0
  9  1  1  1  0  0  0
 10 13  2  0  0  0  0
 10 11  1  0  0  0  0
 12  9  1  0  0  0  0
 13  7  1  0  0  0  0
 14 16  1  1  0  0  0
 15 14  1  0  0  0  0
 17 18  1  0  0  0  0
 19 22  1  6  0  0  0
 19 18  1  0  0  0  0
 19 20  1  0  0  0  0
 21 20  1  0  0  0  0
 23 22  1  0  0  0  0
 25 27  1  0  0  0  0
 26 25  1  0  0  0  0
 26 29  1  0  0  0  0
 27 31  1  0  0  0  0
 27 23  1  1  0  0  0
 29 28  1  0  0  0  0
 29 31  1  0  0  0  0
 30 29  1  0  0  0  0
 31 24  1  1  0  0  0
M  END
>  <MODEL>
2

>  <REMARK>
 VINA RESULT:      -6.7      0.907      1.440
  Name = 
  9 active torsions:
  status: ('A' for Active; 'I' for Inactive)
    1  A    between atoms: C_2  and  C_10
    2  A    between atoms: C_3  and  C_4
    3  A    between atoms: C_3  and  C_18
    4  A    between atoms: C_3  and  C_19
    5  A    between atoms: C_4  and  N_17
    6  A    between atoms: C_8  and  C_25
    7  A    between atoms: C_13  and  O_15
    8  A    between atoms: O_15  and  C_18
    9  A    between atoms: N_17  and  C_30
                            x       y       z     vdW  Elec       q    Type
                         _______ _______ _______ _____ _____    ______ ____

>  <TORSDO>
F 9

$$$$
=
 OpenBabel11062421263D

 31 34  0  0  1  0  0  0  0  0999 V2000
  187.3690  177.0520  144.3900 C   0  0  0  0  0  0  0  0  0  0  0  0
  185.4190  176.8720  145.7910 C   0  0  2  0  0  3  0  0  0  0  0  0
  186.8340  176.9760  146.9570 S   0  0  0  0  0  0  0  0  0  0  0  0
  187.9600  177.0740  145.5690 C   0  0  2  0  0  3  0  0  0  0  0  0
  185.9550  176.9470  144.4390 N   0  0  0  0  0  0  0  0  0  0  0  0
  188.2850  175.7810  142.5060 C   0  0  1  0  0  3  0  0  0  0  0  0
  189.3370  175.0410  142.5190 N   0  0  0  0  0  2  0  0  0  0  0  0
  187.2490  176.8920  140.8540 N   0  0  0  0  0  0  0  0  0  0  0  0
  188.1200  177.1260  143.0960 C   0  0  1  0  0  3  0  0  0  0  0  0
  188.3840  174.8180  140.4340 N   0  0  0  0  0  0  0  0  0  0  0  0
  187.6990  175.7530  141.2420 C   0  0  0  0  0  0  0  0  0  0  0  0
  187.2630  177.8100  142.0000 C   0  0  0  0  0  2  0  0  0  0  0  0
  189.3220  174.3910  141.2320 C   0  0  0  0  0  3  0  0  0  0  0  0
  184.4410  178.0170  146.0350 C   0  0  2  0  0  3  0  0  0  0  0  0
  184.5180  178.9410  144.9930 O   0  0  0  0  0  1  0  0  0  0  0  0
  184.7680  178.7220  147.3380 C   0  0  0  0  0  1  0  0  0  0  0  0
  189.3780  177.1690  145.7170 N   0  0  0  0  0  2  0  0  0  0  0  0
  190.2030  176.0080  146.0010 C   0  0  0  0  0  2  0  0  0  0  0  0
  191.5310  176.1210  145.2700 C   0  0  1  0  0  3  0  0  0  0  0  0
  191.5420  177.3490  144.3690 C   0  0  0  0  0  2  0  0  0  0  0  0
  192.0540  177.0170  143.1160 O   0  0  0  0  0  1  0  0  0  0  0  0
  192.6830  176.1650  146.2700 C   0  0  0  0  0  2  0  0  0  0  0  0
  193.5390  175.0720  146.0920 O   0  0  0  0  0  0  0  0  0  0  0  0
  195.5290  173.3660  145.6600 O   0  0  0  0  0  1  0  0  0  0  0  0
  194.9400  176.8740  145.4580 C   0  0  0  0  0  2  0  0  0  0  0  0
  195.4050  176.5880  144.1560 O   0  0  0  0  0  0  0  0  0  0  0  0
  194.8260  175.5950  146.2540 C   0  0  2  0  0  3  0  0  0  0  0  0
  194.9850  174.4420  143.2050 C   0  0  0  0  0  1  0  0  0  0  0  0
  195.8670  175.2560  144.1450 C   0  0  0  0  0  0  0  0  0  0  0  0
  197.2910  175.2240  143.6270 C   0  0  0  0  0  1  0  0  0  0  0  0
  195.8420  174.7290  145.5730 C   0  0  2  0  0  3  0  0  0  0  0  0
  1  5  2  0  0  0  0
  1  4  1  0  0  0  0
  2 14  1  1  0  0  0
  2  3  1  0  0  0  0
  4 17  1  1  0  0  0
  4  3  1  0  0  0  0
  5  2  1  0  0  0  0
  6 11  1  6  0  0  0
  6  7  1  0  0  0  0
  6  9  1  0  0  0  0
  8 11  2  0  0  0  0
  8 12  1  0  0  0  0
  9  1  1  1  0  0  0
 10 13  2  0  0  0  0
 10 11  1  0  0  0  0
 12  9  1  0  0  0  0
 13  7  1  0  0  0  0
 14 16  1  1  0  0  0
 15 14  1  0  0  0  0
 17 18  1  0  0  0  0
 19 20  1  1  0  0  0
 19 18  1  0  0  0  0
 19 22  1  0  0  0  0
 21 20  1  0  0  0  0
 23 22  1  0  0  0  0
 25 27  1  0  0  0  0
 26 25  1  0  0  0  0
 27 23  1  6  0  0  0
 28 29  1  0  0  0  0
 29 26  1  0  0  0  0
 29 31  1  0  0  0  0
 30 29  1  0  0  0  0
 31 24  1  6  0  0  0
 31 27  1  0  0  0  0
M  END
>  <MODEL>
3

>  <REMARK>
 VINA RESULT:      -6.5      1.165      1.438
  Name = 
  9 active torsions:
  status: ('A' for Active; 'I' for Inactive)
    1  A    between atoms: C_2  and  C_10
    2  A    between atoms: C_3  and  C_4
    3  A    between atoms: C_3  and  C_18
    4  A    between atoms: C_3  and  C_19
    5  A    between atoms: C_4  and  N_17
    6  A    between atoms: C_8  and  C_25
    7  A    between atoms: C_13  and  O_15
    8  A    between atoms: O_15  and  C_18
    9  A    between atoms: N_17  and  C_30
                            x       y       z     vdW  Elec       q    Type
                         _______ _______ _______ _____ _____    ______ ____

>  <TORSDO>
F 9

$$$$
=
 OpenBabel11062421263D

 31 34  0  0  1  0  0  0  0  0999 V2000
  191.4250  174.2880  144.0560 C   0  0  0  0  0  0  0  0  0  0  0  0
  193.8000  174.0310  144.3600 C   0  0  2  0  0  3  0  0  0  0  0  0
  193.4350  175.7450  144.9080 S   0  0  0  0  0  0  0  0  0  0  0  0
  191.7070  175.4920  144.5170 C   0  0  2  0  0  3  0  0  0  0  0  0
  192.5440  173.4200  143.9490 N   0  0  0  0  0  0  0  0  0  0  0  0
  189.8670  173.9110  142.2040 C   0  0  1  0  0  3  0  0  0  0  0  0
  189.2600  174.8140  141.5170 N   0  0  0  0  0  2  0  0  0  0  0  0
  189.3570  171.7750  142.6610 N   0  0  0  0  0  0  0  0  0  0  0  0
  190.0430  173.8600  143.6700 C   0  0  1  0  0  3  0  0  0  0  0  0
  188.7300  172.7810  140.5730 N   0  0  0  0  0  0  0  0  0  0  0  0
  189.5270  172.6450  141.7320 C   0  0  0  0  0  0  0  0  0  0  0  0
  189.8440  172.3440  143.9240 C   0  0  0  0  0  2  0  0  0  0  0  0
  188.6240  174.0750  140.4550 C   0  0  0  0  0  3  0  0  0  0  0  0
  194.4290  173.2290  145.4950 C   0  0  2  0  0  3  0  0  0  0  0  0
  195.8180  173.3500  145.4530 O   0  0  0  0  0  1  0  0  0  0  0  0
  194.0630  171.7610  145.3700 C   0  0  0  0  0  1  0  0  0  0  0  0
  190.7100  176.5010  144.6880 N   0  0  0  0  0  2  0  0  0  0  0  0
  190.1690  176.8360  145.9940 C   0  0  0  0  0  2  0  0  0  0  0  0
  188.9060  176.0320  146.2570 C   0  0  1  0  0  3  0  0  0  0  0  0
  189.1860  174.9060  147.2440 C   0  0  0  0  0  2  0  0  0  0  0  0
  190.4410  175.0810  147.8250 O   0  0  0  0  0  1  0  0  0  0  0  0
  187.7950  176.9440  146.7680 C   0  0  0  0  0  2  0  0  0  0  0  0
  187.3570  177.8080  145.7580 O   0  0  0  0  0  0  0  0  0  0  0  0
  184.7010  177.7850  145.8240 O   0  0  0  0  0  1  0  0  0  0  0  0
  187.3080  177.2740  143.4510 C   0  0  0  0  0  2  0  0  0  0  0  0
  186.5400  178.2750  142.8180 O   0  0  0  0  0  0  0  0  0  0  0  0
  186.7380  176.9770  144.8180 C   0  0  2  0  0  3  0  0  0  0  0  0
  185.3410  179.8490  144.1470 C   0  0  0  0  0  1  0  0  0  0  0  0
  185.3530  178.4430  143.5600 C   0  0  0  0  0  0  0  0  0  0  0  0
  184.1590  178.2880  142.6390 C   0  0  0  0  0  1  0  0  0  0  0  0
  185.3010  177.3620  144.6310 C   0  0  2  0  0  3  0  0  0  0  0  0
  1  4  1  0  0  0  0
  2  3  1  0  0  0  0
  2 14  1  1  0  0  0
  4 17  1  1  0  0  0
  4  3  1  0  0  0  0
  5  1  2  0  0  0  0
  5  2  1  0  0  0  0
  6  7  1  1  0  0  0
  6  9  1  0  0  0  0
  8 12  1  0  0  0  0
  9 12  1  0  0  0  0
  9  1  1  6  0  0  0
 10 11  1  0  0  0  0
 11  6  1  0  0  0  0
 11  8  2  0  0  0  0
 13 10  2  0  0  0  0
 13  7  1  0  0  0  0
 14 16  1  6  0  0  0
 15 14  1  0  0  0  0
 17 18  1  0  0  0  0
 19 18  1  1  0  0  0
 19 22  1  0  0  0  0
 19 20  1  0  0  0  0
 20 21  1  0  0  0  0
 23 22  1  0  0  0  0
 25 27  1  0  0  0  0
 26 25  1  0  0  0  0
 26 29  1  0  0  0  0
 27 23  1  1  0  0  0
 29 28  1  0  0  0  0
 29 31  1  0  0  0  0
 30 29  1  0  0  0  0
 31 27  1  0  0  0  0
 31 24  1  1  0  0  0
M  END
>  <MODEL>
4

>  <REMARK>
 VINA RESULT:      -6.3      2.524      7.055
  Name = 
  9 active torsions:
  status: ('A' for Active; 'I' for Inactive)
    1  A    between atoms: C_2  and  C_10
    2  A    between atoms: C_3  and  C_4
    3  A    between atoms: C_3  and  C_18
    4  A    between atoms: C_3  and  C_19
    5  A    between atoms: C_4  and  N_17
    6  A    between atoms: C_8  and  C_25
    7  A    between atoms: C_13  and  O_15
    8  A    between atoms: O_15  and  C_18
    9  A    between atoms: N_17  and  C_30
                            x       y       z     vdW  Elec       q    Type
                         _______ _______ _______ _____ _____    ______ ____

>  <TORSDO>
F 9

$$$$
=
 OpenBabel11062421263D

 31 34  0  0  1  0  0  0  0  0999 V2000
  188.4360  176.9520  144.3450 C   0  0  0  0  0  0  0  0  0  0  0  0
  188.4830  175.9710  142.1460 C   0  0  2  0  0  3  0  0  0  0  0  0
  190.2440  176.0840  142.6540 S   0  0  0  0  0  0  0  0  0  0  0  0
  189.7410  176.8200  144.2050 C   0  0  0  0  0  0  0  0  0  0  0  0
  187.6740  176.4930  143.2390 N   0  0  0  0  0  0  0  0  0  0  0  0
  186.3870  177.8910  145.3040 C   0  0  1  0  0  3  0  0  0  0  0  0
  185.8970  179.0590  145.0740 N   0  0  0  0  0  2  0  0  0  0  0  0
  186.2040  176.5040  147.0590 N   0  0  0  0  0  0  0  0  0  0  0  0
  187.7980  177.5400  145.5650 C   0  0  1  0  0  3  0  0  0  0  0  0
  184.3980  177.9570  146.4320 N   0  0  0  0  0  0  0  0  0  0  0  0
  185.5620  177.1960  146.1860 C   0  0  0  0  0  0  0  0  0  0  0  0
  187.6190  176.4630  146.6670 C   0  0  0  0  0  2  0  0  0  0  0  0
  184.6140  179.0340  145.7300 C   0  0  0  0  0  3  0  0  0  0  0  0
  188.1020  174.5230  141.8540 C   0  0  2  0  0  3  0  0  0  0  0  0
  188.7210  173.6720  142.7710 O   0  0  0  0  0  1  0  0  0  0  0  0
  188.5410  174.1340  140.4540 C   0  0  0  0  0  1  0  0  0  0  0  0
  190.6670  177.2310  145.2130 N   0  0  0  0  0  0  0  0  0  0  0  0
  192.0760  176.8800  145.1540 C   0  0  0  0  0  2  0  0  0  0  0  0
  192.5490  176.3940  146.5150 C   0  0  1  0  0  3  0  0  0  0  0  0
  191.8160  175.1190  146.9110 C   0  0  0  0  0  2  0  0  0  0  0  0
  191.0110  175.3570  148.0240 O   0  0  0  0  0  1  0  0  0  0  0  0
  194.0590  176.1770  146.5040 C   0  0  0  0  0  2  0  0  0  0  0  0
  194.5740  176.3350  145.2120 O   0  0  0  0  0  0  0  0  0  0  0  0
  194.5240  175.9960  142.5770 O   0  0  0  0  0  1  0  0  0  0  0  0
  196.0960  174.5320  145.4190 C   0  0  0  0  0  2  0  0  0  0  0  0
  197.2080  174.8440  144.6070 O   0  0  0  0  0  0  0  0  0  0  0  0
  194.8280  175.0330  144.7670 C   0  0  2  0  0  3  0  0  0  0  0  0
  197.1000  176.7200  143.1400 C   0  0  0  0  0  1  0  0  0  0  0  0
  196.7240  175.2580  143.3500 C   0  0  0  0  0  0  0  0  0  0  0  0
  197.3740  174.4260  142.2630 C   0  0  0  0  0  1  0  0  0  0  0  0
  195.2180  175.0320  143.3190 C   0  0  2  0  0  3  0  0  0  0  0  0
  2 14  1  1  0  0  0
  2  3  1  0  0  0  0
  2  5  1  0  0  0  0
  3  4  1  0  0  0  0
  4  1  1  0  0  0  0
  4 17  2  0  0  0  0
  5  1  2  0  0  0  0
  6  7  1  1  0  0  0
  6  9  1  0  0  0  0
  6 11  1  0  0  0  0
  7 13  1  0  0  0  0
  9  1  1  6  0  0  0
  9 12  1  0  0  0  0
 11 10  1  0  0  0  0
 11  8  2  0  0  0  0
 12  8  1  0  0  0  0
 13 10  2  0  0  0  0
 14 16  1  6  0  0  0
 14 15  1  0  0  0  0
 18 17  1  0  0  0  0
 19 18  1  6  0  0  0
 19 20  1  0  0  0  0
 20 21  1  0  0  0  0
 22 19  1  0  0  0  0
 23 22  1  0  0  0  0
 26 25  1  0  0  0  0
 27 23  1  1  0  0  0
 27 25  1  0  0  0  0
 28 29  1  0  0  0  0
 29 26  1  0  0  0  0
 30 29  1  0  0  0  0
 31 24  1  6  0  0  0
 31 29  1  0  0  0  0
 31 27  1  0  0  0  0
M  END
>  <MODEL>
5

>  <REMARK>
 VINA RESULT:      -6.2      2.156      4.361
  Name = 
  9 active torsions:
  status: ('A' for Active; 'I' for Inactive)
    1  A    between atoms: C_2  and  C_10
    2  A    between atoms: C_3  and  C_4
    3  A    between atoms: C_3  and  C_18
    4  A    between atoms: C_3  and  C_19
    5  A    between atoms: C_4  and  N_17
    6  A    between atoms: C_8  and  C_25
    7  A    between atoms: C_13  and  O_15
    8  A    between atoms: O_15  and  C_18
    9  A    between atoms: N_17  and  C_30
                            x       y       z     vdW  Elec       q    Type
                         _______ _______ _______ _____ _____    ______ ____

>  <TORSDO>
F 9

$$$$
=
 OpenBabel11062421263D

 31 34  0  0  1  0  0  0  0  0999 V2000
  187.4270  176.9710  144.5910 C   0  0  0  0  0  0  0  0  0  0  0  0
  185.4330  176.8830  145.9380 C   0  0  2  0  0  3  0  0  0  0  0  0
  186.8200  176.7520  147.1340 S   0  0  0  0  0  0  0  0  0  0  0  0
  187.9860  176.8410  145.7800 C   0  0  2  0  0  3  0  0  0  0  0  0
  186.0090  177.0080  144.6060 N   0  0  0  0  0  0  0  0  0  0  0  0
  188.1980  175.7840  142.5920 C   0  0  1  0  0  3  0  0  0  0  0  0
  189.1290  174.8980  142.5370 N   0  0  0  0  0  2  0  0  0  0  0  0
  187.3810  177.2030  141.0580 N   0  0  0  0  0  0  0  0  0  0  0  0
  188.2150  177.0680  143.3220 C   0  0  1  0  0  3  0  0  0  0  0  0
  188.2110  175.0390  140.4290 N   0  0  0  0  0  0  0  0  0  0  0  0
  187.6490  175.9750  141.3250 C   0  0  0  0  0  0  0  0  0  0  0  0
  187.4980  177.9830  142.2960 C   0  0  0  0  0  2  0  0  0  0  0  0
  189.0540  174.3960  141.1880 C   0  0  0  0  0  3  0  0  0  0  0  0
  184.5680  178.1000  146.2540 C   0  0  2  0  0  3  0  0  0  0  0  0
  184.2560  178.7830  145.0780 O   0  0  0  0  0  1  0  0  0  0  0  0
  185.3060  179.0440  147.1860 C   0  0  0  0  0  1  0  0  0  0  0  0
  189.4020  176.7790  145.9610 N   0  0  0  0  0  2  0  0  0  0  0  0
  190.1070  175.5160  146.0970 C   0  0  0  0  0  2  0  0  0  0  0  0
  191.3970  175.5500  145.2920 C   0  0  1  0  0  3  0  0  0  0  0  0
  191.7910  176.9870  144.9750 C   0  0  0  0  0  2  0  0  0  0  0  0
  191.8160  177.1820  143.5950 O   0  0  0  0  0  1  0  0  0  0  0  0
  192.5100  174.8300  146.0470 C   0  0  0  0  0  2  0  0  0  0  0  0
  193.7470  175.0390  145.4280 O   0  0  0  0  0  0  0  0  0  0  0  0
  195.9070  175.1140  143.8820 O   0  0  0  0  0  1  0  0  0  0  0  0
  193.7290  172.6740  145.2950 C   0  0  0  0  0  2  0  0  0  0  0  0
  194.9890  172.2320  145.7550 O   0  0  0  0  0  0  0  0  0  0  0  0
  193.8870  173.9710  144.5360 C   0  0  2  0  0  3  0  0  0  0  0  0
  196.7170  173.8250  146.1540 C   0  0  0  0  0  1  0  0  0  0  0  0
  195.9790  172.9990  145.1080 C   0  0  0  0  0  0  0  0  0  0  0  0
  196.9680  172.0710  144.4320 C   0  0  0  0  0  1  0  0  0  0  0  0
  195.3020  173.8620  144.0520 C   0  0  2  0  0  3  0  0  0  0  0  0
  1  5  2  0  0  0  0
  1  4  1  0  0  0  0
  2 14  1  1  0  0  0
  2  3  1  0  0  0  0
  4 17  1  1  0  0  0
  4  3  1  0  0  0  0
  5  2  1  0  0  0  0
  6 11  1  6  0  0  0
  6  9  1  0  0  0  0
  7  6  1  0  0  0  0
  8 11  2  0  0  0  0
  8 12  1  0  0  0  0
  9  1  1  1  0  0  0
 10 13  2  0  0  0  0
 10 11  1  0  0  0  0
 12  9  1  0  0  0  0
 13  7  1  0  0  0  0
 14 16  1  1  0  0  0
 15 14  1  0  0  0  0
 17 18  1  0  0  0  0
 19 20  1  1  0  0  0
 19 22  1  0  0  0  0
 19 18  1  0  0  0  0
 21 20  1  0  0  0  0
 23 22  1  0  0  0  0
 25 26  1  0  0  0  0
 27 25  1  0  0  0  0
 27 23  1  1  0  0  0
 29 26  1  0  0  0  0
 29 28  1  0  0  0  0
 30 29  1  0  0  0  0
 31 24  1  1  0  0  0
 31 27  1  0  0  0  0
 31 29  1  0  0  0  0
M  END
>  <MODEL>
6

>  <REMARK>
 VINA RESULT:      -6.1      1.618      2.296
  Name = 
  9 active torsions:
  status: ('A' for Active; 'I' for Inactive)
    1  A    between atoms: C_2  and  C_10
    2  A    between atoms: C_3  and  C_4
    3  A    between atoms: C_3  and  C_18
    4  A    between atoms: C_3  and  C_19
    5  A    between atoms: C_4  and  N_17
    6  A    between atoms: C_8  and  C_25
    7  A    between atoms: C_13  and  O_15
    8  A    between atoms: O_15  and  C_18
    9  A    between atoms: N_17  and  C_30
                            x       y       z     vdW  Elec       q    Type
                         _______ _______ _______ _____ _____    ______ ____

>  <TORSDO>
F 9

$$$$
=
 OpenBabel11062421263D

 31 34  0  0  1  0  0  0  0  0999 V2000
  190.2710  174.0090  143.4930 C   0  0  0  0  0  0  0  0  0  0  0  0
  191.2340  171.9230  142.7730 C   0  0  2  0  0  3  0  0  0  0  0  0
  189.6870  172.0940  141.7980 S   0  0  0  0  0  0  0  0  0  0  0  0
  189.3500  173.6470  142.6200 C   0  0  0  0  0  0  0  0  0  0  0  0
  191.3510  173.0980  143.6250 N   0  0  0  0  0  2  0  0  0  0  0  0
  190.8500  175.1100  145.6040 C   0  0  1  0  0  3  0  0  0  0  0  0
  190.2890  174.9210  146.7460 N   0  0  0  0  0  2  0  0  0  0  0  0
  191.9550  176.8630  144.7430 N   0  0  0  0  0  0  0  0  0  0  0  0
  190.1910  175.2730  144.2920 C   0  0  1  0  0  3  0  0  0  0  0  0
  192.0470  176.3690  147.0910 N   0  0  0  0  0  0  0  0  0  0  0  0
  191.8800  176.0400  145.7270 C   0  0  0  0  0  0  0  0  0  0  0  0
  191.0830  176.3770  143.6660 C   0  0  0  0  0  2  0  0  0  0  0  0
  191.1150  175.6620  147.6670 C   0  0  0  0  0  3  0  0  0  0  0  0
  192.4410  171.8200  141.8460 C   0  0  2  0  0  3  0  0  0  0  0  0
  193.2040  172.9850  141.9240 O   0  0  0  0  0  1  0  0  0  0  0  0
  191.9880  171.6290  140.4090 C   0  0  0  0  0  1  0  0  0  0  0  0
  188.1870  174.4350  142.3590 N   0  0  0  0  0  2  0  0  0  0  0  0
  188.1700  175.4670  141.3360 C   0  0  0  0  0  2  0  0  0  0  0  0
  187.2800  176.6200  141.7730 C   0  0  1  0  0  3  0  0  0  0  0  0
  186.5230  177.1920  140.5810 C   0  0  0  0  0  2  0  0  0  0  0  0
  186.0170  178.4520  140.8970 O   0  0  0  0  0  1  0  0  0  0  0  0
  186.3170  176.1590  142.8630 C   0  0  0  0  0  2  0  0  0  0  0  0
  185.7440  177.2560  143.5170 O   0  0  0  0  0  0  0  0  0  0  0  0
  185.4920  179.7950  144.2570 O   0  0  0  0  0  1  0  0  0  0  0  0
  186.9320  176.7880  145.5110 C   0  0  0  0  0  2  0  0  0  0  0  0
  186.0960  177.1710  146.5820 O   0  0  0  0  0  0  0  0  0  0  0  0
  186.7530  177.7420  144.3530 C   0  0  2  0  0  3  0  0  0  0  0  0
  184.0910  178.3780  146.1300 C   0  0  0  0  0  1  0  0  0  0  0  0
  185.6020  178.4620  146.3050 C   0  0  0  0  0  0  0  0  0  0  0  0
  185.9080  179.3770  147.4730 C   0  0  0  0  0  1  0  0  0  0  0  0
  186.3060  178.9860  145.0610 C   0  0  2  0  0  3  0  0  0  0  0  0
  1  5  1  0  0  0  0
  2 14  1  6  0  0  0
  2  5  1  0  0  0  0
  3  4  1  0  0  0  0
  3  2  1  0  0  0  0
  4  1  2  0  0  0  0
  6 11  1  1  0  0  0
  6  7  1  0  0  0  0
  7 13  1  0  0  0  0
  8 11  2  0  0  0  0
  9  1  1  6  0  0  0
  9  6  1  0  0  0  0
 10 13  2  0  0  0  0
 11 10  1  0  0  0  0
 12  9  1  0  0  0  0
 12  8  1  0  0  0  0
 14 16  1  6  0  0  0
 14 15  1  0  0  0  0
 17  4  1  0  0  0  0
 18 19  1  0  0  0  0
 18 17  1  0  0  0  0
 19 20  1  6  0  0  0
 19 22  1  0  0  0  0
 20 21  1  0  0  0  0
 22 23  1  0  0  0  0
 25 26  1  0  0  0  0
 27 23  1  6  0  0  0
 27 31  1  0  0  0  0
 27 25  1  0  0  0  0
 28 29  1  0  0  0  0
 29 26  1  0  0  0  0
 29 30  1  0  0  0  0
 31 24  1  6  0  0  0
 31 29  1  0  0  0  0
M  END
>  <MODEL>
7

>  <REMARK>
 VINA RESULT:      -6.1      2.967      7.792
  Name = 
  9 active torsions:
  status: ('A' for Active; 'I' for Inactive)
    1  A    between atoms: C_2  and  C_10
    2  A    between atoms: C_3  and  C_4
    3  A    between atoms: C_3  and  C_18
    4  A    between atoms: C_3  and  C_19
    5  A    between atoms: C_4  and  N_17
    6  A    between atoms: C_8  and  C_25
    7  A    between atoms: C_13  and  O_15
    8  A    between atoms: O_15  and  C_18
    9  A    between atoms: N_17  and  C_30
                            x       y       z     vdW  Elec       q    Type
                         _______ _______ _______ _____ _____    ______ ____

>  <TORSDO>
F 9

$$$$
=
 OpenBabel11062421263D

 31 34  0  0  1  0  0  0  0  0999 V2000
  188.3150  176.7660  144.7950 C   0  0  0  0  0  0  0  0  0  0  0  0
  186.5240  178.3500  145.0820 C   0  0  2  0  0  3  0  0  0  0  0  0
  186.7850  178.2510  143.2660 S   0  0  0  0  0  0  0  0  0  0  0  0
  188.1030  177.0690  143.5290 C   0  0  0  0  0  0  0  0  0  0  0  0
  187.4670  177.4380  145.7140 N   0  0  0  0  0  2  0  0  0  0  0  0
  190.5860  176.5060  145.6760 C   0  0  1  0  0  3  0  0  0  0  0  0
  191.6840  176.6550  145.0220 N   0  0  0  0  0  2  0  0  0  0  0  0
  190.0740  175.3010  147.4980 N   0  0  0  0  0  0  0  0  0  0  0  0
  189.3660  175.7970  145.2410 C   0  0  1  0  0  3  0  0  0  0  0  0
  192.2580  176.2580  147.2170 N   0  0  0  0  0  0  0  0  0  0  0  0
  190.8630  176.1860  147.0030 C   0  0  0  0  0  0  0  0  0  0  0  0
  188.9530  175.1080  146.5680 C   0  0  0  0  0  2  0  0  0  0  0  0
  192.7070  176.5730  146.0340 C   0  0  0  0  0  3  0  0  0  0  0  0
  185.0930  177.9580  145.4370 C   0  0  2  0  0  3  0  0  0  0  0  0
  184.4190  179.0530  145.9780 O   0  0  0  0  0  1  0  0  0  0  0  0
  185.0920  176.8330  146.4560 C   0  0  0  0  0  1  0  0  0  0  0  0
  188.8630  176.4950  142.4640 N   0  0  0  0  0  2  0  0  0  0  0  0
  188.3190  175.4620  141.5990 C   0  0  0  0  0  2  0  0  0  0  0  0
  188.8980  174.1070  141.9780 C   0  0  1  0  0  3  0  0  0  0  0  0
  187.9600  172.9870  141.5500 C   0  0  0  0  0  2  0  0  0  0  0  0
  188.1400  172.7050  140.1960 O   0  0  0  0  0  1  0  0  0  0  0  0
  190.2810  173.9320  141.3580 C   0  0  0  0  0  2  0  0  0  0  0  0
  191.0500  173.0320  142.1050 O   0  0  0  0  0  0  0  0  0  0  0  0
  190.7400  172.5030  144.6900 O   0  0  0  0  0  1  0  0  0  0  0  0
  193.2360  173.8390  142.5280 C   0  0  0  0  0  2  0  0  0  0  0  0
  193.9400  172.7930  143.1630 O   0  0  0  0  0  0  0  0  0  0  0  0
  191.7930  173.8330  142.9770 C   0  0  2  0  0  3  0  0  0  0  0  0
  192.7590  170.8480  143.8750 C   0  0  0  0  0  1  0  0  0  0  0  0
  193.1270  172.2910  144.1990 C   0  0  0  0  0  0  0  0  0  0  0  0
  193.9020  172.3160  145.5010 C   0  0  0  0  0  1  0  0  0  0  0  0
  191.9050  173.1910  144.3270 C   0  0  2  0  0  3  0  0  0  0  0  0
  1  5  1  0  0  0  0
  2 14  1  6  0  0  0
  2  5  1  0  0  0  0
  3  4  1  0  0  0  0
  3  2  1  0  0  0  0
  4  1  2  0  0  0  0
  6  7  1  6  0  0  0
  6 11  1  0  0  0  0
  7 13  1  0  0  0  0
  9  1  1  1  0  0  0
  9  6  1  0  0  0  0
  9 12  1  0  0  0  0
 11 10  1  0  0  0  0
 11  8  2  0  0  0  0
 12  8  1  0  0  0  0
 13 10  2  0  0  0  0
 14 15  1  0  0  0  0
 14 16  1  1  0  0  0
 17  4  1  0  0  0  0
 18 19  1  0  0  0  0
 18 17  1  0  0  0  0
 19 22  1  6  0  0  0
 20 19  1  0  0  0  0
 21 20  1  0  0  0  0
 22 23  1  0  0  0  0
 25 27  1  0  0  0  0
 25 26  1  0  0  0  0
 26 29  1  0  0  0  0
 27 23  1  6  0  0  0
 27 31  1  0  0  0  0
 28 29  1  0  0  0  0
 29 31  1  0  0  0  0
 29 30  1  0  0  0  0
 31 24  1  6  0  0  0
M  END
>  <MODEL>
8

>  <REMARK>
 VINA RESULT:      -6.1      2.686      4.700
  Name = 
  9 active torsions:
  status: ('A' for Active; 'I' for Inactive)
    1  A    between atoms: C_2  and  C_10
    2  A    between atoms: C_3  and  C_4
    3  A    between atoms: C_3  and  C_18
    4  A    between atoms: C_3  and  C_19
    5  A    between atoms: C_4  and  N_17
    6  A    between atoms: C_8  and  C_25
    7  A    between atoms: C_13  and  O_15
    8  A    between atoms: O_15  and  C_18
    9  A    between atoms: N_17  and  C_30
                            x       y       z     vdW  Elec       q    Type
                         _______ _______ _______ _____ _____    ______ ____

>  <TORSDO>
F 9

$$$$
=
 OpenBabel11062421263D

 31 34  0  0  1  0  0  0  0  0999 V2000
  188.6020  176.3770  145.7500 C   0  0  0  0  0  0  0  0  0  0  0  0
  186.8650  177.9120  146.4010 C   0  0  2  0  0  3  0  0  0  0  0  0
  186.6250  177.6620  144.5980 S   0  0  0  0  0  0  0  0  0  0  0  0
  188.0330  176.5570  144.5730 C   0  0  0  0  0  0  0  0  0  0  0  0
  187.9990  177.0970  146.8140 N   0  0  0  0  0  2  0  0  0  0  0  0
  191.0440  176.2730  145.9150 C   0  0  1  0  0  3  0  0  0  0  0  0
  191.8820  176.3600  144.9430 N   0  0  0  0  0  2  0  0  0  0  0  0
  191.1750  175.2960  147.9300 N   0  0  0  0  0  0  0  0  0  0  0  0
  189.7910  175.4920  145.9580 C   0  0  1  0  0  3  0  0  0  0  0  0
  193.1140  176.2520  146.8860 N   0  0  0  0  0  0  0  0  0  0  0  0
  191.7270  176.1260  147.1200 C   0  0  0  0  0  0  0  0  0  0  0  0
  189.8390  174.9670  147.4160 C   0  0  0  0  0  2  0  0  0  0  0  0
  193.1670  176.4260  145.5950 C   0  0  0  0  0  3  0  0  0  0  0  0
  185.6120  177.5010  147.1690 C   0  0  2  0  0  3  0  0  0  0  0  0
  184.9790  176.4420  146.5180 O   0  0  0  0  0  1  0  0  0  0  0  0
  184.6440  178.6660  147.2610 C   0  0  0  0  0  1  0  0  0  0  0  0
  188.5070  175.9190  143.3850 N   0  0  0  0  0  2  0  0  0  0  0  0
  188.6010  176.6240  142.1180 C   0  0  0  0  0  2  0  0  0  0  0  0
  187.4090  176.2790  141.2390 C   0  0  1  0  0  3  0  0  0  0  0  0
  186.8150  177.5400  140.6270 C   0  0  0  0  0  2  0  0  0  0  0  0
  186.3580  177.2750  139.3360 O   0  0  0  0  0  1  0  0  0  0  0  0
  187.8200  175.2850  140.1580 C   0  0  0  0  0  2  0  0  0  0  0  0
  188.9340  174.5420  140.5620 O   0  0  0  0  0  0  0  0  0  0  0  0
  190.8250  172.8740  139.7240 O   0  0  0  0  0  1  0  0  0  0  0  0
  187.8660  172.7630  141.7040 C   0  0  0  0  0  2  0  0  0  0  0  0
  188.8200  172.2160  142.5880 O   0  0  0  0  0  0  0  0  0  0  0  0
  188.5430  173.2060  140.4280 C   0  0  2  0  0  3  0  0  0  0  0  0
  191.0920  172.9240  142.4460 C   0  0  0  0  0  1  0  0  0  0  0  0
  190.0140  172.0160  141.8660 C   0  0  0  0  0  0  0  0  0  0  0  0
  190.4560  170.5740  142.0190 C   0  0  0  0  0  1  0  0  0  0  0  0
  189.7380  172.3010  140.3960 C   0  0  2  0  0  3  0  0  0  0  0  0
  1  5  1  0  0  0  0
  2  5  1  0  0  0  0
  2 14  1  1  0  0  0
  3  2  1  0  0  0  0
  4  3  1  0  0  0  0
  4  1  2  0  0  0  0
  6  7  1  6  0  0  0
  6  9  1  0  0  0  0
  6 11  1  0  0  0  0
  7 13  1  0  0  0  0
  9  1  1  1  0  0  0
  9 12  1  0  0  0  0
 10 11  1  0  0  0  0
 11  8  2  0  0  0  0
 12  8  1  0  0  0  0
 13 10  2  0  0  0  0
 14 16  1  6  0  0  0
 15 14  1  0  0  0  0
 17  4  1  0  0  0  0
 18 17  1  0  0  0  0
 19 22  1  6  0  0  0
 19 18  1  0  0  0  0
 20 19  1  0  0  0  0
 21 20  1  0  0  0  0
 22 23  1  0  0  0  0
 25 26  1  0  0  0  0
 27 23  1  1  0  0  0
 27 25  1  0  0  0  0
 29 30  1  0  0  0  0
 29 28  1  0  0  0  0
 29 26  1  0  0  0  0
 31 24  1  1  0  0  0
 31 27  1  0  0  0  0
 31 29  1  0  0  0  0
M  END
>  <MODEL>
9

>  <REMARK>
 VINA RESULT:      -6.1      2.929      6.003
  Name = 
  9 active torsions:
  status: ('A' for Active; 'I' for Inactive)
    1  A    between atoms: C_2  and  C_10
    2  A    between atoms: C_3  and  C_4
    3  A    between atoms: C_3  and  C_18
    4  A    between atoms: C_3  and  C_19
    5  A    between atoms: C_4  and  N_17
    6  A    between atoms: C_8  and  C_25
    7  A    between atoms: C_13  and  O_15
    8  A    between atoms: O_15  and  C_18
    9  A    between atoms: N_17  and  C_30
                            x       y       z     vdW  Elec       q    Type
                         _______ _______ _______ _____ _____    ______ ____

>  <TORSDO>
F 9

$$$$
