=
 OpenBabel11072408353D

 26 27  0  0  1  0  0  0  0  0999 V2000
  188.8070  177.1990  144.4210 C   0  0  0  0  0  2  0  0  0  0  0  0
  190.7470  178.4370  143.5130 C   0  0  0  0  0  1  0  0  0  0  0  0
  190.3040  177.1320  144.1530 C   0  0  2  0  0  0  0  0  0  0  0  0
  190.5660  176.0680  143.2830 O   0  0  0  0  0  1  0  0  0  0  0  0
  190.9860  176.9390  145.4420 N   0  0  0  0  0  2  0  0  0  0  0  0
  191.0650  174.4040  145.5020 C   0  0  2  0  0  3  0  0  0  0  0  0
  191.8490  173.3770  144.9720 O   0  0  0  0  0  1  0  0  0  0  0  0
  191.8190  175.7270  145.4890 C   0  0  2  0  0  0  0  0  0  0  0  0
  191.7100  174.9230  146.7810 C   0  0  1  0  0  3  0  0  0  0  0  0
  190.6200  175.4160  147.7230 C   0  0  0  0  0  2  0  0  0  0  0  0
  189.4820  174.6260  147.5710 O   0  0  0  0  0  1  0  0  0  0  0  0
  193.7130  177.1080  145.0030 O   0  0  0  0  0  1  0  0  0  0  0  0
  193.2390  175.7980  144.9330 C   0  0  0  0  0  2  0  0  0  0  0  0
  188.1960  178.1840  143.6200 O   0  0  0  0  0  0  0  0  0  0  0  0
  187.5030  177.4440  141.3810 C   0  0  2  0  0  3  0  0  0  0  0  0
  185.8520  178.3570  142.9020 C   0  0  2  0  0  3  0  0  0  0  0  0
  185.2510  178.1150  141.5400 C   0  0  0  0  0  2  0  0  0  0  0  0
  187.1600  177.5970  142.8540 C   0  0  2  0  0  3  0  0  0  0  0  0
  186.3370  177.8560  140.5990 N   0  0  0  0  0  2  0  0  0  0  0  0
  187.8450  175.9950  141.0850 C   0  0  0  0  0  2  0  0  0  0  0  0
  187.2920  175.1670  142.0630 O   0  0  0  0  0  0  0  0  0  0  0  0
  188.0310  173.9880  141.9800 C   0  0  0  0  0  1  0  0  0  0  0  0
  184.9800  177.8090  143.9300 N   0  0  0  0  0  2  0  0  0  0  0  0
  184.6280  178.8880  144.8440 C   0  0  0  0  0  2  0  0  0  0  0  0
  184.4030  178.3470  146.2460 C   0  0  0  0  0  2  0  0  0  0  0  0
  185.0530  176.9850  146.4000 C   0  0  0  0  0  1  0  0  0  0  0  0
  3  2  1  6  0  0  0
  3  1  1  0  0  0  0
  3  5  1  0  0  0  0
  4  3  1  0  0  0  0
  5  8  1  0  0  0  0
  6  7  1  6  0  0  0
  6  9  1  0  0  0  0
  8 13  1  6  0  0  0
  8  6  1  0  0  0  0
  8  9  1  0  0  0  0
  9 10  1  1  0  0  0
 11 10  1  0  0  0  0
 13 12  1  0  0  0  0
 14  1  1  0  0  0  0
 15 20  1  1  0  0  0
 15 18  1  0  0  0  0
 16 23  1  1  0  0  0
 17 16  1  0  0  0  0
 18 16  1  0  0  0  0
 18 14  1  1  0  0  0
 19 15  1  0  0  0  0
 19 17  1  0  0  0  0
 20 21  1  0  0  0  0
 22 21  1  0  0  0  0
 23 24  1  0  0  0  0
 24 25  1  0  0  0  0
 25 26  1  0  0  0  0
M  END
>  <MODEL>
1

>  <REMARK>
 VINA RESULT:      -5.4      0.000      0.000
  Name = 
  12 active torsions:
  status: ('A' for Active; 'I' for Inactive)
    1  A    between atoms: C_1  and  C_17
    2  A    between atoms: C_1  and  N_23
    3  A    between atoms: C_2  and  C_20
    4  A    between atoms: C_4  and  N_23
    5  A    between atoms: O_7  and  C_20
    6  A    between atoms: C_9  and  C_10
    7  A    between atoms: C_9  and  O_21
    8  A    between atoms: C_10  and  N_12
    9  A    between atoms: C_11  and  C_15
   10  A    between atoms: N_12  and  C_14
   11  A    between atoms: C_14  and  C_18
   12  A    between atoms: O_21  and  C_24
                            x       y       z     vdW  Elec       q    Type
                         _______ _______ _______ _____ _____    ______ ____

>  <TORSDO>
F 12

$$$$
=
 OpenBabel11072408353D

 26 27  0  0  1  0  0  0  0  0999 V2000
  189.6290  177.8510  142.9450 C   0  0  0  0  0  2  0  0  0  0  0  0
  192.0200  177.8620  143.5830 C   0  0  0  0  0  1  0  0  0  0  0  0
  190.6890  177.1580  143.7900 C   0  0  2  0  0  0  0  0  0  0  0  0
  190.7940  175.8220  143.3850 O   0  0  0  0  0  1  0  0  0  0  0  0
  190.2770  177.2510  145.1990 N   0  0  0  0  0  2  0  0  0  0  0  0
  189.1950  174.9880  145.5780 C   0  0  2  0  0  3  0  0  0  0  0  0
  189.5960  173.6690  145.8000 O   0  0  0  0  0  1  0  0  0  0  0  0
  190.3170  175.9630  145.9090 C   0  0  2  0  0  0  0  0  0  0  0  0
  189.1820  175.7410  146.9030 C   0  0  1  0  0  3  0  0  0  0  0  0
  188.1030  176.8140  146.8540 C   0  0  0  0  0  2  0  0  0  0  0  0
  186.9490  176.2890  146.2750 O   0  0  0  0  0  1  0  0  0  0  0  0
  192.4600  176.5090  146.8250 O   0  0  0  0  0  1  0  0  0  0  0  0
  191.6670  175.4440  146.3980 C   0  0  0  0  0  2  0  0  0  0  0  0
  188.3950  177.8970  143.6220 O   0  0  0  0  0  0  0  0  0  0  0  0
  187.8790  176.7770  141.4960 C   0  0  2  0  0  3  0  0  0  0  0  0
  186.4060  178.5160  142.3190 C   0  0  2  0  0  3  0  0  0  0  0  0
  185.9970  178.0770  140.9340 C   0  0  0  0  0  2  0  0  0  0  0  0
  187.3660  177.4350  142.7660 C   0  0  2  0  0  3  0  0  0  0  0  0
  187.0720  177.2620  140.3760 N   0  0  0  0  0  2  0  0  0  0  0  0
  187.7530  175.2690  141.6160 C   0  0  0  0  0  2  0  0  0  0  0  0
  188.2840  174.6560  140.4800 O   0  0  0  0  0  0  0  0  0  0  0  0
  188.8580  173.4780  140.9560 C   0  0  0  0  0  1  0  0  0  0  0  0
  185.2400  178.5570  143.1880 N   0  0  0  0  0  2  0  0  0  0  0  0
  185.3610  179.7250  144.0510 C   0  0  0  0  0  2  0  0  0  0  0  0
  185.4390  179.3040  145.5090 C   0  0  0  0  0  2  0  0  0  0  0  0
  184.1250  178.6920  145.9560 C   0  0  0  0  0  1  0  0  0  0  0  0
  1 14  1  0  0  0  0
  1  3  1  0  0  0  0
  3  2  1  6  0  0  0
  3  5  1  0  0  0  0
  4  3  1  0  0  0  0
  5  8  1  0  0  0  0
  6  7  1  1  0  0  0
  6  8  1  0  0  0  0
  6  9  1  0  0  0  0
  8 13  1  1  0  0  0
  8  9  1  0  0  0  0
  9 10  1  6  0  0  0
 11 10  1  0  0  0  0
 13 12  1  0  0  0  0
 15 20  1  1  0  0  0
 15 18  1  0  0  0  0
 16 18  1  0  0  0  0
 16 23  1  1  0  0  0
 17 16  1  0  0  0  0
 18 14  1  6  0  0  0
 19 17  1  0  0  0  0
 19 15  1  0  0  0  0
 21 22  1  0  0  0  0
 21 20  1  0  0  0  0
 23 24  1  0  0  0  0
 24 25  1  0  0  0  0
 25 26  1  0  0  0  0
M  END
>  <MODEL>
2

>  <REMARK>
 VINA RESULT:      -5.3      1.464      1.697
  Name = 
  12 active torsions:
  status: ('A' for Active; 'I' for Inactive)
    1  A    between atoms: C_1  and  C_17
    2  A    between atoms: C_1  and  N_23
    3  A    between atoms: C_2  and  C_20
    4  A    between atoms: C_4  and  N_23
    5  A    between atoms: O_7  and  C_20
    6  A    between atoms: C_9  and  C_10
    7  A    between atoms: C_9  and  O_21
    8  A    between atoms: C_10  and  N_12
    9  A    between atoms: C_11  and  C_15
   10  A    between atoms: N_12  and  C_14
   11  A    between atoms: C_14  and  C_18
   12  A    between atoms: O_21  and  C_24
                            x       y       z     vdW  Elec       q    Type
                         _______ _______ _______ _____ _____    ______ ____

>  <TORSDO>
F 12

$$$$
=
 OpenBabel11072408353D

 26 27  0  0  1  0  0  0  0  0999 V2000
  188.2710  176.9020  144.8260 C   0  0  0  0  0  2  0  0  0  0  0  0
  189.5190  177.4520  146.8900 C   0  0  0  0  0  1  0  0  0  0  0  0
  189.6600  177.0860  145.4220 C   0  0  2  0  0  0  0  0  0  0  0  0
  190.3160  178.1170  144.7400 O   0  0  0  0  0  1  0  0  0  0  0  0
  190.3850  175.8150  145.2800 N   0  0  0  0  0  2  0  0  0  0  0  0
  191.6440  175.9870  143.0840 C   0  0  2  0  0  3  0  0  0  0  0  0
  192.7420  176.6770  142.5680 O   0  0  0  0  0  1  0  0  0  0  0  0
  191.6860  175.9540  144.6060 C   0  0  2  0  0  0  0  0  0  0  0  0
  192.1260  174.7330  143.8030 C   0  0  1  0  0  3  0  0  0  0  0  0
  191.0590  173.6530  143.6900 C   0  0  0  0  0  2  0  0  0  0  0  0
  191.1390  173.0480  142.4370 O   0  0  0  0  0  1  0  0  0  0  0  0
  192.8300  176.2200  146.6910 O   0  0  0  0  0  1  0  0  0  0  0  0
  192.8270  176.6330  145.3590 C   0  0  0  0  0  2  0  0  0  0  0  0
  187.9790  177.9240  143.9010 O   0  0  0  0  0  0  0  0  0  0  0  0
  187.8810  177.2090  141.5510 C   0  0  2  0  0  3  0  0  0  0  0  0
  185.9500  178.2720  142.5590 C   0  0  2  0  0  3  0  0  0  0  0  0
  185.7350  178.0590  141.0810 C   0  0  0  0  0  2  0  0  0  0  0  0
  187.1550  177.4100  142.8710 C   0  0  2  0  0  3  0  0  0  0  0  0
  187.0160  177.7020  140.4790 N   0  0  0  0  0  2  0  0  0  0  0  0
  188.1750  175.7340  141.3500 C   0  0  0  0  0  2  0  0  0  0  0  0
  187.3080  174.9660  142.1270 O   0  0  0  0  0  0  0  0  0  0  0  0
  187.7690  173.6590  141.9770 C   0  0  0  0  0  1  0  0  0  0  0  0
  184.7850  177.8090  143.2990 N   0  0  0  0  0  2  0  0  0  0  0  0
  184.2410  178.9420  144.0360 C   0  0  0  0  0  2  0  0  0  0  0  0
  184.2080  178.6410  145.5260 C   0  0  0  0  0  2  0  0  0  0  0  0
  185.5180  179.0370  146.1770 C   0  0  0  0  0  1  0  0  0  0  0  0
  1  3  1  0  0  0  0
  3  2  1  1  0  0  0
  4  3  1  0  0  0  0
  5  3  1  0  0  0  0
  6  7  1  6  0  0  0
  6  9  1  0  0  0  0
  6  8  1  0  0  0  0
  8  5  1  0  0  0  0
  8 13  1  1  0  0  0
  9 10  1  1  0  0  0
  9  8  1  0  0  0  0
 11 10  1  0  0  0  0
 13 12  1  0  0  0  0
 14  1  1  0  0  0  0
 15 20  1  6  0  0  0
 15 18  1  0  0  0  0
 16 18  1  0  0  0  0
 16 23  1  1  0  0  0
 17 16  1  0  0  0  0
 18 14  1  1  0  0  0
 19 17  1  0  0  0  0
 19 15  1  0  0  0  0
 20 21  1  0  0  0  0
 22 21  1  0  0  0  0
 23 24  1  0  0  0  0
 24 25  1  0  0  0  0
 25 26  1  0  0  0  0
M  END
>  <MODEL>
3

>  <REMARK>
 VINA RESULT:      -5.1      1.615      2.197
  Name = 
  12 active torsions:
  status: ('A' for Active; 'I' for Inactive)
    1  A    between atoms: C_1  and  C_17
    2  A    between atoms: C_1  and  N_23
    3  A    between atoms: C_2  and  C_20
    4  A    between atoms: C_4  and  N_23
    5  A    between atoms: O_7  and  C_20
    6  A    between atoms: C_9  and  C_10
    7  A    between atoms: C_9  and  O_21
    8  A    between atoms: C_10  and  N_12
    9  A    between atoms: C_11  and  C_15
   10  A    between atoms: N_12  and  C_14
   11  A    between atoms: C_14  and  C_18
   12  A    between atoms: O_21  and  C_24
                            x       y       z     vdW  Elec       q    Type
                         _______ _______ _______ _____ _____    ______ ____

>  <TORSDO>
F 12

$$$$
=
 OpenBabel11072408353D

 26 27  0  0  1  0  0  0  0  0999 V2000
  188.5660  176.1350  144.7900 C   0  0  0  0  0  2  0  0  0  0  0  0
  189.6290  177.0640  146.8210 C   0  0  0  0  0  1  0  0  0  0  0  0
  188.3010  176.8140  146.1260 C   0  0  2  0  0  0  0  0  0  0  0  0
  187.5070  175.9740  146.9160 O   0  0  0  0  0  1  0  0  0  0  0  0
  187.6170  178.0870  145.8590 N   0  0  0  0  0  2  0  0  0  0  0  0
  185.1380  177.5570  145.7500 C   0  0  2  0  0  3  0  0  0  0  0  0
  184.1170  177.1840  146.6250 O   0  0  0  0  0  1  0  0  0  0  0  0
  186.2980  178.1930  146.5040 C   0  0  2  0  0  0  0  0  0  0  0  0
  185.2920  179.0730  145.7690 C   0  0  1  0  0  3  0  0  0  0  0  0
  185.7690  179.5410  144.4010 C   0  0  0  0  0  2  0  0  0  0  0  0
  184.8270  179.1910  143.4350 O   0  0  0  0  0  1  0  0  0  0  0  0
  187.2300  179.2220  148.4540 O   0  0  0  0  0  1  0  0  0  0  0  0
  186.2410  178.3380  148.0230 C   0  0  0  0  0  2  0  0  0  0  0  0
  188.6210  177.0790  143.7460 O   0  0  0  0  0  0  0  0  0  0  0  0
  187.8250  175.7840  141.8140 C   0  0  2  0  0  3  0  0  0  0  0  0
  190.0320  175.3500  142.7180 C   0  0  2  0  0  3  0  0  0  0  0  0
  189.6830  174.3460  141.6470 C   0  0  0  0  0  2  0  0  0  0  0  0
  188.9910  176.4340  142.5410 C   0  0  2  0  0  3  0  0  0  0  0  0
  188.2570  174.4640  141.3550 N   0  0  0  0  0  2  0  0  0  0  0  0
  187.4190  176.6430  140.6300 C   0  0  0  0  0  2  0  0  0  0  0  0
  186.7760  177.7970  141.0790 O   0  0  0  0  0  0  0  0  0  0  0  0
  185.6330  177.8900  140.2860 C   0  0  0  0  0  1  0  0  0  0  0  0
  191.3670  175.8790  142.4830 N   0  0  0  0  0  2  0  0  0  0  0  0
  192.1790  175.5900  143.6570 C   0  0  0  0  0  2  0  0  0  0  0  0
  192.5270  176.8730  144.3930 C   0  0  0  0  0  2  0  0  0  0  0  0
  193.3190  176.5680  145.6500 C   0  0  0  0  0  1  0  0  0  0  0  0
  1  3  1  0  0  0  0
  3  2  1  1  0  0  0
  3  4  1  0  0  0  0
  5  3  1  0  0  0  0
  5  8  1  0  0  0  0
  6  9  1  0  0  0  0
  6  8  1  0  0  0  0
  6  7  1  1  0  0  0
  8 13  1  1  0  0  0
  9 10  1  6  0  0  0
  9  8  1  0  0  0  0
 11 10  1  0  0  0  0
 13 12  1  0  0  0  0
 14  1  1  0  0  0  0
 15 20  1  6  0  0  0
 15 18  1  0  0  0  0
 16 23  1  6  0  0  0
 17 16  1  0  0  0  0
 18 16  1  0  0  0  0
 18 14  1  1  0  0  0
 19 17  1  0  0  0  0
 19 15  1  0  0  0  0
 20 21  1  0  0  0  0
 22 21  1  0  0  0  0
 23 24  1  0  0  0  0
 24 25  1  0  0  0  0
 25 26  1  0  0  0  0
M  END
>  <MODEL>
4

>  <REMARK>
 VINA RESULT:      -5.1      2.498      5.842
  Name = 
  12 active torsions:
  status: ('A' for Active; 'I' for Inactive)
    1  A    between atoms: C_1  and  C_17
    2  A    between atoms: C_1  and  N_23
    3  A    between atoms: C_2  and  C_20
    4  A    between atoms: C_4  and  N_23
    5  A    between atoms: O_7  and  C_20
    6  A    between atoms: C_9  and  C_10
    7  A    between atoms: C_9  and  O_21
    8  A    between atoms: C_10  and  N_12
    9  A    between atoms: C_11  and  C_15
   10  A    between atoms: N_12  and  C_14
   11  A    between atoms: C_14  and  C_18
   12  A    between atoms: O_21  and  C_24
                            x       y       z     vdW  Elec       q    Type
                         _______ _______ _______ _____ _____    ______ ____

>  <TORSDO>
F 12

$$$$
=
 OpenBabel11072408353D

 26 27  0  0  1  0  0  0  0  0999 V2000
  188.5480  176.6800  143.9490 C   0  0  0  0  0  2  0  0  0  0  0  0
  187.7890  175.8650  141.7400 C   0  0  0  0  0  1  0  0  0  0  0  0
  187.4940  176.8460  142.8620 C   0  0  2  0  0  0  0  0  0  0  0  0
  187.5470  178.1550  142.3710 O   0  0  0  0  0  1  0  0  0  0  0  0
  186.1810  176.5590  143.4580 N   0  0  0  0  0  2  0  0  0  0  0  0
  186.1010  178.6850  144.8400 C   0  0  2  0  0  3  0  0  0  0  0  0
  185.6550  180.0010  144.6970 O   0  0  0  0  0  1  0  0  0  0  0  0
  185.4280  177.7670  143.8290 C   0  0  2  0  0  0  0  0  0  0  0  0
  184.9380  177.8020  145.2730 C   0  0  1  0  0  3  0  0  0  0  0  0
  185.4720  176.6620  146.1310 C   0  0  0  0  0  2  0  0  0  0  0  0
  186.0340  177.1800  147.2960 O   0  0  0  0  0  1  0  0  0  0  0  0
  184.4640  177.5970  141.6440 O   0  0  0  0  0  1  0  0  0  0  0  0
  184.4200  178.3310  142.8300 C   0  0  0  0  0  2  0  0  0  0  0  0
  189.6540  175.9500  143.4710 O   0  0  0  0  0  0  0  0  0  0  0  0
  189.4590  174.2370  145.2230 C   0  0  2  0  0  3  0  0  0  0  0  0
  190.7360  176.2500  145.6570 C   0  0  2  0  0  3  0  0  0  0  0  0
  190.6130  175.4130  146.9060 C   0  0  0  0  0  2  0  0  0  0  0  0
  190.3030  175.3090  144.5540 C   0  0  2  0  0  3  0  0  0  0  0  0
  189.6020  174.3860  146.6710 N   0  0  0  0  0  2  0  0  0  0  0  0
  189.9390  172.8640  144.7890 C   0  0  0  0  0  2  0  0  0  0  0  0
  191.2820  172.9270  144.4140 O   0  0  0  0  0  0  0  0  0  0  0  0
  191.6470  171.5990  144.1990 C   0  0  0  0  0  1  0  0  0  0  0  0
  192.1220  176.6550  145.4690 N   0  0  0  0  0  2  0  0  0  0  0  0
  192.8610  176.3020  146.6740 C   0  0  0  0  0  2  0  0  0  0  0  0
  194.3360  176.6280  146.5080 C   0  0  0  0  0  2  0  0  0  0  0  0
  194.9350  175.8170  145.3750 C   0  0  0  0  0  1  0  0  0  0  0  0
  3  2  1  6  0  0  0
  3  5  1  0  0  0  0
  3  1  1  0  0  0  0
  4  3  1  0  0  0  0
  5  8  1  0  0  0  0
  6  7  1  6  0  0  0
  6  9  1  0  0  0  0
  8 13  1  6  0  0  0
  8  6  1  0  0  0  0
  8  9  1  0  0  0  0
  9 10  1  1  0  0  0
 10 11  1  0  0  0  0
 12 13  1  0  0  0  0
 14  1  1  0  0  0  0
 15 20  1  6  0  0  0
 15 19  1  0  0  0  0
 16 23  1  6  0  0  0
 16 17  1  0  0  0  0
 18 14  1  6  0  0  0
 18 15  1  0  0  0  0
 18 16  1  0  0  0  0
 19 17  1  0  0  0  0
 21 20  1  0  0  0  0
 22 21  1  0  0  0  0
 23 24  1  0  0  0  0
 25 24  1  0  0  0  0
 26 25  1  0  0  0  0
M  END
>  <MODEL>
5

>  <REMARK>
 VINA RESULT:      -4.9      1.984      6.684
  Name = 
  12 active torsions:
  status: ('A' for Active; 'I' for Inactive)
    1  A    between atoms: C_1  and  C_17
    2  A    between atoms: C_1  and  N_23
    3  A    between atoms: C_2  and  C_20
    4  A    between atoms: C_4  and  N_23
    5  A    between atoms: O_7  and  C_20
    6  A    between atoms: C_9  and  C_10
    7  A    between atoms: C_9  and  O_21
    8  A    between atoms: C_10  and  N_12
    9  A    between atoms: C_11  and  C_15
   10  A    between atoms: N_12  and  C_14
   11  A    between atoms: C_14  and  C_18
   12  A    between atoms: O_21  and  C_24
                            x       y       z     vdW  Elec       q    Type
                         _______ _______ _______ _____ _____    ______ ____

>  <TORSDO>
F 12

$$$$
=
 OpenBabel11072408353D

 26 27  0  0  1  0  0  0  0  0999 V2000
  189.2700  177.8040  142.9810 C   0  0  0  0  0  2  0  0  0  0  0  0
  189.8200  177.7030  145.3910 C   0  0  0  0  0  1  0  0  0  0  0  0
  190.3910  177.5830  143.9870 C   0  0  2  0  0  0  0  0  0  0  0  0
  191.3760  178.5580  143.7940 O   0  0  0  0  0  1  0  0  0  0  0  0
  190.9330  176.2340  143.7720 N   0  0  0  0  0  2  0  0  0  0  0  0
  192.7800  176.4240  145.5010 C   0  0  2  0  0  3  0  0  0  0  0  0
  192.9510  176.1950  146.8680 O   0  0  0  0  0  1  0  0  0  0  0  0
  191.5750  175.6620  144.9660 C   0  0  2  0  0  0  0  0  0  0  0  0
  192.9830  175.1180  144.7410 C   0  0  1  0  0  3  0  0  0  0  0  0
  193.5490  175.4290  143.3620 C   0  0  0  0  0  2  0  0  0  0  0  0
  194.6070  176.3270  143.4850 O   0  0  0  0  0  1  0  0  0  0  0  0
  189.7010  174.1900  145.1890 O   0  0  0  0  0  1  0  0  0  0  0  0
  190.7310  174.8010  145.9030 C   0  0  0  0  0  2  0  0  0  0  0  0
  188.0090  177.6240  143.5830 O   0  0  0  0  0  0  0  0  0  0  0  0
  187.6830  176.9750  141.2340 C   0  0  2  0  0  3  0  0  0  0  0  0
  185.9230  178.1650  142.4010 C   0  0  2  0  0  3  0  0  0  0  0  0
  185.5860  178.0060  140.9390 C   0  0  0  0  0  2  0  0  0  0  0  0
  187.0730  177.2030  142.6070 C   0  0  2  0  0  3  0  0  0  0  0  0
  186.7860  177.5610  140.2370 N   0  0  0  0  0  2  0  0  0  0  0  0
  187.8400  175.4870  140.9850 C   0  0  0  0  0  2  0  0  0  0  0  0
  187.4850  174.7730  142.1310 O   0  0  0  0  0  0  0  0  0  0  0  0
  188.1780  173.5690  142.0210 C   0  0  0  0  0  1  0  0  0  0  0  0
  184.7810  177.7810  143.2160 N   0  0  0  0  0  2  0  0  0  0  0  0
  184.3550  178.9500  143.9740 C   0  0  0  0  0  2  0  0  0  0  0  0
  185.1160  179.0400  145.2860 C   0  0  0  0  0  2  0  0  0  0  0  0
  184.5030  178.1150  146.3210 C   0  0  0  0  0  1  0  0  0  0  0  0
  1 14  1  0  0  0  0
  1  3  1  0  0  0  0
  3  2  1  1  0  0  0
  4  3  1  0  0  0  0
  5  3  1  0  0  0  0
  5  8  1  0  0  0  0
  6  7  1  1  0  0  0
  8  6  1  0  0  0  0
  8 13  1  1  0  0  0
  9 10  1  6  0  0  0
  9  8  1  0  0  0  0
  9  6  1  0  0  0  0
 10 11  1  0  0  0  0
 12 13  1  0  0  0  0
 15 20  1  6  0  0  0
 15 18  1  0  0  0  0
 16 18  1  0  0  0  0
 16 23  1  1  0  0  0
 17 16  1  0  0  0  0
 18 14  1  1  0  0  0
 19 17  1  0  0  0  0
 19 15  1  0  0  0  0
 20 21  1  0  0  0  0
 22 21  1  0  0  0  0
 23 24  1  0  0  0  0
 24 25  1  0  0  0  0
 25 26  1  0  0  0  0
M  END
>  <MODEL>
6

>  <REMARK>
 VINA RESULT:      -4.8      1.256      2.466
  Name = 
  12 active torsions:
  status: ('A' for Active; 'I' for Inactive)
    1  A    between atoms: C_1  and  C_17
    2  A    between atoms: C_1  and  N_23
    3  A    between atoms: C_2  and  C_20
    4  A    between atoms: C_4  and  N_23
    5  A    between atoms: O_7  and  C_20
    6  A    between atoms: C_9  and  C_10
    7  A    between atoms: C_9  and  O_21
    8  A    between atoms: C_10  and  N_12
    9  A    between atoms: C_11  and  C_15
   10  A    between atoms: N_12  and  C_14
   11  A    between atoms: C_14  and  C_18
   12  A    between atoms: O_21  and  C_24
                            x       y       z     vdW  Elec       q    Type
                         _______ _______ _______ _____ _____    ______ ____

>  <TORSDO>
F 12

$$$$
=
 OpenBabel11072408353D

 26 27  0  0  1  0  0  0  0  0999 V2000
  188.2720  175.9180  144.9970 C   0  0  0  0  0  2  0  0  0  0  0  0
  187.5560  177.5310  146.7300 C   0  0  0  0  0  1  0  0  0  0  0  0
  187.2800  177.0250  145.3240 C   0  0  2  0  0  0  0  0  0  0  0  0
  185.9810  176.5100  145.2540 O   0  0  0  0  0  1  0  0  0  0  0  0
  187.4710  178.1070  144.3460 N   0  0  0  0  0  2  0  0  0  0  0  0
  185.4140  177.5700  142.9620 C   0  0  2  0  0  3  0  0  0  0  0  0
  184.0560  177.8960  142.9490 O   0  0  0  0  0  1  0  0  0  0  0  0
  186.2140  178.5940  143.7560 C   0  0  2  0  0  0  0  0  0  0  0  0
  186.2000  178.6520  142.2320 C   0  0  1  0  0  3  0  0  0  0  0  0
  187.4250  178.0230  141.5810 C   0  0  0  0  0  2  0  0  0  0  0  0
  187.1060  177.6120  140.2880 O   0  0  0  0  0  1  0  0  0  0  0  0
  184.7950  179.3380  145.5340 O   0  0  0  0  0  1  0  0  0  0  0  0
  185.5090  179.7750  144.4180 C   0  0  0  0  0  2  0  0  0  0  0  0
  189.2700  176.3780  144.1150 O   0  0  0  0  0  0  0  0  0  0  0  0
  189.4410  174.1140  143.1720 C   0  0  2  0  0  3  0  0  0  0  0  0
  190.9290  174.7780  144.9660 C   0  0  2  0  0  3  0  0  0  0  0  0
  191.0930  173.3120  144.6460 C   0  0  0  0  0  2  0  0  0  0  0  0
  190.1430  175.3130  143.7890 C   0  0  2  0  0  3  0  0  0  0  0  0
  189.9860  172.9040  143.7870 N   0  0  0  0  0  2  0  0  0  0  0  0
  189.6840  174.0950  141.6740 C   0  0  0  0  0  2  0  0  0  0  0  0
  188.6600  174.7790  141.0180 O   0  0  0  0  0  0  0  0  0  0  0  0
  188.5620  174.1520  139.7760 C   0  0  0  0  0  1  0  0  0  0  0  0
  192.2350  175.4150  145.0430 N   0  0  0  0  0  2  0  0  0  0  0  0
  192.1800  176.4300  146.0880 C   0  0  0  0  0  2  0  0  0  0  0  0
  193.5250  176.5490  146.7850 C   0  0  0  0  0  2  0  0  0  0  0  0
  194.5280  175.5900  146.1730 C   0  0  0  0  0  1  0  0  0  0  0  0
  1  3  1  0  0  0  0
  3  2  1  1  0  0  0
  4  3  1  0  0  0  0
  5  3  1  0  0  0  0
  6  7  1  1  0  0  0
  6  8  1  0  0  0  0
  8  5  1  0  0  0  0
  8 13  1  1  0  0  0
  9 10  1  6  0  0  0
  9  6  1  0  0  0  0
  9  8  1  0  0  0  0
 11 10  1  0  0  0  0
 13 12  1  0  0  0  0
 14  1  1  0  0  0  0
 15 20  1  6  0  0  0
 15 19  1  0  0  0  0
 15 18  1  0  0  0  0
 16 23  1  6  0  0  0
 17 16  1  0  0  0  0
 18 14  1  1  0  0  0
 18 16  1  0  0  0  0
 19 17  1  0  0  0  0
 21 20  1  0  0  0  0
 22 21  1  0  0  0  0
 23 24  1  0  0  0  0
 24 25  1  0  0  0  0
 26 25  1  0  0  0  0
M  END
>  <MODEL>
7

>  <REMARK>
 VINA RESULT:      -4.8      2.357      6.540
  Name = 
  12 active torsions:
  status: ('A' for Active; 'I' for Inactive)
    1  A    between atoms: C_1  and  C_17
    2  A    between atoms: C_1  and  N_23
    3  A    between atoms: C_2  and  C_20
    4  A    between atoms: C_4  and  N_23
    5  A    between atoms: O_7  and  C_20
    6  A    between atoms: C_9  and  C_10
    7  A    between atoms: C_9  and  O_21
    8  A    between atoms: C_10  and  N_12
    9  A    between atoms: C_11  and  C_15
   10  A    between atoms: N_12  and  C_14
   11  A    between atoms: C_14  and  C_18
   12  A    between atoms: O_21  and  C_24
                            x       y       z     vdW  Elec       q    Type
                         _______ _______ _______ _____ _____    ______ ____

>  <TORSDO>
F 12

$$$$
=
 OpenBabel11072408353D

 26 27  0  0  1  0  0  0  0  0999 V2000
  187.8760  176.8750  144.5000 C   0  0  0  0  0  2  0  0  0  0  0  0
  189.1810  177.5220  142.5000 C   0  0  0  0  0  1  0  0  0  0  0  0
  189.1150  176.5590  143.6740 C   0  0  2  0  0  0  0  0  0  0  0  0
  189.0250  175.2450  143.2000 O   0  0  0  0  0  1  0  0  0  0  0  0
  190.2910  176.7280  144.5390 N   0  0  0  0  0  2  0  0  0  0  0  0
  190.9880  174.4200  145.3290 C   0  0  2  0  0  3  0  0  0  0  0  0
  191.5420  173.2590  144.7850 O   0  0  0  0  0  1  0  0  0  0  0  0
  191.2590  175.6240  144.4360 C   0  0  2  0  0  0  0  0  0  0  0  0
  192.1060  175.3940  145.6840 C   0  0  1  0  0  3  0  0  0  0  0  0
  191.6750  176.2290  146.8820 C   0  0  0  0  0  2  0  0  0  0  0  0
  191.2490  175.3870  147.9080 O   0  0  0  0  0  1  0  0  0  0  0  0
  192.6550  176.6570  142.7890 O   0  0  0  0  0  1  0  0  0  0  0  0
  192.0350  175.4550  143.1330 C   0  0  0  0  0  2  0  0  0  0  0  0
  186.7130  176.3880  143.8730 O   0  0  0  0  0  0  0  0  0  0  0  0
  185.7660  178.4160  142.8560 C   0  0  2  0  0  3  0  0  0  0  0  0
  185.6540  178.1190  145.2580 C   0  0  2  0  0  3  0  0  0  0  0  0
  185.1630  179.4900  144.8630 C   0  0  0  0  0  2  0  0  0  0  0  0
  185.6890  177.3620  143.9480 C   0  0  2  0  0  3  0  0  0  0  0  0
  185.5270  179.7220  143.4680 N   0  0  0  0  0  2  0  0  0  0  0  0
  184.7150  178.1330  141.7990 C   0  0  0  0  0  2  0  0  0  0  0  0
  183.4400  178.2150  142.3620 O   0  0  0  0  0  0  0  0  0  0  0  0
  182.5770  178.2450  141.2680 C   0  0  0  0  0  1  0  0  0  0  0  0
  184.7110  177.5040  146.1810 N   0  0  0  0  0  2  0  0  0  0  0  0
  184.8120  178.1980  147.4570 C   0  0  0  0  0  2  0  0  0  0  0  0
  186.2150  178.0640  148.0270 C   0  0  0  0  0  2  0  0  0  0  0  0
  186.7730  179.4260  148.3910 C   0  0  0  0  0  1  0  0  0  0  0  0
  3  2  1  6  0  0  0
  3  1  1  0  0  0  0
  3  5  1  0  0  0  0
  4  3  1  0  0  0  0
  6  7  1  6  0  0  0
  6  9  1  0  0  0  0
  8 13  1  6  0  0  0
  8  5  1  0  0  0  0
  8  6  1  0  0  0  0
  8  9  1  0  0  0  0
  9 10  1  1  0  0  0
 10 11  1  0  0  0  0
 12 13  1  0  0  0  0
 14  1  1  0  0  0  0
 15 20  1  6  0  0  0
 15 19  1  0  0  0  0
 15 18  1  0  0  0  0
 16 23  1  1  0  0  0
 17 16  1  0  0  0  0
 18 14  1  1  0  0  0
 18 16  1  0  0  0  0
 19 17  1  0  0  0  0
 20 21  1  0  0  0  0
 22 21  1  0  0  0  0
 23 24  1  0  0  0  0
 24 25  1  0  0  0  0
 25 26  1  0  0  0  0
M  END
>  <MODEL>
8

>  <REMARK>
 VINA RESULT:      -4.8      1.928      2.757
  Name = 
  12 active torsions:
  status: ('A' for Active; 'I' for Inactive)
    1  A    between atoms: C_1  and  C_17
    2  A    between atoms: C_1  and  N_23
    3  A    between atoms: C_2  and  C_20
    4  A    between atoms: C_4  and  N_23
    5  A    between atoms: O_7  and  C_20
    6  A    between atoms: C_9  and  C_10
    7  A    between atoms: C_9  and  O_21
    8  A    between atoms: C_10  and  N_12
    9  A    between atoms: C_11  and  C_15
   10  A    between atoms: N_12  and  C_14
   11  A    between atoms: C_14  and  C_18
   12  A    between atoms: O_21  and  C_24
                            x       y       z     vdW  Elec       q    Type
                         _______ _______ _______ _____ _____    ______ ____

>  <TORSDO>
F 12

$$$$
=
 OpenBabel11072408353D

 26 27  0  0  1  0  0  0  0  0999 V2000
  188.3240  176.6610  143.9790 C   0  0  0  0  0  2  0  0  0  0  0  0
  187.6290  175.9800  141.7050 C   0  0  0  0  0  1  0  0  0  0  0  0
  187.3190  176.9130  142.8640 C   0  0  2  0  0  0  0  0  0  0  0  0
  187.4300  178.2430  142.4410 O   0  0  0  0  0  1  0  0  0  0  0  0
  185.9760  176.6390  143.3940 N   0  0  0  0  0  2  0  0  0  0  0  0
  185.9210  178.8770  144.5880 C   0  0  2  0  0  3  0  0  0  0  0  0
  185.4240  180.1620  144.3640 O   0  0  0  0  0  1  0  0  0  0  0  0
  185.2100  177.8550  143.7110 C   0  0  2  0  0  0  0  0  0  0  0  0
  184.8200  178.0040  145.1780 C   0  0  1  0  0  3  0  0  0  0  0  0
  185.4480  176.9600  146.0910 C   0  0  0  0  0  2  0  0  0  0  0  0
  185.7800  177.5470  147.3110 O   0  0  0  0  0  1  0  0  0  0  0  0
  184.4420  177.9010  141.4450 O   0  0  0  0  0  1  0  0  0  0  0  0
  184.1190  178.3010  142.7410 C   0  0  0  0  0  2  0  0  0  0  0  0
  189.6070  177.1180  143.6160 O   0  0  0  0  0  0  0  0  0  0  0  0
  191.5150  176.7270  145.1150 C   0  0  2  0  0  3  0  0  0  0  0  0
  191.4710  175.6700  142.9340 C   0  0  2  0  0  3  0  0  0  0  0  0
  192.7920  175.4280  143.6220 C   0  0  0  0  0  2  0  0  0  0  0  0
  190.5820  176.1860  144.0450 C   0  0  2  0  0  3  0  0  0  0  0  0
  192.8780  176.3190  144.7760 N   0  0  0  0  0  2  0  0  0  0  0  0
  191.1220  176.1640  146.4680 C   0  0  0  0  0  2  0  0  0  0  0  0
  190.4850  174.9330  146.3040 O   0  0  0  0  0  0  0  0  0  0  0  0
  189.4650  174.9390  147.2550 C   0  0  0  0  0  1  0  0  0  0  0  0
  190.9540  174.4180  142.4040 N   0  0  0  0  0  2  0  0  0  0  0  0
  191.7110  173.3270  143.0040 C   0  0  0  0  0  2  0  0  0  0  0  0
  190.8400  172.0910  143.1490 C   0  0  0  0  0  2  0  0  0  0  0  0
  189.7090  172.3480  144.1260 C   0  0  0  0  0  1  0  0  0  0  0  0
  3  2  1  6  0  0  0
  3  5  1  0  0  0  0
  3  1  1  0  0  0  0
  4  3  1  0  0  0  0
  5  8  1  0  0  0  0
  6  7  1  6  0  0  0
  6  9  1  0  0  0  0
  8 13  1  6  0  0  0
  8  6  1  0  0  0  0
  8  9  1  0  0  0  0
  9 10  1  1  0  0  0
 10 11  1  0  0  0  0
 12 13  1  0  0  0  0
 14  1  1  0  0  0  0
 15 20  1  1  0  0  0
 16 23  1  1  0  0  0
 16 17  1  0  0  0  0
 16 18  1  0  0  0  0
 17 19  1  0  0  0  0
 18 14  1  6  0  0  0
 18 15  1  0  0  0  0
 19 15  1  0  0  0  0
 21 20  1  0  0  0  0
 21 22  1  0  0  0  0
 23 24  1  0  0  0  0
 24 25  1  0  0  0  0
 25 26  1  0  0  0  0
M  END
>  <MODEL>
9

>  <REMARK>
 VINA RESULT:      -4.8      2.197      6.675
  Name = 
  12 active torsions:
  status: ('A' for Active; 'I' for Inactive)
    1  A    between atoms: C_1  and  C_17
    2  A    between atoms: C_1  and  N_23
    3  A    between atoms: C_2  and  C_20
    4  A    between atoms: C_4  and  N_23
    5  A    between atoms: O_7  and  C_20
    6  A    between atoms: C_9  and  C_10
    7  A    between atoms: C_9  and  O_21
    8  A    between atoms: C_10  and  N_12
    9  A    between atoms: C_11  and  C_15
   10  A    between atoms: N_12  and  C_14
   11  A    between atoms: C_14  and  C_18
   12  A    between atoms: O_21  and  C_24
                            x       y       z     vdW  Elec       q    Type
                         _______ _______ _______ _____ _____    ______ ____

>  <TORSDO>
F 12

$$$$
