=
 OpenBabel11062419533D

 30 31  0  0  1  0  0  0  0  0999 V2000
  193.1660  176.1980  145.4320 C   0  0  1  0  0  3  0  0  0  0  0  0
  194.9140  177.8220  145.7460 O   0  0  0  0  0  1  0  0  0  0  0  0
  194.2030  176.7990  146.3780 C   0  0  0  0  0  2  0  0  0  0  0  0
  193.2940  174.7810  145.3910 O   0  0  0  0  0  0  0  0  0  0  0  0
  194.5520  174.4700  143.4790 O   0  0  0  0  0  0  0  0  0  0  0  0
  192.8460  172.9430  143.8460 N   0  0  0  0  0  2  0  0  0  0  0  0
  193.6050  174.0900  144.2180 C   0  0  0  0  0  0  0  0  0  0  0  0
  191.8100  172.4740  144.6630 N   0  0  0  0  0  2  0  0  0  0  0  0
  189.5460  172.0990  145.0030 O   0  0  0  0  0  0  0  0  0  0  0  0
  190.4470  172.5650  144.2550 C   0  0  0  0  0  0  0  0  0  0  0  0
  188.5760  174.6670  141.7570 C   0  0  0  0  0  2  0  0  0  0  0  0
  189.4320  172.1980  142.0200 C   0  0  0  0  0  2  0  0  0  0  0  0
  189.1100  174.3330  143.1320 C   0  0  0  0  0  2  0  0  0  0  0  0
  190.0870  173.1970  142.9460 C   0  0  1  0  0  3  0  0  0  0  0  0
  188.4740  173.1280  140.7860 S   0  0  0  0  0  0  0  0  0  0  0  0
  191.7510  176.5690  145.8590 C   0  0  0  0  0  2  0  0  0  0  0  0
  191.4360  176.6140  148.2250 O   0  0  0  0  0  1  0  0  0  0  0  0
  191.3300  175.7960  147.1000 C   0  0  1  0  0  3  0  0  0  0  0  0
  189.6100  175.2380  146.9250 S   0  0  0  0  0  0  0  0  0  0  0  0
  188.9800  176.9350  146.7630 C   0  0  0  0  0  2  0  0  0  0  0  0
  187.8150  176.9690  145.7870 C   0  0  1  0  0  3  0  0  0  0  0  0
  186.6220  177.7370  146.3800 C   0  0  2  0  0  3  0  0  0  0  0  0
  188.2940  177.6500  144.5060 C   0  0  0  0  0  2  0  0  0  0  0  0
  185.9690  176.9210  147.8250 Cl  0  0  0  0  0  0  0  0  0  0  0  0
  187.1640  177.7470  143.4900 C   0  0  0  0  0  2  0  0  0  0  0  0
  185.4980  177.8550  145.3530 C   0  0  0  0  0  2  0  0  0  0  0  0
  185.9990  178.5350  144.0830 C   0  0  2  0  0  3  0  0  0  0  0  0
  185.1490  178.5310  141.7300 O   0  0  0  0  0  0  0  0  0  0  0  0
  183.7130  178.8300  143.4900 O   0  0  0  0  0  1  0  0  0  0  0  0
  184.8920  178.6460  143.0910 C   0  0  0  0  0  0  0  0  0  0  0  0
  1 16  1  1  0  0  0
  1  3  1  0  0  0  0
  2  3  1  0  0  0  0
  4  1  1  0  0  0  0
  5  7  2  0  0  0  0
  6  7  1  0  0  0  0
  6  8  1  0  0  0  0
  7  4  1  0  0  0  0
 10  8  1  0  0  0  0
 10  9  2  0  0  0  0
 11 13  1  0  0  0  0
 12 14  1  0  0  0  0
 14 13  1  0  0  0  0
 14 10  1  1  0  0  0
 15 11  1  0  0  0  0
 15 12  1  0  0  0  0
 16 18  1  0  0  0  0
 18 17  1  1  0  0  0
 19 18  1  0  0  0  0
 20 19  1  0  0  0  0
 21 22  1  0  0  0  0
 21 20  1  1  0  0  0
 22 24  1  1  0  0  0
 23 21  1  0  0  0  0
 25 27  1  0  0  0  0
 25 23  1  0  0  0  0
 26 22  1  0  0  0  0
 27 30  1  6  0  0  0
 27 26  1  0  0  0  0
 28 30  2  0  0  0  0
 30 29  1  0  0  0  0
M  END
>  <MODEL>
1

>  <REMARK>
 VINA RESULT:      -6.1      0.000      0.000
  Name = 
  11 active torsions:
  status: ('A' for Active; 'I' for Inactive)
    1  A    between atoms: C_1  and  C_25
    2  A    between atoms: C_2  and  O_6
    3  A    between atoms: C_2  and  C_13
    4  A    between atoms: C_2  and  C_19
    5  A    between atoms: S_3  and  C_25
    6  A    between atoms: S_3  and  C_30
    7  A    between atoms: O_6  and  C_10
    8  A    between atoms: N_8  and  N_9
    9  A    between atoms: C_13  and  C_30
   10  A    between atoms: C_16  and  C_27
   11  A    between atoms: C_23  and  C_29
                            x       y       z     vdW  Elec       q    Type
                         _______ _______ _______ _____ _____    ______ ____

>  <TORSDO>
F 11

$$$$
=
 OpenBabel11062419533D

 30 31  0  0  1  0  0  0  0  0999 V2000
  191.2600  176.2360  146.4920 C   0  0  1  0  0  3  0  0  0  0  0  0
  191.4400  177.3170  148.6340 O   0  0  0  0  0  1  0  0  0  0  0  0
  191.8440  176.1990  147.9020 C   0  0  0  0  0  2  0  0  0  0  0  0
  192.2900  176.4600  145.5350 O   0  0  0  0  0  0  0  0  0  0  0  0
  191.6910  178.2040  144.1430 O   0  0  0  0  0  0  0  0  0  0  0  0
  192.1610  176.1810  143.1110 N   0  0  0  0  0  2  0  0  0  0  0  0
  192.0350  176.9990  144.2710 C   0  0  0  0  0  0  0  0  0  0  0  0
  192.5750  174.8480  143.2170 N   0  0  0  0  0  2  0  0  0  0  0  0
  192.2040  172.5980  142.7840 O   0  0  0  0  0  0  0  0  0  0  0  0
  191.7800  173.7830  142.7010 C   0  0  0  0  0  0  0  0  0  0  0  0
  188.0900  173.5690  141.9950 C   0  0  0  0  0  2  0  0  0  0  0  0
  190.3660  173.4200  140.6930 C   0  0  0  0  0  2  0  0  0  0  0  0
  189.3160  173.5220  142.8800 C   0  0  0  0  0  2  0  0  0  0  0  0
  190.4580  174.0650  142.0570 C   0  0  1  0  0  3  0  0  0  0  0  0
  188.6050  173.2470  140.2760 S   0  0  0  0  0  0  0  0  0  0  0  0
  190.5330  174.9390  146.1630 C   0  0  0  0  0  2  0  0  0  0  0  0
  188.5700  174.8000  147.5140 O   0  0  0  0  0  1  0  0  0  0  0  0
  189.0230  175.1200  146.2350 C   0  0  1  0  0  3  0  0  0  0  0  0
  188.5910  176.8440  145.8600 S   0  0  0  0  0  0  0  0  0  0  0  0
  186.8790  176.6360  146.4330 C   0  0  0  0  0  2  0  0  0  0  0  0
  185.9160  176.7730  145.2660 C   0  0  1  0  0  3  0  0  0  0  0  0
  185.2300  178.1500  145.2770 C   0  0  2  0  0  3  0  0  0  0  0  0
  186.7120  176.5940  143.9750 C   0  0  0  0  0  2  0  0  0  0  0  0
  184.2110  178.3640  146.7240 Cl  0  0  0  0  0  0  0  0  0  0  0  0
  185.8110  176.7510  142.7570 C   0  0  0  0  0  2  0  0  0  0  0  0
  184.3460  178.3180  144.0440 C   0  0  0  0  0  2  0  0  0  0  0  0
  185.1600  178.1310  142.7670 C   0  0  2  0  0  3  0  0  0  0  0  0
  182.9020  178.3260  141.7090 O   0  0  0  0  0  1  0  0  0  0  0  0
  184.8030  178.4350  140.4340 O   0  0  0  0  0  0  0  0  0  0  0  0
  184.2850  178.3000  141.5730 C   0  0  0  0  0  0  0  0  0  0  0  0
  1 16  1  6  0  0  0
  1  3  1  0  0  0  0
  3  2  1  0  0  0  0
  4  1  1  0  0  0  0
  5  7  2  0  0  0  0
  6  8  1  0  0  0  0
  6  7  1  0  0  0  0
  7  4  1  0  0  0  0
 10  9  2  0  0  0  0
 10  8  1  0  0  0  0
 11 13  1  0  0  0  0
 12 14  1  0  0  0  0
 14 10  1  1  0  0  0
 14 13  1  0  0  0  0
 15 12  1  0  0  0  0
 15 11  1  0  0  0  0
 16 18  1  0  0  0  0
 18 17  1  1  0  0  0
 19 18  1  0  0  0  0
 19 20  1  0  0  0  0
 21 22  1  0  0  0  0
 21 20  1  1  0  0  0
 22 24  1  1  0  0  0
 23 21  1  0  0  0  0
 25 27  1  0  0  0  0
 25 23  1  0  0  0  0
 26 22  1  0  0  0  0
 27 30  1  6  0  0  0
 27 26  1  0  0  0  0
 29 30  2  0  0  0  0
 30 28  1  0  0  0  0
M  END
>  <MODEL>
2

>  <REMARK>
 VINA RESULT:      -6.0      1.894      2.546
  Name = 
  11 active torsions:
  status: ('A' for Active; 'I' for Inactive)
    1  A    between atoms: C_1  and  C_25
    2  A    between atoms: C_2  and  O_6
    3  A    between atoms: C_2  and  C_13
    4  A    between atoms: C_2  and  C_19
    5  A    between atoms: S_3  and  C_25
    6  A    between atoms: S_3  and  C_30
    7  A    between atoms: O_6  and  C_10
    8  A    between atoms: N_8  and  N_9
    9  A    between atoms: C_13  and  C_30
   10  A    between atoms: C_16  and  C_27
   11  A    between atoms: C_23  and  C_29
                            x       y       z     vdW  Elec       q    Type
                         _______ _______ _______ _____ _____    ______ ____

>  <TORSDO>
F 11

$$$$
=
 OpenBabel11062419533D

 30 31  0  0  1  0  0  0  0  0999 V2000
  192.5170  176.0950  145.6820 C   0  0  1  0  0  3  0  0  0  0  0  0
  194.6860  176.2330  144.6500 O   0  0  0  0  0  1  0  0  0  0  0  0
  193.9140  176.7110  145.7110 C   0  0  0  0  0  2  0  0  0  0  0  0
  192.2950  175.4270  144.4450 O   0  0  0  0  0  0  0  0  0  0  0  0
  191.6740  177.0490  142.9220 O   0  0  0  0  0  0  0  0  0  0  0  0
  190.2970  175.1890  143.0590 N   0  0  0  0  0  2  0  0  0  0  0  0
  191.4420  175.9350  143.4610 C   0  0  0  0  0  0  0  0  0  0  0  0
  190.0310  173.9320  143.6140 N   0  0  0  0  0  2  0  0  0  0  0  0
  189.5370  171.6820  143.3260 O   0  0  0  0  0  0  0  0  0  0  0  0
  189.7360  172.8060  142.7890 C   0  0  0  0  0  0  0  0  0  0  0  0
  188.2910  172.8700  139.3160 C   0  0  0  0  0  2  0  0  0  0  0  0
  190.2860  171.7540  140.6100 C   0  0  0  0  0  2  0  0  0  0  0  0
  188.2490  173.0600  140.8160 C   0  0  0  0  0  2  0  0  0  0  0  0
  189.6740  172.9510  141.3010 C   0  0  1  0  0  3  0  0  0  0  0  0
  189.6190  171.6860  138.9200 S   0  0  0  0  0  0  0  0  0  0  0  0
  192.3230  175.1150  146.8320 C   0  0  0  0  0  2  0  0  0  0  0  0
  191.2570  176.9490  147.9250 O   0  0  0  0  0  1  0  0  0  0  0  0
  191.2020  175.5660  147.7570 C   0  0  1  0  0  3  0  0  0  0  0  0
  189.5950  175.1120  147.0450 S   0  0  0  0  0  0  0  0  0  0  0  0
  189.0910  176.8460  146.8430 C   0  0  0  0  0  2  0  0  0  0  0  0
  187.9250  176.9420  145.8710 C   0  0  1  0  0  3  0  0  0  0  0  0
  186.7560  177.7270  146.4900 C   0  0  2  0  0  3  0  0  0  0  0  0
  188.4210  177.6450  144.6090 C   0  0  0  0  0  2  0  0  0  0  0  0
  186.0830  176.8900  147.9130 Cl  0  0  0  0  0  0  0  0  0  0  0  0
  187.2920  177.8040  143.6000 C   0  0  0  0  0  2  0  0  0  0  0  0
  185.6340  177.9080  145.4700 C   0  0  0  0  0  2  0  0  0  0  0  0
  186.1520  178.6090  144.2180 C   0  0  2  0  0  3  0  0  0  0  0  0
  183.7400  178.9760  143.6660 O   0  0  0  0  0  1  0  0  0  0  0  0
  185.3000  178.7630  142.0010 O   0  0  0  0  0  0  0  0  0  0  0  0
  185.0460  178.7800  143.2330 C   0  0  0  0  0  0  0  0  0  0  0  0
  1  3  1  6  0  0  0
  1 16  1  0  0  0  0
  2  3  1  0  0  0  0
  4  1  1  0  0  0  0
  5  7  2  0  0  0  0
  6  7  1  0  0  0  0
  6  8  1  0  0  0  0
  7  4  1  0  0  0  0
 10  9  2  0  0  0  0
 10  8  1  0  0  0  0
 11 13  1  0  0  0  0
 12 14  1  0  0  0  0
 13 14  1  0  0  0  0
 14 10  1  1  0  0  0
 15 11  1  0  0  0  0
 15 12  1  0  0  0  0
 16 18  1  0  0  0  0
 18 17  1  6  0  0  0
 19 18  1  0  0  0  0
 20 19  1  0  0  0  0
 21 22  1  0  0  0  0
 21 20  1  1  0  0  0
 22 24  1  1  0  0  0
 23 21  1  0  0  0  0
 25 27  1  0  0  0  0
 25 23  1  0  0  0  0
 26 22  1  0  0  0  0
 27 30  1  6  0  0  0
 27 26  1  0  0  0  0
 29 30  2  0  0  0  0
 30 28  1  0  0  0  0
M  END
>  <MODEL>
3

>  <REMARK>
 VINA RESULT:      -5.9      1.586      1.827
  Name = 
  11 active torsions:
  status: ('A' for Active; 'I' for Inactive)
    1  A    between atoms: C_1  and  C_25
    2  A    between atoms: C_2  and  O_6
    3  A    between atoms: C_2  and  C_13
    4  A    between atoms: C_2  and  C_19
    5  A    between atoms: S_3  and  C_25
    6  A    between atoms: S_3  and  C_30
    7  A    between atoms: O_6  and  C_10
    8  A    between atoms: N_8  and  N_9
    9  A    between atoms: C_13  and  C_30
   10  A    between atoms: C_16  and  C_27
   11  A    between atoms: C_23  and  C_29
                            x       y       z     vdW  Elec       q    Type
                         _______ _______ _______ _____ _____    ______ ____

>  <TORSDO>
F 11

$$$$
=
 OpenBabel11062419533D

 30 31  0  0  1  0  0  0  0  0999 V2000
  190.3340  173.6390  140.5380 C   0  0  1  0  0  3  0  0  0  0  0  0
  190.8330  171.8540  139.0040 O   0  0  0  0  0  1  0  0  0  0  0  0
  190.9330  173.2340  139.1930 C   0  0  0  0  0  2  0  0  0  0  0  0
  188.9140  173.6700  140.4600 O   0  0  0  0  0  0  0  0  0  0  0  0
  187.5650  172.6100  142.0070 O   0  0  0  0  0  0  0  0  0  0  0  0
  187.8670  174.8900  142.2990 N   0  0  0  0  0  2  0  0  0  0  0  0
  188.1000  173.6740  141.5960 C   0  0  0  0  0  0  0  0  0  0  0  0
  188.4750  176.0830  141.8870 N   0  0  0  0  0  2  0  0  0  0  0  0
  188.3850  178.3870  141.6260 O   0  0  0  0  0  0  0  0  0  0  0  0
  187.7900  177.3310  141.9740 C   0  0  0  0  0  0  0  0  0  0  0  0
  184.1160  178.1360  142.0760 C   0  0  0  0  0  2  0  0  0  0  0  0
  186.2460  178.4120  143.5880 C   0  0  0  0  0  2  0  0  0  0  0  0
  185.4200  177.7910  141.3900 C   0  0  0  0  0  2  0  0  0  0  0  0
  186.3830  177.3920  142.4810 C   0  0  1  0  0  3  0  0  0  0  0  0
  184.4940  178.8860  143.6940 S   0  0  0  0  0  0  0  0  0  0  0  0
  190.7630  172.6810  141.6420 C   0  0  0  0  0  2  0  0  0  0  0  0
  191.6770  174.7520  142.3980 O   0  0  0  0  0  1  0  0  0  0  0  0
  191.6120  173.3900  142.6880 C   0  0  1  0  0  3  0  0  0  0  0  0
  190.8810  173.1610  144.3340 S   0  0  0  0  0  0  0  0  0  0  0  0
  191.6960  174.6420  145.0020 C   0  0  0  0  0  2  0  0  0  0  0  0
  190.6970  175.4830  145.7790 C   0  0  1  0  0  3  0  0  0  0  0  0
  190.0510  176.5470  144.8750 C   0  0  2  0  0  3  0  0  0  0  0  0
  189.6260  174.5470  146.3360 C   0  0  0  0  0  2  0  0  0  0  0  0
  191.2550  177.7200  144.2800 Cl  0  0  0  0  0  0  0  0  0  0  0  0
  188.5690  175.3310  147.1040 C   0  0  0  0  0  2  0  0  0  0  0  0
  188.9750  177.3160  145.6370 C   0  0  0  0  0  2  0  0  0  0  0  0
  187.9180  176.3620  146.1860 C   0  0  2  0  0  3  0  0  0  0  0  0
  185.5390  176.7450  146.8560 O   0  0  0  0  0  0  0  0  0  0  0  0
  187.2050  178.1140  147.6300 O   0  0  0  0  0  1  0  0  0  0  0  0
  186.8730  177.1260  146.9250 C   0  0  0  0  0  0  0  0  0  0  0  0
  1  3  1  6  0  0  0
  1 16  1  0  0  0  0
  2  3  1  0  0  0  0
  4  1  1  0  0  0  0
  4  7  1  0  0  0  0
  7  5  2  0  0  0  0
  7  6  1  0  0  0  0
  8 10  1  0  0  0  0
  8  6  1  0  0  0  0
  9 10  2  0  0  0  0
 11 15  1  0  0  0  0
 12 15  1  0  0  0  0
 13 11  1  0  0  0  0
 13 14  1  0  0  0  0
 14 10  1  6  0  0  0
 14 12  1  0  0  0  0
 16 18  1  0  0  0  0
 18 17  1  6  0  0  0
 18 19  1  0  0  0  0
 19 20  1  0  0  0  0
 21 20  1  6  0  0  0
 21 23  1  0  0  0  0
 22 24  1  1  0  0  0
 22 26  1  0  0  0  0
 22 21  1  0  0  0  0
 23 25  1  0  0  0  0
 26 27  1  0  0  0  0
 27 30  1  1  0  0  0
 27 25  1  0  0  0  0
 28 30  2  0  0  0  0
 30 29  1  0  0  0  0
M  END
>  <MODEL>
4

>  <REMARK>
 VINA RESULT:      -5.9      3.418      5.866
  Name = 
  11 active torsions:
  status: ('A' for Active; 'I' for Inactive)
    1  A    between atoms: C_1  and  C_25
    2  A    between atoms: C_2  and  O_6
    3  A    between atoms: C_2  and  C_13
    4  A    between atoms: C_2  and  C_19
    5  A    between atoms: S_3  and  C_25
    6  A    between atoms: S_3  and  C_30
    7  A    between atoms: O_6  and  C_10
    8  A    between atoms: N_8  and  N_9
    9  A    between atoms: C_13  and  C_30
   10  A    between atoms: C_16  and  C_27
   11  A    between atoms: C_23  and  C_29
                            x       y       z     vdW  Elec       q    Type
                         _______ _______ _______ _____ _____    ______ ____

>  <TORSDO>
F 11

$$$$
=
 OpenBabel11062419533D

 30 31  0  0  1  0  0  0  0  0999 V2000
  186.8370  177.5640  145.9580 C   0  0  1  0  0  3  0  0  0  0  0  0
  185.4840  179.0360  147.2970 O   0  0  0  0  0  1  0  0  0  0  0  0
  186.3560  177.9460  147.3560 C   0  0  0  0  0  2  0  0  0  0  0  0
  186.4120  178.5330  145.0050 O   0  0  0  0  0  0  0  0  0  0  0  0
  184.3920  177.9170  144.0690 O   0  0  0  0  0  0  0  0  0  0  0  0
  186.1620  178.1960  142.5990 N   0  0  0  0  0  2  0  0  0  0  0  0
  185.6070  178.2060  143.9100 C   0  0  0  0  0  0  0  0  0  0  0  0
  187.5010  178.5460  142.3850 N   0  0  0  0  0  2  0  0  0  0  0  0
  189.7010  177.9080  142.0140 O   0  0  0  0  0  0  0  0  0  0  0  0
  188.5130  177.5520  142.2410 C   0  0  0  0  0  0  0  0  0  0  0  0
  188.9620  173.8620  142.8230 C   0  0  0  0  0  2  0  0  0  0  0  0
  188.0110  175.4730  140.9800 C   0  0  0  0  0  2  0  0  0  0  0  0
  189.2520  175.3270  143.0630 C   0  0  0  0  0  2  0  0  0  0  0  0
  188.1690  176.0990  142.3480 C   0  0  1  0  0  3  0  0  0  0  0  0
  188.2430  173.6790  141.1590 S   0  0  0  0  0  0  0  0  0  0  0  0
  188.3540  177.4380  145.9130 C   0  0  0  0  0  2  0  0  0  0  0  0
  188.6640  175.1860  146.6410 O   0  0  0  0  0  1  0  0  0  0  0  0
  188.8630  176.5160  147.0120 C   0  0  1  0  0  3  0  0  0  0  0  0
  190.6350  176.8030  147.2870 S   0  0  0  0  0  0  0  0  0  0  0  0
  191.0710  175.0880  146.8710 C   0  0  0  0  0  2  0  0  0  0  0  0
  192.4900  175.0250  146.3320 C   0  0  1  0  0  3  0  0  0  0  0  0
  192.5000  174.6030  144.8530 C   0  0  2  0  0  3  0  0  0  0  0  0
  193.1140  176.4110  146.4860 C   0  0  0  0  0  2  0  0  0  0  0  0
  191.8680  172.9490  144.6390 Cl  0  0  0  0  0  0  0  0  0  0  0  0
  194.5340  176.4290  145.9350 C   0  0  0  0  0  2  0  0  0  0  0  0
  193.9190  174.6440  144.2930 C   0  0  0  0  0  2  0  0  0  0  0  0
  194.5230  176.0360  144.4600 C   0  0  2  0  0  3  0  0  0  0  0  0
  196.5390  174.8840  143.5270 O   0  0  0  0  0  0  0  0  0  0  0  0
  196.5030  177.1620  143.7700 O   0  0  0  0  0  1  0  0  0  0  0  0
  195.9080  176.0620  143.9080 C   0  0  0  0  0  0  0  0  0  0  0  0
  1 16  1  1  0  0  0
  1  3  1  0  0  0  0
  2  3  1  0  0  0  0
  4  1  1  0  0  0  0
  6  7  1  0  0  0  0
  7  5  2  0  0  0  0
  7  4  1  0  0  0  0
  8  6  1  0  0  0  0
  9 10  2  0  0  0  0
 10  8  1  0  0  0  0
 11 13  1  0  0  0  0
 12 15  1  0  0  0  0
 12 14  1  0  0  0  0
 14 10  1  6  0  0  0
 14 13  1  0  0  0  0
 15 11  1  0  0  0  0
 16 18  1  0  0  0  0
 18 17  1  6  0  0  0
 18 19  1  0  0  0  0
 20 19  1  0  0  0  0
 21 23  1  0  0  0  0
 21 20  1  6  0  0  0
 22 24  1  1  0  0  0
 22 21  1  0  0  0  0
 25 23  1  0  0  0  0
 26 27  1  0  0  0  0
 26 22  1  0  0  0  0
 27 30  1  1  0  0  0
 27 25  1  0  0  0  0
 28 30  2  0  0  0  0
 29 30  1  0  0  0  0
M  END
>  <MODEL>
5

>  <REMARK>
 VINA RESULT:      -5.8      3.153      7.225
  Name = 
  11 active torsions:
  status: ('A' for Active; 'I' for Inactive)
    1  A    between atoms: C_1  and  C_25
    2  A    between atoms: C_2  and  O_6
    3  A    between atoms: C_2  and  C_13
    4  A    between atoms: C_2  and  C_19
    5  A    between atoms: S_3  and  C_25
    6  A    between atoms: S_3  and  C_30
    7  A    between atoms: O_6  and  C_10
    8  A    between atoms: N_8  and  N_9
    9  A    between atoms: C_13  and  C_30
   10  A    between atoms: C_16  and  C_27
   11  A    between atoms: C_23  and  C_29
                            x       y       z     vdW  Elec       q    Type
                         _______ _______ _______ _____ _____    ______ ____

>  <TORSDO>
F 11

$$$$
=
 OpenBabel11062419533D

 30 31  0  0  1  0  0  0  0  0999 V2000
  193.1140  176.3310  145.3560 C   0  0  1  0  0  3  0  0  0  0  0  0
  195.0120  175.4100  146.5140 O   0  0  0  0  0  1  0  0  0  0  0  0
  194.3320  176.5980  146.2380 C   0  0  0  0  0  2  0  0  0  0  0  0
  193.1470  174.9980  144.8560 O   0  0  0  0  0  0  0  0  0  0  0  0
  194.3990  175.3380  142.9460 O   0  0  0  0  0  0  0  0  0  0  0  0
  192.7950  173.6680  142.8380 N   0  0  0  0  0  2  0  0  0  0  0  0
  193.4860  174.7010  143.5340 C   0  0  0  0  0  0  0  0  0  0  0  0
  191.7990  172.9170  143.4760 N   0  0  0  0  0  2  0  0  0  0  0  0
  189.5990  172.1840  143.5690 O   0  0  0  0  0  0  0  0  0  0  0  0
  190.4590  172.9000  142.9880 C   0  0  0  0  0  0  0  0  0  0  0  0
  188.2820  174.7560  140.5440 C   0  0  0  0  0  2  0  0  0  0  0  0
  190.1300  172.8900  140.5280 C   0  0  0  0  0  2  0  0  0  0  0  0
  188.6660  174.2440  141.9150 C   0  0  0  0  0  2  0  0  0  0  0  0
  190.0750  173.7160  141.7930 C   0  0  1  0  0  3  0  0  0  0  0  0
  189.0760  173.7000  139.2880 S   0  0  0  0  0  0  0  0  0  0  0  0
  191.8180  176.5550  146.1240 C   0  0  0  0  0  2  0  0  0  0  0  0
  191.2170  175.2940  148.0590 O   0  0  0  0  0  1  0  0  0  0  0  0
  191.2650  175.2450  146.6660 C   0  0  1  0  0  3  0  0  0  0  0  0
  189.5920  174.9660  146.0180 S   0  0  0  0  0  0  0  0  0  0  0  0
  189.7340  176.3190  144.8130 C   0  0  0  0  0  2  0  0  0  0  0  0
  188.5430  177.2550  144.9340 C   0  0  1  0  0  3  0  0  0  0  0  0
  187.7820  177.3530  143.6000 C   0  0  2  0  0  3  0  0  0  0  0  0
  187.6230  176.7070  146.0240 C   0  0  0  0  0  2  0  0  0  0  0  0
  188.7920  178.0790  142.3220 Cl  0  0  0  0  0  0  0  0  0  0  0  0
  186.3870  177.5830  146.1780 C   0  0  0  0  0  2  0  0  0  0  0  0
  186.5300  178.2120  143.7610 C   0  0  0  0  0  2  0  0  0  0  0  0
  185.6280  177.6480  144.8550 C   0  0  2  0  0  3  0  0  0  0  0  0
  183.7440  178.9710  143.8760 O   0  0  0  0  0  0  0  0  0  0  0  0
  183.9700  178.7650  146.1460 O   0  0  0  0  0  1  0  0  0  0  0  0
  184.4090  178.4940  144.9990 C   0  0  0  0  0  0  0  0  0  0  0  0
  1 16  1  1  0  0  0
  1  3  1  0  0  0  0
  3  2  1  0  0  0  0
  4  1  1  0  0  0  0
  5  7  2  0  0  0  0
  6  8  1  0  0  0  0
  6  7  1  0  0  0  0
  7  4  1  0  0  0  0
 10  8  1  0  0  0  0
 10  9  2  0  0  0  0
 11 13  1  0  0  0  0
 12 14  1  0  0  0  0
 14 13  1  0  0  0  0
 14 10  1  1  0  0  0
 15 12  1  0  0  0  0
 15 11  1  0  0  0  0
 16 18  1  0  0  0  0
 18 17  1  1  0  0  0
 19 18  1  0  0  0  0
 20 19  1  0  0  0  0
 21 20  1  6  0  0  0
 21 23  1  0  0  0  0
 22 24  1  6  0  0  0
 22 26  1  0  0  0  0
 22 21  1  0  0  0  0
 23 25  1  0  0  0  0
 26 27  1  0  0  0  0
 27 30  1  1  0  0  0
 27 25  1  0  0  0  0
 28 30  2  0  0  0  0
 30 29  1  0  0  0  0
M  END
>  <MODEL>
6

>  <REMARK>
 VINA RESULT:      -5.8      1.639      1.995
  Name = 
  11 active torsions:
  status: ('A' for Active; 'I' for Inactive)
    1  A    between atoms: C_1  and  C_25
    2  A    between atoms: C_2  and  O_6
    3  A    between atoms: C_2  and  C_13
    4  A    between atoms: C_2  and  C_19
    5  A    between atoms: S_3  and  C_25
    6  A    between atoms: S_3  and  C_30
    7  A    between atoms: O_6  and  C_10
    8  A    between atoms: N_8  and  N_9
    9  A    between atoms: C_13  and  C_30
   10  A    between atoms: C_16  and  C_27
   11  A    between atoms: C_23  and  C_29
                            x       y       z     vdW  Elec       q    Type
                         _______ _______ _______ _____ _____    ______ ____

>  <TORSDO>
F 11

$$$$
=
 OpenBabel11062419533D

 30 31  0  0  1  0  0  0  0  0999 V2000
  192.7410  176.6200  144.9200 C   0  0  1  0  0  3  0  0  0  0  0  0
  194.8040  177.4840  145.8070 O   0  0  0  0  0  1  0  0  0  0  0  0
  194.2220  176.9070  144.6770 C   0  0  0  0  0  2  0  0  0  0  0  0
  191.9970  176.8080  143.7210 O   0  0  0  0  0  0  0  0  0  0  0  0
  191.4440  179.0460  143.8750 O   0  0  0  0  0  0  0  0  0  0  0  0
  189.8200  177.6450  142.9950 N   0  0  0  0  0  0  0  0  0  0  0  0
  191.1120  177.8760  143.5470 C   0  0  0  0  0  0  0  0  0  0  0  0
  189.4340  176.3620  142.5880 N   0  0  0  0  0  0  0  0  0  0  0  0
  187.8340  174.9490  141.6770 O   0  0  0  0  0  0  0  0  0  0  0  0
  188.1310  176.1110  142.0650 C   0  0  0  0  0  0  0  0  0  0  0  0
  184.8380  177.9110  142.3390 C   0  0  0  0  0  2  0  0  0  0  0  0
  186.6870  177.4310  140.5370 C   0  0  0  0  0  2  0  0  0  0  0  0
  185.8850  176.9080  142.7690 C   0  0  0  0  0  2  0  0  0  0  0  0
  187.1270  177.2170  141.9670 C   0  0  1  0  0  3  0  0  0  0  0  0
  185.0770  178.2750  140.5690 S   0  0  0  0  0  0  0  0  0  0  0  0
  192.5320  175.2010  145.4320 C   0  0  0  0  0  2  0  0  0  0  0  0
  192.3320  173.2610  144.0550 O   0  0  0  0  0  1  0  0  0  0  0  0
  191.6500  174.3990  144.4860 C   0  0  1  0  0  3  0  0  0  0  0  0
  190.1270  173.8970  145.3390 S   0  0  0  0  0  0  0  0  0  0  0  0
  190.4520  174.9890  146.7560 C   0  0  0  0  0  2  0  0  0  0  0  0
  189.2310  175.8450  147.0470 C   0  0  1  0  0  3  0  0  0  0  0  0
  189.5970  177.3390  147.0560 C   0  0  2  0  0  3  0  0  0  0  0  0
  188.1910  175.5650  145.9650 C   0  0  0  0  0  2  0  0  0  0  0  0
  190.7380  177.7280  148.3700 Cl  0  0  0  0  0  0  0  0  0  0  0  0
  186.9460  176.4170  146.1780 C   0  0  0  0  0  2  0  0  0  0  0  0
  188.3460  178.1950  147.2460 C   0  0  0  0  0  2  0  0  0  0  0  0
  187.3200  177.8970  146.1560 C   0  0  2  0  0  3  0  0  0  0  0  0
  185.4450  178.7520  147.5740 O   0  0  0  0  0  1  0  0  0  0  0  0
  185.6880  179.4590  145.4080 O   0  0  0  0  0  0  0  0  0  0  0  0
  186.1060  178.7400  146.3520 C   0  0  0  0  0  0  0  0  0  0  0  0
  1  3  1  6  0  0  0
  1 16  1  0  0  0  0
  3  2  1  0  0  0  0
  4  1  1  0  0  0  0
  6  7  1  0  0  0  0
  7  4  1  0  0  0  0
  7  5  2  0  0  0  0
  8  6  2  0  0  0  0
  9 10  2  0  0  0  0
 10  8  1  0  0  0  0
 11 13  1  0  0  0  0
 12 15  1  0  0  0  0
 12 14  1  0  0  0  0
 14 10  1  6  0  0  0
 14 13  1  0  0  0  0
 15 11  1  0  0  0  0
 18 17  1  1  0  0  0
 18 19  1  0  0  0  0
 18 16  1  0  0  0  0
 19 20  1  0  0  0  0
 21 20  1  6  0  0  0
 21 22  1  0  0  0  0
 22 26  1  0  0  0  0
 22 24  1  1  0  0  0
 23 25  1  0  0  0  0
 23 21  1  0  0  0  0
 27 25  1  0  0  0  0
 27 30  1  1  0  0  0
 27 26  1  0  0  0  0
 29 30  2  0  0  0  0
 30 28  1  0  0  0  0
M  END
>  <MODEL>
7

>  <REMARK>
 VINA RESULT:      -5.8      2.865      4.028
  Name = 
  11 active torsions:
  status: ('A' for Active; 'I' for Inactive)
    1  A    between atoms: C_1  and  C_25
    2  A    between atoms: C_2  and  O_6
    3  A    between atoms: C_2  and  C_13
    4  A    between atoms: C_2  and  C_19
    5  A    between atoms: S_3  and  C_25
    6  A    between atoms: S_3  and  C_30
    7  A    between atoms: O_6  and  C_10
    8  A    between atoms: N_8  and  N_9
    9  A    between atoms: C_13  and  C_30
   10  A    between atoms: C_16  and  C_27
   11  A    between atoms: C_23  and  C_29
                            x       y       z     vdW  Elec       q    Type
                         _______ _______ _______ _____ _____    ______ ____

>  <TORSDO>
F 11

$$$$
=
 OpenBabel11062419533D

 30 31  0  0  1  0  0  0  0  0999 V2000
  193.8320  175.9420  144.8180 C   0  0  1  0  0  3  0  0  0  0  0  0
  194.5740  177.5500  146.4470 O   0  0  0  0  0  1  0  0  0  0  0  0
  194.8980  176.9570  145.2250 C   0  0  0  0  0  2  0  0  0  0  0  0
  194.2740  175.1800  143.7010 O   0  0  0  0  0  0  0  0  0  0  0  0
  194.3460  176.3720  141.7240 O   0  0  0  0  0  0  0  0  0  0  0  0
  192.8130  174.6360  141.8210 N   0  0  0  0  0  0  0  0  0  0  0  0
  193.8400  175.4360  142.3980 C   0  0  0  0  0  0  0  0  0  0  0  0
  192.2540  173.5660  142.5310 N   0  0  0  0  0  0  0  0  0  0  0  0
  190.6000  171.9530  142.7430 O   0  0  0  0  0  0  0  0  0  0  0  0
  191.0510  172.9360  142.0960 C   0  0  0  0  0  0  0  0  0  0  0  0
  188.3430  174.4750  139.9850 C   0  0  0  0  0  2  0  0  0  0  0  0
  189.7790  172.2780  140.0690 C   0  0  0  0  0  2  0  0  0  0  0  0
  189.1680  174.3140  141.2430 C   0  0  0  0  0  2  0  0  0  0  0  0
  190.3350  173.4280  140.8770 C   0  0  1  0  0  3  0  0  0  0  0  0
  188.4340  172.9250  139.0300 S   0  0  0  0  0  0  0  0  0  0  0  0
  193.4950  175.0060  145.9720 C   0  0  0  0  0  2  0  0  0  0  0  0
  191.9310  175.4620  147.7170 O   0  0  0  0  0  1  0  0  0  0  0  0
  192.0300  175.1250  146.3670 C   0  0  1  0  0  3  0  0  0  0  0  0
  191.2240  176.4100  145.3680 S   0  0  0  0  0  0  0  0  0  0  0  0
  189.9650  175.2600  144.7390 C   0  0  0  0  0  2  0  0  0  0  0  0
  188.5750  175.7570  145.1020 C   0  0  1  0  0  3  0  0  0  0  0  0
  188.4780  176.0730  146.6040 C   0  0  2  0  0  3  0  0  0  0  0  0
  188.2960  177.0150  144.2810 C   0  0  0  0  0  2  0  0  0  0  0  0
  188.7020  174.6090  147.5980 Cl  0  0  0  0  0  0  0  0  0  0  0  0
  186.9250  177.5870  144.6190 C   0  0  0  0  0  2  0  0  0  0  0  0
  187.1130  176.6690  146.9380 C   0  0  0  0  0  2  0  0  0  0  0  0
  186.8540  177.9220  146.1060 C   0  0  2  0  0  3  0  0  0  0  0  0
  184.7170  179.0460  145.4540 O   0  0  0  0  0  0  0  0  0  0  0  0
  185.1110  178.4620  147.6340 O   0  0  0  0  0  1  0  0  0  0  0  0
  185.5200  178.4940  146.4440 C   0  0  0  0  0  0  0  0  0  0  0  0
  1  3  1  1  0  0  0
  1 16  1  0  0  0  0
  3  2  1  0  0  0  0
  4  1  1  0  0  0  0
  5  7  2  0  0  0  0
  6  7  1  0  0  0  0
  6  8  2  0  0  0  0
  7  4  1  0  0  0  0
 10  8  1  0  0  0  0
 10  9  2  0  0  0  0
 11 13  1  0  0  0  0
 12 14  1  0  0  0  0
 14 13  1  0  0  0  0
 14 10  1  1  0  0  0
 15 11  1  0  0  0  0
 15 12  1  0  0  0  0
 16 18  1  0  0  0  0
 18 17  1  1  0  0  0
 19 18  1  0  0  0  0
 20 19  1  0  0  0  0
 21 20  1  1  0  0  0
 21 22  1  0  0  0  0
 22 26  1  0  0  0  0
 22 24  1  1  0  0  0
 23 25  1  0  0  0  0
 23 21  1  0  0  0  0
 25 27  1  0  0  0  0
 27 30  1  6  0  0  0
 27 26  1  0  0  0  0
 28 30  2  0  0  0  0
 30 29  1  0  0  0  0
M  END
>  <MODEL>
8

>  <REMARK>
 VINA RESULT:      -5.7      1.911      2.348
  Name = 
  11 active torsions:
  status: ('A' for Active; 'I' for Inactive)
    1  A    between atoms: C_1  and  C_25
    2  A    between atoms: C_2  and  O_6
    3  A    between atoms: C_2  and  C_13
    4  A    between atoms: C_2  and  C_19
    5  A    between atoms: S_3  and  C_25
    6  A    between atoms: S_3  and  C_30
    7  A    between atoms: O_6  and  C_10
    8  A    between atoms: N_8  and  N_9
    9  A    between atoms: C_13  and  C_30
   10  A    between atoms: C_16  and  C_27
   11  A    between atoms: C_23  and  C_29
                            x       y       z     vdW  Elec       q    Type
                         _______ _______ _______ _____ _____    ______ ____

>  <TORSDO>
F 11

$$$$
=
 OpenBabel11062419533D

 30 31  0  0  1  0  0  0  0  0999 V2000
  192.5450  174.4400  144.8780 C   0  0  1  0  0  3  0  0  0  0  0  0
  192.7890  172.0590  144.6350 O   0  0  0  0  0  1  0  0  0  0  0  0
  193.4110  173.2070  145.1280 C   0  0  0  0  0  2  0  0  0  0  0  0
  191.7000  174.2330  143.7520 O   0  0  0  0  0  0  0  0  0  0  0  0
  192.4250  176.0190  142.4790 O   0  0  0  0  0  0  0  0  0  0  0  0
  190.2590  175.2910  142.0870 N   0  0  0  0  0  2  0  0  0  0  0  0
  191.5070  175.2080  142.7700 C   0  0  0  0  0  0  0  0  0  0  0  0
  189.2300  174.3820  142.3630 N   0  0  0  0  0  2  0  0  0  0  0  0
  187.8390  172.6630  141.6600 O   0  0  0  0  0  0  0  0  0  0  0  0
  188.7420  173.4910  141.3620 C   0  0  0  0  0  0  0  0  0  0  0  0
  188.8410  173.7990  137.6140 C   0  0  0  0  0  2  0  0  0  0  0  0
  189.6410  172.1390  139.4850 C   0  0  0  0  0  2  0  0  0  0  0  0
  188.3110  174.1110  138.9960 C   0  0  0  0  0  2  0  0  0  0  0  0
  189.3020  173.5280  139.9740 C   0  0  1  0  0  3  0  0  0  0  0  0
  189.6830  172.1830  137.6680 S   0  0  0  0  0  0  0  0  0  0  0  0
  191.6950  174.7720  146.0980 C   0  0  0  0  0  2  0  0  0  0  0  0
  192.9610  176.7940  146.0260 O   0  0  0  0  0  1  0  0  0  0  0  0
  192.2940  175.9250  146.8900 C   0  0  1  0  0  3  0  0  0  0  0  0
  190.9780  176.8310  147.7520 S   0  0  0  0  0  0  0  0  0  0  0  0
  189.6610  175.9440  146.8680 C   0  0  0  0  0  2  0  0  0  0  0  0
  188.5350  176.8990  146.5110 C   0  0  1  0  0  3  0  0  0  0  0  0
  188.4630  177.1220  144.9900 C   0  0  2  0  0  3  0  0  0  0  0  0
  187.2260  176.2940  147.0160 C   0  0  0  0  0  2  0  0  0  0  0  0
  189.9350  177.9170  144.3730 Cl  0  0  0  0  0  0  0  0  0  0  0  0
  186.0450  177.1900  146.6630 C   0  0  0  0  0  2  0  0  0  0  0  0
  187.2650  177.9990  144.6340 C   0  0  0  0  0  2  0  0  0  0  0  0
  185.9700  177.3780  145.1500 C   0  0  2  0  0  3  0  0  0  0  0  0
  184.1790  179.0140  145.7630 O   0  0  0  0  0  1  0  0  0  0  0  0
  184.4080  178.2870  143.6020 O   0  0  0  0  0  0  0  0  0  0  0  0
  184.8100  178.2430  144.7940 C   0  0  0  0  0  0  0  0  0  0  0  0
  1  3  1  1  0  0  0
  1 16  1  0  0  0  0
  2  3  1  0  0  0  0
  4  1  1  0  0  0  0
  5  7  2  0  0  0  0
  6  8  1  0  0  0  0
  6  7  1  0  0  0  0
  7  4  1  0  0  0  0
 10  9  2  0  0  0  0
 10  8  1  0  0  0  0
 11 15  1  0  0  0  0
 11 13  1  0  0  0  0
 12 14  1  0  0  0  0
 13 14  1  0  0  0  0
 14 10  1  1  0  0  0
 15 12  1  0  0  0  0
 16 18  1  0  0  0  0
 18 17  1  6  0  0  0
 18 19  1  0  0  0  0
 20 19  1  0  0  0  0
 21 20  1  6  0  0  0
 21 23  1  0  0  0  0
 22 24  1  1  0  0  0
 22 21  1  0  0  0  0
 25 23  1  0  0  0  0
 26 22  1  0  0  0  0
 26 27  1  0  0  0  0
 27 30  1  1  0  0  0
 27 25  1  0  0  0  0
 29 30  2  0  0  0  0
 30 28  1  0  0  0  0
M  END
>  <MODEL>
9

>  <REMARK>
 VINA RESULT:      -5.7      2.471      3.173
  Name = 
  11 active torsions:
  status: ('A' for Active; 'I' for Inactive)
    1  A    between atoms: C_1  and  C_25
    2  A    between atoms: C_2  and  O_6
    3  A    between atoms: C_2  and  C_13
    4  A    between atoms: C_2  and  C_19
    5  A    between atoms: S_3  and  C_25
    6  A    between atoms: S_3  and  C_30
    7  A    between atoms: O_6  and  C_10
    8  A    between atoms: N_8  and  N_9
    9  A    between atoms: C_13  and  C_30
   10  A    between atoms: C_16  and  C_27
   11  A    between atoms: C_23  and  C_29
                            x       y       z     vdW  Elec       q    Type
                         _______ _______ _______ _____ _____    ______ ____

>  <TORSDO>
F 11

$$$$
