=
 OpenBabel11062419593D

 42 47  0  0  1  0  0  0  0  0999 V2000
  190.2400  176.0970  143.7340 C   0  0  0  0  0  0  0  0  0  0  0  0
  188.0840  175.5920  142.9790 C   0  0  0  0  0  3  0  0  0  0  0  0
  191.3400  174.8250  145.4200 C   0  0  0  0  0  0  0  0  0  0  0  0
  190.2120  173.9920  145.5180 C   0  0  0  0  0  3  0  0  0  0  0  0
  192.5820  176.7100  144.5660 C   0  0  0  0  0  2  0  0  0  0  0  0
  193.3040  176.3520  145.8720 C   0  0  1  0  0  3  0  0  0  0  0  0
  189.9510  177.2840  142.5830 S   0  0  0  0  0  0  0  0  0  0  0  0
  189.1370  175.2620  143.8330 C   0  0  0  0  0  0  0  0  0  0  0  0
  188.4020  176.7150  142.2080 C   0  0  0  0  0  0  0  0  0  0  0  0
  191.3530  175.8870  144.5390 C   0  0  0  0  0  0  0  0  0  0  0  0
  192.8090  174.6600  146.4010 S   0  0  0  0  0  0  0  0  0  0  0  0
  189.1260  174.2260  144.7170 N   0  0  0  0  0  0  0  0  0  0  0  0
  195.8620  175.7190  143.8370 C   0  0  0  0  0  0  0  0  0  0  0  0
  196.3290  175.7160  142.4870 N   0  0  0  0  0  2  0  0  0  0  0  0
  194.8200  176.4500  145.7080 C   0  0  1  0  0  3  0  0  0  0  0  0
  196.1500  174.6250  144.7920 C   0  0  1  0  0  3  0  0  0  0  0  0
  195.4960  175.1230  146.0720 C   0  0  0  0  0  2  0  0  0  0  0  0
  195.1590  176.6830  144.3160 N   0  0  0  0  0  0  0  0  0  0  0  0
  195.5040  173.4280  144.3710 O   0  0  0  0  0  0  0  0  0  0  0  0
  194.5340  171.4300  145.3050 C   0  0  0  0  0  3  0  0  0  0  0  0
  195.6660  172.2020  145.0230 C   0  0  0  0  0  0  0  0  0  0  0  0
  194.6630  170.2030  145.9620 C   0  0  0  0  0  3  0  0  0  0  0  0
  196.9350  171.7350  145.4100 C   0  0  0  0  0  3  0  0  0  0  0  0
  197.0630  170.5080  146.0660 C   0  0  0  0  0  3  0  0  0  0  0  0
  196.0540  168.5260  146.9980 O   0  0  0  0  0  1  0  0  0  0  0  0
  195.9270  169.7430  146.3430 C   0  0  0  0  0  0  0  0  0  0  0  0
  196.0320  176.7290  141.6360 O   0  0  0  0  0  0  0  0  0  0  0  0
  195.9920  176.1690  140.4420 O   0  0  0  0  0  0  0  0  0  0  0  0
  194.5550  174.9290  139.0090 C   0  0  0  0  0  1  0  0  0  0  0  0
  194.6930  175.6680  140.3260 C   0  0  0  0  0  2  0  0  0  0  0  0
  185.6520  178.4620  140.5240 O   0  0  0  0  0  0  0  0  0  0  0  0
  186.2820  177.9440  141.4840 C   0  0  0  0  0  0  0  0  0  0  0  0
  187.5540  177.3350  141.2330 N   0  0  0  0  0  2  0  0  0  0  0  0
  185.7230  177.9680  142.8020 N   0  0  0  0  0  2  0  0  0  0  0  0
  184.4200  178.5470  143.0950 C   0  0  0  0  0  2  0  0  0  0  0  0
  184.2040  178.6060  144.5990 C   0  0  0  0  0  2  0  0  0  0  0  0
  185.4570  178.3560  145.2910 N   0  0  0  0  0  0  0  0  0  0  0  0
  186.1600  178.4520  147.5720 C   0  0  0  0  0  2  0  0  0  0  0  0
  185.3900  176.9980  145.8140 C   0  0  0  0  0  2  0  0  0  0  0  0
  185.4890  179.2200  146.4600 C   0  0  0  0  0  2  0  0  0  0  0  0
  187.1510  176.3210  147.2640 O   0  0  0  0  0  1  0  0  0  0  0  0
  185.9340  177.0020  147.2290 C   0  0  1  0  0  3  0  0  0  0  0  0
  1  8  2  0  0  0  0
  1 10  1  0  0  0  0
  2  8  1  0  0  0  0
  3  4  1  0  0  0  0
  3 11  1  0  0  0  0
  6  5  1  6  0  0  0
  6 11  1  0  0  0  0
  7  1  1  0  0  0  0
  8 12  1  0  0  0  0
  9  7  1  0  0  0  0
  9  2  2  0  0  0  0
 10  5  1  0  0  0  0
 10  3  2  0  0  0  0
 12  4  2  0  0  0  0
 13 18  2  0  0  0  0
 13 16  1  0  0  0  0
 14 13  1  0  0  0  0
 15  6  1  0  0  0  0
 15 17  1  6  0  0  0
 16 19  1  6  0  0  0
 16 17  1  0  0  0  0
 18 15  1  0  0  0  0
 19 21  1  0  0  0  0
 20 22  1  0  0  0  0
 21 20  2  0  0  0  0
 21 23  1  0  0  0  0
 22 26  2  0  0  0  0
 23 24  2  0  0  0  0
 24 26  1  0  0  0  0
 26 25  1  0  0  0  0
 27 14  1  0  0  0  0
 28 27  1  0  0  0  0
 29 30  1  0  0  0  0
 30 28  1  0  0  0  0
 31 32  2  0  0  0  0
 32 34  1  0  0  0  0
 33 32  1  0  0  0  0
 33  9  1  0  0  0  0
 34 35  1  0  0  0  0
 35 36  1  0  0  0  0
 36 37  1  0  0  0  0
 37 39  1  0  0  0  0
 37 40  1  0  0  0  0
 39 42  1  0  0  0  0
 40 38  1  0  0  0  0
 42 41  1  6  0  0  0
 42 38  1  0  0  0  0
M  END
>  <MODEL>
1

>  <REMARK>
 VINA RESULT:      -7.9      0.000      0.000
  Name = 
  10 active torsions:
  status: ('A' for Active; 'I' for Inactive)
    1  A    between atoms: N_3  and  C_15
    2  A    between atoms: C_10  and  C_15
    3  A    between atoms: C_10  and  N_42
    4  A    between atoms: N_11  and  O_17
    5  A    between atoms: C_12  and  O_14
    6  A    between atoms: O_14  and  C_19
    7  A    between atoms: C_16  and  C_32
    8  A    between atoms: O_17  and  O_26
    9  A    between atoms: C_23  and  O_26
   10  A    between atoms: N_28  and  C_36
                            x       y       z     vdW  Elec       q    Type
                         _______ _______ _______ _____ _____    ______ ____

>  <TORSDO>
F 10

$$$$
=
 OpenBabel11062419593D

 42 47  0  0  1  0  0  0  0  0999 V2000
  191.7440  172.2040  143.8080 C   0  0  0  0  0  0  0  0  0  0  0  0
  192.4680  170.1210  143.0250 C   0  0  0  0  0  3  0  0  0  0  0  0
  192.9710  173.4710  145.4080 C   0  0  0  0  0  0  0  0  0  0  0  0
  193.9440  172.4570  145.4540 C   0  0  0  0  0  3  0  0  0  0  0  0
  190.8950  174.4580  144.6740 C   0  0  0  0  0  2  0  0  0  0  0  0
  191.2410  175.2330  145.9530 C   0  0  1  0  0  3  0  0  0  0  0  0
  190.5330  171.7570  142.7360 S   0  0  0  0  0  0  0  0  0  0  0  0
  192.7160  171.2150  143.8560 C   0  0  0  0  0  0  0  0  0  0  0  0
  191.2670  170.2880  142.3280 C   0  0  0  0  0  0  0  0  0  0  0  0
  191.8630  173.3420  144.5960 C   0  0  0  0  0  0  0  0  0  0  0  0
  193.0120  174.9580  146.3740 S   0  0  0  0  0  0  0  0  0  0  0  0
  193.7990  171.3430  144.6710 N   0  0  0  0  0  0  0  0  0  0  0  0
  188.8210  177.5070  145.7170 C   0  0  0  0  0  0  0  0  0  0  0  0
  187.5380  177.9240  146.1850 N   0  0  0  0  0  2  0  0  0  0  0  0
  190.9430  176.7220  145.7930 C   0  0  1  0  0  3  0  0  0  0  0  0
  189.2120  177.5480  144.2900 C   0  0  1  0  0  3  0  0  0  0  0  0
  190.6550  177.0680  144.3280 C   0  0  0  0  0  2  0  0  0  0  0  0
  189.7310  177.0700  146.5140 N   0  0  0  0  0  0  0  0  0  0  0  0
  188.4290  176.6220  143.5440 O   0  0  0  0  0  0  0  0  0  0  0  0
  186.1030  177.1370  143.1850 C   0  0  0  0  0  3  0  0  0  0  0  0
  187.4020  177.0120  142.6800 C   0  0  0  0  0  0  0  0  0  0  0  0
  185.0530  177.5200  142.3450 C   0  0  0  0  0  3  0  0  0  0  0  0
  187.6410  177.2710  141.3190 C   0  0  0  0  0  3  0  0  0  0  0  0
  186.5910  177.6530  140.4800 C   0  0  0  0  0  3  0  0  0  0  0  0
  184.2550  178.1530  140.1580 O   0  0  0  0  0  1  0  0  0  0  0  0
  185.2980  177.7770  140.9920 C   0  0  0  0  0  0  0  0  0  0  0  0
  187.2110  177.8570  147.4990 O   0  0  0  0  0  0  0  0  0  0  0  0
  185.8940  177.7740  147.5180 O   0  0  0  0  0  0  0  0  0  0  0  0
  184.0770  178.5280  146.1800 C   0  0  0  0  0  1  0  0  0  0  0  0
  185.4560  178.8400  146.7280 C   0  0  0  0  0  2  0  0  0  0  0  0
  190.3040  168.4900  139.2800 O   0  0  0  0  0  0  0  0  0  0  0  0
  190.8590  169.3840  139.9730 C   0  0  0  0  0  0  0  0  0  0  0  0
  190.6980  169.3600  141.3960 N   0  0  0  0  0  2  0  0  0  0  0  0
  191.6350  170.4050  139.3360 N   0  0  0  0  0  2  0  0  0  0  0  0
  191.7980  170.4850  137.8920 C   0  0  0  0  0  2  0  0  0  0  0  0
  190.5410  171.0600  137.2590 C   0  0  0  0  0  2  0  0  0  0  0  0
  190.3240  172.4180  137.7300 N   0  0  0  0  0  0  0  0  0  0  0  0
  189.1230  174.3090  136.9000 C   0  0  0  0  0  2  0  0  0  0  0  0
  189.0330  172.4310  138.4060 C   0  0  0  0  0  2  0  0  0  0  0  0
  190.1570  173.2640  136.5590 C   0  0  0  0  0  2  0  0  0  0  0  0
  188.1940  174.5580  139.0660 O   0  0  0  0  0  1  0  0  0  0  0  0
  188.2860  173.6810  137.9860 C   0  0  1  0  0  3  0  0  0  0  0  0
  1  8  2  0  0  0  0
  1 10  1  0  0  0  0
  2  8  1  0  0  0  0
  3  4  1  0  0  0  0
  3 11  1  0  0  0  0
  6  5  1  6  0  0  0
  6 11  1  0  0  0  0
  7  1  1  0  0  0  0
  8 12  1  0  0  0  0
  9  7  1  0  0  0  0
  9  2  2  0  0  0  0
 10  5  1  0  0  0  0
 10  3  2  0  0  0  0
 12  4  2  0  0  0  0
 13 14  1  0  0  0  0
 13 18  2  0  0  0  0
 14 27  1  0  0  0  0
 15 17  1  6  0  0  0
 15  6  1  0  0  0  0
 15 18  1  0  0  0  0
 16 19  1  6  0  0  0
 16 17  1  0  0  0  0
 16 13  1  0  0  0  0
 21 20  1  0  0  0  0
 21 19  1  0  0  0  0
 22 20  2  0  0  0  0
 23 21  2  0  0  0  0
 24 26  2  0  0  0  0
 24 23  1  0  0  0  0
 25 26  1  0  0  0  0
 26 22  1  0  0  0  0
 27 28  1  0  0  0  0
 29 30  1  0  0  0  0
 30 28  1  0  0  0  0
 31 32  2  0  0  0  0
 32 33  1  0  0  0  0
 33  9  1  0  0  0  0
 34 32  1  0  0  0  0
 35 34  1  0  0  0  0
 36 37  1  0  0  0  0
 36 35  1  0  0  0  0
 37 39  1  0  0  0  0
 38 42  1  0  0  0  0
 40 38  1  0  0  0  0
 40 37  1  0  0  0  0
 42 39  1  0  0  0  0
 42 41  1  1  0  0  0
M  END
>  <MODEL>
2

>  <REMARK>
 VINA RESULT:      -7.3      3.920      9.409
  Name = 
  10 active torsions:
  status: ('A' for Active; 'I' for Inactive)
    1  A    between atoms: N_3  and  C_15
    2  A    between atoms: C_10  and  C_15
    3  A    between atoms: C_10  and  N_42
    4  A    between atoms: N_11  and  O_17
    5  A    between atoms: C_12  and  O_14
    6  A    between atoms: O_14  and  C_19
    7  A    between atoms: C_16  and  C_32
    8  A    between atoms: O_17  and  O_26
    9  A    between atoms: C_23  and  O_26
   10  A    between atoms: N_28  and  C_36
                            x       y       z     vdW  Elec       q    Type
                         _______ _______ _______ _____ _____    ______ ____

>  <TORSDO>
F 10

$$$$
=
 OpenBabel11062419593D

 42 47  0  0  1  0  0  0  0  0999 V2000
  189.9060  176.2470  142.8230 C   0  0  0  0  0  0  0  0  0  0  0  0
  188.8800  178.2570  142.2060 C   0  0  0  0  0  3  0  0  0  0  0  0
  191.9170  176.1700  144.0980 C   0  0  0  0  0  0  0  0  0  0  0  0
  191.9420  177.5760  144.1290 C   0  0  0  0  0  3  0  0  0  0  0  0
  191.0220  174.0270  143.4400 C   0  0  0  0  0  2  0  0  0  0  0  0
  192.4680  173.7150  143.8490 C   0  0  1  0  0  3  0  0  0  0  0  0
  188.5660  175.7390  141.9510 S   0  0  0  0  0  0  0  0  0  0  0  0
  189.9370  177.6330  142.8700 C   0  0  0  0  0  0  0  0  0  0  0  0
  188.0220  177.3110  141.6380 C   0  0  0  0  0  0  0  0  0  0  0  0
  190.9080  175.5030  143.4350 C   0  0  0  0  0  0  0  0  0  0  0  0
  193.1430  175.1190  144.8300 S   0  0  0  0  0  0  0  0  0  0  0  0
  190.9450  178.2850  143.5140 N   0  0  0  0  0  0  0  0  0  0  0  0
  193.9130  170.7200  144.0030 C   0  0  0  0  0  0  0  0  0  0  0  0
  195.1200  169.9760  143.8280 N   0  0  0  0  0  2  0  0  0  0  0  0
  192.5480  172.4090  144.6380 C   0  0  1  0  0  3  0  0  0  0  0  0
  192.5920  170.2310  143.5470 C   0  0  1  0  0  3  0  0  0  0  0  0
  191.6540  171.3360  144.0090 C   0  0  0  0  0  2  0  0  0  0  0  0
  193.8950  171.8690  144.5770 N   0  0  0  0  0  0  0  0  0  0  0  0
  192.5640  170.1570  142.1250 O   0  0  0  0  0  0  0  0  0  0  0  0
  192.5390  172.0320  140.6130 C   0  0  0  0  0  3  0  0  0  0  0  0
  191.8440  171.0520  141.3280 C   0  0  0  0  0  0  0  0  0  0  0  0
  191.8460  172.9450  139.8120 C   0  0  0  0  0  3  0  0  0  0  0  0
  190.4420  170.9950  141.2380 C   0  0  0  0  0  3  0  0  0  0  0  0
  189.7500  171.9070  140.4370 C   0  0  0  0  0  3  0  0  0  0  0  0
  189.7660  173.7920  138.9320 O   0  0  0  0  0  1  0  0  0  0  0  0
  190.4520  172.8830  139.7250 C   0  0  0  0  0  0  0  0  0  0  0  0
  196.3150  170.4630  144.2450 O   0  0  0  0  0  0  0  0  0  0  0  0
  196.9000  169.4500  144.8560 O   0  0  0  0  0  0  0  0  0  0  0  0
  196.2440  169.2890  147.1360 C   0  0  0  0  0  1  0  0  0  0  0  0
  197.1920  169.9240  146.1370 C   0  0  0  0  0  2  0  0  0  0  0  0
  184.6370  178.2700  140.6030 O   0  0  0  0  0  0  0  0  0  0  0  0
  185.5880  178.0520  141.4000 C   0  0  0  0  0  0  0  0  0  0  0  0
  186.8410  177.5940  140.8770 N   0  0  0  0  0  2  0  0  0  0  0  0
  185.4080  178.2610  142.8050 N   0  0  0  0  0  2  0  0  0  0  0  0
  184.1430  178.6940  143.3810 C   0  0  0  0  0  2  0  0  0  0  0  0
  184.1610  178.4890  144.8870 C   0  0  0  0  0  2  0  0  0  0  0  0
  185.5160  178.2150  145.3360 N   0  0  0  0  0  0  0  0  0  0  0  0
  186.6170  178.2350  147.4560 C   0  0  0  0  0  2  0  0  0  0  0  0
  185.5350  176.8400  145.8170 C   0  0  0  0  0  2  0  0  0  0  0  0
  185.7620  179.0400  146.5080 C   0  0  0  0  0  2  0  0  0  0  0  0
  187.5230  176.1150  146.9050 O   0  0  0  0  0  1  0  0  0  0  0  0
  186.3240  176.7970  147.1110 C   0  0  1  0  0  3  0  0  0  0  0  0
  1  8  2  0  0  0  0
  1 10  1  0  0  0  0
  2  8  1  0  0  0  0
  3  4  1  0  0  0  0
  3 11  1  0  0  0  0
  6  5  1  1  0  0  0
  6 15  1  0  0  0  0
  6 11  1  0  0  0  0
  7  1  1  0  0  0  0
  8 12  1  0  0  0  0
  9  7  1  0  0  0  0
  9  2  2  0  0  0  0
 10  5  1  0  0  0  0
 10  3  2  0  0  0  0
 12  4  2  0  0  0  0
 13 18  2  0  0  0  0
 14 13  1  0  0  0  0
 14 27  1  0  0  0  0
 15 17  1  6  0  0  0
 16 19  1  6  0  0  0
 16 13  1  0  0  0  0
 16 17  1  0  0  0  0
 18 15  1  0  0  0  0
 20 21  1  0  0  0  0
 21 19  1  0  0  0  0
 22 20  2  0  0  0  0
 23 21  2  0  0  0  0
 24 23  1  0  0  0  0
 25 26  1  0  0  0  0
 26 22  1  0  0  0  0
 26 24  2  0  0  0  0
 27 28  1  0  0  0  0
 28 30  1  0  0  0  0
 30 29  1  0  0  0  0
 31 32  2  0  0  0  0
 32 34  1  0  0  0  0
 33 32  1  0  0  0  0
 33  9  1  0  0  0  0
 34 35  1  0  0  0  0
 35 36  1  0  0  0  0
 36 37  1  0  0  0  0
 37 39  1  0  0  0  0
 37 40  1  0  0  0  0
 39 42  1  0  0  0  0
 40 38  1  0  0  0  0
 42 41  1  6  0  0  0
 42 38  1  0  0  0  0
M  END
>  <MODEL>
3

>  <REMARK>
 VINA RESULT:      -7.2      2.844      5.017
  Name = 
  10 active torsions:
  status: ('A' for Active; 'I' for Inactive)
    1  A    between atoms: N_3  and  C_15
    2  A    between atoms: C_10  and  C_15
    3  A    between atoms: C_10  and  N_42
    4  A    between atoms: N_11  and  O_17
    5  A    between atoms: C_12  and  O_14
    6  A    between atoms: O_14  and  C_19
    7  A    between atoms: C_16  and  C_32
    8  A    between atoms: O_17  and  O_26
    9  A    between atoms: C_23  and  O_26
   10  A    between atoms: N_28  and  C_36
                            x       y       z     vdW  Elec       q    Type
                         _______ _______ _______ _____ _____    ______ ____

>  <TORSDO>
F 10

$$$$
=
 OpenBabel11062419593D

 42 47  0  0  1  0  0  0  0  0999 V2000
  186.8410  177.3400  142.6640 C   0  0  0  0  0  0  0  0  0  0  0  0
  185.3740  177.9190  140.9360 C   0  0  0  0  0  3  0  0  0  0  0  0
  186.3950  177.8410  144.9490 C   0  0  0  0  0  0  0  0  0  0  0  0
  185.1840  178.4480  144.5720 C   0  0  0  0  0  3  0  0  0  0  0  0
  188.4940  176.7290  144.5210 C   0  0  0  0  0  2  0  0  0  0  0  0
  188.6560  177.2910  145.9400 C   0  0  1  0  0  3  0  0  0  0  0  0
  187.6260  176.7770  141.2920 S   0  0  0  0  0  0  0  0  0  0  0  0
  185.6390  177.9330  142.3070 C   0  0  0  0  0  0  0  0  0  0  0  0
  186.4110  177.2950  140.2350 C   0  0  0  0  0  0  0  0  0  0  0  0
  187.2320  177.2980  143.9970 C   0  0  0  0  0  0  0  0  0  0  0  0
  187.0020  177.7380  146.6130 S   0  0  0  0  0  0  0  0  0  0  0  0
  184.8250  178.4810  143.2510 N   0  0  0  0  0  0  0  0  0  0  0  0
  191.5100  175.6690  146.4930 C   0  0  0  0  0  0  0  0  0  0  0  0
  192.9370  175.7470  146.4900 N   0  0  0  0  0  2  0  0  0  0  0  0
  189.3640  176.2900  146.8520 C   0  0  1  0  0  3  0  0  0  0  0  0
  190.7650  174.4990  145.9760 C   0  0  1  0  0  3  0  0  0  0  0  0
  189.3190  174.8800  146.2530 C   0  0  0  0  0  2  0  0  0  0  0  0
  190.7750  176.6180  146.9540 N   0  0  0  0  0  0  0  0  0  0  0  0
  190.9580  174.3820  144.5710 O   0  0  0  0  0  0  0  0  0  0  0  0
  192.6720  174.2990  142.8800 C   0  0  0  0  0  3  0  0  0  0  0  0
  192.0580  173.7320  144.0020 C   0  0  0  0  0  0  0  0  0  0  0  0
  193.7710  173.6710  142.2860 C   0  0  0  0  0  3  0  0  0  0  0  0
  192.5520  172.5240  144.5240 C   0  0  0  0  0  3  0  0  0  0  0  0
  193.6500  171.8970  143.9290 C   0  0  0  0  0  3  0  0  0  0  0  0
  195.3470  171.8450  142.2170 O   0  0  0  0  0  1  0  0  0  0  0  0
  194.2580  172.4700  142.8090 C   0  0  0  0  0  0  0  0  0  0  0  0
  193.5840  176.8420  146.9580 O   0  0  0  0  0  0  0  0  0  0  0  0
  194.3360  177.2480  145.9530 O   0  0  0  0  0  0  0  0  0  0  0  0
  195.6480  176.3810  144.1680 C   0  0  0  0  0  1  0  0  0  0  0  0
  194.9790  176.0940  145.4980 C   0  0  0  0  0  2  0  0  0  0  0  0
  187.0290  175.9650  136.8740 O   0  0  0  0  0  0  0  0  0  0  0  0
  187.0560  175.9940  138.1330 C   0  0  0  0  0  0  0  0  0  0  0  0
  186.4760  177.1120  138.8150 N   0  0  0  0  0  2  0  0  0  0  0  0
  187.6610  174.9190  138.8600 N   0  0  0  0  0  2  0  0  0  0  0  0
  188.2890  173.7810  138.2060 C   0  0  0  0  0  2  0  0  0  0  0  0
  189.6870  173.5680  138.7650 C   0  0  0  0  0  2  0  0  0  0  0  0
  189.8000  172.2330  139.3280 N   0  0  0  0  0  0  0  0  0  0  0  0
  191.6170  170.8840  140.0930 C   0  0  0  0  0  2  0  0  0  0  0  0
  189.8630  172.3870  140.7750 C   0  0  0  0  0  2  0  0  0  0  0  0
  191.0970  171.7040  138.9370 C   0  0  0  0  0  2  0  0  0  0  0  0
  190.3430  170.4280  142.0380 O   0  0  0  0  0  1  0  0  0  0  0  0
  190.9360  171.4580  141.3090 C   0  0  1  0  0  3  0  0  0  0  0  0
  1 10  1  0  0  0  0
  2  8  1  0  0  0  0
  3 11  1  0  0  0  0
  4  3  1  0  0  0  0
  6  5  1  6  0  0  0
  6 11  1  0  0  0  0
  6 15  1  0  0  0  0
  7  1  1  0  0  0  0
  8  1  2  0  0  0  0
  8 12  1  0  0  0  0
  9  2  2  0  0  0  0
  9  7  1  0  0  0  0
 10  5  1  0  0  0  0
 10  3  2  0  0  0  0
 12  4  2  0  0  0  0
 13 18  2  0  0  0  0
 14 13  1  0  0  0  0
 14 27  1  0  0  0  0
 15 17  1  6  0  0  0
 15 18  1  0  0  0  0
 16 19  1  6  0  0  0
 16 17  1  0  0  0  0
 16 13  1  0  0  0  0
 20 21  1  0  0  0  0
 21 23  2  0  0  0  0
 21 19  1  0  0  0  0
 22 26  1  0  0  0  0
 22 20  2  0  0  0  0
 24 23  1  0  0  0  0
 25 26  1  0  0  0  0
 26 24  2  0  0  0  0
 28 27  1  0  0  0  0
 29 30  1  0  0  0  0
 30 28  1  0  0  0  0
 31 32  2  0  0  0  0
 32 33  1  0  0  0  0
 32 34  1  0  0  0  0
 33  9  1  0  0  0  0
 35 36  1  0  0  0  0
 35 34  1  0  0  0  0
 36 37  1  0  0  0  0
 37 39  1  0  0  0  0
 38 42  1  0  0  0  0
 39 42  1  0  0  0  0
 40 37  1  0  0  0  0
 40 38  1  0  0  0  0
 42 41  1  6  0  0  0
M  END
>  <MODEL>
4

>  <REMARK>
 VINA RESULT:      -7.2      3.347      6.181
  Name = 
  10 active torsions:
  status: ('A' for Active; 'I' for Inactive)
    1  A    between atoms: N_3  and  C_15
    2  A    between atoms: C_10  and  C_15
    3  A    between atoms: C_10  and  N_42
    4  A    between atoms: N_11  and  O_17
    5  A    between atoms: C_12  and  O_14
    6  A    between atoms: O_14  and  C_19
    7  A    between atoms: C_16  and  C_32
    8  A    between atoms: O_17  and  O_26
    9  A    between atoms: C_23  and  O_26
   10  A    between atoms: N_28  and  C_36
                            x       y       z     vdW  Elec       q    Type
                         _______ _______ _______ _____ _____    ______ ____

>  <TORSDO>
F 10

$$$$
=
 OpenBabel11062419593D

 42 47  0  0  1  0  0  0  0  0999 V2000
  188.9760  175.6030  141.7020 C   0  0  0  0  0  0  0  0  0  0  0  0
  187.1260  176.7820  140.8890 C   0  0  0  0  0  3  0  0  0  0  0  0
  189.8470  173.6720  140.6130 C   0  0  0  0  0  0  0  0  0  0  0  0
  188.8500  173.7860  139.6280 C   0  0  0  0  0  3  0  0  0  0  0  0
  190.9750  174.3130  142.6480 C   0  0  0  0  0  2  0  0  0  0  0  0
  191.4380  172.8700  142.4070 C   0  0  1  0  0  3  0  0  0  0  0  0
  188.7840  176.8340  142.8260 S   0  0  0  0  0  0  0  0  0  0  0  0
  188.0030  175.7100  140.7190 C   0  0  0  0  0  0  0  0  0  0  0  0
  187.4470  177.5090  142.0400 C   0  0  0  0  0  0  0  0  0  0  0  0
  189.9050  174.5710  141.6580 C   0  0  0  0  0  0  0  0  0  0  0  0
  191.0760  172.3940  140.6670 S   0  0  0  0  0  0  0  0  0  0  0  0
  187.9430  174.8100  139.6990 N   0  0  0  0  0  0  0  0  0  0  0  0
  194.3530  174.4630  142.6320 C   0  0  0  0  0  0  0  0  0  0  0  0
  195.0210  175.6570  143.0380 N   0  0  0  0  0  2  0  0  0  0  0  0
  192.9250  172.7090  142.7190 C   0  0  1  0  0  3  0  0  0  0  0  0
  194.6580  173.7590  141.3650 C   0  0  1  0  0  3  0  0  0  0  0  0
  193.7390  172.5490  141.4300 C   0  0  0  0  0  2  0  0  0  0  0  0
  193.4380  173.9130  143.3480 N   0  0  0  0  0  0  0  0  0  0  0  0
  194.2870  174.5700  140.2560 O   0  0  0  0  0  0  0  0  0  0  0  0
  194.6550  174.9860  137.9110 C   0  0  0  0  0  3  0  0  0  0  0  0
  195.1620  174.8810  139.2110 C   0  0  0  0  0  0  0  0  0  0  0  0
  195.5060  175.2900  136.8450 C   0  0  0  0  0  3  0  0  0  0  0  0
  196.5360  175.0800  139.4340 C   0  0  0  0  0  3  0  0  0  0  0  0
  197.3860  175.3840  138.3670 C   0  0  0  0  0  3  0  0  0  0  0  0
  197.7150  175.7860  136.0120 O   0  0  0  0  0  1  0  0  0  0  0  0
  196.8710  175.4880  137.0720 C   0  0  0  0  0  0  0  0  0  0  0  0
  194.7040  176.2830  144.1990 O   0  0  0  0  0  0  0  0  0  0  0  0
  195.5850  175.8400  145.0750 O   0  0  0  0  0  0  0  0  0  0  0  0
  194.0950  176.9050  146.5930 C   0  0  0  0  0  1  0  0  0  0  0  0
  194.8540  175.6380  146.2480 C   0  0  0  0  0  2  0  0  0  0  0  0
  185.7120  179.9560  144.1510 O   0  0  0  0  0  0  0  0  0  0  0  0
  186.3000  178.8780  143.8680 C   0  0  0  0  0  0  0  0  0  0  0  0
  186.7540  178.6660  142.5260 N   0  0  0  0  0  2  0  0  0  0  0  0
  186.5060  177.8880  144.8810 N   0  0  0  0  0  2  0  0  0  0  0  0
  186.0330  178.0490  146.2480 C   0  0  0  0  0  2  0  0  0  0  0  0
  187.1460  177.7100  147.2260 C   0  0  0  0  0  2  0  0  0  0  0  0
  188.2300  177.0350  146.5310 N   0  0  0  0  0  0  0  0  0  0  0  0
  190.4640  176.4160  147.1090 C   0  0  0  0  0  2  0  0  0  0  0  0
  188.1900  175.6370  146.9400 C   0  0  0  0  0  2  0  0  0  0  0  0
  189.4790  177.5590  147.0600 C   0  0  0  0  0  2  0  0  0  0  0  0
  190.0000  174.2650  146.2290 O   0  0  0  0  0  1  0  0  0  0  0  0
  189.6100  175.1770  147.2080 C   0  0  1  0  0  3  0  0  0  0  0  0
  1  7  1  0  0  0  0
  2  9  2  0  0  0  0
  3 11  1  0  0  0  0
  3 10  2  0  0  0  0
  4 12  2  0  0  0  0
  4  3  1  0  0  0  0
  6  5  1  6  0  0  0
  6 15  1  0  0  0  0
  8  2  1  0  0  0  0
  8  1  2  0  0  0  0
  9 33  1  0  0  0  0
  9  7  1  0  0  0  0
 10  1  1  0  0  0  0
 10  5  1  0  0  0  0
 11  6  1  0  0  0  0
 12  8  1  0  0  0  0
 13 14  1  0  0  0  0
 13 18  2  0  0  0  0
 14 27  1  0  0  0  0
 15 17  1  6  0  0  0
 15 18  1  0  0  0  0
 16 19  1  6  0  0  0
 16 17  1  0  0  0  0
 16 13  1  0  0  0  0
 20 21  1  0  0  0  0
 21 23  2  0  0  0  0
 21 19  1  0  0  0  0
 22 26  1  0  0  0  0
 22 20  2  0  0  0  0
 24 23  1  0  0  0  0
 25 26  1  0  0  0  0
 26 24  2  0  0  0  0
 27 28  1  0  0  0  0
 28 30  1  0  0  0  0
 30 29  1  0  0  0  0
 32 31  2  0  0  0  0
 32 34  1  0  0  0  0
 33 32  1  0  0  0  0
 34 35  1  0  0  0  0
 35 36  1  0  0  0  0
 37 39  1  0  0  0  0
 37 40  1  0  0  0  0
 37 36  1  0  0  0  0
 38 42  1  0  0  0  0
 39 42  1  0  0  0  0
 40 38  1  0  0  0  0
 42 41  1  6  0  0  0
M  END
>  <MODEL>
5

>  <REMARK>
 VINA RESULT:      -7.1      2.937      5.448
  Name = 
  10 active torsions:
  status: ('A' for Active; 'I' for Inactive)
    1  A    between atoms: N_3  and  C_15
    2  A    between atoms: C_10  and  C_15
    3  A    between atoms: C_10  and  N_42
    4  A    between atoms: N_11  and  O_17
    5  A    between atoms: C_12  and  O_14
    6  A    between atoms: O_14  and  C_19
    7  A    between atoms: C_16  and  C_32
    8  A    between atoms: O_17  and  O_26
    9  A    between atoms: C_23  and  O_26
   10  A    between atoms: N_28  and  C_36
                            x       y       z     vdW  Elec       q    Type
                         _______ _______ _______ _____ _____    ______ ____

>  <TORSDO>
F 10

$$$$
=
 OpenBabel11062419593D

 42 47  0  0  1  0  0  0  0  0999 V2000
  185.6750  177.7810  144.3100 C   0  0  0  0  0  0  0  0  0  0  0  0
  183.7360  178.7150  143.3930 C   0  0  0  0  0  3  0  0  0  0  0  0
  186.3450  178.1690  146.5630 C   0  0  0  0  0  0  0  0  0  0  0  0
  185.2160  178.9860  146.7510 C   0  0  0  0  0  3  0  0  0  0  0  0
  187.8280  176.7770  145.2640 C   0  0  0  0  0  2  0  0  0  0  0  0
  188.6770  177.1960  146.4720 C   0  0  1  0  0  3  0  0  0  0  0  0
  185.6860  177.2100  142.7330 S   0  0  0  0  0  0  0  0  0  0  0  0
  184.5600  178.5810  144.5120 C   0  0  0  0  0  0  0  0  0  0  0  0
  184.2460  177.9920  142.3100 C   0  0  0  0  0  0  0  0  0  0  0  0
  186.5850  177.5760  145.3410 C   0  0  0  0  0  0  0  0  0  0  0  0
  187.5760  177.8440  147.7970 S   0  0  0  0  0  0  0  0  0  0  0  0
  184.3380  179.1760  145.7170 N   0  0  0  0  0  0  0  0  0  0  0  0
  191.5230  175.5170  146.0640 C   0  0  0  0  0  0  0  0  0  0  0  0
  192.9200  175.6050  145.7800 N   0  0  0  0  0  2  0  0  0  0  0  0
  189.5200  176.0290  146.9840 C   0  0  1  0  0  3  0  0  0  0  0  0
  190.6450  174.4780  145.4790 C   0  0  1  0  0  3  0  0  0  0  0  0
  189.3010  174.7790  146.1250 C   0  0  0  0  0  2  0  0  0  0  0  0
  190.9330  176.3390  146.8570 N   0  0  0  0  0  0  0  0  0  0  0  0
  190.5400  174.6650  144.0710 O   0  0  0  0  0  0  0  0  0  0  0  0
  191.3320  173.7310  141.9960 C   0  0  0  0  0  3  0  0  0  0  0  0
  190.5600  173.6080  143.1570 C   0  0  0  0  0  0  0  0  0  0  0  0
  191.3680  172.6940  141.0600 C   0  0  0  0  0  3  0  0  0  0  0  0
  189.8190  172.4330  143.3710 C   0  0  0  0  0  3  0  0  0  0  0  0
  189.8560  171.3960  142.4350 C   0  0  0  0  0  3  0  0  0  0  0  0
  190.6630  170.4990  140.3480 O   0  0  0  0  0  1  0  0  0  0  0  0
  190.6290  171.5270  141.2790 C   0  0  0  0  0  0  0  0  0  0  0  0
  193.6890  176.5800  146.3230 O   0  0  0  0  0  0  0  0  0  0  0  0
  194.8660  176.0150  146.5180 O   0  0  0  0  0  0  0  0  0  0  0  0
  196.1950  174.1790  145.7970 C   0  0  0  0  0  1  0  0  0  0  0  0
  194.8360  174.8510  145.7470 C   0  0  0  0  0  2  0  0  0  0  0  0
  181.9010  177.8370  139.4950 O   0  0  0  0  0  0  0  0  0  0  0  0
  182.2640  177.9020  140.7000 C   0  0  0  0  0  0  0  0  0  0  0  0
  183.6640  177.9100  141.0030 N   0  0  0  0  0  2  0  0  0  0  0  0
  181.2840  177.9660  141.7410 N   0  0  0  0  0  2  0  0  0  0  0  0
  179.8530  177.9290  141.4780 C   0  0  0  0  0  2  0  0  0  0  0  0
  179.2270  179.2720  141.8200 C   0  0  0  0  0  2  0  0  0  0  0  0
  178.8240  179.9570  140.6040 N   0  0  0  0  0  0  0  0  0  0  0  0
  177.9910  182.1390  140.1050 C   0  0  0  0  0  2  0  0  0  0  0  0
  179.9620  180.7560  140.1700 C   0  0  0  0  0  2  0  0  0  0  0  0
  177.7910  180.9150  140.9640 C   0  0  0  0  0  2  0  0  0  0  0  0
  179.5890  182.2530  138.3580 O   0  0  0  0  0  1  0  0  0  0  0  0
  179.4530  182.1180  139.7400 C   0  0  1  0  0  3  0  0  0  0  0  0
  1  8  2  0  0  0  0
  1 10  1  0  0  0  0
  2  8  1  0  0  0  0
  3  4  1  0  0  0  0
  3 11  1  0  0  0  0
  5 10  1  0  0  0  0
  6  5  1  6  0  0  0
  6 15  1  0  0  0  0
  6 11  1  0  0  0  0
  7  1  1  0  0  0  0
  8 12  1  0  0  0  0
  9  7  1  0  0  0  0
  9  2  2  0  0  0  0
 10  3  2  0  0  0  0
 12  4  2  0  0  0  0
 13 18  2  0  0  0  0
 14 13  1  0  0  0  0
 14 27  1  0  0  0  0
 15 17  1  6  0  0  0
 16 19  1  6  0  0  0
 16 13  1  0  0  0  0
 16 17  1  0  0  0  0
 18 15  1  0  0  0  0
 20 21  1  0  0  0  0
 21 23  2  0  0  0  0
 21 19  1  0  0  0  0
 22 26  1  0  0  0  0
 22 20  2  0  0  0  0
 24 23  1  0  0  0  0
 25 26  1  0  0  0  0
 26 24  2  0  0  0  0
 27 28  1  0  0  0  0
 30 29  1  0  0  0  0
 30 28  1  0  0  0  0
 31 32  2  0  0  0  0
 32 33  1  0  0  0  0
 32 34  1  0  0  0  0
 33  9  1  0  0  0  0
 35 34  1  0  0  0  0
 35 36  1  0  0  0  0
 37 40  1  0  0  0  0
 37 36  1  0  0  0  0
 38 40  1  0  0  0  0
 39 37  1  0  0  0  0
 42 41  1  6  0  0  0
 42 38  1  0  0  0  0
 42 39  1  0  0  0  0
M  END
>  <MODEL>
6

>  <REMARK>
 VINA RESULT:      -7.1      4.109      6.655
  Name = 
  10 active torsions:
  status: ('A' for Active; 'I' for Inactive)
    1  A    between atoms: N_3  and  C_15
    2  A    between atoms: C_10  and  C_15
    3  A    between atoms: C_10  and  N_42
    4  A    between atoms: N_11  and  O_17
    5  A    between atoms: C_12  and  O_14
    6  A    between atoms: O_14  and  C_19
    7  A    between atoms: C_16  and  C_32
    8  A    between atoms: O_17  and  O_26
    9  A    between atoms: C_23  and  O_26
   10  A    between atoms: N_28  and  C_36
                            x       y       z     vdW  Elec       q    Type
                         _______ _______ _______ _____ _____    ______ ____

>  <TORSDO>
F 10

$$$$
=
 OpenBabel11062419593D

 42 47  0  0  1  0  0  0  0  0999 V2000
  191.5870  172.5990  143.2310 C   0  0  0  0  0  0  0  0  0  0  0  0
  193.4300  171.1600  143.1450 C   0  0  0  0  0  3  0  0  0  0  0  0
  189.9280  172.6640  141.5230 C   0  0  0  0  0  0  0  0  0  0  0  0
  190.6250  171.6670  140.8180 C   0  0  0  0  0  3  0  0  0  0  0  0
  189.6080  174.2190  143.3400 C   0  0  0  0  0  2  0  0  0  0  0  0
  188.6890  174.7510  142.2320 C   0  0  1  0  0  3  0  0  0  0  0  0
  192.4200  172.9620  144.6420 S   0  0  0  0  0  0  0  0  0  0  0  0
  192.2590  171.6090  142.5310 C   0  0  0  0  0  0  0  0  0  0  0  0
  193.6480  171.8350  144.3500 C   0  0  0  0  0  0  0  0  0  0  0  0
  190.4130  173.1420  142.7230 C   0  0  0  0  0  0  0  0  0  0  0  0
  188.4310  173.4370  140.9690 S   0  0  0  0  0  0  0  0  0  0  0  0
  191.7830  171.1530  141.3390 N   0  0  0  0  0  0  0  0  0  0  0  0
  186.6120  177.3410  142.4830 C   0  0  0  0  0  0  0  0  0  0  0  0
  186.0300  178.4620  141.8160 N   0  0  0  0  0  2  0  0  0  0  0  0
  187.3540  175.2270  142.8030 C   0  0  1  0  0  3  0  0  0  0  0  0
  187.1020  177.3990  143.8790 C   0  0  1  0  0  3  0  0  0  0  0  0
  187.5620  175.9710  144.1270 C   0  0  0  0  0  2  0  0  0  0  0  0
  186.7450  176.1970  141.9110 N   0  0  0  0  0  0  0  0  0  0  0  0
  188.2220  178.2740  143.9660 O   0  0  0  0  0  0  0  0  0  0  0  0
  190.4490  177.8840  143.1340 C   0  0  0  0  0  3  0  0  0  0  0  0
  189.5270  177.8230  144.1850 C   0  0  0  0  0  0  0  0  0  0  0  0
  191.7600  177.4350  143.3200 C   0  0  0  0  0  3  0  0  0  0  0  0
  189.9300  177.3050  145.4280 C   0  0  0  0  0  3  0  0  0  0  0  0
  191.2410  176.8570  145.6130 C   0  0  0  0  0  3  0  0  0  0  0  0
  193.4560  176.4740  144.7410 O   0  0  0  0  0  1  0  0  0  0  0  0
  192.1550  176.9210  144.5580 C   0  0  0  0  0  0  0  0  0  0  0  0
  185.6060  178.3740  140.5300 O   0  0  0  0  0  0  0  0  0  0  0  0
  184.4230  178.9580  140.5230 O   0  0  0  0  0  0  0  0  0  0  0  0
  182.2910  178.2860  141.3350 C   0  0  0  0  0  1  0  0  0  0  0  0
  183.5050  177.9060  140.5090 C   0  0  0  0  0  2  0  0  0  0  0  0
  196.7940  172.1890  146.2010 O   0  0  0  0  0  0  0  0  0  0  0  0
  195.9010  172.4880  145.3650 C   0  0  0  0  0  0  0  0  0  0  0  0
  194.7560  171.6360  145.2380 N   0  0  0  0  0  2  0  0  0  0  0  0
  196.0390  173.6640  144.5600 N   0  0  0  0  0  2  0  0  0  0  0  0
  197.2000  174.5380  144.6350 C   0  0  0  0  0  2  0  0  0  0  0  0
  197.1540  175.5600  143.5100 C   0  0  0  0  0  2  0  0  0  0  0  0
  196.3530  175.0520  142.4090 N   0  0  0  0  0  0  0  0  0  0  0  0
  195.2970  176.0400  140.5080 C   0  0  0  0  0  2  0  0  0  0  0  0
  197.2540  174.8660  141.2790 C   0  0  0  0  0  2  0  0  0  0  0  0
  195.4410  176.1120  142.0080 C   0  0  0  0  0  2  0  0  0  0  0  0
  196.2510  174.3150  139.1920 O   0  0  0  0  0  1  0  0  0  0  0  0
  196.5680  175.3840  140.0300 C   0  0  1  0  0  3  0  0  0  0  0  0
  1  7  1  0  0  0  0
  2  9  2  0  0  0  0
  3 10  2  0  0  0  0
  4 12  2  0  0  0  0
  4  3  1  0  0  0  0
  6 15  1  0  0  0  0
  6  5  1  1  0  0  0
  8  2  1  0  0  0  0
  8  1  2  0  0  0  0
  9  7  1  0  0  0  0
  9 33  1  0  0  0  0
 10  1  1  0  0  0  0
 10  5  1  0  0  0  0
 11  3  1  0  0  0  0
 11  6  1  0  0  0  0
 12  8  1  0  0  0  0
 13 16  1  0  0  0  0
 14 13  1  0  0  0  0
 15 17  1  1  0  0  0
 16 19  1  6  0  0  0
 16 17  1  0  0  0  0
 18 13  2  0  0  0  0
 18 15  1  0  0  0  0
 19 21  1  0  0  0  0
 20 22  2  0  0  0  0
 20 21  1  0  0  0  0
 21 23  2  0  0  0  0
 22 26  1  0  0  0  0
 23 24  1  0  0  0  0
 26 25  1  0  0  0  0
 26 24  2  0  0  0  0
 27 14  1  0  0  0  0
 28 27  1  0  0  0  0
 30 28  1  0  0  0  0
 30 29  1  0  0  0  0
 32 31  2  0  0  0  0
 33 32  1  0  0  0  0
 34 35  1  0  0  0  0
 34 32  1  0  0  0  0
 36 35  1  0  0  0  0
 37 36  1  0  0  0  0
 38 40  1  0  0  0  0
 39 37  1  0  0  0  0
 40 37  1  0  0  0  0
 42 41  1  6  0  0  0
 42 38  1  0  0  0  0
 42 39  1  0  0  0  0
M  END
>  <MODEL>
7

>  <REMARK>
 VINA RESULT:      -7.0      2.552      9.524
  Name = 
  10 active torsions:
  status: ('A' for Active; 'I' for Inactive)
    1  A    between atoms: N_3  and  C_15
    2  A    between atoms: C_10  and  C_15
    3  A    between atoms: C_10  and  N_42
    4  A    between atoms: N_11  and  O_17
    5  A    between atoms: C_12  and  O_14
    6  A    between atoms: O_14  and  C_19
    7  A    between atoms: C_16  and  C_32
    8  A    between atoms: O_17  and  O_26
    9  A    between atoms: C_23  and  O_26
   10  A    between atoms: N_28  and  C_36
                            x       y       z     vdW  Elec       q    Type
                         _______ _______ _______ _____ _____    ______ ____

>  <TORSDO>
F 10

$$$$
=
 OpenBabel11062419593D

 42 47  0  0  1  0  0  0  0  0999 V2000
  190.7400  175.8970  144.3320 C   0  0  0  0  0  0  0  0  0  0  0  0
  188.4690  175.5230  144.7510 C   0  0  0  0  0  3  0  0  0  0  0  0
  191.8220  175.1380  142.3510 C   0  0  0  0  0  0  0  0  0  0  0  0
  190.6090  174.5820  141.9100 C   0  0  0  0  0  3  0  0  0  0  0  0
  193.2390  176.2870  143.9320 C   0  0  0  0  0  2  0  0  0  0  0  0
  194.2270  175.5650  143.0060 C   0  0  1  0  0  3  0  0  0  0  0  0
  190.5070  176.6110  145.8330 S   0  0  0  0  0  0  0  0  0  0  0  0
  189.5480  175.3520  143.8810 C   0  0  0  0  0  0  0  0  0  0  0  0
  188.8610  176.2210  145.8980 C   0  0  0  0  0  0  0  0  0  0  0  0
  191.8950  175.7850  143.5670 C   0  0  0  0  0  0  0  0  0  0  0  0
  193.3580  175.0490  141.4680 S   0  0  0  0  0  0  0  0  0  0  0  0
  189.4870  174.7010  142.6860 N   0  0  0  0  0  0  0  0  0  0  0  0
  197.0680  175.7680  141.2810 C   0  0  0  0  0  0  0  0  0  0  0  0
  197.7310  175.4690  140.0520 N   0  0  0  0  0  2  0  0  0  0  0  0
  195.4280  176.4530  142.6820 C   0  0  1  0  0  3  0  0  0  0  0  0
  197.7040  175.5860  142.6060 C   0  0  1  0  0  3  0  0  0  0  0  0
  196.6300  176.0880  143.5590 C   0  0  0  0  0  2  0  0  0  0  0  0
  195.8660  176.2230  141.3170 N   0  0  0  0  0  0  0  0  0  0  0  0
  197.9360  174.2020  142.8480 O   0  0  0  0  0  0  0  0  0  0  0  0
  196.1090  172.6440  143.0380 C   0  0  0  0  0  3  0  0  0  0  0  0
  197.1020  173.4170  143.6490 C   0  0  0  0  0  0  0  0  0  0  0  0
  195.2550  171.8530  143.8120 C   0  0  0  0  0  3  0  0  0  0  0  0
  197.2310  173.3940  145.0490 C   0  0  0  0  0  3  0  0  0  0  0  0
  196.3780  172.6020  145.8220 C   0  0  0  0  0  3  0  0  0  0  0  0
  194.5390  171.0500  145.9720 O   0  0  0  0  0  1  0  0  0  0  0  0
  195.3890  171.8330  145.2040 C   0  0  0  0  0  0  0  0  0  0  0  0
  197.1110  175.6340  138.8580 O   0  0  0  0  0  0  0  0  0  0  0  0
  197.4670  174.5840  138.1420 O   0  0  0  0  0  0  0  0  0  0  0  0
  197.5510  173.7970  135.8990 C   0  0  0  0  0  1  0  0  0  0  0  0
  197.0820  174.8940  136.8360 C   0  0  0  0  0  2  0  0  0  0  0  0
  186.2510  177.6720  148.0260 O   0  0  0  0  0  0  0  0  0  0  0  0
  186.9110  177.4750  146.9710 C   0  0  0  0  0  0  0  0  0  0  0  0
  188.0170  176.5660  147.0040 N   0  0  0  0  0  2  0  0  0  0  0  0
  186.5520  178.1580  145.7640 N   0  0  0  0  0  2  0  0  0  0  0  0
  185.4560  179.1130  145.6960 C   0  0  0  0  0  2  0  0  0  0  0  0
  185.2380  179.5490  144.2560 C   0  0  0  0  0  2  0  0  0  0  0  0
  185.3170  178.4000  143.3700 N   0  0  0  0  0  0  0  0  0  0  0  0
  184.4140  177.8710  141.2230 C   0  0  0  0  0  2  0  0  0  0  0  0
  186.3550  178.6910  142.3900 C   0  0  0  0  0  2  0  0  0  0  0  0
  184.0750  178.3440  142.6160 C   0  0  0  0  0  2  0  0  0  0  0  0
  186.5810  177.1560  140.5850 O   0  0  0  0  0  1  0  0  0  0  0  0
  185.8560  178.2630  141.0240 C   0  0  1  0  0  3  0  0  0  0  0  0
  1  7  1  0  0  0  0
  2  9  2  0  0  0  0
  3 10  1  0  0  0  0
  4  3  2  0  0  0  0
  4 12  1  0  0  0  0
  6  5  1  1  0  0  0
  7  9  1  0  0  0  0
  8  1  1  0  0  0  0
  8  2  1  0  0  0  0
  9 33  1  0  0  0  0
 10  5  1  0  0  0  0
 10  1  2  0  0  0  0
 11  3  1  0  0  0  0
 11  6  1  0  0  0  0
 12  8  2  0  0  0  0
 13 18  2  0  0  0  0
 13 16  1  0  0  0  0
 14 13  1  0  0  0  0
 15  6  1  0  0  0  0
 15 17  1  1  0  0  0
 16 19  1  1  0  0  0
 16 17  1  0  0  0  0
 18 15  1  0  0  0  0
 19 21  1  0  0  0  0
 20 21  2  0  0  0  0
 20 22  1  0  0  0  0
 21 23  1  0  0  0  0
 22 26  2  0  0  0  0
 23 24  2  0  0  0  0
 26 24  1  0  0  0  0
 26 25  1  0  0  0  0
 27 14  1  0  0  0  0
 28 27  1  0  0  0  0
 29 30  1  0  0  0  0
 30 28  1  0  0  0  0
 32 33  1  0  0  0  0
 32 31  2  0  0  0  0
 34 32  1  0  0  0  0
 35 34  1  0  0  0  0
 36 35  1  0  0  0  0
 37 36  1  0  0  0  0
 38 40  1  0  0  0  0
 39 37  1  0  0  0  0
 40 37  1  0  0  0  0
 42 41  1  1  0  0  0
 42 38  1  0  0  0  0
 42 39  1  0  0  0  0
M  END
>  <MODEL>
8

>  <REMARK>
 VINA RESULT:      -7.0      2.107      3.674
  Name = 
  10 active torsions:
  status: ('A' for Active; 'I' for Inactive)
    1  A    between atoms: N_3  and  C_15
    2  A    between atoms: C_10  and  C_15
    3  A    between atoms: C_10  and  N_42
    4  A    between atoms: N_11  and  O_17
    5  A    between atoms: C_12  and  O_14
    6  A    between atoms: O_14  and  C_19
    7  A    between atoms: C_16  and  C_32
    8  A    between atoms: O_17  and  O_26
    9  A    between atoms: C_23  and  O_26
   10  A    between atoms: N_28  and  C_36
                            x       y       z     vdW  Elec       q    Type
                         _______ _______ _______ _____ _____    ______ ____

>  <TORSDO>
F 10

$$$$
=
 OpenBabel11062419593D

 42 47  0  0  1  0  0  0  0  0999 V2000
  191.6340  172.4560  143.7720 C   0  0  0  0  0  0  0  0  0  0  0  0
  192.4500  170.4650  142.8540 C   0  0  0  0  0  3  0  0  0  0  0  0
  192.8240  173.6890  145.4260 C   0  0  0  0  0  0  0  0  0  0  0  0
  193.8490  172.7270  145.3960 C   0  0  0  0  0  3  0  0  0  0  0  0
  190.6860  174.6070  144.7860 C   0  0  0  0  0  2  0  0  0  0  0  0
  191.0150  175.3210  146.1040 C   0  0  1  0  0  3  0  0  0  0  0  0
  190.4280  172.0110  142.6940 S   0  0  0  0  0  0  0  0  0  0  0  0
  192.6570  171.5190  143.7450 C   0  0  0  0  0  0  0  0  0  0  0  0
  191.2290  170.6100  142.1860 C   0  0  0  0  0  0  0  0  0  0  0  0
  191.7090  173.5500  144.6260 C   0  0  0  0  0  0  0  0  0  0  0  0
  192.8050  175.1160  146.4800 S   0  0  0  0  0  0  0  0  0  0  0  0
  193.7470  171.6550  144.5490 N   0  0  0  0  0  0  0  0  0  0  0  0
  188.4790  177.4690  145.9170 C   0  0  0  0  0  0  0  0  0  0  0  0
  187.1530  177.7770  146.3500 N   0  0  0  0  0  2  0  0  0  0  0  0
  190.6370  176.8000  146.0400 C   0  0  1  0  0  3  0  0  0  0  0  0
  188.9300  177.6400  144.5170 C   0  0  1  0  0  3  0  0  0  0  0  0
  190.3950  177.2390  144.5910 C   0  0  0  0  0  2  0  0  0  0  0  0
  189.3760  177.0240  146.7230 N   0  0  0  0  0  0  0  0  0  0  0  0
  188.2380  176.7310  143.6680 O   0  0  0  0  0  0  0  0  0  0  0  0
  185.9170  177.1860  143.2070 C   0  0  0  0  0  3  0  0  0  0  0  0
  187.2450  177.1310  142.7690 C   0  0  0  0  0  0  0  0  0  0  0  0
  184.9010  177.5760  142.3300 C   0  0  0  0  0  3  0  0  0  0  0  0
  187.5470  177.4690  141.4380 C   0  0  0  0  0  3  0  0  0  0  0  0
  186.5310  177.8600  140.5620 C   0  0  0  0  0  3  0  0  0  0  0  0
  184.1980  178.2970  140.1380 O   0  0  0  0  0  1  0  0  0  0  0  0
  185.2070  177.9120  141.0080 C   0  0  0  0  0  0  0  0  0  0  0  0
  186.7710  177.5930  147.6380 O   0  0  0  0  0  0  0  0  0  0  0  0
  185.5700  178.1320  147.7170 O   0  0  0  0  0  0  0  0  0  0  0  0
  183.9730  178.6580  146.0340 C   0  0  0  0  0  1  0  0  0  0  0  0
  184.8630  177.5900  146.6410 C   0  0  0  0  0  2  0  0  0  0  0  0
  190.3490  168.9180  139.0540 O   0  0  0  0  0  0  0  0  0  0  0  0
  190.8760  169.7930  139.7910 C   0  0  0  0  0  0  0  0  0  0  0  0
  190.6920  169.7100  141.2090 N   0  0  0  0  0  2  0  0  0  0  0  0
  191.6460  170.8500  139.2080 N   0  0  0  0  0  2  0  0  0  0  0  0
  191.8320  170.9890  137.7720 C   0  0  0  0  0  2  0  0  0  0  0  0
  192.1860  172.4280  137.4310 C   0  0  0  0  0  2  0  0  0  0  0  0
  193.3590  172.8430  138.1820 N   0  0  0  0  0  0  0  0  0  0  0  0
  195.2650  174.1990  137.7000 C   0  0  0  0  0  2  0  0  0  0  0  0
  193.0780  174.1720  138.7080 C   0  0  0  0  0  2  0  0  0  0  0  0
  194.4440  173.0240  137.2310 C   0  0  0  0  0  2  0  0  0  0  0  0
  194.8850  175.3100  139.7590 O   0  0  0  0  0  1  0  0  0  0  0  0
  194.3120  175.0320  138.5180 C   0  0  1  0  0  3  0  0  0  0  0  0
  1 10  1  0  0  0  0
  2  8  1  0  0  0  0
  3 11  1  0  0  0  0
  4  3  1  0  0  0  0
  6  5  1  6  0  0  0
  6 11  1  0  0  0  0
  7  1  1  0  0  0  0
  8  1  2  0  0  0  0
  8 12  1  0  0  0  0
  9  7  1  0  0  0  0
  9  2  2  0  0  0  0
 10  5  1  0  0  0  0
 10  3  2  0  0  0  0
 12  4  2  0  0  0  0
 13 14  1  0  0  0  0
 13 18  2  0  0  0  0
 14 27  1  0  0  0  0
 15 17  1  6  0  0  0
 15  6  1  0  0  0  0
 15 18  1  0  0  0  0
 16 19  1  6  0  0  0
 16 17  1  0  0  0  0
 16 13  1  0  0  0  0
 21 20  1  0  0  0  0
 21 19  1  0  0  0  0
 22 20  2  0  0  0  0
 23 21  2  0  0  0  0
 24 26  2  0  0  0  0
 24 23  1  0  0  0  0
 25 26  1  0  0  0  0
 26 22  1  0  0  0  0
 27 28  1  0  0  0  0
 29 30  1  0  0  0  0
 30 28  1  0  0  0  0
 31 32  2  0  0  0  0
 32 33  1  0  0  0  0
 33  9  1  0  0  0  0
 34 32  1  0  0  0  0
 35 34  1  0  0  0  0
 36 35  1  0  0  0  0
 36 37  1  0  0  0  0
 37 39  1  0  0  0  0
 38 42  1  0  0  0  0
 40 38  1  0  0  0  0
 40 37  1  0  0  0  0
 42 39  1  0  0  0  0
 42 41  1  1  0  0  0
M  END
>  <MODEL>
9

>  <REMARK>
 VINA RESULT:      -6.9      3.354      9.768
  Name = 
  10 active torsions:
  status: ('A' for Active; 'I' for Inactive)
    1  A    between atoms: N_3  and  C_15
    2  A    between atoms: C_10  and  C_15
    3  A    between atoms: C_10  and  N_42
    4  A    between atoms: N_11  and  O_17
    5  A    between atoms: C_12  and  O_14
    6  A    between atoms: O_14  and  C_19
    7  A    between atoms: C_16  and  C_32
    8  A    between atoms: O_17  and  O_26
    9  A    between atoms: C_23  and  O_26
   10  A    between atoms: N_28  and  C_36
                            x       y       z     vdW  Elec       q    Type
                         _______ _______ _______ _____ _____    ______ ____

>  <TORSDO>
F 10

$$$$
