=
 OpenBabel11062422053D

 34 36  0  0  1  0  0  0  0  0999 V2000
  194.8200  176.1550  144.8650 C   0  0  0  0  0  0  0  0  0  0  0  0
  195.7270  176.7430  143.9870 O   0  0  0  0  0  1  0  0  0  0  0  0
  194.2940  174.9560  144.5690 C   0  0  0  0  0  3  0  0  0  0  0  0
  192.1970  173.6190  144.8600 C   0  0  0  0  0  2  0  0  0  0  0  0
  195.0250  178.0340  146.4430 F   0  0  0  0  0  0  0  0  0  0  0  0
  191.0730  174.0730  145.4080 C   0  0  0  0  0  0  0  0  0  0  0  0
  192.7030  175.2620  146.4180 C   0  0  2  0  0  3  0  0  0  0  0  0
  193.3700  176.4770  146.7830 N   0  0  0  0  0  0  0  0  0  0  0  0
  193.3690  174.2600  145.5330 C   0  0  2  0  0  3  0  0  0  0  0  0
  191.3860  175.1020  146.4030 C   0  0  0  0  0  0  0  0  0  0  0  0
  194.4040  176.8790  146.0970 C   0  0  0  0  0  0  0  0  0  0  0  0
  189.7080  173.6310  144.9560 C   0  0  2  0  0  3  0  0  0  0  0  0
  189.4580  172.2960  145.2830 O   0  0  0  0  0  1  0  0  0  0  0  0
  189.5250  173.8410  143.4820 C   0  0  0  0  0  0  0  0  0  0  0  0
  189.6980  174.9570  143.0110 O   0  0  0  0  0  0  0  0  0  0  0  0
  189.1160  172.7080  142.5920 C   0  0  0  0  0  2  0  0  0  0  0  0
  188.0410  173.1680  141.6220 C   0  0  0  0  0  2  0  0  0  0  0  0
  187.9010  172.4350  139.3570 O   0  0  0  0  0  0  0  0  0  0  0  0
  189.7530  173.6840  139.8900 O   0  0  0  0  0  1  0  0  0  0  0  0
  188.5490  173.0790  140.2270 C   0  0  0  0  0  0  0  0  0  0  0  0
  190.4280  176.0260  146.9410 N   0  0  0  0  0  2  0  0  0  0  0  0
  188.0110  175.9270  146.8590 C   0  0  0  0  0  3  0  0  0  0  0  0
  186.9010  176.4720  146.0220 C   0  0  2  0  0  3  0  0  0  0  0  0
  188.9560  177.2440  145.2250 C   0  0  0  0  0  3  0  0  0  0  0  0
  189.1610  176.3510  146.3590 C   0  0  0  0  0  0  0  0  0  0  0  0
  187.6460  177.3320  145.0480 C   0  0  0  0  0  0  0  0  0  0  0  0
  186.3130  177.8280  147.8800 O   0  0  0  0  0  0  0  0  0  0  0  0
  185.9050  177.2450  146.8420 C   0  0  0  0  0  0  0  0  0  0  0  0
  184.5540  177.3490  146.4960 O   0  0  0  0  0  0  0  0  0  0  0  0
  184.0030  178.5140  146.1310 O   0  0  0  0  0  1  0  0  0  0  0  0
  187.0170  178.0970  143.9330 C   0  0  0  0  0  2  0  0  0  0  0  0
  184.8520  177.6020  143.0640 O   0  0  0  0  0  1  0  0  0  0  0  0
  186.4810  176.0540  142.6040 O   0  0  0  0  0  0  0  0  0  0  0  0
  186.0500  177.2350  143.1950 C   0  0  0  0  0  0  0  0  0  0  0  0
  1 11  1  0  0  0  0
  2  1  1  0  0  0  0
  3  1  2  0  0  0  0
  4  6  1  0  0  0  0
  4  9  1  0  0  0  0
  6 10  2  0  0  0  0
  7 10  1  6  0  0  0
  7  8  1  0  0  0  0
  9  3  1  6  0  0  0
  9  7  1  0  0  0  0
 10 21  1  0  0  0  0
 11  5  1  0  0  0  0
 11  8  2  0  0  0  0
 12 13  1  6  0  0  0
 12  6  1  0  0  0  0
 14 12  1  0  0  0  0
 15 14  2  0  0  0  0
 16 14  1  0  0  0  0
 17 16  1  0  0  0  0
 18 20  2  0  0  0  0
 19 20  1  0  0  0  0
 20 17  1  0  0  0  0
 23 28  1  1  0  0  0
 23 22  1  0  0  0  0
 24 25  1  0  0  0  0
 25 22  2  0  0  0  0
 25 21  1  0  0  0  0
 26 24  2  0  0  0  0
 26 23  1  0  0  0  0
 28 27  2  0  0  0  0
 29 28  1  0  0  0  0
 30 29  1  0  0  0  0
 31 26  1  0  0  0  0
 32 34  1  0  0  0  0
 33 34  2  0  0  0  0
 34 31  1  0  0  0  0
M  END
>  <MODEL>
1

>  <REMARK>
 VINA RESULT:      -7.3      0.000      0.000
  Name = 
  11 active torsions:
  status: ('A' for Active; 'I' for Inactive)
    1  A    between atoms: C_1  and  C_5
    2  A    between atoms: C_1  and  C_33
    3  A    between atoms: C_5  and  C_18
    4  A    between atoms: C_6  and  C_34
    5  A    between atoms: C_8  and  C_26
    6  A    between atoms: C_8  and  C_31
    7  A    between atoms: C_11  and  C_23
    8  A    between atoms: C_11  and  C_33
    9  A    between atoms: O_13  and  C_34
   10  A    between atoms: C_22  and  N_27
   11  A    between atoms: N_27  and  C_30
                            x       y       z     vdW  Elec       q    Type
                         _______ _______ _______ _____ _____    ______ ____

>  <TORSDO>
F 11

$$$$
=
 OpenBabel11062422053D

 34 36  0  0  1  0  0  0  0  0999 V2000
  194.7840  176.0670  145.0240 C   0  0  0  0  0  0  0  0  0  0  0  0
  195.7210  176.7020  144.2120 O   0  0  0  0  0  1  0  0  0  0  0  0
  194.3270  174.8530  144.6810 C   0  0  0  0  0  3  0  0  0  0  0  0
  192.2700  173.4310  144.8230 C   0  0  0  0  0  2  0  0  0  0  0  0
  194.8150  177.9300  146.6330 F   0  0  0  0  0  0  0  0  0  0  0  0
  191.0960  173.8340  145.3030 C   0  0  0  0  0  0  0  0  0  0  0  0
  192.6110  175.0700  146.4280 C   0  0  2  0  0  3  0  0  0  0  0  0
  193.2050  176.3050  146.8490 N   0  0  0  0  0  0  0  0  0  0  0  0
  193.3710  174.1070  145.5760 C   0  0  2  0  0  3  0  0  0  0  0  0
  191.3050  174.8590  146.3270 C   0  0  0  0  0  0  0  0  0  0  0  0
  194.2630  176.7570  146.2350 C   0  0  0  0  0  0  0  0  0  0  0  0
  189.7820  173.3450  144.7590 C   0  0  2  0  0  3  0  0  0  0  0  0
  189.5570  172.0010  145.0690 O   0  0  0  0  0  1  0  0  0  0  0  0
  189.6920  173.5520  143.2760 C   0  0  0  0  0  0  0  0  0  0  0  0
  190.0510  174.6190  142.7980 O   0  0  0  0  0  0  0  0  0  0  0  0
  189.1500  172.4760  142.3850 C   0  0  0  0  0  2  0  0  0  0  0  0
  188.0730  173.0450  141.4760 C   0  0  0  0  0  2  0  0  0  0  0  0
  187.8740  172.4310  139.1810 O   0  0  0  0  0  0  0  0  0  0  0  0
  189.7390  173.6530  139.7300 O   0  0  0  0  0  1  0  0  0  0  0  0
  188.5440  173.0300  140.0650 C   0  0  0  0  0  0  0  0  0  0  0  0
  190.2790  175.7370  146.8140 N   0  0  0  0  0  2  0  0  0  0  0  0
  189.7690  177.2710  145.0110 C   0  0  0  0  0  3  0  0  0  0  0  0
  188.5640  177.8790  144.3730 C   0  0  2  0  0  3  0  0  0  0  0  0
  187.9150  176.4380  146.0930 C   0  0  0  0  0  3  0  0  0  0  0  0
  189.3690  176.4910  146.0040 C   0  0  0  0  0  0  0  0  0  0  0  0
  187.4520  177.2230  145.1320 C   0  0  0  0  0  0  0  0  0  0  0  0
  189.3000  178.2260  142.1420 O   0  0  0  0  0  0  0  0  0  0  0  0
  188.5090  177.6010  142.8960 C   0  0  0  0  0  0  0  0  0  0  0  0
  187.6260  176.6750  142.3310 O   0  0  0  0  0  0  0  0  0  0  0  0
  187.6030  176.4300  141.0140 O   0  0  0  0  0  1  0  0  0  0  0  0
  186.0010  177.5030  144.9280 C   0  0  0  0  0  2  0  0  0  0  0  0
  185.5970  179.2990  146.4430 O   0  0  0  0  0  1  0  0  0  0  0  0
  185.5870  179.8590  144.2180 O   0  0  0  0  0  0  0  0  0  0  0  0
  185.7000  178.9280  145.2430 C   0  0  0  0  0  0  0  0  0  0  0  0
  1 11  1  0  0  0  0
  2  1  1  0  0  0  0
  3  1  2  0  0  0  0
  4  6  1  0  0  0  0
  4  9  1  0  0  0  0
  6 10  2  0  0  0  0
  7 10  1  6  0  0  0
  7  8  1  0  0  0  0
  9  3  1  6  0  0  0
  9  7  1  0  0  0  0
 10 21  1  0  0  0  0
 11  5  1  0  0  0  0
 11  8  2  0  0  0  0
 12 13  1  6  0  0  0
 12  6  1  0  0  0  0
 14 12  1  0  0  0  0
 15 14  2  0  0  0  0
 16 14  1  0  0  0  0
 17 16  1  0  0  0  0
 18 20  2  0  0  0  0
 19 20  1  0  0  0  0
 20 17  1  0  0  0  0
 22 25  2  0  0  0  0
 23 28  1  6  0  0  0
 23 22  1  0  0  0  0
 23 26  1  0  0  0  0
 25 24  1  0  0  0  0
 25 21  1  0  0  0  0
 26 24  2  0  0  0  0
 27 28  2  0  0  0  0
 29 28  1  0  0  0  0
 30 29  1  0  0  0  0
 31 26  1  0  0  0  0
 31 34  1  0  0  0  0
 33 34  2  0  0  0  0
 34 32  1  0  0  0  0
M  END
>  <MODEL>
2

>  <REMARK>
 VINA RESULT:      -7.1      1.115      2.411
  Name = 
  11 active torsions:
  status: ('A' for Active; 'I' for Inactive)
    1  A    between atoms: C_1  and  C_5
    2  A    between atoms: C_1  and  C_33
    3  A    between atoms: C_5  and  C_18
    4  A    between atoms: C_6  and  C_34
    5  A    between atoms: C_8  and  C_26
    6  A    between atoms: C_8  and  C_31
    7  A    between atoms: C_11  and  C_23
    8  A    between atoms: C_11  and  C_33
    9  A    between atoms: O_13  and  C_34
   10  A    between atoms: C_22  and  N_27
   11  A    between atoms: N_27  and  C_30
                            x       y       z     vdW  Elec       q    Type
                         _______ _______ _______ _____ _____    ______ ____

>  <TORSDO>
F 11

$$$$
=
 OpenBabel11062422053D

 34 36  0  0  1  0  0  0  0  0999 V2000
  195.1420  175.8190  145.1400 C   0  0  0  0  0  0  0  0  0  0  0  0
  196.3550  175.8830  144.4590 O   0  0  0  0  0  1  0  0  0  0  0  0
  194.4970  174.6460  145.2340 C   0  0  0  0  0  3  0  0  0  0  0  0
  192.1820  173.6960  145.3460 C   0  0  0  0  0  2  0  0  0  0  0  0
  195.2610  178.2110  145.7140 F   0  0  0  0  0  0  0  0  0  0  0  0
  191.0610  174.4020  145.2270 C   0  0  0  0  0  0  0  0  0  0  0  0
  192.5430  175.8570  146.1080 C   0  0  2  0  0  3  0  0  0  0  0  0
  193.3050  177.0710  146.1130 N   0  0  0  0  0  0  0  0  0  0  0  0
  193.2210  174.5280  146.0280 C   0  0  2  0  0  3  0  0  0  0  0  0
  191.2780  175.7640  145.7190 C   0  0  0  0  0  0  0  0  0  0  0  0
  194.5470  177.0570  145.7150 C   0  0  0  0  0  0  0  0  0  0  0  0
  189.8180  173.8560  144.5790 C   0  0  2  0  0  3  0  0  0  0  0  0
  189.4790  172.5970  145.0810 O   0  0  0  0  0  1  0  0  0  0  0  0
  189.9620  173.7920  143.0870 C   0  0  0  0  0  0  0  0  0  0  0  0
  189.6060  172.7830  142.4940 O   0  0  0  0  0  0  0  0  0  0  0  0
  190.5550  174.9380  142.3260 C   0  0  0  0  0  2  0  0  0  0  0  0
  191.9180  174.5520  141.7780 C   0  0  0  0  0  2  0  0  0  0  0  0
  192.5380  176.6730  142.6730 O   0  0  0  0  0  1  0  0  0  0  0  0
  194.2240  175.4840  141.6630 O   0  0  0  0  0  0  0  0  0  0  0  0
  192.9040  175.6250  142.0740 C   0  0  0  0  0  0  0  0  0  0  0  0
  190.4080  176.8720  145.4440 N   0  0  0  0  0  2  0  0  0  0  0  0
  188.2060  176.5840  146.4080 C   0  0  0  0  0  3  0  0  0  0  0  0
  186.7810  176.6160  145.9620 C   0  0  2  0  0  3  0  0  0  0  0  0
  188.1930  177.0810  144.1600 C   0  0  0  0  0  3  0  0  0  0  0  0
  188.9790  176.8130  145.3580 C   0  0  0  0  0  0  0  0  0  0  0  0
  186.9210  176.9900  144.5190 C   0  0  0  0  0  0  0  0  0  0  0  0
  186.5780  178.4610  147.4420 O   0  0  0  0  0  0  0  0  0  0  0  0
  185.9680  177.6070  146.7480 C   0  0  0  0  0  0  0  0  0  0  0  0
  184.5700  177.6240  146.7310 O   0  0  0  0  0  0  0  0  0  0  0  0
  183.8790  178.5780  146.0920 O   0  0  0  0  0  1  0  0  0  0  0  0
  185.7860  177.1240  143.5600 C   0  0  0  0  0  2  0  0  0  0  0  0
  185.6650  179.5030  143.4710 O   0  0  0  0  0  1  0  0  0  0  0  0
  186.2100  178.4650  141.4990 O   0  0  0  0  0  0  0  0  0  0  0  0
  185.8640  178.4290  142.8440 C   0  0  0  0  0  0  0  0  0  0  0  0
  1  3  2  0  0  0  0
  1 11  1  0  0  0  0
  2  1  1  0  0  0  0
  4  9  1  0  0  0  0
  5 11  1  0  0  0  0
  6  4  1  0  0  0  0
  6 10  2  0  0  0  0
  7 10  1  6  0  0  0
  7  8  1  0  0  0  0
  9  3  1  6  0  0  0
  9  7  1  0  0  0  0
 11  8  2  0  0  0  0
 12 13  1  1  0  0  0
 12  6  1  0  0  0  0
 14 12  1  0  0  0  0
 15 14  2  0  0  0  0
 16 14  1  0  0  0  0
 17 20  1  0  0  0  0
 17 16  1  0  0  0  0
 19 20  2  0  0  0  0
 20 18  1  0  0  0  0
 21 10  1  0  0  0  0
 23 22  1  0  0  0  0
 23 28  1  1  0  0  0
 24 26  2  0  0  0  0
 24 25  1  0  0  0  0
 25 21  1  0  0  0  0
 25 22  2  0  0  0  0
 26 23  1  0  0  0  0
 28 27  2  0  0  0  0
 29 28  1  0  0  0  0
 30 29  1  0  0  0  0
 31 26  1  0  0  0  0
 33 34  2  0  0  0  0
 34 32  1  0  0  0  0
 34 31  1  0  0  0  0
M  END
>  <MODEL>
3

>  <REMARK>
 VINA RESULT:      -7.1      1.451      2.208
  Name = 
  11 active torsions:
  status: ('A' for Active; 'I' for Inactive)
    1  A    between atoms: C_1  and  C_5
    2  A    between atoms: C_1  and  C_33
    3  A    between atoms: C_5  and  C_18
    4  A    between atoms: C_6  and  C_34
    5  A    between atoms: C_8  and  C_26
    6  A    between atoms: C_8  and  C_31
    7  A    between atoms: C_11  and  C_23
    8  A    between atoms: C_11  and  C_33
    9  A    between atoms: O_13  and  C_34
   10  A    between atoms: C_22  and  N_27
   11  A    between atoms: N_27  and  C_30
                            x       y       z     vdW  Elec       q    Type
                         _______ _______ _______ _____ _____    ______ ____

>  <TORSDO>
F 11

$$$$
=
 OpenBabel11062422053D

 34 36  0  0  1  0  0  0  0  0999 V2000
  195.1080  175.4430  145.1070 C   0  0  0  0  0  0  0  0  0  0  0  0
  196.3890  175.2920  144.5840 O   0  0  0  0  0  1  0  0  0  0  0  0
  194.3660  174.3550  145.3650 C   0  0  0  0  0  3  0  0  0  0  0  0
  191.9860  173.5760  145.3870 C   0  0  0  0  0  2  0  0  0  0  0  0
  195.3500  177.8930  145.1750 F   0  0  0  0  0  0  0  0  0  0  0  0
  190.9440  174.2970  144.9830 C   0  0  0  0  0  0  0  0  0  0  0  0
  192.4290  175.8290  145.7150 C   0  0  2  0  0  3  0  0  0  0  0  0
  193.2790  176.9730  145.5580 N   0  0  0  0  0  0  0  0  0  0  0  0
  193.0060  174.4810  146.0010 C   0  0  2  0  0  3  0  0  0  0  0  0
  191.2110  175.7200  145.2000 C   0  0  0  0  0  0  0  0  0  0  0  0
  194.5530  176.8060  145.3300 C   0  0  0  0  0  0  0  0  0  0  0  0
  189.7410  173.6890  144.3150 C   0  0  2  0  0  3  0  0  0  0  0  0
  189.5880  172.3400  144.6460 O   0  0  0  0  0  1  0  0  0  0  0  0
  189.8030  173.8490  142.8250 C   0  0  0  0  0  0  0  0  0  0  0  0
  190.8680  174.1420  142.2990 O   0  0  0  0  0  0  0  0  0  0  0  0
  188.5750  173.6750  141.9850 C   0  0  0  0  0  2  0  0  0  0  0  0
  188.6940  174.4930  140.7100 C   0  0  0  0  0  2  0  0  0  0  0  0
  189.9270  173.7150  138.8230 O   0  0  0  0  0  0  0  0  0  0  0  0
  187.9510  172.6230  139.2450 O   0  0  0  0  0  1  0  0  0  0  0  0
  188.9020  173.5890  139.5480 C   0  0  0  0  0  0  0  0  0  0  0  0
  190.4660  176.7860  144.5920 N   0  0  0  0  0  2  0  0  0  0  0  0
  188.3060  177.6180  143.8840 C   0  0  0  0  0  3  0  0  0  0  0  0
  186.9230  177.7380  144.4340 C   0  0  2  0  0  3  0  0  0  0  0  0
  188.3170  176.7040  145.9970 C   0  0  0  0  0  3  0  0  0  0  0  0
  189.0780  177.0640  144.8060 C   0  0  0  0  0  0  0  0  0  0  0  0
  187.0660  177.0730  145.7680 C   0  0  0  0  0  0  0  0  0  0  0  0
  186.1900  175.9430  143.0640 O   0  0  0  0  0  0  0  0  0  0  0  0
  185.9060  177.0680  143.5520 C   0  0  0  0  0  0  0  0  0  0  0  0
  184.6620  177.6350  143.2600 O   0  0  0  0  0  0  0  0  0  0  0  0
  184.4720  178.9620  143.2490 O   0  0  0  0  0  1  0  0  0  0  0  0
  185.9750  176.9470  146.7780 C   0  0  0  0  0  2  0  0  0  0  0  0
  184.0700  178.3500  146.4820 O   0  0  0  0  0  0  0  0  0  0  0  0
  185.8450  179.3080  147.5760 O   0  0  0  0  0  1  0  0  0  0  0  0
  185.2470  178.2400  146.9170 C   0  0  0  0  0  0  0  0  0  0  0  0
  1 11  1  0  0  0  0
  1  3  2  0  0  0  0
  2  1  1  0  0  0  0
  4  9  1  0  0  0  0
  5 11  1  0  0  0  0
  6 10  2  0  0  0  0
  6  4  1  0  0  0  0
  7 10  1  6  0  0  0
  7  9  1  0  0  0  0
  8  7  1  0  0  0  0
  9  3  1  6  0  0  0
 11  8  2  0  0  0  0
 12 13  1  6  0  0  0
 12  6  1  0  0  0  0
 14 12  1  0  0  0  0
 15 14  2  0  0  0  0
 16 14  1  0  0  0  0
 17 16  1  0  0  0  0
 18 20  2  0  0  0  0
 19 20  1  0  0  0  0
 20 17  1  0  0  0  0
 21 25  1  0  0  0  0
 21 10  1  0  0  0  0
 22 23  1  0  0  0  0
 22 25  2  0  0  0  0
 23 28  1  6  0  0  0
 23 26  1  0  0  0  0
 25 24  1  0  0  0  0
 26 24  2  0  0  0  0
 26 31  1  0  0  0  0
 27 28  2  0  0  0  0
 29 28  1  0  0  0  0
 30 29  1  0  0  0  0
 31 34  1  0  0  0  0
 32 34  2  0  0  0  0
 34 33  1  0  0  0  0
M  END
>  <MODEL>
4

>  <REMARK>
 VINA RESULT:      -7.1      1.058      2.371
  Name = 
  11 active torsions:
  status: ('A' for Active; 'I' for Inactive)
    1  A    between atoms: C_1  and  C_5
    2  A    between atoms: C_1  and  C_33
    3  A    between atoms: C_5  and  C_18
    4  A    between atoms: C_6  and  C_34
    5  A    between atoms: C_8  and  C_26
    6  A    between atoms: C_8  and  C_31
    7  A    between atoms: C_11  and  C_23
    8  A    between atoms: C_11  and  C_33
    9  A    between atoms: O_13  and  C_34
   10  A    between atoms: C_22  and  N_27
   11  A    between atoms: N_27  and  C_30
                            x       y       z     vdW  Elec       q    Type
                         _______ _______ _______ _____ _____    ______ ____

>  <TORSDO>
F 11

$$$$
=
 OpenBabel11062422053D

 34 36  0  0  1  0  0  0  0  0999 V2000
  195.1720  175.4510  145.1310 C   0  0  0  0  0  0  0  0  0  0  0  0
  196.4780  175.3700  144.6550 O   0  0  0  0  0  1  0  0  0  0  0  0
  194.4570  174.3280  145.2960 C   0  0  0  0  0  3  0  0  0  0  0  0
  192.1050  173.4760  145.1730 C   0  0  0  0  0  2  0  0  0  0  0  0
  195.3310  177.8990  145.3460 F   0  0  0  0  0  0  0  0  0  0  0  0
  191.0570  174.1870  144.7660 C   0  0  0  0  0  0  0  0  0  0  0  0
  192.4600  175.7190  145.6450 C   0  0  2  0  0  3  0  0  0  0  0  0
  193.2780  176.8960  145.5890 N   0  0  0  0  0  0  0  0  0  0  0  0
  193.0680  174.3750  145.8800 C   0  0  2  0  0  3  0  0  0  0  0  0
  191.2680  175.6030  145.0730 C   0  0  0  0  0  0  0  0  0  0  0  0
  194.5640  176.7810  145.4060 C   0  0  0  0  0  0  0  0  0  0  0  0
  189.9020  173.5820  144.0150 C   0  0  2  0  0  3  0  0  0  0  0  0
  189.4520  172.4030  144.6130 O   0  0  0  0  0  1  0  0  0  0  0  0
  190.2570  173.3270  142.5800 C   0  0  0  0  0  0  0  0  0  0  0  0
  190.1780  172.1900  142.1360 O   0  0  0  0  0  0  0  0  0  0  0  0
  190.7260  174.4440  141.6980 C   0  0  0  0  0  2  0  0  0  0  0  0
  192.0250  174.0570  141.0110 C   0  0  0  0  0  2  0  0  0  0  0  0
  193.1180  175.8550  142.1330 O   0  0  0  0  0  1  0  0  0  0  0  0
  194.3300  173.9140  141.9390 O   0  0  0  0  0  0  0  0  0  0  0  0
  193.1770  174.6600  141.7330 C   0  0  0  0  0  0  0  0  0  0  0  0
  190.5140  176.6790  144.4950 N   0  0  0  0  0  2  0  0  0  0  0  0
  188.3460  177.5600  143.8760 C   0  0  0  0  0  3  0  0  0  0  0  0
  186.9830  177.6870  144.4720 C   0  0  2  0  0  3  0  0  0  0  0  0
  188.4090  176.5950  145.9650 C   0  0  0  0  0  3  0  0  0  0  0  0
  189.1370  176.9720  144.7600 C   0  0  0  0  0  0  0  0  0  0  0  0
  187.1570  176.9870  145.7850 C   0  0  0  0  0  0  0  0  0  0  0  0
  186.2040  175.9700  143.0290 O   0  0  0  0  0  0  0  0  0  0  0  0
  185.9290  177.0540  143.6070 C   0  0  0  0  0  0  0  0  0  0  0  0
  184.6590  177.6110  143.4260 O   0  0  0  0  0  0  0  0  0  0  0  0
  184.4840  178.9230  143.2140 O   0  0  0  0  0  1  0  0  0  0  0  0
  186.0960  176.8530  146.8250 C   0  0  0  0  0  2  0  0  0  0  0  0
  186.1300  179.0780  147.6820 O   0  0  0  0  0  1  0  0  0  0  0  0
  184.1760  178.4380  146.6640 O   0  0  0  0  0  0  0  0  0  0  0  0
  185.4690  178.1770  147.0990 C   0  0  0  0  0  0  0  0  0  0  0  0
  1  3  2  0  0  0  0
  1 11  1  0  0  0  0
  2  1  1  0  0  0  0
  3  9  1  0  0  0  0
  5 11  1  0  0  0  0
  6 10  2  0  0  0  0
  6  4  1  0  0  0  0
  7 10  1  6  0  0  0
  7  9  1  0  0  0  0
  8  7  1  0  0  0  0
  9  4  1  6  0  0  0
 11  8  2  0  0  0  0
 12 13  1  1  0  0  0
 12  6  1  0  0  0  0
 14 12  1  0  0  0  0
 15 14  2  0  0  0  0
 16 14  1  0  0  0  0
 17 16  1  0  0  0  0
 17 20  1  0  0  0  0
 20 19  2  0  0  0  0
 20 18  1  0  0  0  0
 21 25  1  0  0  0  0
 21 10  1  0  0  0  0
 22 23  1  0  0  0  0
 22 25  2  0  0  0  0
 23 28  1  6  0  0  0
 23 26  1  0  0  0  0
 25 24  1  0  0  0  0
 26 24  2  0  0  0  0
 26 31  1  0  0  0  0
 27 28  2  0  0  0  0
 29 28  1  0  0  0  0
 30 29  1  0  0  0  0
 31 34  1  0  0  0  0
 33 34  2  0  0  0  0
 34 32  1  0  0  0  0
M  END
>  <MODEL>
5

>  <REMARK>
 VINA RESULT:      -7.0      1.624      3.008
  Name = 
  11 active torsions:
  status: ('A' for Active; 'I' for Inactive)
    1  A    between atoms: C_1  and  C_5
    2  A    between atoms: C_1  and  C_33
    3  A    between atoms: C_5  and  C_18
    4  A    between atoms: C_6  and  C_34
    5  A    between atoms: C_8  and  C_26
    6  A    between atoms: C_8  and  C_31
    7  A    between atoms: C_11  and  C_23
    8  A    between atoms: C_11  and  C_33
    9  A    between atoms: O_13  and  C_34
   10  A    between atoms: C_22  and  N_27
   11  A    between atoms: N_27  and  C_30
                            x       y       z     vdW  Elec       q    Type
                         _______ _______ _______ _____ _____    ______ ____

>  <TORSDO>
F 11

$$$$
=
 OpenBabel11062422053D

 34 36  0  0  1  0  0  0  0  0999 V2000
  184.4410  178.3440  144.4050 C   0  0  0  0  0  0  0  0  0  0  0  0
  183.5530  179.4060  144.2540 O   0  0  0  0  0  1  0  0  0  0  0  0
  184.8380  177.9830  145.6350 C   0  0  0  0  0  3  0  0  0  0  0  0
  186.8130  177.0340  146.8480 C   0  0  0  0  0  2  0  0  0  0  0  0
  184.4850  177.9460  141.9750 F   0  0  0  0  0  0  0  0  0  0  0  0
  187.9980  176.7850  146.2980 C   0  0  0  0  0  0  0  0  0  0  0  0
  186.5350  176.5360  144.6000 C   0  0  2  0  0  3  0  0  0  0  0  0
  186.0010  176.8460  143.3060 N   0  0  0  0  0  0  0  0  0  0  0  0
  185.7370  176.7910  145.8370 C   0  0  2  0  0  3  0  0  0  0  0  0
  187.8290  176.4570  144.8810 C   0  0  0  0  0  0  0  0  0  0  0  0
  184.9790  177.6500  143.2030 C   0  0  0  0  0  0  0  0  0  0  0  0
  189.2930  176.9380  147.0480 C   0  0  2  0  0  3  0  0  0  0  0  0
  190.1690  177.8140  146.4020 O   0  0  0  0  0  1  0  0  0  0  0  0
  189.9600  175.6120  147.2640 C   0  0  0  0  0  0  0  0  0  0  0  0
  189.2870  174.5900  147.2250 O   0  0  0  0  0  0  0  0  0  0  0  0
  191.4290  175.5300  147.5470 C   0  0  0  0  0  2  0  0  0  0  0  0
  192.1600  174.9490  146.3490 C   0  0  0  0  0  2  0  0  0  0  0  0
  194.4500  175.6000  146.4830 O   0  0  0  0  0  1  0  0  0  0  0  0
  193.1210  176.8930  145.1280 O   0  0  0  0  0  0  0  0  0  0  0  0
  193.3100  175.8190  145.9880 C   0  0  0  0  0  0  0  0  0  0  0  0
  188.8920  176.4570  143.9170 N   0  0  0  0  0  2  0  0  0  0  0  0
  189.3180  174.0780  143.7870 C   0  0  0  0  0  3  0  0  0  0  0  0
  190.3700  173.1610  143.2550 C   0  0  2  0  0  3  0  0  0  0  0  0
  190.9430  175.3810  142.8060 C   0  0  0  0  0  3  0  0  0  0  0  0
  189.6910  175.3260  143.5510 C   0  0  0  0  0  0  0  0  0  0  0  0
  191.3200  174.1260  142.6150 C   0  0  0  0  0  0  0  0  0  0  0  0
  189.0220  172.5770  141.3900 O   0  0  0  0  0  0  0  0  0  0  0  0
  189.8060  172.1620  142.2820 C   0  0  0  0  0  0  0  0  0  0  0  0
  190.1230  170.8010  142.3230 O   0  0  0  0  0  0  0  0  0  0  0  0
  191.3730  170.3570  142.1330 O   0  0  0  0  0  1  0  0  0  0  0  0
  192.6010  173.7450  141.9520 C   0  0  0  0  0  2  0  0  0  0  0  0
  193.9880  173.1210  143.7880 O   0  0  0  0  0  1  0  0  0  0  0  0
  194.5860  175.0550  142.7070 O   0  0  0  0  0  0  0  0  0  0  0  0
  193.7480  173.9600  142.8790 C   0  0  0  0  0  0  0  0  0  0  0  0
  1  3  2  0  0  0  0
  2  1  1  0  0  0  0
  5 11  1  0  0  0  0
  6  4  1  0  0  0  0
  6 12  1  0  0  0  0
  7  8  1  6  0  0  0
  7 10  1  0  0  0  0
  7  9  1  0  0  0  0
  9  3  1  6  0  0  0
  9  4  1  0  0  0  0
 10  6  2  0  0  0  0
 11  8  2  0  0  0  0
 11  1  1  0  0  0  0
 12 13  1  6  0  0  0
 12 14  1  0  0  0  0
 14 16  1  0  0  0  0
 15 14  2  0  0  0  0
 17 16  1  0  0  0  0
 19 20  2  0  0  0  0
 20 17  1  0  0  0  0
 20 18  1  0  0  0  0
 21 10  1  0  0  0  0
 23 28  1  6  0  0  0
 23 22  1  0  0  0  0
 24 25  1  0  0  0  0
 25 22  2  0  0  0  0
 25 21  1  0  0  0  0
 26 24  2  0  0  0  0
 26 23  1  0  0  0  0
 27 28  2  0  0  0  0
 28 29  1  0  0  0  0
 30 29  1  0  0  0  0
 31 26  1  0  0  0  0
 31 34  1  0  0  0  0
 33 34  2  0  0  0  0
 34 32  1  0  0  0  0
M  END
>  <MODEL>
6

>  <REMARK>
 VINA RESULT:      -6.9      3.099      7.671
  Name = 
  11 active torsions:
  status: ('A' for Active; 'I' for Inactive)
    1  A    between atoms: C_1  and  C_5
    2  A    between atoms: C_1  and  C_33
    3  A    between atoms: C_5  and  C_18
    4  A    between atoms: C_6  and  C_34
    5  A    between atoms: C_8  and  C_26
    6  A    between atoms: C_8  and  C_31
    7  A    between atoms: C_11  and  C_23
    8  A    between atoms: C_11  and  C_33
    9  A    between atoms: O_13  and  C_34
   10  A    between atoms: C_22  and  N_27
   11  A    between atoms: N_27  and  C_30
                            x       y       z     vdW  Elec       q    Type
                         _______ _______ _______ _____ _____    ______ ____

>  <TORSDO>
F 11

$$$$
=
 OpenBabel11062422053D

 34 36  0  0  1  0  0  0  0  0999 V2000
  193.5830  174.0470  145.3260 C   0  0  0  0  0  0  0  0  0  0  0  0
  193.9500  172.7040  145.3640 O   0  0  0  0  0  1  0  0  0  0  0  0
  193.0990  174.6320  146.4310 C   0  0  0  0  0  3  0  0  0  0  0  0
  191.4830  176.4050  147.1520 C   0  0  0  0  0  2  0  0  0  0  0  0
  194.2810  174.2390  142.9710 F   0  0  0  0  0  0  0  0  0  0  0  0
  190.6770  177.0800  146.3370 C   0  0  0  0  0  0  0  0  0  0  0  0
  192.4620  176.5690  145.0560 C   0  0  2  0  0  3  0  0  0  0  0  0
  193.1020  175.9670  143.9230 N   0  0  0  0  0  0  0  0  0  0  0  0
  192.7640  176.1020  146.4420 C   0  0  2  0  0  3  0  0  0  0  0  0
  191.2960  177.1990  145.0150 C   0  0  0  0  0  0  0  0  0  0  0  0
  193.6840  174.8070  144.0500 C   0  0  0  0  0  0  0  0  0  0  0  0
  189.3020  177.5360  146.7420 C   0  0  2  0  0  3  0  0  0  0  0  0
  189.3110  178.1760  147.9840 O   0  0  0  0  0  1  0  0  0  0  0  0
  188.3300  176.3930  146.7600 C   0  0  0  0  0  0  0  0  0  0  0  0
  188.6840  175.3000  146.3420 O   0  0  0  0  0  0  0  0  0  0  0  0
  186.9320  176.5860  147.2620 C   0  0  0  0  0  2  0  0  0  0  0  0
  185.9920  176.8600  146.0990 C   0  0  0  0  0  2  0  0  0  0  0  0
  185.9380  179.1100  145.3120 O   0  0  0  0  0  0  0  0  0  0  0  0
  184.6370  178.6630  147.1520 O   0  0  0  0  0  1  0  0  0  0  0  0
  185.5190  178.2690  146.1540 C   0  0  0  0  0  0  0  0  0  0  0  0
  190.5890  177.5650  143.8200 N   0  0  0  0  0  2  0  0  0  0  0  0
  188.2470  177.5530  143.2070 C   0  0  0  0  0  3  0  0  0  0  0  0
  187.2520  176.6020  142.6280 C   0  0  2  0  0  3  0  0  0  0  0  0
  189.3420  175.5730  142.7840 C   0  0  0  0  0  3  0  0  0  0  0  0
  189.4090  176.9280  143.3170 C   0  0  0  0  0  0  0  0  0  0  0  0
  188.0990  175.3960  142.3630 C   0  0  0  0  0  0  0  0  0  0  0  0
  187.3110  177.2520  140.3450 O   0  0  0  0  0  0  0  0  0  0  0  0
  186.6080  177.1500  141.3840 C   0  0  0  0  0  0  0  0  0  0  0  0
  185.2660  177.5400  141.3320 O   0  0  0  0  0  0  0  0  0  0  0  0
  184.6150  177.9890  142.4130 O   0  0  0  0  0  1  0  0  0  0  0  0
  187.5940  174.1050  141.8120 C   0  0  0  0  0  2  0  0  0  0  0  0
  188.5680  174.2130  139.6390 O   0  0  0  0  0  0  0  0  0  0  0  0
  189.3230  172.5110  140.9790 O   0  0  0  0  0  1  0  0  0  0  0  0
  188.5040  173.6080  140.7420 C   0  0  0  0  0  0  0  0  0  0  0  0
  1  2  1  0  0  0  0
  1  3  2  0  0  0  0
  5 11  1  0  0  0  0
  6 12  1  0  0  0  0
  6  4  1  0  0  0  0
  7  8  1  6  0  0  0
  7  9  1  0  0  0  0
  8 11  2  0  0  0  0
  9  3  1  6  0  0  0
  9  4  1  0  0  0  0
 10  7  1  0  0  0  0
 10  6  2  0  0  0  0
 11  1  1  0  0  0  0
 12 14  1  0  0  0  0
 12 13  1  1  0  0  0
 14 16  1  0  0  0  0
 15 14  2  0  0  0  0
 17 20  1  0  0  0  0
 17 16  1  0  0  0  0
 18 20  2  0  0  0  0
 20 19  1  0  0  0  0
 21 10  1  0  0  0  0
 22 25  2  0  0  0  0
 23 28  1  6  0  0  0
 23 22  1  0  0  0  0
 24 25  1  0  0  0  0
 25 21  1  0  0  0  0
 26 23  1  0  0  0  0
 26 24  2  0  0  0  0
 27 28  2  0  0  0  0
 29 28  1  0  0  0  0
 29 30  1  0  0  0  0
 31 26  1  0  0  0  0
 32 34  2  0  0  0  0
 34 33  1  0  0  0  0
 34 31  1  0  0  0  0
M  END
>  <MODEL>
7

>  <REMARK>
 VINA RESULT:      -6.8      2.167      5.002
  Name = 
  11 active torsions:
  status: ('A' for Active; 'I' for Inactive)
    1  A    between atoms: C_1  and  C_5
    2  A    between atoms: C_1  and  C_33
    3  A    between atoms: C_5  and  C_18
    4  A    between atoms: C_6  and  C_34
    5  A    between atoms: C_8  and  C_26
    6  A    between atoms: C_8  and  C_31
    7  A    between atoms: C_11  and  C_23
    8  A    between atoms: C_11  and  C_33
    9  A    between atoms: O_13  and  C_34
   10  A    between atoms: C_22  and  N_27
   11  A    between atoms: N_27  and  C_30
                            x       y       z     vdW  Elec       q    Type
                         _______ _______ _______ _____ _____    ______ ____

>  <TORSDO>
F 11

$$$$
=
 OpenBabel11062422053D

 34 36  0  0  1  0  0  0  0  0999 V2000
  184.4400  178.4360  144.4040 C   0  0  0  0  0  0  0  0  0  0  0  0
  183.5540  179.5070  144.3230 O   0  0  0  0  0  1  0  0  0  0  0  0
  184.9800  178.1120  145.5880 C   0  0  0  0  0  3  0  0  0  0  0  0
  187.0760  177.1720  146.5850 C   0  0  0  0  0  2  0  0  0  0  0  0
  184.1790  177.9510  142.0030 F   0  0  0  0  0  0  0  0  0  0  0  0
  188.1820  176.8830  145.9040 C   0  0  0  0  0  0  0  0  0  0  0  0
  186.5170  176.5980  144.4080 C   0  0  2  0  0  3  0  0  0  0  0  0
  185.8330  176.8720  143.1780 N   0  0  0  0  0  0  0  0  0  0  0  0
  185.8820  176.9120  145.7230 C   0  0  2  0  0  3  0  0  0  0  0  0
  187.8350  176.5070  144.5320 C   0  0  0  0  0  0  0  0  0  0  0  0
  184.8170  177.6890  143.1720 C   0  0  0  0  0  0  0  0  0  0  0  0
  189.5610  177.0390  146.4830 C   0  0  2  0  0  3  0  0  0  0  0  0
  190.4400  177.6460  145.5820 O   0  0  0  0  0  1  0  0  0  0  0  0
  190.1170  175.7210  146.9350 C   0  0  0  0  0  0  0  0  0  0  0  0
  189.4280  174.7150  146.8350 O   0  0  0  0  0  0  0  0  0  0  0  0
  191.4930  175.6320  147.5230 C   0  0  0  0  0  2  0  0  0  0  0  0
  192.4260  174.9140  146.5620 C   0  0  0  0  0  2  0  0  0  0  0  0
  193.8640  175.7650  144.8610 O   0  0  0  0  0  0  0  0  0  0  0  0
  193.9660  176.8430  146.8870 O   0  0  0  0  0  1  0  0  0  0  0  0
  193.4480  175.8640  146.0470 C   0  0  0  0  0  0  0  0  0  0  0  0
  188.7720  176.4540  143.4450 N   0  0  0  0  0  2  0  0  0  0  0  0
  190.0220  174.4320  142.9880 C   0  0  0  0  0  3  0  0  0  0  0  0
  190.0490  173.3460  141.9650 C   0  0  2  0  0  3  0  0  0  0  0  0
  188.3490  174.8690  141.4690 C   0  0  0  0  0  3  0  0  0  0  0  0
  189.0760  175.2980  142.6580 C   0  0  0  0  0  0  0  0  0  0  0  0
  188.8980  173.7270  141.0850 C   0  0  0  0  0  0  0  0  0  0  0  0
  190.4470  171.0060  142.0280 O   0  0  0  0  0  0  0  0  0  0  0  0
  189.8850  171.9850  142.5840 C   0  0  0  0  0  0  0  0  0  0  0  0
  189.1470  171.7660  143.7520 O   0  0  0  0  0  0  0  0  0  0  0  0
  189.6850  171.9150  144.9700 O   0  0  0  0  0  1  0  0  0  0  0  0
  188.4890  172.9920  139.8530 C   0  0  0  0  0  2  0  0  0  0  0  0
  189.9860  173.7780  138.1710 O   0  0  0  0  0  1  0  0  0  0  0  0
  187.8200  174.5120  137.9910 O   0  0  0  0  0  0  0  0  0  0  0  0
  188.8160  173.7930  138.6390 C   0  0  0  0  0  0  0  0  0  0  0  0
  1  3  2  0  0  0  0
  2  1  1  0  0  0  0
  5 11  1  0  0  0  0
  6 12  1  0  0  0  0
  6  4  1  0  0  0  0
  7  8  1  6  0  0  0
  7 10  1  0  0  0  0
  7  9  1  0  0  0  0
  9  3  1  6  0  0  0
  9  4  1  0  0  0  0
 10  6  2  0  0  0  0
 11  8  2  0  0  0  0
 11  1  1  0  0  0  0
 12 13  1  6  0  0  0
 12 14  1  0  0  0  0
 14 16  1  0  0  0  0
 15 14  2  0  0  0  0
 17 16  1  0  0  0  0
 18 20  2  0  0  0  0
 20 17  1  0  0  0  0
 20 19  1  0  0  0  0
 21 10  1  0  0  0  0
 23 28  1  1  0  0  0
 23 22  1  0  0  0  0
 24 25  1  0  0  0  0
 25 22  2  0  0  0  0
 25 21  1  0  0  0  0
 26 24  2  0  0  0  0
 26 23  1  0  0  0  0
 27 28  2  0  0  0  0
 28 29  1  0  0  0  0
 29 30  1  0  0  0  0
 31 26  1  0  0  0  0
 32 34  1  0  0  0  0
 33 34  2  0  0  0  0
 34 31  1  0  0  0  0
M  END
>  <MODEL>
8

>  <REMARK>
 VINA RESULT:      -6.8      3.053      7.371
  Name = 
  11 active torsions:
  status: ('A' for Active; 'I' for Inactive)
    1  A    between atoms: C_1  and  C_5
    2  A    between atoms: C_1  and  C_33
    3  A    between atoms: C_5  and  C_18
    4  A    between atoms: C_6  and  C_34
    5  A    between atoms: C_8  and  C_26
    6  A    between atoms: C_8  and  C_31
    7  A    between atoms: C_11  and  C_23
    8  A    between atoms: C_11  and  C_33
    9  A    between atoms: O_13  and  C_34
   10  A    between atoms: C_22  and  N_27
   11  A    between atoms: N_27  and  C_30
                            x       y       z     vdW  Elec       q    Type
                         _______ _______ _______ _____ _____    ______ ____

>  <TORSDO>
F 11

$$$$
=
 OpenBabel11062422053D

 34 36  0  0  1  0  0  0  0  0999 V2000
  190.1600  172.7290  141.6300 C   0  0  0  0  0  0  0  0  0  0  0  0
  190.2500  171.4170  141.1730 O   0  0  0  0  0  1  0  0  0  0  0  0
  191.2700  173.4770  141.7160 C   0  0  0  0  0  3  0  0  0  0  0  0
  192.2840  175.3150  143.0830 C   0  0  0  0  0  2  0  0  0  0  0  0
  187.7150  172.5510  141.8670 F   0  0  0  0  0  0  0  0  0  0  0  0
  191.7440  175.8350  144.1820 C   0  0  0  0  0  0  0  0  0  0  0  0
  189.9740  175.1550  142.9610 C   0  0  2  0  0  3  0  0  0  0  0  0
  188.7820  174.3890  142.7400 N   0  0  0  0  0  0  0  0  0  0  0  0
  191.1960  174.9230  142.1340 C   0  0  2  0  0  3  0  0  0  0  0  0
  190.2850  175.7500  144.1060 C   0  0  0  0  0  0  0  0  0  0  0  0
  188.8450  173.2750  142.0650 C   0  0  0  0  0  0  0  0  0  0  0  0
  192.5680  176.3260  145.3410 C   0  0  2  0  0  3  0  0  0  0  0  0
  193.3270  177.4490  145.0010 O   0  0  0  0  0  1  0  0  0  0  0  0
  193.4590  175.2450  145.8760 C   0  0  0  0  0  0  0  0  0  0  0  0
  192.9860  174.1420  146.1130 O   0  0  0  0  0  0  0  0  0  0  0  0
  194.9100  175.5100  146.1400 C   0  0  0  0  0  2  0  0  0  0  0  0
  195.7670  174.4630  145.4470 C   0  0  0  0  0  2  0  0  0  0  0  0
  196.4810  174.1120  143.2000 O   0  0  0  0  0  0  0  0  0  0  0  0
  196.1670  176.3020  143.8180 O   0  0  0  0  0  1  0  0  0  0  0  0
  196.1490  174.9400  144.0910 C   0  0  0  0  0  0  0  0  0  0  0  0
  189.4050  175.9060  145.2290 N   0  0  0  0  0  2  0  0  0  0  0  0
  187.2170  176.4240  146.1260 C   0  0  0  0  0  3  0  0  0  0  0  0
  186.0910  177.3630  145.8450 C   0  0  2  0  0  3  0  0  0  0  0  0
  187.8340  177.7300  144.3340 C   0  0  0  0  0  3  0  0  0  0  0  0
  188.1700  176.6310  145.2300 C   0  0  0  0  0  0  0  0  0  0  0  0
  186.6420  178.1680  144.7080 C   0  0  0  0  0  0  0  0  0  0  0  0
  186.6520  178.4380  147.8870 O   0  0  0  0  0  0  0  0  0  0  0  0
  185.7470  178.2040  147.0440 C   0  0  0  0  0  0  0  0  0  0  0  0
  184.4730  178.7390  147.2550 O   0  0  0  0  0  0  0  0  0  0  0  0
  183.5120  178.6730  146.3230 O   0  0  0  0  0  1  0  0  0  0  0  0
  185.9010  179.2480  143.9920 C   0  0  0  0  0  2  0  0  0  0  0  0
  185.5430  178.1380  141.9120 O   0  0  0  0  0  0  0  0  0  0  0  0
  183.6490  178.6460  143.1030 O   0  0  0  0  0  1  0  0  0  0  0  0
  185.0280  178.6630  142.9350 C   0  0  0  0  0  0  0  0  0  0  0  0
  1  3  2  0  0  0  0
  1 11  1  0  0  0  0
  2  1  1  0  0  0  0
  4  6  1  0  0  0  0
  5 11  1  0  0  0  0
  6 12  1  0  0  0  0
  7  8  1  1  0  0  0
  7 10  1  0  0  0  0
  9  3  1  1  0  0  0
  9  7  1  0  0  0  0
  9  4  1  0  0  0  0
 10  6  2  0  0  0  0
 10 21  1  0  0  0  0
 11  8  2  0  0  0  0
 12 13  1  6  0  0  0
 12 14  1  0  0  0  0
 14 15  2  0  0  0  0
 14 16  1  0  0  0  0
 17 16  1  0  0  0  0
 18 20  2  0  0  0  0
 19 20  1  0  0  0  0
 20 17  1  0  0  0  0
 21 25  1  0  0  0  0
 23 22  1  0  0  0  0
 23 28  1  1  0  0  0
 24 26  2  0  0  0  0
 24 25  1  0  0  0  0
 25 22  2  0  0  0  0
 26 23  1  0  0  0  0
 28 29  1  0  0  0  0
 28 27  2  0  0  0  0
 30 29  1  0  0  0  0
 31 26  1  0  0  0  0
 32 34  2  0  0  0  0
 34 33  1  0  0  0  0
 34 31  1  0  0  0  0
M  END
>  <MODEL>
9

>  <REMARK>
 VINA RESULT:      -6.7      2.625      5.124
  Name = 
  11 active torsions:
  status: ('A' for Active; 'I' for Inactive)
    1  A    between atoms: C_1  and  C_5
    2  A    between atoms: C_1  and  C_33
    3  A    between atoms: C_5  and  C_18
    4  A    between atoms: C_6  and  C_34
    5  A    between atoms: C_8  and  C_26
    6  A    between atoms: C_8  and  C_31
    7  A    between atoms: C_11  and  C_23
    8  A    between atoms: C_11  and  C_33
    9  A    between atoms: O_13  and  C_34
   10  A    between atoms: C_22  and  N_27
   11  A    between atoms: N_27  and  C_30
                            x       y       z     vdW  Elec       q    Type
                         _______ _______ _______ _____ _____    ______ ____

>  <TORSDO>
F 11

$$$$
