=
 OpenBabel11062422573D

 29 32  0  0  1  0  0  0  0  0999 V2000
  191.4710  175.1170  146.7710 C   0  0  2  0  0  3  0  0  0  0  0  0
  189.0540  175.0630  146.6110 C   0  0  0  0  0  2  0  0  0  0  0  0
  192.1530  173.6450  142.0860 C   0  0  1  0  0  3  0  0  0  0  0  0
  191.9410  174.2450  144.5870 C   0  0  0  0  0  2  0  0  0  0  0  0
  191.9570  172.5340  139.9760 O   0  0  0  0  0  0  0  0  0  0  0  0
  191.0750  175.1280  145.3680 N   0  0  1  0  0  0  0  0  0  0  0  0
  191.2280  173.7590  143.3060 C   0  0  1  0  0  3  0  0  0  0  0  0
  189.9670  174.5940  142.9570 C   0  0  1  0  0  3  0  0  0  0  0  0
  191.3620  173.1240  140.9140 C   0  0  0  0  0  0  0  0  0  0  0  0
  189.2360  173.9700  141.8020 C   0  0  0  0  0  3  0  0  0  0  0  0
  189.7380  174.5620  145.3650 C   0  0  2  0  0  3  0  0  0  0  0  0
  190.1950  175.1360  147.6130 C   0  0  2  0  0  3  0  0  0  0  0  0
  189.0530  174.8540  144.0950 N   0  0  0  0  0  0  0  0  0  0  0  0
  191.0100  176.4020  147.4320 C   0  0  0  0  0  2  0  0  0  0  0  0
  189.8980  173.3160  140.8420 C   0  0  0  0  0  3  0  0  0  0  0  0
  194.5910  176.5120  141.4160 N   0  0  0  0  0  2  0  0  0  0  0  0
  192.7160  174.9460  141.7380 N   0  0  0  0  0  2  0  0  0  0  0  0
  194.9410  174.2500  141.8730 O   0  0  0  0  0  0  0  0  0  0  0  0
  194.1220  175.1910  141.6870 C   0  0  0  0  0  0  0  0  0  0  0  0
  196.0070  176.8280  141.3540 C   0  0  0  0  0  1  0  0  0  0  0  0
  186.5590  175.9280  143.3400 O   0  0  0  0  0  0  0  0  0  0  0  0
  188.7590  176.2290  144.0650 N   0  0  0  0  0  2  0  0  0  0  0  0
  187.4880  176.7240  143.6410 C   0  0  0  0  0  0  0  0  0  0  0  0
  187.2630  178.1970  143.5560 C   0  0  0  0  0  2  0  0  0  0  0  0
  186.0250  178.6600  144.3340 C   0  0  2  0  0  3  0  0  0  0  0  0
  185.7770  180.0100  144.1510 F   0  0  0  0  0  0  0  0  0  0  0  0
  184.9100  177.3100  146.1750 C   0  0  0  0  0  1  0  0  0  0  0  0
  186.0210  178.2810  145.8180 C   0  0  2  0  0  3  0  0  0  0  0  0
  185.9380  179.4200  146.6200 O   0  0  0  0  0  1  0  0  0  0  0  0
  1 14  1  1  0  0  0
  1 12  1  0  0  0  0
  3 17  1  6  0  0  0
  3  7  1  0  0  0  0
  5  9  2  0  0  0  0
  6  4  1  6  0  0  0
  6  1  1  0  0  0  0
  7  4  1  1  0  0  0
  8 10  1  6  0  0  0
  8  7  1  0  0  0  0
  8 13  1  0  0  0  0
  9  3  1  0  0  0  0
 11  6  1  0  0  0  0
 11  2  1  1  0  0  0
 12  2  1  6  0  0  0
 13 11  1  0  0  0  0
 14 12  1  0  0  0  0
 15  9  1  0  0  0  0
 15 10  2  0  0  0  0
 16 19  1  0  0  0  0
 19 17  1  0  0  0  0
 19 18  2  0  0  0  0
 20 16  1  0  0  0  0
 21 23  2  0  0  0  0
 22 13  1  0  0  0  0
 23 22  1  0  0  0  0
 24 23  1  0  0  0  0
 24 25  1  0  0  0  0
 25 26  1  1  0  0  0
 25 28  1  0  0  0  0
 28 27  1  6  0  0  0
 28 29  1  0  0  0  0
M  END
>  <MODEL>
1

>  <REMARK>
 VINA RESULT:      -6.6      0.000      0.000
  Name = 
  5 active torsions:
  status: ('A' for Active; 'I' for Inactive)
    1  A    between atoms: C_5  and  N_19
    2  A    between atoms: C_7  and  C_9
    3  A    between atoms: C_9  and  C_14
    4  A    between atoms: N_11  and  N_26
    5  A    between atoms: C_14  and  C_20
                            x       y       z     vdW  Elec       q    Type
                         _______ _______ _______ _____ _____    ______ ____

>  <TORSDO>
F 5

$$$$
=
 OpenBabel11062422573D

 29 32  0  0  1  0  0  0  0  0999 V2000
  188.9180  176.6290  141.7120 C   0  0  2  0  0  3  0  0  0  0  0  0
  188.1260  178.2570  143.3240 C   0  0  0  0  0  2  0  0  0  0  0  0
  192.6480  175.0880  144.5910 C   0  0  1  0  0  3  0  0  0  0  0  0
  190.8590  175.9170  142.9260 C   0  0  0  0  0  2  0  0  0  0  0  0
  194.4900  175.0070  146.1160 O   0  0  0  0  0  0  0  0  0  0  0  0
  189.4550  176.3110  143.0300 N   0  0  1  0  0  0  0  0  0  0  0  0
  191.6060  176.1640  144.2550 C   0  0  1  0  0  3  0  0  0  0  0  0
  190.6490  176.3890  145.4570 C   0  0  1  0  0  3  0  0  0  0  0  0
  193.3380  175.4550  145.8780 C   0  0  0  0  0  0  0  0  0  0  0  0
  191.4340  176.7820  146.6760 C   0  0  0  0  0  3  0  0  0  0  0  0
  189.3950  177.5670  143.7570 C   0  0  2  0  0  3  0  0  0  0  0  0
  188.0040  177.8460  141.8660 C   0  0  2  0  0  3  0  0  0  0  0  0
  189.5370  177.3360  145.2040 N   0  0  0  0  0  0  0  0  0  0  0  0
  187.4110  176.4570  141.7310 C   0  0  0  0  0  2  0  0  0  0  0  0
  192.6710  176.3170  146.8770 C   0  0  0  0  0  3  0  0  0  0  0  0
  191.8340  171.3650  144.3070 N   0  0  0  0  0  2  0  0  0  0  0  0
  192.0160  173.7820  144.7450 N   0  0  0  0  0  2  0  0  0  0  0  0
  193.6620  172.6150  143.5710 O   0  0  0  0  0  0  0  0  0  0  0  0
  192.5560  172.5890  144.1760 C   0  0  0  0  0  0  0  0  0  0  0  0
  192.3270  170.1170  143.7490 C   0  0  0  0  0  1  0  0  0  0  0  0
  187.9420  178.2970  147.3190 O   0  0  0  0  0  0  0  0  0  0  0  0
  188.3660  176.7070  145.6630 N   0  0  0  0  0  2  0  0  0  0  0  0
  187.6110  177.2170  146.7630 C   0  0  0  0  0  0  0  0  0  0  0  0
  186.4200  176.4620  147.2530 C   0  0  0  0  0  2  0  0  0  0  0  0
  185.1950  176.6220  146.3460 C   0  0  2  0  0  3  0  0  0  0  0  0
  185.5180  176.4570  145.0090 F   0  0  0  0  0  0  0  0  0  0  0  0
  184.5320  178.9020  145.4420 C   0  0  0  0  0  1  0  0  0  0  0  0
  184.3880  177.9050  146.5760 C   0  0  2  0  0  3  0  0  0  0  0  0
  184.7410  178.5010  147.7870 O   0  0  0  0  0  1  0  0  0  0  0  0
  1 14  1  1  0  0  0
  1 12  1  0  0  0  0
  1  6  1  0  0  0  0
  3 17  1  1  0  0  0
  3  9  1  0  0  0  0
  6  4  1  6  0  0  0
  6 11  1  0  0  0  0
  7  4  1  6  0  0  0
  7  3  1  0  0  0  0
  7  8  1  0  0  0  0
  8 10  1  1  0  0  0
  9  5  2  0  0  0  0
  9 15  1  0  0  0  0
 10 15  2  0  0  0  0
 11  2  1  1  0  0  0
 11 13  1  0  0  0  0
 12 14  1  1  0  0  0
 12  2  1  0  0  0  0
 13  8  1  0  0  0  0
 13 22  1  0  0  0  0
 18 19  2  0  0  0  0
 19 16  1  0  0  0  0
 19 17  1  0  0  0  0
 20 16  1  0  0  0  0
 22 23  1  0  0  0  0
 23 24  1  0  0  0  0
 23 21  2  0  0  0  0
 25 26  1  6  0  0  0
 25 28  1  0  0  0  0
 25 24  1  0  0  0  0
 28 27  1  6  0  0  0
 28 29  1  0  0  0  0
M  END
>  <MODEL>
2

>  <REMARK>
 VINA RESULT:      -6.5      2.734      4.579
  Name = 
  5 active torsions:
  status: ('A' for Active; 'I' for Inactive)
    1  A    between atoms: C_5  and  N_19
    2  A    between atoms: C_7  and  C_9
    3  A    between atoms: C_9  and  C_14
    4  A    between atoms: N_11  and  N_26
    5  A    between atoms: C_14  and  C_20
                            x       y       z     vdW  Elec       q    Type
                         _______ _______ _______ _____ _____    ______ ____

>  <TORSDO>
F 5

$$$$
=
 OpenBabel11062422573D

 29 32  0  0  1  0  0  0  0  0999 V2000
  191.0410  177.4100  144.9430 C   0  0  2  0  0  3  0  0  0  0  0  0
  191.8980  175.8100  143.3360 C   0  0  0  0  0  2  0  0  0  0  0  0
  186.8890  178.2760  142.3770 C   0  0  1  0  0  3  0  0  0  0  0  0
  189.0810  178.0510  143.7200 C   0  0  0  0  0  2  0  0  0  0  0  0
  185.3140  178.6590  140.6170 O   0  0  0  0  0  0  0  0  0  0  0  0
  189.9520  176.9380  144.0970 N   0  0  1  0  0  0  0  0  0  0  0  0
  188.3300  177.7490  142.4050 C   0  0  1  0  0  3  0  0  0  0  0  0
  188.3670  176.2460  142.0150 C   0  0  1  0  0  3  0  0  0  0  0  0
  186.2740  177.9630  141.0390 C   0  0  0  0  0  0  0  0  0  0  0  0
  187.7630  176.0500  140.6530 C   0  0  0  0  0  3  0  0  0  0  0  0
  190.6100  176.4580  142.8940 C   0  0  2  0  0  3  0  0  0  0  0  0
  192.3090  176.6620  144.5260 C   0  0  2  0  0  3  0  0  0  0  0  0
  189.7010  175.6070  142.1090 N   0  0  0  0  0  0  0  0  0  0  0  0
  191.5600  176.2560  145.7810 C   0  0  0  0  0  2  0  0  0  0  0  0
  186.7690  176.8340  140.2220 C   0  0  0  0  0  3  0  0  0  0  0  0
  184.8550  177.6850  145.5590 N   0  0  0  0  0  2  0  0  0  0  0  0
  186.0870  177.6540  143.4260 N   0  0  0  0  0  2  0  0  0  0  0  0
  185.7170  179.6340  144.6060 O   0  0  0  0  0  0  0  0  0  0  0  0
  185.5630  178.3840  144.5350 C   0  0  0  0  0  0  0  0  0  0  0  0
  184.3000  178.3690  146.7150 C   0  0  0  0  0  1  0  0  0  0  0  0
  190.0720  173.0470  140.9920 O   0  0  0  0  0  0  0  0  0  0  0  0
  189.5180  174.4020  142.8100 N   0  0  0  0  0  2  0  0  0  0  0  0
  189.6850  173.1280  142.1870 C   0  0  0  0  0  0  0  0  0  0  0  0
  189.4000  171.8850  142.9630 C   0  0  0  0  0  2  0  0  0  0  0  0
  190.2550  171.7590  144.2300 C   0  0  2  0  0  3  0  0  0  0  0  0
  189.7870  172.5700  145.2500 F   0  0  0  0  0  0  0  0  0  0  0  0
  192.5310  170.6390  144.0960 C   0  0  0  0  0  1  0  0  0  0  0  0
  191.7610  171.9430  144.0090 C   0  0  2  0  0  3  0  0  0  0  0  0
  192.2840  172.8710  144.9100 O   0  0  0  0  0  1  0  0  0  0  0  0
  1 14  1  1  0  0  0
  3  7  1  0  0  0  0
  3 17  1  1  0  0  0
  5  9  2  0  0  0  0
  6  4  1  6  0  0  0
  6  1  1  0  0  0  0
  7  4  1  1  0  0  0
  8 10  1  6  0  0  0
  8 13  1  0  0  0  0
  8  7  1  0  0  0  0
  9  3  1  0  0  0  0
 11  2  1  1  0  0  0
 11  6  1  0  0  0  0
 12  2  1  6  0  0  0
 12  1  1  0  0  0  0
 12 14  1  0  0  0  0
 13 22  1  0  0  0  0
 13 11  1  0  0  0  0
 15 10  2  0  0  0  0
 15  9  1  0  0  0  0
 16 20  1  0  0  0  0
 17 19  1  0  0  0  0
 19 18  2  0  0  0  0
 19 16  1  0  0  0  0
 21 23  2  0  0  0  0
 23 22  1  0  0  0  0
 23 24  1  0  0  0  0
 24 25  1  0  0  0  0
 25 26  1  1  0  0  0
 28 27  1  1  0  0  0
 28 25  1  0  0  0  0
 28 29  1  0  0  0  0
M  END
>  <MODEL>
3

>  <REMARK>
 VINA RESULT:      -6.5      2.940      6.917
  Name = 
  5 active torsions:
  status: ('A' for Active; 'I' for Inactive)
    1  A    between atoms: C_5  and  N_19
    2  A    between atoms: C_7  and  C_9
    3  A    between atoms: C_9  and  C_14
    4  A    between atoms: N_11  and  N_26
    5  A    between atoms: C_14  and  C_20
                            x       y       z     vdW  Elec       q    Type
                         _______ _______ _______ _____ _____    ______ ____

>  <TORSDO>
F 5

$$$$
=
 OpenBabel11062422573D

 29 32  0  0  1  0  0  0  0  0999 V2000
  189.7260  173.5520  141.4120 C   0  0  2  0  0  3  0  0  0  0  0  0
  188.7410  175.6760  142.0370 C   0  0  0  0  0  2  0  0  0  0  0  0
  194.0070  174.4670  143.7390 C   0  0  1  0  0  3  0  0  0  0  0  0
  191.9020  173.9400  142.3430 C   0  0  0  0  0  2  0  0  0  0  0  0
  195.9660  175.5290  144.6100 O   0  0  0  0  0  0  0  0  0  0  0  0
  190.4630  174.1200  142.5340 N   0  0  1  0  0  0  0  0  0  0  0  0
  192.7040  175.0010  143.1260 C   0  0  1  0  0  3  0  0  0  0  0  0
  191.8570  175.7320  144.2020 C   0  0  1  0  0  3  0  0  0  0  0  0
  194.7210  175.5940  144.4370 C   0  0  0  0  0  0  0  0  0  0  0  0
  192.6490  176.8550  144.8100 C   0  0  0  0  0  3  0  0  0  0  0  0
  190.1780  175.5420  142.4720 C   0  0  2  0  0  3  0  0  0  0  0  0
  188.5660  174.4960  141.0940 C   0  0  2  0  0  3  0  0  0  0  0  0
  190.5280  176.1980  143.7430 N   0  0  0  0  0  0  0  0  0  0  0  0
  188.3170  173.2100  141.8590 C   0  0  0  0  0  2  0  0  0  0  0  0
  193.9760  176.7670  144.9420 C   0  0  0  0  0  3  0  0  0  0  0  0
  194.1910  171.2340  145.7690 N   0  0  0  0  0  2  0  0  0  0  0  0
  193.7320  173.4080  144.7040 N   0  0  0  0  0  2  0  0  0  0  0  0
  195.6460  172.1680  144.2010 O   0  0  0  0  0  0  0  0  0  0  0  0
  194.5740  172.2640  144.8580 C   0  0  0  0  0  0  0  0  0  0  0  0
  195.0010  170.0440  145.9690 C   0  0  0  0  0  1  0  0  0  0  0  0
  189.3430  177.9140  145.6400 O   0  0  0  0  0  0  0  0  0  0  0  0
  189.6000  175.7850  144.7160 N   0  0  0  0  0  2  0  0  0  0  0  0
  189.0550  176.6880  145.6780 C   0  0  0  0  0  0  0  0  0  0  0  0
  188.1360  176.1720  146.7350 C   0  0  0  0  0  2  0  0  0  0  0  0
  186.6560  176.4150  146.4130 C   0  0  2  0  0  3  0  0  0  0  0  0
  186.4700  176.7720  145.0880 F   0  0  0  0  0  0  0  0  0  0  0  0
  184.6780  177.9700  146.7640 C   0  0  0  0  0  1  0  0  0  0  0  0
  185.9420  177.3820  147.3630 C   0  0  2  0  0  3  0  0  0  0  0  0
  186.8010  178.4040  147.7690 O   0  0  0  0  0  1  0  0  0  0  0  0
  1 14  1  1  0  0  0
  1  6  1  0  0  0  0
  3  9  1  0  0  0  0
  3 17  1  1  0  0  0
  6  4  1  6  0  0  0
  7  4  1  1  0  0  0
  7  3  1  0  0  0  0
  7  8  1  0  0  0  0
  8 10  1  6  0  0  0
  9  5  2  0  0  0  0
  9 15  1  0  0  0  0
 10 15  2  0  0  0  0
 11  2  1  1  0  0  0
 11  6  1  0  0  0  0
 11 13  1  0  0  0  0
 12  1  1  0  0  0  0
 12 14  1  1  0  0  0
 12  2  1  0  0  0  0
 13  8  1  0  0  0  0
 13 22  1  0  0  0  0
 16 20  1  0  0  0  0
 17 19  1  0  0  0  0
 18 19  2  0  0  0  0
 19 16  1  0  0  0  0
 21 23  2  0  0  0  0
 22 23  1  0  0  0  0
 23 24  1  0  0  0  0
 25 26  1  6  0  0  0
 25 24  1  0  0  0  0
 25 28  1  0  0  0  0
 28 27  1  6  0  0  0
 28 29  1  0  0  0  0
M  END
>  <MODEL>
4

>  <REMARK>
 VINA RESULT:      -6.3      2.573      4.436
  Name = 
  5 active torsions:
  status: ('A' for Active; 'I' for Inactive)
    1  A    between atoms: C_5  and  N_19
    2  A    between atoms: C_7  and  C_9
    3  A    between atoms: C_9  and  C_14
    4  A    between atoms: N_11  and  N_26
    5  A    between atoms: C_14  and  C_20
                            x       y       z     vdW  Elec       q    Type
                         _______ _______ _______ _____ _____    ______ ____

>  <TORSDO>
F 5

$$$$
=
 OpenBabel11062422573D

 29 32  0  0  1  0  0  0  0  0999 V2000
  191.5170  175.2720  147.0990 C   0  0  2  0  0  3  0  0  0  0  0  0
  189.1980  175.0080  146.4470 C   0  0  0  0  0  2  0  0  0  0  0  0
  193.2730  173.1980  142.9530 C   0  0  1  0  0  3  0  0  0  0  0  0
  192.4920  174.1330  145.2270 C   0  0  0  0  0  2  0  0  0  0  0  0
  193.5940  171.7820  141.0510 O   0  0  0  0  0  0  0  0  0  0  0  0
  191.4380  175.0500  145.6610 N   0  0  1  0  0  0  0  0  0  0  0  0
  192.1000  173.4130  143.9190 C   0  0  1  0  0  3  0  0  0  0  0  0
  190.9090  174.0890  143.1860 C   0  0  1  0  0  3  0  0  0  0  0  0
  192.7820  172.4540  141.7390 C   0  0  0  0  0  0  0  0  0  0  0  0
  190.4780  173.2500  142.0170 C   0  0  0  0  0  3  0  0  0  0  0  0
  190.1600  174.3860  145.4670 C   0  0  2  0  0  3  0  0  0  0  0  0
  190.0870  175.3120  147.6420 C   0  0  2  0  0  3  0  0  0  0  0  0
  189.7580  174.4380  144.0520 N   0  0  0  0  0  0  0  0  0  0  0  0
  190.8640  176.5990  147.4390 C   0  0  0  0  0  2  0  0  0  0  0  0
  191.3630  172.5180  141.3320 C   0  0  0  0  0  3  0  0  0  0  0  0
  195.5510  176.2460  142.5930 N   0  0  0  0  0  2  0  0  0  0  0  0
  193.8400  174.4740  142.5300 N   0  0  0  0  0  2  0  0  0  0  0  0
  195.8220  174.2310  143.7400 O   0  0  0  0  0  0  0  0  0  0  0  0
  195.1050  174.9500  142.9930 C   0  0  0  0  0  0  0  0  0  0  0  0
  196.8250  176.7890  143.0310 C   0  0  0  0  0  1  0  0  0  0  0  0
  187.4470  175.1940  142.6260 O   0  0  0  0  0  0  0  0  0  0  0  0
  189.4150  175.7670  143.7450 N   0  0  0  0  0  2  0  0  0  0  0  0
  188.2490  176.0950  142.9880 C   0  0  0  0  0  0  0  0  0  0  0  0
  187.9820  177.5190  142.6270 C   0  0  0  0  0  2  0  0  0  0  0  0
  187.2030  178.2750  143.7100 C   0  0  2  0  0  3  0  0  0  0  0  0
  187.2120  177.5990  144.9180 F   0  0  0  0  0  0  0  0  0  0  0  0
  185.1750  179.7030  144.2620 C   0  0  0  0  0  1  0  0  0  0  0  0
  185.7840  178.6930  143.3070 C   0  0  2  0  0  3  0  0  0  0  0  0
  184.9530  177.5780  143.1940 O   0  0  0  0  0  1  0  0  0  0  0  0
  1 14  1  6  0  0  0
  1 12  1  0  0  0  0
  3 17  1  6  0  0  0
  3  7  1  0  0  0  0
  5  9  2  0  0  0  0
  6  4  1  1  0  0  0
  6  1  1  0  0  0  0
  7  4  1  1  0  0  0
  8 10  1  6  0  0  0
  8  7  1  0  0  0  0
  8 13  1  0  0  0  0
  9  3  1  0  0  0  0
 11  6  1  0  0  0  0
 11  2  1  1  0  0  0
 12  2  1  6  0  0  0
 13 11  1  0  0  0  0
 14 12  1  0  0  0  0
 15  9  1  0  0  0  0
 15 10  2  0  0  0  0
 16 19  1  0  0  0  0
 16 20  1  0  0  0  0
 17 19  1  0  0  0  0
 19 18  2  0  0  0  0
 21 23  2  0  0  0  0
 22 13  1  0  0  0  0
 23 22  1  0  0  0  0
 24 23  1  0  0  0  0
 24 25  1  0  0  0  0
 25 26  1  1  0  0  0
 28 25  1  0  0  0  0
 28 27  1  1  0  0  0
 29 28  1  0  0  0  0
M  END
>  <MODEL>
5

>  <REMARK>
 VINA RESULT:      -6.2      1.592      1.689
  Name = 
  5 active torsions:
  status: ('A' for Active; 'I' for Inactive)
    1  A    between atoms: C_5  and  N_19
    2  A    between atoms: C_7  and  C_9
    3  A    between atoms: C_9  and  C_14
    4  A    between atoms: N_11  and  N_26
    5  A    between atoms: C_14  and  C_20
                            x       y       z     vdW  Elec       q    Type
                         _______ _______ _______ _____ _____    ______ ____

>  <TORSDO>
F 5

$$$$
=
 OpenBabel11062422573D

 29 32  0  0  1  0  0  0  0  0999 V2000
  191.2300  172.3750  143.3030 C   0  0  2  0  0  3  0  0  0  0  0  0
  193.0140  172.7800  144.8930 C   0  0  0  0  0  2  0  0  0  0  0  0
  188.4040  176.0700  145.0170 C   0  0  1  0  0  3  0  0  0  0  0  0
  189.6930  174.0110  144.1460 C   0  0  0  0  0  2  0  0  0  0  0  0
  187.2710  177.6250  146.4390 O   0  0  0  0  0  0  0  0  0  0  0  0
  191.0960  173.7180  143.8540 N   0  0  1  0  0  0  0  0  0  0  0  0
  189.5670  175.0930  145.2400 C   0  0  1  0  0  3  0  0  0  0  0  0
  190.8900  175.8690  145.4840 C   0  0  1  0  0  3  0  0  0  0  0  0
  188.3540  177.0470  146.1620 C   0  0  0  0  0  0  0  0  0  0  0  0
  190.7420  176.7860  146.6640 C   0  0  0  0  0  3  0  0  0  0  0  0
  191.8130  173.6640  145.1160 C   0  0  2  0  0  3  0  0  0  0  0  0
  192.4920  171.7520  143.9020 C   0  0  2  0  0  3  0  0  0  0  0  0
  192.0990  175.0210  145.6090 N   0  0  0  0  0  0  0  0  0  0  0  0
  192.5050  172.2940  142.4850 C   0  0  0  0  0  2  0  0  0  0  0  0
  189.5650  177.3530  146.9520 C   0  0  0  0  0  3  0  0  0  0  0  0
  187.8750  177.4980  141.5110 N   0  0  0  0  0  2  0  0  0  0  0  0
  188.5770  176.8080  143.7700 N   0  0  0  0  0  2  0  0  0  0  0  0
  186.4890  176.2320  142.8980 O   0  0  0  0  0  0  0  0  0  0  0  0
  187.5940  176.8150  142.7330 C   0  0  0  0  0  0  0  0  0  0  0  0
  186.9210  177.5400  140.4170 C   0  0  0  0  0  1  0  0  0  0  0  0
  194.5660  176.0400  146.5140 O   0  0  0  0  0  0  0  0  0  0  0  0
  193.0760  175.5920  144.7730 N   0  0  0  0  0  2  0  0  0  0  0  0
  194.2960  176.1260  145.2870 C   0  0  0  0  0  0  0  0  0  0  0  0
  195.2580  176.7900  144.3580 C   0  0  0  0  0  2  0  0  0  0  0  0
  196.1820  175.7970  143.6430 C   0  0  2  0  0  3  0  0  0  0  0  0
  197.0240  175.1480  144.5300 F   0  0  0  0  0  0  0  0  0  0  0  0
  196.0490  176.7910  141.3090 C   0  0  0  0  0  1  0  0  0  0  0  0
  196.9550  176.3790  142.4550 C   0  0  2  0  0  3  0  0  0  0  0  0
  197.9220  175.4800  142.0030 O   0  0  0  0  0  1  0  0  0  0  0  0
  1 14  1  6  0  0  0
  1  6  1  0  0  0  0
  1 12  1  0  0  0  0
  3 17  1  6  0  0  0
  3  7  1  0  0  0  0
  3  9  1  0  0  0  0
  6  4  1  1  0  0  0
  6 11  1  0  0  0  0
  7  4  1  6  0  0  0
  7  8  1  0  0  0  0
  8 13  1  0  0  0  0
  8 10  1  1  0  0  0
  9  5  2  0  0  0  0
  9 15  1  0  0  0  0
 10 15  2  0  0  0  0
 11  2  1  6  0  0  0
 11 13  1  0  0  0  0
 12 14  1  6  0  0  0
 12  2  1  0  0  0  0
 16 19  1  0  0  0  0
 19 18  2  0  0  0  0
 19 17  1  0  0  0  0
 20 16  1  0  0  0  0
 22 23  1  0  0  0  0
 22 13  1  0  0  0  0
 23 21  2  0  0  0  0
 24 23  1  0  0  0  0
 25 24  1  0  0  0  0
 25 26  1  1  0  0  0
 28 27  1  6  0  0  0
 28 25  1  0  0  0  0
 29 28  1  0  0  0  0
M  END
>  <MODEL>
6

>  <REMARK>
 VINA RESULT:      -6.2      3.299      7.500
  Name = 
  5 active torsions:
  status: ('A' for Active; 'I' for Inactive)
    1  A    between atoms: C_5  and  N_19
    2  A    between atoms: C_7  and  C_9
    3  A    between atoms: C_9  and  C_14
    4  A    between atoms: N_11  and  N_26
    5  A    between atoms: C_14  and  C_20
                            x       y       z     vdW  Elec       q    Type
                         _______ _______ _______ _____ _____    ______ ____

>  <TORSDO>
F 5

$$$$
=
 OpenBabel11062422573D

 29 32  0  0  1  0  0  0  0  0999 V2000
  191.0760  177.9310  143.9910 C   0  0  2  0  0  3  0  0  0  0  0  0
  189.6450  176.2910  145.0570 C   0  0  0  0  0  2  0  0  0  0  0  0
  195.1950  175.2430  144.6120 C   0  0  1  0  0  3  0  0  0  0  0  0
  193.1630  176.8170  144.3830 C   0  0  0  0  0  2  0  0  0  0  0  0
  196.8920  173.8160  145.5110 O   0  0  0  0  0  0  0  0  0  0  0  0
  191.7550  176.6420  144.0260 N   0  0  1  0  0  0  0  0  0  0  0  0
  193.7410  175.5310  145.0120 C   0  0  1  0  0  3  0  0  0  0  0  0
  192.8520  174.2820  144.7690 C   0  0  1  0  0  3  0  0  0  0  0  0
  195.6620  173.9960  145.3160 C   0  0  0  0  0  0  0  0  0  0  0  0
  193.3850  173.1080  145.5400 C   0  0  0  0  0  3  0  0  0  0  0  0
  191.1060  175.9210  145.1060 C   0  0  2  0  0  3  0  0  0  0  0  0
  189.6830  177.7380  144.5930 C   0  0  2  0  0  3  0  0  0  0  0  0
  191.4060  174.4820  145.0250 N   0  0  0  0  0  0  0  0  0  0  0  0
  189.8600  177.8320  143.0890 C   0  0  0  0  0  2  0  0  0  0  0  0
  194.6970  172.9700  145.7620 C   0  0  0  0  0  3  0  0  0  0  0  0
  196.4580  175.2870  141.0050 N   0  0  0  0  0  2  0  0  0  0  0  0
  195.3080  175.0460  143.1710 N   0  0  0  0  0  2  0  0  0  0  0  0
  197.4670  175.9190  143.0120 O   0  0  0  0  0  0  0  0  0  0  0  0
  196.4590  175.4430  142.4240 C   0  0  0  0  0  0  0  0  0  0  0  0
  197.5950  175.6740  140.1880 C   0  0  0  0  0  1  0  0  0  0  0  0
  189.7180  172.2270  145.1090 O   0  0  0  0  0  0  0  0  0  0  0  0
  190.7260  173.9580  143.9100 N   0  0  0  0  0  2  0  0  0  0  0  0
  189.9090  172.7900  144.0000 C   0  0  0  0  0  0  0  0  0  0  0  0
  189.2770  172.2370  142.7650 C   0  0  0  0  0  2  0  0  0  0  0  0
  188.2110  173.1660  142.1710 C   0  0  2  0  0  3  0  0  0  0  0  0
  187.0030  172.5140  141.9910 F   0  0  0  0  0  0  0  0  0  0  0  0
  188.1860  175.3590  140.8890 C   0  0  0  0  0  1  0  0  0  0  0  0
  188.6440  173.9120  140.9040 C   0  0  2  0  0  3  0  0  0  0  0  0
  188.1890  173.2530  139.7610 O   0  0  0  0  0  1  0  0  0  0  0  0
  1 14  1  6  0  0  0
  1  6  1  0  0  0  0
  1 12  1  0  0  0  0
  3 17  1  6  0  0  0
  3  7  1  0  0  0  0
  3  9  1  0  0  0  0
  6  4  1  1  0  0  0
  6 11  1  0  0  0  0
  7  4  1  6  0  0  0
  8  7  1  0  0  0  0
  8 13  1  0  0  0  0
  8 10  1  1  0  0  0
  9  5  2  0  0  0  0
  9 15  1  0  0  0  0
 10 15  2  0  0  0  0
 11  2  1  6  0  0  0
 12 14  1  6  0  0  0
 12  2  1  0  0  0  0
 13 11  1  0  0  0  0
 16 19  1  0  0  0  0
 19 18  2  0  0  0  0
 19 17  1  0  0  0  0
 20 16  1  0  0  0  0
 22 23  1  0  0  0  0
 22 13  1  0  0  0  0
 23 21  2  0  0  0  0
 24 23  1  0  0  0  0
 25 26  1  6  0  0  0
 25 24  1  0  0  0  0
 28 27  1  1  0  0  0
 28 25  1  0  0  0  0
 29 28  1  0  0  0  0
M  END
>  <MODEL>
7

>  <REMARK>
 VINA RESULT:      -6.2      3.399      4.970
  Name = 
  5 active torsions:
  status: ('A' for Active; 'I' for Inactive)
    1  A    between atoms: C_5  and  N_19
    2  A    between atoms: C_7  and  C_9
    3  A    between atoms: C_9  and  C_14
    4  A    between atoms: N_11  and  N_26
    5  A    between atoms: C_14  and  C_20
                            x       y       z     vdW  Elec       q    Type
                         _______ _______ _______ _____ _____    ______ ____

>  <TORSDO>
F 5

$$$$
=
 OpenBabel11062422573D

 29 32  0  0  1  0  0  0  0  0999 V2000
  194.5010  175.6650  145.1180 C   0  0  2  0  0  3  0  0  0  0  0  0
  192.8120  175.9630  146.8290 C   0  0  0  0  0  2  0  0  0  0  0  0
  191.8640  172.2900  142.6220 C   0  0  1  0  0  3  0  0  0  0  0  0
  193.4110  173.9000  143.9160 C   0  0  0  0  0  2  0  0  0  0  0  0
  190.4410  170.4550  142.0450 O   0  0  0  0  0  0  0  0  0  0  0  0
  193.2230  175.1610  144.6330 N   0  0  1  0  0  0  0  0  0  0  0  0
  192.1180  173.0550  143.9280 C   0  0  1  0  0  3  0  0  0  0  0  0
  190.8620  173.8720  144.3340 C   0  0  1  0  0  3  0  0  0  0  0  0
  190.6070  171.4730  142.7650 C   0  0  0  0  0  0  0  0  0  0  0  0
  189.6770  172.9600  144.4820 C   0  0  0  0  0  3  0  0  0  0  0  0
  192.4630  174.8810  145.8390 C   0  0  2  0  0  3  0  0  0  0  0  0
  194.2710  176.2480  146.5130 C   0  0  2  0  0  3  0  0  0  0  0  0
  191.0320  174.7320  145.5290 N   0  0  0  0  0  0  0  0  0  0  0  0
  194.4070  177.1660  145.3130 C   0  0  0  0  0  2  0  0  0  0  0  0
  189.5540  171.8640  143.7260 C   0  0  0  0  0  3  0  0  0  0  0  0
  192.0610  173.9110  139.1660 N   0  0  0  0  0  2  0  0  0  0  0  0
  191.7070  173.2120  141.5020 N   0  0  0  0  0  2  0  0  0  0  0  0
  192.7040  171.8020  139.9310 O   0  0  0  0  0  0  0  0  0  0  0  0
  192.1850  172.9220  140.1870 C   0  0  0  0  0  0  0  0  0  0  0  0
  192.5300  173.6800  137.8100 C   0  0  0  0  0  1  0  0  0  0  0  0
  188.5540  175.7450  146.4080 O   0  0  0  0  0  0  0  0  0  0  0  0
  190.5270  175.9980  145.1850 N   0  0  0  0  0  2  0  0  0  0  0  0
  189.2470  176.4510  145.6290 C   0  0  0  0  0  0  0  0  0  0  0  0
  188.7320  177.7740  145.1660 C   0  0  0  0  0  2  0  0  0  0  0  0
  187.2720  177.7190  144.7010 C   0  0  2  0  0  3  0  0  0  0  0  0
  187.1100  178.2820  143.4470 F   0  0  0  0  0  0  0  0  0  0  0  0
  185.2320  177.2420  146.1390 C   0  0  0  0  0  1  0  0  0  0  0  0
  186.2570  178.2750  145.7060 C   0  0  2  0  0  3  0  0  0  0  0  0
  185.6140  179.4000  145.1890 O   0  0  0  0  0  1  0  0  0  0  0  0
  1 14  1  6  0  0  0
  1 12  1  0  0  0  0
  3 17  1  6  0  0  0
  3  9  1  0  0  0  0
  3  7  1  0  0  0  0
  5  9  2  0  0  0  0
  6  4  1  1  0  0  0
  6  1  1  0  0  0  0
  6 11  1  0  0  0  0
  7  4  1  6  0  0  0
  7  8  1  0  0  0  0
  8 10  1  1  0  0  0
  8 13  1  0  0  0  0
  9 15  1  0  0  0  0
 11  2  1  1  0  0  0
 12 14  1  6  0  0  0
 12  2  1  0  0  0  0
 13 11  1  0  0  0  0
 15 10  2  0  0  0  0
 16 19  1  0  0  0  0
 18 19  2  0  0  0  0
 19 17  1  0  0  0  0
 20 16  1  0  0  0  0
 22 13  1  0  0  0  0
 22 23  1  0  0  0  0
 23 21  2  0  0  0  0
 24 23  1  0  0  0  0
 25 26  1  6  0  0  0
 25 24  1  0  0  0  0
 25 28  1  0  0  0  0
 28 27  1  6  0  0  0
 29 28  1  0  0  0  0
M  END
>  <MODEL>
8

>  <REMARK>
 VINA RESULT:      -6.1      2.168      2.942
  Name = 
  5 active torsions:
  status: ('A' for Active; 'I' for Inactive)
    1  A    between atoms: C_5  and  N_19
    2  A    between atoms: C_7  and  C_9
    3  A    between atoms: C_9  and  C_14
    4  A    between atoms: N_11  and  N_26
    5  A    between atoms: C_14  and  C_20
                            x       y       z     vdW  Elec       q    Type
                         _______ _______ _______ _____ _____    ______ ____

>  <TORSDO>
F 5

$$$$
=
 OpenBabel11062422573D

 29 32  0  0  1  0  0  0  0  0999 V2000
  193.1740  177.1550  145.0880 C   0  0  2  0  0  3  0  0  0  0  0  0
  193.8950  175.4390  143.5360 C   0  0  0  0  0  2  0  0  0  0  0  0
  188.5310  177.2500  143.3530 C   0  0  1  0  0  3  0  0  0  0  0  0
  190.9510  177.4270  144.2300 C   0  0  0  0  0  2  0  0  0  0  0  0
  186.6120  177.2300  141.9230 O   0  0  0  0  0  0  0  0  0  0  0  0
  192.0090  176.4670  144.5460 N   0  0  1  0  0  0  0  0  0  0  0  0
  190.0040  176.8740  143.1430 C   0  0  1  0  0  3  0  0  0  0  0  0
  190.1500  175.3430  142.9310 C   0  0  1  0  0  3  0  0  0  0  0  0
  187.7130  176.6960  142.2160 C   0  0  0  0  0  0  0  0  0  0  0  0
  189.3240  174.9020  141.7560 C   0  0  0  0  0  3  0  0  0  0  0  0
  192.4770  175.8910  143.2980 C   0  0  2  0  0  3  0  0  0  0  0  0
  194.4200  176.4830  144.5080 C   0  0  2  0  0  3  0  0  0  0  0  0
  191.5450  174.8550  142.8210 N   0  0  0  0  0  0  0  0  0  0  0  0
  193.9820  176.1850  145.9290 C   0  0  0  0  0  2  0  0  0  0  0  0
  188.1770  175.5190  141.4520 C   0  0  0  0  0  3  0  0  0  0  0  0
  186.7620  176.8520  146.7180 N   0  0  0  0  0  2  0  0  0  0  0  0
  188.0280  176.7040  144.6090 N   0  0  0  0  0  2  0  0  0  0  0  0
  186.7000  178.5540  145.1230 O   0  0  0  0  0  0  0  0  0  0  0  0
  187.1440  177.4260  145.4680 C   0  0  0  0  0  0  0  0  0  0  0  0
  185.8690  177.5350  147.6370 C   0  0  0  0  0  1  0  0  0  0  0  0
  192.2270  172.2530  141.9820 O   0  0  0  0  0  0  0  0  0  0  0  0
  191.6500  173.7470  143.6810 N   0  0  0  0  0  2  0  0  0  0  0  0
  191.9650  172.4400  143.1990 C   0  0  0  0  0  0  0  0  0  0  0  0
  191.9840  171.2890  144.1500 C   0  0  0  0  0  2  0  0  0  0  0  0
  193.3750  170.6610  144.3020 C   0  0  2  0  0  3  0  0  0  0  0  0
  193.3170  169.2780  144.3040 F   0  0  0  0  0  0  0  0  0  0  0  0
  195.1730  172.2800  145.0770 C   0  0  0  0  0  1  0  0  0  0  0  0
  194.1940  171.1930  145.4830 C   0  0  2  0  0  3  0  0  0  0  0  0
  194.8690  170.1550  146.1260 O   0  0  0  0  0  1  0  0  0  0  0  0
  1 14  1  1  0  0  0
  3 17  1  1  0  0  0
  5  9  2  0  0  0  0
  6  4  1  6  0  0  0
  6  1  1  0  0  0  0
  7  3  1  0  0  0  0
  7  4  1  1  0  0  0
  8 10  1  6  0  0  0
  8  7  1  0  0  0  0
  9  3  1  0  0  0  0
 11  2  1  1  0  0  0
 11  6  1  0  0  0  0
 12  2  1  6  0  0  0
 12  1  1  0  0  0  0
 12 14  1  0  0  0  0
 13  8  1  0  0  0  0
 13 11  1  0  0  0  0
 13 22  1  0  0  0  0
 15 10  2  0  0  0  0
 15  9  1  0  0  0  0
 16 20  1  0  0  0  0
 17 19  1  0  0  0  0
 18 19  2  0  0  0  0
 19 16  1  0  0  0  0
 21 23  2  0  0  0  0
 23 22  1  0  0  0  0
 23 24  1  0  0  0  0
 24 25  1  0  0  0  0
 25 26  1  1  0  0  0
 25 28  1  0  0  0  0
 28 27  1  6  0  0  0
 28 29  1  0  0  0  0
M  END
>  <MODEL>
9

>  <REMARK>
 VINA RESULT:      -5.8      3.532      7.326
  Name = 
  5 active torsions:
  status: ('A' for Active; 'I' for Inactive)
    1  A    between atoms: C_5  and  N_19
    2  A    between atoms: C_7  and  C_9
    3  A    between atoms: C_9  and  C_14
    4  A    between atoms: N_11  and  N_26
    5  A    between atoms: C_14  and  C_20
                            x       y       z     vdW  Elec       q    Type
                         _______ _______ _______ _____ _____    ______ ____

>  <TORSDO>
F 5

$$$$
