=
 OpenBabel11072408493D

 26 28  0  0  1  0  0  0  0  0999 V2000
  190.6080  174.2620  144.7810 C   0  0  0  0  0  0  0  0  0  0  0  0
  188.6130  177.0960  143.4040 C   0  0  0  0  0  0  0  0  0  0  0  0
  189.1740  176.3140  144.5380 C   0  0  0  0  0  0  0  0  0  0  0  0
  191.7460  173.5040  144.3710 N   0  0  0  0  0  1  0  0  0  0  0  0
  187.2860  177.9510  147.2720 C   0  0  0  0  0  2  0  0  0  0  0  0
  190.4290  175.5160  144.3180 C   0  0  0  0  0  0  0  0  0  0  0  0
  186.8250  178.1040  144.8050 C   0  0  1  0  0  3  0  0  0  0  0  0
  185.3070  178.0510  144.9840 C   0  0  0  0  0  2  0  0  0  0  0  0
  188.8290  175.5680  146.9080 C   0  0  0  0  0  3  0  0  0  0  0  0
  188.5360  176.4200  145.7330 C   0  0  0  0  0  0  0  0  0  0  0  0
  184.7890  178.3830  147.4470 C   0  0  0  0  0  2  0  0  0  0  0  0
  189.3000  177.3500  142.3790 O   0  0  0  0  0  0  0  0  0  0  0  0
  189.7290  173.6600  145.7230 N   0  0  0  0  0  2  0  0  0  0  0  0
  187.5150  177.4330  145.9220 N   0  0  0  0  0  0  0  0  0  0  0  0
  185.9510  177.4480  147.7970 C   0  0  0  0  0  2  0  0  0  0  0  0
  189.3080  174.3320  146.9030 C   0  0  0  0  0  3  0  0  0  0  0  0
  187.1710  177.4960  143.4530 C   0  0  1  0  0  3  0  0  0  0  0  0
  184.8690  179.0300  146.0620 C   0  0  0  0  0  2  0  0  0  0  0  0
  186.7250  178.6650  142.1170 S   0  0  0  0  0  0  0  0  0  0  0  0
  185.5210  177.5180  141.3800 C   0  0  0  0  0  2  0  0  0  0  0  0
  184.1830  178.1650  141.2930 C   0  0  0  0  0  0  0  0  0  0  0  0
  183.8040  178.6860  140.2130 O   0  0  0  0  0  0  0  0  0  0  0  0
  183.3670  178.2260  142.4150 O   0  0  0  0  0  1  0  0  0  0  0  0
  191.5270  176.1340  143.4910 C   0  0  0  0  0  2  0  0  0  0  0  0
  192.2160  177.2660  144.2380 C   0  0  0  0  0  2  0  0  0  0  0  0
  193.3340  176.7020  145.0870 C   0  0  0  0  0  1  0  0  0  0  0  0
  1 13  1  0  0  0  0
  2 17  1  0  0  0  0
  2  3  1  0  0  0  0
  3 10  2  0  0  0  0
  4  1  1  0  0  0  0
  5 15  1  0  0  0  0
  6  3  1  0  0  0  0
  6  1  2  0  0  0  0
  7  8  1  1  0  0  0
  7 14  1  0  0  0  0
  8 18  1  0  0  0  0
 10 14  1  0  0  0  0
 10  9  1  0  0  0  0
 11 15  1  0  0  0  0
 12  2  2  0  0  0  0
 13 16  1  0  0  0  0
 14  5  1  0  0  0  0
 16  9  2  0  0  0  0
 17 19  1  6  0  0  0
 17  7  1  0  0  0  0
 18 11  1  0  0  0  0
 20 19  1  0  0  0  0
 21 20  1  0  0  0  0
 21 23  1  0  0  0  0
 22 21  2  0  0  0  0
 24 25  1  0  0  0  0
 24  6  1  0  0  0  0
 25 26  1  0  0  0  0
M  END
>  <MODEL>
1

>  <REMARK>
 VINA RESULT:      -7.1      0.000      0.000
  Name = 
  5 active torsions:
  status: ('A' for Active; 'I' for Inactive)
    1  A    between atoms: C_3  and  C_11
    2  A    between atoms: C_5  and  C_22
    3  A    between atoms: C_8  and  C_22
    4  A    between atoms: C_11  and  S_14
    5  A    between atoms: S_14  and  C_24
                            x       y       z     vdW  Elec       q    Type
                         _______ _______ _______ _____ _____    ______ ____

>  <TORSDO>
F 5

$$$$
=
 OpenBabel11072408493D

 26 28  0  0  1  0  0  0  0  0999 V2000
  191.2980  176.7420  145.2300 C   0  0  0  0  0  0  0  0  0  0  0  0
  187.5900  176.5560  145.5820 C   0  0  0  0  0  0  0  0  0  0  0  0
  188.8340  176.5170  144.7690 C   0  0  0  0  0  0  0  0  0  0  0  0
  192.4300  176.4210  146.0380 N   0  0  0  0  0  1  0  0  0  0  0  0
  187.2620  176.5770  141.4170 C   0  0  0  0  0  2  0  0  0  0  0  0
  190.1220  176.1140  145.4340 C   0  0  2  0  0  3  0  0  0  0  0  0
  186.1640  177.0950  143.6190 C   0  0  1  0  0  3  0  0  0  0  0  0
  185.3430  178.2540  143.0500 C   0  0  0  0  0  2  0  0  0  0  0  0
  189.8630  177.0010  142.5330 C   0  0  0  0  0  3  0  0  0  0  0  0
  188.7150  176.7980  143.4450 C   0  0  0  0  0  0  0  0  0  0  0  0
  185.4890  178.1590  140.5170 C   0  0  0  0  0  2  0  0  0  0  0  0
  187.5200  175.9870  146.7030 O   0  0  0  0  0  0  0  0  0  0  0  0
  191.4880  177.6910  144.1870 N   0  0  0  0  0  0  0  0  0  0  0  0
  187.3990  176.8890  142.8410 N   0  0  0  0  0  0  0  0  0  0  0  0
  186.9840  177.8520  140.6350 C   0  0  0  0  0  2  0  0  0  0  0  0
  191.0720  177.4430  142.8510 C   0  0  0  0  0  3  0  0  0  0  0  0
  186.4380  177.3780  145.0900 C   0  0  1  0  0  3  0  0  0  0  0  0
  184.6570  177.8300  141.7610 C   0  0  0  0  0  2  0  0  0  0  0  0
  184.9160  177.1010  146.0670 S   0  0  0  0  0  0  0  0  0  0  0  0
  184.8340  178.8340  146.6140 C   0  0  0  0  0  2  0  0  0  0  0  0
  185.7640  179.0570  147.7560 C   0  0  0  0  0  0  0  0  0  0  0  0
  186.2400  180.2020  147.9670 O   0  0  0  0  0  0  0  0  0  0  0  0
  186.1350  177.9920  148.5660 O   0  0  0  0  0  1  0  0  0  0  0  0
  190.0840  174.9770  146.4230 C   0  0  0  0  0  2  0  0  0  0  0  0
  189.7490  173.6580  145.7410 C   0  0  0  0  0  2  0  0  0  0  0  0
  190.8660  173.2850  144.7910 C   0  0  0  0  0  1  0  0  0  0  0  0
  1  6  1  0  0  0  0
  1  4  1  0  0  0  0
  2 12  2  0  0  0  0
  3  6  1  0  0  0  0
  3  2  1  0  0  0  0
  5 14  1  0  0  0  0
  6 24  1  1  0  0  0
  7  8  1  6  0  0  0
  7 17  1  0  0  0  0
  9 16  2  0  0  0  0
  9 10  1  0  0  0  0
 10  3  2  0  0  0  0
 11 15  1  0  0  0  0
 11 18  1  0  0  0  0
 13  1  2  0  0  0  0
 14 10  1  0  0  0  0
 14  7  1  0  0  0  0
 15  5  1  0  0  0  0
 16 13  1  0  0  0  0
 17  2  1  0  0  0  0
 17 19  1  1  0  0  0
 18  8  1  0  0  0  0
 19 20  1  0  0  0  0
 20 21  1  0  0  0  0
 21 22  2  0  0  0  0
 21 23  1  0  0  0  0
 25 24  1  0  0  0  0
 26 25  1  0  0  0  0
M  END
>  <MODEL>
2

>  <REMARK>
 VINA RESULT:      -6.7      2.871      4.670
  Name = 
  5 active torsions:
  status: ('A' for Active; 'I' for Inactive)
    1  A    between atoms: C_3  and  C_11
    2  A    between atoms: C_5  and  C_22
    3  A    between atoms: C_8  and  C_22
    4  A    between atoms: C_11  and  S_14
    5  A    between atoms: S_14  and  C_24
                            x       y       z     vdW  Elec       q    Type
                         _______ _______ _______ _____ _____    ______ ____

>  <TORSDO>
F 5

$$$$
=
 OpenBabel11072408493D

 26 28  0  0  1  0  0  0  0  0999 V2000
  186.6940  177.2330  140.4380 C   0  0  0  0  0  0  0  0  0  0  0  0
  188.5770  176.8340  143.6320 C   0  0  0  0  0  0  0  0  0  0  0  0
  187.3120  176.8940  142.8540 C   0  0  0  0  0  0  0  0  0  0  0  0
  186.9240  176.9420  139.0600 N   0  0  0  0  0  1  0  0  0  0  0  0
  184.9550  177.0020  145.7090 C   0  0  0  0  0  2  0  0  0  0  0  0
  187.3410  176.5350  141.3940 C   0  0  2  0  0  3  0  0  0  0  0  0
  187.4410  177.3730  145.7770 C   0  0  1  0  0  3  0  0  0  0  0  0
  187.3450  178.5070  146.7980 C   0  0  0  0  0  2  0  0  0  0  0  0
  184.8830  177.5210  142.8950 C   0  0  0  0  0  3  0  0  0  0  0  0
  186.1830  177.2200  143.5360 C   0  0  0  0  0  0  0  0  0  0  0  0
  184.9890  178.5200  147.7460 C   0  0  0  0  0  2  0  0  0  0  0  0
  189.5860  176.2180  143.1990 O   0  0  0  0  0  0  0  0  0  0  0  0
  185.7270  178.2320  140.7420 N   0  0  0  0  0  0  0  0  0  0  0  0
  186.2020  177.2640  144.9860 N   0  0  0  0  0  0  0  0  0  0  0  0
  184.4420  178.2900  146.3340 C   0  0  0  0  0  2  0  0  0  0  0  0
  184.6820  178.0140  141.6810 C   0  0  0  0  0  3  0  0  0  0  0  0
  188.6700  177.6110  144.9100 C   0  0  1  0  0  3  0  0  0  0  0  0
  186.4470  178.0980  147.9550 C   0  0  0  0  0  2  0  0  0  0  0  0
  190.1840  177.2150  145.8590 S   0  0  0  0  0  0  0  0  0  0  0  0
  189.4910  175.6610  146.5030 C   0  0  0  0  0  2  0  0  0  0  0  0
  190.2900  174.5020  146.0160 C   0  0  0  0  0  0  0  0  0  0  0  0
  191.5470  174.5560  146.0250 O   0  0  0  0  0  1  0  0  0  0  0  0
  189.6490  173.3770  145.5180 O   0  0  0  0  0  0  0  0  0  0  0  0
  188.1840  175.3590  140.9700 C   0  0  0  0  0  2  0  0  0  0  0  0
  187.6500  174.0560  141.5460 C   0  0  0  0  0  2  0  0  0  0  0  0
  188.7990  173.0960  141.7680 C   0  0  0  0  0  1  0  0  0  0  0  0
  1 13  2  0  0  0  0
  1  6  1  0  0  0  0
  2 17  1  0  0  0  0
  3 10  2  0  0  0  0
  3  2  1  0  0  0  0
  4  1  1  0  0  0  0
  5 15  1  0  0  0  0
  6 24  1  6  0  0  0
  6  3  1  0  0  0  0
  7  8  1  1  0  0  0
  8 18  1  0  0  0  0
  9 10  1  0  0  0  0
 10 14  1  0  0  0  0
 11 18  1  0  0  0  0
 12  2  2  0  0  0  0
 13 16  1  0  0  0  0
 14  5  1  0  0  0  0
 14  7  1  0  0  0  0
 15 11  1  0  0  0  0
 16  9  2  0  0  0  0
 17  7  1  0  0  0  0
 17 19  1  1  0  0  0
 19 20  1  0  0  0  0
 21 22  1  0  0  0  0
 21 20  1  0  0  0  0
 23 21  2  0  0  0  0
 24 25  1  0  0  0  0
 25 26  1  0  0  0  0
M  END
>  <MODEL>
3

>  <REMARK>
 VINA RESULT:      -6.3      3.118      5.453
  Name = 
  5 active torsions:
  status: ('A' for Active; 'I' for Inactive)
    1  A    between atoms: C_3  and  C_11
    2  A    between atoms: C_5  and  C_22
    3  A    between atoms: C_8  and  C_22
    4  A    between atoms: C_11  and  S_14
    5  A    between atoms: S_14  and  C_24
                            x       y       z     vdW  Elec       q    Type
                         _______ _______ _______ _____ _____    ______ ____

>  <TORSDO>
F 5

$$$$
=
 OpenBabel11072408493D

 26 28  0  0  1  0  0  0  0  0999 V2000
  185.9180  178.9250  144.6460 C   0  0  0  0  0  0  0  0  0  0  0  0
  189.3430  177.9420  143.5460 C   0  0  0  0  0  0  0  0  0  0  0  0
  188.1030  177.7180  144.3360 C   0  0  0  0  0  0  0  0  0  0  0  0
  184.8120  179.6280  144.0790 N   0  0  0  0  0  1  0  0  0  0  0  0
  189.3300  174.9240  146.4350 C   0  0  0  0  0  2  0  0  0  0  0  0
  186.8130  178.3120  143.8440 C   0  0  0  0  0  0  0  0  0  0  0  0
  190.7090  176.4790  145.0190 C   0  0  1  0  0  3  0  0  0  0  0  0
  191.8350  176.5780  146.0490 C   0  0  0  0  0  2  0  0  0  0  0  0
  187.1360  176.7620  146.4440 C   0  0  0  0  0  3  0  0  0  0  0  0
  188.2090  176.9300  145.4380 C   0  0  0  0  0  0  0  0  0  0  0  0
  191.4670  174.7760  147.8000 C   0  0  0  0  0  2  0  0  0  0  0  0
  189.2980  178.3450  142.3540 O   0  0  0  0  0  0  0  0  0  0  0  0
  185.9900  178.8590  146.0650 N   0  0  0  0  0  2  0  0  0  0  0  0
  189.4220  176.1680  145.6690 N   0  0  0  0  0  0  0  0  0  0  0  0
  189.9720  175.1100  147.8000 C   0  0  0  0  0  2  0  0  0  0  0  0
  186.1870  177.6330  146.7570 C   0  0  0  0  0  3  0  0  0  0  0  0
  190.6670  177.7790  144.2280 C   0  0  1  0  0  3  0  0  0  0  0  0
  192.2260  175.1910  146.5360 C   0  0  0  0  0  2  0  0  0  0  0  0
  192.0680  177.8330  143.0520 S   0  0  0  0  0  0  0  0  0  0  0  0
  191.9060  176.0720  142.6250 C   0  0  0  0  0  2  0  0  0  0  0  0
  193.2400  175.4120  142.6550 C   0  0  0  0  0  0  0  0  0  0  0  0
  193.4410  174.3660  141.9850 O   0  0  0  0  0  0  0  0  0  0  0  0
  194.2530  175.9300  143.4500 O   0  0  0  0  0  1  0  0  0  0  0  0
  186.5290  178.2650  142.3640 C   0  0  0  0  0  2  0  0  0  0  0  0
  186.2890  176.8400  141.8890 C   0  0  0  0  0  2  0  0  0  0  0  0
  187.0950  176.5870  140.6320 C   0  0  0  0  0  1  0  0  0  0  0  0
  1 13  1  0  0  0  0
  2 17  1  0  0  0  0
  2  3  1  0  0  0  0
  3 10  2  0  0  0  0
  4  1  1  0  0  0  0
  5 15  1  0  0  0  0
  6  3  1  0  0  0  0
  6  1  2  0  0  0  0
  7 14  1  0  0  0  0
  7  8  1  1  0  0  0
  8 18  1  0  0  0  0
  9 16  2  0  0  0  0
 10 14  1  0  0  0  0
 10  9  1  0  0  0  0
 11 15  1  0  0  0  0
 12  2  2  0  0  0  0
 13 16  1  0  0  0  0
 14  5  1  0  0  0  0
 17 19  1  6  0  0  0
 17  7  1  0  0  0  0
 18 11  1  0  0  0  0
 20 21  1  0  0  0  0
 20 19  1  0  0  0  0
 21 23  1  0  0  0  0
 22 21  2  0  0  0  0
 24  6  1  0  0  0  0
 25 24  1  0  0  0  0
 26 25  1  0  0  0  0
M  END
>  <MODEL>
4

>  <REMARK>
 VINA RESULT:      -6.1      2.514      6.211
  Name = 
  5 active torsions:
  status: ('A' for Active; 'I' for Inactive)
    1  A    between atoms: C_3  and  C_11
    2  A    between atoms: C_5  and  C_22
    3  A    between atoms: C_8  and  C_22
    4  A    between atoms: C_11  and  S_14
    5  A    between atoms: S_14  and  C_24
                            x       y       z     vdW  Elec       q    Type
                         _______ _______ _______ _____ _____    ______ ____

>  <TORSDO>
F 5

$$$$
=
 OpenBabel11072408493D

 26 28  0  0  1  0  0  0  0  0999 V2000
  187.8210  176.8990  141.4820 C   0  0  0  0  0  0  0  0  0  0  0  0
  190.9160  175.2430  142.7390 C   0  0  0  0  0  0  0  0  0  0  0  0
  189.5750  175.8490  142.9480 C   0  0  0  0  0  0  0  0  0  0  0  0
  187.0530  176.8770  140.2790 N   0  0  0  0  0  1  0  0  0  0  0  0
  189.6460  175.9900  146.6490 C   0  0  0  0  0  2  0  0  0  0  0  0
  188.5900  175.8420  141.8120 C   0  0  0  0  0  0  0  0  0  0  0  0
  191.5910  175.5860  145.1070 C   0  0  1  0  0  3  0  0  0  0  0  0
  192.5550  176.4320  145.9390 C   0  0  0  0  0  2  0  0  0  0  0  0
  188.1080  177.1370  144.5250 C   0  0  0  0  0  3  0  0  0  0  0  0
  189.3030  176.3280  144.1900 C   0  0  0  0  0  0  0  0  0  0  0  0
  191.4520  176.9220  148.1730 C   0  0  0  0  0  2  0  0  0  0  0  0
  191.1450  174.4730  141.7690 O   0  0  0  0  0  0  0  0  0  0  0  0
  187.6880  178.0410  142.3200 N   0  0  0  0  0  2  0  0  0  0  0  0
  190.1980  176.0310  145.2930 N   0  0  0  0  0  0  0  0  0  0  0  0
  190.1350  177.1930  147.4400 C   0  0  0  0  0  2  0  0  0  0  0  0
  187.4250  177.9320  143.7130 C   0  0  0  0  0  3  0  0  0  0  0  0
  192.0350  175.6430  143.6510 C   0  0  1  0  0  3  0  0  0  0  0  0
  192.4550  176.0530  147.4080 C   0  0  0  0  0  2  0  0  0  0  0  0
  193.5290  174.6120  143.4190 S   0  0  0  0  0  0  0  0  0  0  0  0
  194.5280  176.0170  142.8400 C   0  0  0  0  0  2  0  0  0  0  0  0
  195.7320  176.1800  143.7010 C   0  0  0  0  0  0  0  0  0  0  0  0
  195.8150  175.5590  144.7920 O   0  0  0  0  0  1  0  0  0  0  0  0
  196.7470  177.0460  143.3190 O   0  0  0  0  0  0  0  0  0  0  0  0
  188.4970  174.6000  140.9630 C   0  0  0  0  0  2  0  0  0  0  0  0
  187.6970  173.5090  141.6590 C   0  0  0  0  0  2  0  0  0  0  0  0
  188.6240  172.3810  142.0580 C   0  0  0  0  0  1  0  0  0  0  0  0
  1  6  2  0  0  0  0
  1 13  1  0  0  0  0
  2  3  1  0  0  0  0
  2 17  1  0  0  0  0
  3 10  2  0  0  0  0
  4  1  1  0  0  0  0
  5 15  1  0  0  0  0
  6  3  1  0  0  0  0
  7 14  1  0  0  0  0
  7  8  1  1  0  0  0
  8 18  1  0  0  0  0
 10  9  1  0  0  0  0
 10 14  1  0  0  0  0
 12  2  2  0  0  0  0
 13 16  1  0  0  0  0
 14  5  1  0  0  0  0
 15 11  1  0  0  0  0
 16  9  2  0  0  0  0
 17 19  1  1  0  0  0
 17  7  1  0  0  0  0
 18 11  1  0  0  0  0
 20 19  1  0  0  0  0
 20 21  1  0  0  0  0
 21 22  1  0  0  0  0
 23 21  2  0  0  0  0
 24 25  1  0  0  0  0
 24  6  1  0  0  0  0
 25 26  1  0  0  0  0
M  END
>  <MODEL>
5

>  <REMARK>
 VINA RESULT:      -6.0      3.696      6.811
  Name = 
  5 active torsions:
  status: ('A' for Active; 'I' for Inactive)
    1  A    between atoms: C_3  and  C_11
    2  A    between atoms: C_5  and  C_22
    3  A    between atoms: C_8  and  C_22
    4  A    between atoms: C_11  and  S_14
    5  A    between atoms: S_14  and  C_24
                            x       y       z     vdW  Elec       q    Type
                         _______ _______ _______ _____ _____    ______ ____

>  <TORSDO>
F 5

$$$$
=
 OpenBabel11072408493D

 26 28  0  0  1  0  0  0  0  0999 V2000
  193.2960  176.4500  144.4640 C   0  0  0  0  0  0  0  0  0  0  0  0
  189.6740  176.1540  143.6270 C   0  0  0  0  0  0  0  0  0  0  0  0
  191.0520  175.6030  143.7020 C   0  0  0  0  0  0  0  0  0  0  0  0
  194.0800  177.1550  145.4260 N   0  0  0  0  0  1  0  0  0  0  0  0
  190.4740  172.5060  141.7560 C   0  0  0  0  0  2  0  0  0  0  0  0
  192.0030  176.1650  144.7230 C   0  0  2  0  0  3  0  0  0  0  0  0
  188.9650  174.5120  141.9020 C   0  0  1  0  0  3  0  0  0  0  0  0
  188.5850  174.4590  140.4210 C   0  0  0  0  0  2  0  0  0  0  0  0
  192.7150  174.0360  142.6660 C   0  0  0  0  0  3  0  0  0  0  0  0
  191.3500  174.5720  142.8690 C   0  0  0  0  0  0  0  0  0  0  0  0
  189.3740  172.2360  139.4820 C   0  0  0  0  0  2  0  0  0  0  0  0
  189.1910  176.8460  144.5630 O   0  0  0  0  0  0  0  0  0  0  0  0
  193.9500  176.0250  143.2740 N   0  0  0  0  0  0  0  0  0  0  0  0
  190.2900  173.9090  142.1320 N   0  0  0  0  0  0  0  0  0  0  0  0
  190.6870  172.3980  140.2540 C   0  0  0  0  0  2  0  0  0  0  0  0
  193.8610  174.6900  142.7960 C   0  0  0  0  0  3  0  0  0  0  0  0
  188.8920  175.9610  142.3640 C   0  0  1  0  0  3  0  0  0  0  0  0
  188.1930  173.0430  140.0290 C   0  0  0  0  0  2  0  0  0  0  0  0
  187.1420  176.4670  142.5420 S   0  0  0  0  0  0  0  0  0  0  0  0
  187.3250  177.8600  141.3870 C   0  0  0  0  0  2  0  0  0  0  0  0
  186.3110  177.7630  140.3010 C   0  0  0  0  0  0  0  0  0  0  0  0
  185.1430  178.1910  140.4900 O   0  0  0  0  0  1  0  0  0  0  0  0
  186.6420  177.1660  139.0930 O   0  0  0  0  0  0  0  0  0  0  0  0
  191.4670  176.4740  146.0970 C   0  0  0  0  0  2  0  0  0  0  0  0
  191.3480  175.2160  146.9440 C   0  0  0  0  0  2  0  0  0  0  0  0
  189.8910  174.9620  147.2660 C   0  0  0  0  0  1  0  0  0  0  0  0
  1  6  1  0  0  0  0
  1  4  1  0  0  0  0
  2  3  1  0  0  0  0
  2 12  2  0  0  0  0
  3  6  1  0  0  0  0
  5 14  1  0  0  0  0
  6 24  1  6  0  0  0
  7  8  1  6  0  0  0
  7 14  1  0  0  0  0
  7 17  1  0  0  0  0
  9 16  2  0  0  0  0
  9 10  1  0  0  0  0
 10  3  2  0  0  0  0
 11 18  1  0  0  0  0
 11 15  1  0  0  0  0
 13  1  2  0  0  0  0
 14 10  1  0  0  0  0
 15  5  1  0  0  0  0
 16 13  1  0  0  0  0
 17 19  1  1  0  0  0
 17  2  1  0  0  0  0
 18  8  1  0  0  0  0
 20 19  1  0  0  0  0
 21 22  1  0  0  0  0
 21 20  1  0  0  0  0
 23 21  2  0  0  0  0
 24 25  1  0  0  0  0
 25 26  1  0  0  0  0
M  END
>  <MODEL>
6

>  <REMARK>
 VINA RESULT:      -5.8      3.025      5.332
  Name = 
  5 active torsions:
  status: ('A' for Active; 'I' for Inactive)
    1  A    between atoms: C_3  and  C_11
    2  A    between atoms: C_5  and  C_22
    3  A    between atoms: C_8  and  C_22
    4  A    between atoms: C_11  and  S_14
    5  A    between atoms: S_14  and  C_24
                            x       y       z     vdW  Elec       q    Type
                         _______ _______ _______ _____ _____    ______ ____

>  <TORSDO>
F 5

$$$$
=
 OpenBabel11072408493D

 26 28  0  0  1  0  0  0  0  0999 V2000
  190.4010  175.6340  147.0040 C   0  0  0  0  0  0  0  0  0  0  0  0
  190.4760  174.9160  143.3460 C   0  0  0  0  0  0  0  0  0  0  0  0
  190.1460  175.7850  144.5060 C   0  0  0  0  0  0  0  0  0  0  0  0
  191.2010  175.3030  148.1390 N   0  0  0  0  0  1  0  0  0  0  0  0
  188.1060  178.2950  142.7030 C   0  0  0  0  0  2  0  0  0  0  0  0
  190.9460  175.6400  145.7700 C   0  0  0  0  0  0  0  0  0  0  0  0
  188.8280  176.0380  141.8620 C   0  0  1  0  0  3  0  0  0  0  0  0
  187.4920  175.7580  141.1710 C   0  0  0  0  0  2  0  0  0  0  0  0
  188.5730  177.5140  145.4160 C   0  0  0  0  0  3  0  0  0  0  0  0
  189.1650  176.7080  144.3250 C   0  0  0  0  0  0  0  0  0  0  0  0
  186.1650  177.9210  141.1060 C   0  0  0  0  0  2  0  0  0  0  0  0
  191.5670  174.2900  143.2830 O   0  0  0  0  0  0  0  0  0  0  0  0
  189.0480  176.0030  147.2450 N   0  0  0  0  0  2  0  0  0  0  0  0
  188.6550  176.9690  142.9920 N   0  0  0  0  0  0  0  0  0  0  0  0
  186.5950  178.2050  142.5480 C   0  0  0  0  0  2  0  0  0  0  0  0
  188.4750  177.1830  146.6960 C   0  0  0  0  0  3  0  0  0  0  0  0
  189.4370  174.7090  142.2860 C   0  0  1  0  0  3  0  0  0  0  0  0
  187.0700  176.9560  140.3350 C   0  0  0  0  0  2  0  0  0  0  0  0
  190.0990  173.8350  140.8210 S   0  0  0  0  0  0  0  0  0  0  0  0
  189.1140  172.3400  141.1450 C   0  0  0  0  0  2  0  0  0  0  0  0
  189.7130  171.5650  142.2660 C   0  0  0  0  0  0  0  0  0  0  0  0
  189.1460  171.5400  143.3880 O   0  0  0  0  0  1  0  0  0  0  0  0
  190.9170  170.8990  142.0840 O   0  0  0  0  0  0  0  0  0  0  0  0
  192.4350  175.4400  145.6490 C   0  0  0  0  0  2  0  0  0  0  0  0
  193.1590  176.7610  145.4370 C   0  0  0  0  0  2  0  0  0  0  0  0
  194.2760  176.8910  146.4510 C   0  0  0  0  0  1  0  0  0  0  0  0
  1 13  1  0  0  0  0
  1  4  1  0  0  0  0
  2  3  1  0  0  0  0
  3  6  1  0  0  0  0
  5 14  1  0  0  0  0
  6  1  2  0  0  0  0
  7  8  1  1  0  0  0
  7 17  1  0  0  0  0
  7 14  1  0  0  0  0
  9 16  2  0  0  0  0
 10  3  2  0  0  0  0
 10  9  1  0  0  0  0
 11 15  1  0  0  0  0
 12  2  2  0  0  0  0
 14 10  1  0  0  0  0
 15  5  1  0  0  0  0
 16 13  1  0  0  0  0
 17 19  1  6  0  0  0
 17  2  1  0  0  0  0
 18 11  1  0  0  0  0
 18  8  1  0  0  0  0
 19 20  1  0  0  0  0
 20 21  1  0  0  0  0
 21 22  1  0  0  0  0
 23 21  2  0  0  0  0
 24  6  1  0  0  0  0
 25 24  1  0  0  0  0
 25 26  1  0  0  0  0
M  END
>  <MODEL>
7

>  <REMARK>
 VINA RESULT:      -5.8      3.549      4.965
  Name = 
  5 active torsions:
  status: ('A' for Active; 'I' for Inactive)
    1  A    between atoms: C_3  and  C_11
    2  A    between atoms: C_5  and  C_22
    3  A    between atoms: C_8  and  C_22
    4  A    between atoms: C_11  and  S_14
    5  A    between atoms: S_14  and  C_24
                            x       y       z     vdW  Elec       q    Type
                         _______ _______ _______ _____ _____    ______ ____

>  <TORSDO>
F 5

$$$$
=
 OpenBabel11072408493D

 26 28  0  0  1  0  0  0  0  0999 V2000
  191.2620  176.1730  146.4360 C   0  0  0  0  0  0  0  0  0  0  0  0
  188.7380  176.8420  143.7740 C   0  0  0  0  0  0  0  0  0  0  0  0
  189.5680  175.9210  144.5930 C   0  0  0  0  0  0  0  0  0  0  0  0
  191.6630  176.7910  147.6590 N   0  0  0  0  0  1  0  0  0  0  0  0
  188.9110  172.8110  142.6910 C   0  0  0  0  0  2  0  0  0  0  0  0
  190.0160  176.3670  145.9570 C   0  0  2  0  0  3  0  0  0  0  0  0
  188.4200  175.1680  141.9650 C   0  0  1  0  0  3  0  0  0  0  0  0
  188.8390  174.9150  140.5160 C   0  0  0  0  0  2  0  0  0  0  0  0
  190.7880  173.7290  144.6470 C   0  0  0  0  0  3  0  0  0  0  0  0
  189.8240  174.6930  144.0700 C   0  0  0  0  0  0  0  0  0  0  0  0
  189.0810  172.4090  140.1890 C   0  0  0  0  0  2  0  0  0  0  0  0
  188.1580  177.8350  144.2880 O   0  0  0  0  0  0  0  0  0  0  0  0
  192.2040  175.3190  145.7970 N   0  0  0  0  0  0  0  0  0  0  0  0
  189.1120  174.2480  142.8860 N   0  0  0  0  0  0  0  0  0  0  0  0
  189.7830  172.3190  141.5470 C   0  0  0  0  0  2  0  0  0  0  0  0
  191.8660  174.0060  145.3670 C   0  0  0  0  0  3  0  0  0  0  0  0
  188.6820  176.6320  142.2920 C   0  0  1  0  0  3  0  0  0  0  0  0
  188.1920  173.6410  139.9960 C   0  0  0  0  0  2  0  0  0  0  0  0
  187.4180  177.6810  141.4850 S   0  0  0  0  0  0  0  0  0  0  0  0
  186.0380  176.7840  142.2580 C   0  0  0  0  0  2  0  0  0  0  0  0
  184.9960  177.7440  142.7170 C   0  0  0  0  0  0  0  0  0  0  0  0
  184.8010  177.9200  143.9480 O   0  0  0  0  0  1  0  0  0  0  0  0
  184.2140  178.4160  141.7890 O   0  0  0  0  0  0  0  0  0  0  0  0
  189.0320  177.1180  146.8170 C   0  0  0  0  0  2  0  0  0  0  0  0
  187.8860  176.2220  147.2630 C   0  0  0  0  0  2  0  0  0  0  0  0
  186.5890  177.0000  147.2110 C   0  0  0  0  0  1  0  0  0  0  0  0
  1  4  1  0  0  0  0
  2 12  2  0  0  0  0
  2  3  1  0  0  0  0
  3  6  1  0  0  0  0
  5 14  1  0  0  0  0
  6  1  1  0  0  0  0
  6 24  1  6  0  0  0
  7  8  1  6  0  0  0
  7 17  1  0  0  0  0
  7 14  1  0  0  0  0
  9 16  2  0  0  0  0
 10  3  2  0  0  0  0
 10  9  1  0  0  0  0
 11 15  1  0  0  0  0
 13  1  2  0  0  0  0
 14 10  1  0  0  0  0
 15  5  1  0  0  0  0
 16 13  1  0  0  0  0
 17 19  1  1  0  0  0
 17  2  1  0  0  0  0
 18 11  1  0  0  0  0
 18  8  1  0  0  0  0
 19 20  1  0  0  0  0
 20 21  1  0  0  0  0
 21 22  1  0  0  0  0
 23 21  2  0  0  0  0
 24 25  1  0  0  0  0
 26 25  1  0  0  0  0
M  END
>  <MODEL>
8

>  <REMARK>
 VINA RESULT:      -5.7      2.476      4.793
  Name = 
  5 active torsions:
  status: ('A' for Active; 'I' for Inactive)
    1  A    between atoms: C_3  and  C_11
    2  A    between atoms: C_5  and  C_22
    3  A    between atoms: C_8  and  C_22
    4  A    between atoms: C_11  and  S_14
    5  A    between atoms: S_14  and  C_24
                            x       y       z     vdW  Elec       q    Type
                         _______ _______ _______ _____ _____    ______ ____

>  <TORSDO>
F 5

$$$$
=
 OpenBabel11072408493D

 26 28  0  0  1  0  0  0  0  0999 V2000
  195.4830  176.3620  142.6650 C   0  0  0  0  0  0  0  0  0  0  0  0
  192.0750  176.5300  144.1690 C   0  0  0  0  0  0  0  0  0  0  0  0
  193.0900  175.8960  143.2880 C   0  0  0  0  0  0  0  0  0  0  0  0
  196.8060  176.7250  143.0590 N   0  0  0  0  0  1  0  0  0  0  0  0
  190.8530  173.4950  141.5720 C   0  0  0  0  0  2  0  0  0  0  0  0
  194.5470  176.0960  143.5990 C   0  0  2  0  0  3  0  0  0  0  0  0
  190.1730  175.4720  142.9690 C   0  0  1  0  0  3  0  0  0  0  0  0
  189.0130  175.8510  142.0460 C   0  0  0  0  0  2  0  0  0  0  0  0
  193.4750  174.5750  141.1900 C   0  0  0  0  0  3  0  0  0  0  0  0
  192.6270  175.1180  142.2750 C   0  0  0  0  0  0  0  0  0  0  0  0
  188.6230  173.9280  140.4350 C   0  0  0  0  0  2  0  0  0  0  0  0
  192.3770  176.9660  145.3110 O   0  0  0  0  0  0  0  0  0  0  0  0
  195.2280  176.2420  141.2700 N   0  0  0  0  0  0  0  0  0  0  0  0
  191.2240  174.7490  142.2300 N   0  0  0  0  0  0  0  0  0  0  0  0
  190.1380  173.7910  140.2630 C   0  0  0  0  0  2  0  0  0  0  0  0
  194.5960  175.0970  140.7120 C   0  0  0  0  0  3  0  0  0  0  0  0
  190.6910  176.7400  143.6340 C   0  0  1  0  0  3  0  0  0  0  0  0
  188.1750  174.6240  141.7240 C   0  0  0  0  0  2  0  0  0  0  0  0
  189.5170  177.2830  144.9280 S   0  0  0  0  0  0  0  0  0  0  0  0
  189.2200  175.5860  145.5100 C   0  0  0  0  0  2  0  0  0  0  0  0
  189.4330  175.5030  146.9810 C   0  0  0  0  0  0  0  0  0  0  0  0
  188.9600  174.5360  147.6330 O   0  0  0  0  0  0  0  0  0  0  0  0
  190.1220  176.5110  147.6400 O   0  0  0  0  0  1  0  0  0  0  0  0
  194.9770  176.0480  145.0440 C   0  0  0  0  0  2  0  0  0  0  0  0
  194.9930  174.6220  145.5720 C   0  0  0  0  0  2  0  0  0  0  0  0
  196.4250  174.1700  145.7590 C   0  0  0  0  0  1  0  0  0  0  0  0
  1  4  1  0  0  0  0
  1  6  1  0  0  0  0
  2 12  2  0  0  0  0
  3  6  1  0  0  0  0
  3  2  1  0  0  0  0
  5 14  1  0  0  0  0
  6 24  1  1  0  0  0
  7  8  1  6  0  0  0
  7 17  1  0  0  0  0
  9 10  1  0  0  0  0
 10  3  2  0  0  0  0
 11 18  1  0  0  0  0
 13  1  2  0  0  0  0
 14 10  1  0  0  0  0
 14  7  1  0  0  0  0
 15 11  1  0  0  0  0
 15  5  1  0  0  0  0
 16  9  2  0  0  0  0
 16 13  1  0  0  0  0
 17  2  1  0  0  0  0
 17 19  1  1  0  0  0
 18  8  1  0  0  0  0
 19 20  1  0  0  0  0
 20 21  1  0  0  0  0
 21 22  2  0  0  0  0
 21 23  1  0  0  0  0
 24 25  1  0  0  0  0
 25 26  1  0  0  0  0
M  END
>  <MODEL>
9

>  <REMARK>
 VINA RESULT:      -5.7      4.189      6.411
  Name = 
  5 active torsions:
  status: ('A' for Active; 'I' for Inactive)
    1  A    between atoms: C_3  and  C_11
    2  A    between atoms: C_5  and  C_22
    3  A    between atoms: C_8  and  C_22
    4  A    between atoms: C_11  and  S_14
    5  A    between atoms: S_14  and  C_24
                            x       y       z     vdW  Elec       q    Type
                         _______ _______ _______ _____ _____    ______ ____

>  <TORSDO>
F 5

$$$$
