=
 OpenBabel11062420023D

 42 44  0  0  1  0  0  0  0  0999 V2000
  192.0800  177.2170  143.7790 C   0  0  0  0  0  2  0  0  0  0  0  0
  191.1300  178.2970  143.4940 N   0  0  0  0  0  0  0  0  0  0  0  0
  189.9560  178.0730  142.9780 C   0  0  0  0  0  3  0  0  0  0  0  0
  190.4870  175.7570  142.4810 C   0  0  0  0  0  3  0  0  0  0  0  0
  189.5540  176.7130  142.5610 C   0  0  0  0  0  0  0  0  0  0  0  0
  191.9330  176.0810  142.7510 C   0  0  2  0  0  3  0  0  0  0  0  0
  188.1460  176.4120  142.2550 C   0  0  0  0  0  0  0  0  0  0  0  0
  187.1380  177.4040  142.4810 N   0  0  0  0  0  2  0  0  0  0  0  0
  187.8210  175.2810  141.8000 O   0  0  0  0  0  0  0  0  0  0  0  0
  185.7810  177.1290  142.2660 N   0  0  0  0  0  2  0  0  0  0  0  0
  185.0700  177.4870  143.4860 C   0  0  0  0  0  2  0  0  0  0  0  0
  186.0270  177.9970  144.5590 C   0  0  1  0  0  3  0  0  0  0  0  0
  185.6680  179.3810  145.0100 C   0  0  0  0  0  0  0  0  0  0  0  0
  185.4060  180.2380  144.1820 O   0  0  0  0  0  0  0  0  0  0  0  0
  185.6100  179.6850  146.3340 F   0  0  0  0  0  0  0  0  0  0  0  0
  186.1070  177.0240  145.7300 C   0  0  0  0  0  2  0  0  0  0  0  0
  191.0650  176.7360  147.4410 S   0  0  0  0  0  0  0  0  0  0  0  0
  189.3260  175.6010  146.0640 C   0  0  0  0  0  0  0  0  0  0  0  0
  190.4030  174.7320  145.9440 C   0  0  0  0  0  3  0  0  0  0  0  0
  188.1150  175.5760  145.5840 O   0  0  0  0  0  0  0  0  0  0  0  0
  187.5250  176.6760  146.0330 C   0  0  0  0  0  0  0  0  0  0  0  0
  191.4790  175.2590  146.6770 C   0  0  0  0  0  0  0  0  0  0  0  0
  188.3730  177.4540  146.8410 C   0  0  0  0  0  3  0  0  0  0  0  0
  189.5160  176.6930  146.8130 C   0  0  0  0  0  0  0  0  0  0  0  0
  192.7980  174.5850  146.8230 C   0  0  0  0  0  2  0  0  0  0  0  0
  193.9050  175.5080  146.3520 C   0  0  0  0  0  1  0  0  0  0  0  0
  192.7130  174.9370  143.0460 O   0  0  0  0  0  0  0  0  0  0  0  0
  192.6960  174.0580  141.9410 C   0  0  1  0  0  3  0  0  0  0  0  0
  194.4960  175.3990  140.8470 O   0  0  0  0  0  0  0  0  0  0  0  0
  194.6480  173.1130  140.9190 O   0  0  0  0  0  1  0  0  0  0  0  0
  193.9980  174.1540  141.2060 C   0  0  0  0  0  0  0  0  0  0  0  0
  192.4270  172.6100  142.3830 C   0  0  1  0  0  3  0  0  0  0  0  0
  192.5060  172.4510  143.8980 C   0  0  0  0  0  2  0  0  0  0  0  0
  194.8130  172.5870  144.4800 O   0  0  0  0  0  0  0  0  0  0  0  0
  193.9580  170.4290  144.4560 N   0  0  0  0  0  2  0  0  0  0  0  0
  193.8130  171.8440  144.3000 C   0  0  0  0  0  0  0  0  0  0  0  0
  192.8870  169.4790  144.1930 C   0  0  0  0  0  2  0  0  0  0  0  0
  193.1390  168.1890  144.9490 C   0  0  0  0  0  1  0  0  0  0  0  0
  191.0430  172.1620  141.9320 C   0  0  0  0  0  2  0  0  0  0  0  0
  192.1520  170.6760  140.4320 O   0  0  0  0  0  1  0  0  0  0  0  0
  191.1250  171.3620  140.6780 C   0  0  0  0  0  0  0  0  0  0  0  0
  190.0690  171.3720  139.7780 O   0  0  0  0  0  0  0  0  0  0  0  0
  2  1  1  0  0  0  0
  3  2  2  0  0  0  0
  4  5  2  0  0  0  0
  4  6  1  0  0  0  0
  5  3  1  0  0  0  0
  6 27  1  1  0  0  0
  6  1  1  0  0  0  0
  7  8  1  0  0  0  0
  7  5  1  0  0  0  0
  9  7  2  0  0  0  0
 10  8  1  0  0  0  0
 10 11  1  0  0  0  0
 12 11  1  6  0  0  0
 12 13  1  0  0  0  0
 12 16  1  0  0  0  0
 13 15  1  0  0  0  0
 14 13  2  0  0  0  0
 16 21  1  0  0  0  0
 18 24  2  0  0  0  0
 19 18  1  0  0  0  0
 19 22  2  0  0  0  0
 20 21  1  0  0  0  0
 20 18  1  0  0  0  0
 21 23  2  0  0  0  0
 22 25  1  0  0  0  0
 22 17  1  0  0  0  0
 24 23  1  0  0  0  0
 24 17  1  0  0  0  0
 26 25  1  0  0  0  0
 28 31  1  1  0  0  0
 28 32  1  0  0  0  0
 28 27  1  0  0  0  0
 29 31  2  0  0  0  0
 30 31  1  0  0  0  0
 32 39  1  1  0  0  0
 32 33  1  0  0  0  0
 33 36  1  0  0  0  0
 36 35  1  0  0  0  0
 36 34  2  0  0  0  0
 37 35  1  0  0  0  0
 37 38  1  0  0  0  0
 40 41  1  0  0  0  0
 41 39  1  0  0  0  0
 42 41  2  0  0  0  0
M  END
>  <MODEL>
1

>  <REMARK>
 VINA RESULT:      -5.6      0.000      0.000
  Name = 
  17 active torsions:
  status: ('A' for Active; 'I' for Inactive)
    1  A    between atoms: C_4  and  C_26
    2  A    between atoms: C_6  and  C_15
    3  A    between atoms: C_6  and  C_21
    4  A    between atoms: C_7  and  C_15
    5  A    between atoms: C_7  and  O_38
    6  A    between atoms: C_7  and  C_41
    7  A    between atoms: C_13  and  C_37
    8  A    between atoms: C_14  and  N_28
    9  A    between atoms: C_15  and  C_39
   10  A    between atoms: C_16  and  C_29
   11  A    between atoms: C_22  and  C_36
   12  A    between atoms: N_24  and  N_25
   13  A    between atoms: N_25  and  C_27
   14  A    between atoms: C_27  and  C_37
   15  A    between atoms: C_33  and  O_38
   16  A    between atoms: C_36  and  C_37
   17  A    between atoms: C_39  and  C_42
                            x       y       z     vdW  Elec       q    Type
                         _______ _______ _______ _____ _____    ______ ____

>  <TORSDO>
F 17

$$$$
=
 OpenBabel11062420023D

 42 44  0  0  1  0  0  0  0  0999 V2000
  187.9390  173.6160  142.0740 C   0  0  0  0  0  2  0  0  0  0  0  0
  188.7180  172.4170  141.7530 N   0  0  0  0  0  0  0  0  0  0  0  0
  189.8350  172.1300  142.3560 C   0  0  0  0  0  3  0  0  0  0  0  0
  189.9510  174.3070  143.4260 C   0  0  0  0  0  3  0  0  0  0  0  0
  190.4280  173.0590  143.3400 C   0  0  0  0  0  0  0  0  0  0  0  0
  188.8670  174.7720  142.4890 C   0  0  2  0  0  3  0  0  0  0  0  0
  191.5180  172.6130  144.2240 C   0  0  0  0  0  0  0  0  0  0  0  0
  192.2530  173.5710  144.9930 N   0  0  0  0  0  2  0  0  0  0  0  0
  191.8120  171.3880  144.3040 O   0  0  0  0  0  0  0  0  0  0  0  0
  193.3400  173.1900  145.7910 N   0  0  0  0  0  2  0  0  0  0  0  0
  194.5340  173.7880  145.2080 C   0  0  0  0  0  2  0  0  0  0  0  0
  194.2320  175.1540  144.6010 C   0  0  1  0  0  3  0  0  0  0  0  0
  194.6200  176.2700  145.5250 C   0  0  0  0  0  0  0  0  0  0  0  0
  195.1080  177.2900  145.0700 O   0  0  0  0  0  0  0  0  0  0  0  0
  194.4150  176.1610  146.8650 F   0  0  0  0  0  0  0  0  0  0  0  0
  194.8850  175.3020  143.2320 C   0  0  0  0  0  2  0  0  0  0  0  0
  193.0710  171.6070  139.9680 S   0  0  0  0  0  0  0  0  0  0  0  0
  192.7530  173.9480  140.7580 C   0  0  0  0  0  0  0  0  0  0  0  0
  191.7310  173.8160  139.8260 C   0  0  0  0  0  3  0  0  0  0  0  0
  193.1230  174.9330  141.5270 O   0  0  0  0  0  0  0  0  0  0  0  0
  194.1660  174.4850  142.2120 C   0  0  0  0  0  0  0  0  0  0  0  0
  191.7950  172.5230  139.2820 C   0  0  0  0  0  0  0  0  0  0  0  0
  194.4970  173.1570  141.8880 C   0  0  0  0  0  3  0  0  0  0  0  0
  193.5380  172.8820  140.9440 C   0  0  0  0  0  0  0  0  0  0  0  0
  190.8340  171.9910  138.2780 C   0  0  0  0  0  2  0  0  0  0  0  0
  190.1560  170.7470  138.8180 C   0  0  0  0  0  1  0  0  0  0  0  0
  188.1820  175.9190  142.9570 O   0  0  0  0  0  0  0  0  0  0  0  0
  188.9610  176.5620  143.9440 C   0  0  1  0  0  3  0  0  0  0  0  0
  189.2530  178.2230  142.1030 O   0  0  0  0  0  0  0  0  0  0  0  0
  190.6160  178.2960  143.9440 O   0  0  0  0  0  1  0  0  0  0  0  0
  189.6620  177.7390  143.3380 C   0  0  0  0  0  0  0  0  0  0  0  0
  188.0970  177.0010  145.1380 C   0  0  1  0  0  3  0  0  0  0  0  0
  186.6130  177.0400  144.7870 C   0  0  0  0  0  2  0  0  0  0  0  0
  185.9660  179.0470  145.8980 O   0  0  0  0  0  0  0  0  0  0  0  0
  185.7350  179.1150  143.5900 N   0  0  0  0  0  2  0  0  0  0  0  0
  186.1020  178.4470  144.8010 C   0  0  0  0  0  0  0  0  0  0  0  0
  185.7770  178.4830  142.2790 C   0  0  0  0  0  2  0  0  0  0  0  0
  184.3720  178.1700  141.8060 C   0  0  0  0  0  1  0  0  0  0  0  0
  188.2790  176.0450  146.3090 C   0  0  0  0  0  2  0  0  0  0  0  0
  190.0000  177.4340  147.2050 O   0  0  0  0  0  0  0  0  0  0  0  0
  189.5950  176.2640  146.9740 C   0  0  0  0  0  0  0  0  0  0  0  0
  190.3770  175.1770  147.3400 O   0  0  0  0  0  1  0  0  0  0  0  0
  1  6  1  0  0  0  0
  2  1  1  0  0  0  0
  2  3  2  0  0  0  0
  3  5  1  0  0  0  0
  5  4  2  0  0  0  0
  5  7  1  0  0  0  0
  6 27  1  1  0  0  0
  6  4  1  0  0  0  0
  7  9  2  0  0  0  0
  7  8  1  0  0  0  0
  8 10  1  0  0  0  0
 11 10  1  0  0  0  0
 12 16  1  6  0  0  0
 12 11  1  0  0  0  0
 12 13  1  0  0  0  0
 13 15  1  0  0  0  0
 14 13  2  0  0  0  0
 17 24  1  0  0  0  0
 18 24  2  0  0  0  0
 18 20  1  0  0  0  0
 19 18  1  0  0  0  0
 20 21  1  0  0  0  0
 21 16  1  0  0  0  0
 22 19  2  0  0  0  0
 22 17  1  0  0  0  0
 23 21  2  0  0  0  0
 24 23  1  0  0  0  0
 25 26  1  0  0  0  0
 25 22  1  0  0  0  0
 28 27  1  6  0  0  0
 28 32  1  0  0  0  0
 29 31  2  0  0  0  0
 31 28  1  0  0  0  0
 31 30  1  0  0  0  0
 32 33  1  6  0  0  0
 32 39  1  0  0  0  0
 33 36  1  0  0  0  0
 35 36  1  0  0  0  0
 36 34  2  0  0  0  0
 37 35  1  0  0  0  0
 38 37  1  0  0  0  0
 39 41  1  0  0  0  0
 41 40  2  0  0  0  0
 41 42  1  0  0  0  0
M  END
>  <MODEL>
2

>  <REMARK>
 VINA RESULT:      -5.5      3.084      8.153
  Name = 
  17 active torsions:
  status: ('A' for Active; 'I' for Inactive)
    1  A    between atoms: C_4  and  C_26
    2  A    between atoms: C_6  and  C_15
    3  A    between atoms: C_6  and  C_21
    4  A    between atoms: C_7  and  C_15
    5  A    between atoms: C_7  and  O_38
    6  A    between atoms: C_7  and  C_41
    7  A    between atoms: C_13  and  C_37
    8  A    between atoms: C_14  and  N_28
    9  A    between atoms: C_15  and  C_39
   10  A    between atoms: C_16  and  C_29
   11  A    between atoms: C_22  and  C_36
   12  A    between atoms: N_24  and  N_25
   13  A    between atoms: N_25  and  C_27
   14  A    between atoms: C_27  and  C_37
   15  A    between atoms: C_33  and  O_38
   16  A    between atoms: C_36  and  C_37
   17  A    between atoms: C_39  and  C_42
                            x       y       z     vdW  Elec       q    Type
                         _______ _______ _______ _____ _____    ______ ____

>  <TORSDO>
F 17

$$$$
=
 OpenBabel11062420023D

 42 44  0  0  1  0  0  0  0  0999 V2000
  190.7690  172.1270  141.3970 C   0  0  0  0  0  2  0  0  0  0  0  0
  189.3380  172.1580  141.7130 N   0  0  0  0  0  0  0  0  0  0  0  0
  188.7050  173.2670  141.9670 C   0  0  0  0  0  3  0  0  0  0  0  0
  190.7630  174.5480  142.1000 C   0  0  0  0  0  3  0  0  0  0  0  0
  189.4270  174.5550  142.0420 C   0  0  0  0  0  0  0  0  0  0  0  0
  191.5150  173.2440  142.1490 C   0  0  2  0  0  3  0  0  0  0  0  0
  188.6840  175.8270  142.0380 C   0  0  0  0  0  0  0  0  0  0  0  0
  187.2540  175.8190  141.9770 N   0  0  0  0  0  2  0  0  0  0  0  0
  189.3040  176.9250  142.0820 O   0  0  0  0  0  0  0  0  0  0  0  0
  186.5190  177.0100  141.9030 N   0  0  0  0  0  2  0  0  0  0  0  0
  185.5970  177.0180  143.0310 C   0  0  0  0  0  2  0  0  0  0  0  0
  186.1550  177.8220  144.2010 C   0  0  1  0  0  3  0  0  0  0  0  0
  185.3810  179.0860  144.4250 C   0  0  0  0  0  0  0  0  0  0  0  0
  184.2380  179.1770  144.0100 O   0  0  0  0  0  0  0  0  0  0  0  0
  185.9350  180.1260  145.1040 F   0  0  0  0  0  0  0  0  0  0  0  0
  186.2280  176.9720  145.4640 C   0  0  0  0  0  2  0  0  0  0  0  0
  190.7560  175.3850  147.6030 S   0  0  0  0  0  0  0  0  0  0  0  0
  189.7420  176.7260  145.7640 C   0  0  0  0  0  0  0  0  0  0  0  0
  191.1010  176.8770  145.5180 C   0  0  0  0  0  3  0  0  0  0  0  0
  188.6810  177.1760  145.1580 O   0  0  0  0  0  0  0  0  0  0  0  0
  187.6470  176.7060  145.8420 C   0  0  0  0  0  0  0  0  0  0  0  0
  191.8090  176.1670  146.5010 C   0  0  0  0  0  0  0  0  0  0  0  0
  188.0360  175.9140  146.9370 C   0  0  0  0  0  3  0  0  0  0  0  0
  189.4030  175.9750  146.8180 C   0  0  0  0  0  0  0  0  0  0  0  0
  193.2930  176.0570  146.5450 C   0  0  0  0  0  2  0  0  0  0  0  0
  193.9180  177.1450  145.6930 C   0  0  0  0  0  1  0  0  0  0  0  0
  192.8770  173.3720  141.7830 O   0  0  0  0  0  0  0  0  0  0  0  0
  193.6190  173.8410  142.8880 C   0  0  1  0  0  3  0  0  0  0  0  0
  193.0150  172.9150  145.1260 O   0  0  0  0  0  1  0  0  0  0  0  0
  194.3780  171.7250  143.7190 O   0  0  0  0  0  0  0  0  0  0  0  0
  193.7000  172.7660  143.9270 C   0  0  0  0  0  0  0  0  0  0  0  0
  195.0270  174.2920  142.4640 C   0  0  1  0  0  3  0  0  0  0  0  0
  195.2730  174.0750  140.9750 C   0  0  0  0  0  2  0  0  0  0  0  0
  196.4460  172.0000  141.0210 O   0  0  0  0  0  0  0  0  0  0  0  0
  197.7110  173.7990  140.2770 N   0  0  0  0  0  2  0  0  0  0  0  0
  196.4880  173.2300  140.7550 C   0  0  0  0  0  0  0  0  0  0  0  0
  197.8890  175.2200  140.0180 C   0  0  0  0  0  2  0  0  0  0  0  0
  197.9410  175.4740  138.5250 C   0  0  0  0  0  1  0  0  0  0  0  0
  195.2270  175.7720  142.7640 C   0  0  0  0  0  2  0  0  0  0  0  0
  197.0690  177.1870  143.3080 O   0  0  0  0  0  0  0  0  0  0  0  0
  196.5870  176.0230  143.3190 C   0  0  0  0  0  0  0  0  0  0  0  0
  197.3250  174.9740  143.8490 O   0  0  0  0  0  1  0  0  0  0  0  0
  1  2  1  0  0  0  0
  1  6  1  0  0  0  0
  2  3  2  0  0  0  0
  3  5  1  0  0  0  0
  4  6  1  0  0  0  0
  5  4  2  0  0  0  0
  6 27  1  6  0  0  0
  7  5  1  0  0  0  0
  7  9  2  0  0  0  0
  8  7  1  0  0  0  0
 10  8  1  0  0  0  0
 10 11  1  0  0  0  0
 12 11  1  6  0  0  0
 12 13  1  0  0  0  0
 12 16  1  0  0  0  0
 13 15  1  0  0  0  0
 14 13  2  0  0  0  0
 16 21  1  0  0  0  0
 18 24  2  0  0  0  0
 19 18  1  0  0  0  0
 19 22  2  0  0  0  0
 20 18  1  0  0  0  0
 20 21  1  0  0  0  0
 21 23  2  0  0  0  0
 22 25  1  0  0  0  0
 22 17  1  0  0  0  0
 24 23  1  0  0  0  0
 24 17  1  0  0  0  0
 26 25  1  0  0  0  0
 28 27  1  6  0  0  0
 28 31  1  0  0  0  0
 30 31  2  0  0  0  0
 31 29  1  0  0  0  0
 32 33  1  6  0  0  0
 32 39  1  0  0  0  0
 32 28  1  0  0  0  0
 35 36  1  0  0  0  0
 36 33  1  0  0  0  0
 36 34  2  0  0  0  0
 37 35  1  0  0  0  0
 38 37  1  0  0  0  0
 39 41  1  0  0  0  0
 40 41  2  0  0  0  0
 41 42  1  0  0  0  0
M  END
>  <MODEL>
3

>  <REMARK>
 VINA RESULT:      -5.5      2.388      4.237
  Name = 
  17 active torsions:
  status: ('A' for Active; 'I' for Inactive)
    1  A    between atoms: C_4  and  C_26
    2  A    between atoms: C_6  and  C_15
    3  A    between atoms: C_6  and  C_21
    4  A    between atoms: C_7  and  C_15
    5  A    between atoms: C_7  and  O_38
    6  A    between atoms: C_7  and  C_41
    7  A    between atoms: C_13  and  C_37
    8  A    between atoms: C_14  and  N_28
    9  A    between atoms: C_15  and  C_39
   10  A    between atoms: C_16  and  C_29
   11  A    between atoms: C_22  and  C_36
   12  A    between atoms: N_24  and  N_25
   13  A    between atoms: N_25  and  C_27
   14  A    between atoms: C_27  and  C_37
   15  A    between atoms: C_33  and  O_38
   16  A    between atoms: C_36  and  C_37
   17  A    between atoms: C_39  and  C_42
                            x       y       z     vdW  Elec       q    Type
                         _______ _______ _______ _____ _____    ______ ____

>  <TORSDO>
F 17

$$$$
=
 OpenBabel11062420023D

 42 44  0  0  1  0  0  0  0  0999 V2000
  188.2740  173.7070  141.3650 C   0  0  0  0  0  2  0  0  0  0  0  0
  189.1790  172.6360  140.9380 N   0  0  0  0  0  0  0  0  0  0  0  0
  190.2510  172.3220  141.6070 C   0  0  0  0  0  3  0  0  0  0  0  0
  190.0780  174.2830  143.0290 C   0  0  0  0  0  3  0  0  0  0  0  0
  190.6640  173.1030  142.7910 C   0  0  0  0  0  0  0  0  0  0  0  0
  189.0570  174.8310  142.0660 C   0  0  2  0  0  3  0  0  0  0  0  0
  191.6940  172.5830  143.7050 C   0  0  0  0  0  0  0  0  0  0  0  0
  192.6620  173.4720  144.2720 N   0  0  0  0  0  2  0  0  0  0  0  0
  191.7320  171.3530  143.9870 O   0  0  0  0  0  0  0  0  0  0  0  0
  193.6970  173.0010  145.0910 N   0  0  0  0  0  2  0  0  0  0  0  0
  194.2330  174.1490  145.8110 C   0  0  0  0  0  2  0  0  0  0  0  0
  194.0570  175.4380  145.0150 C   0  0  1  0  0  3  0  0  0  0  0  0
  193.2180  176.4360  145.7560 C   0  0  0  0  0  0  0  0  0  0  0  0
  193.5670  176.8190  146.8600 O   0  0  0  0  0  0  0  0  0  0  0  0
  192.0820  176.9340  145.1980 F   0  0  0  0  0  0  0  0  0  0  0  0
  195.4060  176.0220  144.6120 C   0  0  0  0  0  2  0  0  0  0  0  0
  197.3620  175.4550  139.7690 S   0  0  0  0  0  0  0  0  0  0  0  0
  195.2730  175.4460  141.1260 C   0  0  0  0  0  0  0  0  0  0  0  0
  194.7910  175.1760  139.8510 C   0  0  0  0  0  3  0  0  0  0  0  0
  194.6850  175.5700  142.2820 O   0  0  0  0  0  0  0  0  0  0  0  0
  195.6510  175.8290  143.1530 C   0  0  0  0  0  0  0  0  0  0  0  0
  195.8790  175.1580  138.9640 C   0  0  0  0  0  0  0  0  0  0  0  0
  196.9230  175.8750  142.5540 C   0  0  0  0  0  3  0  0  0  0  0  0
  196.5940  175.6170  141.2460 C   0  0  0  0  0  0  0  0  0  0  0  0
  195.7660  174.8580  137.5110 C   0  0  0  0  0  2  0  0  0  0  0  0
  197.0480  174.2180  137.0130 C   0  0  0  0  0  1  0  0  0  0  0  0
  188.2350  175.8320  142.6380 O   0  0  0  0  0  0  0  0  0  0  0  0
  188.9980  176.6110  143.5350 C   0  0  1  0  0  3  0  0  0  0  0  0
  188.9190  178.2610  141.6630 O   0  0  0  0  0  0  0  0  0  0  0  0
  190.5540  178.4140  143.2620 O   0  0  0  0  0  1  0  0  0  0  0  0
  189.5410  177.8090  142.8190 C   0  0  0  0  0  0  0  0  0  0  0  0
  188.1610  177.0400  144.7520 C   0  0  1  0  0  3  0  0  0  0  0  0
  186.6720  177.1040  144.4290 C   0  0  0  0  0  2  0  0  0  0  0  0
  186.2350  179.0560  143.1320 O   0  0  0  0  0  0  0  0  0  0  0  0
  185.8100  179.2990  145.4010 N   0  0  0  0  0  2  0  0  0  0  0  0
  186.2240  178.5230  144.2720 C   0  0  0  0  0  0  0  0  0  0  0  0
  185.8370  178.8050  146.7700 C   0  0  0  0  0  2  0  0  0  0  0  0
  184.4740  178.2640  147.1550 C   0  0  0  0  0  1  0  0  0  0  0  0
  188.3530  176.0600  145.9030 C   0  0  0  0  0  2  0  0  0  0  0  0
  189.3870  177.8060  147.1580 O   0  0  0  0  0  0  0  0  0  0  0  0
  189.3520  176.5780  146.8810 C   0  0  0  0  0  0  0  0  0  0  0  0
  190.2450  175.7060  147.4870 O   0  0  0  0  0  1  0  0  0  0  0  0
  1  6  1  0  0  0  0
  2  1  1  0  0  0  0
  2  3  2  0  0  0  0
  3  5  1  0  0  0  0
  5  4  2  0  0  0  0
  5  7  1  0  0  0  0
  6 27  1  1  0  0  0
  6  4  1  0  0  0  0
  7  9  2  0  0  0  0
  7  8  1  0  0  0  0
  8 10  1  0  0  0  0
 10 11  1  0  0  0  0
 12 16  1  1  0  0  0
 12 13  1  0  0  0  0
 12 11  1  0  0  0  0
 13 14  2  0  0  0  0
 15 13  1  0  0  0  0
 17 24  1  0  0  0  0
 18 24  2  0  0  0  0
 18 20  1  0  0  0  0
 19 18  1  0  0  0  0
 20 21  1  0  0  0  0
 21 16  1  0  0  0  0
 22 17  1  0  0  0  0
 22 19  2  0  0  0  0
 23 21  2  0  0  0  0
 24 23  1  0  0  0  0
 25 22  1  0  0  0  0
 26 25  1  0  0  0  0
 28 27  1  6  0  0  0
 28 32  1  0  0  0  0
 29 31  2  0  0  0  0
 31 30  1  0  0  0  0
 31 28  1  0  0  0  0
 32 33  1  6  0  0  0
 32 39  1  0  0  0  0
 34 36  2  0  0  0  0
 35 37  1  0  0  0  0
 36 33  1  0  0  0  0
 36 35  1  0  0  0  0
 37 38  1  0  0  0  0
 39 41  1  0  0  0  0
 41 40  2  0  0  0  0
 41 42  1  0  0  0  0
M  END
>  <MODEL>
4

>  <REMARK>
 VINA RESULT:      -5.4      3.198      8.231
  Name = 
  17 active torsions:
  status: ('A' for Active; 'I' for Inactive)
    1  A    between atoms: C_4  and  C_26
    2  A    between atoms: C_6  and  C_15
    3  A    between atoms: C_6  and  C_21
    4  A    between atoms: C_7  and  C_15
    5  A    between atoms: C_7  and  O_38
    6  A    between atoms: C_7  and  C_41
    7  A    between atoms: C_13  and  C_37
    8  A    between atoms: C_14  and  N_28
    9  A    between atoms: C_15  and  C_39
   10  A    between atoms: C_16  and  C_29
   11  A    between atoms: C_22  and  C_36
   12  A    between atoms: N_24  and  N_25
   13  A    between atoms: N_25  and  C_27
   14  A    between atoms: C_27  and  C_37
   15  A    between atoms: C_33  and  O_38
   16  A    between atoms: C_36  and  C_37
   17  A    between atoms: C_39  and  C_42
                            x       y       z     vdW  Elec       q    Type
                         _______ _______ _______ _____ _____    ______ ____

>  <TORSDO>
F 17

$$$$
=
 OpenBabel11062420023D

 42 44  0  0  1  0  0  0  0  0999 V2000
  192.2960  172.4810  141.9220 C   0  0  0  0  0  2  0  0  0  0  0  0
  191.1850  171.8150  141.2350 N   0  0  0  0  0  0  0  0  0  0  0  0
  189.9660  172.2720  141.2780 C   0  0  0  0  0  3  0  0  0  0  0  0
  190.5070  173.8830  143.0110 C   0  0  0  0  0  3  0  0  0  0  0  0
  189.6220  173.4440  142.1090 C   0  0  0  0  0  0  0  0  0  0  0  0
  191.8080  173.1530  143.2170 C   0  0  2  0  0  3  0  0  0  0  0  0
  188.3300  174.1280  141.9330 C   0  0  0  0  0  0  0  0  0  0  0  0
  188.2800  175.5570  141.8740 N   0  0  0  0  0  2  0  0  0  0  0  0
  187.2630  173.4600  141.8410 O   0  0  0  0  0  0  0  0  0  0  0  0
  187.0620  176.2440  141.7770 N   0  0  0  0  0  2  0  0  0  0  0  0
  186.4630  176.2490  143.1050 C   0  0  0  0  0  2  0  0  0  0  0  0
  186.6270  177.6030  143.7860 C   0  0  1  0  0  3  0  0  0  0  0  0
  185.5460  178.5610  143.3820 C   0  0  0  0  0  0  0  0  0  0  0  0
  184.4720  178.1330  142.9960 O   0  0  0  0  0  0  0  0  0  0  0  0
  185.7460  179.9040  143.4630 F   0  0  0  0  0  0  0  0  0  0  0  0
  186.7100  177.4500  145.3000 C   0  0  0  0  0  2  0  0  0  0  0  0
  191.0130  175.5210  147.6150 S   0  0  0  0  0  0  0  0  0  0  0  0
  190.1710  176.8350  145.6730 C   0  0  0  0  0  0  0  0  0  0  0  0
  191.5410  176.8170  145.4390 C   0  0  0  0  0  3  0  0  0  0  0  0
  189.1720  177.3570  145.0200 O   0  0  0  0  0  0  0  0  0  0  0  0
  188.0860  177.0540  145.7180 C   0  0  0  0  0  0  0  0  0  0  0  0
  192.1570  176.1030  146.4790 C   0  0  0  0  0  0  0  0  0  0  0  0
  188.3750  176.3030  146.8710 C   0  0  0  0  0  3  0  0  0  0  0  0
  189.7410  176.2020  146.7700 C   0  0  0  0  0  0  0  0  0  0  0  0
  193.6180  175.8320  146.5540 C   0  0  0  0  0  2  0  0  0  0  0  0
  194.3960  177.0840  146.1990 C   0  0  0  0  0  1  0  0  0  0  0  0
  192.7920  173.9410  143.8610 O   0  0  0  0  0  0  0  0  0  0  0  0
  193.8740  174.1550  142.9800 C   0  0  1  0  0  3  0  0  0  0  0  0
  195.1950  176.2690  142.8350 O   0  0  0  0  0  1  0  0  0  0  0  0
  192.9800  176.2560  142.2470 O   0  0  0  0  0  0  0  0  0  0  0  0
  193.9810  175.6170  142.6670 C   0  0  0  0  0  0  0  0  0  0  0  0
  195.1910  173.6300  143.5730 C   0  0  1  0  0  3  0  0  0  0  0  0
  194.9660  172.8530  144.8660 C   0  0  0  0  0  2  0  0  0  0  0  0
  196.5890  174.0480  146.1410 O   0  0  0  0  0  0  0  0  0  0  0  0
  196.8900  171.7460  146.1240 N   0  0  0  0  0  2  0  0  0  0  0  0
  196.1750  172.9270  145.7460 C   0  0  0  0  0  0  0  0  0  0  0  0
  196.5420  170.4120  145.6570 C   0  0  0  0  0  2  0  0  0  0  0  0
  197.7550  169.7430  145.0420 C   0  0  0  0  0  1  0  0  0  0  0  0
  195.8920  172.7060  142.5840 C   0  0  0  0  0  2  0  0  0  0  0  0
  197.5550  173.0620  140.9120 O   0  0  0  0  0  0  0  0  0  0  0  0
  197.1460  173.3280  142.0730 C   0  0  0  0  0  0  0  0  0  0  0  0
  197.8640  174.2020  142.8760 O   0  0  0  0  0  1  0  0  0  0  0  0
  1  6  1  0  0  0  0
  2  3  2  0  0  0  0
  2  1  1  0  0  0  0
  3  5  1  0  0  0  0
  4  6  1  0  0  0  0
  5  4  2  0  0  0  0
  6 27  1  6  0  0  0
  7  5  1  0  0  0  0
  8  7  1  0  0  0  0
  9  7  2  0  0  0  0
 10  8  1  0  0  0  0
 10 11  1  0  0  0  0
 12 11  1  6  0  0  0
 12 16  1  0  0  0  0
 13 15  1  0  0  0  0
 13 12  1  0  0  0  0
 14 13  2  0  0  0  0
 16 21  1  0  0  0  0
 18 24  2  0  0  0  0
 19 18  1  0  0  0  0
 19 22  2  0  0  0  0
 20 18  1  0  0  0  0
 20 21  1  0  0  0  0
 21 23  2  0  0  0  0
 22 25  1  0  0  0  0
 22 17  1  0  0  0  0
 24 23  1  0  0  0  0
 24 17  1  0  0  0  0
 26 25  1  0  0  0  0
 28 31  1  1  0  0  0
 28 32  1  0  0  0  0
 28 27  1  0  0  0  0
 30 31  2  0  0  0  0
 31 29  1  0  0  0  0
 32 39  1  6  0  0  0
 32 33  1  0  0  0  0
 33 36  1  0  0  0  0
 36 35  1  0  0  0  0
 36 34  2  0  0  0  0
 37 35  1  0  0  0  0
 38 37  1  0  0  0  0
 40 41  2  0  0  0  0
 41 39  1  0  0  0  0
 41 42  1  0  0  0  0
M  END
>  <MODEL>
5

>  <REMARK>
 VINA RESULT:      -5.4      2.269      3.421
  Name = 
  17 active torsions:
  status: ('A' for Active; 'I' for Inactive)
    1  A    between atoms: C_4  and  C_26
    2  A    between atoms: C_6  and  C_15
    3  A    between atoms: C_6  and  C_21
    4  A    between atoms: C_7  and  C_15
    5  A    between atoms: C_7  and  O_38
    6  A    between atoms: C_7  and  C_41
    7  A    between atoms: C_13  and  C_37
    8  A    between atoms: C_14  and  N_28
    9  A    between atoms: C_15  and  C_39
   10  A    between atoms: C_16  and  C_29
   11  A    between atoms: C_22  and  C_36
   12  A    between atoms: N_24  and  N_25
   13  A    between atoms: N_25  and  C_27
   14  A    between atoms: C_27  and  C_37
   15  A    between atoms: C_33  and  O_38
   16  A    between atoms: C_36  and  C_37
   17  A    between atoms: C_39  and  C_42
                            x       y       z     vdW  Elec       q    Type
                         _______ _______ _______ _____ _____    ______ ____

>  <TORSDO>
F 17

$$$$
=
 OpenBabel11062420023D

 42 44  0  0  1  0  0  0  0  0999 V2000
  190.3870  173.5160  139.8950 C   0  0  0  0  0  2  0  0  0  0  0  0
  188.9870  173.6580  139.4820 N   0  0  0  0  0  0  0  0  0  0  0  0
  188.1700  174.4870  140.0650 C   0  0  0  0  0  3  0  0  0  0  0  0
  189.7290  174.9380  141.8710 C   0  0  0  0  0  3  0  0  0  0  0  0
  188.5930  175.2680  141.2470 C   0  0  0  0  0  0  0  0  0  0  0  0
  190.5320  173.7490  141.4090 C   0  0  2  0  0  3  0  0  0  0  0  0
  187.7810  176.4020  141.7200 C   0  0  0  0  0  0  0  0  0  0  0  0
  186.5980  176.1630  142.4880 N   0  0  0  0  0  2  0  0  0  0  0  0
  188.1220  177.5860  141.4460 O   0  0  0  0  0  0  0  0  0  0  0  0
  185.7650  177.2140  142.8960 N   0  0  0  0  0  2  0  0  0  0  0  0
  185.5080  177.0320  144.3190 C   0  0  0  0  0  2  0  0  0  0  0  0
  186.4150  177.9170  145.1670 C   0  0  1  0  0  3  0  0  0  0  0  0
  185.7070  179.1560  145.6270 C   0  0  0  0  0  0  0  0  0  0  0  0
  185.5380  179.3490  146.8190 O   0  0  0  0  0  0  0  0  0  0  0  0
  185.2690  180.0770  144.7280 F   0  0  0  0  0  0  0  0  0  0  0  0
  187.0050  177.1360  146.3360 C   0  0  0  0  0  2  0  0  0  0  0  0
  192.0190  177.0330  144.7720 S   0  0  0  0  0  0  0  0  0  0  0  0
  190.4940  176.7060  146.7140 C   0  0  0  0  0  0  0  0  0  0  0  0
  191.7390  176.4610  147.2800 C   0  0  0  0  0  3  0  0  0  0  0  0
  189.2870  176.7020  147.2050 O   0  0  0  0  0  0  0  0  0  0  0  0
  188.4850  177.0120  146.1950 C   0  0  0  0  0  0  0  0  0  0  0  0
  192.7130  176.6040  146.2780 C   0  0  0  0  0  0  0  0  0  0  0  0
  189.1850  177.2320  144.9950 C   0  0  0  0  0  3  0  0  0  0  0  0
  190.4750  177.0170  145.4140 C   0  0  0  0  0  0  0  0  0  0  0  0
  194.1760  176.4610  146.5110 C   0  0  0  0  0  2  0  0  0  0  0  0
  194.9420  176.9100  145.2830 C   0  0  0  0  0  1  0  0  0  0  0  0
  191.8740  173.7750  141.8600 O   0  0  0  0  0  0  0  0  0  0  0  0
  191.9160  173.4420  143.2310 C   0  0  1  0  0  3  0  0  0  0  0  0
  191.9000  171.0090  142.6680 O   0  0  0  0  0  0  0  0  0  0  0  0
  190.4810  171.8280  144.2710 O   0  0  0  0  0  1  0  0  0  0  0  0
  191.3850  172.0540  143.4240 C   0  0  0  0  0  0  0  0  0  0  0  0
  193.3440  173.5590  143.7900 C   0  0  1  0  0  3  0  0  0  0  0  0
  193.4280  173.1010  145.2430 C   0  0  0  0  0  2  0  0  0  0  0  0
  194.0030  170.7880  145.2800 O   0  0  0  0  0  0  0  0  0  0  0  0
  195.7830  172.2230  145.6780 N   0  0  0  0  0  2  0  0  0  0  0  0
  194.4040  171.9760  145.3880 C   0  0  0  0  0  0  0  0  0  0  0  0
  196.3320  173.5530  145.9000 C   0  0  0  0  0  2  0  0  0  0  0  0
  197.5910  173.7410  145.0780 C   0  0  0  0  0  1  0  0  0  0  0  0
  194.3090  172.7110  142.9720 C   0  0  0  0  0  2  0  0  0  0  0  0
  195.8890  173.0970  141.2270 O   0  0  0  0  0  0  0  0  0  0  0  0
  195.2530  173.5720  142.2040 C   0  0  0  0  0  0  0  0  0  0  0  0
  195.4310  174.9000  142.5660 O   0  0  0  0  0  1  0  0  0  0  0  0
  1  6  1  0  0  0  0
  2  1  1  0  0  0  0
  2  3  2  0  0  0  0
  3  5  1  0  0  0  0
  5  7  1  0  0  0  0
  5  4  2  0  0  0  0
  6 27  1  6  0  0  0
  6  4  1  0  0  0  0
  7  8  1  0  0  0  0
  8 10  1  0  0  0  0
  9  7  2  0  0  0  0
 10 11  1  0  0  0  0
 12 11  1  1  0  0  0
 12 13  1  0  0  0  0
 12 16  1  0  0  0  0
 13 14  2  0  0  0  0
 15 13  1  0  0  0  0
 17 24  1  0  0  0  0
 17 22  1  0  0  0  0
 18 20  1  0  0  0  0
 18 19  1  0  0  0  0
 21 16  1  0  0  0  0
 21 20  1  0  0  0  0
 22 25  1  0  0  0  0
 22 19  2  0  0  0  0
 23 24  1  0  0  0  0
 23 21  2  0  0  0  0
 24 18  2  0  0  0  0
 26 25  1  0  0  0  0
 28 27  1  6  0  0  0
 28 31  1  0  0  0  0
 28 32  1  0  0  0  0
 29 31  2  0  0  0  0
 31 30  1  0  0  0  0
 32 39  1  6  0  0  0
 32 33  1  0  0  0  0
 33 36  1  0  0  0  0
 34 36  2  0  0  0  0
 35 37  1  0  0  0  0
 36 35  1  0  0  0  0
 38 37  1  0  0  0  0
 40 41  2  0  0  0  0
 41 42  1  0  0  0  0
 41 39  1  0  0  0  0
M  END
>  <MODEL>
6

>  <REMARK>
 VINA RESULT:      -5.3      2.110      3.348
  Name = 
  17 active torsions:
  status: ('A' for Active; 'I' for Inactive)
    1  A    between atoms: C_4  and  C_26
    2  A    between atoms: C_6  and  C_15
    3  A    between atoms: C_6  and  C_21
    4  A    between atoms: C_7  and  C_15
    5  A    between atoms: C_7  and  O_38
    6  A    between atoms: C_7  and  C_41
    7  A    between atoms: C_13  and  C_37
    8  A    between atoms: C_14  and  N_28
    9  A    between atoms: C_15  and  C_39
   10  A    between atoms: C_16  and  C_29
   11  A    between atoms: C_22  and  C_36
   12  A    between atoms: N_24  and  N_25
   13  A    between atoms: N_25  and  C_27
   14  A    between atoms: C_27  and  C_37
   15  A    between atoms: C_33  and  O_38
   16  A    between atoms: C_36  and  C_37
   17  A    between atoms: C_39  and  C_42
                            x       y       z     vdW  Elec       q    Type
                         _______ _______ _______ _____ _____    ______ ____

>  <TORSDO>
F 17

$$$$
=
 OpenBabel11062420023D

 42 44  0  0  1  0  0  0  0  0999 V2000
  187.3210  176.7720  146.5840 C   0  0  0  0  0  2  0  0  0  0  0  0
  188.0300  175.6710  147.2420 N   0  0  0  0  0  0  0  0  0  0  0  0
  189.3180  175.5090  147.1340 C   0  0  0  0  0  3  0  0  0  0  0  0
  189.4980  177.1760  145.3770 C   0  0  0  0  0  3  0  0  0  0  0  0
  190.1230  176.3820  146.2540 C   0  0  0  0  0  0  0  0  0  0  0  0
  187.9970  177.1320  145.2490 C   0  0  2  0  0  3  0  0  0  0  0  0
  191.5920  176.3880  146.3540 C   0  0  0  0  0  0  0  0  0  0  0  0
  192.3850  175.9180  145.2590 N   0  0  0  0  0  2  0  0  0  0  0  0
  192.1570  176.8020  147.4040 O   0  0  0  0  0  0  0  0  0  0  0  0
  193.7820  175.8460  145.3440 N   0  0  0  0  0  2  0  0  0  0  0  0
  194.1090  174.5890  146.0050 C   0  0  0  0  0  2  0  0  0  0  0  0
  195.0300  173.7300  145.1450 C   0  0  1  0  0  3  0  0  0  0  0  0
  196.4650  173.8770  145.5530 C   0  0  0  0  0  0  0  0  0  0  0  0
  197.3290  173.9810  144.6990 O   0  0  0  0  0  0  0  0  0  0  0  0
  196.8100  173.9150  146.8680 F   0  0  0  0  0  0  0  0  0  0  0  0
  194.5860  172.2720  145.1530 C   0  0  0  0  0  2  0  0  0  0  0  0
  190.8330  170.5450  141.9080 S   0  0  0  0  0  0  0  0  0  0  0  0
  192.6890  172.1860  142.1710 C   0  0  0  0  0  0  0  0  0  0  0  0
  192.2120  172.4890  140.9010 C   0  0  0  0  0  3  0  0  0  0  0  0
  193.6490  172.6880  142.8950 O   0  0  0  0  0  0  0  0  0  0  0  0
  193.6450  171.9990  144.0270 C   0  0  0  0  0  0  0  0  0  0  0  0
  191.1480  171.6200  140.6110 C   0  0  0  0  0  0  0  0  0  0  0  0
  192.6470  171.0090  144.0560 C   0  0  0  0  0  3  0  0  0  0  0  0
  192.0720  171.1950  142.8230 C   0  0  0  0  0  0  0  0  0  0  0  0
  190.3510  171.6660  139.3550 C   0  0  0  0  0  2  0  0  0  0  0  0
  189.0680  172.4410  139.5840 C   0  0  0  0  0  1  0  0  0  0  0  0
  187.4590  178.2830  144.6250 O   0  0  0  0  0  0  0  0  0  0  0  0
  186.0860  178.0800  144.3680 C   0  0  1  0  0  3  0  0  0  0  0  0
  185.5460  180.5160  144.2780 O   0  0  0  0  0  0  0  0  0  0  0  0
  184.4360  179.1460  145.7420 O   0  0  0  0  0  1  0  0  0  0  0  0
  185.3080  179.2700  144.8410 C   0  0  0  0  0  0  0  0  0  0  0  0
  185.8290  177.8240  142.8730 C   0  0  1  0  0  3  0  0  0  0  0  0
  186.3210  176.4490  142.4350 C   0  0  0  0  0  2  0  0  0  0  0  0
  187.8300  177.5120  140.9260 O   0  0  0  0  0  0  0  0  0  0  0  0
  188.6600  175.5780  141.9060 N   0  0  0  0  0  2  0  0  0  0  0  0
  187.6330  176.5580  141.7230 C   0  0  0  0  0  0  0  0  0  0  0  0
  188.5020  174.3960  142.7410 C   0  0  0  0  0  2  0  0  0  0  0  0
  189.8210  174.0460  143.4030 C   0  0  0  0  0  1  0  0  0  0  0  0
  184.3400  177.9130  142.5640 C   0  0  0  0  0  2  0  0  0  0  0  0
  182.9780  178.0010  140.6080 O   0  0  0  0  0  1  0  0  0  0  0  0
  184.1120  178.1960  141.1190 C   0  0  0  0  0  0  0  0  0  0  0  0
  185.1520  178.6740  140.3340 O   0  0  0  0  0  0  0  0  0  0  0  0
  1  2  1  0  0  0  0
  3  2  2  0  0  0  0
  4  5  2  0  0  0  0
  5  7  1  0  0  0  0
  5  3  1  0  0  0  0
  6 27  1  1  0  0  0
  6  4  1  0  0  0  0
  6  1  1  0  0  0  0
  7  9  2  0  0  0  0
  8 10  1  0  0  0  0
  8  7  1  0  0  0  0
 10 11  1  0  0  0  0
 12 16  1  1  0  0  0
 12 13  1  0  0  0  0
 12 11  1  0  0  0  0
 13 15  1  0  0  0  0
 14 13  2  0  0  0  0
 17 24  1  0  0  0  0
 18 24  2  0  0  0  0
 18 20  1  0  0  0  0
 19 18  1  0  0  0  0
 20 21  1  0  0  0  0
 21 23  2  0  0  0  0
 21 16  1  0  0  0  0
 22 19  2  0  0  0  0
 22 17  1  0  0  0  0
 24 23  1  0  0  0  0
 25 26  1  0  0  0  0
 25 22  1  0  0  0  0
 28 27  1  6  0  0  0
 28 31  1  0  0  0  0
 29 31  2  0  0  0  0
 31 30  1  0  0  0  0
 32 33  1  1  0  0  0
 32 28  1  0  0  0  0
 34 36  2  0  0  0  0
 35 37  1  0  0  0  0
 36 35  1  0  0  0  0
 36 33  1  0  0  0  0
 37 38  1  0  0  0  0
 39 32  1  0  0  0  0
 40 41  1  0  0  0  0
 41 39  1  0  0  0  0
 42 41  2  0  0  0  0
M  END
>  <MODEL>
7

>  <REMARK>
 VINA RESULT:      -5.3      3.252      8.458
  Name = 
  17 active torsions:
  status: ('A' for Active; 'I' for Inactive)
    1  A    between atoms: C_4  and  C_26
    2  A    between atoms: C_6  and  C_15
    3  A    between atoms: C_6  and  C_21
    4  A    between atoms: C_7  and  C_15
    5  A    between atoms: C_7  and  O_38
    6  A    between atoms: C_7  and  C_41
    7  A    between atoms: C_13  and  C_37
    8  A    between atoms: C_14  and  N_28
    9  A    between atoms: C_15  and  C_39
   10  A    between atoms: C_16  and  C_29
   11  A    between atoms: C_22  and  C_36
   12  A    between atoms: N_24  and  N_25
   13  A    between atoms: N_25  and  C_27
   14  A    between atoms: C_27  and  C_37
   15  A    between atoms: C_33  and  O_38
   16  A    between atoms: C_36  and  C_37
   17  A    between atoms: C_39  and  C_42
                            x       y       z     vdW  Elec       q    Type
                         _______ _______ _______ _____ _____    ______ ____

>  <TORSDO>
F 17

$$$$
=
 OpenBabel11062420023D

 42 44  0  0  1  0  0  0  0  0999 V2000
  191.8750  177.6360  143.5470 C   0  0  0  0  0  2  0  0  0  0  0  0
  192.8280  176.6770  142.9810 N   0  0  0  0  0  0  0  0  0  0  0  0
  192.4460  175.5800  142.3940 C   0  0  0  0  0  3  0  0  0  0  0  0
  190.1490  175.8460  143.1320 C   0  0  0  0  0  3  0  0  0  0  0  0
  191.0190  175.1970  142.3510 C   0  0  0  0  0  0  0  0  0  0  0  0
  190.6290  176.9100  144.0850 C   0  0  2  0  0  3  0  0  0  0  0  0
  190.5610  174.1260  141.4500 C   0  0  0  0  0  0  0  0  0  0  0  0
  191.4800  173.5220  140.5340 N   0  0  0  0  0  2  0  0  0  0  0  0
  189.3600  173.7410  141.4780 O   0  0  0  0  0  0  0  0  0  0  0  0
  191.0630  172.5490  139.6150 N   0  0  0  0  0  2  0  0  0  0  0  0
  192.0040  171.4400  139.7060 C   0  0  0  0  0  2  0  0  0  0  0  0
  191.3670  170.2210  140.3650 C   0  0  1  0  0  3  0  0  0  0  0  0
  191.0270  169.1610  139.3610 C   0  0  0  0  0  0  0  0  0  0  0  0
  191.5510  169.1810  138.2600 O   0  0  0  0  0  0  0  0  0  0  0  0
  190.1550  168.1660  139.6730 F   0  0  0  0  0  0  0  0  0  0  0  0
  192.2500  169.6790  141.4830 C   0  0  0  0  0  2  0  0  0  0  0  0
  194.2250  173.2990  144.7380 S   0  0  0  0  0  0  0  0  0  0  0  0
  192.1370  172.1530  144.0050 C   0  0  0  0  0  0  0  0  0  0  0  0
  191.6620  173.0320  144.9710 C   0  0  0  0  0  3  0  0  0  0  0  0
  191.5460  171.2780  143.2430 O   0  0  0  0  0  0  0  0  0  0  0  0
  192.5060  170.7270  142.5120 C   0  0  0  0  0  0  0  0  0  0  0  0
  192.7510  173.7520  145.4860 C   0  0  0  0  0  0  0  0  0  0  0  0
  193.7770  171.2590  142.7980 C   0  0  0  0  0  3  0  0  0  0  0  0
  193.4530  172.1740  143.7700 C   0  0  0  0  0  0  0  0  0  0  0  0
  192.6330  174.8220  146.5140 C   0  0  0  0  0  2  0  0  0  0  0  0
  193.7490  175.8330  146.3380 C   0  0  0  0  0  1  0  0  0  0  0  0
  189.5980  177.7800  144.5130 O   0  0  0  0  0  0  0  0  0  0  0  0
  188.5690  177.0280  145.1200 C   0  0  1  0  0  3  0  0  0  0  0  0
  189.3410  177.7430  147.3840 O   0  0  0  0  0  1  0  0  0  0  0  0
  188.9010  175.5330  146.9640 O   0  0  0  0  0  0  0  0  0  0  0  0
  188.9460  176.7170  146.5360 C   0  0  0  0  0  0  0  0  0  0  0  0
  187.2260  177.7740  145.0670 C   0  0  1  0  0  3  0  0  0  0  0  0
  187.0190  178.4880  143.7360 C   0  0  0  0  0  2  0  0  0  0  0  0
  185.5670  180.1830  144.5730 O   0  0  0  0  0  0  0  0  0  0  0  0
  184.6770  178.9360  142.8290 N   0  0  0  0  0  2  0  0  0  0  0  0
  185.7350  179.2560  143.7390 C   0  0  0  0  0  0  0  0  0  0  0  0
  184.7390  177.8330  141.8820 C   0  0  0  0  0  2  0  0  0  0  0  0
  184.3890  178.3210  140.4900 C   0  0  0  0  0  1  0  0  0  0  0  0
  186.0680  176.8050  145.2680 C   0  0  0  0  0  2  0  0  0  0  0  0
  184.2170  177.6530  146.5110 O   0  0  0  0  0  0  0  0  0  0  0  0
  185.3460  177.0950  146.5390 C   0  0  0  0  0  0  0  0  0  0  0  0
  185.9170  176.7500  147.7560 O   0  0  0  0  0  1  0  0  0  0  0  0
  1  6  1  0  0  0  0
  2  1  1  0  0  0  0
  3  2  2  0  0  0  0
  4  6  1  0  0  0  0
  5  3  1  0  0  0  0
  5  4  2  0  0  0  0
  6 27  1  6  0  0  0
  7  9  2  0  0  0  0
  7  5  1  0  0  0  0
  8  7  1  0  0  0  0
 10 11  1  0  0  0  0
 10  8  1  0  0  0  0
 12 11  1  6  0  0  0
 12 16  1  0  0  0  0
 13 15  1  0  0  0  0
 13 12  1  0  0  0  0
 14 13  2  0  0  0  0
 16 21  1  0  0  0  0
 17 22  1  0  0  0  0
 18 19  1  0  0  0  0
 19 22  2  0  0  0  0
 20 18  1  0  0  0  0
 21 23  2  0  0  0  0
 21 20  1  0  0  0  0
 22 25  1  0  0  0  0
 23 24  1  0  0  0  0
 24 18  2  0  0  0  0
 24 17  1  0  0  0  0
 26 25  1  0  0  0  0
 28 27  1  1  0  0  0
 28 31  1  0  0  0  0
 31 30  2  0  0  0  0
 31 29  1  0  0  0  0
 32 33  1  6  0  0  0
 32 28  1  0  0  0  0
 32 39  1  0  0  0  0
 33 36  1  0  0  0  0
 35 36  1  0  0  0  0
 36 34  2  0  0  0  0
 37 35  1  0  0  0  0
 38 37  1  0  0  0  0
 39 41  1  0  0  0  0
 40 41  2  0  0  0  0
 41 42  1  0  0  0  0
M  END
>  <MODEL>
8

>  <REMARK>
 VINA RESULT:      -5.3      3.245      8.294
  Name = 
  17 active torsions:
  status: ('A' for Active; 'I' for Inactive)
    1  A    between atoms: C_4  and  C_26
    2  A    between atoms: C_6  and  C_15
    3  A    between atoms: C_6  and  C_21
    4  A    between atoms: C_7  and  C_15
    5  A    between atoms: C_7  and  O_38
    6  A    between atoms: C_7  and  C_41
    7  A    between atoms: C_13  and  C_37
    8  A    between atoms: C_14  and  N_28
    9  A    between atoms: C_15  and  C_39
   10  A    between atoms: C_16  and  C_29
   11  A    between atoms: C_22  and  C_36
   12  A    between atoms: N_24  and  N_25
   13  A    between atoms: N_25  and  C_27
   14  A    between atoms: C_27  and  C_37
   15  A    between atoms: C_33  and  O_38
   16  A    between atoms: C_36  and  C_37
   17  A    between atoms: C_39  and  C_42
                            x       y       z     vdW  Elec       q    Type
                         _______ _______ _______ _____ _____    ______ ____

>  <TORSDO>
F 17

$$$$
=
 OpenBabel11062420023D

 42 44  0  0  1  0  0  0  0  0999 V2000
  189.0370  174.3550  143.7750 C   0  0  0  0  0  2  0  0  0  0  0  0
  189.9150  173.1820  143.7250 N   0  0  0  0  0  0  0  0  0  0  0  0
  190.5470  172.8310  142.6420 C   0  0  0  0  0  3  0  0  0  0  0  0
  189.3050  174.4020  141.2690 C   0  0  0  0  0  3  0  0  0  0  0  0
  190.3330  173.5510  141.3700 C   0  0  0  0  0  0  0  0  0  0  0  0
  188.3460  174.5730  142.4180 C   0  0  2  0  0  3  0  0  0  0  0  0
  191.2490  173.3470  140.2340 C   0  0  0  0  0  0  0  0  0  0  0  0
  192.4140  174.1670  140.1000 N   0  0  0  0  0  2  0  0  0  0  0  0
  191.0080  172.4540  139.3750 O   0  0  0  0  0  0  0  0  0  0  0  0
  193.2700  174.0460  138.9960 N   0  0  0  0  0  2  0  0  0  0  0  0
  194.2660  175.1040  139.1060 C   0  0  0  0  0  2  0  0  0  0  0  0
  195.0050  175.0370  140.4390 C   0  0  1  0  0  3  0  0  0  0  0  0
  196.4610  174.7300  140.2510 C   0  0  0  0  0  0  0  0  0  0  0  0
  196.8230  174.0890  139.2790 O   0  0  0  0  0  0  0  0  0  0  0  0
  197.3830  175.1780  141.1440 F   0  0  0  0  0  0  0  0  0  0  0  0
  194.7950  176.3130  141.2460 C   0  0  0  0  0  2  0  0  0  0  0  0
  193.6920  174.6900  146.1190 S   0  0  0  0  0  0  0  0  0  0  0  0
  192.8500  176.0120  144.1830 C   0  0  0  0  0  0  0  0  0  0  0  0
  191.8190  176.1560  145.1030 C   0  0  0  0  0  3  0  0  0  0  0  0
  193.0230  176.4660  142.9740 O   0  0  0  0  0  0  0  0  0  0  0  0
  194.2020  176.0040  142.5800 C   0  0  0  0  0  0  0  0  0  0  0  0
  192.1590  175.4420  146.2630 C   0  0  0  0  0  0  0  0  0  0  0  0
  194.8330  175.2200  143.5620 C   0  0  0  0  0  3  0  0  0  0  0  0
  193.8980  175.2750  144.5660 C   0  0  0  0  0  0  0  0  0  0  0  0
  191.3200  175.3950  147.4900 C   0  0  0  0  0  2  0  0  0  0  0  0
  191.0600  176.8010  147.9940 C   0  0  0  0  0  1  0  0  0  0  0  0
  187.5960  175.7710  142.3420 O   0  0  0  0  0  0  0  0  0  0  0  0
  188.1640  176.7370  143.2000 C   0  0  1  0  0  3  0  0  0  0  0  0
  190.0890  178.2920  142.8720 O   0  0  0  0  0  1  0  0  0  0  0  0
  188.4670  178.1160  141.2630 O   0  0  0  0  0  0  0  0  0  0  0  0
  188.9060  177.7530  142.3870 C   0  0  0  0  0  0  0  0  0  0  0  0
  187.0890  177.4160  144.0660 C   0  0  1  0  0  3  0  0  0  0  0  0
  187.6540  177.9110  145.3940 C   0  0  0  0  0  2  0  0  0  0  0  0
  187.8130  175.9030  146.6690 O   0  0  0  0  0  0  0  0  0  0  0  0
  186.1740  177.3740  147.4010 N   0  0  0  0  0  2  0  0  0  0  0  0
  187.2370  177.0120  146.5150 C   0  0  0  0  0  0  0  0  0  0  0  0
  185.3920  178.5940  147.2610 C   0  0  0  0  0  2  0  0  0  0  0  0
  184.0880  178.2970  146.5460 C   0  0  0  0  0  1  0  0  0  0  0  0
  186.4890  178.6090  143.3340 C   0  0  0  0  0  2  0  0  0  0  0  0
  184.1030  178.5990  143.3050 O   0  0  0  0  0  1  0  0  0  0  0  0
  185.1710  178.2560  142.7330 C   0  0  0  0  0  0  0  0  0  0  0  0
  185.1210  177.5470  141.5410 O   0  0  0  0  0  0  0  0  0  0  0  0
  2  1  1  0  0  0  0
  3  2  2  0  0  0  0
  4  5  2  0  0  0  0
  4  6  1  0  0  0  0
  5  3  1  0  0  0  0
  6 27  1  1  0  0  0
  6  1  1  0  0  0  0
  7  5  1  0  0  0  0
  8  7  1  0  0  0  0
  9  7  2  0  0  0  0
 10 11  1  0  0  0  0
 10  8  1  0  0  0  0
 12 11  1  6  0  0  0
 12 16  1  0  0  0  0
 13 12  1  0  0  0  0
 13 15  1  0  0  0  0
 14 13  2  0  0  0  0
 16 21  1  0  0  0  0
 17 22  1  0  0  0  0
 18 24  2  0  0  0  0
 18 19  1  0  0  0  0
 19 22  2  0  0  0  0
 20 18  1  0  0  0  0
 21 20  1  0  0  0  0
 21 23  2  0  0  0  0
 22 25  1  0  0  0  0
 23 24  1  0  0  0  0
 24 17  1  0  0  0  0
 25 26  1  0  0  0  0
 28 27  1  6  0  0  0
 28 32  1  0  0  0  0
 30 31  2  0  0  0  0
 31 29  1  0  0  0  0
 31 28  1  0  0  0  0
 32 39  1  6  0  0  0
 32 33  1  0  0  0  0
 33 36  1  0  0  0  0
 36 34  2  0  0  0  0
 36 35  1  0  0  0  0
 37 35  1  0  0  0  0
 38 37  1  0  0  0  0
 41 40  1  0  0  0  0
 41 39  1  0  0  0  0
 42 41  2  0  0  0  0
M  END
>  <MODEL>
9

>  <REMARK>
 VINA RESULT:      -5.3      3.406      7.858
  Name = 
  17 active torsions:
  status: ('A' for Active; 'I' for Inactive)
    1  A    between atoms: C_4  and  C_26
    2  A    between atoms: C_6  and  C_15
    3  A    between atoms: C_6  and  C_21
    4  A    between atoms: C_7  and  C_15
    5  A    between atoms: C_7  and  O_38
    6  A    between atoms: C_7  and  C_41
    7  A    between atoms: C_13  and  C_37
    8  A    between atoms: C_14  and  N_28
    9  A    between atoms: C_15  and  C_39
   10  A    between atoms: C_16  and  C_29
   11  A    between atoms: C_22  and  C_36
   12  A    between atoms: N_24  and  N_25
   13  A    between atoms: N_25  and  C_27
   14  A    between atoms: C_27  and  C_37
   15  A    between atoms: C_33  and  O_38
   16  A    between atoms: C_36  and  C_37
   17  A    between atoms: C_39  and  C_42
                            x       y       z     vdW  Elec       q    Type
                         _______ _______ _______ _____ _____    ______ ____

>  <TORSDO>
F 17

$$$$
