=
 OpenBabel11062419173D

 50 56  0  0  1  0  0  0  0  0999 V2000
  190.8370  173.4370  142.6180 N   0  0  0  0  0  0  0  0  0  0  0  0
  189.5410  175.4870  142.4760 C   0  0  0  0  0  0  0  0  0  0  0  0
  190.5810  174.6170  143.1030 C   0  0  0  0  0  0  0  0  0  0  0  0
  190.2680  172.8920  141.3850 C   0  0  1  0  0  3  0  0  0  0  0  0
  189.3610  176.8970  142.9740 C   0  0  1  0  0  3  0  0  0  0  0  0
  188.8340  175.0180  141.4390 C   0  0  0  0  0  3  0  0  0  0  0  0
  189.0950  173.6870  140.8890 C   0  0  0  0  0  0  0  0  0  0  0  0
  191.1020  177.5240  144.3050 C   0  0  0  0  0  2  0  0  0  0  0  0
  191.0650  176.1630  145.0350 C   0  0  1  0  0  3  0  0  0  0  0  0
  191.3570  175.0520  144.1860 O   0  0  0  0  0  0  0  0  0  0  0  0
  188.3610  173.2270  139.9750 O   0  0  0  0  0  0  0  0  0  0  0  0
  190.6210  177.5060  142.9780 O   0  0  0  0  0  0  0  0  0  0  0  0
  192.0350  176.1580  146.2230 C   0  0  2  0  0  3  0  0  0  0  0  0
  192.8150  175.0040  146.2020 O   0  0  0  0  0  1  0  0  0  0  0  0
  191.2610  176.2670  147.6540 C   0  0  0  0  0  2  0  0  0  0  0  0
  190.6150  176.6920  147.8310 N   0  0  0  0  0  2  0  0  0  0  0  0
  191.6060  177.5710  148.3700 C   0  0  0  0  0  3  0  0  0  0  0  0
  191.5750  177.7730  149.6210 O   0  0  0  0  0  0  0  0  0  0  0  0
  188.3800  177.7240  142.1260 C   0  0  0  0  0  2  0  0  0  0  0  0
  185.2160  176.4770  147.0460 F   0  0  0  0  0  0  0  0  0  0  0  0
  186.9030  177.4890  142.4440 C   0  0  1  0  0  0  0  0  0  0  0  0
  185.5150  179.7220  145.1470 C   0  0  0  0  0  3  0  0  0  0  0  0
  186.0550  176.4600  144.9070 C   0  0  0  0  0  3  0  0  0  0  0  0
  185.8150  179.7920  143.6560 C   0  0  0  0  0  2  0  0  0  0  0  0
  185.5690  177.1710  145.9390 C   0  0  0  0  0  0  0  0  0  0  0  0
  185.4030  178.6760  146.0180 C   0  0  0  0  0  3  0  0  0  0  0  0
  186.0640  177.1460  141.3850 O   0  0  0  0  0  1  0  0  0  0  0  0
  186.4300  177.1680  143.7180 C   0  0  0  0  0  0  0  0  0  0  0  0
  186.3500  178.5010  143.2310 C   0  0  0  0  0  0  0  0  0  0  0  0
  191.3510  172.7430  140.3090 C   0  0  0  0  0  2  0  0  0  0  0  0
  192.3030  173.9370  140.2270 C   0  0  0  0  0  2  0  0  0  0  0  0
  193.6220  173.5330  139.5860 C   0  0  1  0  0  3  0  0  0  0  0  0
  194.2770  174.7280  138.9330 C   0  0  0  0  0  2  0  0  0  0  0  0
  194.7630  174.2420  140.2920 C   0  0  2  0  0  3  0  0  0  0  0  0
  197.4590  175.3340  139.7180 O   0  0  0  0  0  1  0  0  0  0  0  0
  195.2610  172.0310  142.2110 C   0  0  0  0  0  2  0  0  0  0  0  0
  197.3440  174.1720  140.4910 C   0  0  1  0  0  3  0  0  0  0  0  0
  196.2730  173.7320  143.8550 O   0  0  0  0  0  0  0  0  0  0  0  0
  196.7470  171.8370  145.7330 C   0  0  0  0  0  1  0  0  0  0  0  0
  196.4300  171.3130  144.3440 C   0  0  2  0  0  3  0  0  0  0  0  0
  197.4240  171.7250  143.4220 O   0  0  0  0  0  0  0  0  0  0  0  0
  195.9440  172.0320  140.8360 C   0  0  0  0  0  2  0  0  0  0  0  0
  196.3230  174.6340  142.7770 C   0  0  2  0  0  3  0  0  0  0  0  0
  196.1930  172.4090  143.3650 C   0  0  1  0  0  0  0  0  0  0  0  0
  197.6190  174.4890  141.9710 C   0  0  0  0  0  2  0  0  0  0  0  0
  196.0440  173.4090  140.1530 C   0  0  1  0  0  3  0  0  0  0  0  0
  195.5000  176.0840  144.5260 O   0  0  0  0  0  1  0  0  0  0  0  0
  195.0870  176.6220  142.3670 F   0  0  0  0  0  0  0  0  0  0  0  0
  197.2440  176.9710  143.1830 C   0  0  0  0  0  1  0  0  0  0  0  0
  196.0140  176.0750  143.2300 C   0  0  2  0  0  0  0  0  0  0  0  0
  1  3  2  0  0  0  0
  2  5  1  0  0  0  0
  2  3  1  0  0  0  0
  3 10  1  0  0  0  0
  4 30  1  6  0  0  0
  4  1  1  0  0  0  0
  5 19  1  6  0  0  0
  5 12  1  0  0  0  0
  6  2  2  0  0  0  0
  7  4  1  0  0  0  0
  7  6  1  0  0  0  0
  8  9  1  0  0  0  0
  9 13  1  1  0  0  0
 10  9  1  0  0  0  0
 11  7  2  0  0  0  0
 12  8  1  0  0  0  0
 13 14  1  1  0  0  0
 13 15  1  0  0  0  0
 15 16  1  0  0  0  0
 16 17  1  0  0  0  0
 17 18  2  0  0  0  0
 19 21  1  0  0  0  0
 21 27  1  6  0  0  0
 21 29  1  0  0  0  0
 21 28  1  0  0  0  0
 22 26  2  0  0  0  0
 23 25  2  0  0  0  0
 24 22  1  0  0  0  0
 25 26  1  0  0  0  0
 25 20  1  0  0  0  0
 28 23  1  0  0  0  0
 29 24  1  0  0  0  0
 29 28  2  0  0  0  0
 31 30  1  0  0  0  0
 32 31  1  1  0  0  0
 32 34  1  0  0  0  0
 33 32  1  0  0  0  0
 34 33  1  6  0  0  0
 37 35  1  6  0  0  0
 37 45  1  0  0  0  0
 40 39  1  1  0  0  0
 41 40  1  0  0  0  0
 42 36  1  0  0  0  0
 43 50  1  1  0  0  0
 43 38  1  0  0  0  0
 44 36  1  6  0  0  0
 44 41  1  0  0  0  0
 44 38  1  0  0  0  0
 44 40  1  0  0  0  0
 45 43  1  0  0  0  0
 46 34  1  0  0  0  0
 46 37  1  0  0  0  0
 46 42  1  1  0  0  0
 48 50  1  0  0  0  0
 50 49  1  6  0  0  0
 50 47  1  0  0  0  0
M  END
>  <MODEL>
1

>  <REMARK>
 VINA RESULT:      -8.6      0.000      0.000
  Name = 
  10 active torsions:
  status: ('A' for Active; 'I' for Inactive)
    1  A    between atoms: C_3  and  C_15
    2  A    between atoms: C_6  and  C_21
    3  A    between atoms: C_8  and  C_14
    4  A    between atoms: C_14  and  C_19
    5  A    between atoms: C_15  and  C_21
    6  A    between atoms: C_20  and  C_24
    7  A    between atoms: C_24  and  C_35
    8  A    between atoms: C_28  and  C_44
    9  A    between atoms: C_35  and  C_46
   10  A    between atoms: C_37  and  C_45
                            x       y       z     vdW  Elec       q    Type
                         _______ _______ _______ _____ _____    ______ ____

>  <TORSDO>
F 10

$$$$
=
 OpenBabel11062419173D

 50 56  0  0  1  0  0  0  0  0999 V2000
  192.1840  173.3990  142.6990 N   0  0  0  0  0  0  0  0  0  0  0  0
  190.3500  174.9870  142.8140 C   0  0  0  0  0  0  0  0  0  0  0  0
  191.5730  174.3320  143.3680 C   0  0  0  0  0  0  0  0  0  0  0  0
  191.8520  172.9850  141.3350 C   0  0  1  0  0  3  0  0  0  0  0  0
  189.7410  176.1540  143.5470 C   0  0  1  0  0  3  0  0  0  0  0  0
  189.8560  174.5650  141.6420 C   0  0  0  0  0  3  0  0  0  0  0  0
  190.5190  173.5050  140.8820 C   0  0  0  0  0  0  0  0  0  0  0  0
  191.1650  176.9520  145.1380 C   0  0  0  0  0  2  0  0  0  0  0  0
  191.5000  175.5140  145.5940 C   0  0  1  0  0  3  0  0  0  0  0  0
  192.1410  174.7320  144.5850 O   0  0  0  0  0  0  0  0  0  0  0  0
  189.9910  173.0580  139.8290 O   0  0  0  0  0  0  0  0  0  0  0  0
  190.7660  177.0770  143.7900 O   0  0  0  0  0  0  0  0  0  0  0  0
  192.3790  175.5350  146.8500 C   0  0  2  0  0  3  0  0  0  0  0  0
  192.0160  176.5980  147.6740 O   0  0  0  0  0  1  0  0  0  0  0  0
  193.9670  175.6410  146.4920 C   0  0  0  0  0  2  0  0  0  0  0  0
  194.7570  175.6890  146.4500 N   0  0  0  0  0  2  0  0  0  0  0  0
  194.4640  177.0800  146.6070 C   0  0  0  0  0  3  0  0  0  0  0  0
  194.7790  177.8460  145.6480 O   0  0  0  0  0  0  0  0  0  0  0  0
  188.5960  176.8300  142.7750 C   0  0  0  0  0  2  0  0  0  0  0  0
  185.9230  177.6650  148.0590 F   0  0  0  0  0  0  0  0  0  0  0  0
  187.2010  176.5740  143.3450 C   0  0  1  0  0  0  0  0  0  0  0  0
  185.5490  179.6110  144.8500 C   0  0  0  0  0  3  0  0  0  0  0  0
  186.6590  176.7430  146.0880 C   0  0  0  0  0  3  0  0  0  0  0  0
  185.7690  179.0000  143.4730 C   0  0  0  0  0  2  0  0  0  0  0  0
  186.0960  177.7860  146.7220 C   0  0  0  0  0  0  0  0  0  0  0  0
  185.6660  179.1060  146.1130 C   0  0  0  0  0  3  0  0  0  0  0  0
  186.3940  175.6540  142.6780 O   0  0  0  0  0  1  0  0  0  0  0  0
  186.8490  176.8400  144.6700 C   0  0  0  0  0  0  0  0  0  0  0  0
  186.5090  177.7510  143.6330 C   0  0  0  0  0  0  0  0  0  0  0  0
  192.9750  173.3730  140.3630 C   0  0  0  0  0  2  0  0  0  0  0  0
  193.2880  172.2940  139.3260 C   0  0  0  0  0  2  0  0  0  0  0  0
  194.7850  172.2120  139.0680 C   0  0  1  0  0  3  0  0  0  0  0  0
  195.2780  173.4880  138.4240 C   0  0  0  0  0  2  0  0  0  0  0  0
  195.5000  173.2500  139.9120 C   0  0  2  0  0  3  0  0  0  0  0  0
  197.9410  174.8760  139.4790 O   0  0  0  0  0  1  0  0  0  0  0  0
  196.0670  171.7220  142.3940 C   0  0  0  0  0  2  0  0  0  0  0  0
  197.9300  173.9210  140.5030 C   0  0  1  0  0  3  0  0  0  0  0  0
  196.3040  173.9450  143.6680 O   0  0  0  0  0  0  0  0  0  0  0  0
  196.7880  172.6990  146.0250 C   0  0  0  0  0  1  0  0  0  0  0  0
  196.8940  171.8220  144.7900 C   0  0  2  0  0  3  0  0  0  0  0  0
  197.9410  172.2770  143.9510 O   0  0  0  0  0  0  0  0  0  0  0  0
  197.0060  171.6110  141.1840 C   0  0  0  0  0  2  0  0  0  0  0  0
  196.3760  174.5730  142.4110 C   0  0  2  0  0  3  0  0  0  0  0  0
  196.6270  172.5760  143.5350 C   0  0  1  0  0  0  0  0  0  0  0  0
  197.8110  174.6120  141.8730 C   0  0  0  0  0  2  0  0  0  0  0  0
  196.9350  172.7830  140.1870 C   0  0  1  0  0  3  0  0  0  0  0  0
  196.5040  176.9300  142.9310 O   0  0  0  0  0  1  0  0  0  0  0  0
  194.5360  175.8470  143.2080 F   0  0  0  0  0  0  0  0  0  0  0  0
  195.2010  176.3600  141.0320 C   0  0  0  0  0  1  0  0  0  0  0  0
  195.6640  175.9410  142.4200 C   0  0  2  0  0  0  0  0  0  0  0  0
  1  3  2  0  0  0  0
  2  3  1  0  0  0  0
  2  5  1  0  0  0  0
  3 10  1  0  0  0  0
  4 30  1  6  0  0  0
  4  1  1  0  0  0  0
  5 19  1  6  0  0  0
  5 12  1  0  0  0  0
  6  2  2  0  0  0  0
  7  4  1  0  0  0  0
  7  6  1  0  0  0  0
  8  9  1  0  0  0  0
  9 13  1  1  0  0  0
 10  9  1  0  0  0  0
 11  7  2  0  0  0  0
 12  8  1  0  0  0  0
 13 14  1  1  0  0  0
 15 13  1  0  0  0  0
 16 15  1  0  0  0  0
 16 17  1  0  0  0  0
 18 17  2  0  0  0  0
 19 21  1  0  0  0  0
 21 27  1  6  0  0  0
 21 29  1  0  0  0  0
 21 28  1  0  0  0  0
 22 26  2  0  0  0  0
 23 25  2  0  0  0  0
 24 29  1  0  0  0  0
 24 22  1  0  0  0  0
 25 20  1  0  0  0  0
 26 25  1  0  0  0  0
 28 23  1  0  0  0  0
 29 28  2  0  0  0  0
 31 30  1  0  0  0  0
 32 31  1  1  0  0  0
 32 34  1  0  0  0  0
 33 32  1  0  0  0  0
 34 33  1  6  0  0  0
 34 46  1  0  0  0  0
 37 35  1  6  0  0  0
 37 45  1  0  0  0  0
 40 39  1  1  0  0  0
 41 40  1  0  0  0  0
 42 36  1  0  0  0  0
 43 50  1  1  0  0  0
 43 38  1  0  0  0  0
 44 36  1  6  0  0  0
 44 38  1  0  0  0  0
 44 41  1  0  0  0  0
 44 40  1  0  0  0  0
 45 43  1  0  0  0  0
 46 37  1  0  0  0  0
 46 42  1  1  0  0  0
 50 49  1  6  0  0  0
 50 47  1  0  0  0  0
 50 48  1  0  0  0  0
M  END
>  <MODEL>
2

>  <REMARK>
 VINA RESULT:      -8.5      1.396      1.701
  Name = 
  10 active torsions:
  status: ('A' for Active; 'I' for Inactive)
    1  A    between atoms: C_3  and  C_15
    2  A    between atoms: C_6  and  C_21
    3  A    between atoms: C_8  and  C_14
    4  A    between atoms: C_14  and  C_19
    5  A    between atoms: C_15  and  C_21
    6  A    between atoms: C_20  and  C_24
    7  A    between atoms: C_24  and  C_35
    8  A    between atoms: C_28  and  C_44
    9  A    between atoms: C_35  and  C_46
   10  A    between atoms: C_37  and  C_45
                            x       y       z     vdW  Elec       q    Type
                         _______ _______ _______ _____ _____    ______ ____

>  <TORSDO>
F 10

$$$$
=
 OpenBabel11062419173D

 50 56  0  0  1  0  0  0  0  0999 V2000
  190.2730  172.8270  143.8180 N   0  0  0  0  0  0  0  0  0  0  0  0
  189.1300  172.7390  141.6760 C   0  0  0  0  0  0  0  0  0  0  0  0
  189.4580  173.3940  142.9780 C   0  0  0  0  0  0  0  0  0  0  0  0
  191.0370  171.6070  143.5570 C   0  0  1  0  0  3  0  0  0  0  0  0
  188.2920  173.4790  140.6680 C   0  0  1  0  0  3  0  0  0  0  0  0
  189.6430  171.5310  141.4060 C   0  0  0  0  0  3  0  0  0  0  0  0
  190.5490  170.8680  142.3440 C   0  0  0  0  0  0  0  0  0  0  0  0
  188.1110  175.6840  141.2150 C   0  0  0  0  0  2  0  0  0  0  0  0
  187.8560  175.3200  142.6950 C   0  0  1  0  0  3  0  0  0  0  0  0
  188.9580  174.6590  143.3170 O   0  0  0  0  0  0  0  0  0  0  0  0
  190.9480  169.6950  142.1150 O   0  0  0  0  0  0  0  0  0  0  0  0
  188.8690  174.7420  140.4870 O   0  0  0  0  0  0  0  0  0  0  0  0
  187.4950  176.5710  143.5060 C   0  0  2  0  0  3  0  0  0  0  0  0
  187.6620  176.3260  144.8670 O   0  0  0  0  0  1  0  0  0  0  0  0
  185.9690  177.0710  143.2260 C   0  0  0  0  0  2  0  0  0  0  0  0
  185.2510  177.2860  142.9640 N   0  0  0  0  0  2  0  0  0  0  0  0
  185.9410  178.5210  142.7490 C   0  0  0  0  0  3  0  0  0  0  0  0
  185.5430  179.5240  143.4140 O   0  0  0  0  0  0  0  0  0  0  0  0
  188.1800  172.7540  139.3160 C   0  0  0  0  0  2  0  0  0  0  0  0
  193.9460  173.0340  137.7500 F   0  0  0  0  0  0  0  0  0  0  0  0
  188.9720  173.3970  138.1770 C   0  0  1  0  0  0  0  0  0  0  0  0
  191.1480  171.0020  136.2420 C   0  0  0  0  0  3  0  0  0  0  0  0
  191.7670  173.5840  138.2270 C   0  0  0  0  0  3  0  0  0  0  0  0
  189.6880  171.4290  136.2890 C   0  0  0  0  0  2  0  0  0  0  0  0
  192.6270  172.7690  137.5930 C   0  0  0  0  0  0  0  0  0  0  0  0
  192.2890  171.5580  136.7470 C   0  0  0  0  0  3  0  0  0  0  0  0
  188.3620  174.4370  137.4780 O   0  0  0  0  0  1  0  0  0  0  0  0
  190.3630  173.3330  138.0730 C   0  0  0  0  0  0  0  0  0  0  0  0
  189.5390  172.4590  137.3140 C   0  0  0  0  0  0  0  0  0  0  0  0
  192.5380  171.9150  143.4700 C   0  0  0  0  0  2  0  0  0  0  0  0
  193.3880  171.1050  144.4480 C   0  0  0  0  0  2  0  0  0  0  0  0
  194.2260  172.0250  145.3250 C   0  0  1  0  0  3  0  0  0  0  0  0
  195.6820  171.9510  144.9240 C   0  0  0  0  0  2  0  0  0  0  0  0
  194.8260  173.1270  144.4710 C   0  0  2  0  0  3  0  0  0  0  0  0
  197.1820  174.9130  144.2500 O   0  0  0  0  0  1  0  0  0  0  0  0
  192.5690  174.9600  145.0740 C   0  0  0  0  0  2  0  0  0  0  0  0
  195.9580  175.4470  144.6720 C   0  0  1  0  0  3  0  0  0  0  0  0
  192.9940  176.1630  142.8390 O   0  0  0  0  0  0  0  0  0  0  0  0
  190.9340  177.8820  143.2180 C   0  0  0  0  0  1  0  0  0  0  0  0
  191.3700  177.1060  144.4470 C   0  0  2  0  0  3  0  0  0  0  0  0
  192.7020  177.4400  144.7950 O   0  0  0  0  0  0  0  0  0  0  0  0
  193.8020  174.9210  145.9880 C   0  0  0  0  0  2  0  0  0  0  0  0
  194.2330  175.4970  142.8010 C   0  0  2  0  0  3  0  0  0  0  0  0
  192.5110  176.1920  144.1660 C   0  0  1  0  0  0  0  0  0  0  0  0
  195.3240  176.2780  143.5440 C   0  0  0  0  0  2  0  0  0  0  0  0
  195.0830  174.3630  145.3410 C   0  0  1  0  0  3  0  0  0  0  0  0
  195.4700  176.0300  140.7940 O   0  0  0  0  0  1  0  0  0  0  0  0
  193.4610  175.0060  140.6080 F   0  0  0  0  0  0  0  0  0  0  0  0
  195.2770  173.7220  141.3070 C   0  0  0  0  0  1  0  0  0  0  0  0
  194.6120  175.0900  141.3630 C   0  0  2  0  0  0  0  0  0  0  0  0
  2  3  1  0  0  0  0
  3 10  1  0  0  0  0
  3  1  2  0  0  0  0
  4 30  1  6  0  0  0
  4  1  1  0  0  0  0
  5 19  1  6  0  0  0
  5  2  1  0  0  0  0
  6  2  2  0  0  0  0
  6  7  1  0  0  0  0
  7  4  1  0  0  0  0
  8  9  1  0  0  0  0
  9 10  1  0  0  0  0
  9 13  1  1  0  0  0
 11  7  2  0  0  0  0
 12  5  1  0  0  0  0
 12  8  1  0  0  0  0
 13 14  1  1  0  0  0
 15 13  1  0  0  0  0
 16 15  1  0  0  0  0
 17 16  1  0  0  0  0
 17 18  2  0  0  0  0
 21 27  1  6  0  0  0
 21 19  1  0  0  0  0
 22 24  1  0  0  0  0
 22 26  2  0  0  0  0
 24 29  1  0  0  0  0
 25 20  1  0  0  0  0
 25 23  2  0  0  0  0
 26 25  1  0  0  0  0
 28 21  1  0  0  0  0
 28 23  1  0  0  0  0
 29 28  2  0  0  0  0
 29 21  1  0  0  0  0
 30 31  1  0  0  0  0
 32 31  1  6  0  0  0
 33 32  1  0  0  0  0
 34 33  1  1  0  0  0
 34 32  1  0  0  0  0
 34 46  1  0  0  0  0
 36 42  1  0  0  0  0
 37 35  1  6  0  0  0
 37 46  1  0  0  0  0
 38 44  1  0  0  0  0
 40 39  1  6  0  0  0
 40 41  1  0  0  0  0
 43 50  1  6  0  0  0
 43 38  1  0  0  0  0
 43 45  1  0  0  0  0
 44 40  1  0  0  0  0
 44 41  1  0  0  0  0
 44 36  1  1  0  0  0
 45 37  1  0  0  0  0
 46 42  1  6  0  0  0
 47 50  1  0  0  0  0
 48 50  1  0  0  0  0
 50 49  1  1  0  0  0
M  END
>  <MODEL>
3

>  <REMARK>
 VINA RESULT:      -8.5      2.735      6.600
  Name = 
  10 active torsions:
  status: ('A' for Active; 'I' for Inactive)
    1  A    between atoms: C_3  and  C_15
    2  A    between atoms: C_6  and  C_21
    3  A    between atoms: C_8  and  C_14
    4  A    between atoms: C_14  and  C_19
    5  A    between atoms: C_15  and  C_21
    6  A    between atoms: C_20  and  C_24
    7  A    between atoms: C_24  and  C_35
    8  A    between atoms: C_28  and  C_44
    9  A    between atoms: C_35  and  C_46
   10  A    between atoms: C_37  and  C_45
                            x       y       z     vdW  Elec       q    Type
                         _______ _______ _______ _____ _____    ______ ____

>  <TORSDO>
F 10

$$$$
=
 OpenBabel11062419173D

 50 56  0  0  1  0  0  0  0  0999 V2000
  190.4370  172.1650  141.1360 N   0  0  0  0  0  0  0  0  0  0  0  0
  192.8460  172.4620  141.2440 C   0  0  0  0  0  0  0  0  0  0  0  0
  191.5240  172.5910  140.5610 C   0  0  0  0  0  0  0  0  0  0  0  0
  190.3530  171.6540  142.5050 C   0  0  1  0  0  3  0  0  0  0  0  0
  194.0650  173.0830  140.6150 C   0  0  1  0  0  3  0  0  0  0  0  0
  192.9090  171.8510  142.4350 C   0  0  0  0  0  3  0  0  0  0  0  0
  191.7010  171.3500  143.0910 C   0  0  0  0  0  0  0  0  0  0  0  0
  193.4820  174.5190  138.9430 C   0  0  0  0  0  2  0  0  0  0  0  0
  192.4490  173.5050  138.4010 C   0  0  1  0  0  3  0  0  0  0  0  0
  191.3910  173.2240  139.3180 O   0  0  0  0  0  0  0  0  0  0  0  0
  191.7910  170.6980  144.1660 O   0  0  0  0  0  0  0  0  0  0  0  0
  193.7540  174.4170  140.3240 O   0  0  0  0  0  0  0  0  0  0  0  0
  191.8530  173.9950  137.0760 C   0  0  2  0  0  3  0  0  0  0  0  0
  192.3070  175.2810  136.7910 O   0  0  0  0  0  1  0  0  0  0  0  0
  190.2220  173.9840  137.0910 C   0  0  0  0  0  2  0  0  0  0  0  0
  189.5200  174.2370  136.8200 N   0  0  0  0  0  2  0  0  0  0  0  0
  189.6660  173.0760  135.9970 C   0  0  0  0  0  3  0  0  0  0  0  0
  189.7510  173.2670  134.7460 O   0  0  0  0  0  0  0  0  0  0  0  0
  195.3140  173.0170  141.5100 C   0  0  0  0  0  2  0  0  0  0  0  0
  193.2160  176.8900  145.5550 F   0  0  0  0  0  0  0  0  0  0  0  0
  195.7710  174.3640  142.0710 C   0  0  1  0  0  0  0  0  0  0  0  0
  196.0880  174.4610  145.8270 C   0  0  0  0  0  3  0  0  0  0  0  0
  194.0970  175.9650  143.6450 C   0  0  0  0  0  3  0  0  0  0  0  0
  196.9010  173.9920  144.6280 C   0  0  0  0  0  2  0  0  0  0  0  0
  194.1150  176.0530  144.9870 C   0  0  0  0  0  0  0  0  0  0  0  0
  195.0090  175.2890  145.9430 C   0  0  0  0  0  3  0  0  0  0  0  0
  196.6880  175.0970  141.3190 O   0  0  0  0  0  1  0  0  0  0  0  0
  195.0440  175.0930  143.0140 C   0  0  0  0  0  0  0  0  0  0  0  0
  196.1480  174.2920  143.4130 C   0  0  0  0  0  0  0  0  0  0  0  0
  189.5500  172.6140  143.3920 C   0  0  0  0  0  2  0  0  0  0  0  0
  190.1550  172.8170  144.7810 C   0  0  0  0  0  2  0  0  0  0  0  0
  190.7290  174.2190  144.9210 C   0  0  1  0  0  3  0  0  0  0  0  0
  190.9400  174.8390  143.5580 C   0  0  0  0  0  2  0  0  0  0  0  0
  189.7270  175.2290  144.3910 C   0  0  2  0  0  3  0  0  0  0  0  0
  190.3500  177.7800  143.0160 O   0  0  0  0  0  1  0  0  0  0  0  0
  187.9220  176.0160  146.6150 C   0  0  0  0  0  2  0  0  0  0  0  0
  189.6230  177.8100  144.2120 C   0  0  1  0  0  3  0  0  0  0  0  0
  186.2440  176.9220  144.8870 O   0  0  0  0  0  0  0  0  0  0  0  0
  184.4670  177.6540  146.7960 C   0  0  0  0  0  1  0  0  0  0  0  0
  185.8640  177.3340  147.2950 C   0  0  2  0  0  3  0  0  0  0  0  0
  186.8030  178.2460  146.7510 O   0  0  0  0  0  0  0  0  0  0  0  0
  189.3190  176.6410  146.4920 C   0  0  0  0  0  2  0  0  0  0  0  0
  187.2850  176.8400  143.9430 C   0  0  2  0  0  3  0  0  0  0  0  0
  186.7870  176.9520  146.1910 C   0  0  1  0  0  0  0  0  0  0  0  0
  188.1420  178.1120  143.9270 C   0  0  0  0  0  2  0  0  0  0  0  0
  189.9460  176.5780  145.0870 C   0  0  1  0  0  3  0  0  0  0  0  0
  185.4930  176.9440  142.3250 O   0  0  0  0  0  1  0  0  0  0  0  0
  186.6920  175.0340  142.5180 F   0  0  0  0  0  0  0  0  0  0  0  0
  187.6880  176.8400  141.4300 C   0  0  0  0  0  1  0  0  0  0  0  0
  186.7600  176.4110  142.5580 C   0  0  2  0  0  0  0  0  0  0  0  0
  1  4  1  0  0  0  0
  2  6  2  0  0  0  0
  3  1  2  0  0  0  0
  3  2  1  0  0  0  0
  4  7  1  0  0  0  0
  4 30  1  1  0  0  0
  5  2  1  0  0  0  0
  5 19  1  1  0  0  0
  6  7  1  0  0  0  0
  7 11  2  0  0  0  0
  8 12  1  0  0  0  0
  9 13  1  6  0  0  0
  9  8  1  0  0  0  0
  9 10  1  0  0  0  0
 10  3  1  0  0  0  0
 12  5  1  0  0  0  0
 13 14  1  1  0  0  0
 13 15  1  0  0  0  0
 16 15  1  0  0  0  0
 17 16  1  0  0  0  0
 18 17  2  0  0  0  0
 19 21  1  0  0  0  0
 21 27  1  6  0  0  0
 21 28  1  0  0  0  0
 21 29  1  0  0  0  0
 22 26  2  0  0  0  0
 23 25  2  0  0  0  0
 24 22  1  0  0  0  0
 25 20  1  0  0  0  0
 25 26  1  0  0  0  0
 28 29  2  0  0  0  0
 28 23  1  0  0  0  0
 29 24  1  0  0  0  0
 30 31  1  0  0  0  0
 32 31  1  6  0  0  0
 33 32  1  0  0  0  0
 34 33  1  6  0  0  0
 34 32  1  0  0  0  0
 34 46  1  0  0  0  0
 37 35  1  6  0  0  0
 37 46  1  0  0  0  0
 38 44  1  0  0  0  0
 40 39  1  6  0  0  0
 41 40  1  0  0  0  0
 42 36  1  0  0  0  0
 43 50  1  6  0  0  0
 43 38  1  0  0  0  0
 44 36  1  1  0  0  0
 44 41  1  0  0  0  0
 44 40  1  0  0  0  0
 45 43  1  0  0  0  0
 45 37  1  0  0  0  0
 46 42  1  1  0  0  0
 47 50  1  0  0  0  0
 48 50  1  0  0  0  0
 50 49  1  6  0  0  0
M  END
>  <MODEL>
4

>  <REMARK>
 VINA RESULT:      -8.3      2.746      9.047
  Name = 
  10 active torsions:
  status: ('A' for Active; 'I' for Inactive)
    1  A    between atoms: C_3  and  C_15
    2  A    between atoms: C_6  and  C_21
    3  A    between atoms: C_8  and  C_14
    4  A    between atoms: C_14  and  C_19
    5  A    between atoms: C_15  and  C_21
    6  A    between atoms: C_20  and  C_24
    7  A    between atoms: C_24  and  C_35
    8  A    between atoms: C_28  and  C_44
    9  A    between atoms: C_35  and  C_46
   10  A    between atoms: C_37  and  C_45
                            x       y       z     vdW  Elec       q    Type
                         _______ _______ _______ _____ _____    ______ ____

>  <TORSDO>
F 10

$$$$
=
 OpenBabel11062419173D

 50 56  0  0  1  0  0  0  0  0999 V2000
  193.1510  175.3750  143.1750 N   0  0  0  0  0  0  0  0  0  0  0  0
  191.1520  175.5080  144.5500 C   0  0  0  0  0  0  0  0  0  0  0  0
  191.8760  175.1420  143.2960 C   0  0  0  0  0  0  0  0  0  0  0  0
  194.0200  175.8730  144.2420 C   0  0  1  0  0  3  0  0  0  0  0  0
  189.7100  175.1060  144.7130 C   0  0  1  0  0  3  0  0  0  0  0  0
  191.8190  176.1300  145.5320 C   0  0  0  0  0  3  0  0  0  0  0  0
  193.2480  176.4150  145.4100 C   0  0  0  0  0  0  0  0  0  0  0  0
  189.1030  173.5780  143.1350 C   0  0  0  0  0  2  0  0  0  0  0  0
  189.8260  174.3900  142.0370 C   0  0  1  0  0  3  0  0  0  0  0  0
  191.2370  174.4860  142.2350 O   0  0  0  0  0  0  0  0  0  0  0  0
  193.8380  177.0800  146.3030 O   0  0  0  0  0  0  0  0  0  0  0  0
  189.6210  173.7360  144.4380 O   0  0  0  0  0  0  0  0  0  0  0  0
  189.5510  173.7920  140.6510 C   0  0  2  0  0  3  0  0  0  0  0  0
  188.1990  173.4790  140.5220 O   0  0  0  0  0  1  0  0  0  0  0  0
  190.4480  172.4610  140.3640 C   0  0  0  0  0  2  0  0  0  0  0  0
  191.0330  171.9280  140.3070 N   0  0  0  0  0  2  0  0  0  0  0  0
  191.2200  172.5880  139.0520 C   0  0  0  0  0  3  0  0  0  0  0  0
  191.0450  171.8930  138.0060 O   0  0  0  0  0  0  0  0  0  0  0  0
  189.1490  175.3980  146.1150 C   0  0  0  0  0  2  0  0  0  0  0  0
  185.7540  179.2330  143.0280 F   0  0  0  0  0  0  0  0  0  0  0  0
  188.6550  176.8300  146.3230 C   0  0  1  0  0  0  0  0  0  0  0  0
  184.9130  177.2350  146.1150 C   0  0  0  0  0  3  0  0  0  0  0  0
  187.4500  178.3010  144.2670 C   0  0  0  0  0  3  0  0  0  0  0  0
  185.9550  176.7950  147.1330 C   0  0  0  0  0  2  0  0  0  0  0  0
  186.1300  178.4860  144.0930 C   0  0  0  0  0  0  0  0  0  0  0  0
  185.0050  177.9180  144.9360 C   0  0  0  0  0  3  0  0  0  0  0  0
  189.3490  177.6230  147.2350 O   0  0  0  0  0  1  0  0  0  0  0  0
  187.8780  177.5200  145.3900 C   0  0  0  0  0  0  0  0  0  0  0  0
  187.2760  176.9040  146.5210 C   0  0  0  0  0  0  0  0  0  0  0  0
  195.0220  174.7940  144.6720 C   0  0  0  0  0  2  0  0  0  0  0  0
  196.4660  175.2910  144.7420 C   0  0  0  0  0  2  0  0  0  0  0  0
  197.4320  174.1250  144.8860 C   0  0  1  0  0  3  0  0  0  0  0  0
  197.1960  173.4050  146.1940 C   0  0  0  0  0  2  0  0  0  0  0  0
  196.6530  172.8230  144.8950 C   0  0  2  0  0  3  0  0  0  0  0  0
  196.9230  170.1530  146.1560 O   0  0  0  0  0  1  0  0  0  0  0  0
  196.7530  172.2700  141.9800 C   0  0  0  0  0  2  0  0  0  0  0  0
  197.0730  170.2700  144.7690 C   0  0  1  0  0  3  0  0  0  0  0  0
  194.6500  170.8070  142.2190 O   0  0  0  0  0  0  0  0  0  0  0  0
  194.5730  170.2460  139.5700 C   0  0  0  0  0  1  0  0  0  0  0  0
  195.8720  170.8500  140.0700 C   0  0  2  0  0  3  0  0  0  0  0  0
  196.4910  169.9840  141.0050 O   0  0  0  0  0  0  0  0  0  0  0  0
  197.9080  171.8310  142.8920 C   0  0  0  0  0  2  0  0  0  0  0  0
  194.8790  170.8340  143.6080 C   0  0  2  0  0  3  0  0  0  0  0  0
  195.8450  171.1200  141.5340 C   0  0  1  0  0  0  0  0  0  0  0  0
  195.8310  169.7160  144.0510 C   0  0  0  0  0  2  0  0  0  0  0  0
  197.5500  171.6890  144.3820 C   0  0  1  0  0  3  0  0  0  0  0  0
  192.6120  171.6630  143.7200 O   0  0  0  0  0  1  0  0  0  0  0  0
  193.8040  171.4560  145.6330 F   0  0  0  0  0  0  0  0  0  0  0  0
  192.9730  169.5110  144.6510 C   0  0  0  0  0  1  0  0  0  0  0  0
  193.5570  170.8940  144.3980 C   0  0  2  0  0  0  0  0  0  0  0  0
  1  3  2  0  0  0  0
  1  4  1  0  0  0  0
  2  5  1  0  0  0  0
  2  6  2  0  0  0  0
  3  2  1  0  0  0  0
  4 30  1  1  0  0  0
  4  7  1  0  0  0  0
  5 19  1  1  0  0  0
  7  6  1  0  0  0  0
  7 11  2  0  0  0  0
  8 12  1  0  0  0  0
  9 13  1  6  0  0  0
  9 10  1  0  0  0  0
  9  8  1  0  0  0  0
 10  3  1  0  0  0  0
 12  5  1  0  0  0  0
 13 14  1  1  0  0  0
 15 13  1  0  0  0  0
 16 15  1  0  0  0  0
 17 16  1  0  0  0  0
 18 17  2  0  0  0  0
 19 21  1  0  0  0  0
 20 25  1  0  0  0  0
 21 29  1  0  0  0  0
 21 27  1  1  0  0  0
 22 24  1  0  0  0  0
 23 28  1  0  0  0  0
 25 23  2  0  0  0  0
 25 26  1  0  0  0  0
 26 22  2  0  0  0  0
 28 21  1  0  0  0  0
 28 29  2  0  0  0  0
 29 24  1  0  0  0  0
 30 31  1  0  0  0  0
 32 31  1  1  0  0  0
 32 34  1  0  0  0  0
 32 33  1  0  0  0  0
 34 33  1  1  0  0  0
 36 42  1  0  0  0  0
 37 35  1  1  0  0  0
 38 43  1  0  0  0  0
 40 39  1  1  0  0  0
 40 41  1  0  0  0  0
 40 44  1  0  0  0  0
 41 44  1  0  0  0  0
 43 45  1  0  0  0  0
 43 50  1  1  0  0  0
 44 36  1  1  0  0  0
 44 38  1  0  0  0  0
 45 37  1  0  0  0  0
 46 42  1  6  0  0  0
 46 37  1  0  0  0  0
 46 34  1  0  0  0  0
 47 50  1  0  0  0  0
 50 49  1  1  0  0  0
 50 48  1  0  0  0  0
M  END
>  <MODEL>
5

>  <REMARK>
 VINA RESULT:      -8.1      2.621      5.710
  Name = 
  10 active torsions:
  status: ('A' for Active; 'I' for Inactive)
    1  A    between atoms: C_3  and  C_15
    2  A    between atoms: C_6  and  C_21
    3  A    between atoms: C_8  and  C_14
    4  A    between atoms: C_14  and  C_19
    5  A    between atoms: C_15  and  C_21
    6  A    between atoms: C_20  and  C_24
    7  A    between atoms: C_24  and  C_35
    8  A    between atoms: C_28  and  C_44
    9  A    between atoms: C_35  and  C_46
   10  A    between atoms: C_37  and  C_45
                            x       y       z     vdW  Elec       q    Type
                         _______ _______ _______ _____ _____    ______ ____

>  <TORSDO>
F 10

$$$$
=
 OpenBabel11062419173D

 50 56  0  0  1  0  0  0  0  0999 V2000
  193.0850  174.6050  142.8680 N   0  0  0  0  0  0  0  0  0  0  0  0
  190.8940  175.5360  143.3540 C   0  0  0  0  0  0  0  0  0  0  0  0
  191.7990  174.5630  142.6720 C   0  0  0  0  0  0  0  0  0  0  0  0
  193.7610  175.4730  143.8320 C   0  0  1  0  0  3  0  0  0  0  0  0
  189.4030  175.3800  143.2130 C   0  0  1  0  0  3  0  0  0  0  0  0
  191.4260  176.4890  144.1310 C   0  0  0  0  0  3  0  0  0  0  0  0
  192.8700  176.5640  144.3520 C   0  0  0  0  0  0  0  0  0  0  0  0
  188.8720  173.3440  142.3360 C   0  0  0  0  0  2  0  0  0  0  0  0
  189.9950  173.4790  141.2830 C   0  0  1  0  0  3  0  0  0  0  0  0
  191.3040  173.5400  141.8510 O   0  0  0  0  0  0  0  0  0  0  0  0
  193.3600  177.5200  145.0100 O   0  0  0  0  0  0  0  0  0  0  0  0
  189.0860  174.0550  143.5360 O   0  0  0  0  0  0  0  0  0  0  0  0
  189.9360  172.3240  140.2760 C   0  0  2  0  0  3  0  0  0  0  0  0
  190.7510  171.2750  140.6990 O   0  0  0  0  0  1  0  0  0  0  0  0
  190.3790  172.7870  138.7770 C   0  0  0  0  0  2  0  0  0  0  0  0
  190.1780  173.3970  138.3110 N   0  0  0  0  0  2  0  0  0  0  0  0
  189.3210  172.4010  137.7450 C   0  0  0  0  0  3  0  0  0  0  0  0
  189.5310  172.0830  136.5360 O   0  0  0  0  0  0  0  0  0  0  0  0
  188.6010  176.3430  144.1040 C   0  0  0  0  0  2  0  0  0  0  0  0
  183.7060  178.1310  147.0400 F   0  0  0  0  0  0  0  0  0  0  0  0
  187.1050  176.4060  143.7950 C   0  0  1  0  0  0  0  0  0  0  0  0
  185.5640  179.8200  144.2250 C   0  0  0  0  0  3  0  0  0  0  0  0
  185.1960  176.9160  145.7810 C   0  0  0  0  0  3  0  0  0  0  0  0
  186.3720  179.0590  143.1830 C   0  0  0  0  0  2  0  0  0  0  0  0
  184.6060  178.0980  146.0280 C   0  0  0  0  0  0  0  0  0  0  0  0
  184.8620  179.4160  145.3240 C   0  0  0  0  0  3  0  0  0  0  0  0
  186.6270  175.5980  142.7650 O   0  0  0  0  0  1  0  0  0  0  0  0
  186.1470  176.8490  144.7100 C   0  0  0  0  0  0  0  0  0  0  0  0
  186.6280  177.7130  143.6880 C   0  0  0  0  0  0  0  0  0  0  0  0
  194.3720  174.6450  144.9700 C   0  0  0  0  0  2  0  0  0  0  0  0
  195.6350  175.2640  145.5690 C   0  0  0  0  0  2  0  0  0  0  0  0
  196.8370  174.3580  145.3480 C   0  0  1  0  0  3  0  0  0  0  0  0
  197.0070  173.4140  146.5170 C   0  0  0  0  0  2  0  0  0  0  0  0
  196.3690  172.9200  145.2240 C   0  0  2  0  0  3  0  0  0  0  0  0
  197.1350  170.0940  145.6870 O   0  0  0  0  0  1  0  0  0  0  0  0
  196.3020  173.1880  142.2680 C   0  0  0  0  0  2  0  0  0  0  0  0
  197.1480  170.5990  144.3810 C   0  0  1  0  0  3  0  0  0  0  0  0
  194.4650  171.3880  142.1810 O   0  0  0  0  0  0  0  0  0  0  0  0
  194.2460  171.5480  139.4850 C   0  0  0  0  0  1  0  0  0  0  0  0
  195.4810  172.2020  140.0790 C   0  0  2  0  0  3  0  0  0  0  0  0
  196.2980  171.2320  140.7120 O   0  0  0  0  0  0  0  0  0  0  0  0
  197.5820  172.7180  142.9750 C   0  0  0  0  0  2  0  0  0  0  0  0
  194.8040  171.0820  143.5120 C   0  0  2  0  0  3  0  0  0  0  0  0
  195.5380  172.0650  141.5600 C   0  0  1  0  0  0  0  0  0  0  0  0
  195.9440  170.0590  143.5900 C   0  0  0  0  0  2  0  0  0  0  0  0
  197.3760  172.1270  144.3820 C   0  0  1  0  0  3  0  0  0  0  0  0
  192.4090  170.7650  143.5560 O   0  0  0  0  0  1  0  0  0  0  0  0
  193.4420  171.6020  145.3880 F   0  0  0  0  0  0  0  0  0  0  0  0
  193.6690  169.3210  144.9560 C   0  0  0  0  0  1  0  0  0  0  0  0
  193.5600  170.7100  144.3420 C   0  0  2  0  0  0  0  0  0  0  0  0
  1  4  1  0  0  0  0
  2  6  2  0  0  0  0
  3  1  2  0  0  0  0
  3  2  1  0  0  0  0
  4  7  1  0  0  0  0
  4 30  1  1  0  0  0
  5  2  1  0  0  0  0
  5 12  1  0  0  0  0
  5 19  1  1  0  0  0
  6  7  1  0  0  0  0
  7 11  2  0  0  0  0
  8 12  1  0  0  0  0
  9 13  1  6  0  0  0
  9 10  1  0  0  0  0
  9  8  1  0  0  0  0
 10  3  1  0  0  0  0
 13 14  1  1  0  0  0
 15 13  1  0  0  0  0
 16 15  1  0  0  0  0
 17 16  1  0  0  0  0
 18 17  2  0  0  0  0
 21 27  1  6  0  0  0
 21 19  1  0  0  0  0
 21 28  1  0  0  0  0
 22 26  2  0  0  0  0
 23 25  2  0  0  0  0
 24 29  1  0  0  0  0
 24 22  1  0  0  0  0
 25 20  1  0  0  0  0
 26 25  1  0  0  0  0
 28 23  1  0  0  0  0
 29 21  1  0  0  0  0
 29 28  2  0  0  0  0
 30 31  1  0  0  0  0
 32 31  1  1  0  0  0
 32 33  1  0  0  0  0
 34 32  1  0  0  0  0
 34 33  1  1  0  0  0
 36 42  1  0  0  0  0
 37 46  1  0  0  0  0
 37 35  1  1  0  0  0
 38 43  1  0  0  0  0
 40 39  1  6  0  0  0
 40 41  1  0  0  0  0
 40 44  1  0  0  0  0
 41 44  1  0  0  0  0
 43 45  1  0  0  0  0
 43 50  1  6  0  0  0
 44 38  1  0  0  0  0
 44 36  1  1  0  0  0
 45 37  1  0  0  0  0
 46 42  1  6  0  0  0
 46 34  1  0  0  0  0
 47 50  1  0  0  0  0
 50 49  1  1  0  0  0
 50 48  1  0  0  0  0
M  END
>  <MODEL>
6

>  <REMARK>
 VINA RESULT:      -8.0      2.505      5.584
  Name = 
  10 active torsions:
  status: ('A' for Active; 'I' for Inactive)
    1  A    between atoms: C_3  and  C_15
    2  A    between atoms: C_6  and  C_21
    3  A    between atoms: C_8  and  C_14
    4  A    between atoms: C_14  and  C_19
    5  A    between atoms: C_15  and  C_21
    6  A    between atoms: C_20  and  C_24
    7  A    between atoms: C_24  and  C_35
    8  A    between atoms: C_28  and  C_44
    9  A    between atoms: C_35  and  C_46
   10  A    between atoms: C_37  and  C_45
                            x       y       z     vdW  Elec       q    Type
                         _______ _______ _______ _____ _____    ______ ____

>  <TORSDO>
F 10

$$$$
=
 OpenBabel11062419173D

 50 56  0  0  1  0  0  0  0  0999 V2000
  189.9830  174.7830  144.6950 N   0  0  0  0  0  0  0  0  0  0  0  0
  188.9530  173.7280  142.7640 C   0  0  0  0  0  0  0  0  0  0  0  0
  189.1270  174.8640  143.7190 C   0  0  0  0  0  0  0  0  0  0  0  0
  190.9290  173.6850  144.8960 C   0  0  1  0  0  3  0  0  0  0  0  0
  188.0560  173.9010  141.5670 C   0  0  1  0  0  3  0  0  0  0  0  0
  189.6510  172.6000  142.9570 C   0  0  0  0  0  3  0  0  0  0  0  0
  190.6050  172.4820  144.0590 C   0  0  0  0  0  0  0  0  0  0  0  0
  187.5280  176.0960  141.2510 C   0  0  0  0  0  2  0  0  0  0  0  0
  187.2690  176.2760  142.7640 C   0  0  1  0  0  3  0  0  0  0  0  0
  188.4320  176.0710  143.5680 O   0  0  0  0  0  0  0  0  0  0  0  0
  191.1840  171.3850  144.2790 O   0  0  0  0  0  0  0  0  0  0  0  0
  188.4460  175.0770  140.9160 O   0  0  0  0  0  0  0  0  0  0  0  0
  186.6940  177.6680  143.0530 C   0  0  2  0  0  3  0  0  0  0  0  0
  187.4510  178.6440  142.4080 O   0  0  0  0  0  1  0  0  0  0  0  0
  186.6350  177.9920  144.6500 C   0  0  0  0  0  2  0  0  0  0  0  0
  186.5920  178.1600  145.4240 N   0  0  0  0  0  2  0  0  0  0  0  0
  185.1920  178.0670  145.1450 C   0  0  0  0  0  3  0  0  0  0  0  0
  184.5040  179.1200  145.3000 O   0  0  0  0  0  0  0  0  0  0  0  0
  188.1080  172.7160  140.5880 C   0  0  0  0  0  2  0  0  0  0  0  0
  193.8130  172.9470  138.8060 F   0  0  0  0  0  0  0  0  0  0  0  0
  188.8300  173.0050  139.2710 C   0  0  1  0  0  0  0  0  0  0  0  0
  191.2070  170.2950  138.1680 C   0  0  0  0  0  3  0  0  0  0  0  0
  191.5950  173.4370  139.1520 C   0  0  0  0  0  3  0  0  0  0  0  0
  189.7140  170.5860  138.1230 C   0  0  0  0  0  2  0  0  0  0  0  0
  192.5230  172.5330  138.7950 C   0  0  0  0  0  0  0  0  0  0  0  0
  192.2940  171.0840  138.4150 C   0  0  0  0  0  3  0  0  0  0  0  0
  188.1210  173.6930  138.2880 O   0  0  0  0  0  1  0  0  0  0  0  0
  190.2200  173.0290  139.1430 C   0  0  0  0  0  0  0  0  0  0  0  0
  189.4760  171.8840  138.7500 C   0  0  0  0  0  0  0  0  0  0  0  0
  192.3700  174.1640  144.6730 C   0  0  0  0  0  2  0  0  0  0  0  0
  192.5490  175.6720  144.8490 C   0  0  0  0  0  2  0  0  0  0  0  0
  194.0180  176.0240  145.0260 C   0  0  1  0  0  3  0  0  0  0  0  0
  194.4460  175.7910  146.4580 C   0  0  0  0  0  2  0  0  0  0  0  0
  194.7980  174.7720  145.3820 C   0  0  2  0  0  3  0  0  0  0  0  0
  197.1700  173.7940  146.8670 O   0  0  0  0  0  1  0  0  0  0  0  0
  195.4760  174.3070  142.5280 C   0  0  0  0  0  2  0  0  0  0  0  0
  197.2160  173.8510  145.4690 C   0  0  1  0  0  3  0  0  0  0  0  0
  195.6660  171.7880  143.0190 O   0  0  0  0  0  0  0  0  0  0  0  0
  196.2470  171.1910  140.4410 C   0  0  0  0  0  1  0  0  0  0  0  0
  196.3550  172.6600  140.8110 C   0  0  2  0  0  3  0  0  0  0  0  0
  197.3660  172.8500  141.7860 O   0  0  0  0  0  0  0  0  0  0  0  0
  196.3890  175.1700  143.4110 C   0  0  0  0  0  2  0  0  0  0  0  0
  195.6850  172.1300  144.3840 C   0  0  2  0  0  3  0  0  0  0  0  0
  196.0330  172.9090  142.2420 C   0  0  1  0  0  0  0  0  0  0  0  0
  197.1060  172.4360  144.8750 C   0  0  0  0  0  2  0  0  0  0  0  0
  196.2540  174.9310  144.9270 C   0  0  1  0  0  3  0  0  0  0  0  0
  194.1430  170.2700  144.4320 O   0  0  0  0  0  1  0  0  0  0  0  0
  194.1170  171.7650  146.1310 F   0  0  0  0  0  0  0  0  0  0  0  0
  195.8680  170.2260  146.0610 C   0  0  0  0  0  1  0  0  0  0  0  0
  194.9270  171.0950  145.2390 C   0  0  2  0  0  0  0  0  0  0  0  0
  1  4  1  0  0  0  0
  2  6  2  0  0  0  0
  2  3  1  0  0  0  0
  3  1  2  0  0  0  0
  4 30  1  6  0  0  0
  5 19  1  6  0  0  0
  5  2  1  0  0  0  0
  6  7  1  0  0  0  0
  7 11  2  0  0  0  0
  7  4  1  0  0  0  0
  8  9  1  0  0  0  0
  9 13  1  6  0  0  0
  9 10  1  0  0  0  0
 10  3  1  0  0  0  0
 12  8  1  0  0  0  0
 12  5  1  0  0  0  0
 13 14  1  6  0  0  0
 13 15  1  0  0  0  0
 15 16  1  0  0  0  0
 17 18  2  0  0  0  0
 17 16  1  0  0  0  0
 21 27  1  6  0  0  0
 21 19  1  0  0  0  0
 22 26  2  0  0  0  0
 24 22  1  0  0  0  0
 24 29  1  0  0  0  0
 25 20  1  0  0  0  0
 25 23  2  0  0  0  0
 26 25  1  0  0  0  0
 28 23  1  0  0  0  0
 28 21  1  0  0  0  0
 29 28  2  0  0  0  0
 29 21  1  0  0  0  0
 30 31  1  0  0  0  0
 32 31  1  1  0  0  0
 32 34  1  0  0  0  0
 32 33  1  0  0  0  0
 34 33  1  1  0  0  0
 36 42  1  0  0  0  0
 37 35  1  1  0  0  0
 38 43  1  0  0  0  0
 40 39  1  1  0  0  0
 40 41  1  0  0  0  0
 40 44  1  0  0  0  0
 41 44  1  0  0  0  0
 43 45  1  0  0  0  0
 43 50  1  1  0  0  0
 44 36  1  1  0  0  0
 44 38  1  0  0  0  0
 45 37  1  0  0  0  0
 46 42  1  6  0  0  0
 46 34  1  0  0  0  0
 46 37  1  0  0  0  0
 47 50  1  0  0  0  0
 50 49  1  1  0  0  0
 50 48  1  0  0  0  0
M  END
>  <MODEL>
7

>  <REMARK>
 VINA RESULT:      -8.0      2.783      6.308
  Name = 
  10 active torsions:
  status: ('A' for Active; 'I' for Inactive)
    1  A    between atoms: C_3  and  C_15
    2  A    between atoms: C_6  and  C_21
    3  A    between atoms: C_8  and  C_14
    4  A    between atoms: C_14  and  C_19
    5  A    between atoms: C_15  and  C_21
    6  A    between atoms: C_20  and  C_24
    7  A    between atoms: C_24  and  C_35
    8  A    between atoms: C_28  and  C_44
    9  A    between atoms: C_35  and  C_46
   10  A    between atoms: C_37  and  C_45
                            x       y       z     vdW  Elec       q    Type
                         _______ _______ _______ _____ _____    ______ ____

>  <TORSDO>
F 10

$$$$
=
 OpenBabel11062419173D

 50 56  0  0  1  0  0  0  0  0999 V2000
  190.3520  173.5240  142.3270 N   0  0  0  0  0  0  0  0  0  0  0  0
  188.9760  175.5230  142.2090 C   0  0  0  0  0  0  0  0  0  0  0  0
  190.0350  174.6780  142.8370 C   0  0  0  0  0  0  0  0  0  0  0  0
  189.8360  172.9920  141.0650 C   0  0  1  0  0  3  0  0  0  0  0  0
  188.7240  176.9090  142.7410 C   0  0  1  0  0  3  0  0  0  0  0  0
  188.3140  175.0550  141.1410 C   0  0  0  0  0  3  0  0  0  0  0  0
  188.6440  173.7530  140.5620 C   0  0  0  0  0  0  0  0  0  0  0  0
  190.4060  177.5680  144.1320 C   0  0  0  0  0  2  0  0  0  0  0  0
  190.4070  176.1870  144.8230 C   0  0  1  0  0  3  0  0  0  0  0  0
  190.7660  175.1140  143.9510 O   0  0  0  0  0  0  0  0  0  0  0  0
  187.9520  173.2890  139.6160 O   0  0  0  0  0  0  0  0  0  0  0  0
  189.9580  177.5690  142.7930 O   0  0  0  0  0  0  0  0  0  0  0  0
  191.3480  176.1880  146.0350 C   0  0  2  0  0  3  0  0  0  0  0  0
  190.8440  177.0180  147.0340 O   0  0  0  0  0  1  0  0  0  0  0  0
  192.8590  176.6610  145.6440 C   0  0  0  0  0  2  0  0  0  0  0  0
  193.4690  176.7250  145.1400 N   0  0  0  0  0  2  0  0  0  0  0  0
  193.8530  175.5120  145.7940 C   0  0  0  0  0  3  0  0  0  0  0  0
  194.9340  175.5350  146.4560 O   0  0  0  0  0  0  0  0  0  0  0  0
  187.7310  177.7190  141.8920 C   0  0  0  0  0  2  0  0  0  0  0  0
  184.9760  176.4210  147.0390 F   0  0  0  0  0  0  0  0  0  0  0  0
  186.2790  177.6520  142.3660 C   0  0  1  0  0  0  0  0  0  0  0  0
  185.5280  179.7700  145.3940 C   0  0  0  0  0  3  0  0  0  0  0  0
  185.5670  176.5050  144.8200 C   0  0  0  0  0  3  0  0  0  0  0  0
  185.6710  179.9470  143.8890 C   0  0  0  0  0  2  0  0  0  0  0  0
  185.3020  177.1690  145.9590 C   0  0  0  0  0  0  0  0  0  0  0  0
  185.3630  178.6670  146.1820 C   0  0  0  0  0  3  0  0  0  0  0  0
  185.2900  177.5300  141.3920 O   0  0  0  0  0  1  0  0  0  0  0  0
  185.9070  177.2720  143.6570 C   0  0  0  0  0  0  0  0  0  0  0  0
  185.9660  178.6450  143.2950 C   0  0  0  0  0  0  0  0  0  0  0  0
  190.9500  172.9190  140.0130 C   0  0  0  0  0  2  0  0  0  0  0  0
  192.3570  172.8670  140.6110 C   0  0  0  0  0  2  0  0  0  0  0  0
  193.3540  172.3210  139.6000 C   0  0  1  0  0  3  0  0  0  0  0  0
  192.9320  170.9460  139.1360 C   0  0  0  0  0  2  0  0  0  0  0  0
  192.6710  172.1610  138.2550 C   0  0  2  0  0  3  0  0  0  0  0  0
  192.6510  170.5880  135.7410 O   0  0  0  0  0  1  0  0  0  0  0  0
  193.6380  174.8450  137.4320 C   0  0  0  0  0  2  0  0  0  0  0  0
  193.1960  171.8780  135.7350 C   0  0  1  0  0  3  0  0  0  0  0  0
  191.6080  175.0590  135.8660 O   0  0  0  0  0  0  0  0  0  0  0  0
  192.3290  177.5400  135.0500 C   0  0  0  0  0  1  0  0  0  0  0  0
  193.4030  176.7580  135.7820 C   0  0  2  0  0  3  0  0  0  0  0  0
  193.7510  175.5940  135.0510 O   0  0  0  0  0  0  0  0  0  0  0  0
  194.4900  173.5970  137.1590 C   0  0  0  0  0  2  0  0  0  0  0  0
  191.4200  173.6760  136.0410 C   0  0  2  0  0  3  0  0  0  0  0  0
  192.9400  175.4030  136.1890 C   0  0  1  0  0  0  0  0  0  0  0  0
  192.2380  172.8570  135.0350 C   0  0  0  0  0  2  0  0  0  0  0  0
  193.7160  172.2660  137.1370 C   0  0  1  0  0  3  0  0  0  0  0  0
  189.3560  173.3850  134.8180 O   0  0  0  0  0  1  0  0  0  0  0  0
  189.2790  174.1930  136.9310 F   0  0  0  0  0  0  0  0  0  0  0  0
  189.6880  171.9140  136.6510 C   0  0  0  0  0  1  0  0  0  0  0  0
  189.9230  173.3100  136.0900 C   0  0  2  0  0  0  0  0  0  0  0  0
  1  3  2  0  0  0  0
  2  5  1  0  0  0  0
  2  3  1  0  0  0  0
  3 10  1  0  0  0  0
  4 30  1  6  0  0  0
  4  1  1  0  0  0  0
  5 19  1  6  0  0  0
  5 12  1  0  0  0  0
  6  2  2  0  0  0  0
  7  4  1  0  0  0  0
  7  6  1  0  0  0  0
  8  9  1  0  0  0  0
  9 13  1  1  0  0  0
 10  9  1  0  0  0  0
 11  7  2  0  0  0  0
 12  8  1  0  0  0  0
 13 14  1  1  0  0  0
 15 13  1  0  0  0  0
 16 15  1  0  0  0  0
 16 17  1  0  0  0  0
 17 18  2  0  0  0  0
 19 21  1  0  0  0  0
 21 27  1  6  0  0  0
 21 29  1  0  0  0  0
 21 28  1  0  0  0  0
 22 26  2  0  0  0  0
 23 25  2  0  0  0  0
 24 22  1  0  0  0  0
 25 26  1  0  0  0  0
 25 20  1  0  0  0  0
 28 23  1  0  0  0  0
 29 28  2  0  0  0  0
 29 24  1  0  0  0  0
 30 31  1  0  0  0  0
 32 31  1  1  0  0  0
 33 32  1  0  0  0  0
 34 33  1  1  0  0  0
 34 32  1  0  0  0  0
 37 35  1  1  0  0  0
 37 46  1  0  0  0  0
 38 43  1  0  0  0  0
 38 44  1  0  0  0  0
 40 39  1  6  0  0  0
 40 44  1  0  0  0  0
 41 40  1  0  0  0  0
 41 44  1  0  0  0  0
 42 36  1  0  0  0  0
 43 50  1  6  0  0  0
 44 36  1  1  0  0  0
 45 37  1  0  0  0  0
 45 43  1  0  0  0  0
 46 42  1  6  0  0  0
 46 34  1  0  0  0  0
 47 50  1  0  0  0  0
 50 49  1  1  0  0  0
 50 48  1  0  0  0  0
M  END
>  <MODEL>
8

>  <REMARK>
 VINA RESULT:      -7.8      2.908      5.295
  Name = 
  10 active torsions:
  status: ('A' for Active; 'I' for Inactive)
    1  A    between atoms: C_3  and  C_15
    2  A    between atoms: C_6  and  C_21
    3  A    between atoms: C_8  and  C_14
    4  A    between atoms: C_14  and  C_19
    5  A    between atoms: C_15  and  C_21
    6  A    between atoms: C_20  and  C_24
    7  A    between atoms: C_24  and  C_35
    8  A    between atoms: C_28  and  C_44
    9  A    between atoms: C_35  and  C_46
   10  A    between atoms: C_37  and  C_45
                            x       y       z     vdW  Elec       q    Type
                         _______ _______ _______ _____ _____    ______ ____

>  <TORSDO>
F 10

$$$$
=
 OpenBabel11062419173D

 50 56  0  0  1  0  0  0  0  0999 V2000
  188.4590  174.8840  141.6780 N   0  0  0  0  0  0  0  0  0  0  0  0
  189.6860  176.2890  143.2350 C   0  0  0  0  0  0  0  0  0  0  0  0
  188.4230  175.7770  142.6240 C   0  0  0  0  0  0  0  0  0  0  0  0
  189.6670  174.2040  141.2090 C   0  0  1  0  0  3  0  0  0  0  0  0
  189.6090  177.2200  144.4160 C   0  0  1  0  0  3  0  0  0  0  0  0
  190.8630  175.8580  142.7610 C   0  0  0  0  0  3  0  0  0  0  0  0
  190.9260  174.8670  141.6860 C   0  0  0  0  0  0  0  0  0  0  0  0
  187.5080  177.2500  145.2990 C   0  0  0  0  0  2  0  0  0  0  0  0
  186.8900  177.3310  143.8850 C   0  0  1  0  0  3  0  0  0  0  0  0
  187.1610  176.1840  143.0780 O   0  0  0  0  0  0  0  0  0  0  0  0
  192.0380  174.5420  141.1920 O   0  0  0  0  0  0  0  0  0  0  0  0
  188.7710  176.6240  145.3670 O   0  0  0  0  0  0  0  0  0  0  0  0
  185.3730  177.5410  143.9680 C   0  0  0  0  0  0  0  0  0  0  0  0
  184.8160  177.5370  142.6910 O   0  0  0  0  0  0  0  0  0  0  0  0
  184.9820  178.9300  144.7280 C   0  0  0  0  0  1  0  0  0  0  0  0
  184.4390  178.3730  144.5730 N   0  0  0  0  0  0  0  0  0  0  0  0
  184.0680  178.6680  145.9230 C   0  0  0  0  0  3  0  0  0  0  0  0
  184.1860  177.7310  146.7690 O   0  0  0  0  0  0  0  0  0  0  0  0
  190.9800  177.5260  145.0430 C   0  0  0  0  0  2  0  0  0  0  0  0
  193.4490  172.0890  145.3880 F   0  0  0  0  0  0  0  0  0  0  0  0
  191.3920  176.5840  146.1740 C   0  0  1  0  0  0  0  0  0  0  0  0
  194.9910  175.4680  146.0440 C   0  0  0  0  0  3  0  0  0  0  0  0
  192.0840  173.9100  145.7080 C   0  0  0  0  0  3  0  0  0  0  0  0
  194.1900  176.6740  146.5140 C   0  0  0  0  0  2  0  0  0  0  0  0
  193.3320  173.4180  145.6220 C   0  0  0  0  0  0  0  0  0  0  0  0
  194.6320  174.1920  145.7190 C   0  0  0  0  0  3  0  0  0  0  0  0
  190.8180  176.7950  147.4270 O   0  0  0  0  0  1  0  0  0  0  0  0
  191.9300  175.3130  145.9620 C   0  0  0  0  0  0  0  0  0  0  0  0
  192.7740  176.4160  146.2640 C   0  0  0  0  0  0  0  0  0  0  0  0
  189.6300  172.7160  141.5810 C   0  0  0  0  0  2  0  0  0  0  0  0
  190.3000  172.4020  142.9190 C   0  0  0  0  0  2  0  0  0  0  0  0
  191.1250  171.1270  142.8230 C   0  0  1  0  0  3  0  0  0  0  0  0
  190.5560  170.2110  141.7630 C   0  0  0  0  0  2  0  0  0  0  0  0
  191.7880  171.0560  141.4600 C   0  0  2  0  0  3  0  0  0  0  0  0
  192.5930  168.9330  139.5550 O   0  0  0  0  0  1  0  0  0  0  0  0
  194.3360  172.3970  142.1840 C   0  0  0  0  0  2  0  0  0  0  0  0
  193.5850  169.6740  140.2080 C   0  0  1  0  0  3  0  0  0  0  0  0
  194.6670  173.0270  139.7110 O   0  0  0  0  0  0  0  0  0  0  0  0
  196.9860  174.3340  140.2150 C   0  0  0  0  0  1  0  0  0  0  0  0
  196.4870  173.4380  141.3340 C   0  0  2  0  0  3  0  0  0  0  0  0
  196.4620  172.0860  140.9090 O   0  0  0  0  0  0  0  0  0  0  0  0
  194.1630  170.8890  142.4100 C   0  0  0  0  0  2  0  0  0  0  0  0
  193.6590  172.0920  139.4140 C   0  0  2  0  0  3  0  0  0  0  0  0
  195.2180  172.7460  140.9820 C   0  0  1  0  0  0  0  0  0  0  0  0
  194.2260  170.6780  139.2350 C   0  0  0  0  0  2  0  0  0  0  0  0
  193.0680  170.2180  141.5600 C   0  0  1  0  0  3  0  0  0  0  0  0
  193.2270  173.7880  137.7480 O   0  0  0  0  0  1  0  0  0  0  0  0
  191.4780  172.7250  138.7150 F   0  0  0  0  0  0  0  0  0  0  0  0
  192.7110  171.5600  137.1140 C   0  0  0  0  0  1  0  0  0  0  0  0
  192.7680  172.5710  138.2510 C   0  0  2  0  0  0  0  0  0  0  0  0
  1  3  2  0  0  0  0
  2  5  1  0  0  0  0
  3 10  1  0  0  0  0
  3  2  1  0  0  0  0
  4 30  1  1  0  0  0
  4  1  1  0  0  0  0
  4  7  1  0  0  0  0
  5 19  1  1  0  0  0
  5 12  1  0  0  0  0
  6  2  2  0  0  0  0
  7  6  1  0  0  0  0
  8 12  1  0  0  0  0
  9 13  1  1  0  0  0
  9  8  1  0  0  0  0
 10  9  1  0  0  0  0
 11  7  2  0  0  0  0
 13 16  1  0  0  0  0
 14 13  2  0  0  0  0
 16 15  1  0  0  0  0
 16 17  1  0  0  0  0
 17 18  2  0  0  0  0
 19 21  1  0  0  0  0
 20 25  1  0  0  0  0
 21 29  1  0  0  0  0
 21 27  1  1  0  0  0
 22 24  1  0  0  0  0
 23 28  1  0  0  0  0
 25 23  2  0  0  0  0
 25 26  1  0  0  0  0
 26 22  2  0  0  0  0
 28 21  1  0  0  0  0
 28 29  2  0  0  0  0
 29 24  1  0  0  0  0
 30 31  1  0  0  0  0
 32 31  1  6  0  0  0
 33 32  1  0  0  0  0
 34 46  1  0  0  0  0
 34 33  1  6  0  0  0
 34 32  1  0  0  0  0
 36 42  1  0  0  0  0
 37 35  1  6  0  0  0
 37 46  1  0  0  0  0
 38 44  1  0  0  0  0
 40 39  1  6  0  0  0
 41 44  1  0  0  0  0
 41 40  1  0  0  0  0
 43 50  1  6  0  0  0
 43 38  1  0  0  0  0
 44 40  1  0  0  0  0
 44 36  1  1  0  0  0
 45 43  1  0  0  0  0
 45 37  1  0  0  0  0
 46 42  1  6  0  0  0
 47 50  1  0  0  0  0
 50 49  1  6  0  0  0
 50 48  1  0  0  0  0
M  END
>  <MODEL>
9

>  <REMARK>
 VINA RESULT:      -7.8      2.868      6.000
  Name = 
  10 active torsions:
  status: ('A' for Active; 'I' for Inactive)
    1  A    between atoms: C_3  and  C_15
    2  A    between atoms: C_6  and  C_21
    3  A    between atoms: C_8  and  C_14
    4  A    between atoms: C_14  and  C_19
    5  A    between atoms: C_15  and  C_21
    6  A    between atoms: C_20  and  C_24
    7  A    between atoms: C_24  and  C_35
    8  A    between atoms: C_28  and  C_44
    9  A    between atoms: C_35  and  C_46
   10  A    between atoms: C_37  and  C_45
                            x       y       z     vdW  Elec       q    Type
                         _______ _______ _______ _____ _____    ______ ____

>  <TORSDO>
F 10

$$$$
