=
 OpenBabel11062421003D

 38 41  0  0  1  0  0  0  0  0999 V2000
  190.7090  176.4750  147.5190 N   0  0  0  0  0  0  0  0  0  0  0  0
  192.1030  176.3930  145.1270 C   0  0  0  0  0  0  0  0  0  0  0  0
  188.8720  177.5230  146.4320 N   0  0  0  0  0  1  0  0  0  0  0  0
  190.7900  176.9330  145.0960 C   0  0  2  0  0  3  0  0  0  0  0  0
  190.0480  176.9960  146.3500 C   0  0  0  0  0  0  0  0  0  0  0  0
  192.6550  175.9250  146.2050 N   0  0  0  0  0  0  0  0  0  0  0  0
  190.5280  177.2480  143.8330 C   0  0  0  0  0  0  0  0  0  0  0  0
  192.5780  176.4410  143.7610 C   0  0  0  0  0  0  0  0  0  0  0  0
  191.9210  175.9750  147.4550 C   0  0  0  0  0  3  0  0  0  0  0  0
  191.6570  176.9460  142.9920 N   0  0  0  0  0  0  0  0  0  0  0  0
  196.7470  173.6910  145.5370 O   0  0  0  0  0  0  0  0  0  0  0  0
  193.9280  176.0170  143.2890 C   0  0  1  0  0  3  0  0  0  0  0  0
  197.0320  173.4090  143.1090 O   0  0  0  0  0  0  0  0  0  0  0  0
  194.4940  173.7630  144.0390 C   0  0  1  0  0  3  0  0  0  0  0  0
  196.2410  174.1010  144.1830 S   0  0  0  0  0  0  0  0  0  0  0  0
  195.0300  176.4940  144.2600 C   0  0  0  0  0  2  0  0  0  0  0  0
  196.3810  175.8580  143.9640 C   0  0  0  0  0  2  0  0  0  0  0  0
  193.9330  174.5780  142.9630 N   0  0  0  0  0  2  0  0  0  0  0  0
  194.1650  172.2780  143.8670 C   0  0  0  0  0  2  0  0  0  0  0  0
  192.3960  171.4240  142.5210 O   0  0  0  0  0  0  0  0  0  0  0  0
  192.7220  172.0060  143.5890 C   0  0  0  0  0  0  0  0  0  0  0  0
  190.4140  173.6760  143.0090 N   0  0  0  0  0  1  0  0  0  0  0  0
  189.8040  173.4730  145.3770 N   0  0  0  0  0  1  0  0  0  0  0  0
  190.6950  173.1690  144.3110 C   0  0  0  0  0  0  0  0  0  0  0  0
  191.7360  172.4260  144.5450 N   0  0  0  0  0  0  0  0  0  0  0  0
  189.2390  177.7990  143.3320 C   0  0  0  0  0  2  0  0  0  0  0  0
  188.2330  176.6760  143.1450 C   0  0  0  0  0  2  0  0  0  0  0  0
  187.1250  177.1290  142.3150 N   0  0  0  0  0  0  0  0  0  0  0  0
  186.0300  177.6840  142.7540 C   0  0  0  0  0  0  0  0  0  0  0  0
  185.7740  177.8600  144.2080 C   0  0  0  0  0  0  0  0  0  0  0  0
  185.4100  176.7710  145.0100 C   0  0  0  0  0  3  0  0  0  0  0  0
  185.3280  178.2180  146.9320 C   0  0  0  0  0  3  0  0  0  0  0  0
  185.6840  179.2680  146.1470 N   0  0  0  0  0  0  0  0  0  0  0  0
  185.1850  176.9460  146.3770 C   0  0  0  0  0  3  0  0  0  0  0  0
  185.9090  179.1170  144.8150 C   0  0  0  0  0  3  0  0  0  0  0  0
  183.5710  178.1940  142.0830 C   0  0  0  0  0  1  0  0  0  0  0  0
  185.3890  178.3970  140.5800 O   0  0  0  0  0  0  0  0  0  0  0  0
  185.0240  178.1150  141.7540 C   0  0  0  0  0  0  0  0  0  0  0  0
  2  6  1  0  0  0  0
  4  7  1  6  0  0  0
  4  2  1  0  0  0  0
  4  5  1  0  0  0  0
  5  3  1  0  0  0  0
  5  1  2  0  0  0  0
  6  9  2  0  0  0  0
  8  2  2  0  0  0  0
  9  1  1  0  0  0  0
 10  8  1  0  0  0  0
 10  7  2  0  0  0  0
 12  8  1  1  0  0  0
 12 16  1  0  0  0  0
 13 15  2  0  0  0  0
 14 19  1  6  0  0  0
 14 15  1  0  0  0  0
 15 11  2  0  0  0  0
 17 15  1  0  0  0  0
 17 16  1  0  0  0  0
 18 12  1  0  0  0  0
 18 14  1  0  0  0  0
 20 21  2  0  0  0  0
 21 19  1  0  0  0  0
 21 25  1  0  0  0  0
 22 24  1  0  0  0  0
 24 25  2  0  0  0  0
 24 23  1  0  0  0  0
 26  7  1  0  0  0  0
 27 26  1  0  0  0  0
 28 29  2  0  0  0  0
 28 27  1  0  0  0  0
 29 30  1  0  0  0  0
 30 35  2  0  0  0  0
 30 31  1  0  0  0  0
 31 34  2  0  0  0  0
 33 32  2  0  0  0  0
 34 32  1  0  0  0  0
 35 33  1  0  0  0  0
 37 38  2  0  0  0  0
 38 36  1  0  0  0  0
 38 29  1  0  0  0  0
M  END
>  <MODEL>
1

>  <REMARK>
 VINA RESULT:      -7.2      0.000      0.000
  Name = 
  9 active torsions:
  status: ('A' for Active; 'I' for Inactive)
    1  A    between atoms: N_3  and  C_20
    2  A    between atoms: C_4  and  C_7
    3  A    between atoms: C_4  and  C_34
    4  A    between atoms: C_8  and  C_30
    5  A    between atoms: C_15  and  C_20
    6  A    between atoms: C_15  and  C_22
    7  A    between atoms: C_19  and  C_26
    8  A    between atoms: C_19  and  C_32
    9  A    between atoms: N_29  and  C_32
                            x       y       z     vdW  Elec       q    Type
                         _______ _______ _______ _____ _____    ______ ____

>  <TORSDO>
F 9

$$$$
=
 OpenBabel11062421003D

 38 41  0  0  1  0  0  0  0  0999 V2000
  190.1230  173.5110  138.6190 N   0  0  0  0  0  0  0  0  0  0  0  0
  191.2580  174.1150  141.0710 C   0  0  0  0  0  0  0  0  0  0  0  0
  187.9680  174.0610  139.4610 N   0  0  0  0  0  2  0  0  0  0  0  0
  189.8570  174.3040  140.9390 C   0  0  0  0  0  0  0  0  0  0  0  0
  189.2420  173.9770  139.6580 C   0  0  0  0  0  0  0  0  0  0  0  0
  192.0140  173.7000  140.1010 N   0  0  0  0  0  0  0  0  0  0  0  0
  189.4200  174.7950  142.0930 C   0  0  0  0  0  0  0  0  0  0  0  0
  191.5840  174.5310  142.4190 C   0  0  0  0  0  0  0  0  0  0  0  0
  191.4130  173.3830  138.8210 C   0  0  0  0  0  3  0  0  0  0  0  0
  190.5050  174.9300  143.0290 N   0  0  0  0  0  0  0  0  0  0  0  0
  194.5170  177.3540  145.8130 O   0  0  0  0  0  0  0  0  0  0  0  0
  192.9350  174.4800  143.0470 C   0  0  1  0  0  3  0  0  0  0  0  0
  195.5140  175.1240  146.1140 O   0  0  0  0  0  0  0  0  0  0  0  0
  192.8940  175.2340  145.3700 C   0  0  1  0  0  3  0  0  0  0  0  0
  194.5340  175.9370  145.3160 S   0  0  0  0  0  0  0  0  0  0  0  0
  193.7290  175.7740  142.7610 C   0  0  0  0  0  2  0  0  0  0  0  0
  194.9950  175.8770  143.6010 C   0  0  0  0  0  2  0  0  0  0  0  0
  192.8310  174.0870  144.4660 N   0  0  0  0  0  2  0  0  0  0  0  0
  192.4210  174.8800  146.7820 C   0  0  0  0  0  2  0  0  0  0  0  0
  191.3520  175.9140  148.6410 O   0  0  0  0  0  0  0  0  0  0  0  0
  191.5180  175.9020  147.3930 C   0  0  0  0  0  0  0  0  0  0  0  0
  188.8660  175.5590  146.2540 N   0  0  0  0  0  1  0  0  0  0  0  0
  189.1450  177.7610  145.2080 N   0  0  0  0  0  1  0  0  0  0  0  0
  189.6650  176.7150  146.0190 C   0  0  0  0  0  0  0  0  0  0  0  0
  190.8500  176.8430  146.5380 N   0  0  0  0  0  0  0  0  0  0  0  0
  188.0150  175.1930  142.3830 C   0  0  0  0  0  2  0  0  0  0  0  0
  187.8960  176.7080  142.3860 C   0  0  0  0  0  2  0  0  0  0  0  0
  186.6130  177.1100  141.8260 N   0  0  0  0  0  0  0  0  0  0  0  0
  185.6240  177.6290  142.5010 C   0  0  0  0  0  0  0  0  0  0  0  0
  185.6960  177.8110  143.9750 C   0  0  0  0  0  0  0  0  0  0  0  0
  185.8280  179.0880  144.5340 C   0  0  0  0  0  3  0  0  0  0  0  0
  185.8010  178.1200  146.7390 C   0  0  0  0  0  3  0  0  0  0  0  0
  185.6700  176.8860  146.1870 N   0  0  0  0  0  0  0  0  0  0  0  0
  185.8820  179.2480  145.9210 C   0  0  0  0  0  3  0  0  0  0  0  0
  185.6150  176.7110  144.8400 C   0  0  0  0  0  3  0  0  0  0  0  0
  184.4230  178.2470  140.2800 C   0  0  0  0  0  1  0  0  0  0  0  0
  183.3150  178.1750  142.3710 O   0  0  0  0  0  0  0  0  0  0  0  0
  184.4030  178.0110  141.7530 C   0  0  0  0  0  0  0  0  0  0  0  0
  1  9  2  0  0  0  0
  1  5  1  0  0  0  0
  2  8  1  0  0  0  0
  3  5  2  0  0  0  0
  4  2  1  0  0  0  0
  4  7  2  0  0  0  0
  5  4  1  0  0  0  0
  6  2  2  0  0  0  0
  7 26  1  0  0  0  0
  7 10  1  0  0  0  0
  8 10  2  0  0  0  0
  9  6  1  0  0  0  0
 12  8  1  1  0  0  0
 12 18  1  0  0  0  0
 14 19  1  1  0  0  0
 15 14  1  0  0  0  0
 15 11  2  0  0  0  0
 15 13  2  0  0  0  0
 16 12  1  0  0  0  0
 16 17  1  0  0  0  0
 17 15  1  0  0  0  0
 18 14  1  0  0  0  0
 19 21  1  0  0  0  0
 21 20  2  0  0  0  0
 23 24  1  0  0  0  0
 24 22  1  0  0  0  0
 24 25  2  0  0  0  0
 25 21  1  0  0  0  0
 26 27  1  0  0  0  0
 28 27  1  0  0  0  0
 28 29  2  0  0  0  0
 29 30  1  0  0  0  0
 30 31  2  0  0  0  0
 30 35  1  0  0  0  0
 31 34  1  0  0  0  0
 33 32  1  0  0  0  0
 34 32  2  0  0  0  0
 35 33  2  0  0  0  0
 36 38  1  0  0  0  0
 38 37  2  0  0  0  0
 38 29  1  0  0  0  0
M  END
>  <MODEL>
2

>  <REMARK>
 VINA RESULT:      -7.2      2.562      4.258
  Name = 
  9 active torsions:
  status: ('A' for Active; 'I' for Inactive)
    1  A    between atoms: N_3  and  C_20
    2  A    between atoms: C_4  and  C_7
    3  A    between atoms: C_4  and  C_34
    4  A    between atoms: C_8  and  C_30
    5  A    between atoms: C_15  and  C_20
    6  A    between atoms: C_15  and  C_22
    7  A    between atoms: C_19  and  C_26
    8  A    between atoms: C_19  and  C_32
    9  A    between atoms: N_29  and  C_32
                            x       y       z     vdW  Elec       q    Type
                         _______ _______ _______ _____ _____    ______ ____

>  <TORSDO>
F 9

$$$$
=
 OpenBabel11062421003D

 38 41  0  0  1  0  0  0  0  0999 V2000
  188.9140  172.8880  140.6730 N   0  0  0  0  0  0  0  0  0  0  0  0
  191.2440  174.2170  141.3620 C   0  0  0  0  0  0  0  0  0  0  0  0
  187.6540  174.3360  142.0770 N   0  0  0  0  0  2  0  0  0  0  0  0
  190.0310  174.7030  141.9170 C   0  0  0  0  0  0  0  0  0  0  0  0
  188.7970  174.0050  141.5750 C   0  0  0  0  0  0  0  0  0  0  0  0
  191.3000  173.2110  140.5440 N   0  0  0  0  0  0  0  0  0  0  0  0
  190.3360  175.7700  142.6460 C   0  0  0  0  0  0  0  0  0  0  0  0
  192.2810  175.1000  141.8530 C   0  0  0  0  0  0  0  0  0  0  0  0
  190.0770  172.5180  140.1900 C   0  0  0  0  0  3  0  0  0  0  0  0
  191.7540  176.0160  142.6130 N   0  0  0  0  0  0  0  0  0  0  0  0
  196.8580  177.1700  143.5440 O   0  0  0  0  0  0  0  0  0  0  0  0
  193.7410  174.9750  141.5760 C   0  0  1  0  0  3  0  0  0  0  0  0
  197.6400  174.9950  142.7000 O   0  0  0  0  0  0  0  0  0  0  0  0
  195.0760  175.1340  143.6150 C   0  0  1  0  0  3  0  0  0  0  0  0
  196.4620  175.9220  142.8100 S   0  0  0  0  0  0  0  0  0  0  0  0
  194.3540  176.3420  141.2030 C   0  0  0  0  0  2  0  0  0  0  0  0
  195.8760  176.3090  141.1780 C   0  0  0  0  0  2  0  0  0  0  0  0
  194.4120  174.2420  142.6670 N   0  0  0  0  0  2  0  0  0  0  0  0
  195.4440  174.4190  144.9170 C   0  0  0  0  0  2  0  0  0  0  0  0
  194.3790  172.4340  145.6870 O   0  0  0  0  0  0  0  0  0  0  0  0
  194.3050  173.6830  145.5460 C   0  0  0  0  0  0  0  0  0  0  0  0
  191.5650  173.0940  144.7740 N   0  0  0  0  0  1  0  0  0  0  0  0
  190.8760  174.9950  146.1640 N   0  0  0  0  0  1  0  0  0  0  0  0
  191.9110  174.1740  145.6380 C   0  0  0  0  0  0  0  0  0  0  0  0
  193.1450  174.4180  145.9650 N   0  0  0  0  0  0  0  0  0  0  0  0
  189.3570  176.6270  143.3700 C   0  0  0  0  0  2  0  0  0  0  0  0
  189.1840  177.9460  142.6370 C   0  0  0  0  0  2  0  0  0  0  0  0
  188.2180  177.7960  141.5560 N   0  0  0  0  0  0  0  0  0  0  0  0
  186.9240  177.9080  141.6790 C   0  0  0  0  0  0  0  0  0  0  0  0
  186.2840  178.1510  142.9980 C   0  0  0  0  0  0  0  0  0  0  0  0
  186.0840  179.4560  143.4690 C   0  0  0  0  0  3  0  0  0  0  0  0
  185.0590  178.5740  145.4610 C   0  0  0  0  0  3  0  0  0  0  0  0
  185.2550  177.3140  144.9950 N   0  0  0  0  0  0  0  0  0  0  0  0
  185.4700  179.6720  144.7040 C   0  0  0  0  0  3  0  0  0  0  0  0
  185.8490  177.0830  143.7950 C   0  0  0  0  0  3  0  0  0  0  0  0
  184.6640  178.1640  140.4210 C   0  0  0  0  0  1  0  0  0  0  0  0
  186.6020  177.2440  139.4200 O   0  0  0  0  0  0  0  0  0  0  0  0
  186.0990  177.7570  140.4570 C   0  0  0  0  0  0  0  0  0  0  0  0
  1  5  1  0  0  0  0
  2  8  1  0  0  0  0
  2  4  1  0  0  0  0
  4  7  2  0  0  0  0
  5  4  1  0  0  0  0
  5  3  2  0  0  0  0
  6  2  2  0  0  0  0
  7 26  1  0  0  0  0
  8 10  2  0  0  0  0
  9  6  1  0  0  0  0
  9  1  2  0  0  0  0
 10  7  1  0  0  0  0
 12  8  1  1  0  0  0
 12 18  1  0  0  0  0
 13 15  2  0  0  0  0
 14 19  1  1  0  0  0
 15 11  2  0  0  0  0
 15 14  1  0  0  0  0
 16 12  1  0  0  0  0
 17 16  1  0  0  0  0
 17 15  1  0  0  0  0
 18 14  1  0  0  0  0
 19 21  1  0  0  0  0
 21 20  2  0  0  0  0
 21 25  1  0  0  0  0
 22 24  1  0  0  0  0
 24 25  2  0  0  0  0
 24 23  1  0  0  0  0
 27 26  1  0  0  0  0
 28 29  2  0  0  0  0
 28 27  1  0  0  0  0
 29 30  1  0  0  0  0
 30 31  2  0  0  0  0
 30 35  1  0  0  0  0
 31 34  1  0  0  0  0
 33 32  1  0  0  0  0
 34 32  2  0  0  0  0
 35 33  2  0  0  0  0
 36 38  1  0  0  0  0
 37 38  2  0  0  0  0
 38 29  1  0  0  0  0
M  END
>  <MODEL>
3

>  <REMARK>
 VINA RESULT:      -7.1      2.119      3.395
  Name = 
  9 active torsions:
  status: ('A' for Active; 'I' for Inactive)
    1  A    between atoms: N_3  and  C_20
    2  A    between atoms: C_4  and  C_7
    3  A    between atoms: C_4  and  C_34
    4  A    between atoms: C_8  and  C_30
    5  A    between atoms: C_15  and  C_20
    6  A    between atoms: C_15  and  C_22
    7  A    between atoms: C_19  and  C_26
    8  A    between atoms: C_19  and  C_32
    9  A    between atoms: N_29  and  C_32
                            x       y       z     vdW  Elec       q    Type
                         _______ _______ _______ _____ _____    ______ ____

>  <TORSDO>
F 9

$$$$
=
 OpenBabel11062421003D

 38 41  0  0  1  0  0  0  0  0999 V2000
  193.4470  177.0150  147.2490 N   0  0  0  0  0  0  0  0  0  0  0  0
  192.6480  174.9330  145.6080 C   0  0  0  0  0  0  0  0  0  0  0  0
  191.2670  177.1320  148.1920 N   0  0  0  0  0  2  0  0  0  0  0  0
  191.6870  175.4510  146.5150 C   0  0  0  0  0  0  0  0  0  0  0  0
  192.0880  176.5570  147.3770 C   0  0  0  0  0  0  0  0  0  0  0  0
  193.8670  175.3730  145.5350 N   0  0  0  0  0  0  0  0  0  0  0  0
  190.5820  174.7300  146.3650 C   0  0  0  0  0  0  0  0  0  0  0  0
  191.9850  173.8520  144.9100 C   0  0  0  0  0  0  0  0  0  0  0  0
  194.2780  176.4650  146.3950 C   0  0  0  0  0  3  0  0  0  0  0  0
  190.7660  173.7280  145.3480 N   0  0  0  0  0  0  0  0  0  0  0  0
  190.4050  170.3710  141.2380 O   0  0  0  0  0  0  0  0  0  0  0  0
  192.5760  173.0200  143.8230 C   0  0  1  0  0  3  0  0  0  0  0  0
  192.4590  171.2250  140.1850 O   0  0  0  0  0  0  0  0  0  0  0  0
  191.1210  172.9040  141.8640 C   0  0  1  0  0  3  0  0  0  0  0  0
  191.6120  171.2450  141.4260 S   0  0  0  0  0  0  0  0  0  0  0  0
  192.2380  171.5260  144.0200 C   0  0  0  0  0  2  0  0  0  0  0  0
  192.5880  170.6840  142.8010 C   0  0  0  0  0  2  0  0  0  0  0  0
  192.2460  173.5870  142.5010 N   0  0  0  0  0  2  0  0  0  0  0  0
  190.5490  173.7080  140.6940 C   0  0  0  0  0  2  0  0  0  0  0  0
  188.4200  172.8580  141.3380 O   0  0  0  0  0  0  0  0  0  0  0  0
  189.0620  173.6220  140.5710 C   0  0  0  0  0  0  0  0  0  0  0  0
  188.6540  172.8300  137.8040 N   0  0  0  0  0  1  0  0  0  0  0  0
  187.5010  174.9710  137.4710 N   0  0  0  0  0  1  0  0  0  0  0  0
  188.2000  174.0760  138.3270 C   0  0  0  0  0  0  0  0  0  0  0  0
  188.3980  174.4080  139.5680 N   0  0  0  0  0  0  0  0  0  0  0  0
  189.3320  174.8940  147.1580 C   0  0  0  0  0  2  0  0  0  0  0  0
  188.5210  176.0560  146.6090 C   0  0  0  0  0  2  0  0  0  0  0  0
  188.3680  175.9230  145.1660 N   0  0  0  0  0  0  0  0  0  0  0  0
  187.4510  176.5090  144.4470 C   0  0  0  0  0  0  0  0  0  0  0  0
  186.3980  177.3570  145.0650 C   0  0  0  0  0  0  0  0  0  0  0  0
  186.3120  178.7240  144.7710 C   0  0  0  0  0  3  0  0  0  0  0  0
  184.3970  178.9100  146.2200 C   0  0  0  0  0  3  0  0  0  0  0  0
  184.4870  177.5830  146.4960 N   0  0  0  0  0  0  0  0  0  0  0  0
  185.3100  179.5070  145.3480 C   0  0  0  0  0  3  0  0  0  0  0  0
  185.4550  176.8050  145.9430 C   0  0  0  0  0  3  0  0  0  0  0  0
  188.3670  177.0650  142.0780 C   0  0  0  0  0  1  0  0  0  0  0  0
  186.6990  175.4300  142.4680 O   0  0  0  0  0  0  0  0  0  0  0  0
  187.4730  176.2830  142.9820 C   0  0  0  0  0  0  0  0  0  0  0  0
  1  5  1  0  0  0  0
  2  4  1  0  0  0  0
  4  5  1  0  0  0  0
  5  3  2  0  0  0  0
  6  2  2  0  0  0  0
  6  9  1  0  0  0  0
  7  4  2  0  0  0  0
  7 26  1  0  0  0  0
  8 10  2  0  0  0  0
  8  2  1  0  0  0  0
  9  1  2  0  0  0  0
 10  7  1  0  0  0  0
 11 15  2  0  0  0  0
 12 16  1  0  0  0  0
 12  8  1  1  0  0  0
 13 15  2  0  0  0  0
 14 19  1  6  0  0  0
 14 18  1  0  0  0  0
 15 14  1  0  0  0  0
 15 17  1  0  0  0  0
 17 16  1  0  0  0  0
 18 12  1  0  0  0  0
 21 19  1  0  0  0  0
 21 20  2  0  0  0  0
 22 24  1  0  0  0  0
 23 24  1  0  0  0  0
 24 25  2  0  0  0  0
 25 21  1  0  0  0  0
 27 26  1  0  0  0  0
 28 27  1  0  0  0  0
 29 30  1  0  0  0  0
 29 28  2  0  0  0  0
 30 35  1  0  0  0  0
 31 30  2  0  0  0  0
 31 34  1  0  0  0  0
 32 33  1  0  0  0  0
 34 32  2  0  0  0  0
 35 33  2  0  0  0  0
 36 38  1  0  0  0  0
 37 38  2  0  0  0  0
 38 29  1  0  0  0  0
M  END
>  <MODEL>
4

>  <REMARK>
 VINA RESULT:      -7.0      2.757      4.314
  Name = 
  9 active torsions:
  status: ('A' for Active; 'I' for Inactive)
    1  A    between atoms: N_3  and  C_20
    2  A    between atoms: C_4  and  C_7
    3  A    between atoms: C_4  and  C_34
    4  A    between atoms: C_8  and  C_30
    5  A    between atoms: C_15  and  C_20
    6  A    between atoms: C_15  and  C_22
    7  A    between atoms: C_19  and  C_26
    8  A    between atoms: C_19  and  C_32
    9  A    between atoms: N_29  and  C_32
                            x       y       z     vdW  Elec       q    Type
                         _______ _______ _______ _____ _____    ______ ____

>  <TORSDO>
F 9

$$$$
=
 OpenBabel11062421003D

 38 41  0  0  1  0  0  0  0  0999 V2000
  189.1140  172.7040  139.5630 N   0  0  0  0  0  0  0  0  0  0  0  0
  188.5190  174.7840  141.2910 C   0  0  0  0  0  0  0  0  0  0  0  0
  190.1060  171.4830  141.3460 N   0  0  0  0  0  2  0  0  0  0  0  0
  189.1490  173.6390  141.8460 C   0  0  0  0  0  0  0  0  0  0  0  0
  189.4810  172.5400  140.9460 C   0  0  0  0  0  0  0  0  0  0  0  0
  188.1980  174.8830  140.0370 N   0  0  0  0  0  0  0  0  0  0  0  0
  189.2660  173.8520  143.1510 C   0  0  0  0  0  0  0  0  0  0  0  0
  188.2980  175.6850  142.4020 C   0  0  0  0  0  0  0  0  0  0  0  0
  188.5150  173.7910  139.1370 C   0  0  0  0  0  3  0  0  0  0  0  0
  188.7380  175.1450  143.5010 N   0  0  0  0  0  0  0  0  0  0  0  0
  184.1600  178.3500  144.3680 O   0  0  0  0  0  0  0  0  0  0  0  0
  187.6960  177.0470  142.3170 C   0  0  1  0  0  3  0  0  0  0  0  0
  185.6960  180.2110  143.8860 O   0  0  0  0  0  0  0  0  0  0  0  0
  186.8050  177.7900  144.4670 C   0  0  1  0  0  3  0  0  0  0  0  0
  185.4720  178.7320  143.7450 S   0  0  0  0  0  0  0  0  0  0  0  0
  186.2230  176.9750  141.8610 C   0  0  0  0  0  2  0  0  0  0  0  0
  185.4980  178.3050  142.0210 C   0  0  0  0  0  2  0  0  0  0  0  0
  187.9510  177.8030  143.5590 N   0  0  0  0  0  2  0  0  0  0  0  0
  187.1860  178.2410  145.8790 C   0  0  0  0  0  2  0  0  0  0  0  0
  185.9430  177.5640  147.7930 O   0  0  0  0  0  0  0  0  0  0  0  0
  186.8240  177.2600  146.9460 C   0  0  0  0  0  0  0  0  0  0  0  0
  189.7030  176.8880  147.0990 N   0  0  0  0  0  1  0  0  0  0  0  0
  189.2830  174.4700  147.1160 N   0  0  0  0  0  1  0  0  0  0  0  0
  188.7830  175.8000  147.0610 C   0  0  0  0  0  0  0  0  0  0  0  0
  187.4990  175.9940  146.9890 N   0  0  0  0  0  0  0  0  0  0  0  0
  189.8260  172.8850  144.1350 C   0  0  0  0  0  2  0  0  0  0  0  0
  191.3410  172.9950  144.1640 C   0  0  0  0  0  2  0  0  0  0  0  0
  191.7390  174.2940  144.6890 N   0  0  0  0  0  0  0  0  0  0  0  0
  192.9670  174.6760  144.9080 C   0  0  0  0  0  0  0  0  0  0  0  0
  194.1190  173.7630  144.6870 C   0  0  0  0  0  0  0  0  0  0  0  0
  194.4450  172.7790  145.6290 C   0  0  0  0  0  3  0  0  0  0  0  0
  196.2660  172.0510  144.2310 C   0  0  0  0  0  3  0  0  0  0  0  0
  195.9400  173.0060  143.3220 N   0  0  0  0  0  0  0  0  0  0  0  0
  195.5210  171.9180  145.4040 C   0  0  0  0  0  3  0  0  0  0  0  0
  194.8940  173.8520  143.5230 C   0  0  0  0  0  3  0  0  0  0  0  0
  194.1920  176.3540  146.4700 C   0  0  0  0  0  1  0  0  0  0  0  0
  192.4780  177.0010  144.9690 O   0  0  0  0  0  0  0  0  0  0  0  0
  193.1820  176.0530  145.4140 C   0  0  0  0  0  0  0  0  0  0  0  0
  1  5  1  0  0  0  0
  2  4  1  0  0  0  0
  2  8  1  0  0  0  0
  4  7  2  0  0  0  0
  5  3  2  0  0  0  0
  5  4  1  0  0  0  0
  6  2  2  0  0  0  0
  7 10  1  0  0  0  0
  7 26  1  0  0  0  0
  8 10  2  0  0  0  0
  9  1  2  0  0  0  0
  9  6  1  0  0  0  0
 12  8  1  1  0  0  0
 12 18  1  0  0  0  0
 14 19  1  1  0  0  0
 15 13  2  0  0  0  0
 15 11  2  0  0  0  0
 15 14  1  0  0  0  0
 16 17  1  0  0  0  0
 16 12  1  0  0  0  0
 17 15  1  0  0  0  0
 18 14  1  0  0  0  0
 19 21  1  0  0  0  0
 21 25  1  0  0  0  0
 21 20  2  0  0  0  0
 24 22  1  0  0  0  0
 24 23  1  0  0  0  0
 25 24  2  0  0  0  0
 26 27  1  0  0  0  0
 27 28  1  0  0  0  0
 28 29  2  0  0  0  0
 29 38  1  0  0  0  0
 30 29  1  0  0  0  0
 30 31  1  0  0  0  0
 32 34  1  0  0  0  0
 33 35  1  0  0  0  0
 33 32  2  0  0  0  0
 34 31  2  0  0  0  0
 35 30  2  0  0  0  0
 37 38  2  0  0  0  0
 38 36  1  0  0  0  0
M  END
>  <MODEL>
5

>  <REMARK>
 VINA RESULT:      -7.0      3.286      8.654
  Name = 
  9 active torsions:
  status: ('A' for Active; 'I' for Inactive)
    1  A    between atoms: N_3  and  C_20
    2  A    between atoms: C_4  and  C_7
    3  A    between atoms: C_4  and  C_34
    4  A    between atoms: C_8  and  C_30
    5  A    between atoms: C_15  and  C_20
    6  A    between atoms: C_15  and  C_22
    7  A    between atoms: C_19  and  C_26
    8  A    between atoms: C_19  and  C_32
    9  A    between atoms: N_29  and  C_32
                            x       y       z     vdW  Elec       q    Type
                         _______ _______ _______ _____ _____    ______ ____

>  <TORSDO>
F 9

$$$$
=
 OpenBabel11062421003D

 38 41  0  0  1  0  0  0  0  0999 V2000
  189.0050  172.3410  139.1290 N   0  0  0  0  0  0  0  0  0  0  0  0
  188.7440  174.5710  140.7480 C   0  0  0  0  0  0  0  0  0  0  0  0
  190.4970  171.3550  140.6970 N   0  0  0  0  0  2  0  0  0  0  0  0
  189.5660  173.5160  141.2240 C   0  0  0  0  0  0  0  0  0  0  0  0
  189.7250  172.3400  140.3760 C   0  0  0  0  0  0  0  0  0  0  0  0
  188.1060  174.5230  139.6190 N   0  0  0  0  0  0  0  0  0  0  0  0
  190.0000  173.8730  142.4270 C   0  0  0  0  0  0  0  0  0  0  0  0
  188.7590  175.5780  141.7890 C   0  0  0  0  0  0  0  0  0  0  0  0
  188.2500  173.3530  138.7740 C   0  0  0  0  0  3  0  0  0  0  0  0
  189.5000  175.1750  142.7800 N   0  0  0  0  0  0  0  0  0  0  0  0
  184.3850  177.8790  143.7030 O   0  0  0  0  0  0  0  0  0  0  0  0
  188.0700  176.9000  141.7360 C   0  0  1  0  0  3  0  0  0  0  0  0
  185.8090  179.8560  143.3560 O   0  0  0  0  0  0  0  0  0  0  0  0
  187.0570  177.4890  143.8790 C   0  0  1  0  0  3  0  0  0  0  0  0
  185.6890  178.3720  143.1470 S   0  0  0  0  0  0  0  0  0  0  0  0
  186.6220  176.7510  141.2220 C   0  0  0  0  0  2  0  0  0  0  0  0
  185.8050  178.0220  141.4090 C   0  0  0  0  0  2  0  0  0  0  0  0
  188.2300  177.6160  143.0170 N   0  0  0  0  0  2  0  0  0  0  0  0
  187.3570  177.9030  145.3220 C   0  0  0  0  0  2  0  0  0  0  0  0
  186.2690  176.7440  147.0940 O   0  0  0  0  0  0  0  0  0  0  0  0
  187.2510  176.7840  146.3070 C   0  0  0  0  0  0  0  0  0  0  0  0
  189.9770  177.2020  147.2270 N   0  0  0  0  0  1  0  0  0  0  0  0
  190.3940  174.8350  146.7360 N   0  0  0  0  0  1  0  0  0  0  0  0
  189.5050  175.9440  146.7510 C   0  0  0  0  0  0  0  0  0  0  0  0
  188.2810  175.7850  146.3420 N   0  0  0  0  0  0  0  0  0  0  0  0
  190.8540  173.0380  143.3170 C   0  0  0  0  0  2  0  0  0  0  0  0
  192.0330  173.8540  143.8170 C   0  0  0  0  0  2  0  0  0  0  0  0
  193.0450  172.9740  144.3870 N   0  0  0  0  0  0  0  0  0  0  0  0
  194.0840  173.3630  145.0730 C   0  0  0  0  0  0  0  0  0  0  0  0
  194.3760  174.8040  145.2980 C   0  0  0  0  0  0  0  0  0  0  0  0
  193.8790  175.4680  146.4270 C   0  0  0  0  0  3  0  0  0  0  0  0
  194.9620  177.4940  145.7030 C   0  0  0  0  0  3  0  0  0  0  0  0
  195.4410  176.8400  144.6140 N   0  0  0  0  0  0  0  0  0  0  0  0
  194.1710  176.8180  146.6340 C   0  0  0  0  0  3  0  0  0  0  0  0
  195.1690  175.5260  144.3960 C   0  0  0  0  0  3  0  0  0  0  0  0
  196.4440  172.5730  145.8230 C   0  0  0  0  0  1  0  0  0  0  0  0
  194.5390  171.1680  145.8600 O   0  0  0  0  0  0  0  0  0  0  0  0
  194.9900  172.3180  145.6060 C   0  0  0  0  0  0  0  0  0  0  0  0
  1  5  1  0  0  0  0
  2  4  1  0  0  0  0
  2  8  1  0  0  0  0
  4  7  2  0  0  0  0
  5  3  2  0  0  0  0
  5  4  1  0  0  0  0
  6  2  2  0  0  0  0
  7 10  1  0  0  0  0
  7 26  1  0  0  0  0
  8 10  2  0  0  0  0
  9  1  2  0  0  0  0
  9  6  1  0  0  0  0
 12  8  1  1  0  0  0
 12 18  1  0  0  0  0
 14 19  1  1  0  0  0
 15 13  2  0  0  0  0
 15 11  2  0  0  0  0
 15 14  1  0  0  0  0
 16 17  1  0  0  0  0
 16 12  1  0  0  0  0
 17 15  1  0  0  0  0
 18 14  1  0  0  0  0
 19 21  1  0  0  0  0
 21 25  1  0  0  0  0
 21 20  2  0  0  0  0
 23 24  1  0  0  0  0
 24 22  1  0  0  0  0
 25 24  2  0  0  0  0
 26 27  1  0  0  0  0
 27 28  1  0  0  0  0
 28 29  2  0  0  0  0
 29 30  1  0  0  0  0
 29 38  1  0  0  0  0
 30 31  1  0  0  0  0
 31 34  2  0  0  0  0
 32 34  1  0  0  0  0
 33 32  2  0  0  0  0
 35 33  1  0  0  0  0
 35 30  2  0  0  0  0
 38 36  1  0  0  0  0
 38 37  2  0  0  0  0
M  END
>  <MODEL>
6

>  <REMARK>
 VINA RESULT:      -6.9      3.279      8.686
  Name = 
  9 active torsions:
  status: ('A' for Active; 'I' for Inactive)
    1  A    between atoms: N_3  and  C_20
    2  A    between atoms: C_4  and  C_7
    3  A    between atoms: C_4  and  C_34
    4  A    between atoms: C_8  and  C_30
    5  A    between atoms: C_15  and  C_20
    6  A    between atoms: C_15  and  C_22
    7  A    between atoms: C_19  and  C_26
    8  A    between atoms: C_19  and  C_32
    9  A    between atoms: N_29  and  C_32
                            x       y       z     vdW  Elec       q    Type
                         _______ _______ _______ _____ _____    ______ ____

>  <TORSDO>
F 9

$$$$
=
 OpenBabel11062421003D

 38 41  0  0  1  0  0  0  0  0999 V2000
  188.4220  173.5300  139.0090 N   0  0  0  0  0  0  0  0  0  0  0  0
  189.6470  173.4670  141.4910 C   0  0  0  0  0  0  0  0  0  0  0  0
  187.4280  175.6260  139.5330 N   0  0  0  0  0  2  0  0  0  0  0  0
  188.8670  174.6130  141.1800 C   0  0  0  0  0  0  0  0  0  0  0  0
  188.2040  174.6550  139.8820 C   0  0  0  0  0  0  0  0  0  0  0  0
  189.8230  172.4810  140.6660 N   0  0  0  0  0  0  0  0  0  0  0  0
  188.9610  175.4400  142.2150 C   0  0  0  0  0  0  0  0  0  0  0  0
  190.1880  173.7090  142.8120 C   0  0  0  0  0  0  0  0  0  0  0  0
  189.1760  172.5190  139.3690 C   0  0  0  0  0  3  0  0  0  0  0  0
  189.7850  174.8680  143.2470 N   0  0  0  0  0  0  0  0  0  0  0  0
  195.3340  172.7900  143.6860 O   0  0  0  0  0  0  0  0  0  0  0  0
  191.0440  172.7700  143.5920 C   0  0  1  0  0  3  0  0  0  0  0  0
  194.3610  171.8540  145.7430 O   0  0  0  0  0  0  0  0  0  0  0  0
  193.0060  173.8830  144.5280 C   0  0  1  0  0  3  0  0  0  0  0  0
  194.0570  172.4450  144.3960 S   0  0  0  0  0  0  0  0  0  0  0  0
  192.0430  172.0350  142.6710 C   0  0  0  0  0  2  0  0  0  0  0  0
  193.1070  171.2770  143.4530 C   0  0  0  0  0  2  0  0  0  0  0  0
  191.6290  173.4530  144.7620 N   0  0  0  0  0  2  0  0  0  0  0  0
  193.4770  174.8980  145.5730 C   0  0  0  0  0  2  0  0  0  0  0  0
  193.0660  177.1350  144.8730 O   0  0  0  0  0  0  0  0  0  0  0  0
  193.9070  176.2070  144.9950 C   0  0  0  0  0  0  0  0  0  0  0  0
  194.8590  176.1300  142.2490 N   0  0  0  0  0  1  0  0  0  0  0  0
  197.1100  176.5500  143.1290 N   0  0  0  0  0  1  0  0  0  0  0  0
  195.7230  176.3460  143.3620 C   0  0  0  0  0  0  0  0  0  0  0  0
  195.2720  176.3720  144.5810 N   0  0  0  0  0  0  0  0  0  0  0  0
  188.3400  176.7910  142.2960 C   0  0  0  0  0  2  0  0  0  0  0  0
  188.8380  177.5150  143.5350 C   0  0  0  0  0  2  0  0  0  0  0  0
  187.7170  177.8620  144.3980 N   0  0  0  0  0  0  0  0  0  0  0  0
  187.6310  177.5920  145.6710 C   0  0  0  0  0  0  0  0  0  0  0  0
  188.6880  176.8200  146.3770 C   0  0  0  0  0  0  0  0  0  0  0  0
  189.8230  177.4620  146.8890 C   0  0  0  0  0  3  0  0  0  0  0  0
  190.6360  175.3520  147.7170 C   0  0  0  0  0  3  0  0  0  0  0  0
  189.5310  174.7400  147.2190 N   0  0  0  0  0  0  0  0  0  0  0  0
  190.8030  176.7290  147.5620 C   0  0  0  0  0  3  0  0  0  0  0  0
  188.5660  175.4370  146.5620 C   0  0  0  0  0  3  0  0  0  0  0  0
  185.4460  178.9940  145.7750 C   0  0  0  0  0  1  0  0  0  0  0  0
  186.2240  177.6790  147.5830 O   0  0  0  0  0  0  0  0  0  0  0  0
  186.4250  178.0560  146.3960 C   0  0  0  0  0  0  0  0  0  0  0  0
  1  9  2  0  0  0  0
  1  5  1  0  0  0  0
  2  8  1  0  0  0  0
  3  5  2  0  0  0  0
  4  2  1  0  0  0  0
  4  7  2  0  0  0  0
  5  4  1  0  0  0  0
  6  2  2  0  0  0  0
  7 26  1  0  0  0  0
  7 10  1  0  0  0  0
  8 10  2  0  0  0  0
  9  6  1  0  0  0  0
 11 15  2  0  0  0  0
 12  8  1  6  0  0  0
 12 18  1  0  0  0  0
 14 18  1  0  0  0  0
 14 19  1  1  0  0  0
 15 14  1  0  0  0  0
 15 13  2  0  0  0  0
 16 17  1  0  0  0  0
 16 12  1  0  0  0  0
 17 15  1  0  0  0  0
 20 21  2  0  0  0  0
 21 19  1  0  0  0  0
 22 24  1  0  0  0  0
 23 24  1  0  0  0  0
 24 25  2  0  0  0  0
 25 21  1  0  0  0  0
 26 27  1  0  0  0  0
 27 28  1  0  0  0  0
 28 29  2  0  0  0  0
 29 30  1  0  0  0  0
 29 38  1  0  0  0  0
 30 35  2  0  0  0  0
 30 31  1  0  0  0  0
 31 34  2  0  0  0  0
 33 32  2  0  0  0  0
 34 32  1  0  0  0  0
 35 33  1  0  0  0  0
 36 38  1  0  0  0  0
 38 37  2  0  0  0  0
M  END
>  <MODEL>
7

>  <REMARK>
 VINA RESULT:      -6.9      2.666      5.235
  Name = 
  9 active torsions:
  status: ('A' for Active; 'I' for Inactive)
    1  A    between atoms: N_3  and  C_20
    2  A    between atoms: C_4  and  C_7
    3  A    between atoms: C_4  and  C_34
    4  A    between atoms: C_8  and  C_30
    5  A    between atoms: C_15  and  C_20
    6  A    between atoms: C_15  and  C_22
    7  A    between atoms: C_19  and  C_26
    8  A    between atoms: C_19  and  C_32
    9  A    between atoms: N_29  and  C_32
                            x       y       z     vdW  Elec       q    Type
                         _______ _______ _______ _____ _____    ______ ____

>  <TORSDO>
F 9

$$$$
=
 OpenBabel11062421003D

 38 41  0  0  1  0  0  0  0  0999 V2000
  188.9590  172.5550  138.5260 N   0  0  0  0  0  0  0  0  0  0  0  0
  190.0980  172.5890  141.0500 C   0  0  0  0  0  0  0  0  0  0  0  0
  187.8210  174.5910  138.9930 N   0  0  0  0  0  2  0  0  0  0  0  0
  189.2620  173.6820  140.7000 C   0  0  0  0  0  0  0  0  0  0  0  0
  188.6430  173.6720  139.3790 C   0  0  0  0  0  0  0  0  0  0  0  0
  190.3620  171.6080  140.2430 N   0  0  0  0  0  0  0  0  0  0  0  0
  189.2680  174.5230  141.7270 C   0  0  0  0  0  0  0  0  0  0  0  0
  190.5760  172.8760  142.3860 C   0  0  0  0  0  0  0  0  0  0  0  0
  189.7600  171.5950  138.9240 C   0  0  0  0  0  3  0  0  0  0  0  0
  190.0900  174.0120  142.7930 N   0  0  0  0  0  0  0  0  0  0  0  0
  195.5380  172.8330  144.2510 O   0  0  0  0  0  0  0  0  0  0  0  0
  191.4610  171.9980  143.2050 C   0  0  1  0  0  3  0  0  0  0  0  0
  194.4320  171.3770  145.8990 O   0  0  0  0  0  0  0  0  0  0  0  0
  192.9070  173.2870  144.6930 C   0  0  1  0  0  3  0  0  0  0  0  0
  194.2610  172.1270  144.6080 S   0  0  0  0  0  0  0  0  0  0  0  0
  192.7550  171.6450  142.4400 C   0  0  0  0  0  2  0  0  0  0  0  0
  193.7960  170.9820  143.3310 C   0  0  0  0  0  2  0  0  0  0  0  0
  191.6440  172.5640  144.5550 N   0  0  0  0  0  2  0  0  0  0  0  0
  192.9290  174.1730  145.9410 C   0  0  0  0  0  2  0  0  0  0  0  0
  194.5350  175.9300  145.9140 O   0  0  0  0  0  0  0  0  0  0  0  0
  193.3490  175.5820  145.6760 C   0  0  0  0  0  0  0  0  0  0  0  0
  193.0590  176.3530  142.8880 N   0  0  0  0  0  1  0  0  0  0  0  0
  191.2020  177.7960  143.5900 N   0  0  0  0  0  1  0  0  0  0  0  0
  192.2300  176.8720  143.9250 C   0  0  0  0  0  0  0  0  0  0  0  0
  192.3830  176.5140  145.1650 N   0  0  0  0  0  0  0  0  0  0  0  0
  188.5640  175.8340  141.7720 C   0  0  0  0  0  2  0  0  0  0  0  0
  187.6130  175.8700  142.9560 C   0  0  0  0  0  2  0  0  0  0  0  0
  188.3650  175.8440  144.2040 N   0  0  0  0  0  0  0  0  0  0  0  0
  188.0030  176.4210  145.3160 C   0  0  0  0  0  0  0  0  0  0  0  0
  186.7660  177.2420  145.4020 C   0  0  0  0  0  0  0  0  0  0  0  0
  186.6790  178.4780  144.7490 C   0  0  0  0  0  3  0  0  0  0  0  0
  184.4270  178.7420  145.5610 C   0  0  0  0  0  3  0  0  0  0  0  0
  184.5210  177.5410  146.1890 N   0  0  0  0  0  0  0  0  0  0  0  0
  185.5070  179.2340  144.8260 C   0  0  0  0  0  3  0  0  0  0  0  0
  185.6530  176.7910  146.1240 C   0  0  0  0  0  3  0  0  0  0  0  0
  188.9420  174.9770  147.2630 C   0  0  0  0  0  1  0  0  0  0  0  0
  189.5830  177.2270  146.8980 O   0  0  0  0  0  0  0  0  0  0  0  0
  188.8820  176.2570  146.4980 C   0  0  0  0  0  0  0  0  0  0  0  0
  1  9  2  0  0  0  0
  1  5  1  0  0  0  0
  2  8  1  0  0  0  0
  3  5  2  0  0  0  0
  4  2  1  0  0  0  0
  4  7  2  0  0  0  0
  5  4  1  0  0  0  0
  6  2  2  0  0  0  0
  7 26  1  0  0  0  0
  7 10  1  0  0  0  0
  8 10  2  0  0  0  0
  9  6  1  0  0  0  0
 11 15  2  0  0  0  0
 12  8  1  6  0  0  0
 12 18  1  0  0  0  0
 14 19  1  1  0  0  0
 15 14  1  0  0  0  0
 15 13  2  0  0  0  0
 16 12  1  0  0  0  0
 16 17  1  0  0  0  0
 17 15  1  0  0  0  0
 18 14  1  0  0  0  0
 21 20  2  0  0  0  0
 21 19  1  0  0  0  0
 22 24  1  0  0  0  0
 23 24  1  0  0  0  0
 24 25  2  0  0  0  0
 25 21  1  0  0  0  0
 26 27  1  0  0  0  0
 27 28  1  0  0  0  0
 28 29  2  0  0  0  0
 29 30  1  0  0  0  0
 29 38  1  0  0  0  0
 30 35  1  0  0  0  0
 31 34  1  0  0  0  0
 31 30  2  0  0  0  0
 32 33  1  0  0  0  0
 34 32  2  0  0  0  0
 35 33  2  0  0  0  0
 38 37  2  0  0  0  0
 38 36  1  0  0  0  0
M  END
>  <MODEL>
8

>  <REMARK>
 VINA RESULT:      -6.9      2.783      5.079
  Name = 
  9 active torsions:
  status: ('A' for Active; 'I' for Inactive)
    1  A    between atoms: N_3  and  C_20
    2  A    between atoms: C_4  and  C_7
    3  A    between atoms: C_4  and  C_34
    4  A    between atoms: C_8  and  C_30
    5  A    between atoms: C_15  and  C_20
    6  A    between atoms: C_15  and  C_22
    7  A    between atoms: C_19  and  C_26
    8  A    between atoms: C_19  and  C_32
    9  A    between atoms: N_29  and  C_32
                            x       y       z     vdW  Elec       q    Type
                         _______ _______ _______ _____ _____    ______ ____

>  <TORSDO>
F 9

$$$$
=
 OpenBabel11062421003D

 38 41  0  0  1  0  0  0  0  0999 V2000
  189.3140  172.1490  143.0360 N   0  0  0  0  0  0  0  0  0  0  0  0
  190.0040  174.7220  143.7930 C   0  0  0  0  0  0  0  0  0  0  0  0
  187.6180  173.0060  141.6060 N   0  0  0  0  0  1  0  0  0  0  0  0
  188.9700  174.5830  142.8300 C   0  0  0  0  0  0  0  0  0  0  0  0
  188.5860  173.2340  142.4310 C   0  0  0  0  0  0  0  0  0  0  0  0
  190.6400  173.7130  144.3040 N   0  0  0  0  0  0  0  0  0  0  0  0
  188.5950  175.8090  142.4810 C   0  0  0  0  0  0  0  0  0  0  0  0
  190.1790  176.1470  143.9770 C   0  0  1  0  0  3  0  0  0  0  0  0
  190.2720  172.3680  143.9060 C   0  0  0  0  0  3  0  0  0  0  0  0
  189.3500  176.7940  143.2100 N   0  0  0  0  0  0  0  0  0  0  0  0
  194.6940  175.0090  146.5090 O   0  0  0  0  0  0  0  0  0  0  0  0
  191.1300  176.7970  144.9250 C   0  0  1  0  0  3  0  0  0  0  0  0
  194.8440  177.4630  146.4160 O   0  0  0  0  0  0  0  0  0  0  0  0
  193.4510  176.2190  144.4320 C   0  0  1  0  0  3  0  0  0  0  0  0
  193.9710  176.2720  146.1390 S   0  0  0  0  0  0  0  0  0  0  0  0
  191.3090  175.9460  146.2010 C   0  0  0  0  0  2  0  0  0  0  0  0
  192.4640  176.4310  147.0660 C   0  0  0  0  0  2  0  0  0  0  0  0
  192.3710  177.1830  144.2270 N   0  0  0  0  0  2  0  0  0  0  0  0
  194.5930  176.4140  143.4320 C   0  0  0  0  0  2  0  0  0  0  0  0
  194.7110  174.0410  143.2750 O   0  0  0  0  0  0  0  0  0  0  0  0
  195.0530  175.1480  142.7830 C   0  0  0  0  0  0  0  0  0  0  0  0
  194.1100  175.1120  140.0330 N   0  0  0  0  0  1  0  0  0  0  0  0
  196.4540  175.3210  139.3380 N   0  0  0  0  0  1  0  0  0  0  0  0
  195.4890  175.2150  140.3770 C   0  0  0  0  0  0  0  0  0  0  0  0
  195.8850  175.2250  141.6150 N   0  0  0  0  0  0  0  0  0  0  0  0
  187.5680  176.1360  141.4540 C   0  0  0  0  0  2  0  0  0  0  0  0
  187.2510  177.6210  141.4950 C   0  0  0  0  0  2  0  0  0  0  0  0
  185.8210  177.8320  141.3120 N   0  0  0  0  0  0  0  0  0  0  0  0
  184.9590  178.0360  142.2700 C   0  0  0  0  0  0  0  0  0  0  0  0
  185.3630  178.0130  143.7000 C   0  0  0  0  0  0  0  0  0  0  0  0
  185.5400  176.7990  144.3760 C   0  0  0  0  0  3  0  0  0  0  0  0
  186.1450  178.0040  146.3710 C   0  0  0  0  0  3  0  0  0  0  0  0
  185.9730  179.1760  145.7070 N   0  0  0  0  0  0  0  0  0  0  0  0
  185.9330  176.7900  145.7160 C   0  0  0  0  0  3  0  0  0  0  0  0
  185.5930  179.2050  144.4020 C   0  0  0  0  0  3  0  0  0  0  0  0
  183.0430  177.9790  140.5140 C   0  0  0  0  0  1  0  0  0  0  0  0
  182.7400  178.7500  142.7320 O   0  0  0  0  0  0  0  0  0  0  0  0
  183.5450  178.2680  141.8890 C   0  0  0  0  0  0  0  0  0  0  0  0
  1  9  1  0  0  0  0
  2  8  1  0  0  0  0
  2  6  1  0  0  0  0
  3  5  1  0  0  0  0
  4  2  2  0  0  0  0
  5  4  1  0  0  0  0
  5  1  2  0  0  0  0
  7  4  1  0  0  0  0
  7 10  2  0  0  0  0
  8 10  1  1  0  0  0
  8 12  1  0  0  0  0
  9  6  2  0  0  0  0
 12 16  1  1  0  0  0
 14 19  1  6  0  0  0
 14 15  1  0  0  0  0
 15 13  2  0  0  0  0
 15 11  2  0  0  0  0
 15 17  1  0  0  0  0
 16 17  1  0  0  0  0
 18 14  1  0  0  0  0
 18 12  1  0  0  0  0
 21 20  2  0  0  0  0
 21 19  1  0  0  0  0
 22 24  1  0  0  0  0
 23 24  1  0  0  0  0
 24 25  2  0  0  0  0
 25 21  1  0  0  0  0
 26 27  1  0  0  0  0
 26  7  1  0  0  0  0
 28 27  1  0  0  0  0
 28 29  2  0  0  0  0
 29 30  1  0  0  0  0
 30 31  2  0  0  0  0
 30 35  1  0  0  0  0
 31 34  1  0  0  0  0
 33 32  1  0  0  0  0
 34 32  2  0  0  0  0
 35 33  2  0  0  0  0
 36 38  1  0  0  0  0
 38 29  1  0  0  0  0
 38 37  2  0  0  0  0
M  END
>  <MODEL>
9

>  <REMARK>
 VINA RESULT:      -6.8      2.111      3.958
  Name = 
  9 active torsions:
  status: ('A' for Active; 'I' for Inactive)
    1  A    between atoms: N_3  and  C_20
    2  A    between atoms: C_4  and  C_7
    3  A    between atoms: C_4  and  C_34
    4  A    between atoms: C_8  and  C_30
    5  A    between atoms: C_15  and  C_20
    6  A    between atoms: C_15  and  C_22
    7  A    between atoms: C_19  and  C_26
    8  A    between atoms: C_19  and  C_32
    9  A    between atoms: N_29  and  C_32
                            x       y       z     vdW  Elec       q    Type
                         _______ _______ _______ _____ _____    ______ ____

>  <TORSDO>
F 9

$$$$
