=
 OpenBabel11062419123D

 54 57  0  0  1  0  0  0  0  0999 V2000
  194.1870  173.5260  146.1510 C   0  0  0  0  0  2  0  0  0  0  0  0
  192.9770  174.2510  141.7120 C   0  0  2  0  0  3  0  0  0  0  0  0
  196.2260  170.8760  145.2330 C   0  0  1  0  0  3  0  0  0  0  0  0
  187.7780  176.3950  146.3350 O   0  0  0  0  0  0  0  0  0  0  0  0
  196.3440  173.6580  140.8180 C   0  0  1  0  0  0  0  0  0  0  0  0
  190.5250  174.6720  146.0870 C   0  0  0  0  0  2  0  0  0  0  0  0
  187.4410  177.0380  145.3030 C   0  0  0  0  0  0  0  0  0  0  0  0
  191.3000  177.2070  143.6300 C   0  0  0  0  0  2  0  0  0  0  0  0
  192.6550  175.1630  142.9040 C   0  0  1  0  0  3  0  0  0  0  0  0
  194.8180  176.9440  140.9270 O   0  0  0  0  0  0  0  0  0  0  0  0
  193.0580  174.5390  145.9320 C   0  0  2  0  0  3  0  0  0  0  0  0
  194.8680  175.6880  140.8330 C   0  0  0  0  0  0  0  0  0  0  0  0
  196.9630  173.7110  143.1810 O   0  0  0  0  0  1  0  0  0  0  0  0
  193.8070  172.4100  144.0910 O   0  0  0  0  0  0  0  0  0  0  0  0
  196.2250  170.8370  143.8280 O   0  0  0  0  0  0  0  0  0  0  0  0
  196.9960  171.9240  145.7250 F   0  0  0  0  0  0  0  0  0  0  0  0
  197.6100  171.5840  142.0200 C   0  0  2  0  0  3  0  0  0  0  0  0
  193.8620  175.3690  143.7090 N   0  0  0  0  0  2  0  0  0  0  0  0
  189.1550  175.3460  142.5570 O   0  0  0  0  0  0  0  0  0  0  0  0
  191.7210  173.9380  145.4900 C   0  0  0  0  0  2  0  0  0  0  0  0
  193.6080  174.9450  140.5000 C   0  0  0  0  0  2  0  0  0  0  0  0
  197.0940  170.6920  141.0740 O   0  0  0  0  0  1  0  0  0  0  0  0
  191.9870  176.4770  142.4770 C   0  0  0  0  0  2  0  0  0  0  0  0
  197.5540  170.9200  143.3910 C   0  0  0  0  0  2  0  0  0  0  0  0
  196.8700  172.9410  142.0180 C   0  0  2  0  0  0  0  0  0  0  0  0
  194.7950  171.0480  145.7360 C   0  0  0  0  0  2  0  0  0  0  0  0
  190.2980  176.3800  144.3030 N   0  0  0  0  0  0  0  0  0  0  0  0
  191.7230  173.5180  141.2740 C   0  0  0  0  0  1  0  0  0  0  0  0
  195.5270  172.8130  141.6040 O   0  0  0  0  0  0  0  0  0  0  0  0
  196.0960  175.0480  141.0340 O   0  0  0  0  0  0  0  0  0  0  0  0
  187.8100  176.5540  144.0060 N   0  0  0  0  0  2  0  0  0  0  0  0
  194.2020  172.3310  145.2410 C   0  0  0  0  0  0  0  0  0  0  0  0
  190.4760  176.1580  145.7330 C   0  0  0  0  0  2  0  0  0  0  0  0
  189.0850  176.0240  143.6160 C   0  0  0  0  0  0  0  0  0  0  0  0
  193.5010  175.7350  145.0770 C   0  0  0  0  0  2  0  0  0  0  0  0
  197.9410  172.6250  139.3700 F   0  0  0  0  0  0  0  0  0  0  0  0
  196.6730  173.1800  139.3810 C   0  0  2  0  0  0  0  0  0  0  0  0
  196.6750  174.2730  138.5110 O   0  0  0  0  0  1  0  0  0  0  0  0
  195.6910  172.1380  138.8570 C   0  0  0  0  0  2  0  0  0  0  0  0
  194.7150  172.7160  138.0340 O   0  0  0  0  0  0  0  0  0  0  0  0
  192.2310  173.7620  137.2740 O   0  0  0  0  0  1  0  0  0  0  0  0
  193.0300  171.6280  136.8770 O   0  0  0  0  0  0  0  0  0  0  0  0
  190.9590  171.7870  138.1340 C   0  0  0  0  0  1  0  0  0  0  0  0
  192.2650  172.4450  137.7310 C   0  0  2  0  0  0  0  0  0  0  0  0
  193.5820  171.8940  138.1500 C   0  0  2  0  0  0  0  0  0  0  0  0
  193.6920  170.6370  138.9680 C   0  0  0  0  0  0  0  0  0  0  0  0
  193.5290  170.6710  140.1790 O   0  0  0  0  0  0  0  0  0  0  0  0
  193.9800  169.3330  138.2930 C   0  0  0  0  0  1  0  0  0  0  0  0
  186.5610  178.2470  145.4570 C   0  0  2  0  0  3  0  0  0  0  0  0
  186.1810  178.8250  147.9810 C   0  0  0  0  0  1  0  0  0  0  0  0
  184.5090  177.6390  146.6500 C   0  0  0  0  0  2  0  0  0  0  0  0
  185.7110  178.2110  146.7000 C   0  0  0  0  0  0  0  0  0  0  0  0
  185.5400  179.9220  143.9000 C   0  0  0  0  0  1  0  0  0  0  0  0
  185.7150  178.4450  144.2050 C   0  0  0  0  0  2  0  0  0  0  0  0
  2 28  1  6  0  0  0
  2  9  1  0  0  0  0
  3 16  1  6  0  0  0
  3 26  1  0  0  0  0
  5 37  1  6  0  0  0
  5 30  1  0  0  0  0
  5 29  1  0  0  0  0
  5 25  1  0  0  0  0
  7 49  1  0  0  0  0
  7  4  2  0  0  0  0
  8 27  1  0  0  0  0
  9 23  1  6  0  0  0
  9 18  1  0  0  0  0
 11 35  1  6  0  0  0
 11  1  1  0  0  0  0
 12 10  2  0  0  0  0
 12 30  1  0  0  0  0
 14 32  2  0  0  0  0
 15  3  1  0  0  0  0
 17 22  1  6  0  0  0
 17 24  1  0  0  0  0
 18 35  1  0  0  0  0
 19 34  2  0  0  0  0
 20 11  1  0  0  0  0
 20  6  1  0  0  0  0
 21 12  1  0  0  0  0
 21  2  1  0  0  0  0
 23  8  1  0  0  0  0
 24 15  1  0  0  0  0
 25 17  1  0  0  0  0
 25 13  1  1  0  0  0
 27 33  1  0  0  0  0
 29 25  1  0  0  0  0
 31  7  1  0  0  0  0
 32 26  1  0  0  0  0
 32  1  1  0  0  0  0
 33  6  1  0  0  0  0
 34 31  1  0  0  0  0
 34 27  1  0  0  0  0
 36 37  1  0  0  0  0
 37 38  1  6  0  0  0
 39 37  1  0  0  0  0
 40 39  1  0  0  0  0
 41 44  1  0  0  0  0
 42 44  1  0  0  0  0
 42 45  1  0  0  0  0
 44 43  1  1  0  0  0
 44 45  1  0  0  0  0
 45 40  1  1  0  0  0
 45 46  1  0  0  0  0
 46 47  2  0  0  0  0
 48 46  1  0  0  0  0
 49 54  1  6  0  0  0
 49 52  1  0  0  0  0
 51 52  2  0  0  0  0
 52 50  1  0  0  0  0
 53 54  1  0  0  0  0
M  END
>  <MODEL>
1

>  <REMARK>
 VINA RESULT:      -7.4      0.000      0.000
  Name = 
  8 active torsions:
  status: ('A' for Active; 'I' for Inactive)
    1  A    between atoms: C_7  and  C_35
    2  A    between atoms: C_9  and  C_25
    3  A    between atoms: C_15  and  C_46
    4  A    between atoms: C_24  and  C_35
    5  A    between atoms: C_24  and  O_48
    6  A    between atoms: C_25  and  C_34
    7  A    between atoms: C_25  and  C_52
    8  A    between atoms: C_46  and  O_48
                            x       y       z     vdW  Elec       q    Type
                         _______ _______ _______ _____ _____    ______ ____

>  <TORSDO>
F 8

$$$$
=
 OpenBabel11062419123D

 54 57  0  0  1  0  0  0  0  0999 V2000
  189.0620  172.3870  139.4830 C   0  0  0  0  0  2  0  0  0  0  0  0
  192.5150  173.8040  142.2710 C   0  0  2  0  0  3  0  0  0  0  0  0
  191.3380  171.2280  137.1400 C   0  0  1  0  0  3  0  0  0  0  0  0
  186.4700  177.7520  143.2040 O   0  0  0  0  0  0  0  0  0  0  0  0
  194.2330  170.8230  141.4650 C   0  0  1  0  0  0  0  0  0  0  0  0
  187.9260  175.6010  141.2480 C   0  0  0  0  0  2  0  0  0  0  0  0
  187.0760  178.0090  144.2800 C   0  0  0  0  0  0  0  0  0  0  0  0
  189.2940  174.4330  144.3830 C   0  0  0  0  0  2  0  0  0  0  0  0
  191.0220  173.7500  142.6260 C   0  0  1  0  0  3  0  0  0  0  0  0
  192.5360  171.4040  144.6150 O   0  0  0  0  0  0  0  0  0  0  0  0
  188.6310  173.2230  140.6950 C   0  0  2  0  0  3  0  0  0  0  0  0
  193.1240  171.6990  143.5400 C   0  0  0  0  0  0  0  0  0  0  0  0
  192.2180  169.9770  140.3730 O   0  0  0  0  0  1  0  0  0  0  0  0
  191.2710  173.2550  139.4620 O   0  0  0  0  0  0  0  0  0  0  0  0
  192.6140  171.3810  137.7100 O   0  0  0  0  0  0  0  0  0  0  0  0
  190.6420  170.1610  137.6990 F   0  0  0  0  0  0  0  0  0  0  0  0
  194.2240  170.0380  138.8700 C   0  0  2  0  0  3  0  0  0  0  0  0
  190.4640  172.4570  142.2210 N   0  0  0  0  0  2  0  0  0  0  0  0
  190.5500  177.0920  143.6300 O   0  0  0  0  0  0  0  0  0  0  0  0
  188.9920  174.7090  140.6210 C   0  0  0  0  0  2  0  0  0  0  0  0
  193.4580  173.1370  143.2780 C   0  0  0  0  0  2  0  0  0  0  0  0
  195.3190  170.8640  138.5930 O   0  0  0  0  0  1  0  0  0  0  0  0
  190.7540  174.0850  144.1000 C   0  0  0  0  0  2  0  0  0  0  0  0
  193.2440  170.1290  137.7070 C   0  0  0  0  0  2  0  0  0  0  0  0
  193.5440  170.3880  140.2130 C   0  0  2  0  0  0  0  0  0  0  0  0
  190.5300  172.5030  137.3590 C   0  0  0  0  0  2  0  0  0  0  0  0
  188.8110  175.5460  143.5640 N   0  0  0  0  0  0  0  0  0  0  0  0
  192.9400  175.2450  142.0630 C   0  0  0  0  0  1  0  0  0  0  0  0
  193.6930  171.7510  140.5440 O   0  0  0  0  0  0  0  0  0  0  0  0
  193.4430  170.6700  142.6460 O   0  0  0  0  0  0  0  0  0  0  0  0
  188.5040  177.9160  144.3390 N   0  0  0  0  0  2  0  0  0  0  0  0
  190.3490  172.7820  138.8200 C   0  0  0  0  0  0  0  0  0  0  0  0
  187.6510  175.2890  142.7180 C   0  0  0  0  0  2  0  0  0  0  0  0
  189.3200  176.8720  143.7860 C   0  0  0  0  0  0  0  0  0  0  0  0
  189.0200  172.5670  142.0280 C   0  0  0  0  0  2  0  0  0  0  0  0
  196.2680  169.7580  140.8010 F   0  0  0  0  0  0  0  0  0  0  0  0
  195.7760  170.7800  141.5960 C   0  0  2  0  0  0  0  0  0  0  0  0
  196.1280  170.5000  142.9190 O   0  0  0  0  0  1  0  0  0  0  0  0
  196.4500  172.0800  141.1730 C   0  0  0  0  0  2  0  0  0  0  0  0
  196.6960  172.9150  142.2730 O   0  0  0  0  0  0  0  0  0  0  0  0
  196.5790  175.0660  144.0610 O   0  0  0  0  0  1  0  0  0  0  0  0
  197.9410  174.8660  142.2040 O   0  0  0  0  0  0  0  0  0  0  0  0
  196.4450  176.7770  142.2420 C   0  0  0  0  0  1  0  0  0  0  0  0
  196.7230  175.3600  142.7070 C   0  0  2  0  0  0  0  0  0  0  0  0
  196.7690  174.2180  141.7540 C   0  0  2  0  0  0  0  0  0  0  0  0
  196.5750  174.4100  140.2750 C   0  0  0  0  0  0  0  0  0  0  0  0
  195.4490  174.4710  139.8020 O   0  0  0  0  0  0  0  0  0  0  0  0
  197.7660  174.5500  139.3810 C   0  0  0  0  0  1  0  0  0  0  0  0
  186.2850  178.5170  145.4540 C   0  0  2  0  0  3  0  0  0  0  0  0
  186.9970  178.7480  147.9610 C   0  0  0  0  0  1  0  0  0  0  0  0
  186.7840  176.5750  146.8620 C   0  0  0  0  0  2  0  0  0  0  0  0
  186.6990  177.9020  146.7640 C   0  0  0  0  0  0  0  0  0  0  0  0
  183.9870  178.7120  146.4310 C   0  0  0  0  0  1  0  0  0  0  0  0
  184.7930  178.3400  145.1990 C   0  0  0  0  0  2  0  0  0  0  0  0
  2 28  1  1  0  0  0
  2  9  1  0  0  0  0
  2 21  1  0  0  0  0
  3 26  1  0  0  0  0
  3 16  1  1  0  0  0
  3 15  1  0  0  0  0
  4  7  2  0  0  0  0
  5 37  1  1  0  0  0
  5 30  1  0  0  0  0
  6 33  1  0  0  0  0
  7 31  1  0  0  0  0
  7 49  1  0  0  0  0
  9 23  1  1  0  0  0
 11  1  1  6  0  0  0
 11 35  1  0  0  0  0
 12 10  2  0  0  0  0
 17 22  1  6  0  0  0
 17 25  1  0  0  0  0
 18  9  1  0  0  0  0
 19 34  2  0  0  0  0
 20 11  1  0  0  0  0
 20  6  1  0  0  0  0
 21 12  1  0  0  0  0
 23  8  1  0  0  0  0
 24 15  1  0  0  0  0
 24 17  1  0  0  0  0
 25 13  1  1  0  0  0
 25 29  1  0  0  0  0
 25  5  1  0  0  0  0
 26 32  1  0  0  0  0
 27 34  1  0  0  0  0
 27  8  1  0  0  0  0
 29  5  1  0  0  0  0
 30 12  1  0  0  0  0
 32 14  2  0  0  0  0
 32  1  1  0  0  0  0
 33 27  1  0  0  0  0
 34 31  1  0  0  0  0
 35 18  1  0  0  0  0
 37 36  1  6  0  0  0
 37 38  1  0  0  0  0
 39 37  1  0  0  0  0
 39 40  1  0  0  0  0
 42 44  1  0  0  0  0
 44 43  1  6  0  0  0
 44 41  1  0  0  0  0
 45 46  1  6  0  0  0
 45 42  1  0  0  0  0
 45 40  1  0  0  0  0
 45 44  1  0  0  0  0
 47 46  2  0  0  0  0
 48 46  1  0  0  0  0
 49 54  1  6  0  0  0
 49 52  1  0  0  0  0
 52 51  2  0  0  0  0
 52 50  1  0  0  0  0
 54 53  1  0  0  0  0
M  END
>  <MODEL>
2

>  <REMARK>
 VINA RESULT:      -7.2      2.212      5.282
  Name = 
  8 active torsions:
  status: ('A' for Active; 'I' for Inactive)
    1  A    between atoms: C_7  and  C_35
    2  A    between atoms: C_9  and  C_25
    3  A    between atoms: C_15  and  C_46
    4  A    between atoms: C_24  and  C_35
    5  A    between atoms: C_24  and  O_48
    6  A    between atoms: C_25  and  C_34
    7  A    between atoms: C_25  and  C_52
    8  A    between atoms: C_46  and  O_48
                            x       y       z     vdW  Elec       q    Type
                         _______ _______ _______ _____ _____    ______ ____

>  <TORSDO>
F 8

$$$$
=
 OpenBabel11062419123D

 54 57  0  0  1  0  0  0  0  0999 V2000
  188.7640  176.1560  147.6440 C   0  0  0  0  0  2  0  0  0  0  0  0
  189.2640  177.0870  143.1070 C   0  0  2  0  0  3  0  0  0  0  0  0
  186.2110  178.4870  147.9110 C   0  0  1  0  0  3  0  0  0  0  0  0
  195.4670  174.7320  146.1020 O   0  0  0  0  0  0  0  0  0  0  0  0
  185.7410  177.2290  142.8660 C   0  0  1  0  0  0  0  0  0  0  0  0
  192.4880  175.8530  146.7690 C   0  0  0  0  0  2  0  0  0  0  0  0
  195.7100  174.5190  144.8830 C   0  0  0  0  0  0  0  0  0  0  0  0
  191.6890  174.0910  143.7170 C   0  0  0  0  0  2  0  0  0  0  0  0
  189.9280  175.9390  143.8800 C   0  0  1  0  0  3  0  0  0  0  0  0
  187.7490  174.4490  141.6910 O   0  0  0  0  0  0  0  0  0  0  0  0
  189.9780  175.5090  146.9680 C   0  0  2  0  0  3  0  0  0  0  0  0
  187.4910  175.6360  142.0280 C   0  0  0  0  0  0  0  0  0  0  0  0
  185.5670  176.3300  145.1320 O   0  0  0  0  0  1  0  0  0  0  0  0
  188.5960  177.9020  146.0450 O   0  0  0  0  0  0  0  0  0  0  0  0
  185.9570  178.9540  146.6090 O   0  0  0  0  0  0  0  0  0  0  0  0
  185.7110  177.2050  148.1120 F   0  0  0  0  0  0  0  0  0  0  0  0
  184.4050  178.5320  144.8330 C   0  0  2  0  0  3  0  0  0  0  0  0
  188.9300  175.2560  144.7070 N   0  0  0  0  0  2  0  0  0  0  0  0
  193.2970  176.5860  143.0820 O   0  0  0  0  0  0  0  0  0  0  0  0
  191.1070  176.4750  146.5970 C   0  0  0  0  0  2  0  0  0  0  0  0
  188.5430  176.6850  141.8170 C   0  0  0  0  0  2  0  0  0  0  0  0
  184.6010  179.7570  144.1850 O   0  0  0  0  0  1  0  0  0  0  0  0
  190.7040  174.9840  142.9630 C   0  0  0  0  0  2  0  0  0  0  0  0
  184.6000  178.7410  146.3290 C   0  0  0  0  0  2  0  0  0  0  0  0
  185.3330  177.4210  144.2900 C   0  0  2  0  0  0  0  0  0  0  0  0
  187.7180  178.4640  148.1540 C   0  0  0  0  0  2  0  0  0  0  0  0
  192.6550  174.8570  144.5040 N   0  0  0  0  0  0  0  0  0  0  0  0
  190.2920  178.1580  142.7950 C   0  0  0  0  0  1  0  0  0  0  0  0
  186.5450  177.9400  143.7870 O   0  0  0  0  0  0  0  0  0  0  0  0
  186.2340  175.9200  142.5750 O   0  0  0  0  0  0  0  0  0  0  0  0
  195.0480  175.2920  143.8750 N   0  0  0  0  0  2  0  0  0  0  0  0
  188.4040  177.5420  147.1940 C   0  0  0  0  0  0  0  0  0  0  0  0
  192.7010  174.5890  145.9370 C   0  0  0  0  0  2  0  0  0  0  0  0
  193.6570  175.6450  143.8380 C   0  0  0  0  0  0  0  0  0  0  0  0
  189.5800  174.5700  145.8210 C   0  0  0  0  0  2  0  0  0  0  0  0
  185.3490  177.4180  140.5150 F   0  0  0  0  0  0  0  0  0  0  0  0
  185.0930  178.0470  141.7220 C   0  0  2  0  0  0  0  0  0  0  0  0
  185.6670  179.3210  141.6710 O   0  0  0  0  0  1  0  0  0  0  0  0
  183.5830  178.1950  141.8720 C   0  0  0  0  0  2  0  0  0  0  0  0
  183.0390  178.9950  140.8560 O   0  0  0  0  0  0  0  0  0  0  0  0
  182.3240  176.9690  139.0600 O   0  0  0  0  0  1  0  0  0  0  0  0
  181.5030  177.2970  141.1970 O   0  0  0  0  0  0  0  0  0  0  0  0
  179.8710  177.3160  139.4000 C   0  0  0  0  0  1  0  0  0  0  0  0
  181.3100  177.5420  139.8250 C   0  0  2  0  0  0  0  0  0  0  0  0
  181.6860  178.6300  140.7670 C   0  0  2  0  0  0  0  0  0  0  0  0
  180.6580  179.5440  141.3760 C   0  0  0  0  0  0  0  0  0  0  0  0
  180.4000  179.4770  142.5690 O   0  0  0  0  0  0  0  0  0  0  0  0
  179.9620  180.5550  140.5200 C   0  0  0  0  0  1  0  0  0  0  0  0
  196.7790  173.5270  144.5190 C   0  0  2  0  0  3  0  0  0  0  0  0
  197.9210  175.0110  142.6910 C   0  0  0  0  0  1  0  0  0  0  0  0
  197.2720  172.6930  142.2680 C   0  0  0  0  0  2  0  0  0  0  0  0
  197.3170  173.7130  143.1250 C   0  0  0  0  0  0  0  0  0  0  0  0
  196.8120  171.5390  146.0430 C   0  0  0  0  0  1  0  0  0  0  0  0
  196.2750  172.1060  144.7400 C   0  0  0  0  0  2  0  0  0  0  0  0
  2 28  1  6  0  0  0
  2  9  1  0  0  0  0
  3 16  1  6  0  0  0
  3 26  1  0  0  0  0
  5 37  1  6  0  0  0
  5 29  1  0  0  0  0
  5 25  1  0  0  0  0
  7  4  2  0  0  0  0
  8 27  1  0  0  0  0
  9 23  1  6  0  0  0
  9 18  1  0  0  0  0
 10 12  2  0  0  0  0
 11 35  1  6  0  0  0
 11  1  1  0  0  0  0
 12 30  1  0  0  0  0
 14 32  2  0  0  0  0
 15  3  1  0  0  0  0
 17 22  1  6  0  0  0
 17 24  1  0  0  0  0
 18 35  1  0  0  0  0
 19 34  2  0  0  0  0
 20  6  1  0  0  0  0
 20 11  1  0  0  0  0
 21 12  1  0  0  0  0
 21  2  1  0  0  0  0
 23  8  1  0  0  0  0
 24 15  1  0  0  0  0
 25 17  1  0  0  0  0
 25 13  1  1  0  0  0
 27 33  1  0  0  0  0
 29 25  1  0  0  0  0
 30  5  1  0  0  0  0
 31  7  1  0  0  0  0
 32  1  1  0  0  0  0
 32 26  1  0  0  0  0
 33  6  1  0  0  0  0
 34 31  1  0  0  0  0
 34 27  1  0  0  0  0
 37 36  1  6  0  0  0
 37 39  1  0  0  0  0
 38 37  1  0  0  0  0
 40 39  1  0  0  0  0
 41 44  1  0  0  0  0
 44 43  1  6  0  0  0
 44 45  1  0  0  0  0
 44 42  1  0  0  0  0
 45 40  1  6  0  0  0
 45 42  1  0  0  0  0
 45 46  1  0  0  0  0
 46 47  2  0  0  0  0
 48 46  1  0  0  0  0
 49 54  1  6  0  0  0
 49  7  1  0  0  0  0
 50 52  1  0  0  0  0
 51 52  2  0  0  0  0
 52 49  1  0  0  0  0
 54 53  1  0  0  0  0
M  END
>  <MODEL>
3

>  <REMARK>
 VINA RESULT:      -7.0      4.329     10.727
  Name = 
  8 active torsions:
  status: ('A' for Active; 'I' for Inactive)
    1  A    between atoms: C_7  and  C_35
    2  A    between atoms: C_9  and  C_25
    3  A    between atoms: C_15  and  C_46
    4  A    between atoms: C_24  and  C_35
    5  A    between atoms: C_24  and  O_48
    6  A    between atoms: C_25  and  C_34
    7  A    between atoms: C_25  and  C_52
    8  A    between atoms: C_46  and  O_48
                            x       y       z     vdW  Elec       q    Type
                         _______ _______ _______ _____ _____    ______ ____

>  <TORSDO>
F 8

$$$$
=
 OpenBabel11062419123D

 54 57  0  0  1  0  0  0  0  0999 V2000
  188.6060  172.6240  139.1210 C   0  0  0  0  0  2  0  0  0  0  0  0
  192.0760  173.7270  142.0280 C   0  0  2  0  0  3  0  0  0  0  0  0
  190.8600  171.4090  136.7840 C   0  0  1  0  0  3  0  0  0  0  0  0
  186.2630  178.0060  142.9800 O   0  0  0  0  0  0  0  0  0  0  0  0
  193.6270  170.6760  141.1490 C   0  0  1  0  0  0  0  0  0  0  0  0
  187.6290  175.8380  140.9770 C   0  0  0  0  0  2  0  0  0  0  0  0
  186.8590  178.1870  144.0770 C   0  0  0  0  0  0  0  0  0  0  0  0
  188.8520  174.4800  144.0950 C   0  0  0  0  0  2  0  0  0  0  0  0
  190.5750  173.7530  142.3500 C   0  0  1  0  0  3  0  0  0  0  0  0
  191.8980  171.2500  144.2830 O   0  0  0  0  0  0  0  0  0  0  0  0
  188.2000  173.4420  140.3530 C   0  0  2  0  0  3  0  0  0  0  0  0
  192.5270  171.5450  143.2310 C   0  0  0  0  0  0  0  0  0  0  0  0
  191.5890  169.9940  139.9860 O   0  0  0  0  0  1  0  0  0  0  0  0
  190.8640  173.3550  139.1760 O   0  0  0  0  0  0  0  0  0  0  0  0
  192.1300  171.4640  137.3850 O   0  0  0  0  0  0  0  0  0  0  0  0
  190.0880  170.3680  137.2890 F   0  0  0  0  0  0  0  0  0  0  0  0
  193.6290  169.9840  138.5280 C   0  0  2  0  0  3  0  0  0  0  0  0
  189.9480  172.5110  141.8870 N   0  0  0  0  0  2  0  0  0  0  0  0
  190.2850  177.0810  143.4650 O   0  0  0  0  0  0  0  0  0  0  0  0
  188.6530  174.9050  140.3400 C   0  0  0  0  0  2  0  0  0  0  0  0
  192.9540  172.9690  143.0290 C   0  0  0  0  0  2  0  0  0  0  0  0
  194.7780  170.7500  138.3040 O   0  0  0  0  0  1  0  0  0  0  0  0
  190.2950  174.0520  143.8290 C   0  0  0  0  0  2  0  0  0  0  0  0
  192.6820  170.1750  137.3500 C   0  0  0  0  0  2  0  0  0  0  0  0
  192.9410  170.3280  139.8690 C   0  0  2  0  0  0  0  0  0  0  0  0
  190.1260  172.7230  137.0330 C   0  0  0  0  0  2  0  0  0  0  0  0
  188.4570  175.6480  143.3070 N   0  0  0  0  0  0  0  0  0  0  0  0
  192.5930  175.1450  141.8800 C   0  0  0  0  0  1  0  0  0  0  0  0
  193.1660  171.6670  140.2520 O   0  0  0  0  0  0  0  0  0  0  0  0
  192.8030  170.5310  142.3070 O   0  0  0  0  0  0  0  0  0  0  0  0
  188.2770  178.0040  144.1610 N   0  0  0  0  0  2  0  0  0  0  0  0
  189.9300  172.9620  138.4980 C   0  0  0  0  0  0  0  0  0  0  0  0
  187.3020  175.4930  142.4290 C   0  0  0  0  0  2  0  0  0  0  0  0
  189.0410  176.9320  143.5880 C   0  0  0  0  0  0  0  0  0  0  0  0
  188.5180  172.7180  141.6690 C   0  0  0  0  0  2  0  0  0  0  0  0
  195.7850  171.5660  140.6310 F   0  0  0  0  0  0  0  0  0  0  0  0
  195.1610  170.5330  141.3100 C   0  0  2  0  0  0  0  0  0  0  0  0
  195.5830  169.3290  140.7390 O   0  0  0  0  0  1  0  0  0  0  0  0
  195.6180  170.5730  142.7630 C   0  0  0  0  0  2  0  0  0  0  0  0
  196.6010  171.5520  142.9690 O   0  0  0  0  0  0  0  0  0  0  0  0
  196.9230  174.1670  143.9150 O   0  0  0  0  0  1  0  0  0  0  0  0
  195.5450  172.5250  144.7850 O   0  0  0  0  0  0  0  0  0  0  0  0
  197.2150  173.4400  146.2910 C   0  0  0  0  0  1  0  0  0  0  0  0
  196.8050  173.1480  144.8590 C   0  0  2  0  0  0  0  0  0  0  0  0
  196.6510  171.7560  144.3570 C   0  0  2  0  0  0  0  0  0  0  0  0
  196.8610  170.5630  145.2490 C   0  0  0  0  0  0  0  0  0  0  0  0
  197.9410  169.9920  145.2730 O   0  0  0  0  0  0  0  0  0  0  0  0
  195.7480  170.0870  146.1280 C   0  0  0  0  0  1  0  0  0  0  0  0
  186.0740  178.7010  145.2520 C   0  0  2  0  0  3  0  0  0  0  0  0
  186.7520  178.7270  147.7790 C   0  0  0  0  0  1  0  0  0  0  0  0
  186.3050  176.6500  146.5720 C   0  0  0  0  0  2  0  0  0  0  0  0
  186.3820  177.9800  146.5370 C   0  0  0  0  0  0  0  0  0  0  0  0
  183.7640  178.7380  146.2160 C   0  0  0  0  0  1  0  0  0  0  0  0
  184.5830  178.6770  144.9390 C   0  0  0  0  0  2  0  0  0  0  0  0
  2 28  1  1  0  0  0
  2  9  1  0  0  0  0
  2 21  1  0  0  0  0
  3 26  1  0  0  0  0
  3 16  1  1  0  0  0
  3 15  1  0  0  0  0
  4  7  2  0  0  0  0
  5 37  1  1  0  0  0
  5 30  1  0  0  0  0
  6 33  1  0  0  0  0
  7 31  1  0  0  0  0
  7 49  1  0  0  0  0
  9 23  1  1  0  0  0
 11  1  1  6  0  0  0
 11 35  1  0  0  0  0
 12 10  2  0  0  0  0
 17 22  1  6  0  0  0
 17 25  1  0  0  0  0
 18  9  1  0  0  0  0
 19 34  2  0  0  0  0
 20 11  1  0  0  0  0
 20  6  1  0  0  0  0
 21 12  1  0  0  0  0
 23  8  1  0  0  0  0
 24 15  1  0  0  0  0
 24 17  1  0  0  0  0
 25 13  1  1  0  0  0
 25 29  1  0  0  0  0
 25  5  1  0  0  0  0
 26 32  1  0  0  0  0
 27 34  1  0  0  0  0
 27  8  1  0  0  0  0
 29  5  1  0  0  0  0
 30 12  1  0  0  0  0
 32  1  1  0  0  0  0
 32 14  2  0  0  0  0
 33 27  1  0  0  0  0
 34 31  1  0  0  0  0
 35 18  1  0  0  0  0
 37 36  1  6  0  0  0
 37 39  1  0  0  0  0
 38 37  1  0  0  0  0
 39 40  1  0  0  0  0
 41 44  1  0  0  0  0
 42 44  1  0  0  0  0
 44 43  1  1  0  0  0
 45 40  1  6  0  0  0
 45 42  1  0  0  0  0
 45 44  1  0  0  0  0
 45 46  1  0  0  0  0
 46 47  2  0  0  0  0
 46 48  1  0  0  0  0
 49 54  1  6  0  0  0
 49 52  1  0  0  0  0
 52 51  2  0  0  0  0
 52 50  1  0  0  0  0
 54 53  1  0  0  0  0
M  END
>  <MODEL>
4

>  <REMARK>
 VINA RESULT:      -7.0      2.398      5.812
  Name = 
  8 active torsions:
  status: ('A' for Active; 'I' for Inactive)
    1  A    between atoms: C_7  and  C_35
    2  A    between atoms: C_9  and  C_25
    3  A    between atoms: C_15  and  C_46
    4  A    between atoms: C_24  and  C_35
    5  A    between atoms: C_24  and  O_48
    6  A    between atoms: C_25  and  C_34
    7  A    between atoms: C_25  and  C_52
    8  A    between atoms: C_46  and  O_48
                            x       y       z     vdW  Elec       q    Type
                         _______ _______ _______ _____ _____    ______ ____

>  <TORSDO>
F 8

$$$$
=
 OpenBabel11062419123D

 54 57  0  0  1  0  0  0  0  0999 V2000
  188.6900  172.1430  138.9220 C   0  0  0  0  0  2  0  0  0  0  0  0
  192.3820  173.3110  141.5130 C   0  0  2  0  0  3  0  0  0  0  0  0
  190.7510  170.9190  136.4170 C   0  0  1  0  0  3  0  0  0  0  0  0
  186.6300  177.5520  142.9040 O   0  0  0  0  0  0  0  0  0  0  0  0
  193.8820  170.2620  140.5420 C   0  0  1  0  0  0  0  0  0  0  0  0
  187.8430  175.3720  140.8180 C   0  0  0  0  0  2  0  0  0  0  0  0
  187.3150  177.7510  143.9450 C   0  0  0  0  0  0  0  0  0  0  0  0
  189.3370  174.0610  143.8360 C   0  0  0  0  0  2  0  0  0  0  0  0
  190.9140  173.3280  141.9600 C   0  0  1  0  0  3  0  0  0  0  0  0
  192.4180  170.8590  143.8040 O   0  0  0  0  0  0  0  0  0  0  0  0
  188.3820  172.9730  140.1750 C   0  0  2  0  0  3  0  0  0  0  0  0
  192.9530  171.1470  142.6990 C   0  0  0  0  0  0  0  0  0  0  0  0
  191.7600  169.5490  139.5630 O   0  0  0  0  0  1  0  0  0  0  0  0
  190.9380  172.8940  138.7780 O   0  0  0  0  0  0  0  0  0  0  0  0
  192.0660  170.9920  136.9080 O   0  0  0  0  0  0  0  0  0  0  0  0
  190.0340  169.8780  136.9980 F   0  0  0  0  0  0  0  0  0  0  0  0
  193.6690  169.5380  137.9380 C   0  0  2  0  0  3  0  0  0  0  0  0
  190.2620  172.0760  141.5670 N   0  0  0  0  0  2  0  0  0  0  0  0
  190.6870  176.6670  143.0580 O   0  0  0  0  0  0  0  0  0  0  0  0
  188.8180  174.4390  140.1070 C   0  0  0  0  0  2  0  0  0  0  0  0
  193.3480  172.5720  142.4450 C   0  0  0  0  0  2  0  0  0  0  0  0
  194.7880  170.3120  137.6090 O   0  0  0  0  0  1  0  0  0  0  0  0
  190.7560  173.6430  143.4550 C   0  0  0  0  0  2  0  0  0  0  0  0
  192.6250  169.7080  136.8420 C   0  0  0  0  0  2  0  0  0  0  0  0
  193.0940  169.8930  139.3280 C   0  0  2  0  0  0  0  0  0  0  0  0
  190.0280  172.2300  136.7120 C   0  0  0  0  0  2  0  0  0  0  0  0
  188.8660  175.2160  143.0720 N   0  0  0  0  0  0  0  0  0  0  0  0
  192.8710  174.7310  141.3070 C   0  0  0  0  0  1  0  0  0  0  0  0
  193.3380  171.2380  139.6760 O   0  0  0  0  0  0  0  0  0  0  0  0
  193.1600  170.1240  141.7670 O   0  0  0  0  0  0  0  0  0  0  0  0
  188.7370  177.5810  143.9110 N   0  0  0  0  0  2  0  0  0  0  0  0
  189.9540  172.4850  138.1860 C   0  0  0  0  0  0  0  0  0  0  0  0
  187.6430  175.0410  142.2960 C   0  0  0  0  0  2  0  0  0  0  0  0
  189.4590  176.5090  143.2870 C   0  0  0  0  0  0  0  0  0  0  0  0
  188.8170  172.2670  141.4670 C   0  0  0  0  0  2  0  0  0  0  0  0
  195.7930  168.9430  139.9720 F   0  0  0  0  0  0  0  0  0  0  0  0
  195.4260  170.1340  140.5740 C   0  0  2  0  0  0  0  0  0  0  0  0
  195.8670  170.0970  141.9000 O   0  0  0  0  0  1  0  0  0  0  0  0
  196.1370  171.2730  139.8520 C   0  0  0  0  0  2  0  0  0  0  0  0
  195.9520  172.4970  140.5110 O   0  0  0  0  0  0  0  0  0  0  0  0
  197.6760  174.4000  141.6280 O   0  0  0  0  0  1  0  0  0  0  0  0
  197.9100  173.3260  139.5930 O   0  0  0  0  0  0  0  0  0  0  0  0
  197.8030  175.7510  139.5270 C   0  0  0  0  0  1  0  0  0  0  0  0
  197.4350  174.4730  140.2580 C   0  0  2  0  0  0  0  0  0  0  0  0
  196.5060  173.4720  139.6660 C   0  0  2  0  0  0  0  0  0  0  0  0
  195.9070  173.6570  138.2990 C   0  0  0  0  0  0  0  0  0  0  0  0
  196.5550  173.3850  137.2980 O   0  0  0  0  0  0  0  0  0  0  0  0
  194.5030  174.1560  138.1630 C   0  0  0  0  0  1  0  0  0  0  0  0
  186.6270  178.2730  145.1750 C   0  0  2  0  0  3  0  0  0  0  0  0
  185.0560  176.7800  146.6420 C   0  0  0  0  0  1  0  0  0  0  0  0
  187.4910  176.6670  146.8110 C   0  0  0  0  0  2  0  0  0  0  0  0
  186.4260  177.2240  146.2370 C   0  0  0  0  0  0  0  0  0  0  0  0
  185.5680  180.2870  144.1300 C   0  0  0  0  0  1  0  0  0  0  0  0
  185.3140  178.9470  144.7980 C   0  0  0  0  0  2  0  0  0  0  0  0
  2 28  1  1  0  0  0
  2  9  1  0  0  0  0
  2 21  1  0  0  0  0
  3 26  1  0  0  0  0
  3 15  1  0  0  0  0
  3 16  1  1  0  0  0
  4  7  2  0  0  0  0
  5 37  1  1  0  0  0
  5 30  1  0  0  0  0
  6 33  1  0  0  0  0
  7 49  1  0  0  0  0
  9 23  1  1  0  0  0
 11  1  1  6  0  0  0
 11 35  1  0  0  0  0
 12 10  2  0  0  0  0
 17 22  1  6  0  0  0
 17 25  1  0  0  0  0
 18  9  1  0  0  0  0
 19 34  2  0  0  0  0
 20 11  1  0  0  0  0
 20  6  1  0  0  0  0
 21 12  1  0  0  0  0
 23  8  1  0  0  0  0
 24 15  1  0  0  0  0
 24 17  1  0  0  0  0
 25 13  1  1  0  0  0
 25 29  1  0  0  0  0
 25  5  1  0  0  0  0
 26 32  1  0  0  0  0
 27 34  1  0  0  0  0
 27  8  1  0  0  0  0
 29  5  1  0  0  0  0
 30 12  1  0  0  0  0
 31  7  1  0  0  0  0
 32 14  2  0  0  0  0
 32  1  1  0  0  0  0
 33 27  1  0  0  0  0
 34 31  1  0  0  0  0
 35 18  1  0  0  0  0
 37 36  1  6  0  0  0
 37 38  1  0  0  0  0
 39 40  1  0  0  0  0
 39 37  1  0  0  0  0
 42 45  1  0  0  0  0
 42 44  1  0  0  0  0
 44 43  1  6  0  0  0
 44 41  1  0  0  0  0
 45 46  1  6  0  0  0
 45 44  1  0  0  0  0
 45 40  1  0  0  0  0
 47 46  2  0  0  0  0
 48 46  1  0  0  0  0
 49 54  1  6  0  0  0
 49 52  1  0  0  0  0
 52 50  1  0  0  0  0
 52 51  2  0  0  0  0
 53 54  1  0  0  0  0
M  END
>  <MODEL>
5

>  <REMARK>
 VINA RESULT:      -6.9      2.488      5.442
  Name = 
  8 active torsions:
  status: ('A' for Active; 'I' for Inactive)
    1  A    between atoms: C_7  and  C_35
    2  A    between atoms: C_9  and  C_25
    3  A    between atoms: C_15  and  C_46
    4  A    between atoms: C_24  and  C_35
    5  A    between atoms: C_24  and  O_48
    6  A    between atoms: C_25  and  C_34
    7  A    between atoms: C_25  and  C_52
    8  A    between atoms: C_46  and  O_48
                            x       y       z     vdW  Elec       q    Type
                         _______ _______ _______ _____ _____    ______ ____

>  <TORSDO>
F 8

$$$$
=
 OpenBabel11062419123D

 54 57  0  0  1  0  0  0  0  0999 V2000
  194.0910  173.5130  146.1340 C   0  0  0  0  0  2  0  0  0  0  0  0
  192.8850  174.4900  141.7410 C   0  0  2  0  0  3  0  0  0  0  0  0
  196.0430  170.8490  145.0770 C   0  0  1  0  0  3  0  0  0  0  0  0
  187.7750  176.5680  146.4920 O   0  0  0  0  0  0  0  0  0  0  0  0
  196.2280  173.8380  140.8010 C   0  0  1  0  0  0  0  0  0  0  0  0
  190.4660  174.7740  146.1450 C   0  0  0  0  0  2  0  0  0  0  0  0
  187.4550  177.2690  145.4950 C   0  0  0  0  0  0  0  0  0  0  0  0
  191.3100  177.4000  143.8100 C   0  0  0  0  0  2  0  0  0  0  0  0
  192.5970  175.3530  142.9780 C   0  0  1  0  0  3  0  0  0  0  0  0
  194.8060  177.1600  141.0780 O   0  0  0  0  0  0  0  0  0  0  0  0
  192.9930  174.5710  145.9710 C   0  0  2  0  0  3  0  0  0  0  0  0
  194.8160  175.9090  140.9220 C   0  0  0  0  0  0  0  0  0  0  0  0
  196.8590  173.7560  143.1600 O   0  0  0  0  0  1  0  0  0  0  0  0
  193.6680  172.5110  144.0240 O   0  0  0  0  0  0  0  0  0  0  0  0
  196.0340  170.8790  143.6710 O   0  0  0  0  0  0  0  0  0  0  0  0
  196.8470  171.8480  145.6150 F   0  0  0  0  0  0  0  0  0  0  0  0
  197.4340  171.6700  141.8940 C   0  0  2  0  0  3  0  0  0  0  0  0
  193.8130  175.4820  143.7860 N   0  0  0  0  0  2  0  0  0  0  0  0
  189.1030  175.6610  142.6610 O   0  0  0  0  0  0  0  0  0  0  0  0
  191.6360  174.0340  145.5070 C   0  0  0  0  0  2  0  0  0  0  0  0
  193.5330  175.2230  140.5610 C   0  0  0  0  0  2  0  0  0  0  0  0
  196.8870  170.8410  140.9090 O   0  0  0  0  0  1  0  0  0  0  0  0
  191.9690  176.7070  142.6190 C   0  0  0  0  0  2  0  0  0  0  0  0
  197.3640  170.9420  143.2310 C   0  0  0  0  0  2  0  0  0  0  0  0
  196.7370  173.0470  141.9620 C   0  0  2  0  0  0  0  0  0  0  0  0
  194.6200  171.0410  145.5950 C   0  0  0  0  0  2  0  0  0  0  0  0
  190.2850  176.5730  144.4480 N   0  0  0  0  0  0  0  0  0  0  0  0
  191.6080  173.8190  141.2760 C   0  0  0  0  0  1  0  0  0  0  0  0
  195.3890  172.9810  141.5500 O   0  0  0  0  0  0  0  0  0  0  0  0
  196.0250  175.2230  141.0860 O   0  0  0  0  0  0  0  0  0  0  0  0
  187.8020  176.8380  144.1740 N   0  0  0  0  0  2  0  0  0  0  0  0
  194.0650  172.3640  145.1670 C   0  0  0  0  0  0  0  0  0  0  0  0
  190.4620  176.2760  145.8650 C   0  0  0  0  0  2  0  0  0  0  0  0
  189.0590  176.2890  143.7520 C   0  0  0  0  0  0  0  0  0  0  0  0
  193.4700  175.7920  145.1710 C   0  0  0  0  0  2  0  0  0  0  0  0
  196.0130  172.1580  139.1120 F   0  0  0  0  0  0  0  0  0  0  0  0
  196.5360  173.4200  139.3410 C   0  0  2  0  0  0  0  0  0  0  0  0
  197.9200  173.3500  139.1540 O   0  0  0  0  0  1  0  0  0  0  0  0
  195.9500  174.3740  138.3080 C   0  0  0  0  0  2  0  0  0  0  0  0
  194.9300  173.7650  137.5620 O   0  0  0  0  0  0  0  0  0  0  0  0
  192.9330  175.6320  136.9600 O   0  0  0  0  0  1  0  0  0  0  0  0
  195.1810  175.7740  136.4390 O   0  0  0  0  0  0  0  0  0  0  0  0
  193.6350  175.8490  134.5690 C   0  0  0  0  0  1  0  0  0  0  0  0
  193.9040  175.3900  135.9900 C   0  0  2  0  0  0  0  0  0  0  0  0
  194.9560  174.3850  136.3030 C   0  0  2  0  0  0  0  0  0  0  0  0
  195.8320  173.7950  135.2320 C   0  0  0  0  0  0  0  0  0  0  0  0
  195.7310  172.6140  134.9320 O   0  0  0  0  0  0  0  0  0  0  0  0
  196.8170  174.6630  134.5150 C   0  0  0  0  0  1  0  0  0  0  0  0
  186.6130  178.4960  145.7120 C   0  0  2  0  0  3  0  0  0  0  0  0
  186.8490  179.2210  148.2150 C   0  0  0  0  0  1  0  0  0  0  0  0
  184.8300  178.1440  147.3560 C   0  0  0  0  0  2  0  0  0  0  0  0
  186.0580  178.5990  147.1080 C   0  0  0  0  0  0  0  0  0  0  0  0
  185.5500  179.8990  143.9310 C   0  0  0  0  0  1  0  0  0  0  0  0
  185.5090  178.5700  144.6640 C   0  0  0  0  0  2  0  0  0  0  0  0
  2 28  1  6  0  0  0
  2  9  1  0  0  0  0
  3 26  1  0  0  0  0
  3 16  1  1  0  0  0
  5 37  1  6  0  0  0
  5 30  1  0  0  0  0
  5 29  1  0  0  0  0
  5 25  1  0  0  0  0
  7 49  1  0  0  0  0
  7  4  2  0  0  0  0
  8 27  1  0  0  0  0
  9 23  1  6  0  0  0
  9 18  1  0  0  0  0
 11 35  1  6  0  0  0
 11  1  1  0  0  0  0
 12 10  2  0  0  0  0
 12 30  1  0  0  0  0
 14 32  2  0  0  0  0
 15  3  1  0  0  0  0
 17 22  1  6  0  0  0
 17 25  1  0  0  0  0
 17 24  1  0  0  0  0
 18 35  1  0  0  0  0
 19 34  2  0  0  0  0
 20 11  1  0  0  0  0
 20  6  1  0  0  0  0
 21 12  1  0  0  0  0
 21  2  1  0  0  0  0
 23  8  1  0  0  0  0
 24 15  1  0  0  0  0
 25 13  1  1  0  0  0
 27 33  1  0  0  0  0
 29 25  1  0  0  0  0
 31  7  1  0  0  0  0
 32 26  1  0  0  0  0
 32  1  1  0  0  0  0
 33  6  1  0  0  0  0
 34 31  1  0  0  0  0
 34 27  1  0  0  0  0
 37 36  1  6  0  0  0
 38 37  1  0  0  0  0
 39 37  1  0  0  0  0
 40 39  1  0  0  0  0
 44 43  1  6  0  0  0
 44 45  1  0  0  0  0
 44 42  1  0  0  0  0
 44 41  1  0  0  0  0
 45 46  1  6  0  0  0
 45 42  1  0  0  0  0
 45 40  1  0  0  0  0
 47 46  2  0  0  0  0
 48 46  1  0  0  0  0
 49 54  1  6  0  0  0
 49 52  1  0  0  0  0
 52 51  2  0  0  0  0
 52 50  1  0  0  0  0
 53 54  1  0  0  0  0
M  END
>  <MODEL>
6

>  <REMARK>
 VINA RESULT:      -6.9      1.553      2.026
  Name = 
  8 active torsions:
  status: ('A' for Active; 'I' for Inactive)
    1  A    between atoms: C_7  and  C_35
    2  A    between atoms: C_9  and  C_25
    3  A    between atoms: C_15  and  C_46
    4  A    between atoms: C_24  and  C_35
    5  A    between atoms: C_24  and  O_48
    6  A    between atoms: C_25  and  C_34
    7  A    between atoms: C_25  and  C_52
    8  A    between atoms: C_46  and  O_48
                            x       y       z     vdW  Elec       q    Type
                         _______ _______ _______ _____ _____    ______ ____

>  <TORSDO>
F 8

$$$$
=
 OpenBabel11062419123D

 54 57  0  0  1  0  0  0  0  0999 V2000
  195.0990  175.6460  145.1390 C   0  0  0  0  0  2  0  0  0  0  0  0
  192.1820  172.9000  142.7620 C   0  0  2  0  0  3  0  0  0  0  0  0
  197.4940  173.1400  145.2270 C   0  0  1  0  0  3  0  0  0  0  0  0
  188.6240  177.8310  146.7640 O   0  0  0  0  0  0  0  0  0  0  0  0
  194.9530  171.7870  140.8720 C   0  0  1  0  0  0  0  0  0  0  0  0
  191.5210  176.4350  146.2820 C   0  0  0  0  0  2  0  0  0  0  0  0
  187.7220  177.5160  145.9400 C   0  0  0  0  0  0  0  0  0  0  0  0
  190.3460  176.3420  142.8660 C   0  0  0  0  0  2  0  0  0  0  0  0
  192.0010  174.3990  143.0370 C   0  0  1  0  0  3  0  0  0  0  0  0
  192.4650  174.1240  139.6500 O   0  0  0  0  0  0  0  0  0  0  0  0
  193.6770  176.1910  144.9600 C   0  0  2  0  0  3  0  0  0  0  0  0
  192.9420  173.2010  140.3650 C   0  0  0  0  0  0  0  0  0  0  0  0
  196.3210  173.5470  141.8730 O   0  0  0  0  0  1  0  0  0  0  0  0
  194.4410  173.3820  144.8590 O   0  0  0  0  0  0  0  0  0  0  0  0
  196.9960  172.0820  144.4450 O   0  0  0  0  0  0  0  0  0  0  0  0
  197.9400  174.2000  144.4460 F   0  0  0  0  0  0  0  0  0  0  0  0
  197.2440  171.2410  142.2150 C   0  0  2  0  0  3  0  0  0  0  0  0
  193.2470  175.1110  142.7410 N   0  0  0  0  0  2  0  0  0  0  0  0
  188.8180  174.3250  144.5430 O   0  0  0  0  0  0  0  0  0  0  0  0
  192.5990  175.4800  145.7810 C   0  0  0  0  0  2  0  0  0  0  0  0
  192.0220  172.4720  141.2990 C   0  0  0  0  0  2  0  0  0  0  0  0
  196.7920  169.9490  142.5040 O   0  0  0  0  0  1  0  0  0  0  0  0
  190.7850  174.9890  142.3080 C   0  0  0  0  0  2  0  0  0  0  0  0
  197.9410  171.7970  143.4500 C   0  0  0  0  0  2  0  0  0  0  0  0
  196.1050  172.1730  141.7400 C   0  0  2  0  0  0  0  0  0  0  0  0
  196.3900  173.6480  146.1510 C   0  0  0  0  0  2  0  0  0  0  0  0
  190.0430  176.2900  144.2960 N   0  0  0  0  0  0  0  0  0  0  0  0
  191.2250  172.1010  143.6250 C   0  0  0  0  0  1  0  0  0  0  0  0
  194.8560  171.8030  142.2820 O   0  0  0  0  0  0  0  0  0  0  0  0
  194.3020  172.8950  140.2460 O   0  0  0  0  0  0  0  0  0  0  0  0
  187.7450  176.2300  145.3100 N   0  0  0  0  0  2  0  0  0  0  0  0
  195.2260  174.1660  145.3640 C   0  0  0  0  0  0  0  0  0  0  0  0
  190.7980  177.1860  145.1650 C   0  0  0  0  0  2  0  0  0  0  0  0
  188.8910  175.5640  144.7580 C   0  0  0  0  0  0  0  0  0  0  0  0
  193.2990  176.3690  143.4820 C   0  0  0  0  0  2  0  0  0  0  0  0
  194.8370  169.4150  141.1470 F   0  0  0  0  0  0  0  0  0  0  0  0
  194.8900  170.4030  140.1790 C   0  0  2  0  0  0  0  0  0  0  0  0
  196.0500  170.2020  139.4250 O   0  0  0  0  0  1  0  0  0  0  0  0
  193.6790  170.2440  139.2660 C   0  0  0  0  0  2  0  0  0  0  0  0
  194.0370  170.3330  137.9130 O   0  0  0  0  0  0  0  0  0  0  0  0
  194.0820  168.4970  135.7990 O   0  0  0  0  0  1  0  0  0  0  0  0
  192.4010  168.7910  137.3600 O   0  0  0  0  0  0  0  0  0  0  0  0
  191.7740  169.0830  135.0330 C   0  0  0  0  0  1  0  0  0  0  0  0
  192.8730  169.1320  136.0780 C   0  0  2  0  0  0  0  0  0  0  0  0
  192.8520  170.1190  137.1910 C   0  0  2  0  0  0  0  0  0  0  0  0
  191.7250  171.1010  137.3590 C   0  0  0  0  0  0  0  0  0  0  0  0
  190.7060  170.7780  137.9520 O   0  0  0  0  0  0  0  0  0  0  0  0
  191.8600  172.4890  136.8150 C   0  0  0  0  0  1  0  0  0  0  0  0
  186.5760  178.4640  145.7220 C   0  0  2  0  0  3  0  0  0  0  0  0
  185.3920  179.0170  147.9900 C   0  0  0  0  0  1  0  0  0  0  0  0
  184.4610  177.4210  146.3900 C   0  0  0  0  0  2  0  0  0  0  0  0
  185.4440  178.2670  146.6970 C   0  0  0  0  0  0  0  0  0  0  0  0
  185.5980  179.7360  143.7990 C   0  0  0  0  0  1  0  0  0  0  0  0
  186.0930  178.3830  144.2800 C   0  0  0  0  0  2  0  0  0  0  0  0
  1 32  1  0  0  0  0
  2  9  1  0  0  0  0
  2 28  1  1  0  0  0
  3 16  1  6  0  0  0
  3 26  1  0  0  0  0
  5 37  1  6  0  0  0
  5 25  1  0  0  0  0
  5 29  1  0  0  0  0
  7  4  2  0  0  0  0
  8 27  1  0  0  0  0
  9 23  1  6  0  0  0
 10 12  2  0  0  0  0
 11 35  1  6  0  0  0
 11  1  1  0  0  0  0
 11 20  1  0  0  0  0
 12 21  1  0  0  0  0
 14 32  2  0  0  0  0
 15  3  1  0  0  0  0
 17 22  1  1  0  0  0
 17 24  1  0  0  0  0
 18  9  1  0  0  0  0
 18 35  1  0  0  0  0
 19 34  2  0  0  0  0
 20  6  1  0  0  0  0
 21  2  1  0  0  0  0
 23  8  1  0  0  0  0
 24 15  1  0  0  0  0
 25 13  1  1  0  0  0
 25 17  1  0  0  0  0
 25 29  1  0  0  0  0
 27 34  1  0  0  0  0
 27 33  1  0  0  0  0
 30 12  1  0  0  0  0
 30  5  1  0  0  0  0
 31  7  1  0  0  0  0
 32 26  1  0  0  0  0
 33  6  1  0  0  0  0
 34 31  1  0  0  0  0
 37 38  1  6  0  0  0
 37 36  1  0  0  0  0
 39 37  1  0  0  0  0
 40 39  1  0  0  0  0
 41 44  1  0  0  0  0
 44 43  1  6  0  0  0
 44 45  1  0  0  0  0
 44 42  1  0  0  0  0
 45 46  1  6  0  0  0
 45 42  1  0  0  0  0
 45 40  1  0  0  0  0
 46 47  2  0  0  0  0
 48 46  1  0  0  0  0
 49 54  1  6  0  0  0
 49  7  1  0  0  0  0
 49 52  1  0  0  0  0
 51 52  2  0  0  0  0
 52 50  1  0  0  0  0
 53 54  1  0  0  0  0
M  END
>  <MODEL>
7

>  <REMARK>
 VINA RESULT:      -6.8      1.860      2.460
  Name = 
  8 active torsions:
  status: ('A' for Active; 'I' for Inactive)
    1  A    between atoms: C_7  and  C_35
    2  A    between atoms: C_9  and  C_25
    3  A    between atoms: C_15  and  C_46
    4  A    between atoms: C_24  and  C_35
    5  A    between atoms: C_24  and  O_48
    6  A    between atoms: C_25  and  C_34
    7  A    between atoms: C_25  and  C_52
    8  A    between atoms: C_46  and  O_48
                            x       y       z     vdW  Elec       q    Type
                         _______ _______ _______ _____ _____    ______ ____

>  <TORSDO>
F 8

$$$$
=
 OpenBabel11062419123D

 54 57  0  0  1  0  0  0  0  0999 V2000
  194.1520  176.7510  142.4290 C   0  0  0  0  0  2  0  0  0  0  0  0
  192.4490  172.5670  143.5670 C   0  0  2  0  0  3  0  0  0  0  0  0
  197.3910  175.5130  142.4490 C   0  0  1  0  0  3  0  0  0  0  0  0
  188.1620  177.9730  145.8900 O   0  0  0  0  0  0  0  0  0  0  0  0
  194.7760  171.1380  141.3240 C   0  0  1  0  0  0  0  0  0  0  0  0
  191.1150  177.2820  144.7150 C   0  0  0  0  0  2  0  0  0  0  0  0
  187.3490  177.0090  145.9240 C   0  0  0  0  0  0  0  0  0  0  0  0
  189.2630  174.7330  142.9450 C   0  0  0  0  0  2  0  0  0  0  0  0
  191.6350  173.7960  143.1390 C   0  0  1  0  0  3  0  0  0  0  0  0
  191.2360  171.4950  140.6280 O   0  0  0  0  0  0  0  0  0  0  0  0
  192.6590  176.7180  142.7770 C   0  0  2  0  0  3  0  0  0  0  0  0
  192.2790  171.3930  141.3300 C   0  0  0  0  0  0  0  0  0  0  0  0
  195.3100  173.3690  140.4840 O   0  0  0  0  0  1  0  0  0  0  0  0
  194.6480  174.7790  143.6540 O   0  0  0  0  0  0  0  0  0  0  0  0
  197.2890  174.1270  142.6590 O   0  0  0  0  0  0  0  0  0  0  0  0
  197.0250  175.8740  141.1570 F   0  0  0  0  0  0  0  0  0  0  0  0
  197.3030  172.1190  141.3510 C   0  0  2  0  0  3  0  0  0  0  0  0
  192.2350  174.3940  141.9430 N   0  0  0  0  0  2  0  0  0  0  0  0
  189.4490  174.0220  145.8910 O   0  0  0  0  0  0  0  0  0  0  0  0
  192.3410  176.4990  144.2590 C   0  0  0  0  0  2  0  0  0  0  0  0
  192.1310  171.2690  142.8170 C   0  0  0  0  0  2  0  0  0  0  0  0
  197.6450  171.2680  142.4080 O   0  0  0  0  0  1  0  0  0  0  0  0
  190.1410  173.4830  142.9690 C   0  0  0  0  0  2  0  0  0  0  0  0
  197.9410  173.4800  141.6000 C   0  0  0  0  0  2  0  0  0  0  0  0
  195.7740  172.2370  141.1590 C   0  0  2  0  0  0  0  0  0  0  0  0
  196.4790  176.2410  143.4330 C   0  0  0  0  0  2  0  0  0  0  0  0
  189.4260  175.5590  144.1420 N   0  0  0  0  0  0  0  0  0  0  0  0
  192.2870  172.3380  145.0570 C   0  0  0  0  0  1  0  0  0  0  0  0
  195.0710  172.0460  142.3670 O   0  0  0  0  0  0  0  0  0  0  0  0
  193.5220  171.3920  140.6870 O   0  0  0  0  0  0  0  0  0  0  0  0
  187.8310  175.6700  146.0800 N   0  0  0  0  0  2  0  0  0  0  0  0
  195.0470  175.8500  143.2310 C   0  0  0  0  0  0  0  0  0  0  0  0
  189.8440  176.9420  143.9390 C   0  0  0  0  0  2  0  0  0  0  0  0
  188.9570  175.0780  145.4140 C   0  0  0  0  0  0  0  0  0  0  0  0
  191.8580  175.8030  141.8400 C   0  0  0  0  0  2  0  0  0  0  0  0
  196.2950  169.4010  140.6980 F   0  0  0  0  0  0  0  0  0  0  0  0
  195.2180  169.6670  141.5260 C   0  0  2  0  0  0  0  0  0  0  0  0
  194.1760  168.8090  141.1640 O   0  0  0  0  0  1  0  0  0  0  0  0
  195.6320  169.3580  142.9610 C   0  0  0  0  0  2  0  0  0  0  0  0
  194.6280  169.7090  143.8750 O   0  0  0  0  0  0  0  0  0  0  0  0
  193.2160  168.1800  145.7470 O   0  0  0  0  0  1  0  0  0  0  0  0
  195.4970  168.1660  145.3660 O   0  0  0  0  0  0  0  0  0  0  0  0
  194.7830  168.7330  147.6160 C   0  0  0  0  0  1  0  0  0  0  0  0
  194.4480  168.7020  146.1370 C   0  0  2  0  0  0  0  0  0  0  0  0
  195.1910  169.5290  145.1480 C   0  0  2  0  0  0  0  0  0  0  0  0
  196.3360  170.4150  145.5560 C   0  0  0  0  0  0  0  0  0  0  0  0
  197.4340  169.9350  145.7970 O   0  0  0  0  0  0  0  0  0  0  0  0
  196.1350  171.8950  145.6460 C   0  0  0  0  0  1  0  0  0  0  0  0
  185.8750  177.3050  145.9090 C   0  0  2  0  0  3  0  0  0  0  0  0
  184.3920  178.7550  144.3140 C   0  0  0  0  0  1  0  0  0  0  0  0
  185.7460  176.8910  143.4970 C   0  0  0  0  0  2  0  0  0  0  0  0
  185.3440  177.6230  144.5360 C   0  0  0  0  0  0  0  0  0  0  0  0
  186.1500  178.1040  148.2660 C   0  0  0  0  0  1  0  0  0  0  0  0
  185.5500  178.4110  146.9050 C   0  0  0  0  0  2  0  0  0  0  0  0
  1 11  1  0  0  0  0
  1 32  1  0  0  0  0
  2 28  1  1  0  0  0
  3 16  1  6  0  0  0
  3 15  1  0  0  0  0
  3 26  1  0  0  0  0
  4  7  2  0  0  0  0
  5 37  1  1  0  0  0
  5 29  1  0  0  0  0
  7 31  1  0  0  0  0
  8 23  1  0  0  0  0
  8 27  1  0  0  0  0
  9 23  1  6  0  0  0
  9  2  1  0  0  0  0
 10 12  2  0  0  0  0
 11 35  1  6  0  0  0
 11 20  1  0  0  0  0
 12 21  1  0  0  0  0
 17 24  1  0  0  0  0
 17 22  1  1  0  0  0
 18  9  1  0  0  0  0
 20  6  1  0  0  0  0
 21  2  1  0  0  0  0
 24 15  1  0  0  0  0
 25 13  1  6  0  0  0
 25  5  1  0  0  0  0
 25 17  1  0  0  0  0
 25 29  1  0  0  0  0
 27 34  1  0  0  0  0
 30  5  1  0  0  0  0
 30 12  1  0  0  0  0
 32 26  1  0  0  0  0
 32 14  2  0  0  0  0
 33 27  1  0  0  0  0
 33  6  1  0  0  0  0
 34 19  2  0  0  0  0
 34 31  1  0  0  0  0
 35 18  1  0  0  0  0
 37 36  1  6  0  0  0
 37 39  1  0  0  0  0
 38 37  1  0  0  0  0
 39 40  1  0  0  0  0
 41 44  1  0  0  0  0
 42 44  1  0  0  0  0
 44 43  1  1  0  0  0
 45 40  1  6  0  0  0
 45 42  1  0  0  0  0
 45 46  1  0  0  0  0
 45 44  1  0  0  0  0
 46 48  1  0  0  0  0
 46 47  2  0  0  0  0
 49  7  1  0  0  0  0
 49 54  1  1  0  0  0
 50 52  1  0  0  0  0
 51 52  2  0  0  0  0
 52 49  1  0  0  0  0
 54 53  1  0  0  0  0
M  END
>  <MODEL>
8

>  <REMARK>
 VINA RESULT:      -6.7      2.310      4.847
  Name = 
  8 active torsions:
  status: ('A' for Active; 'I' for Inactive)
    1  A    between atoms: C_7  and  C_35
    2  A    between atoms: C_9  and  C_25
    3  A    between atoms: C_15  and  C_46
    4  A    between atoms: C_24  and  C_35
    5  A    between atoms: C_24  and  O_48
    6  A    between atoms: C_25  and  C_34
    7  A    between atoms: C_25  and  C_52
    8  A    between atoms: C_46  and  O_48
                            x       y       z     vdW  Elec       q    Type
                         _______ _______ _______ _____ _____    ______ ____

>  <TORSDO>
F 8

$$$$
=
 OpenBabel11062419123D

 54 57  0  0  1  0  0  0  0  0999 V2000
  195.2310  174.0560  143.7070 C   0  0  0  0  0  2  0  0  0  0  0  0
  190.6620  174.1960  142.8090 C   0  0  2  0  0  3  0  0  0  0  0  0
  194.9810  176.8360  145.7640 C   0  0  1  0  0  3  0  0  0  0  0  0
  194.4170  171.1930  137.3440 O   0  0  0  0  0  0  0  0  0  0  0  0
  190.1320  174.9560  146.2200 C   0  0  1  0  0  0  0  0  0  0  0  0
  194.6950  172.9370  140.0750 C   0  0  0  0  0  2  0  0  0  0  0  0
  193.2610  170.7610  137.0870 C   0  0  0  0  0  0  0  0  0  0  0  0
  191.8570  170.9230  141.0520 C   0  0  0  0  0  2  0  0  0  0  0  0
  191.6310  173.0710  142.4220 C   0  0  1  0  0  3  0  0  0  0  0  0
  189.5040  171.7070  144.7390 O   0  0  0  0  0  0  0  0  0  0  0  0
  194.7440  173.1010  142.6100 C   0  0  2  0  0  3  0  0  0  0  0  0
  189.6560  172.9580  144.7760 C   0  0  0  0  0  0  0  0  0  0  0  0
  192.4780  174.4500  146.6790 O   0  0  0  0  0  1  0  0  0  0  0  0
  193.4010  175.5460  143.4500 O   0  0  0  0  0  0  0  0  0  0  0  0
  193.6120  177.1440  145.8560 O   0  0  0  0  0  0  0  0  0  0  0  0
  195.3150  175.7140  146.5140 F   0  0  0  0  0  0  0  0  0  0  0  0
  191.7950  176.7610  147.3710 C   0  0  2  0  0  3  0  0  0  0  0  0
  192.4640  172.7160  143.5750 N   0  0  0  0  0  2  0  0  0  0  0  0
  191.0160  172.9520  138.9560 O   0  0  0  0  0  0  0  0  0  0  0  0
  194.3340  173.7730  141.2980 C   0  0  0  0  0  2  0  0  0  0  0  0
  189.3860  173.7490  143.5310 C   0  0  0  0  0  2  0  0  0  0  0  0
  191.0040  177.8180  146.9070 O   0  0  0  0  0  1  0  0  0  0  0  0
  190.9150  171.8620  141.8040 C   0  0  0  0  0  2  0  0  0  0  0  0
  193.2600  177.1490  147.2130 C   0  0  0  0  0  2  0  0  0  0  0  0
  191.4810  175.4290  146.6530 C   0  0  2  0  0  0  0  0  0  0  0  0
  195.3410  176.5680  144.3050 C   0  0  0  0  0  2  0  0  0  0  0  0
  192.6050  171.6030  139.9940 N   0  0  0  0  0  0  0  0  0  0  0  0
  190.2870  174.9970  141.5780 C   0  0  0  0  0  1  0  0  0  0  0  0
  191.0080  175.6330  145.3390 O   0  0  0  0  0  0  0  0  0  0  0  0
  190.0600  173.5490  145.9790 O   0  0  0  0  0  0  0  0  0  0  0  0
  192.1090  171.4850  137.5350 N   0  0  0  0  0  2  0  0  0  0  0  0
  194.5700  175.4030  143.7650 C   0  0  0  0  0  0  0  0  0  0  0  0
  194.0600  171.5460  140.0730 C   0  0  0  0  0  2  0  0  0  0  0  0
  191.9170  172.0830  138.8260 C   0  0  0  0  0  0  0  0  0  0  0  0
  193.7070  172.0930  143.1280 C   0  0  0  0  0  2  0  0  0  0  0  0
  189.1870  176.8660  147.3030 F   0  0  0  0  0  0  0  0  0  0  0  0
  188.8410  175.7020  146.6380 C   0  0  2  0  0  0  0  0  0  0  0  0
  188.1030  174.9070  147.5200 O   0  0  0  0  0  1  0  0  0  0  0  0
  187.9540  176.0750  145.4550 C   0  0  0  0  0  2  0  0  0  0  0  0
  188.0810  177.4310  145.1210 O   0  0  0  0  0  0  0  0  0  0  0  0
  187.3660  178.5870  142.6740 O   0  0  0  0  0  1  0  0  0  0  0  0
  186.0850  177.1710  143.9780 O   0  0  0  0  0  0  0  0  0  0  0  0
  185.1370  179.3560  143.5080 C   0  0  0  0  0  1  0  0  0  0  0  0
  186.3860  178.5090  143.6620 C   0  0  2  0  0  0  0  0  0  0  0  0
  186.7700  177.9100  144.9690 C   0  0  2  0  0  0  0  0  0  0  0  0
  185.9240  178.0830  146.2000 C   0  0  0  0  0  0  0  0  0  0  0  0
  186.0950  179.0420  146.9380 O   0  0  0  0  0  0  0  0  0  0  0  0
  184.8510  177.0880  146.5110 C   0  0  0  0  0  1  0  0  0  0  0  0
  193.1190  169.5430  136.2160 C   0  0  2  0  0  3  0  0  0  0  0  0
  190.8190  168.4220  136.7630 C   0  0  0  0  0  1  0  0  0  0  0  0
  191.1890  169.7010  134.7150 C   0  0  0  0  0  2  0  0  0  0  0  0
  191.6900  169.2300  135.8560 C   0  0  0  0  0  0  0  0  0  0  0  0
  193.5890  168.3530  138.3690 C   0  0  0  0  0  1  0  0  0  0  0  0
  193.8070  168.3490  136.8660 C   0  0  0  0  0  2  0  0  0  0  0  0
  1 32  1  0  0  0  0
  2 28  1  6  0  0  0
  2 21  1  0  0  0  0
  3 15  1  0  0  0  0
  3 16  1  1  0  0  0
  5 37  1  1  0  0  0
  5 25  1  0  0  0  0
  6 20  1  0  0  0  0
  7  4  2  0  0  0  0
  7 31  1  0  0  0  0
  8 23  1  0  0  0  0
  9 23  1  1  0  0  0
  9  2  1  0  0  0  0
  9 18  1  0  0  0  0
 10 12  2  0  0  0  0
 11 20  1  6  0  0  0
 11 35  1  0  0  0  0
 11  1  1  0  0  0  0
 12 30  1  0  0  0  0
 14 32  2  0  0  0  0
 15 24  1  0  0  0  0
 17 22  1  6  0  0  0
 21 12  1  0  0  0  0
 24 17  1  0  0  0  0
 25 13  1  1  0  0  0
 25 17  1  0  0  0  0
 26  3  1  0  0  0  0
 27 33  1  0  0  0  0
 27  8  1  0  0  0  0
 29  5  1  0  0  0  0
 29 25  1  0  0  0  0
 30  5  1  0  0  0  0
 31 34  1  0  0  0  0
 32 26  1  0  0  0  0
 33  6  1  0  0  0  0
 34 19  2  0  0  0  0
 34 27  1  0  0  0  0
 35 18  1  0  0  0  0
 37 36  1  1  0  0  0
 37 38  1  0  0  0  0
 39 37  1  0  0  0  0
 40 39  1  0  0  0  0
 41 44  1  0  0  0  0
 42 45  1  0  0  0  0
 44 43  1  6  0  0  0
 44 42  1  0  0  0  0
 44 45  1  0  0  0  0
 45 40  1  1  0  0  0
 45 46  1  0  0  0  0
 46 48  1  0  0  0  0
 46 47  2  0  0  0  0
 49 54  1  1  0  0  0
 49  7  1  0  0  0  0
 51 52  2  0  0  0  0
 52 49  1  0  0  0  0
 52 50  1  0  0  0  0
 54 53  1  0  0  0  0
M  END
>  <MODEL>
9

>  <REMARK>
 VINA RESULT:      -5.8      3.018      9.436
  Name = 
  8 active torsions:
  status: ('A' for Active; 'I' for Inactive)
    1  A    between atoms: C_7  and  C_35
    2  A    between atoms: C_9  and  C_25
    3  A    between atoms: C_15  and  C_46
    4  A    between atoms: C_24  and  C_35
    5  A    between atoms: C_24  and  O_48
    6  A    between atoms: C_25  and  C_34
    7  A    between atoms: C_25  and  C_52
    8  A    between atoms: C_46  and  O_48
                            x       y       z     vdW  Elec       q    Type
                         _______ _______ _______ _____ _____    ______ ____

>  <TORSDO>
F 8

$$$$
