=
 OpenBabel11062422223D

 41 45  0  0  1  0  0  0  0  0999 V2000
  189.9440  174.4650  142.1880 C   0  0  2  0  0  3  0  0  0  0  0  0
  189.9780  174.5510  144.6320 C   0  0  0  0  0  0  0  0  0  0  0  0
  189.7510  176.3910  146.2580 C   0  0  0  0  0  3  0  0  0  0  0  0
  190.4050  175.0850  145.9590 C   0  0  0  0  0  2  0  0  0  0  0  0
  189.9640  177.4800  145.5240 C   0  0  0  0  0  3  0  0  0  0  0  0
  189.3870  173.3300  144.6130 F   0  0  0  0  0  0  0  0  0  0  0  0
  190.7860  177.5250  144.3010 C   0  0  0  0  0  0  0  0  0  0  0  0
  190.8770  176.5290  143.4090 C   0  0  0  0  0  3  0  0  0  0  0  0
  191.4260  178.8200  143.9540 C   0  0  0  0  0  1  0  0  0  0  0  0
  190.2560  175.1790  143.4770 C   0  0  0  0  0  0  0  0  0  0  0  0
  188.5210  174.5960  141.7220 C   0  0  0  0  0  0  0  0  0  0  0  0
  187.8030  173.6120  141.6190 O   0  0  0  0  0  0  0  0  0  0  0  0
  187.9800  175.9620  141.4060 C   0  0  0  0  0  2  0  0  0  0  0  0
  185.2990  178.4040  142.5540 N   0  0  0  0  0  0  0  0  0  0  0  0
  185.9910  177.5350  141.6460 C   0  0  0  0  0  0  0  0  0  0  0  0
  185.6960  176.8490  144.4090 C   0  0  1  0  0  3  0  0  0  0  0  0
  184.1690  178.6700  146.0470 C   0  0  0  0  0  2  0  0  0  0  0  0
  185.8330  177.7220  140.3410 C   0  0  0  0  0  2  0  0  0  0  0  0
  186.0200  177.0380  145.8690 C   0  0  0  0  0  3  0  0  0  0  0  0
  185.1750  178.1400  143.8190 C   0  0  0  0  0  0  0  0  0  0  0  0
  186.6830  176.2920  142.1590 C   0  0  2  0  0  3  0  0  0  0  0  0
  184.4720  179.0510  144.6690 N   0  0  0  0  0  2  0  0  0  0  0  0
  185.3140  177.8870  146.6330 C   0  0  0  0  0  3  0  0  0  0  0  0
  186.9420  176.3800  143.6670 C   0  0  0  0  0  2  0  0  0  0  0  0
  190.5000  173.0430  142.1030 C   0  0  0  0  0  2  0  0  0  0  0  0
  191.4020  172.7080  140.5540 S   0  0  0  0  0  0  0  0  0  0  0  0
  196.4160  175.6590  142.9470 C   0  0  2  0  0  3  0  0  0  0  0  0
  192.7850  173.7170  141.0650 C   0  0  0  0  0  0  0  0  0  0  0  0
  193.2610  173.7300  142.2940 O   0  0  0  0  0  0  0  0  0  0  0  0
  195.1380  174.9410  143.4410 C   0  0  2  0  0  3  0  0  0  0  0  0
  193.4550  174.5360  140.2190 N   0  0  0  0  0  0  0  0  0  0  0  0
  196.1160  176.6730  141.8220 C   0  0  0  0  0  2  0  0  0  0  0  0
  195.4800  176.0050  140.5920 C   0  0  0  0  0  2  0  0  0  0  0  0
  194.2670  174.5640  142.2830 C   0  0  0  0  0  0  0  0  0  0  0  0
  194.3850  175.0800  141.0200 C   0  0  0  0  0  0  0  0  0  0  0  0
  194.3940  175.8090  144.3420 N   0  0  0  0  0  2  0  0  0  0  0  0
  195.4200  175.0160  146.2870 O   0  0  0  0  0  0  0  0  0  0  0  0
  193.8210  176.7420  146.6120 C   0  0  0  0  0  1  0  0  0  0  0  0
  194.5970  175.8070  145.7560 C   0  0  0  0  0  0  0  0  0  0  0  0
  197.3580  174.7230  142.5140 O   0  0  0  0  0  0  0  0  0  0  0  0
  197.7440  174.0410  143.6680 C   0  0  0  0  0  1  0  0  0  0  0  0
  1 25  1  1  0  0  0
  1 10  1  0  0  0  0
  2  4  1  0  0  0  0
  4  3  1  0  0  0  0
  5  3  2  0  0  0  0
  6  2  1  0  0  0  0
  7  5  1  0  0  0  0
  8 10  1  0  0  0  0
  8  7  2  0  0  0  0
  9  7  1  0  0  0  0
 10  2  2  0  0  0  0
 11  1  1  0  0  0  0
 12 11  2  0  0  0  0
 13 11  1  0  0  0  0
 14 20  2  0  0  0  0
 15 21  1  0  0  0  0
 15 14  1  0  0  0  0
 16 24  1  6  0  0  0
 16 19  1  0  0  0  0
 17 23  1  0  0  0  0
 18 15  2  0  0  0  0
 19 23  2  0  0  0  0
 20 16  1  0  0  0  0
 20 22  1  0  0  0  0
 21 13  1  6  0  0  0
 21 24  1  0  0  0  0
 22 17  1  0  0  0  0
 26 28  1  0  0  0  0
 26 25  1  0  0  0  0
 27 40  1  6  0  0  0
 27 30  1  0  0  0  0
 28 29  1  0  0  0  0
 30 36  1  1  0  0  0
 31 35  1  0  0  0  0
 31 28  2  0  0  0  0
 32 27  1  0  0  0  0
 33 35  1  0  0  0  0
 33 32  1  0  0  0  0
 34 29  1  0  0  0  0
 34 30  1  0  0  0  0
 35 34  2  0  0  0  0
 36 39  1  0  0  0  0
 39 37  2  0  0  0  0
 39 38  1  0  0  0  0
 40 41  1  0  0  0  0
M  END
>  <MODEL>
1

>  <REMARK>
 VINA RESULT:      -8.1      0.000      0.000
  Name = 
  9 active torsions:
  status: ('A' for Active; 'I' for Inactive)
    1  A    between atoms: N_1  and  C_25
    2  A    between atoms: C_4  and  O_12
    3  A    between atoms: C_5  and  C_15
    4  A    between atoms: C_5  and  C_24
    5  A    between atoms: C_7  and  S_22
    6  A    between atoms: C_15  and  C_33
    7  A    between atoms: S_22  and  C_35
    8  A    between atoms: C_24  and  C_35
    9  A    between atoms: C_24  and  C_38
                            x       y       z     vdW  Elec       q    Type
                         _______ _______ _______ _____ _____    ______ ____

>  <TORSDO>
F 9

$$$$
=
 OpenBabel11062422223D

 41 45  0  0  1  0  0  0  0  0999 V2000
  189.5140  174.4200  142.2680 C   0  0  2  0  0  3  0  0  0  0  0  0
  189.9930  174.4410  144.6680 C   0  0  0  0  0  0  0  0  0  0  0  0
  190.0850  176.2370  146.3530 C   0  0  0  0  0  3  0  0  0  0  0  0
  190.6590  174.9360  145.9080 C   0  0  0  0  0  2  0  0  0  0  0  0
  190.1740  177.3440  145.6210 C   0  0  0  0  0  3  0  0  0  0  0  0
  189.3930  173.2240  144.7250 F   0  0  0  0  0  0  0  0  0  0  0  0
  190.7610  177.4170  144.2700 C   0  0  0  0  0  0  0  0  0  0  0  0
  190.6770  176.4440  143.3520 C   0  0  0  0  0  3  0  0  0  0  0  0
  191.3420  178.7170  143.8450 C   0  0  0  0  0  1  0  0  0  0  0  0
  190.0630  175.0970  143.4970 C   0  0  0  0  0  0  0  0  0  0  0  0
  188.0330  174.5810  142.0680 C   0  0  0  0  0  0  0  0  0  0  0  0
  187.2940  173.6080  142.0580 O   0  0  0  0  0  0  0  0  0  0  0  0
  187.4660  175.9630  141.9020 C   0  0  0  0  0  2  0  0  0  0  0  0
  185.0910  178.3960  143.6070 N   0  0  0  0  0  0  0  0  0  0  0  0
  185.5820  177.5450  142.5610 C   0  0  0  0  0  0  0  0  0  0  0  0
  185.8230  176.7920  145.3120 C   0  0  1  0  0  3  0  0  0  0  0  0
  184.6670  178.5830  147.2590 C   0  0  0  0  0  2  0  0  0  0  0  0
  185.1750  177.7660  141.3180 C   0  0  0  0  0  2  0  0  0  0  0  0
  186.4270  176.9410  146.6850 C   0  0  0  0  0  3  0  0  0  0  0  0
  185.2120  178.1010  144.8660 C   0  0  0  0  0  0  0  0  0  0  0  0
  186.3450  176.2840  142.9010 C   0  0  2  0  0  3  0  0  0  0  0  0
  184.7000  178.9960  145.8580 N   0  0  0  0  0  2  0  0  0  0  0  0
  185.8940  177.7770  147.5920 C   0  0  0  0  0  3  0  0  0  0  0  0
  186.8940  176.3320  144.3310 C   0  0  0  0  0  2  0  0  0  0  0  0
  190.0230  172.9940  142.0530 C   0  0  0  0  0  2  0  0  0  0  0  0
  191.4480  172.8950  140.9220 S   0  0  0  0  0  0  0  0  0  0  0  0
  195.4010  175.2140  145.2320 C   0  0  2  0  0  3  0  0  0  0  0  0
  192.5950  173.3240  142.2230 C   0  0  0  0  0  0  0  0  0  0  0  0
  193.3960  174.3700  142.1710 O   0  0  0  0  0  0  0  0  0  0  0  0
  195.1160  175.3470  143.7180 C   0  0  2  0  0  3  0  0  0  0  0  0
  192.7170  172.6080  143.3660 N   0  0  0  0  0  0  0  0  0  0  0  0
  195.4670  173.7390  145.6840 C   0  0  0  0  0  2  0  0  0  0  0  0
  194.1530  172.9880  145.4130 C   0  0  0  0  0  2  0  0  0  0  0  0
  194.0660  174.3670  143.2930 C   0  0  0  0  0  0  0  0  0  0  0  0
  193.6730  173.2810  144.0280 C   0  0  0  0  0  0  0  0  0  0  0  0
  196.3350  175.1080  142.9580 N   0  0  0  0  0  2  0  0  0  0  0  0
  195.8710  176.7080  141.3170 O   0  0  0  0  0  0  0  0  0  0  0  0
  197.9350  175.5590  141.0640 C   0  0  0  0  0  1  0  0  0  0  0  0
  196.6590  175.8380  141.7730 C   0  0  0  0  0  0  0  0  0  0  0  0
  194.4300  175.9010  145.9670 O   0  0  0  0  0  0  0  0  0  0  0  0
  194.5880  177.2390  145.6070 C   0  0  0  0  0  1  0  0  0  0  0  0
  1 25  1  1  0  0  0
  1 10  1  0  0  0  0
  2  6  1  0  0  0  0
  2  4  1  0  0  0  0
  4  3  1  0  0  0  0
  5  3  2  0  0  0  0
  7  5  1  0  0  0  0
  8 10  1  0  0  0  0
  8  7  2  0  0  0  0
  9  7  1  0  0  0  0
 10  2  2  0  0  0  0
 11  1  1  0  0  0  0
 12 11  2  0  0  0  0
 13 11  1  0  0  0  0
 14 20  2  0  0  0  0
 15 21  1  0  0  0  0
 15 14  1  0  0  0  0
 16 24  1  6  0  0  0
 16 19  1  0  0  0  0
 17 23  1  0  0  0  0
 18 15  2  0  0  0  0
 19 23  2  0  0  0  0
 20 16  1  0  0  0  0
 20 22  1  0  0  0  0
 21 13  1  6  0  0  0
 21 24  1  0  0  0  0
 22 17  1  0  0  0  0
 26 25  1  0  0  0  0
 26 28  1  0  0  0  0
 27 32  1  0  0  0  0
 27 40  1  1  0  0  0
 28 31  2  0  0  0  0
 29 28  1  0  0  0  0
 29 34  1  0  0  0  0
 30 36  1  6  0  0  0
 30 27  1  0  0  0  0
 31 35  1  0  0  0  0
 33 32  1  0  0  0  0
 34 30  1  0  0  0  0
 34 35  2  0  0  0  0
 35 33  1  0  0  0  0
 37 39  2  0  0  0  0
 38 39  1  0  0  0  0
 39 36  1  0  0  0  0
 41 40  1  0  0  0  0
M  END
>  <MODEL>
2

>  <REMARK>
 VINA RESULT:      -8.0      1.338      2.509
  Name = 
  9 active torsions:
  status: ('A' for Active; 'I' for Inactive)
    1  A    between atoms: N_1  and  C_25
    2  A    between atoms: C_4  and  O_12
    3  A    between atoms: C_5  and  C_15
    4  A    between atoms: C_5  and  C_24
    5  A    between atoms: C_7  and  S_22
    6  A    between atoms: C_15  and  C_33
    7  A    between atoms: S_22  and  C_35
    8  A    between atoms: C_24  and  C_35
    9  A    between atoms: C_24  and  C_38
                            x       y       z     vdW  Elec       q    Type
                         _______ _______ _______ _____ _____    ______ ____

>  <TORSDO>
F 9

$$$$
=
 OpenBabel11062422223D

 41 45  0  0  1  0  0  0  0  0999 V2000
  190.0210  175.6100  142.8130 C   0  0  2  0  0  3  0  0  0  0  0  0
  191.6640  176.4880  144.3990 C   0  0  0  0  0  0  0  0  0  0  0  0
  192.3420  175.8120  146.6710 C   0  0  0  0  0  3  0  0  0  0  0  0
  192.1350  176.9550  145.7360 C   0  0  0  0  0  2  0  0  0  0  0  0
  191.3440  175.0280  147.0720 C   0  0  0  0  0  3  0  0  0  0  0  0
  192.4270  176.8070  143.3230 F   0  0  0  0  0  0  0  0  0  0  0  0
  189.9530  175.1250  146.5950 C   0  0  0  0  0  0  0  0  0  0  0  0
  189.5980  175.4640  145.3470 C   0  0  0  0  0  3  0  0  0  0  0  0
  188.8810  174.6590  147.5120 C   0  0  0  0  0  1  0  0  0  0  0  0
  190.4820  175.8740  144.2230 C   0  0  0  0  0  0  0  0  0  0  0  0
  189.1060  176.6570  142.2420 C   0  0  0  0  0  0  0  0  0  0  0  0
  189.3710  177.8460  142.3510 O   0  0  0  0  0  0  0  0  0  0  0  0
  187.8670  176.2230  141.5120 C   0  0  0  0  0  2  0  0  0  0  0  0
  185.1950  178.5720  142.8580 N   0  0  0  0  0  0  0  0  0  0  0  0
  185.8820  177.7760  141.8830 C   0  0  0  0  0  0  0  0  0  0  0  0
  185.5980  176.8770  144.5850 C   0  0  1  0  0  3  0  0  0  0  0  0
  184.0810  178.5690  146.3670 C   0  0  0  0  0  2  0  0  0  0  0  0
  185.7180  178.0630  140.5970 C   0  0  0  0  0  2  0  0  0  0  0  0
  185.9290  176.9520  146.0540 C   0  0  0  0  0  3  0  0  0  0  0  0
  185.0760  178.2110  144.1000 C   0  0  0  0  0  0  0  0  0  0  0  0
  186.5730  176.4950  142.2950 C   0  0  2  0  0  3  0  0  0  0  0  0
  184.3780  179.0540  145.0210 N   0  0  0  0  0  2  0  0  0  0  0  0
  185.2270  177.7410  146.8850 C   0  0  0  0  0  3  0  0  0  0  0  0
  186.8400  176.4660  143.8040 C   0  0  0  0  0  2  0  0  0  0  0  0
  189.5640  174.1740  142.5570 C   0  0  0  0  0  2  0  0  0  0  0  0
  190.5630  173.3070  141.3040 S   0  0  0  0  0  0  0  0  0  0  0  0
  195.8960  174.4300  144.4470 C   0  0  2  0  0  3  0  0  0  0  0  0
  192.0370  173.4140  142.3090 C   0  0  0  0  0  0  0  0  0  0  0  0
  193.1200  174.0690  141.9430 O   0  0  0  0  0  0  0  0  0  0  0  0
  195.3600  174.4920  142.9980 C   0  0  2  0  0  3  0  0  0  0  0  0
  192.1430  172.8340  143.5290 N   0  0  0  0  0  0  0  0  0  0  0  0
  195.5410  173.0970  145.1420 C   0  0  0  0  0  2  0  0  0  0  0  0
  194.0220  172.8700  145.2210 C   0  0  0  0  0  2  0  0  0  0  0  0
  193.9700  173.9380  142.9270 C   0  0  0  0  0  0  0  0  0  0  0  0
  193.3910  173.1670  143.8990 C   0  0  0  0  0  0  0  0  0  0  0  0
  196.2280  173.7310  142.1110 N   0  0  0  0  0  2  0  0  0  0  0  0
  196.1520  175.2850  140.3660 O   0  0  0  0  0  0  0  0  0  0  0  0
  197.5120  173.3770  139.9710 C   0  0  0  0  0  1  0  0  0  0  0  0
  196.5990  174.1950  140.8110 C   0  0  0  0  0  0  0  0  0  0  0  0
  195.4050  175.5070  145.1900 O   0  0  0  0  0  0  0  0  0  0  0  0
  195.7110  176.6360  144.4300 C   0  0  0  0  0  1  0  0  0  0  0  0
  1 25  1  1  0  0  0
  1 10  1  0  0  0  0
  2  4  1  0  0  0  0
  3  5  2  0  0  0  0
  4  3  1  0  0  0  0
  6  2  1  0  0  0  0
  7  5  1  0  0  0  0
  7  9  1  0  0  0  0
  8  7  2  0  0  0  0
 10  2  2  0  0  0  0
 10  8  1  0  0  0  0
 11 12  2  0  0  0  0
 11  1  1  0  0  0  0
 13 11  1  0  0  0  0
 14 20  2  0  0  0  0
 15 21  1  0  0  0  0
 15 14  1  0  0  0  0
 16 24  1  6  0  0  0
 16 19  1  0  0  0  0
 17 23  1  0  0  0  0
 18 15  2  0  0  0  0
 19 23  2  0  0  0  0
 20 16  1  0  0  0  0
 20 22  1  0  0  0  0
 21 13  1  6  0  0  0
 21 24  1  0  0  0  0
 22 17  1  0  0  0  0
 26 28  1  0  0  0  0
 26 25  1  0  0  0  0
 27 32  1  0  0  0  0
 27 40  1  1  0  0  0
 28 31  2  0  0  0  0
 29 28  1  0  0  0  0
 29 34  1  0  0  0  0
 30 36  1  6  0  0  0
 30 27  1  0  0  0  0
 31 35  1  0  0  0  0
 32 33  1  0  0  0  0
 34 30  1  0  0  0  0
 34 35  2  0  0  0  0
 35 33  1  0  0  0  0
 37 39  2  0  0  0  0
 38 39  1  0  0  0  0
 39 36  1  0  0  0  0
 41 40  1  0  0  0  0
M  END
>  <MODEL>
3

>  <REMARK>
 VINA RESULT:      -7.9      1.904      3.153
  Name = 
  9 active torsions:
  status: ('A' for Active; 'I' for Inactive)
    1  A    between atoms: N_1  and  C_25
    2  A    between atoms: C_4  and  O_12
    3  A    between atoms: C_5  and  C_15
    4  A    between atoms: C_5  and  C_24
    5  A    between atoms: C_7  and  S_22
    6  A    between atoms: C_15  and  C_33
    7  A    between atoms: S_22  and  C_35
    8  A    between atoms: C_24  and  C_35
    9  A    between atoms: C_24  and  C_38
                            x       y       z     vdW  Elec       q    Type
                         _______ _______ _______ _____ _____    ______ ____

>  <TORSDO>
F 9

$$$$
=
 OpenBabel11062422223D

 41 45  0  0  1  0  0  0  0  0999 V2000
  188.0790  177.9100  143.5080 C   0  0  2  0  0  3  0  0  0  0  0  0
  185.7580  178.5710  143.9080 C   0  0  0  0  0  0  0  0  0  0  0  0
  184.4500  178.9770  145.9580 C   0  0  0  0  0  3  0  0  0  0  0  0
  184.4170  178.4700  144.5570 C   0  0  0  0  0  2  0  0  0  0  0  0
  185.1780  178.3980  146.9100 C   0  0  0  0  0  3  0  0  0  0  0  0
  185.8470  179.3100  142.7730 F   0  0  0  0  0  0  0  0  0  0  0  0
  186.0920  177.2610  146.6970 C   0  0  0  0  0  0  0  0  0  0  0  0
  186.8220  177.0680  145.5890 C   0  0  0  0  0  3  0  0  0  0  0  0
  186.3430  176.3590  147.8510 C   0  0  0  0  0  1  0  0  0  0  0  0
  186.8250  177.8790  144.3420 C   0  0  0  0  0  0  0  0  0  0  0  0
  187.9780  177.1940  142.1910 C   0  0  0  0  0  0  0  0  0  0  0  0
  188.1070  177.8000  141.1370 O   0  0  0  0  0  0  0  0  0  0  0  0
  187.7390  175.7100  142.1840 C   0  0  0  0  0  2  0  0  0  0  0  0
  189.5130  172.6990  140.6820 N   0  0  0  0  0  0  0  0  0  0  0  0
  188.8690  173.9810  140.6930 C   0  0  0  0  0  0  0  0  0  0  0  0
  190.6090  173.1860  142.8220 C   0  0  1  0  0  3  0  0  0  0  0  0
  191.9020  170.6180  142.5570 C   0  0  0  0  0  2  0  0  0  0  0  0
  188.3400  174.4370  139.5650 C   0  0  0  0  0  2  0  0  0  0  0  0
  190.9330  172.3500  144.0350 C   0  0  0  0  0  3  0  0  0  0  0  0
  190.2820  172.2920  141.6460 C   0  0  0  0  0  0  0  0  0  0  0  0
  189.0060  174.8920  141.8940 C   0  0  2  0  0  3  0  0  0  0  0  0
  190.8930  171.0010  141.5720 N   0  0  0  0  0  2  0  0  0  0  0  0
  191.5310  171.1540  143.9150 C   0  0  0  0  0  3  0  0  0  0  0  0
  189.4410  174.1120  143.1390 C   0  0  0  0  0  2  0  0  0  0  0  0
  189.3610  177.6110  144.2860 C   0  0  0  0  0  2  0  0  0  0  0  0
  190.8450  178.3860  143.5640 S   0  0  0  0  0  0  0  0  0  0  0  0
  195.0710  173.8700  144.7170 C   0  0  2  0  0  3  0  0  0  0  0  0
  191.8760  177.0060  144.0370 C   0  0  0  0  0  0  0  0  0  0  0  0
  192.8310  176.5160  143.2720 O   0  0  0  0  0  0  0  0  0  0  0  0
  194.4940  174.6490  143.5120 C   0  0  2  0  0  3  0  0  0  0  0  0
  191.7570  176.3670  145.2250 N   0  0  0  0  0  0  0  0  0  0  0  0
  193.9620  173.3380  145.6500 C   0  0  0  0  0  2  0  0  0  0  0  0
  193.0960  174.4690  146.2270 C   0  0  0  0  0  2  0  0  0  0  0  0
  193.3700  175.5370  143.9490 C   0  0  0  0  0  0  0  0  0  0  0  0
  192.7080  175.4220  145.1420 C   0  0  0  0  0  0  0  0  0  0  0  0
  194.0100  173.7200  142.5020 N   0  0  0  0  0  2  0  0  0  0  0  0
  194.5670  175.0810  140.6850 O   0  0  0  0  0  0  0  0  0  0  0  0
  193.6030  172.9830  140.1260 C   0  0  0  0  0  1  0  0  0  0  0  0
  194.0930  173.9920  141.1010 C   0  0  0  0  0  0  0  0  0  0  0  0
  195.9580  174.6790  145.4340 O   0  0  0  0  0  0  0  0  0  0  0  0
  196.8240  173.7870  146.0660 C   0  0  0  0  0  1  0  0  0  0  0  0
  1 25  1  1  0  0  0
  1 10  1  0  0  0  0
  2 10  2  0  0  0  0
  2  4  1  0  0  0  0
  3  5  2  0  0  0  0
  4  3  1  0  0  0  0
  6  2  1  0  0  0  0
  7  5  1  0  0  0  0
  7  9  1  0  0  0  0
  8  7  2  0  0  0  0
 10  8  1  0  0  0  0
 11  1  1  0  0  0  0
 12 11  2  0  0  0  0
 13 11  1  0  0  0  0
 14 15  1  0  0  0  0
 14 20  2  0  0  0  0
 15 21  1  0  0  0  0
 16 24  1  1  0  0  0
 16 19  1  0  0  0  0
 17 23  1  0  0  0  0
 18 15  2  0  0  0  0
 20 16  1  0  0  0  0
 21 13  1  1  0  0  0
 21 24  1  0  0  0  0
 22 20  1  0  0  0  0
 22 17  1  0  0  0  0
 23 19  2  0  0  0  0
 26 28  1  0  0  0  0
 26 25  1  0  0  0  0
 27 40  1  1  0  0  0
 27 32  1  0  0  0  0
 28 31  2  0  0  0  0
 29 34  1  0  0  0  0
 29 28  1  0  0  0  0
 30 36  1  6  0  0  0
 30 34  1  0  0  0  0
 30 27  1  0  0  0  0
 32 33  1  0  0  0  0
 34 35  2  0  0  0  0
 35 31  1  0  0  0  0
 35 33  1  0  0  0  0
 37 39  2  0  0  0  0
 38 39  1  0  0  0  0
 39 36  1  0  0  0  0
 40 41  1  0  0  0  0
M  END
>  <MODEL>
4

>  <REMARK>
 VINA RESULT:      -7.8      2.909      5.711
  Name = 
  9 active torsions:
  status: ('A' for Active; 'I' for Inactive)
    1  A    between atoms: N_1  and  C_25
    2  A    between atoms: C_4  and  O_12
    3  A    between atoms: C_5  and  C_15
    4  A    between atoms: C_5  and  C_24
    5  A    between atoms: C_7  and  S_22
    6  A    between atoms: C_15  and  C_33
    7  A    between atoms: S_22  and  C_35
    8  A    between atoms: C_24  and  C_35
    9  A    between atoms: C_24  and  C_38
                            x       y       z     vdW  Elec       q    Type
                         _______ _______ _______ _____ _____    ______ ____

>  <TORSDO>
F 9

$$$$
=
 OpenBabel11062422223D

 41 45  0  0  1  0  0  0  0  0999 V2000
  188.8490  176.6850  144.4420 C   0  0  2  0  0  3  0  0  0  0  0  0
  187.3390  176.5540  146.3620 C   0  0  0  0  0  0  0  0  0  0  0  0
  184.9660  177.1370  146.6840 C   0  0  0  0  0  3  0  0  0  0  0  0
  186.3150  177.0770  147.3140 C   0  0  0  0  0  2  0  0  0  0  0  0
  184.6970  177.9240  145.6450 C   0  0  0  0  0  3  0  0  0  0  0  0
  188.0180  175.4370  146.7290 F   0  0  0  0  0  0  0  0  0  0  0  0
  185.6880  178.7580  144.9410 C   0  0  0  0  0  0  0  0  0  0  0  0
  186.9690  178.4150  144.7460 C   0  0  0  0  0  3  0  0  0  0  0  0
  185.1920  179.9830  144.2620 C   0  0  0  0  0  1  0  0  0  0  0  0
  187.6770  177.2020  145.2350 C   0  0  0  0  0  0  0  0  0  0  0  0
  190.1870  177.2150  144.8740 C   0  0  0  0  0  0  0  0  0  0  0  0
  190.5970  178.2900  144.4610 O   0  0  0  0  0  0  0  0  0  0  0  0
  191.0100  176.4150  145.8430 C   0  0  0  0  0  2  0  0  0  0  0  0
  192.6550  173.0150  145.3860 N   0  0  0  0  0  0  0  0  0  0  0  0
  191.6390  174.0180  145.2500 C   0  0  0  0  0  0  0  0  0  0  0  0
  194.4140  174.7060  145.1280 C   0  0  1  0  0  3  0  0  0  0  0  0
  196.3040  172.5300  145.3040 C   0  0  0  0  0  2  0  0  0  0  0  0
  190.3950  173.6320  144.9930 C   0  0  0  0  0  2  0  0  0  0  0  0
  195.7660  174.9010  145.7660 C   0  0  0  0  0  3  0  0  0  0  0  0
  193.9230  173.2960  145.3680 C   0  0  0  0  0  0  0  0  0  0  0  0
  192.0180  175.4800  145.1570 C   0  0  2  0  0  3  0  0  0  0  0  0
  194.8850  172.2460  145.5100 N   0  0  0  0  0  2  0  0  0  0  0  0
  196.6460  173.8900  145.8530 C   0  0  0  0  0  3  0  0  0  0  0  0
  193.4320  175.7240  145.6940 C   0  0  0  0  0  2  0  0  0  0  0  0
  188.6350  176.6860  142.9270 C   0  0  0  0  0  2  0  0  0  0  0  0
  187.2820  175.5930  142.3840 S   0  0  0  0  0  0  0  0  0  0  0  0
  191.2660  171.8640  139.2540 C   0  0  2  0  0  3  0  0  0  0  0  0
  188.3690  174.6760  141.3020 C   0  0  0  0  0  0  0  0  0  0  0  0
  189.4170  173.9980  141.7290 O   0  0  0  0  0  0  0  0  0  0  0  0
  191.1740  172.5920  140.6150 C   0  0  2  0  0  3  0  0  0  0  0  0
  188.1890  174.6030  139.9620 N   0  0  0  0  0  0  0  0  0  0  0  0
  190.9010  172.7890  138.0730 C   0  0  0  0  0  2  0  0  0  0  0  0
  189.4700  173.3380  138.1850 C   0  0  0  0  0  2  0  0  0  0  0  0
  189.9510  173.4550  140.6670 C   0  0  0  0  0  0  0  0  0  0  0  0
  189.2190  173.8330  139.5740 C   0  0  0  0  0  0  0  0  0  0  0  0
  192.3560  173.4180  140.8200 N   0  0  0  0  0  2  0  0  0  0  0  0
  193.4430  171.8800  142.2060 O   0  0  0  0  0  0  0  0  0  0  0  0
  194.6500  173.8770  141.7580 C   0  0  0  0  0  1  0  0  0  0  0  0
  193.4640  172.9920  141.6160 C   0  0  0  0  0  0  0  0  0  0  0  0
  190.4420  170.7350  139.2550 O   0  0  0  0  0  0  0  0  0  0  0  0
  190.9240  169.9400  140.2950 C   0  0  0  0  0  1  0  0  0  0  0  0
  1 25  1  6  0  0  0
  1 11  1  0  0  0  0
  1 10  1  0  0  0  0
  2  6  1  0  0  0  0
  2  4  1  0  0  0  0
  3  4  1  0  0  0  0
  5  3  2  0  0  0  0
  7  5  1  0  0  0  0
  8  7  2  0  0  0  0
  8 10  1  0  0  0  0
  9  7  1  0  0  0  0
 10  2  2  0  0  0  0
 11 13  1  0  0  0  0
 12 11  2  0  0  0  0
 15 14  1  0  0  0  0
 16 20  1  0  0  0  0
 16 24  1  1  0  0  0
 16 19  1  0  0  0  0
 17 22  1  0  0  0  0
 17 23  1  0  0  0  0
 18 15  2  0  0  0  0
 19 23  2  0  0  0  0
 20 14  2  0  0  0  0
 20 22  1  0  0  0  0
 21 15  1  0  0  0  0
 21 24  1  0  0  0  0
 21 13  1  1  0  0  0
 26 25  1  0  0  0  0
 27 40  1  1  0  0  0
 27 30  1  0  0  0  0
 28 29  1  0  0  0  0
 28 26  1  0  0  0  0
 30 34  1  0  0  0  0
 30 36  1  6  0  0  0
 31 28  2  0  0  0  0
 32 33  1  0  0  0  0
 32 27  1  0  0  0  0
 33 35  1  0  0  0  0
 34 29  1  0  0  0  0
 35 31  1  0  0  0  0
 35 34  2  0  0  0  0
 36 39  1  0  0  0  0
 39 38  1  0  0  0  0
 39 37  2  0  0  0  0
 40 41  1  0  0  0  0
M  END
>  <MODEL>
5

>  <REMARK>
 VINA RESULT:      -7.6      2.750      6.936
  Name = 
  9 active torsions:
  status: ('A' for Active; 'I' for Inactive)
    1  A    between atoms: N_1  and  C_25
    2  A    between atoms: C_4  and  O_12
    3  A    between atoms: C_5  and  C_15
    4  A    between atoms: C_5  and  C_24
    5  A    between atoms: C_7  and  S_22
    6  A    between atoms: C_15  and  C_33
    7  A    between atoms: S_22  and  C_35
    8  A    between atoms: C_24  and  C_35
    9  A    between atoms: C_24  and  C_38
                            x       y       z     vdW  Elec       q    Type
                         _______ _______ _______ _____ _____    ______ ____

>  <TORSDO>
F 9

$$$$
=
 OpenBabel11062422223D

 41 45  0  0  1  0  0  0  0  0999 V2000
  190.2970  175.8900  142.7180 C   0  0  2  0  0  3  0  0  0  0  0  0
  192.3140  176.3240  144.0340 C   0  0  0  0  0  0  0  0  0  0  0  0
  192.7790  176.3280  146.4540 C   0  0  0  0  0  3  0  0  0  0  0  0
  193.0970  176.9510  145.1380 C   0  0  0  0  0  2  0  0  0  0  0  0
  191.5680  176.3950  147.0020 C   0  0  0  0  0  3  0  0  0  0  0  0
  193.0130  175.7620  143.0140 F   0  0  0  0  0  0  0  0  0  0  0  0
  190.3870  177.0050  146.3640 C   0  0  0  0  0  0  0  0  0  0  0  0
  190.1300  176.9680  145.0490 C   0  0  0  0  0  3  0  0  0  0  0  0
  189.3330  177.5520  147.2560 C   0  0  0  0  0  1  0  0  0  0  0  0
  190.9740  176.3950  143.9660 C   0  0  0  0  0  0  0  0  0  0  0  0
  189.1670  176.7480  142.2220 C   0  0  0  0  0  0  0  0  0  0  0  0
  189.2240  177.9670  142.3030 O   0  0  0  0  0  0  0  0  0  0  0  0
  187.9690  176.0880  141.6010 C   0  0  0  0  0  2  0  0  0  0  0  0
  185.2830  178.5180  142.7650 N   0  0  0  0  0  0  0  0  0  0  0  0
  185.9910  177.6760  141.8440 C   0  0  0  0  0  0  0  0  0  0  0  0
  185.6100  176.8900  144.5700 C   0  0  1  0  0  3  0  0  0  0  0  0
  184.0570  178.6670  146.2320 C   0  0  0  0  0  2  0  0  0  0  0  0
  185.8720  177.9140  140.5440 C   0  0  0  0  0  2  0  0  0  0  0  0
  185.8940  177.0200  146.0450 C   0  0  0  0  0  3  0  0  0  0  0  0
  185.1200  178.2090  144.0150 C   0  0  0  0  0  0  0  0  0  0  0  0
  186.6540  176.4050  142.3300 C   0  0  2  0  0  3  0  0  0  0  0  0
  184.4030  179.0950  144.8790 N   0  0  0  0  0  2  0  0  0  0  0  0
  185.1760  177.8480  146.8210 C   0  0  0  0  0  3  0  0  0  0  0  0
  186.8710  176.4340  143.8460 C   0  0  0  0  0  2  0  0  0  0  0  0
  189.9860  174.3930  142.7310 C   0  0  0  0  0  2  0  0  0  0  0  0
  189.5920  173.7480  144.3900 S   0  0  0  0  0  0  0  0  0  0  0  0
  195.0970  170.8480  145.3170 C   0  0  2  0  0  3  0  0  0  0  0  0
  191.1040  172.7980  144.4510 C   0  0  0  0  0  0  0  0  0  0  0  0
  192.2160  173.2360  145.0090 O   0  0  0  0  0  0  0  0  0  0  0  0
  194.5150  172.2800  145.3350 C   0  0  2  0  0  3  0  0  0  0  0  0
  191.2150  171.5510  143.9360 N   0  0  0  0  0  0  0  0  0  0  0  0
  194.6790  170.0660  144.0540 C   0  0  0  0  0  2  0  0  0  0  0  0
  193.1520  169.9250  143.9370 C   0  0  0  0  0  2  0  0  0  0  0  0
  193.0890  172.2740  144.8750 C   0  0  0  0  0  0  0  0  0  0  0  0
  192.4950  171.2410  144.2020 C   0  0  0  0  0  0  0  0  0  0  0  0
  195.2970  173.1490  144.4670 N   0  0  0  0  0  2  0  0  0  0  0  0
  195.7550  174.7360  146.1210 O   0  0  0  0  0  0  0  0  0  0  0  0
  196.7140  175.1790  143.9940 C   0  0  0  0  0  1  0  0  0  0  0  0
  195.9050  174.3560  144.9310 C   0  0  0  0  0  0  0  0  0  0  0  0
  194.7060  170.1550  146.4660 O   0  0  0  0  0  0  0  0  0  0  0  0
  195.7030  169.1990  146.6640 C   0  0  0  0  0  1  0  0  0  0  0  0
  1 25  1  1  0  0  0
  1 10  1  0  0  0  0
  2  4  1  0  0  0  0
  3  5  2  0  0  0  0
  4  3  1  0  0  0  0
  6  2  1  0  0  0  0
  7  5  1  0  0  0  0
  7  9  1  0  0  0  0
  8  7  2  0  0  0  0
 10  2  2  0  0  0  0
 10  8  1  0  0  0  0
 11 12  2  0  0  0  0
 11  1  1  0  0  0  0
 13 11  1  0  0  0  0
 14 20  2  0  0  0  0
 15 21  1  0  0  0  0
 15 14  1  0  0  0  0
 16 24  1  6  0  0  0
 16 19  1  0  0  0  0
 17 23  1  0  0  0  0
 18 15  2  0  0  0  0
 19 23  2  0  0  0  0
 20 16  1  0  0  0  0
 20 22  1  0  0  0  0
 21 13  1  6  0  0  0
 21 24  1  0  0  0  0
 22 17  1  0  0  0  0
 25 26  1  0  0  0  0
 26 28  1  0  0  0  0
 27 30  1  0  0  0  0
 27 40  1  1  0  0  0
 28 29  1  0  0  0  0
 30 36  1  6  0  0  0
 31 35  1  0  0  0  0
 31 28  2  0  0  0  0
 32 27  1  0  0  0  0
 33 32  1  0  0  0  0
 33 35  1  0  0  0  0
 34 29  1  0  0  0  0
 34 30  1  0  0  0  0
 35 34  2  0  0  0  0
 36 39  1  0  0  0  0
 38 39  1  0  0  0  0
 39 37  2  0  0  0  0
 40 41  1  0  0  0  0
M  END
>  <MODEL>
6

>  <REMARK>
 VINA RESULT:      -7.6      2.684      3.441
  Name = 
  9 active torsions:
  status: ('A' for Active; 'I' for Inactive)
    1  A    between atoms: N_1  and  C_25
    2  A    between atoms: C_4  and  O_12
    3  A    between atoms: C_5  and  C_15
    4  A    between atoms: C_5  and  C_24
    5  A    between atoms: C_7  and  S_22
    6  A    between atoms: C_15  and  C_33
    7  A    between atoms: S_22  and  C_35
    8  A    between atoms: C_24  and  C_35
    9  A    between atoms: C_24  and  C_38
                            x       y       z     vdW  Elec       q    Type
                         _______ _______ _______ _____ _____    ______ ____

>  <TORSDO>
F 9

$$$$
=
 OpenBabel11062422223D

 41 45  0  0  1  0  0  0  0  0999 V2000
  188.3550  176.0930  144.7760 C   0  0  2  0  0  3  0  0  0  0  0  0
  187.1520  176.7920  146.7880 C   0  0  0  0  0  0  0  0  0  0  0  0
  185.0300  177.9930  147.1520 C   0  0  0  0  0  3  0  0  0  0  0  0
  186.4140  177.7580  147.6540 C   0  0  0  0  0  2  0  0  0  0  0  0
  184.7850  178.5530  145.9710 C   0  0  0  0  0  3  0  0  0  0  0  0
  187.6240  175.6620  147.3760 F   0  0  0  0  0  0  0  0  0  0  0  0
  185.8160  178.9310  144.9860 C   0  0  0  0  0  0  0  0  0  0  0  0
  186.9520  178.2500  144.7770 C   0  0  0  0  0  3  0  0  0  0  0  0
  185.4990  180.0440  144.0550 C   0  0  0  0  0  1  0  0  0  0  0  0
  187.4500  177.0520  145.5040 C   0  0  0  0  0  0  0  0  0  0  0  0
  189.7200  175.9290  145.3830 C   0  0  0  0  0  0  0  0  0  0  0  0
  189.9490  175.0230  146.1720 O   0  0  0  0  0  0  0  0  0  0  0  0
  190.8130  176.8820  144.9900 C   0  0  0  0  0  2  0  0  0  0  0  0
  194.6070  176.6350  145.1090 N   0  0  0  0  0  0  0  0  0  0  0  0
  193.2620  176.5220  145.5940 C   0  0  0  0  0  0  0  0  0  0  0  0
  193.9080  175.8940  142.8770 C   0  0  1  0  0  3  0  0  0  0  0  0
  196.6910  176.0690  142.1280 C   0  0  0  0  0  2  0  0  0  0  0  0
  193.0570  176.5090  146.9050 C   0  0  0  0  0  2  0  0  0  0  0  0
  194.3130  176.2890  141.4800 C   0  0  0  0  0  3  0  0  0  0  0  0
  194.9310  176.3890  143.8760 C   0  0  0  0  0  0  0  0  0  0  0  0
  192.1350  176.1820  144.6430 C   0  0  2  0  0  3  0  0  0  0  0  0
  196.2920  176.5210  143.4580 N   0  0  0  0  0  2  0  0  0  0  0  0
  195.6060  176.3750  141.1290 C   0  0  0  0  0  3  0  0  0  0  0  0
  192.5290  176.4620  143.1890 C   0  0  0  0  0  2  0  0  0  0  0  0
  188.3640  176.2650  143.2560 C   0  0  0  0  0  2  0  0  0  0  0  0
  187.5640  174.8900  142.3660 S   0  0  0  0  0  0  0  0  0  0  0  0
  192.8820  171.6500  141.4730 C   0  0  2  0  0  3  0  0  0  0  0  0
  189.1390  174.1500  141.9610 C   0  0  0  0  0  0  0  0  0  0  0  0
  189.7950  173.3460  142.7750 O   0  0  0  0  0  0  0  0  0  0  0  0
  191.9700  172.0980  142.6380 C   0  0  2  0  0  3  0  0  0  0  0  0
  189.7710  174.3540  140.7810 N   0  0  0  0  0  0  0  0  0  0  0  0
  193.1990  172.8090  140.5030 C   0  0  0  0  0  2  0  0  0  0  0  0
  191.9290  173.4000  139.8700 C   0  0  0  0  0  2  0  0  0  0  0  0
  190.8820  172.9970  142.1380 C   0  0  0  0  0  0  0  0  0  0  0  0
  190.8880  173.6230  140.9210 C   0  0  0  0  0  0  0  0  0  0  0  0
  192.7530  172.8020  143.6430 N   0  0  0  0  0  2  0  0  0  0  0  0
  193.4510  170.8670  144.7540 O   0  0  0  0  0  0  0  0  0  0  0  0
  194.2860  172.9060  145.6410 C   0  0  0  0  0  1  0  0  0  0  0  0
  193.4850  172.1220  144.6650 C   0  0  0  0  0  0  0  0  0  0  0  0
  192.2930  170.5890  140.7790 O   0  0  0  0  0  0  0  0  0  0  0  0
  192.1920  169.5610  141.7170 C   0  0  0  0  0  1  0  0  0  0  0  0
  1 25  1  6  0  0  0
  1 11  1  0  0  0  0
  1 10  1  0  0  0  0
  2  6  1  0  0  0  0
  2  4  1  0  0  0  0
  3  4  1  0  0  0  0
  5  3  2  0  0  0  0
  7  5  1  0  0  0  0
  8  7  2  0  0  0  0
  8 10  1  0  0  0  0
  9  7  1  0  0  0  0
 10  2  2  0  0  0  0
 11 12  2  0  0  0  0
 13 11  1  0  0  0  0
 14 15  1  0  0  0  0
 15 18  2  0  0  0  0
 16 19  1  6  0  0  0
 16 24  1  0  0  0  0
 16 20  1  0  0  0  0
 17 22  1  0  0  0  0
 20 14  2  0  0  0  0
 21 13  1  1  0  0  0
 21 15  1  0  0  0  0
 22 20  1  0  0  0  0
 23 19  2  0  0  0  0
 23 17  1  0  0  0  0
 24 21  1  0  0  0  0
 26 25  1  0  0  0  0
 27 40  1  6  0  0  0
 27 30  1  0  0  0  0
 28 26  1  0  0  0  0
 28 29  1  0  0  0  0
 30 36  1  1  0  0  0
 31 35  1  0  0  0  0
 31 28  2  0  0  0  0
 32 27  1  0  0  0  0
 33 32  1  0  0  0  0
 33 35  1  0  0  0  0
 34 30  1  0  0  0  0
 34 29  1  0  0  0  0
 35 34  2  0  0  0  0
 36 39  1  0  0  0  0
 39 37  2  0  0  0  0
 39 38  1  0  0  0  0
 40 41  1  0  0  0  0
M  END
>  <MODEL>
7

>  <REMARK>
 VINA RESULT:      -7.5      2.805      6.465
  Name = 
  9 active torsions:
  status: ('A' for Active; 'I' for Inactive)
    1  A    between atoms: N_1  and  C_25
    2  A    between atoms: C_4  and  O_12
    3  A    between atoms: C_5  and  C_15
    4  A    between atoms: C_5  and  C_24
    5  A    between atoms: C_7  and  S_22
    6  A    between atoms: C_15  and  C_33
    7  A    between atoms: S_22  and  C_35
    8  A    between atoms: C_24  and  C_35
    9  A    between atoms: C_24  and  C_38
                            x       y       z     vdW  Elec       q    Type
                         _______ _______ _______ _____ _____    ______ ____

>  <TORSDO>
F 9

$$$$
=
 OpenBabel11062422223D

 41 45  0  0  1  0  0  0  0  0999 V2000
  189.8930  174.2430  142.7320 C   0  0  2  0  0  3  0  0  0  0  0  0
  191.0960  176.0620  143.8400 C   0  0  0  0  0  0  0  0  0  0  0  0
  191.8670  176.4080  146.1560 C   0  0  0  0  0  3  0  0  0  0  0  0
  191.3360  177.0590  144.9250 C   0  0  0  0  0  2  0  0  0  0  0  0
  191.1650  175.5180  146.8520 C   0  0  0  0  0  3  0  0  0  0  0  0
  191.7540  176.2450  142.6680 F   0  0  0  0  0  0  0  0  0  0  0  0
  189.8380  175.0040  146.4680 C   0  0  0  0  0  0  0  0  0  0  0  0
  189.4420  174.7910  145.2050 C   0  0  0  0  0  3  0  0  0  0  0  0
  188.9410  174.5390  147.5580 C   0  0  0  0  0  1  0  0  0  0  0  0
  190.1870  175.0790  143.9500 C   0  0  0  0  0  0  0  0  0  0  0  0
  188.5270  174.4490  142.1400 C   0  0  0  0  0  0  0  0  0  0  0  0
  187.7660  173.5060  141.9790 O   0  0  0  0  0  0  0  0  0  0  0  0
  188.0960  175.8390  141.7660 C   0  0  0  0  0  2  0  0  0  0  0  0
  185.5320  178.4640  142.7690 N   0  0  0  0  0  0  0  0  0  0  0  0
  186.2380  177.5770  141.8890 C   0  0  0  0  0  0  0  0  0  0  0  0
  185.5920  176.7940  144.5650 C   0  0  1  0  0  3  0  0  0  0  0  0
  184.0630  178.6710  146.1380 C   0  0  0  0  0  2  0  0  0  0  0  0
  186.2370  177.8380  140.5880 C   0  0  0  0  0  2  0  0  0  0  0  0
  185.7730  176.8840  146.0590 C   0  0  0  0  0  3  0  0  0  0  0  0
  185.2510  178.1540  143.9980 C   0  0  0  0  0  0  0  0  0  0  0  0
  186.7600  176.2520  142.4010 C   0  0  2  0  0  3  0  0  0  0  0  0
  184.5430  179.0850  144.8220 N   0  0  0  0  0  2  0  0  0  0  0  0
  185.0660  177.7590  146.7930 C   0  0  0  0  0  3  0  0  0  0  0  0
  186.8630  176.2460  143.9290 C   0  0  0  0  0  2  0  0  0  0  0  0
  190.3040  172.7750  142.8600 C   0  0  0  0  0  2  0  0  0  0  0  0
  190.8350  172.0310  141.2830 S   0  0  0  0  0  0  0  0  0  0  0  0
  196.4160  174.9260  141.4920 C   0  0  2  0  0  3  0  0  0  0  0  0
  192.3090  173.0380  141.2280 C   0  0  0  0  0  0  0  0  0  0  0  0
  193.2850  172.9470  142.1110 O   0  0  0  0  0  0  0  0  0  0  0  0
  195.4880  174.1120  142.4230 C   0  0  2  0  0  3  0  0  0  0  0  0
  192.5370  173.9640  140.2670 N   0  0  0  0  0  0  0  0  0  0  0  0
  195.6530  176.0350  140.7340 C   0  0  0  0  0  2  0  0  0  0  0  0
  194.5280  175.4680  139.8530 C   0  0  0  0  0  2  0  0  0  0  0  0
  194.1870  173.8180  141.7420 C   0  0  0  0  0  0  0  0  0  0  0  0
  193.7330  174.4620  140.6220 C   0  0  0  0  0  0  0  0  0  0  0  0
  195.2320  174.8560  143.6480 N   0  0  0  0  0  2  0  0  0  0  0  0
  195.4930  173.0130  145.0640 O   0  0  0  0  0  0  0  0  0  0  0  0
  195.0260  175.0740  146.1510 C   0  0  0  0  0  1  0  0  0  0  0  0
  195.2680  174.2460  144.9400 C   0  0  0  0  0  0  0  0  0  0  0  0
  197.0560  174.0760  140.5860 O   0  0  0  0  0  0  0  0  0  0  0  0
  197.9410  173.3270  141.3620 C   0  0  0  0  0  1  0  0  0  0  0  0
  1 25  1  1  0  0  0
  1 10  1  0  0  0  0
  2 10  2  0  0  0  0
  2  4  1  0  0  0  0
  3  5  2  0  0  0  0
  4  3  1  0  0  0  0
  6  2  1  0  0  0  0
  7  5  1  0  0  0  0
  7  9  1  0  0  0  0
  8  7  2  0  0  0  0
 10  8  1  0  0  0  0
 11  1  1  0  0  0  0
 12 11  2  0  0  0  0
 13 11  1  0  0  0  0
 14 20  2  0  0  0  0
 15 21  1  0  0  0  0
 15 14  1  0  0  0  0
 16 24  1  6  0  0  0
 16 19  1  0  0  0  0
 17 23  1  0  0  0  0
 18 15  2  0  0  0  0
 19 23  2  0  0  0  0
 20 16  1  0  0  0  0
 20 22  1  0  0  0  0
 21 13  1  6  0  0  0
 21 24  1  0  0  0  0
 22 17  1  0  0  0  0
 26 25  1  0  0  0  0
 27 40  1  6  0  0  0
 27 30  1  0  0  0  0
 28 26  1  0  0  0  0
 28 29  1  0  0  0  0
 30 36  1  1  0  0  0
 31 35  1  0  0  0  0
 31 28  2  0  0  0  0
 32 27  1  0  0  0  0
 33 35  1  0  0  0  0
 33 32  1  0  0  0  0
 34 29  1  0  0  0  0
 34 30  1  0  0  0  0
 35 34  2  0  0  0  0
 36 39  1  0  0  0  0
 39 37  2  0  0  0  0
 39 38  1  0  0  0  0
 40 41  1  0  0  0  0
M  END
>  <MODEL>
8

>  <REMARK>
 VINA RESULT:      -7.5      1.275      1.843
  Name = 
  9 active torsions:
  status: ('A' for Active; 'I' for Inactive)
    1  A    between atoms: N_1  and  C_25
    2  A    between atoms: C_4  and  O_12
    3  A    between atoms: C_5  and  C_15
    4  A    between atoms: C_5  and  C_24
    5  A    between atoms: C_7  and  S_22
    6  A    between atoms: C_15  and  C_33
    7  A    between atoms: S_22  and  C_35
    8  A    between atoms: C_24  and  C_35
    9  A    between atoms: C_24  and  C_38
                            x       y       z     vdW  Elec       q    Type
                         _______ _______ _______ _____ _____    ______ ____

>  <TORSDO>
F 9

$$$$
=
 OpenBabel11062422223D

 41 45  0  0  1  0  0  0  0  0999 V2000
  188.8830  176.4440  144.3020 C   0  0  2  0  0  3  0  0  0  0  0  0
  187.5070  176.5480  146.3230 C   0  0  0  0  0  0  0  0  0  0  0  0
  185.1710  177.2160  146.7400 C   0  0  0  0  0  3  0  0  0  0  0  0
  186.5600  177.1900  147.2810 C   0  0  0  0  0  2  0  0  0  0  0  0
  184.8450  177.8980  145.6450 C   0  0  0  0  0  3  0  0  0  0  0  0
  188.1920  175.4590  146.7580 F   0  0  0  0  0  0  0  0  0  0  0  0
  185.7980  178.6320  144.7930 C   0  0  0  0  0  0  0  0  0  0  0  0
  187.0570  178.2400  144.5490 C   0  0  0  0  0  3  0  0  0  0  0  0
  185.2770  179.7920  144.0250 C   0  0  0  0  0  1  0  0  0  0  0  0
  187.7770  177.0680  145.1140 C   0  0  0  0  0  0  0  0  0  0  0  0
  189.9190  177.4100  143.8010 C   0  0  0  0  0  0  0  0  0  0  0  0
  189.7640  178.0000  142.7410 O   0  0  0  0  0  0  0  0  0  0  0  0
  191.1450  177.6610  144.6330 C   0  0  0  0  0  2  0  0  0  0  0  0
  193.6970  175.5980  146.5560 N   0  0  0  0  0  0  0  0  0  0  0  0
  192.4070  176.1380  146.2380 C   0  0  0  0  0  0  0  0  0  0  0  0
  194.2310  175.3610  144.1730 C   0  0  1  0  0  3  0  0  0  0  0  0
  196.7290  174.1860  145.0180 C   0  0  0  0  0  2  0  0  0  0  0  0
  191.4840  176.1840  147.1910 C   0  0  0  0  0  2  0  0  0  0  0  0
  195.4910  175.5540  143.3690 C   0  0  0  0  0  3  0  0  0  0  0  0
  194.5620  175.2650  145.6460 C   0  0  0  0  0  0  0  0  0  0  0  0
  192.0320  176.4180  144.7990 C   0  0  2  0  0  3  0  0  0  0  0  0
  195.8320  174.7320  146.0330 N   0  0  0  0  0  2  0  0  0  0  0  0
  196.6550  175.0120  143.7600 C   0  0  0  0  0  3  0  0  0  0  0  0
  193.2740  176.5170  143.9080 C   0  0  0  0  0  2  0  0  0  0  0  0
  188.4050  175.4390  143.2530 C   0  0  0  0  0  2  0  0  0  0  0  0
  189.3100  173.8580  143.2990 S   0  0  0  0  0  0  0  0  0  0  0  0
  190.1950  172.9510  137.1360 C   0  0  2  0  0  3  0  0  0  0  0  0
  189.4080  173.7870  141.5160 C   0  0  0  0  0  0  0  0  0  0  0  0
  190.4580  173.3290  140.8630 O   0  0  0  0  0  0  0  0  0  0  0  0
  191.0290  173.0350  138.4350 C   0  0  2  0  0  3  0  0  0  0  0  0
  188.4030  174.1920  140.7040 N   0  0  0  0  0  0  0  0  0  0  0  0
  189.1870  174.1160  137.0160 C   0  0  0  0  0  2  0  0  0  0  0  0
  188.1880  174.1420  138.1840 C   0  0  0  0  0  2  0  0  0  0  0  0
  190.1610  173.4190  139.5940 C   0  0  0  0  0  0  0  0  0  0  0  0
  188.9110  173.9640  139.4810 C   0  0  0  0  0  0  0  0  0  0  0  0
  192.0930  174.0170  138.2840 N   0  0  0  0  0  2  0  0  0  0  0  0
  193.6200  172.8770  139.6380 O   0  0  0  0  0  0  0  0  0  0  0  0
  194.4220  174.8970  138.6780 C   0  0  0  0  0  1  0  0  0  0  0  0
  193.3730  173.8670  138.9010 C   0  0  0  0  0  0  0  0  0  0  0  0
  189.5260  171.7260  137.0710 O   0  0  0  0  0  0  0  0  0  0  0  0
  189.9580  171.1450  135.8780 C   0  0  0  0  0  1  0  0  0  0  0  0
  1 25  1  6  0  0  0
  1 10  1  0  0  0  0
  2  6  1  0  0  0  0
  2  4  1  0  0  0  0
  3  4  1  0  0  0  0
  5  3  2  0  0  0  0
  7  5  1  0  0  0  0
  8  7  2  0  0  0  0
  8 10  1  0  0  0  0
  9  7  1  0  0  0  0
 10  2  2  0  0  0  0
 11  1  1  0  0  0  0
 11 13  1  0  0  0  0
 12 11  2  0  0  0  0
 15 14  1  0  0  0  0
 15 18  2  0  0  0  0
 16 19  1  6  0  0  0
 16 20  1  0  0  0  0
 17 22  1  0  0  0  0
 19 23  2  0  0  0  0
 20 22  1  0  0  0  0
 20 14  2  0  0  0  0
 21 13  1  1  0  0  0
 21 15  1  0  0  0  0
 23 17  1  0  0  0  0
 24 16  1  0  0  0  0
 24 21  1  0  0  0  0
 25 26  1  0  0  0  0
 27 40  1  1  0  0  0
 27 30  1  0  0  0  0
 28 26  1  0  0  0  0
 29 28  1  0  0  0  0
 30 36  1  6  0  0  0
 30 34  1  0  0  0  0
 31 28  2  0  0  0  0
 32 27  1  0  0  0  0
 32 33  1  0  0  0  0
 33 35  1  0  0  0  0
 34 29  1  0  0  0  0
 35 34  2  0  0  0  0
 35 31  1  0  0  0  0
 36 39  1  0  0  0  0
 38 39  1  0  0  0  0
 39 37  2  0  0  0  0
 41 40  1  0  0  0  0
M  END
>  <MODEL>
9

>  <REMARK>
 VINA RESULT:      -7.4      2.795      7.267
  Name = 
  9 active torsions:
  status: ('A' for Active; 'I' for Inactive)
    1  A    between atoms: N_1  and  C_25
    2  A    between atoms: C_4  and  O_12
    3  A    between atoms: C_5  and  C_15
    4  A    between atoms: C_5  and  C_24
    5  A    between atoms: C_7  and  S_22
    6  A    between atoms: C_15  and  C_33
    7  A    between atoms: S_22  and  C_35
    8  A    between atoms: C_24  and  C_35
    9  A    between atoms: C_24  and  C_38
                            x       y       z     vdW  Elec       q    Type
                         _______ _______ _______ _____ _____    ______ ____

>  <TORSDO>
F 9

$$$$
