=
 OpenBabel11062418543D

 33 39  0  0  1  0  0  0  0  0999 V2000
  185.6160  176.9620  142.7740 C   0  0  0  0  0  3  0  0  0  0  0  0
  187.7350  176.8600  144.9750 C   0  0  0  0  0  0  0  0  0  0  0  0
  192.6720  176.1140  145.1750 S   0  0  0  0  0  0  0  0  0  0  0  0
  184.3380  178.3560  145.9890 C   0  0  0  0  0  3  0  0  0  0  0  0
  189.4120  175.1100  142.1350 C   0  0  0  0  0  0  0  0  0  0  0  0
  186.5550  177.3450  145.7280 C   0  0  0  0  0  0  0  0  0  0  0  0
  190.0040  176.1510  144.2370 C   0  0  0  0  0  0  0  0  0  0  0  0
  191.6660  175.0800  142.9240 C   0  0  0  0  0  0  0  0  0  0  0  0
  186.4500  175.7720  143.1060 C   0  0  0  0  0  2  0  0  0  0  0  0
  187.7270  176.1940  143.7430 C   0  0  0  0  0  0  0  0  0  0  0  0
  185.1470  177.8130  143.6880 C   0  0  0  0  0  3  0  0  0  0  0  0
  190.7260  174.7560  141.9910 N   0  0  0  0  0  0  0  0  0  0  0  0
  185.9380  178.5470  147.8430 C   0  0  0  0  0  2  0  0  0  0  0  0
  193.8350  175.5620  143.8630 C   0  0  2  0  0  3  0  0  0  0  0  0
  185.4020  177.7720  145.1450 C   0  0  0  0  0  0  0  0  0  0  0  0
  189.0210  175.8130  143.3090 C   0  0  0  0  0  0  0  0  0  0  0  0
  189.3200  176.9370  145.5510 S   0  0  0  0  0  0  0  0  0  0  0  0
  184.5630  178.6820  147.2630 C   0  0  0  0  0  3  0  0  0  0  0  0
  191.3300  175.7830  144.0570 C   0  0  0  0  0  0  0  0  0  0  0  0
  186.6540  177.3410  147.2360 C   0  0  0  0  0  2  0  0  0  0  0  0
  193.0970  174.7270  142.7970 C   0  0  0  0  0  2  0  0  0  0  0  0
  194.6940  173.4720  144.7380 C   0  0  0  0  0  2  0  0  0  0  0  0
  195.0010  174.8830  144.4410 N   0  0  1  0  0  0  0  0  0  0  0  0
  197.2560  174.0320  143.7670 C   0  0  0  0  0  3  0  0  0  0  0  0
  195.8870  172.8890  145.4740 C   0  0  1  0  0  3  0  0  0  0  0  0
  195.8410  171.3840  145.6850 C   0  0  0  0  0  2  0  0  0  0  0  0
  197.0850  173.0360  144.6340 C   0  0  0  0  0  0  0  0  0  0  0  0
  197.9280  171.9560  144.7530 O   0  0  0  0  0  0  0  0  0  0  0  0
  196.1310  175.0070  143.4970 C   0  0  0  0  0  2  0  0  0  0  0  0
  197.2990  170.9280  145.5040 C   0  0  0  0  0  2  0  0  0  0  0  0
  187.9860  175.7120  140.3320 O   0  0  0  0  0  0  0  0  0  0  0  0
  188.2820  173.4370  140.6530 N   0  0  0  0  0  1  0  0  0  0  0  0
  188.5000  174.7950  141.0240 C   0  0  0  0  0  0  0  0  0  0  0  0
  1  9  1  0  0  0  0
  1 11  2  0  0  0  0
  2 17  1  0  0  0  0
  2  6  1  0  0  0  0
  4 18  2  0  0  0  0
  5 16  1  0  0  0  0
  6 20  1  0  0  0  0
  7 17  1  0  0  0  0
  8 19  2  0  0  0  0
  9 10  1  0  0  0  0
 10  2  2  0  0  0  0
 11 15  1  0  0  0  0
 12  5  2  0  0  0  0
 12  8  1  0  0  0  0
 14 21  1  6  0  0  0
 14 23  1  0  0  0  0
 14  3  1  0  0  0  0
 15  6  2  0  0  0  0
 15  4  1  0  0  0  0
 16 10  1  0  0  0  0
 16  7  2  0  0  0  0
 18 13  1  0  0  0  0
 19  7  1  0  0  0  0
 19  3  1  0  0  0  0
 20 13  1  0  0  0  0
 21  8  1  0  0  0  0
 23 29  1  6  0  0  0
 23 22  1  0  0  0  0
 24 27  2  0  0  0  0
 25 22  1  6  0  0  0
 25 26  1  0  0  0  0
 27 28  1  0  0  0  0
 27 25  1  0  0  0  0
 28 30  1  0  0  0  0
 29 24  1  0  0  0  0
 30 26  1  0  0  0  0
 31 33  2  0  0  0  0
 32 33  1  0  0  0  0
 33  5  1  0  0  0  0
M  END
>  <MODEL>
1

>  <REMARK>
 VINA RESULT:      -9.3      0.000      0.000
  Name = 
  2 active torsions:
  status: ('A' for Active; 'I' for Inactive)
    1  A    between atoms: N_8  and  C_24
    2  A    between atoms: C_10  and  C_15
                            x       y       z     vdW  Elec       q    Type
                         _______ _______ _______ _____ _____    ______ ____

>  <TORSDO>
F 2

$$$$
=
 OpenBabel11062418543D

 33 39  0  0  1  0  0  0  0  0999 V2000
  197.0230  173.8410  145.2480 C   0  0  0  0  0  3  0  0  0  0  0  0
  194.1970  172.6780  145.2410 C   0  0  0  0  0  0  0  0  0  0  0  0
  189.6620  174.2690  143.8720 S   0  0  0  0  0  0  0  0  0  0  0  0
  197.0470  170.1490  145.7800 C   0  0  0  0  0  3  0  0  0  0  0  0
  193.5780  176.3500  144.9740 C   0  0  0  0  0  0  0  0  0  0  0  0
  195.0020  171.4870  145.6020 C   0  0  0  0  0  0  0  0  0  0  0  0
  192.3900  174.2720  144.6180 C   0  0  0  0  0  0  0  0  0  0  0  0
  191.2750  176.3490  144.3420 C   0  0  0  0  0  0  0  0  0  0  0  0
  195.8690  174.3930  146.0110 C   0  0  0  0  0  2  0  0  0  0  0  0
  194.5860  174.0180  145.3550 C   0  0  0  0  0  0  0  0  0  0  0  0
  197.2310  172.5360  145.0640 C   0  0  0  0  0  3  0  0  0  0  0  0
  192.4190  177.0130  144.6690 N   0  0  0  0  0  0  0  0  0  0  0  0
  194.8920  168.9800  145.6210 C   0  0  0  0  0  2  0  0  0  0  0  0
  189.1020  175.9470  143.3730 C   0  0  2  0  0  3  0  0  0  0  0  0
  196.3580  171.4310  145.5170 C   0  0  0  0  0  0  0  0  0  0  0  0
  193.5680  174.9270  144.9750 C   0  0  0  0  0  0  0  0  0  0  0  0
  192.5910  172.6110  144.7220 S   0  0  0  0  0  0  0  0  0  0  0  0
  196.3690  169.0040  145.8730 C   0  0  0  0  0  3  0  0  0  0  0  0
  191.2340  174.9750  144.3060 C   0  0  0  0  0  0  0  0  0  0  0  0
  194.2490  170.2780  146.1080 C   0  0  0  0  0  2  0  0  0  0  0  0
  190.0090  177.0300  143.9930 C   0  0  0  0  0  2  0  0  0  0  0  0
  187.4830  176.7590  144.9820 C   0  0  0  0  0  2  0  0  0  0  0  0
  187.6750  176.1370  143.6600 N   0  0  1  0  0  0  0  0  0  0  0  0
  185.7450  177.5580  142.9430 C   0  0  0  0  0  3  0  0  0  0  0  0
  185.9930  176.7730  145.2700 C   0  0  1  0  0  3  0  0  0  0  0  0
  185.5820  177.5630  146.5020 C   0  0  0  0  0  2  0  0  0  0  0  0
  185.3060  177.5100  144.1990 C   0  0  0  0  0  0  0  0  0  0  0  0
  184.2510  178.2480  144.6820 O   0  0  0  0  0  0  0  0  0  0  0  0
  187.0850  176.9560  142.5820 C   0  0  0  0  0  2  0  0  0  0  0  0
  184.2550  178.2310  146.1020 C   0  0  0  0  0  2  0  0  0  0  0  0
  194.9290  177.7830  146.3030 O   0  0  0  0  0  0  0  0  0  0  0  0
  195.8370  177.1640  144.2630 N   0  0  0  0  0  1  0  0  0  0  0  0
  194.7800  177.1640  145.2170 C   0  0  0  0  0  0  0  0  0  0  0  0
  1  9  1  0  0  0  0
  2 10  2  0  0  0  0
  2  6  1  0  0  0  0
  3 19  1  0  0  0  0
  4 18  2  0  0  0  0
  5 16  1  0  0  0  0
  5 33  1  0  0  0  0
  6 20  1  0  0  0  0
  7 17  1  0  0  0  0
  7 16  2  0  0  0  0
  8 12  1  0  0  0  0
 10  9  1  0  0  0  0
 11  1  2  0  0  0  0
 11 15  1  0  0  0  0
 12  5  2  0  0  0  0
 13 18  1  0  0  0  0
 13 20  1  0  0  0  0
 14 23  1  0  0  0  0
 14  3  1  0  0  0  0
 14 21  1  1  0  0  0
 15  6  2  0  0  0  0
 15  4  1  0  0  0  0
 16 10  1  0  0  0  0
 17  2  1  0  0  0  0
 19  8  2  0  0  0  0
 19  7  1  0  0  0  0
 21  8  1  0  0  0  0
 23 29  1  6  0  0  0
 23 22  1  0  0  0  0
 24 27  2  0  0  0  0
 25 22  1  6  0  0  0
 25 26  1  0  0  0  0
 27 28  1  0  0  0  0
 27 25  1  0  0  0  0
 28 30  1  0  0  0  0
 29 24  1  0  0  0  0
 30 26  1  0  0  0  0
 32 33  1  0  0  0  0
 33 31  2  0  0  0  0
M  END
>  <MODEL>
2

>  <REMARK>
 VINA RESULT:      -9.0      2.382      9.794
  Name = 
  2 active torsions:
  status: ('A' for Active; 'I' for Inactive)
    1  A    between atoms: N_8  and  C_24
    2  A    between atoms: C_10  and  C_15
                            x       y       z     vdW  Elec       q    Type
                         _______ _______ _______ _____ _____    ______ ____

>  <TORSDO>
F 2

$$$$
=
 OpenBabel11062418543D

 33 39  0  0  1  0  0  0  0  0999 V2000
  186.9920  176.7120  146.4000 C   0  0  0  0  0  3  0  0  0  0  0  0
  188.4650  176.8740  143.7270 C   0  0  0  0  0  0  0  0  0  0  0  0
  192.6900  174.9920  141.8350 S   0  0  0  0  0  0  0  0  0  0  0  0
  184.8210  178.1090  143.7080 C   0  0  0  0  0  3  0  0  0  0  0  0
  191.1330  175.7170  146.0690 C   0  0  0  0  0  0  0  0  0  0  0  0
  187.1830  177.5390  143.3940 C   0  0  0  0  0  0  0  0  0  0  0  0
  190.7190  175.8200  143.6870 C   0  0  0  0  0  0  0  0  0  0  0  0
  192.7970  175.0150  144.5060 C   0  0  0  0  0  0  0  0  0  0  0  0
  188.3570  177.2770  146.2080 C   0  0  0  0  0  2  0  0  0  0  0  0
  189.0020  176.6800  145.0050 C   0  0  0  0  0  0  0  0  0  0  0  0
  186.0030  176.8530  145.5150 C   0  0  0  0  0  3  0  0  0  0  0  0
  192.3760  175.2180  145.7860 N   0  0  0  0  0  0  0  0  0  0  0  0
  185.7440  178.1500  141.4310 C   0  0  0  0  0  2  0  0  0  0  0  0
  194.0550  174.0870  142.6690 C   0  0  2  0  0  3  0  0  0  0  0  0
  186.0860  177.5220  144.1980 C   0  0  0  0  0  0  0  0  0  0  0  0
  190.2740  176.0560  144.9860 C   0  0  0  0  0  0  0  0  0  0  0  0
  189.5710  176.3250  142.5750 S   0  0  0  0  0  0  0  0  0  0  0  0
  184.6630  178.4460  142.4260 C   0  0  0  0  0  3  0  0  0  0  0  0
  191.9840  175.3050  143.4360 C   0  0  0  0  0  0  0  0  0  0  0  0
  187.1190  178.2890  142.0840 C   0  0  0  0  0  2  0  0  0  0  0  0
  194.1270  174.4660  144.1630 C   0  0  0  0  0  2  0  0  0  0  0  0
  195.1200  174.1970  140.4950 C   0  0  0  0  0  2  0  0  0  0  0  0
  195.3240  174.2660  141.9540 N   0  0  1  0  0  0  0  0  0  0  0  0
  196.9930  176.0540  141.4240 C   0  0  0  0  0  3  0  0  0  0  0  0
  196.4880  174.2300  139.8390 C   0  0  1  0  0  3  0  0  0  0  0  0
  196.4740  174.3730  138.3260 C   0  0  0  0  0  2  0  0  0  0  0  0
  197.1860  175.4580  140.2500 C   0  0  0  0  0  0  0  0  0  0  0  0
  197.9410  175.9820  139.2270 O   0  0  0  0  0  0  0  0  0  0  0  0
  195.9120  175.5590  142.3600 C   0  0  0  0  0  2  0  0  0  0  0  0
  197.6720  175.2880  138.0170 C   0  0  0  0  0  2  0  0  0  0  0  0
  190.0260  174.9160  148.0130 O   0  0  0  0  0  0  0  0  0  0  0  0
  191.2740  176.8470  148.2990 N   0  0  0  0  0  1  0  0  0  0  0  0
  190.7440  175.8050  147.4850 C   0  0  0  0  0  0  0  0  0  0  0  0
  2 10  2  0  0  0  0
  3 14  1  0  0  0  0
  3 19  1  0  0  0  0
  4 15  1  0  0  0  0
  5 33  1  0  0  0  0
  6  2  1  0  0  0  0
  6 15  2  0  0  0  0
  7 16  1  0  0  0  0
  8 12  2  0  0  0  0
  9  1  1  0  0  0  0
 10  9  1  0  0  0  0
 11  1  2  0  0  0  0
 12  5  1  0  0  0  0
 13 20  1  0  0  0  0
 13 18  1  0  0  0  0
 14 21  1  1  0  0  0
 15 11  1  0  0  0  0
 16 10  1  0  0  0  0
 16  5  2  0  0  0  0
 17  7  1  0  0  0  0
 17  2  1  0  0  0  0
 18  4  2  0  0  0  0
 19  7  2  0  0  0  0
 19  8  1  0  0  0  0
 20  6  1  0  0  0  0
 21  8  1  0  0  0  0
 23 22  1  6  0  0  0
 23 29  1  0  0  0  0
 23 14  1  0  0  0  0
 24 29  1  0  0  0  0
 25 26  1  6  0  0  0
 25 27  1  0  0  0  0
 25 22  1  0  0  0  0
 27 24  2  0  0  0  0
 28 27  1  0  0  0  0
 30 26  1  0  0  0  0
 30 28  1  0  0  0  0
 33 31  2  0  0  0  0
 33 32  1  0  0  0  0
M  END
>  <MODEL>
3

>  <REMARK>
 VINA RESULT:      -8.6      3.138      4.582
  Name = 
  2 active torsions:
  status: ('A' for Active; 'I' for Inactive)
    1  A    between atoms: N_8  and  C_24
    2  A    between atoms: C_10  and  C_15
                            x       y       z     vdW  Elec       q    Type
                         _______ _______ _______ _____ _____    ______ ____

>  <TORSDO>
F 2

$$$$
=
 OpenBabel11062418543D

 33 39  0  0  1  0  0  0  0  0999 V2000
  184.5040  178.2920  144.7450 C   0  0  0  0  0  3  0  0  0  0  0  0
  187.0660  177.4850  143.2880 C   0  0  0  0  0  0  0  0  0  0  0  0
  191.3890  175.3220  144.5540 S   0  0  0  0  0  0  0  0  0  0  0  0
  184.0600  178.3390  141.0420 C   0  0  0  0  0  3  0  0  0  0  0  0
  188.1390  177.5550  146.8630 C   0  0  0  0  0  0  0  0  0  0  0  0
  186.1930  177.8670  142.1530 C   0  0  0  0  0  0  0  0  0  0  0  0
  188.9110  176.6710  144.7460 C   0  0  0  0  0  0  0  0  0  0  0  0
  190.2310  176.4130  146.7030 C   0  0  0  0  0  0  0  0  0  0  0  0
  185.8620  178.8330  145.0370 C   0  0  0  0  0  2  0  0  0  0  0  0
  186.9080  177.8560  144.6280 C   0  0  0  0  0  0  0  0  0  0  0  0
  184.0760  177.9970  143.5170 C   0  0  0  0  0  3  0  0  0  0  0  0
  189.2900  177.0780  147.4310 N   0  0  0  0  0  0  0  0  0  0  0  0
  185.9410  177.5400  139.6770 C   0  0  0  0  0  2  0  0  0  0  0  0
  192.0670  174.9270  146.2160 C   0  0  2  0  0  3  0  0  0  0  0  0
  184.8550  178.0910  142.2630 C   0  0  0  0  0  0  0  0  0  0  0  0
  187.9440  177.3720  145.4660 C   0  0  0  0  0  0  0  0  0  0  0  0
  188.4990  176.6060  143.1230 S   0  0  0  0  0  0  0  0  0  0  0  0
  184.5700  178.1270  139.8270 C   0  0  0  0  0  3  0  0  0  0  0  0
  190.0640  176.1940  145.3560 C   0  0  0  0  0  0  0  0  0  0  0  0
  186.8530  178.0270  140.8020 C   0  0  0  0  0  2  0  0  0  0  0  0
  191.4790  175.8720  147.2830 C   0  0  0  0  0  2  0  0  0  0  0  0
  194.0300  173.6450  145.6010 C   0  0  0  0  0  2  0  0  0  0  0  0
  193.5350  174.8990  146.1960 N   0  0  1  0  0  0  0  0  0  0  0  0
  195.4590  175.9750  145.0120 C   0  0  0  0  0  3  0  0  0  0  0  0
  195.5380  173.6240  145.7630 C   0  0  1  0  0  3  0  0  0  0  0  0
  196.2510  172.5010  145.0260 C   0  0  0  0  0  2  0  0  0  0  0  0
  196.1050  174.8150  145.1120 C   0  0  0  0  0  0  0  0  0  0  0  0
  197.3080  174.5410  144.5040 O   0  0  0  0  0  0  0  0  0  0  0  0
  194.0150  176.0810  145.4520 C   0  0  0  0  0  2  0  0  0  0  0  0
  197.5540  173.1420  144.5190 C   0  0  0  0  0  2  0  0  0  0  0  0
  186.0820  177.5660  148.0530 O   0  0  0  0  0  0  0  0  0  0  0  0
  187.4390  179.4140  148.3880 N   0  0  0  0  0  1  0  0  0  0  0  0
  187.1470  178.1700  147.7580 C   0  0  0  0  0  0  0  0  0  0  0  0
  1  9  1  0  0  0  0
  2 10  2  0  0  0  0
  3 19  1  0  0  0  0
  3 14  1  0  0  0  0
  4 15  1  0  0  0  0
  5 12  1  0  0  0  0
  5 33  1  0  0  0  0
  6 15  2  0  0  0  0
  6  2  1  0  0  0  0
  7 19  2  0  0  0  0
  7 16  1  0  0  0  0
  8 21  1  0  0  0  0
  8 12  2  0  0  0  0
 10  9  1  0  0  0  0
 10 16  1  0  0  0  0
 11  1  2  0  0  0  0
 13 18  1  0  0  0  0
 13 20  1  0  0  0  0
 14 21  1  1  0  0  0
 15 11  1  0  0  0  0
 16  5  2  0  0  0  0
 17  2  1  0  0  0  0
 17  7  1  0  0  0  0
 18  4  2  0  0  0  0
 19  8  1  0  0  0  0
 20  6  1  0  0  0  0
 22 25  1  0  0  0  0
 22 23  1  0  0  0  0
 23 29  1  6  0  0  0
 23 14  1  0  0  0  0
 24 27  2  0  0  0  0
 24 29  1  0  0  0  0
 25 26  1  6  0  0  0
 27 25  1  0  0  0  0
 28 30  1  0  0  0  0
 28 27  1  0  0  0  0
 30 26  1  0  0  0  0
 33 31  2  0  0  0  0
 33 32  1  0  0  0  0
M  END
>  <MODEL>
4

>  <REMARK>
 VINA RESULT:      -8.6      2.946      4.431
  Name = 
  2 active torsions:
  status: ('A' for Active; 'I' for Inactive)
    1  A    between atoms: N_8  and  C_24
    2  A    between atoms: C_10  and  C_15
                            x       y       z     vdW  Elec       q    Type
                         _______ _______ _______ _____ _____    ______ ____

>  <TORSDO>
F 2

$$$$
=
 OpenBabel11062418543D

 33 39  0  0  1  0  0  0  0  0999 V2000
  188.4490  177.0990  146.7480 C   0  0  0  0  0  3  0  0  0  0  0  0
  187.5450  176.7910  143.8440 C   0  0  0  0  0  0  0  0  0  0  0  0
  188.8200  173.8970  139.9750 S   0  0  0  0  0  0  0  0  0  0  0  0
  185.2060  178.8320  146.1180 C   0  0  0  0  0  3  0  0  0  0  0  0
  190.9040  175.1600  143.8400 C   0  0  0  0  0  0  0  0  0  0  0  0
  186.5170  177.7180  144.3730 C   0  0  0  0  0  0  0  0  0  0  0  0
  188.9180  175.2440  142.4600 C   0  0  0  0  0  0  0  0  0  0  0  0
  190.8220  174.0200  141.7430 C   0  0  0  0  0  0  0  0  0  0  0  0
  189.3120  177.3240  145.5540 C   0  0  0  0  0  2  0  0  0  0  0  0
  188.8080  176.5390  144.3940 C   0  0  0  0  0  0  0  0  0  0  0  0
  187.1550  177.4230  146.7950 C   0  0  0  0  0  3  0  0  0  0  0  0
  191.4840  174.3750  142.8810 N   0  0  0  0  0  0  0  0  0  0  0  0
  184.1990  178.5520  143.8940 C   0  0  0  0  0  2  0  0  0  0  0  0
  190.2360  172.7400  139.7840 C   0  0  2  0  0  3  0  0  0  0  0  0
  186.3470  177.9930  145.6950 C   0  0  0  0  0  0  0  0  0  0  0  0
  189.5810  175.6370  143.6210 C   0  0  0  0  0  0  0  0  0  0  0  0
  187.3980  175.9470  142.3890 S   0  0  0  0  0  0  0  0  0  0  0  0
  184.2180  179.1360  145.2740 C   0  0  0  0  0  3  0  0  0  0  0  0
  189.5330  174.4390  141.5100 C   0  0  0  0  0  0  0  0  0  0  0  0
  185.6240  178.4000  143.3630 C   0  0  0  0  0  2  0  0  0  0  0  0
  191.4100  173.1620  140.6910 C   0  0  0  0  0  2  0  0  0  0  0  0
  190.9150  171.1810  138.0580 C   0  0  0  0  0  2  0  0  0  0  0  0
  190.6070  172.5880  138.3720 N   0  0  1  0  0  0  0  0  0  0  0  0
  189.5680  172.6480  136.0960 C   0  0  0  0  0  3  0  0  0  0  0  0
  191.4410  171.1330  136.6350 C   0  0  1  0  0  3  0  0  0  0  0  0
  191.6200  169.7360  136.0610 C   0  0  0  0  0  2  0  0  0  0  0  0
  190.4270  171.6990  135.7320 C   0  0  0  0  0  0  0  0  0  0  0  0
  190.3850  171.0330  134.5290 O   0  0  0  0  0  0  0  0  0  0  0  0
  189.5010  173.1010  137.5390 C   0  0  0  0  0  2  0  0  0  0  0  0
  191.2010  169.8720  134.5870 C   0  0  0  0  0  2  0  0  0  0  0  0
  191.4890  174.6920  146.0950 O   0  0  0  0  0  0  0  0  0  0  0  0
  192.7110  176.3760  145.0760 N   0  0  0  0  0  1  0  0  0  0  0  0
  191.6710  175.4020  145.0720 C   0  0  0  0  0  0  0  0  0  0  0  0
  1 11  2  0  0  0  0
  2  6  1  0  0  0  0
  2 10  2  0  0  0  0
  3 19  1  0  0  0  0
  5 33  1  0  0  0  0
  6 15  2  0  0  0  0
  7 16  2  0  0  0  0
  8 12  1  0  0  0  0
  9  1  1  0  0  0  0
 10  9  1  0  0  0  0
 12  5  2  0  0  0  0
 13 18  1  0  0  0  0
 14  3  1  0  0  0  0
 14 21  1  1  0  0  0
 15  4  1  0  0  0  0
 15 11  1  0  0  0  0
 16  5  1  0  0  0  0
 16 10  1  0  0  0  0
 17  7  1  0  0  0  0
 17  2  1  0  0  0  0
 18  4  2  0  0  0  0
 19  8  2  0  0  0  0
 19  7  1  0  0  0  0
 20 13  1  0  0  0  0
 20  6  1  0  0  0  0
 21  8  1  0  0  0  0
 22 23  1  0  0  0  0
 23 29  1  6  0  0  0
 23 14  1  0  0  0  0
 24 29  1  0  0  0  0
 25 26  1  6  0  0  0
 25 22  1  0  0  0  0
 27 24  2  0  0  0  0
 27 25  1  0  0  0  0
 28 30  1  0  0  0  0
 28 27  1  0  0  0  0
 30 26  1  0  0  0  0
 33 32  1  0  0  0  0
 33 31  2  0  0  0  0
M  END
>  <MODEL>
5

>  <REMARK>
 VINA RESULT:      -8.6      3.943      6.387
  Name = 
  2 active torsions:
  status: ('A' for Active; 'I' for Inactive)
    1  A    between atoms: N_8  and  C_24
    2  A    between atoms: C_10  and  C_15
                            x       y       z     vdW  Elec       q    Type
                         _______ _______ _______ _____ _____    ______ ____

>  <TORSDO>
F 2

$$$$
=
 OpenBabel11062418543D

 33 39  0  0  1  0  0  0  0  0999 V2000
  188.1570  177.3900  146.5540 C   0  0  0  0  0  3  0  0  0  0  0  0
  187.4270  176.6080  143.6910 C   0  0  0  0  0  0  0  0  0  0  0  0
  188.8950  173.1090  140.4380 S   0  0  0  0  0  0  0  0  0  0  0  0
  184.9820  179.0060  145.4460 C   0  0  0  0  0  3  0  0  0  0  0  0
  190.7570  174.9880  144.1640 C   0  0  0  0  0  0  0  0  0  0  0  0
  186.3810  177.6130  143.9940 C   0  0  0  0  0  0  0  0  0  0  0  0
  188.8600  174.8490  142.6680 C   0  0  0  0  0  0  0  0  0  0  0  0
  190.7870  173.5160  142.2830 C   0  0  0  0  0  0  0  0  0  0  0  0
  189.0940  177.4110  145.3960 C   0  0  0  0  0  2  0  0  0  0  0  0
  188.6510  176.4460  144.3520 C   0  0  0  0  0  0  0  0  0  0  0  0
  186.8670  177.7220  146.4660 C   0  0  0  0  0  3  0  0  0  0  0  0
  191.3840  174.0520  143.3850 N   0  0  0  0  0  0  0  0  0  0  0  0
  184.1090  178.3650  143.2410 C   0  0  0  0  0  2  0  0  0  0  0  0
  190.3040  171.9330  140.5290 C   0  0  2  0  0  3  0  0  0  0  0  0
  186.1350  178.1040  145.2390 C   0  0  0  0  0  0  0  0  0  0  0  0
  189.4570  175.4270  143.7880 C   0  0  0  0  0  0  0  0  0  0  0  0
  187.3580  175.5360  142.3880 S   0  0  0  0  0  0  0  0  0  0  0  0
  184.0510  179.1690  144.5040 C   0  0  0  0  0  3  0  0  0  0  0  0
  189.5210  173.8960  141.9040 C   0  0  0  0  0  0  0  0  0  0  0  0
  185.5610  178.1220  142.8310 C   0  0  0  0  0  2  0  0  0  0  0  0
  191.4260  172.4950  141.4250 C   0  0  0  0  0  2  0  0  0  0  0  0
  189.7020  171.7800  138.1860 C   0  0  0  0  0  2  0  0  0  0  0  0
  190.7590  171.5470  139.1870 N   0  0  1  0  0  0  0  0  0  0  0  0
  192.3300  172.3160  137.3980 C   0  0  0  0  0  3  0  0  0  0  0  0
  190.1870  171.2120  136.8660 C   0  0  1  0  0  3  0  0  0  0  0  0
  189.3160  171.5400  135.6640 C   0  0  0  0  0  2  0  0  0  0  0  0
  191.4550  171.8630  136.5030 C   0  0  0  0  0  0  0  0  0  0  0  0
  191.5540  172.0690  135.1470 O   0  0  0  0  0  0  0  0  0  0  0  0
  191.9840  172.3090  138.8710 C   0  0  0  0  0  2  0  0  0  0  0  0
  190.3170  171.7670  134.5170 C   0  0  0  0  0  2  0  0  0  0  0  0
  191.1790  174.9160  146.5020 O   0  0  0  0  0  0  0  0  0  0  0  0
  192.5220  176.3630  145.2900 N   0  0  0  0  0  1  0  0  0  0  0  0
  191.4520  175.4280  145.3850 C   0  0  0  0  0  0  0  0  0  0  0  0
  2  6  1  0  0  0  0
  2 10  2  0  0  0  0
  3 14  1  0  0  0  0
  3 19  1  0  0  0  0
  5 33  1  0  0  0  0
  6 15  2  0  0  0  0
  7 16  2  0  0  0  0
  8 12  1  0  0  0  0
  9  1  1  0  0  0  0
 10  9  1  0  0  0  0
 11  1  2  0  0  0  0
 12  5  2  0  0  0  0
 13 18  1  0  0  0  0
 14 21  1  6  0  0  0
 15  4  1  0  0  0  0
 15 11  1  0  0  0  0
 16  5  1  0  0  0  0
 16 10  1  0  0  0  0
 17  7  1  0  0  0  0
 17  2  1  0  0  0  0
 18  4  2  0  0  0  0
 19  8  2  0  0  0  0
 19  7  1  0  0  0  0
 20 13  1  0  0  0  0
 20  6  1  0  0  0  0
 21  8  1  0  0  0  0
 23 22  1  6  0  0  0
 23 14  1  0  0  0  0
 24 29  1  0  0  0  0
 25 26  1  6  0  0  0
 25 22  1  0  0  0  0
 27 25  1  0  0  0  0
 27 24  2  0  0  0  0
 28 27  1  0  0  0  0
 29 23  1  0  0  0  0
 30 28  1  0  0  0  0
 30 26  1  0  0  0  0
 32 33  1  0  0  0  0
 33 31  2  0  0  0  0
M  END
>  <MODEL>
6

>  <REMARK>
 VINA RESULT:      -8.5      3.771      6.197
  Name = 
  2 active torsions:
  status: ('A' for Active; 'I' for Inactive)
    1  A    between atoms: N_8  and  C_24
    2  A    between atoms: C_10  and  C_15
                            x       y       z     vdW  Elec       q    Type
                         _______ _______ _______ _____ _____    ______ ____

>  <TORSDO>
F 2

$$$$
=
 OpenBabel11062418543D

 33 39  0  0  1  0  0  0  0  0999 V2000
  186.3410  176.7970  147.1600 C   0  0  0  0  0  3  0  0  0  0  0  0
  187.1290  176.7540  144.2070 C   0  0  0  0  0  0  0  0  0  0  0  0
  190.2470  174.0780  141.3620 S   0  0  0  0  0  0  0  0  0  0  0  0
  183.9580  178.7580  145.0640 C   0  0  0  0  0  3  0  0  0  0  0  0
  189.9500  174.9340  145.8410 C   0  0  0  0  0  0  0  0  0  0  0  0
  185.9870  177.6980  144.1900 C   0  0  0  0  0  0  0  0  0  0  0  0
  189.0140  175.2340  143.6300 C   0  0  0  0  0  0  0  0  0  0  0  0
  190.9920  173.9560  143.9270 C   0  0  0  0  0  0  0  0  0  0  0  0
  187.7110  177.0570  146.6360 C   0  0  0  0  0  2  0  0  0  0  0  0
  187.8990  176.3890  145.3190 C   0  0  0  0  0  0  0  0  0  0  0  0
  185.2270  177.1920  146.5410 C   0  0  0  0  0  3  0  0  0  0  0  0
  190.9460  174.1880  145.2690 N   0  0  0  0  0  0  0  0  0  0  0  0
  184.2950  178.6990  142.6310 C   0  0  0  0  0  2  0  0  0  0  0  0
  191.5340  172.8590  141.8480 C   0  0  2  0  0  3  0  0  0  0  0  0
  185.1390  177.8860  145.2370 C   0  0  0  0  0  0  0  0  0  0  0  0
  188.9560  175.5030  144.9970 C   0  0  0  0  0  0  0  0  0  0  0  0
  187.7760  176.0280  142.8260 S   0  0  0  0  0  0  0  0  0  0  0  0
  183.5780  179.1790  143.8560 C   0  0  0  0  0  3  0  0  0  0  0  0
  190.0330  174.4660  143.0840 C   0  0  0  0  0  0  0  0  0  0  0  0
  185.7810  178.5030  142.9280 C   0  0  0  0  0  2  0  0  0  0  0  0
  192.0430  173.1440  143.2760 C   0  0  0  0  0  2  0  0  0  0  0  0
  192.6000  173.9870  139.9880 C   0  0  0  0  0  2  0  0  0  0  0  0
  192.6020  172.7870  140.8440 N   0  0  1  0  0  0  0  0  0  0  0  0
  195.0950  172.9300  140.6790 C   0  0  0  0  0  3  0  0  0  0  0  0
  193.6190  173.7650  138.8850 C   0  0  1  0  0  3  0  0  0  0  0  0
  193.9070  174.9810  138.0190 C   0  0  0  0  0  2  0  0  0  0  0  0
  194.9340  173.5130  139.4930 C   0  0  0  0  0  0  0  0  0  0  0  0
  195.9520  174.0750  138.7590 O   0  0  0  0  0  0  0  0  0  0  0  0
  193.8920  172.6200  141.5440 C   0  0  0  0  0  2  0  0  0  0  0  0
  195.4170  174.8980  137.7340 C   0  0  0  0  0  2  0  0  0  0  0  0
  189.0210  174.5160  147.9870 O   0  0  0  0  0  0  0  0  0  0  0  0
  191.0420  175.6480  147.9790 N   0  0  0  0  0  1  0  0  0  0  0  0
  189.9420  175.0410  147.3090 C   0  0  0  0  0  0  0  0  0  0  0  0
  2 10  2  0  0  0  0
  3 14  1  0  0  0  0
  3 19  1  0  0  0  0
  4 15  1  0  0  0  0
  5 33  1  0  0  0  0
  6  2  1  0  0  0  0
  6 15  2  0  0  0  0
  7 16  1  0  0  0  0
  8 12  2  0  0  0  0
  9  1  1  0  0  0  0
 10  9  1  0  0  0  0
 11  1  2  0  0  0  0
 12  5  1  0  0  0  0
 13 20  1  0  0  0  0
 13 18  1  0  0  0  0
 14 21  1  1  0  0  0
 15 11  1  0  0  0  0
 16 10  1  0  0  0  0
 16  5  2  0  0  0  0
 17  7  1  0  0  0  0
 17  2  1  0  0  0  0
 18  4  2  0  0  0  0
 19  7  2  0  0  0  0
 19  8  1  0  0  0  0
 20  6  1  0  0  0  0
 21  8  1  0  0  0  0
 23 22  1  1  0  0  0
 23 29  1  0  0  0  0
 23 14  1  0  0  0  0
 24 29  1  0  0  0  0
 25 26  1  6  0  0  0
 25 27  1  0  0  0  0
 25 22  1  0  0  0  0
 27 24  2  0  0  0  0
 28 27  1  0  0  0  0
 30 26  1  0  0  0  0
 30 28  1  0  0  0  0
 33 32  1  0  0  0  0
 33 31  2  0  0  0  0
M  END
>  <MODEL>
7

>  <REMARK>
 VINA RESULT:      -8.3      3.322      4.727
  Name = 
  2 active torsions:
  status: ('A' for Active; 'I' for Inactive)
    1  A    between atoms: N_8  and  C_24
    2  A    between atoms: C_10  and  C_15
                            x       y       z     vdW  Elec       q    Type
                         _______ _______ _______ _____ _____    ______ ____

>  <TORSDO>
F 2

$$$$
=
 OpenBabel11062418543D

 33 39  0  0  1  0  0  0  0  0999 V2000
  194.5510  175.8940  146.3310 C   0  0  0  0  0  3  0  0  0  0  0  0
  193.0020  175.8690  143.6970 C   0  0  0  0  0  0  0  0  0  0  0  0
  188.4870  177.3720  142.1720 S   0  0  0  0  0  0  0  0  0  0  0  0
  196.7740  175.1610  143.4280 C   0  0  0  0  0  3  0  0  0  0  0  0
  190.3040  176.3420  146.2350 C   0  0  0  0  0  0  0  0  0  0  0  0
  194.3460  175.4350  143.2490 C   0  0  0  0  0  0  0  0  0  0  0  0
  190.6270  176.5980  143.8500 C   0  0  0  0  0  0  0  0  0  0  0  0
  188.4970  176.9990  144.8190 C   0  0  0  0  0  0  0  0  0  0  0  0
  193.2660  175.1750  146.1010 C   0  0  0  0  0  2  0  0  0  0  0  0
  192.4980  175.8240  145.0030 C   0  0  0  0  0  0  0  0  0  0  0  0
  195.5110  176.0040  145.4120 C   0  0  0  0  0  3  0  0  0  0  0  0
  188.9950  176.6960  146.0510 N   0  0  0  0  0  0  0  0  0  0  0  0
  195.7700  175.2800  141.1890 C   0  0  0  0  0  2  0  0  0  0  0  0
  187.0490  177.9680  143.1500 C   0  0  2  0  0  3  0  0  0  0  0  0
  195.4640  175.5010  144.0220 C   0  0  0  0  0  0  0  0  0  0  0  0
  191.1540  176.2630  145.0970 C   0  0  0  0  0  0  0  0  0  0  0  0
  191.7840  176.4010  142.6540 S   0  0  0  0  0  0  0  0  0  0  0  0
  196.9220  175.0130  142.1100 C   0  0  0  0  0  3  0  0  0  0  0  0
  189.2950  176.9600  143.7000 C   0  0  0  0  0  0  0  0  0  0  0  0
  194.4550  174.8710  141.8510 C   0  0  0  0  0  2  0  0  0  0  0  0
  187.0920  177.3980  144.5830 C   0  0  0  0  0  2  0  0  0  0  0  0
  184.6760  178.4510  143.0700 C   0  0  0  0  0  2  0  0  0  0  0  0
  185.7870  177.7070  142.4490 N   0  0  1  0  0  0  0  0  0  0  0  0
  184.6500  178.2340  140.2830 C   0  0  0  0  0  3  0  0  0  0  0  0
  183.3920  178.0060  142.3950 C   0  0  1  0  0  3  0  0  0  0  0  0
  182.1570  178.8140  142.7620 C   0  0  0  0  0  2  0  0  0  0  0  0
  183.4980  178.2630  140.9500 C   0  0  0  0  0  0  0  0  0  0  0  0
  182.2990  178.6690  140.4140 O   0  0  0  0  0  0  0  0  0  0  0  0
  185.9570  178.0720  141.0270 C   0  0  0  0  0  2  0  0  0  0  0  0
  181.3580  178.9070  141.4500 C   0  0  0  0  0  2  0  0  0  0  0  0
  190.7360  174.9830  148.1360 O   0  0  0  0  0  0  0  0  0  0  0  0
  191.3420  177.2100  148.3430 N   0  0  0  0  0  1  0  0  0  0  0  0
  190.7610  176.1300  147.6180 C   0  0  0  0  0  0  0  0  0  0  0  0
  2 10  2  0  0  0  0
  3 14  1  0  0  0  0
  3 19  1  0  0  0  0
  4 15  1  0  0  0  0
  5 33  1  0  0  0  0
  6  2  1  0  0  0  0
  6 15  2  0  0  0  0
  7 16  1  0  0  0  0
  8 12  2  0  0  0  0
  9  1  1  0  0  0  0
 10 16  1  0  0  0  0
 10  9  1  0  0  0  0
 11  1  2  0  0  0  0
 12  5  1  0  0  0  0
 13 20  1  0  0  0  0
 13 18  1  0  0  0  0
 14 21  1  1  0  0  0
 15 11  1  0  0  0  0
 16  5  2  0  0  0  0
 17  2  1  0  0  0  0
 17  7  1  0  0  0  0
 18  4  2  0  0  0  0
 19  7  2  0  0  0  0
 19  8  1  0  0  0  0
 20  6  1  0  0  0  0
 21  8  1  0  0  0  0
 23 29  1  6  0  0  0
 23 22  1  0  0  0  0
 23 14  1  0  0  0  0
 24 27  2  0  0  0  0
 24 29  1  0  0  0  0
 25 26  1  1  0  0  0
 25 22  1  0  0  0  0
 27 25  1  0  0  0  0
 28 27  1  0  0  0  0
 28 30  1  0  0  0  0
 30 26  1  0  0  0  0
 33 31  2  0  0  0  0
 33 32  1  0  0  0  0
M  END
>  <MODEL>
8

>  <REMARK>
 VINA RESULT:      -8.1      3.358     10.104
  Name = 
  2 active torsions:
  status: ('A' for Active; 'I' for Inactive)
    1  A    between atoms: N_8  and  C_24
    2  A    between atoms: C_10  and  C_15
                            x       y       z     vdW  Elec       q    Type
                         _______ _______ _______ _____ _____    ______ ____

>  <TORSDO>
F 2

$$$$
=
 OpenBabel11062418543D

 33 39  0  0  1  0  0  0  0  0999 V2000
  196.1630  173.3680  144.8970 C   0  0  0  0  0  3  0  0  0  0  0  0
  193.2350  172.9040  144.1540 C   0  0  0  0  0  0  0  0  0  0  0  0
  189.4250  175.7490  142.6160 S   0  0  0  0  0  0  0  0  0  0  0  0
  195.4220  169.7470  144.3960 C   0  0  0  0  0  3  0  0  0  0  0  0
  193.3450  176.5760  144.8140 C   0  0  0  0  0  0  0  0  0  0  0  0
  193.7260  171.5120  144.2900 C   0  0  0  0  0  0  0  0  0  0  0  0
  191.9040  174.9630  143.7300 C   0  0  0  0  0  0  0  0  0  0  0  0
  191.2540  177.2420  143.8720 C   0  0  0  0  0  0  0  0  0  0  0  0
  194.9950  173.9670  145.6030 C   0  0  0  0  0  2  0  0  0  0  0  0
  193.8250  174.0560  144.6870 C   0  0  0  0  0  0  0  0  0  0  0  0
  196.1680  172.1310  144.3970 C   0  0  0  0  0  3  0  0  0  0  0  0
  192.4080  177.5350  144.5330 N   0  0  0  0  0  0  0  0  0  0  0  0
  193.1700  169.1620  143.6060 C   0  0  0  0  0  2  0  0  0  0  0  0
  189.2850  177.5790  142.5190 C   0  0  2  0  0  3  0  0  0  0  0  0
  195.0400  171.1750  144.3950 C   0  0  0  0  0  0  0  0  0  0  0  0
  193.0820  175.2340  144.4240 C   0  0  0  0  0  0  0  0  0  0  0  0
  191.7810  173.3240  143.4050 S   0  0  0  0  0  0  0  0  0  0  0  0
  194.5470  168.7940  144.0710 C   0  0  0  0  0  3  0  0  0  0  0  0
  190.9780  175.9610  143.4550 C   0  0  0  0  0  0  0  0  0  0  0  0
  192.6840  170.4170  144.3290 C   0  0  0  0  0  2  0  0  0  0  0  0
  190.2260  178.2520  143.5390 C   0  0  0  0  0  2  0  0  0  0  0  0
  187.2200  177.9860  141.3180 C   0  0  0  0  0  2  0  0  0  0  0  0
  187.8860  178.0090  142.6320 N   0  0  1  0  0  0  0  0  0  0  0  0
  185.6940  177.1950  143.5230 C   0  0  0  0  0  3  0  0  0  0  0  0
  185.8400  178.5920  141.4920 C   0  0  1  0  0  3  0  0  0  0  0  0
  184.9240  178.4670  140.2850 C   0  0  0  0  0  2  0  0  0  0  0  0
  185.1050  177.8210  142.5060 C   0  0  0  0  0  0  0  0  0  0  0  0
  183.7700  177.7100  142.1950 O   0  0  0  0  0  0  0  0  0  0  0  0
  187.2040  177.1300  143.6040 C   0  0  0  0  0  2  0  0  0  0  0  0
  183.5310  178.2090  140.8870 C   0  0  0  0  0  2  0  0  0  0  0  0
  195.6390  177.1920  144.7600 O   0  0  0  0  0  0  0  0  0  0  0  0
  194.6100  177.3610  146.8280 N   0  0  0  0  0  1  0  0  0  0  0  0
  194.5980  177.0190  145.4460 C   0  0  0  0  0  0  0  0  0  0  0  0
  1  9  1  0  0  0  0
  2  6  1  0  0  0  0
  2 10  2  0  0  0  0
  3 19  1  0  0  0  0
  5 33  1  0  0  0  0
  6 20  1  0  0  0  0
  6 15  2  0  0  0  0
  7 16  1  0  0  0  0
  8 12  2  0  0  0  0
 10  9  1  0  0  0  0
 11  1  2  0  0  0  0
 12  5  1  0  0  0  0
 13 18  1  0  0  0  0
 13 20  1  0  0  0  0
 14  3  1  0  0  0  0
 14 23  1  0  0  0  0
 14 21  1  1  0  0  0
 15  4  1  0  0  0  0
 15 11  1  0  0  0  0
 16 10  1  0  0  0  0
 16  5  2  0  0  0  0
 17  7  1  0  0  0  0
 17  2  1  0  0  0  0
 18  4  2  0  0  0  0
 19  7  2  0  0  0  0
 19  8  1  0  0  0  0
 21  8  1  0  0  0  0
 22 25  1  0  0  0  0
 23 22  1  6  0  0  0
 23 29  1  0  0  0  0
 24 29  1  0  0  0  0
 25 26  1  6  0  0  0
 25 27  1  0  0  0  0
 26 30  1  0  0  0  0
 27 24  2  0  0  0  0
 28 27  1  0  0  0  0
 30 28  1  0  0  0  0
 31 33  2  0  0  0  0
 33 32  1  0  0  0  0
M  END
>  <MODEL>
9

>  <REMARK>
 VINA RESULT:      -7.7      2.763      9.748
  Name = 
  2 active torsions:
  status: ('A' for Active; 'I' for Inactive)
    1  A    between atoms: N_8  and  C_24
    2  A    between atoms: C_10  and  C_15
                            x       y       z     vdW  Elec       q    Type
                         _______ _______ _______ _____ _____    ______ ____

>  <TORSDO>
F 2

$$$$
