=
 OpenBabel11062422113D

 44 48  0  0  1  0  0  0  0  0999 V2000
  189.6860  173.4810  141.8550 C   0  0  1  0  0  3  0  0  0  0  0  0
  187.3020  173.7520  142.0440 O   0  0  0  0  0  0  0  0  0  0  0  0
  188.4250  174.3010  141.8770 C   0  0  0  0  0  0  0  0  0  0  0  0
  188.5210  175.7220  141.7340 N   0  0  0  0  0  2  0  0  0  0  0  0
  187.3620  176.6050  141.8290 C   0  0  2  0  0  3  0  0  0  0  0  0
  186.9680  177.0930  140.4460 C   0  0  0  0  0  1  0  0  0  0  0  0
  187.6250  177.7760  142.7750 C   0  0  0  0  0  2  0  0  0  0  0  0
  186.3660  178.2810  143.4520 C   0  0  0  0  0  2  0  0  0  0  0  0
  185.3090  177.7470  145.6170 C   0  0  0  0  0  2  0  0  0  0  0  0
  186.5480  178.3110  144.9550 C   0  0  1  0  0  3  0  0  0  0  0  0
  186.5460  176.8910  145.4790 C   0  0  1  0  0  3  0  0  0  0  0  0
  187.2870  176.8610  146.8010 C   0  0  0  0  0  2  0  0  0  0  0  0
  189.5980  175.8450  146.9910 C   0  0  2  0  0  0  0  0  0  0  0  0
  188.8390  174.3720  147.6520 Cl  0  0  0  0  0  0  0  0  0  0  0  0
  188.7750  177.0590  146.5660 C   0  0  1  0  0  3  0  0  0  0  0  0
  189.2650  176.0500  145.5310 C   0  0  1  0  0  3  0  0  0  0  0  0
  191.3710  176.1010  147.3130 S   0  0  0  0  0  0  0  0  0  0  0  0
  190.4980  176.5600  144.7900 C   0  0  0  0  0  2  0  0  0  0  0  0
  191.5850  176.9940  145.7530 C   0  0  0  0  0  2  0  0  0  0  0  0
  189.7520  172.7090  140.5400 C   0  0  0  0  0  2  0  0  0  0  0  0
  191.0580  173.2590  138.4220 C   0  0  2  0  0  3  0  0  0  0  0  0
  192.2060  173.8820  138.9030 O   0  0  0  0  0  1  0  0  0  0  0  0
  188.6500  173.5510  138.4040 C   0  0  0  0  0  2  0  0  0  0  0  0
  190.6710  173.8520  137.0800 C   0  0  2  0  0  3  0  0  0  0  0  0
  189.8730  173.5950  139.3010 C   0  0  1  0  0  3  0  0  0  0  0  0
  189.1480  173.8180  136.9900 C   0  0  0  0  0  2  0  0  0  0  0  0
  191.3400  173.2770  135.9820 O   0  0  0  0  0  0  0  0  0  0  0  0
  191.1800  171.8830  136.0070 C   0  0  0  0  0  1  0  0  0  0  0  0
  190.8720  174.3210  141.9750 N   0  0  0  0  0  2  0  0  0  0  0  0
  192.9460  174.5670  143.1360 C   0  0  1  0  0  3  0  0  0  0  0  0
  191.6750  173.7980  143.0060 N   0  0  0  0  0  0  0  0  0  0  0  0
  192.9190  173.3160  142.3830 C   0  0  2  0  0  3  0  0  0  0  0  0
  193.5360  172.1450  143.1640 C   0  0  2  0  0  3  0  0  0  0  0  0
  192.8200  171.9530  144.3460 O   0  0  0  0  0  1  0  0  0  0  0  0
  195.0290  172.2670  143.4790 C   0  0  0  0  0  2  0  0  0  0  0  0
  195.2740  172.3230  144.9800 C   0  0  0  0  0  2  0  0  0  0  0  0
  197.0040  173.3870  146.4340 O   0  0  0  0  0  1  0  0  0  0  0  0
  196.1730  174.5030  144.6070 O   0  0  0  0  0  0  0  0  0  0  0  0
  196.1590  173.4730  145.3310 C   0  0  0  0  0  0  0  0  0  0  0  0
  193.0900  175.7410  142.1700 C   0  0  0  0  0  2  0  0  0  0  0  0
  195.3580  176.2470  141.2110 C   0  0  0  0  0  0  0  0  0  0  0  0
  196.4870  176.7920  141.3350 O   0  0  0  0  0  0  0  0  0  0  0  0
  195.0280  175.5820  139.9940 N   0  0  0  0  0  1  0  0  0  0  0  0
  194.4220  176.3080  142.2850 N   0  0  0  0  0  2  0  0  0  0  0  0
  1 20  1  6  0  0  0
  1  3  1  0  0  0  0
  1 29  1  0  0  0  0
  3  2  2  0  0  0  0
  4  5  1  0  0  0  0
  4  3  1  0  0  0  0
  5  6  1  6  0  0  0
  5  7  1  0  0  0  0
  7  8  1  0  0  0  0
 10  8  1  6  0  0  0
 10 11  1  0  0  0  0
 10  9  1  0  0  0  0
 11  9  1  0  0  0  0
 11 12  1  1  0  0  0
 13 17  1  0  0  0  0
 13 14  1  1  0  0  0
 15 12  1  1  0  0  0
 15 13  1  0  0  0  0
 16 18  1  6  0  0  0
 16 15  1  0  0  0  0
 16 13  1  0  0  0  0
 18 19  1  0  0  0  0
 19 17  1  0  0  0  0
 21 22  1  1  0  0  0
 21 25  1  0  0  0  0
 23 25  1  0  0  0  0
 24 27  1  6  0  0  0
 24 21  1  0  0  0  0
 25 20  1  1  0  0  0
 26 24  1  0  0  0  0
 26 23  1  0  0  0  0
 27 28  1  0  0  0  0
 29 31  1  0  0  0  0
 30 40  1  6  0  0  0
 31 30  1  0  0  0  0
 32 31  1  0  0  0  0
 32 30  1  0  0  0  0
 32 33  1  1  0  0  0
 33 35  1  0  0  0  0
 33 34  1  1  0  0  0
 35 36  1  0  0  0  0
 36 39  1  0  0  0  0
 38 39  2  0  0  0  0
 39 37  1  0  0  0  0
 40 44  1  0  0  0  0
 41 42  2  0  0  0  0
 41 44  1  0  0  0  0
 43 41  1  0  0  0  0
M  END
>  <MODEL>
1

>  <REMARK>
 VINA RESULT:      -5.9      0.000      0.000
  Name = 
  18 active torsions:
  status: ('A' for Active; 'I' for Inactive)
    1  A    between atoms: C_1  and  C_4
    2  A    between atoms: C_1  and  N_20
    3  A    between atoms: C_1  and  C_34
    4  A    between atoms: C_3  and  C_16
    5  A    between atoms: C_4  and  C_43
    6  A    between atoms: C_6  and  C_15
    7  A    between atoms: C_6  and  N_40
    8  A    between atoms: C_7  and  C_8
    9  A    between atoms: C_7  and  C_12
   10  A    between atoms: C_8  and  C_35
   11  A    between atoms: C_11  and  C_15
   12  A    between atoms: C_11  and  C_32
   13  A    between atoms: C_12  and  C_28
   14  A    between atoms: C_16  and  N_27
   15  A    between atoms: N_19  and  N_20
   16  A    between atoms: O_22  and  C_37
   17  A    between atoms: C_24  and  C_36
   18  A    between atoms: C_36  and  C_38
                            x       y       z     vdW  Elec       q    Type
                         _______ _______ _______ _____ _____    ______ ____

>  <TORSDO>
F 18

$$$$
=
 OpenBabel11062422113D

 44 48  0  0  1  0  0  0  0  0999 V2000
  190.0280  175.4430  142.8090 C   0  0  1  0  0  3  0  0  0  0  0  0
  191.6130  177.1210  143.4920 O   0  0  0  0  0  0  0  0  0  0  0  0
  191.3800  176.1030  142.7840 C   0  0  0  0  0  0  0  0  0  0  0  0
  192.4090  175.5400  141.9650 N   0  0  0  0  0  2  0  0  0  0  0  0
  193.7740  176.0610  141.9430 C   0  0  2  0  0  3  0  0  0  0  0  0
  194.4580  175.6680  140.6450 C   0  0  0  0  0  1  0  0  0  0  0  0
  194.5740  175.5880  143.1560 C   0  0  0  0  0  2  0  0  0  0  0  0
  194.6520  174.0780  143.2580 C   0  0  0  0  0  2  0  0  0  0  0  0
  194.4090  173.2100  145.5550 C   0  0  0  0  0  2  0  0  0  0  0  0
  193.6660  173.5630  144.2840 C   0  0  1  0  0  3  0  0  0  0  0  0
  193.6440  174.5100  145.4640 C   0  0  1  0  0  3  0  0  0  0  0  0
  192.3160  174.3640  146.1800 C   0  0  0  0  0  2  0  0  0  0  0  0
  190.3720  175.7400  147.0370 C   0  0  2  0  0  0  0  0  0  0  0  0
  189.3320  174.3050  146.8260 Cl  0  0  0  0  0  0  0  0  0  0  0  0
  191.8630  175.7120  146.7120 C   0  0  1  0  0  3  0  0  0  0  0  0
  191.3770  175.5550  148.1510 C   0  0  1  0  0  3  0  0  0  0  0  0
  189.5610  177.3660  147.1340 S   0  0  0  0  0  0  0  0  0  0  0  0
  191.5170  176.8550  148.9370 C   0  0  0  0  0  2  0  0  0  0  0  0
  190.8600  178.0150  148.2140 C   0  0  0  0  0  2  0  0  0  0  0  0
  190.1910  173.9960  143.2630 C   0  0  0  0  0  2  0  0  0  0  0  0
  188.5870  173.3550  141.3890 C   0  0  2  0  0  3  0  0  0  0  0  0
  187.4160  173.0240  142.0650 O   0  0  0  0  0  1  0  0  0  0  0  0
  190.9020  172.6520  141.2200 C   0  0  0  0  0  2  0  0  0  0  0  0
  188.7240  172.5010  140.1430 C   0  0  2  0  0  3  0  0  0  0  0  0
  189.7950  172.9620  142.2100 C   0  0  1  0  0  3  0  0  0  0  0  0
  190.2140  172.2560  139.9210 C   0  0  0  0  0  2  0  0  0  0  0  0
  188.0360  173.0040  139.0210 O   0  0  0  0  0  0  0  0  0  0  0  0
  188.7630  174.0620  138.4540 C   0  0  0  0  0  1  0  0  0  0  0  0
  189.1150  176.1290  143.7150 N   0  0  0  0  0  2  0  0  0  0  0  0
  187.1900  177.5450  143.6740 C   0  0  1  0  0  3  0  0  0  0  0  0
  188.4490  177.1330  142.9880 N   0  0  0  0  0  0  0  0  0  0  0  0
  187.1480  176.5810  142.5780 C   0  0  2  0  0  3  0  0  0  0  0  0
  186.6480  177.2040  141.2650 C   0  0  2  0  0  3  0  0  0  0  0  0
  187.7410  177.6630  140.5290 O   0  0  0  0  0  1  0  0  0  0  0  0
  185.6150  178.3250  141.4100 C   0  0  0  0  0  2  0  0  0  0  0  0
  184.4580  178.1370  140.4390 C   0  0  0  0  0  2  0  0  0  0  0  0
  181.9610  178.2140  140.4240 O   0  0  0  0  0  0  0  0  0  0  0  0
  183.1150  178.2760  142.4080 O   0  0  0  0  0  1  0  0  0  0  0  0
  183.1490  178.2280  141.1500 C   0  0  0  0  0  0  0  0  0  0  0  0
  186.9120  176.8280  144.9940 C   0  0  0  0  0  2  0  0  0  0  0  0
  185.0810  177.9950  146.2600 C   0  0  0  0  0  0  0  0  0  0  0  0
  183.8520  178.1290  146.5050 O   0  0  0  0  0  0  0  0  0  0  0  0
  186.0220  178.8610  146.8890 N   0  0  0  0  0  1  0  0  0  0  0  0
  185.5130  176.9860  145.3500 N   0  0  0  0  0  2  0  0  0  0  0  0
  1 20  1  1  0  0  0
  1 29  1  0  0  0  0
  3  1  1  0  0  0  0
  3  2  2  0  0  0  0
  4  3  1  0  0  0  0
  5  6  1  6  0  0  0
  5  4  1  0  0  0  0
  5  7  1  0  0  0  0
  7  8  1  0  0  0  0
 10  8  1  6  0  0  0
 10 11  1  0  0  0  0
 10  9  1  0  0  0  0
 11  9  1  0  0  0  0
 11 12  1  1  0  0  0
 13 14  1  6  0  0  0
 13 17  1  0  0  0  0
 13 16  1  0  0  0  0
 15 12  1  6  0  0  0
 15 13  1  0  0  0  0
 15 16  1  0  0  0  0
 16 18  1  1  0  0  0
 17 19  1  0  0  0  0
 19 18  1  0  0  0  0
 21 22  1  1  0  0  0
 21 25  1  0  0  0  0
 23 25  1  0  0  0  0
 24 27  1  6  0  0  0
 24 21  1  0  0  0  0
 25 20  1  1  0  0  0
 26 24  1  0  0  0  0
 26 23  1  0  0  0  0
 28 27  1  0  0  0  0
 30 40  1  1  0  0  0
 31 30  1  0  0  0  0
 31 29  1  0  0  0  0
 32 33  1  6  0  0  0
 32 31  1  0  0  0  0
 32 30  1  0  0  0  0
 33 34  1  1  0  0  0
 33 35  1  0  0  0  0
 36 39  1  0  0  0  0
 36 35  1  0  0  0  0
 37 39  2  0  0  0  0
 39 38  1  0  0  0  0
 40 44  1  0  0  0  0
 41 42  2  0  0  0  0
 41 43  1  0  0  0  0
 44 41  1  0  0  0  0
M  END
>  <MODEL>
2

>  <REMARK>
 VINA RESULT:      -5.9      2.935      7.716
  Name = 
  18 active torsions:
  status: ('A' for Active; 'I' for Inactive)
    1  A    between atoms: C_1  and  C_4
    2  A    between atoms: C_1  and  N_20
    3  A    between atoms: C_1  and  C_34
    4  A    between atoms: C_3  and  C_16
    5  A    between atoms: C_4  and  C_43
    6  A    between atoms: C_6  and  C_15
    7  A    between atoms: C_6  and  N_40
    8  A    between atoms: C_7  and  C_8
    9  A    between atoms: C_7  and  C_12
   10  A    between atoms: C_8  and  C_35
   11  A    between atoms: C_11  and  C_15
   12  A    between atoms: C_11  and  C_32
   13  A    between atoms: C_12  and  C_28
   14  A    between atoms: C_16  and  N_27
   15  A    between atoms: N_19  and  N_20
   16  A    between atoms: O_22  and  C_37
   17  A    between atoms: C_24  and  C_36
   18  A    between atoms: C_36  and  C_38
                            x       y       z     vdW  Elec       q    Type
                         _______ _______ _______ _____ _____    ______ ____

>  <TORSDO>
F 18

$$$$
=
 OpenBabel11062422113D

 44 48  0  0  1  0  0  0  0  0999 V2000
  193.3450  174.7360  144.4390 C   0  0  1  0  0  3  0  0  0  0  0  0
  192.3280  176.9160  144.5210 O   0  0  0  0  0  0  0  0  0  0  0  0
  192.5210  175.8100  145.0960 C   0  0  0  0  0  0  0  0  0  0  0  0
  191.9350  175.5480  146.3750 N   0  0  0  0  0  2  0  0  0  0  0  0
  191.0530  176.4960  147.0490 C   0  0  2  0  0  3  0  0  0  0  0  0
  191.6020  176.8280  148.4260 C   0  0  0  0  0  1  0  0  0  0  0  0
  189.6220  175.9650  147.1370 C   0  0  0  0  0  2  0  0  0  0  0  0
  188.5790  177.0420  146.9110 C   0  0  0  0  0  2  0  0  0  0  0  0
  186.1310  177.1950  147.1760 C   0  0  0  0  0  2  0  0  0  0  0  0
  187.2550  176.4240  146.5160 C   0  0  1  0  0  3  0  0  0  0  0  0
  186.4580  177.4350  145.7200 C   0  0  1  0  0  3  0  0  0  0  0  0
  185.4620  176.6920  144.8520 C   0  0  0  0  0  2  0  0  0  0  0  0
  184.9590  178.0480  142.7740 C   0  0  2  0  0  0  0  0  0  0  0  0
  183.7850  178.9880  143.7350 Cl  0  0  0  0  0  0  0  0  0  0  0  0
  185.7840  176.9180  143.3850 C   0  0  1  0  0  3  0  0  0  0  0  0
  186.3850  178.3100  143.2040 C   0  0  1  0  0  3  0  0  0  0  0  0
  184.7920  178.0840  140.9620 S   0  0  0  0  0  0  0  0  0  0  0  0
  187.2880  178.3770  141.9750 C   0  0  0  0  0  2  0  0  0  0  0  0
  186.5750  177.8740  140.7350 C   0  0  0  0  0  2  0  0  0  0  0  0
  193.2720  174.9130  142.9250 C   0  0  0  0  0  2  0  0  0  0  0  0
  191.8190  172.8210  143.0280 C   0  0  2  0  0  3  0  0  0  0  0  0
  192.7180  171.7910  142.7670 O   0  0  0  0  0  1  0  0  0  0  0  0
  190.9100  174.8100  141.9760 C   0  0  0  0  0  2  0  0  0  0  0  0
  190.4530  172.4700  142.4700 C   0  0  2  0  0  3  0  0  0  0  0  0
  192.2020  174.0590  142.2470 C   0  0  1  0  0  3  0  0  0  0  0  0
  189.7970  173.7720  142.0180 C   0  0  0  0  0  2  0  0  0  0  0  0
  189.6650  171.6810  143.3310 O   0  0  0  0  0  0  0  0  0  0  0  0
  189.7450  172.1820  144.6390 C   0  0  0  0  0  1  0  0  0  0  0  0
  194.7390  174.7980  144.8610 N   0  0  0  0  0  2  0  0  0  0  0  0
  196.8140  173.9520  144.0330 C   0  0  1  0  0  3  0  0  0  0  0  0
  195.5480  174.6730  143.7160 N   0  0  0  0  0  0  0  0  0  0  0  0
  196.7930  175.4110  143.9830 C   0  0  2  0  0  3  0  0  0  0  0  0
  197.4200  175.9660  142.6940 C   0  0  2  0  0  3  0  0  0  0  0  0
  196.5290  176.8600  142.0980 O   0  0  0  0  0  1  0  0  0  0  0  0
  197.8670  174.9220  141.6680 C   0  0  0  0  0  2  0  0  0  0  0  0
  197.5710  175.3810  140.2480 C   0  0  0  0  0  2  0  0  0  0  0  0
  195.4910  173.9990  140.1760 O   0  0  0  0  0  1  0  0  0  0  0  0
  196.9410  174.0130  138.3960 O   0  0  0  0  0  0  0  0  0  0  0  0
  196.6660  174.4160  139.5560 C   0  0  0  0  0  0  0  0  0  0  0  0
  196.9480  173.4930  145.4840 C   0  0  0  0  0  2  0  0  0  0  0  0
  196.1860  171.1010  145.6180 C   0  0  0  0  0  0  0  0  0  0  0  0
  196.4690  169.8740  145.5990 O   0  0  0  0  0  0  0  0  0  0  0  0
  194.8240  171.5070  145.7280 N   0  0  0  0  0  1  0  0  0  0  0  0
  197.2290  172.0680  145.5210 N   0  0  0  0  0  2  0  0  0  0  0  0
  1 20  1  6  0  0  0
  1 29  1  0  0  0  0
  1  3  1  0  0  0  0
  2  3  2  0  0  0  0
  3  4  1  0  0  0  0
  4  5  1  0  0  0  0
  5  7  1  0  0  0  0
  5  6  1  1  0  0  0
  8  7  1  0  0  0  0
 10  8  1  1  0  0  0
 10  9  1  0  0  0  0
 11 12  1  6  0  0  0
 11 10  1  0  0  0  0
 11  9  1  0  0  0  0
 13 16  1  0  0  0  0
 13 15  1  0  0  0  0
 13 14  1  1  0  0  0
 15 12  1  1  0  0  0
 16 18  1  6  0  0  0
 16 15  1  0  0  0  0
 17 13  1  0  0  0  0
 19 17  1  0  0  0  0
 19 18  1  0  0  0  0
 21 22  1  6  0  0  0
 23 26  1  0  0  0  0
 23 25  1  0  0  0  0
 24 21  1  0  0  0  0
 24 27  1  1  0  0  0
 25 20  1  1  0  0  0
 25 21  1  0  0  0  0
 26 24  1  0  0  0  0
 27 28  1  0  0  0  0
 30 40  1  1  0  0  0
 31 32  1  0  0  0  0
 31 30  1  0  0  0  0
 31 29  1  0  0  0  0
 32 33  1  6  0  0  0
 32 30  1  0  0  0  0
 33 34  1  6  0  0  0
 35 33  1  0  0  0  0
 36 35  1  0  0  0  0
 38 39  2  0  0  0  0
 39 37  1  0  0  0  0
 39 36  1  0  0  0  0
 40 44  1  0  0  0  0
 41 43  1  0  0  0  0
 42 41  2  0  0  0  0
 44 41  1  0  0  0  0
M  END
>  <MODEL>
3

>  <REMARK>
 VINA RESULT:      -5.8      3.380      5.761
  Name = 
  18 active torsions:
  status: ('A' for Active; 'I' for Inactive)
    1  A    between atoms: C_1  and  C_4
    2  A    between atoms: C_1  and  N_20
    3  A    between atoms: C_1  and  C_34
    4  A    between atoms: C_3  and  C_16
    5  A    between atoms: C_4  and  C_43
    6  A    between atoms: C_6  and  C_15
    7  A    between atoms: C_6  and  N_40
    8  A    between atoms: C_7  and  C_8
    9  A    between atoms: C_7  and  C_12
   10  A    between atoms: C_8  and  C_35
   11  A    between atoms: C_11  and  C_15
   12  A    between atoms: C_11  and  C_32
   13  A    between atoms: C_12  and  C_28
   14  A    between atoms: C_16  and  N_27
   15  A    between atoms: N_19  and  N_20
   16  A    between atoms: O_22  and  C_37
   17  A    between atoms: C_24  and  C_36
   18  A    between atoms: C_36  and  C_38
                            x       y       z     vdW  Elec       q    Type
                         _______ _______ _______ _____ _____    ______ ____

>  <TORSDO>
F 18

$$$$
=
 OpenBabel11062422113D

 44 48  0  0  1  0  0  0  0  0999 V2000
  192.4970  172.9530  143.0060 C   0  0  1  0  0  3  0  0  0  0  0  0
  190.4830  172.3650  144.1870 O   0  0  0  0  0  0  0  0  0  0  0  0
  191.0080  172.9810  143.2190 C   0  0  0  0  0  0  0  0  0  0  0  0
  190.1950  173.7440  142.3210 N   0  0  0  0  0  2  0  0  0  0  0  0
  188.7530  173.8990  142.4990 C   0  0  2  0  0  3  0  0  0  0  0  0
  188.0180  173.3160  141.3050 C   0  0  0  0  0  1  0  0  0  0  0  0
  188.3710  175.3610  142.7260 C   0  0  0  0  0  2  0  0  0  0  0  0
  187.9670  176.0690  141.4480 C   0  0  0  0  0  2  0  0  0  0  0  0
  186.3660  177.8470  140.8440 C   0  0  0  0  0  2  0  0  0  0  0  0
  187.5310  177.4880  141.7430 C   0  0  1  0  0  3  0  0  0  0  0  0
  186.1170  177.4650  142.2840 C   0  0  1  0  0  3  0  0  0  0  0  0
  185.8920  178.7190  143.1050 C   0  0  0  0  0  2  0  0  0  0  0  0
  185.3660  178.6640  145.5810 C   0  0  2  0  0  0  0  0  0  0  0  0
  183.6580  178.9830  145.1710 Cl  0  0  0  0  0  0  0  0  0  0  0  0
  186.4430  178.5270  144.5070 C   0  0  1  0  0  3  0  0  0  0  0  0
  185.8100  177.2890  145.1380 C   0  0  1  0  0  3  0  0  0  0  0  0
  185.9110  179.0260  147.2790 S   0  0  0  0  0  0  0  0  0  0  0  0
  186.7150  176.6740  146.2010 C   0  0  0  0  0  2  0  0  0  0  0  0
  187.1470  177.7050  147.2260 C   0  0  0  0  0  2  0  0  0  0  0  0
  192.8500  171.7490  142.1380 C   0  0  0  0  0  2  0  0  0  0  0  0
  194.3020  171.0980  144.1290 C   0  0  2  0  0  3  0  0  0  0  0  0
  195.5530  171.6090  143.7970 O   0  0  0  0  0  1  0  0  0  0  0  0
  192.6690  169.4990  143.3170 C   0  0  0  0  0  2  0  0  0  0  0  0
  194.4610  169.8220  144.9330 C   0  0  2  0  0  3  0  0  0  0  0  0
  193.5800  170.6330  142.8840 C   0  0  1  0  0  3  0  0  0  0  0  0
  193.2900  168.9100  144.5760 C   0  0  0  0  0  2  0  0  0  0  0  0
  194.6470  170.0300  146.3140 O   0  0  0  0  0  0  0  0  0  0  0  0
  195.6660  169.1890  146.7860 C   0  0  0  0  0  1  0  0  0  0  0  0
  192.9660  174.1680  142.3520 N   0  0  0  0  0  2  0  0  0  0  0  0
  194.1490  176.1940  142.8090 C   0  0  1  0  0  3  0  0  0  0  0  0
  193.2830  175.1080  143.3510 N   0  0  0  0  0  0  0  0  0  0  0  0
  194.7440  175.0730  143.5310 C   0  0  2  0  0  3  0  0  0  0  0  0
  195.1550  175.4470  144.9630 C   0  0  2  0  0  3  0  0  0  0  0  0
  196.3470  174.7970  145.2840 O   0  0  0  0  0  1  0  0  0  0  0  0
  194.1100  175.1760  146.0490 C   0  0  0  0  0  2  0  0  0  0  0  0
  193.5170  176.4730  146.5810 C   0  0  0  0  0  2  0  0  0  0  0  0
  191.2330  175.6060  146.0600 O   0  0  0  0  0  0  0  0  0  0  0  0
  191.6310  176.7310  148.0210 O   0  0  0  0  0  1  0  0  0  0  0  0
  192.0760  176.2950  146.9270 C   0  0  0  0  0  0  0  0  0  0  0  0
  194.4760  176.0740  141.3210 C   0  0  0  0  0  2  0  0  0  0  0  0
  196.6810  175.4390  140.2920 C   0  0  0  0  0  0  0  0  0  0  0  0
  197.8980  175.6990  140.1000 O   0  0  0  0  0  0  0  0  0  0  0  0
  196.1010  174.2910  139.6780 N   0  0  0  0  0  1  0  0  0  0  0  0
  195.8960  176.3010  141.1140 N   0  0  0  0  0  2  0  0  0  0  0  0
  1 20  1  6  0  0  0
  1  3  1  0  0  0  0
  3  2  2  0  0  0  0
  4  5  1  0  0  0  0
  4  3  1  0  0  0  0
  5  6  1  6  0  0  0
  5  7  1  0  0  0  0
  8  7  1  0  0  0  0
  9 10  1  0  0  0  0
  9 11  1  0  0  0  0
 10  8  1  6  0  0  0
 10 11  1  0  0  0  0
 11 12  1  1  0  0  0
 13 14  1  6  0  0  0
 13 17  1  0  0  0  0
 15 12  1  6  0  0  0
 15 16  1  0  0  0  0
 15 13  1  0  0  0  0
 16 13  1  0  0  0  0
 16 18  1  1  0  0  0
 18 19  1  0  0  0  0
 19 17  1  0  0  0  0
 21 22  1  6  0  0  0
 21 24  1  0  0  0  0
 23 26  1  0  0  0  0
 24 27  1  1  0  0  0
 25 20  1  1  0  0  0
 25 23  1  0  0  0  0
 25 21  1  0  0  0  0
 26 24  1  0  0  0  0
 27 28  1  0  0  0  0
 29  1  1  0  0  0  0
 29 31  1  0  0  0  0
 30 40  1  6  0  0  0
 30 31  1  0  0  0  0
 30 32  1  0  0  0  0
 31 32  1  0  0  0  0
 32 33  1  1  0  0  0
 33 34  1  1  0  0  0
 33 35  1  0  0  0  0
 35 36  1  0  0  0  0
 36 39  1  0  0  0  0
 37 39  2  0  0  0  0
 39 38  1  0  0  0  0
 41 44  1  0  0  0  0
 42 41  2  0  0  0  0
 43 41  1  0  0  0  0
 44 40  1  0  0  0  0
M  END
>  <MODEL>
4

>  <REMARK>
 VINA RESULT:      -5.8      3.072      5.247
  Name = 
  18 active torsions:
  status: ('A' for Active; 'I' for Inactive)
    1  A    between atoms: C_1  and  C_4
    2  A    between atoms: C_1  and  N_20
    3  A    between atoms: C_1  and  C_34
    4  A    between atoms: C_3  and  C_16
    5  A    between atoms: C_4  and  C_43
    6  A    between atoms: C_6  and  C_15
    7  A    between atoms: C_6  and  N_40
    8  A    between atoms: C_7  and  C_8
    9  A    between atoms: C_7  and  C_12
   10  A    between atoms: C_8  and  C_35
   11  A    between atoms: C_11  and  C_15
   12  A    between atoms: C_11  and  C_32
   13  A    between atoms: C_12  and  C_28
   14  A    between atoms: C_16  and  N_27
   15  A    between atoms: N_19  and  N_20
   16  A    between atoms: O_22  and  C_37
   17  A    between atoms: C_24  and  C_36
   18  A    between atoms: C_36  and  C_38
                            x       y       z     vdW  Elec       q    Type
                         _______ _______ _______ _____ _____    ______ ____

>  <TORSDO>
F 18

$$$$
=
 OpenBabel11062422113D

 44 48  0  0  1  0  0  0  0  0999 V2000
  194.0380  173.6810  143.0380 C   0  0  1  0  0  3  0  0  0  0  0  0
  193.3910  175.9880  142.8050 O   0  0  0  0  0  0  0  0  0  0  0  0
  193.7200  175.0480  143.5790 C   0  0  0  0  0  0  0  0  0  0  0  0
  193.7680  175.2600  144.9940 N   0  0  0  0  0  2  0  0  0  0  0  0
  193.3930  176.5270  145.6160 C   0  0  2  0  0  3  0  0  0  0  0  0
  194.6330  177.3660  145.8720 C   0  0  0  0  0  1  0  0  0  0  0  0
  192.5990  176.3060  146.9030 C   0  0  0  0  0  2  0  0  0  0  0  0
  191.7970  175.0200  146.8870 C   0  0  0  0  0  2  0  0  0  0  0  0
  189.6710  173.9610  146.2190 C   0  0  0  0  0  2  0  0  0  0  0  0
  190.5480  175.1840  146.0480 C   0  0  1  0  0  3  0  0  0  0  0  0
  189.3430  175.2340  146.9640 C   0  0  1  0  0  3  0  0  0  0  0  0
  188.2210  175.9600  146.2500 C   0  0  0  0  0  2  0  0  0  0  0  0
  187.8530  177.5600  144.3230 C   0  0  2  0  0  0  0  0  0  0  0  0
  186.5230  178.2970  145.2570 Cl  0  0  0  0  0  0  0  0  0  0  0  0
  188.6820  176.4010  144.8730 C   0  0  1  0  0  3  0  0  0  0  0  0
  189.2040  177.8340  144.9440 C   0  0  1  0  0  3  0  0  0  0  0  0
  187.8790  177.8350  142.5250 S   0  0  0  0  0  0  0  0  0  0  0  0
  190.2270  178.1150  143.8470 C   0  0  0  0  0  2  0  0  0  0  0  0
  189.6860  177.7510  142.4780 C   0  0  0  0  0  2  0  0  0  0  0  0
  193.9890  172.6720  144.1800 C   0  0  0  0  0  2  0  0  0  0  0  0
  195.7510  171.6110  145.6870 C   0  0  2  0  0  3  0  0  0  0  0  0
  196.5740  172.6820  146.0240 O   0  0  0  0  0  1  0  0  0  0  0  0
  195.0050  170.3780  143.7360 C   0  0  0  0  0  2  0  0  0  0  0  0
  196.5680  170.3370  145.6020 C   0  0  2  0  0  3  0  0  0  0  0  0
  195.2250  171.7790  144.2780 C   0  0  1  0  0  3  0  0  0  0  0  0
  195.9420  169.4670  144.5160 C   0  0  0  0  0  2  0  0  0  0  0  0
  196.7580  169.6900  146.8390 O   0  0  0  0  0  0  0  0  0  0  0  0
  195.5890  169.0030  147.1990 C   0  0  0  0  0  1  0  0  0  0  0  0
  193.0890  173.2810  142.0060 N   0  0  0  0  0  2  0  0  0  0  0  0
  191.0220  172.0880  142.1220 C   0  0  1  0  0  3  0  0  0  0  0  0
  191.8020  173.2750  142.5750 N   0  0  0  0  0  0  0  0  0  0  0  0
  190.8370  173.3800  141.4670 C   0  0  2  0  0  3  0  0  0  0  0  0
  189.5390  174.0800  141.9000 C   0  0  2  0  0  3  0  0  0  0  0  0
  188.8460  173.2550  142.7860 O   0  0  0  0  0  1  0  0  0  0  0  0
  188.6090  174.5180  140.7660 C   0  0  0  0  0  2  0  0  0  0  0  0
  188.5150  173.4510  139.6850 C   0  0  0  0  0  2  0  0  0  0  0  0
  187.4760  175.0550  138.0770 O   0  0  0  0  0  1  0  0  0  0  0  0
  189.2450  173.7420  137.4310 O   0  0  0  0  0  0  0  0  0  0  0  0
  188.4290  174.0730  138.3310 C   0  0  0  0  0  0  0  0  0  0  0  0
  191.7730  171.1440  141.1850 C   0  0  0  0  0  2  0  0  0  0  0  0
  190.6730  170.3890  139.0540 C   0  0  0  0  0  0  0  0  0  0  0  0
  189.8730  169.6130  138.4670 O   0  0  0  0  0  0  0  0  0  0  0  0
  191.4240  171.3310  138.2930 N   0  0  0  0  0  1  0  0  0  0  0  0
  190.8240  170.3080  140.4690 N   0  0  0  0  0  2  0  0  0  0  0  0
  1  3  1  0  0  0  0
  1 20  1  1  0  0  0
  2  3  2  0  0  0  0
  3  4  1  0  0  0  0
  4  5  1  0  0  0  0
  5  6  1  1  0  0  0
  5  7  1  0  0  0  0
  8  7  1  0  0  0  0
  9 11  1  0  0  0  0
 10  9  1  0  0  0  0
 10  8  1  1  0  0  0
 10 11  1  0  0  0  0
 11 12  1  6  0  0  0
 13 15  1  0  0  0  0
 13 16  1  0  0  0  0
 13 14  1  1  0  0  0
 15 16  1  0  0  0  0
 15 12  1  1  0  0  0
 16 18  1  6  0  0  0
 17 13  1  0  0  0  0
 19 17  1  0  0  0  0
 19 18  1  0  0  0  0
 21 22  1  6  0  0  0
 23 25  1  0  0  0  0
 23 26  1  0  0  0  0
 24 21  1  0  0  0  0
 24 27  1  1  0  0  0
 25 20  1  1  0  0  0
 25 21  1  0  0  0  0
 26 24  1  0  0  0  0
 27 28  1  0  0  0  0
 29 31  1  0  0  0  0
 29  1  1  0  0  0  0
 30 40  1  6  0  0  0
 30 31  1  0  0  0  0
 32 33  1  1  0  0  0
 32 30  1  0  0  0  0
 32 31  1  0  0  0  0
 33 34  1  1  0  0  0
 35 33  1  0  0  0  0
 36 35  1  0  0  0  0
 37 39  1  0  0  0  0
 38 39  2  0  0  0  0
 39 36  1  0  0  0  0
 41 44  1  0  0  0  0
 42 41  2  0  0  0  0
 43 41  1  0  0  0  0
 44 40  1  0  0  0  0
M  END
>  <MODEL>
5

>  <REMARK>
 VINA RESULT:      -5.7      2.627      7.160
  Name = 
  18 active torsions:
  status: ('A' for Active; 'I' for Inactive)
    1  A    between atoms: C_1  and  C_4
    2  A    between atoms: C_1  and  N_20
    3  A    between atoms: C_1  and  C_34
    4  A    between atoms: C_3  and  C_16
    5  A    between atoms: C_4  and  C_43
    6  A    between atoms: C_6  and  C_15
    7  A    between atoms: C_6  and  N_40
    8  A    between atoms: C_7  and  C_8
    9  A    between atoms: C_7  and  C_12
   10  A    between atoms: C_8  and  C_35
   11  A    between atoms: C_11  and  C_15
   12  A    between atoms: C_11  and  C_32
   13  A    between atoms: C_12  and  C_28
   14  A    between atoms: C_16  and  N_27
   15  A    between atoms: N_19  and  N_20
   16  A    between atoms: O_22  and  C_37
   17  A    between atoms: C_24  and  C_36
   18  A    between atoms: C_36  and  C_38
                            x       y       z     vdW  Elec       q    Type
                         _______ _______ _______ _____ _____    ______ ____

>  <TORSDO>
F 18

$$$$
=
 OpenBabel11062422113D

 44 48  0  0  1  0  0  0  0  0999 V2000
  192.0350  173.4520  143.6180 C   0  0  1  0  0  3  0  0  0  0  0  0
  190.8240  175.5310  143.7010 O   0  0  0  0  0  0  0  0  0  0  0  0
  191.3760  174.5950  144.3410 C   0  0  0  0  0  0  0  0  0  0  0  0
  191.3600  174.5890  145.7730 N   0  0  0  0  0  2  0  0  0  0  0  0
  190.6710  175.6100  146.5580 C   0  0  2  0  0  3  0  0  0  0  0  0
  191.2510  175.6640  147.9610 C   0  0  0  0  0  1  0  0  0  0  0  0
  189.1620  175.3670  146.5920 C   0  0  0  0  0  2  0  0  0  0  0  0
  188.3940  176.5180  147.2120 C   0  0  0  0  0  2  0  0  0  0  0  0
  186.1370  177.3130  147.8120 C   0  0  0  0  0  2  0  0  0  0  0  0
  186.9210  176.4110  146.8820 C   0  0  1  0  0  3  0  0  0  0  0  0
  186.4260  177.7580  146.3980 C   0  0  1  0  0  3  0  0  0  0  0  0
  185.1950  177.5430  145.5410 C   0  0  0  0  0  2  0  0  0  0  0  0
  185.6450  178.5030  143.2420 C   0  0  2  0  0  0  0  0  0  0  0  0
  185.2730  180.1190  143.9020 Cl  0  0  0  0  0  0  0  0  0  0  0  0
  185.6050  177.2470  144.1090 C   0  0  1  0  0  3  0  0  0  0  0  0
  186.9300  177.9400  143.8050 C   0  0  1  0  0  3  0  0  0  0  0  0
  185.5550  178.2840  141.4380 S   0  0  0  0  0  0  0  0  0  0  0  0
  187.7020  177.2200  142.7030 C   0  0  0  0  0  2  0  0  0  0  0  0
  186.8450  177.0150  141.4680 C   0  0  0  0  0  2  0  0  0  0  0  0
  192.6020  173.9640  142.2970 C   0  0  0  0  0  2  0  0  0  0  0  0
  192.3330  171.6850  141.1870 C   0  0  2  0  0  3  0  0  0  0  0  0
  193.6350  171.3430  140.8320 O   0  0  0  0  0  1  0  0  0  0  0  0
  190.6690  173.3920  140.7400 C   0  0  0  0  0  2  0  0  0  0  0  0
  191.3560  171.1270  140.1700 C   0  0  2  0  0  3  0  0  0  0  0  0
  192.1350  173.1800  141.0710 C   0  0  1  0  0  3  0  0  0  0  0  0
  190.1940  172.1110  140.0680 C   0  0  0  0  0  2  0  0  0  0  0  0
  190.9780  169.7910  140.4060 O   0  0  0  0  0  0  0  0  0  0  0  0
  190.8070  169.5840  141.7830 C   0  0  0  0  0  1  0  0  0  0  0  0
  193.1140  172.8710  144.4080 N   0  0  0  0  0  2  0  0  0  0  0  0
  195.4840  172.8900  144.7140 C   0  0  1  0  0  3  0  0  0  0  0  0
  194.3020  173.5590  144.0990 N   0  0  0  0  0  0  0  0  0  0  0  0
  194.8680  174.0400  145.3700 C   0  0  2  0  0  3  0  0  0  0  0  0
  195.6830  175.3300  145.1840 C   0  0  2  0  0  3  0  0  0  0  0  0
  194.8090  176.4070  145.0320 O   0  0  0  0  0  1  0  0  0  0  0  0
  196.6960  175.3190  144.0370 C   0  0  0  0  0  2  0  0  0  0  0  0
  196.6510  176.6200  143.2490 C   0  0  0  0  0  2  0  0  0  0  0  0
  194.6750  176.4340  141.7320 O   0  0  0  0  0  1  0  0  0  0  0  0
  196.8050  176.2320  140.8990 O   0  0  0  0  0  0  0  0  0  0  0  0
  196.0570  176.4020  141.8970 C   0  0  0  0  0  0  0  0  0  0  0  0
  195.1660  171.6220  145.5040 C   0  0  0  0  0  2  0  0  0  0  0  0
  196.4010  169.6850  146.5260 C   0  0  0  0  0  0  0  0  0  0  0  0
  197.4940  169.1070  146.7710 O   0  0  0  0  0  0  0  0  0  0  0  0
  195.1770  169.0680  146.9170 N   0  0  0  0  0  1  0  0  0  0  0  0
  196.4020  170.9430  145.8560 N   0  0  0  0  0  2  0  0  0  0  0  0
  1 20  1  6  0  0  0
  1  3  1  0  0  0  0
  1 29  1  0  0  0  0
  2  3  2  0  0  0  0
  3  4  1  0  0  0  0
  4  5  1  0  0  0  0
  5  7  1  0  0  0  0
  5  6  1  1  0  0  0
  7  8  1  0  0  0  0
 10  8  1  1  0  0  0
 10  9  1  0  0  0  0
 11 12  1  6  0  0  0
 11 10  1  0  0  0  0
 11  9  1  0  0  0  0
 13 16  1  0  0  0  0
 13 14  1  1  0  0  0
 13 15  1  0  0  0  0
 15 12  1  1  0  0  0
 16 18  1  6  0  0  0
 16 15  1  0  0  0  0
 17 19  1  0  0  0  0
 17 13  1  0  0  0  0
 19 18  1  0  0  0  0
 21 22  1  6  0  0  0
 23 25  1  0  0  0  0
 24 27  1  1  0  0  0
 24 21  1  0  0  0  0
 25 21  1  0  0  0  0
 25 20  1  1  0  0  0
 26 24  1  0  0  0  0
 26 23  1  0  0  0  0
 27 28  1  0  0  0  0
 30 32  1  0  0  0  0
 30 40  1  1  0  0  0
 31 29  1  0  0  0  0
 31 30  1  0  0  0  0
 31 32  1  0  0  0  0
 32 33  1  6  0  0  0
 33 34  1  6  0  0  0
 35 33  1  0  0  0  0
 36 35  1  0  0  0  0
 37 39  1  0  0  0  0
 38 39  2  0  0  0  0
 39 36  1  0  0  0  0
 40 44  1  0  0  0  0
 41 42  2  0  0  0  0
 41 43  1  0  0  0  0
 44 41  1  0  0  0  0
M  END
>  <MODEL>
6

>  <REMARK>
 VINA RESULT:      -5.7      3.036      5.181
  Name = 
  18 active torsions:
  status: ('A' for Active; 'I' for Inactive)
    1  A    between atoms: C_1  and  C_4
    2  A    between atoms: C_1  and  N_20
    3  A    between atoms: C_1  and  C_34
    4  A    between atoms: C_3  and  C_16
    5  A    between atoms: C_4  and  C_43
    6  A    between atoms: C_6  and  C_15
    7  A    between atoms: C_6  and  N_40
    8  A    between atoms: C_7  and  C_8
    9  A    between atoms: C_7  and  C_12
   10  A    between atoms: C_8  and  C_35
   11  A    between atoms: C_11  and  C_15
   12  A    between atoms: C_11  and  C_32
   13  A    between atoms: C_12  and  C_28
   14  A    between atoms: C_16  and  N_27
   15  A    between atoms: N_19  and  N_20
   16  A    between atoms: O_22  and  C_37
   17  A    between atoms: C_24  and  C_36
   18  A    between atoms: C_36  and  C_38
                            x       y       z     vdW  Elec       q    Type
                         _______ _______ _______ _____ _____    ______ ____

>  <TORSDO>
F 18

$$$$
=
 OpenBabel11062422113D

 44 48  0  0  1  0  0  0  0  0999 V2000
  185.5230  177.2810  142.3810 C   0  0  1  0  0  3  0  0  0  0  0  0
  186.2150  178.9900  143.9290 O   0  0  0  0  0  0  0  0  0  0  0  0
  185.7860  177.8150  143.7630 C   0  0  0  0  0  0  0  0  0  0  0  0
  185.5130  176.9790  144.8920 N   0  0  0  0  0  2  0  0  0  0  0  0
  185.6560  177.4400  146.2700 C   0  0  2  0  0  3  0  0  0  0  0  0
  185.0810  178.8390  146.4110 C   0  0  0  0  0  1  0  0  0  0  0  0
  187.1130  177.3920  146.7290 C   0  0  0  0  0  2  0  0  0  0  0  0
  187.9130  176.3040  146.0390 C   0  0  0  0  0  2  0  0  0  0  0  0
  189.1560  174.5650  147.2690 C   0  0  0  0  0  2  0  0  0  0  0  0
  189.1810  176.0080  146.8100 C   0  0  1  0  0  3  0  0  0  0  0  0
  189.9760  174.9580  146.0630 C   0  0  1  0  0  3  0  0  0  0  0  0
  191.4340  175.0790  146.4630 C   0  0  0  0  0  2  0  0  0  0  0  0
  193.7300  174.9640  145.4030 C   0  0  2  0  0  0  0  0  0  0  0  0
  194.2480  176.2640  146.5110 Cl  0  0  0  0  0  0  0  0  0  0  0  0
  192.3130  174.3960  145.4300 C   0  0  1  0  0  3  0  0  0  0  0  0
  193.4560  173.6700  146.1340 C   0  0  1  0  0  3  0  0  0  0  0  0
  194.7200  174.6860  143.9020 S   0  0  0  0  0  0  0  0  0  0  0  0
  193.9690  172.4940  145.3070 C   0  0  0  0  0  2  0  0  0  0  0  0
  194.3200  172.9210  143.8950 C   0  0  0  0  0  2  0  0  0  0  0  0
  184.6630  178.2830  141.6180 C   0  0  0  0  0  2  0  0  0  0  0  0
  182.3430  179.1170  142.2630 C   0  0  2  0  0  3  0  0  0  0  0  0
  182.3480  179.0410  143.6530 O   0  0  0  0  0  1  0  0  0  0  0  0
  182.5560  177.6820  140.3190 C   0  0  0  0  0  2  0  0  0  0  0  0
  180.9490  178.8400  141.7350 C   0  0  2  0  0  3  0  0  0  0  0  0
  183.1640  177.9910  141.6750 C   0  0  1  0  0  3  0  0  0  0  0  0
  181.1040  178.1340  140.3910 C   0  0  0  0  0  2  0  0  0  0  0  0
  180.1060  179.9690  141.7140 O   0  0  0  0  0  0  0  0  0  0  0  0
  179.9590  180.4260  140.3950 C   0  0  0  0  0  1  0  0  0  0  0  0
  186.7650  177.0600  141.6490 N   0  0  0  0  0  2  0  0  0  0  0  0
  188.7650  176.1080  142.5440 C   0  0  1  0  0  3  0  0  0  0  0  0
  187.3520  175.8750  142.1310 N   0  0  0  0  0  0  0  0  0  0  0  0
  188.4680  175.5470  141.2300 C   0  0  2  0  0  3  0  0  0  0  0  0
  188.7270  174.0340  141.1630 C   0  0  2  0  0  3  0  0  0  0  0  0
  188.2050  173.5300  139.9710 O   0  0  0  0  0  1  0  0  0  0  0  0
  188.2000  173.2150  142.3450 C   0  0  0  0  0  2  0  0  0  0  0  0
  189.3390  172.7280  143.2300 C   0  0  0  0  0  2  0  0  0  0  0  0
  190.0780  170.7380  141.9130 O   0  0  0  0  0  0  0  0  0  0  0  0
  191.4690  172.5460  142.1690 O   0  0  0  0  0  1  0  0  0  0  0  0
  190.3640  172.0010  142.4230 C   0  0  0  0  0  0  0  0  0  0  0  0
  189.2530  177.5470  142.3860 C   0  0  0  0  0  2  0  0  0  0  0  0
  191.4270  177.5980  143.6480 C   0  0  0  0  0  0  0  0  0  0  0  0
  192.0880  177.9860  144.6480 O   0  0  0  0  0  0  0  0  0  0  0  0
  192.0750  176.8440  142.6270 N   0  0  0  0  0  1  0  0  0  0  0  0
  190.0430  177.9250  143.5450 N   0  0  0  0  0  2  0  0  0  0  0  0
  1 20  1  6  0  0  0
  1  3  1  0  0  0  0
  3  2  2  0  0  0  0
  3  4  1  0  0  0  0
  4  5  1  0  0  0  0
  5  6  1  6  0  0  0
  5  7  1  0  0  0  0
  8  7  1  0  0  0  0
 10  8  1  6  0  0  0
 10  9  1  0  0  0  0
 11 12  1  1  0  0  0
 11 10  1  0  0  0  0
 11  9  1  0  0  0  0
 13 15  1  0  0  0  0
 13 16  1  0  0  0  0
 13 14  1  1  0  0  0
 15 16  1  0  0  0  0
 15 12  1  1  0  0  0
 16 18  1  6  0  0  0
 17 13  1  0  0  0  0
 19 17  1  0  0  0  0
 19 18  1  0  0  0  0
 21 22  1  1  0  0  0
 23 26  1  0  0  0  0
 23 25  1  0  0  0  0
 24 27  1  6  0  0  0
 24 21  1  0  0  0  0
 25 20  1  6  0  0  0
 25 21  1  0  0  0  0
 26 24  1  0  0  0  0
 28 27  1  0  0  0  0
 29 31  1  0  0  0  0
 29  1  1  0  0  0  0
 30 40  1  6  0  0  0
 31 30  1  0  0  0  0
 32 33  1  1  0  0  0
 32 31  1  0  0  0  0
 32 30  1  0  0  0  0
 33 34  1  6  0  0  0
 33 35  1  0  0  0  0
 35 36  1  0  0  0  0
 37 39  2  0  0  0  0
 38 39  1  0  0  0  0
 39 36  1  0  0  0  0
 40 44  1  0  0  0  0
 41 42  2  0  0  0  0
 43 41  1  0  0  0  0
 44 41  1  0  0  0  0
M  END
>  <MODEL>
7

>  <REMARK>
 VINA RESULT:      -5.7      3.606      6.905
  Name = 
  18 active torsions:
  status: ('A' for Active; 'I' for Inactive)
    1  A    between atoms: C_1  and  C_4
    2  A    between atoms: C_1  and  N_20
    3  A    between atoms: C_1  and  C_34
    4  A    between atoms: C_3  and  C_16
    5  A    between atoms: C_4  and  C_43
    6  A    between atoms: C_6  and  C_15
    7  A    between atoms: C_6  and  N_40
    8  A    between atoms: C_7  and  C_8
    9  A    between atoms: C_7  and  C_12
   10  A    between atoms: C_8  and  C_35
   11  A    between atoms: C_11  and  C_15
   12  A    between atoms: C_11  and  C_32
   13  A    between atoms: C_12  and  C_28
   14  A    between atoms: C_16  and  N_27
   15  A    between atoms: N_19  and  N_20
   16  A    between atoms: O_22  and  C_37
   17  A    between atoms: C_24  and  C_36
   18  A    between atoms: C_36  and  C_38
                            x       y       z     vdW  Elec       q    Type
                         _______ _______ _______ _____ _____    ______ ____

>  <TORSDO>
F 18

$$$$
=
 OpenBabel11062422113D

 44 48  0  0  1  0  0  0  0  0999 V2000
  193.4460  174.0040  144.8690 C   0  0  1  0  0  3  0  0  0  0  0  0
  193.4080  175.3340  146.8750 O   0  0  0  0  0  0  0  0  0  0  0  0
  192.7470  174.7260  145.9890 C   0  0  0  0  0  0  0  0  0  0  0  0
  191.3170  174.7360  146.0180 N   0  0  0  0  0  2  0  0  0  0  0  0
  190.5530  175.4800  147.0160 C   0  0  2  0  0  3  0  0  0  0  0  0
  189.2090  174.8100  147.2470 C   0  0  0  0  0  1  0  0  0  0  0  0
  190.3790  176.9440  146.6120 C   0  0  0  0  0  2  0  0  0  0  0  0
  190.7130  177.1960  145.1550 C   0  0  0  0  0  2  0  0  0  0  0  0
  189.7230  177.2120  142.8950 C   0  0  0  0  0  2  0  0  0  0  0  0
  189.4530  177.4730  144.3630 C   0  0  1  0  0  3  0  0  0  0  0  0
  188.9840  176.1850  143.7210 C   0  0  1  0  0  3  0  0  0  0  0  0
  187.4970  176.2930  143.4460 C   0  0  0  0  0  2  0  0  0  0  0  0
  185.6900  178.0460  143.7120 C   0  0  2  0  0  0  0  0  0  0  0  0
  185.1210  177.6330  142.0720 Cl  0  0  0  0  0  0  0  0  0  0  0  0
  186.8760  177.3350  144.3600 C   0  0  1  0  0  3  0  0  0  0  0  0
  185.4440  176.9270  144.6990 C   0  0  1  0  0  3  0  0  0  0  0  0
  185.1990  179.6580  144.3980 S   0  0  0  0  0  0  0  0  0  0  0  0
  184.9950  177.5100  146.0350 C   0  0  0  0  0  2  0  0  0  0  0  0
  185.2110  179.0100  146.0870 C   0  0  0  0  0  2  0  0  0  0  0  0
  193.1070  174.6900  143.5490 C   0  0  0  0  0  2  0  0  0  0  0  0
  191.0440  173.5140  142.6230 C   0  0  2  0  0  3  0  0  0  0  0  0
  190.8010  172.5080  143.5540 O   0  0  0  0  0  1  0  0  0  0  0  0
  192.7590  174.2370  141.0670 C   0  0  0  0  0  2  0  0  0  0  0  0
  190.6420  173.0460  141.2380 C   0  0  2  0  0  3  0  0  0  0  0  0
  192.5310  173.7530  142.4880 C   0  0  1  0  0  3  0  0  0  0  0  0
  191.5990  173.6970  140.2420 C   0  0  0  0  0  2  0  0  0  0  0  0
  189.2750  173.2230  140.9440 O   0  0  0  0  0  0  0  0  0  0  0  0
  189.1340  173.7640  139.6570 C   0  0  0  0  0  1  0  0  0  0  0  0
  194.8930  174.0080  145.0520 N   0  0  0  0  0  2  0  0  0  0  0  0
  196.7180  173.6120  143.5610 C   0  0  1  0  0  3  0  0  0  0  0  0
  195.4860  174.4040  143.8390 N   0  0  0  0  0  0  0  0  0  0  0  0
  196.8180  174.9390  144.1620 C   0  0  2  0  0  3  0  0  0  0  0  0
  197.2670  176.0090  143.1540 C   0  0  2  0  0  3  0  0  0  0  0  0
  196.2310  176.9240  142.9620 O   0  0  0  0  0  1  0  0  0  0  0  0
  197.7520  175.4870  141.7990 C   0  0  0  0  0  2  0  0  0  0  0  0
  196.8740  175.9960  140.6650 C   0  0  0  0  0  2  0  0  0  0  0  0
  196.9450  175.0840  138.3400 O   0  0  0  0  0  0  0  0  0  0  0  0
  196.0960  173.8220  140.0600 O   0  0  0  0  0  1  0  0  0  0  0  0
  196.6000  174.9100  139.6780 C   0  0  0  0  0  0  0  0  0  0  0  0
  197.0520  172.5520  144.6090 C   0  0  0  0  0  2  0  0  0  0  0  0
  196.8310  170.0580  144.8400 C   0  0  0  0  0  0  0  0  0  0  0  0
  196.6560  168.9340  144.2990 O   0  0  0  0  0  0  0  0  0  0  0  0
  196.9440  170.1460  146.2580 N   0  0  0  0  0  1  0  0  0  0  0  0
  196.9050  171.2280  144.0290 N   0  0  0  0  0  2  0  0  0  0  0  0
  1 20  1  6  0  0  0
  1 29  1  0  0  0  0
  1  3  1  0  0  0  0
  3  4  1  0  0  0  0
  3  2  2  0  0  0  0
  4  5  1  0  0  0  0
  5  6  1  6  0  0  0
  7  5  1  0  0  0  0
  8  7  1  0  0  0  0
  9 11  1  0  0  0  0
  9 10  1  0  0  0  0
 10  8  1  1  0  0  0
 11 12  1  6  0  0  0
 11 10  1  0  0  0  0
 13 14  1  6  0  0  0
 13 15  1  0  0  0  0
 13 17  1  0  0  0  0
 13 16  1  0  0  0  0
 15 12  1  6  0  0  0
 15 16  1  0  0  0  0
 16 18  1  1  0  0  0
 17 19  1  0  0  0  0
 18 19  1  0  0  0  0
 21 22  1  1  0  0  0
 23 25  1  0  0  0  0
 24 27  1  6  0  0  0
 24 21  1  0  0  0  0
 25 21  1  0  0  0  0
 25 20  1  1  0  0  0
 26 23  1  0  0  0  0
 26 24  1  0  0  0  0
 28 27  1  0  0  0  0
 30 31  1  0  0  0  0
 30 32  1  0  0  0  0
 30 40  1  1  0  0  0
 31 32  1  0  0  0  0
 31 29  1  0  0  0  0
 32 33  1  6  0  0  0
 33 34  1  6  0  0  0
 35 33  1  0  0  0  0
 36 35  1  0  0  0  0
 37 39  2  0  0  0  0
 39 38  1  0  0  0  0
 39 36  1  0  0  0  0
 41 43  1  0  0  0  0
 42 41  2  0  0  0  0
 44 40  1  0  0  0  0
 44 41  1  0  0  0  0
M  END
>  <MODEL>
8

>  <REMARK>
 VINA RESULT:      -5.6      2.976      5.594
  Name = 
  18 active torsions:
  status: ('A' for Active; 'I' for Inactive)
    1  A    between atoms: C_1  and  C_4
    2  A    between atoms: C_1  and  N_20
    3  A    between atoms: C_1  and  C_34
    4  A    between atoms: C_3  and  C_16
    5  A    between atoms: C_4  and  C_43
    6  A    between atoms: C_6  and  C_15
    7  A    between atoms: C_6  and  N_40
    8  A    between atoms: C_7  and  C_8
    9  A    between atoms: C_7  and  C_12
   10  A    between atoms: C_8  and  C_35
   11  A    between atoms: C_11  and  C_15
   12  A    between atoms: C_11  and  C_32
   13  A    between atoms: C_12  and  C_28
   14  A    between atoms: C_16  and  N_27
   15  A    between atoms: N_19  and  N_20
   16  A    between atoms: O_22  and  C_37
   17  A    between atoms: C_24  and  C_36
   18  A    between atoms: C_36  and  C_38
                            x       y       z     vdW  Elec       q    Type
                         _______ _______ _______ _____ _____    ______ ____

>  <TORSDO>
F 18

$$$$
=
 OpenBabel11062422113D

 44 48  0  0  1  0  0  0  0  0999 V2000
  193.9890  174.4050  144.7080 C   0  0  1  0  0  3  0  0  0  0  0  0
  194.1800  176.4650  145.9380 O   0  0  0  0  0  0  0  0  0  0  0  0
  193.4690  175.4670  145.6380 C   0  0  0  0  0  0  0  0  0  0  0  0
  192.1410  175.3430  146.1560 N   0  0  0  0  0  2  0  0  0  0  0  0
  191.5220  176.3660  146.9950 C   0  0  2  0  0  3  0  0  0  0  0  0
  191.2630  175.8100  148.3850 C   0  0  0  0  0  1  0  0  0  0  0  0
  190.2380  176.9050  146.3670 C   0  0  0  0  0  2  0  0  0  0  0  0
  190.2120  176.7540  144.8590 C   0  0  0  0  0  2  0  0  0  0  0  0
  189.7860  178.1350  142.8580 C   0  0  0  0  0  2  0  0  0  0  0  0
  189.2810  177.7750  144.2400 C   0  0  1  0  0  3  0  0  0  0  0  0
  188.6340  177.1700  143.0120 C   0  0  1  0  0  3  0  0  0  0  0  0
  187.3300  177.8950  142.7430 C   0  0  0  0  0  2  0  0  0  0  0  0
  185.0880  178.2200  143.8730 C   0  0  2  0  0  0  0  0  0  0  0  0
  184.3110  177.9700  142.2860 Cl  0  0  0  0  0  0  0  0  0  0  0  0
  186.6040  178.1570  144.0500 C   0  0  1  0  0  3  0  0  0  0  0  0
  185.7290  176.9550  144.3980 C   0  0  1  0  0  3  0  0  0  0  0  0
  184.1240  179.0630  145.1650 S   0  0  0  0  0  0  0  0  0  0  0  0
  185.4950  176.8460  145.9020 C   0  0  0  0  0  2  0  0  0  0  0  0
  184.9680  178.1470  146.4770 C   0  0  0  0  0  2  0  0  0  0  0  0
  193.5890  173.0350  145.2480 C   0  0  0  0  0  2  0  0  0  0  0  0
  194.9830  171.0190  144.5500 C   0  0  2  0  0  3  0  0  0  0  0  0
  194.1500  169.9390  144.8280 O   0  0  0  0  0  1  0  0  0  0  0  0
  196.0920  172.8550  145.6830 C   0  0  0  0  0  2  0  0  0  0  0  0
  196.4320  170.6250  144.7670 C   0  0  2  0  0  3  0  0  0  0  0  0
  194.7700  172.1190  145.5660 C   0  0  1  0  0  3  0  0  0  0  0  0
  197.1700  171.8630  145.2670 C   0  0  0  0  0  2  0  0  0  0  0  0
  197.0280  169.9900  143.6590 O   0  0  0  0  0  0  0  0  0  0  0  0
  197.2200  170.9210  142.6270 C   0  0  0  0  0  1  0  0  0  0  0  0
  193.4520  174.5640  143.3620 N   0  0  0  0  0  2  0  0  0  0  0  0
  192.2150  173.4230  141.6650 C   0  0  1  0  0  3  0  0  0  0  0  0
  192.5810  173.4870  143.1090 N   0  0  0  0  0  0  0  0  0  0  0  0
  191.3150  174.0590  142.6220 C   0  0  2  0  0  3  0  0  0  0  0  0
  190.1100  173.1730  142.9770 C   0  0  2  0  0  3  0  0  0  0  0  0
  190.3010  171.9010  142.4370 O   0  0  0  0  0  1  0  0  0  0  0  0
  188.7400  173.7120  142.5570 C   0  0  0  0  0  2  0  0  0  0  0  0
  188.2590  173.0560  141.2710 C   0  0  0  0  0  2  0  0  0  0  0  0
  189.6700  173.3110  139.2250 O   0  0  0  0  0  0  0  0  0  0  0  0
  188.1780  174.9500  139.8210 O   0  0  0  0  0  1  0  0  0  0  0  0
  188.7040  173.8360  140.0790 C   0  0  0  0  0  0  0  0  0  0  0  0
  192.8650  174.4920  140.7880 C   0  0  0  0  0  2  0  0  0  0  0  0
  195.1780  174.6930  139.8230 C   0  0  0  0  0  0  0  0  0  0  0  0
  196.1650  174.1490  139.2590 O   0  0  0  0  0  0  0  0  0  0  0  0
  195.2490  176.0680  140.1920 N   0  0  0  0  0  1  0  0  0  0  0  0
  194.0070  173.9250  140.0920 N   0  0  0  0  0  2  0  0  0  0  0  0
  1 20  1  1  0  0  0
  1  3  1  0  0  0  0
  3  2  2  0  0  0  0
  3  4  1  0  0  0  0
  4  5  1  0  0  0  0
  5  6  1  1  0  0  0
  7  5  1  0  0  0  0
  8  7  1  0  0  0  0
  9 11  1  0  0  0  0
  9 10  1  0  0  0  0
 10  8  1  1  0  0  0
 11 12  1  6  0  0  0
 11 10  1  0  0  0  0
 13 14  1  6  0  0  0
 13 15  1  0  0  0  0
 13 16  1  0  0  0  0
 13 17  1  0  0  0  0
 15 12  1  6  0  0  0
 15 16  1  0  0  0  0
 16 18  1  1  0  0  0
 17 19  1  0  0  0  0
 18 19  1  0  0  0  0
 21 24  1  0  0  0  0
 21 22  1  1  0  0  0
 21 25  1  0  0  0  0
 24 27  1  6  0  0  0
 24 26  1  0  0  0  0
 25 20  1  6  0  0  0
 25 23  1  0  0  0  0
 26 23  1  0  0  0  0
 28 27  1  0  0  0  0
 29  1  1  0  0  0  0
 30 40  1  6  0  0  0
 30 32  1  0  0  0  0
 30 31  1  0  0  0  0
 31 29  1  0  0  0  0
 32 33  1  1  0  0  0
 32 31  1  0  0  0  0
 33 34  1  6  0  0  0
 35 33  1  0  0  0  0
 36 35  1  0  0  0  0
 37 39  2  0  0  0  0
 38 39  1  0  0  0  0
 39 36  1  0  0  0  0
 41 44  1  0  0  0  0
 41 43  1  0  0  0  0
 42 41  2  0  0  0  0
 44 40  1  0  0  0  0
M  END
>  <MODEL>
9

>  <REMARK>
 VINA RESULT:      -5.6      2.811      6.507
  Name = 
  18 active torsions:
  status: ('A' for Active; 'I' for Inactive)
    1  A    between atoms: C_1  and  C_4
    2  A    between atoms: C_1  and  N_20
    3  A    between atoms: C_1  and  C_34
    4  A    between atoms: C_3  and  C_16
    5  A    between atoms: C_4  and  C_43
    6  A    between atoms: C_6  and  C_15
    7  A    between atoms: C_6  and  N_40
    8  A    between atoms: C_7  and  C_8
    9  A    between atoms: C_7  and  C_12
   10  A    between atoms: C_8  and  C_35
   11  A    between atoms: C_11  and  C_15
   12  A    between atoms: C_11  and  C_32
   13  A    between atoms: C_12  and  C_28
   14  A    between atoms: C_16  and  N_27
   15  A    between atoms: N_19  and  N_20
   16  A    between atoms: O_22  and  C_37
   17  A    between atoms: C_24  and  C_36
   18  A    between atoms: C_36  and  C_38
                            x       y       z     vdW  Elec       q    Type
                         _______ _______ _______ _____ _____    ______ ____

>  <TORSDO>
F 18

$$$$
