=
 OpenBabel11062419183D

 50 56  0  0  1  0  0  0  0  0999 V2000
  194.4080  171.3220  144.8850 C   0  0  0  0  0  0  0  0  0  0  0  0
  195.4370  172.5660  143.0850 C   0  0  0  0  0  3  0  0  0  0  0  0
  193.0780  171.9980  142.9560 C   0  0  0  0  0  0  0  0  0  0  0  0
  194.4420  170.6560  146.1010 O   0  0  0  0  0  1  0  0  0  0  0  0
  193.1980  171.3910  144.2090 C   0  0  0  0  0  3  0  0  0  0  0  0
  194.2310  172.5930  142.3680 C   0  0  0  0  0  0  0  0  0  0  0  0
  195.5540  171.9310  144.3280 C   0  0  0  0  0  0  0  0  0  0  0  0
  186.6230  175.4220  142.5860 O   0  0  0  0  0  0  0  0  0  0  0  0
  190.6860  172.9150  143.3530 C   0  0  1  0  0  3  0  0  0  0  0  0
  189.7390  171.0950  142.2940 O   0  0  0  0  0  0  0  0  0  0  0  0
  191.0600  170.8560  142.2050 O   0  0  0  0  0  0  0  0  0  0  0  0
  189.3520  174.4390  142.4630 C   0  0  0  0  0  0  0  0  0  0  0  0
  188.8630  175.7010  142.0090 N   0  0  0  0  0  2  0  0  0  0  0  0
  191.6510  172.1240  142.4910 C   0  0  2  0  0  3  0  0  0  0  0  0
  188.6780  173.2070  142.2390 N   0  0  0  0  0  0  0  0  0  0  0  0
  187.4770  176.0280  141.8990 C   0  0  0  0  0  0  0  0  0  0  0  0
  187.0250  177.0690  140.9350 C   0  0  0  0  0  1  0  0  0  0  0  0
  190.5350  174.3170  142.9990 N   0  0  0  0  0  0  0  0  0  0  0  0
  189.5010  172.3560  142.7610 C   0  0  0  0  0  0  0  0  0  0  0  0
  194.4920  175.2560  139.7080 C   0  0  0  0  0  3  0  0  0  0  0  0
  194.7660  172.4860  139.9310 C   0  0  0  0  0  3  0  0  0  0  0  0
  195.3950  175.1690  137.4780 O   0  0  0  0  0  1  0  0  0  0  0  0
  194.2740  173.2160  141.0270 C   0  0  0  0  0  0  0  0  0  0  0  0
  195.0330  174.5250  138.6540 C   0  0  0  0  0  0  0  0  0  0  0  0
  195.1130  173.1330  138.7400 C   0  0  0  0  0  3  0  0  0  0  0  0
  194.1430  174.6090  140.8950 C   0  0  0  0  0  3  0  0  0  0  0  0
  196.8480  172.1150  145.0910 C   0  0  1  0  0  3  0  0  0  0  0  0
  197.9110  171.3710  144.5670 O   0  0  0  0  0  1  0  0  0  0  0  0
  197.2800  173.5640  145.2760 C   0  0  0  0  0  2  0  0  0  0  0  0
  196.2530  174.2130  146.1860 C   0  0  0  0  0  2  0  0  0  0  0  0
  195.4850  175.3370  145.5070 C   0  0  0  0  0  2  0  0  0  0  0  0
  194.2350  175.7510  146.2890 C   0  0  2  0  0  3  0  0  0  0  0  0
  193.1550  176.1080  143.8830 C   0  0  0  0  0  2  0  0  0  0  0  0
  192.4080  174.6030  147.2300 F   0  0  0  0  0  0  0  0  0  0  0  0
  192.5780  177.4330  143.3890 C   0  0  0  0  0  2  0  0  0  0  0  0
  193.1530  174.6980  146.0650 C   0  0  1  0  0  3  0  0  0  0  0  0
  190.8840  176.8480  145.2140 C   0  0  2  0  0  3  0  0  0  0  0  0
  193.0130  176.0610  145.4230 C   0  0  1  0  0  0  0  0  0  0  0  0
  192.0370  176.8780  146.0400 O   0  0  0  0  0  0  0  0  0  0  0  0
  191.1510  177.6520  143.9290 C   0  0  0  0  0  2  0  0  0  0  0  0
  189.9350  177.6030  147.2880 O   0  0  0  0  0  1  0  0  0  0  0  0
  189.6460  177.3760  145.9360 C   0  0  2  0  0  3  0  0  0  0  0  0
  188.5000  175.3920  146.9970 C   0  0  0  0  0  1  0  0  0  0  0  0
  188.4840  176.3700  145.8240 C   0  0  1  0  0  3  0  0  0  0  0  0
  186.9690  178.1270  144.8590 C   0  0  0  0  0  3  0  0  0  0  0  0
  185.7170  178.7450  144.8200 C   0  0  0  0  0  3  0  0  0  0  0  0
  184.9010  177.2390  146.4480 C   0  0  0  0  0  3  0  0  0  0  0  0
  184.7040  178.2790  145.6040 N   0  0  0  0  0  0  0  0  0  0  0  0
  187.1520  177.0380  145.7290 C   0  0  0  0  0  0  0  0  0  0  0  0
  186.1160  176.6310  146.5180 N   0  0  0  0  0  0  0  0  0  0  0  0
  1  4  1  0  0  0  0
  2  7  2  0  0  0  0
  3  5  1  0  0  0  0
  5  1  2  0  0  0  0
  6  3  2  0  0  0  0
  6  2  1  0  0  0  0
  7  1  1  0  0  0  0
  7 27  1  0  0  0  0
  9 19  1  6  0  0  0
 10 19  1  0  0  0  0
 11 10  1  0  0  0  0
 11 14  1  0  0  0  0
 12 18  2  0  0  0  0
 13 12  1  0  0  0  0
 14  3  1  1  0  0  0
 14  9  1  0  0  0  0
 15 12  1  0  0  0  0
 15 19  2  0  0  0  0
 16 13  1  0  0  0  0
 16  8  2  0  0  0  0
 17 16  1  0  0  0  0
 18  9  1  0  0  0  0
 20 26  1  0  0  0  0
 21 23  1  0  0  0  0
 22 24  1  0  0  0  0
 23  6  1  0  0  0  0
 24 25  1  0  0  0  0
 24 20  2  0  0  0  0
 25 21  2  0  0  0  0
 26 23  2  0  0  0  0
 27 28  1  6  0  0  0
 27 29  1  0  0  0  0
 29 30  1  0  0  0  0
 31 30  1  0  0  0  0
 32 31  1  6  0  0  0
 35 33  1  0  0  0  0
 35 40  1  0  0  0  0
 36 32  1  0  0  0  0
 36 34  1  1  0  0  0
 37 42  1  1  0  0  0
 37 39  1  0  0  0  0
 38 33  1  6  0  0  0
 38 39  1  0  0  0  0
 38 36  1  0  0  0  0
 38 32  1  0  0  0  0
 40 37  1  0  0  0  0
 42 41  1  1  0  0  0
 44 42  1  0  0  0  0
 44 43  1  1  0  0  0
 45 49  1  0  0  0  0
 46 45  2  0  0  0  0
 46 48  1  0  0  0  0
 47 50  1  0  0  0  0
 48 47  2  0  0  0  0
 49 44  1  0  0  0  0
 49 50  2  0  0  0  0
M  END
>  <MODEL>
1

>  <REMARK>
 VINA RESULT:      -8.3      0.000      0.000
  Name = 
  10 active torsions:
  status: ('A' for Active; 'I' for Inactive)
    1  A    between atoms: C_1  and  C_12
    2  A    between atoms: C_6  and  C_35
    3  A    between atoms: C_12  and  C_24
    4  A    between atoms: C_16  and  C_28
    5  A    between atoms: C_16  and  C_32
    6  A    between atoms: C_17  and  C_28
    7  A    between atoms: C_18  and  C_27
    8  A    between atoms: C_18  and  C_50
    9  A    between atoms: C_24  and  C_50
   10  A    between atoms: C_25  and  C_42
                            x       y       z     vdW  Elec       q    Type
                         _______ _______ _______ _____ _____    ______ ____

>  <TORSDO>
F 10

$$$$
=
 OpenBabel11062419183D

 50 56  0  0  1  0  0  0  0  0999 V2000
  190.8440  177.0050  143.2780 C   0  0  0  0  0  0  0  0  0  0  0  0
  189.3190  176.8520  145.1470 C   0  0  0  0  0  3  0  0  0  0  0  0
  188.5170  177.6830  143.0100 C   0  0  0  0  0  0  0  0  0  0  0  0
  192.0940  176.8750  142.6920 O   0  0  0  0  0  1  0  0  0  0  0  0
  189.7990  177.4740  142.4940 C   0  0  0  0  0  3  0  0  0  0  0  0
  188.2690  177.3770  144.3790 C   0  0  0  0  0  0  0  0  0  0  0  0
  190.6070  176.6700  144.6290 C   0  0  0  0  0  0  0  0  0  0  0  0
  181.7510  177.6010  140.2270 O   0  0  0  0  0  0  0  0  0  0  0  0
  186.2920  177.1040  141.8110 C   0  0  1  0  0  3  0  0  0  0  0  0
  187.0620  177.9720  139.8160 O   0  0  0  0  0  0  0  0  0  0  0  0
  188.0880  178.1760  140.6620 O   0  0  0  0  0  0  0  0  0  0  0  0
  184.2480  177.9370  141.6690 C   0  0  0  0  0  0  0  0  0  0  0  0
  182.9540  178.4050  142.0520 N   0  0  0  0  0  2  0  0  0  0  0  0
  187.4970  178.0140  141.9520 C   0  0  2  0  0  3  0  0  0  0  0  0
  184.7590  178.0320  140.3460 N   0  0  0  0  0  0  0  0  0  0  0  0
  181.8150  178.3980  141.1910 C   0  0  0  0  0  0  0  0  0  0  0  0
  180.7040  179.3650  141.4070 C   0  0  0  0  0  1  0  0  0  0  0  0
  185.1100  177.5130  142.5510 N   0  0  0  0  0  0  0  0  0  0  0  0
  185.9510  177.5490  140.4870 C   0  0  0  0  0  0  0  0  0  0  0  0
  185.4110  176.8580  146.7880 C   0  0  0  0  0  3  0  0  0  0  0  0
  186.4890  178.9090  145.2280 C   0  0  0  0  0  3  0  0  0  0  0  0
  183.9700  178.4450  147.8830 O   0  0  0  0  0  1  0  0  0  0  0  0
  186.9860  177.6020  145.0800 C   0  0  0  0  0  0  0  0  0  0  0  0
  184.9730  178.1670  146.9640 C   0  0  0  0  0  0  0  0  0  0  0  0
  185.4650  179.1830  146.1420 C   0  0  0  0  0  3  0  0  0  0  0  0
  186.4300  176.5840  145.8730 C   0  0  0  0  0  3  0  0  0  0  0  0
  191.6130  175.9360  145.4890 C   0  0  1  0  0  3  0  0  0  0  0  0
  191.9810  176.6430  146.6390 O   0  0  0  0  0  1  0  0  0  0  0  0
  191.2130  174.5160  145.8670 C   0  0  0  0  0  2  0  0  0  0  0  0
  191.3160  173.6820  144.6040 C   0  0  0  0  0  2  0  0  0  0  0  0
  189.9840  173.0850  144.1760 C   0  0  0  0  0  2  0  0  0  0  0  0
  189.5540  173.5450  142.7800 C   0  0  2  0  0  3  0  0  0  0  0  0
  190.2960  171.1060  142.0200 C   0  0  0  0  0  2  0  0  0  0  0  0
  187.5200  173.5820  141.5970 F   0  0  0  0  0  0  0  0  0  0  0  0
  191.3630  170.8230  140.9640 C   0  0  0  0  0  2  0  0  0  0  0  0
  188.3170  172.7520  142.3690 C   0  0  1  0  0  3  0  0  0  0  0  0
  189.5370  171.8590  139.5030 C   0  0  2  0  0  3  0  0  0  0  0  0
  189.6430  172.4710  141.6960 C   0  0  1  0  0  0  0  0  0  0  0  0
  189.7210  172.9640  140.3720 O   0  0  0  0  0  0  0  0  0  0  0  0
  190.7870  170.9600  139.5420 C   0  0  0  0  0  2  0  0  0  0  0  0
  189.8450  171.4330  137.1580 O   0  0  0  0  0  1  0  0  0  0  0  0
  189.2290  172.2980  138.0730 C   0  0  2  0  0  3  0  0  0  0  0  0
  191.0480  173.7310  137.0670 C   0  0  0  0  0  1  0  0  0  0  0  0
  189.7250  173.7360  137.8300 C   0  0  1  0  0  3  0  0  0  0  0  0
  188.9540  174.9750  135.7840 C   0  0  0  0  0  3  0  0  0  0  0  0
  188.0060  175.7840  135.1550 C   0  0  0  0  0  3  0  0  0  0  0  0
  186.6770  175.7800  137.1100 C   0  0  0  0  0  3  0  0  0  0  0  0
  186.8790  176.1580  135.8260 N   0  0  0  0  0  0  0  0  0  0  0  0
  188.7210  174.5770  137.1120 C   0  0  0  0  0  0  0  0  0  0  0  0
  187.5940  175.0050  137.7500 N   0  0  0  0  0  0  0  0  0  0  0  0
  1  7  1  0  0  0  0
  3  6  2  0  0  0  0
  4  1  1  0  0  0  0
  5  3  1  0  0  0  0
  5  1  2  0  0  0  0
  6 23  1  0  0  0  0
  6  2  1  0  0  0  0
  7  2  2  0  0  0  0
  7 27  1  0  0  0  0
  8 16  2  0  0  0  0
  9 19  1  6  0  0  0
  9 14  1  0  0  0  0
  9 18  1  0  0  0  0
 10 19  1  0  0  0  0
 10 11  1  0  0  0  0
 11 14  1  0  0  0  0
 12 13  1  0  0  0  0
 12 18  2  0  0  0  0
 14  3  1  1  0  0  0
 15 19  2  0  0  0  0
 15 12  1  0  0  0  0
 16 17  1  0  0  0  0
 16 13  1  0  0  0  0
 20 24  1  0  0  0  0
 21 25  1  0  0  0  0
 23 21  2  0  0  0  0
 23 26  1  0  0  0  0
 24 22  1  0  0  0  0
 25 24  2  0  0  0  0
 26 20  2  0  0  0  0
 27 29  1  0  0  0  0
 27 28  1  1  0  0  0
 30 29  1  0  0  0  0
 31 30  1  0  0  0  0
 32 31  1  1  0  0  0
 35 33  1  0  0  0  0
 36 34  1  6  0  0  0
 36 32  1  0  0  0  0
 37 42  1  6  0  0  0
 37 40  1  0  0  0  0
 37 39  1  0  0  0  0
 38 33  1  1  0  0  0
 38 36  1  0  0  0  0
 38 32  1  0  0  0  0
 39 38  1  0  0  0  0
 40 35  1  0  0  0  0
 42 41  1  6  0  0  0
 44 43  1  6  0  0  0
 44 42  1  0  0  0  0
 45 49  1  0  0  0  0
 46 45  2  0  0  0  0
 46 48  1  0  0  0  0
 47 50  1  0  0  0  0
 48 47  2  0  0  0  0
 49 50  2  0  0  0  0
 49 44  1  0  0  0  0
M  END
>  <MODEL>
2

>  <REMARK>
 VINA RESULT:      -8.2      3.749      8.500
  Name = 
  10 active torsions:
  status: ('A' for Active; 'I' for Inactive)
    1  A    between atoms: C_1  and  C_12
    2  A    between atoms: C_6  and  C_35
    3  A    between atoms: C_12  and  C_24
    4  A    between atoms: C_16  and  C_28
    5  A    between atoms: C_16  and  C_32
    6  A    between atoms: C_17  and  C_28
    7  A    between atoms: C_18  and  C_27
    8  A    between atoms: C_18  and  C_50
    9  A    between atoms: C_24  and  C_50
   10  A    between atoms: C_25  and  C_42
                            x       y       z     vdW  Elec       q    Type
                         _______ _______ _______ _____ _____    ______ ____

>  <TORSDO>
F 10

$$$$
=
 OpenBabel11062419183D

 50 56  0  0  1  0  0  0  0  0999 V2000
  190.9620  176.7590  143.5710 C   0  0  0  0  0  0  0  0  0  0  0  0
  189.4660  176.8130  145.4690 C   0  0  0  0  0  3  0  0  0  0  0  0
  188.6970  177.6270  143.3130 C   0  0  0  0  0  0  0  0  0  0  0  0
  192.1840  176.4970  142.9710 O   0  0  0  0  0  1  0  0  0  0  0  0
  189.9460  177.2860  142.7860 C   0  0  0  0  0  3  0  0  0  0  0  0
  188.4510  177.3970  144.6970 C   0  0  0  0  0  0  0  0  0  0  0  0
  190.7230  176.4990  144.9380 C   0  0  0  0  0  0  0  0  0  0  0  0
  181.9980  177.5440  140.3750 O   0  0  0  0  0  0  0  0  0  0  0  0
  186.5190  177.0700  142.0230 C   0  0  1  0  0  3  0  0  0  0  0  0
  187.3010  178.1100  140.1160 O   0  0  0  0  0  0  0  0  0  0  0  0
  188.3020  178.2810  140.9990 O   0  0  0  0  0  0  0  0  0  0  0  0
  184.4510  177.8480  141.8960 C   0  0  0  0  0  0  0  0  0  0  0  0
  183.1360  178.2460  142.2820 N   0  0  0  0  0  2  0  0  0  0  0  0
  187.6900  178.0040  142.2590 C   0  0  2  0  0  3  0  0  0  0  0  0
  184.9870  178.0580  140.5960 N   0  0  0  0  0  0  0  0  0  0  0  0
  182.0150  178.2680  141.3970 C   0  0  0  0  0  0  0  0  0  0  0  0
  180.8690  179.1810  141.6580 C   0  0  0  0  0  1  0  0  0  0  0  0
  185.3080  177.3860  142.7640 N   0  0  0  0  0  0  0  0  0  0  0  0
  186.1910  177.6030  140.7290 C   0  0  0  0  0  0  0  0  0  0  0  0
  185.3600  179.3340  145.6640 C   0  0  0  0  0  3  0  0  0  0  0  0
  186.3850  176.7520  145.9430 C   0  0  0  0  0  3  0  0  0  0  0  0
  183.2330  178.5840  146.5050 O   0  0  0  0  0  1  0  0  0  0  0  0
  187.2060  177.7610  145.4090 C   0  0  0  0  0  0  0  0  0  0  0  0
  184.5430  178.3110  146.1340 C   0  0  0  0  0  0  0  0  0  0  0  0
  185.0710  177.0330  146.3330 C   0  0  0  0  0  3  0  0  0  0  0  0
  186.6730  179.0530  145.2780 C   0  0  0  0  0  3  0  0  0  0  0  0
  191.6790  175.7140  145.8110 C   0  0  1  0  0  3  0  0  0  0  0  0
  192.0210  176.3760  146.9950 O   0  0  0  0  0  1  0  0  0  0  0  0
  191.2290  174.2930  146.1300 C   0  0  0  0  0  2  0  0  0  0  0  0
  191.4700  173.4670  144.8800 C   0  0  0  0  0  2  0  0  0  0  0  0
  190.1980  172.8420  144.3280 C   0  0  0  0  0  2  0  0  0  0  0  0
  189.6510  173.5970  143.1120 C   0  0  2  0  0  3  0  0  0  0  0  0
  190.8880  171.7120  141.6990 C   0  0  0  0  0  2  0  0  0  0  0  0
  187.6340  173.5540  141.9000 F   0  0  0  0  0  0  0  0  0  0  0  0
  191.9710  171.9910  140.6580 C   0  0  0  0  0  2  0  0  0  0  0  0
  188.6070  172.7190  142.4270 C   0  0  1  0  0  3  0  0  0  0  0  0
  189.9350  173.0040  139.4860 C   0  0  2  0  0  3  0  0  0  0  0  0
  189.9500  172.9400  141.7640 C   0  0  1  0  0  0  0  0  0  0  0  0
  189.8930  173.8120  140.6510 O   0  0  0  0  0  0  0  0  0  0  0  0
  191.3500  172.4210  139.3140 C   0  0  0  0  0  2  0  0  0  0  0  0
  188.1690  173.5090  137.9370 O   0  0  0  0  0  1  0  0  0  0  0  0
  189.5120  173.7750  138.2370 C   0  0  2  0  0  3  0  0  0  0  0  0
  189.5720  172.6280  135.9880 C   0  0  0  0  0  1  0  0  0  0  0  0
  190.3910  173.3820  137.0340 C   0  0  1  0  0  3  0  0  0  0  0  0
  192.3260  174.9770  136.8730 C   0  0  0  0  0  3  0  0  0  0  0  0
  192.9140  176.0970  136.2810 C   0  0  0  0  0  3  0  0  0  0  0  0
  191.0540  176.3390  134.8430 C   0  0  0  0  0  3  0  0  0  0  0  0
  192.2720  176.7470  135.2690 N   0  0  0  0  0  0  0  0  0  0  0  0
  191.0670  174.5570  136.4080 C   0  0  0  0  0  0  0  0  0  0  0  0
  190.4520  175.2600  135.4140 N   0  0  0  0  0  0  0  0  0  0  0  0
  1  7  1  0  0  0  0
  3  6  2  0  0  0  0
  4  1  1  0  0  0  0
  5  3  1  0  0  0  0
  5  1  2  0  0  0  0
  6 23  1  0  0  0  0
  6  2  1  0  0  0  0
  7  2  2  0  0  0  0
  7 27  1  0  0  0  0
  8 16  2  0  0  0  0
  9 19  1  6  0  0  0
  9 14  1  0  0  0  0
  9 18  1  0  0  0  0
 10 19  1  0  0  0  0
 10 11  1  0  0  0  0
 11 14  1  0  0  0  0
 12 13  1  0  0  0  0
 12 18  2  0  0  0  0
 14  3  1  1  0  0  0
 15 19  2  0  0  0  0
 15 12  1  0  0  0  0
 16 17  1  0  0  0  0
 16 13  1  0  0  0  0
 20 24  1  0  0  0  0
 21 25  1  0  0  0  0
 23 21  2  0  0  0  0
 24 25  2  0  0  0  0
 24 22  1  0  0  0  0
 26 23  1  0  0  0  0
 26 20  2  0  0  0  0
 27 29  1  0  0  0  0
 27 28  1  1  0  0  0
 30 29  1  0  0  0  0
 31 30  1  0  0  0  0
 32 31  1  1  0  0  0
 35 33  1  0  0  0  0
 36 34  1  6  0  0  0
 36 32  1  0  0  0  0
 37 42  1  6  0  0  0
 37 39  1  0  0  0  0
 38 33  1  6  0  0  0
 38 36  1  0  0  0  0
 38 32  1  0  0  0  0
 39 38  1  0  0  0  0
 40 37  1  0  0  0  0
 40 35  1  0  0  0  0
 42 41  1  6  0  0  0
 44 43  1  6  0  0  0
 44 42  1  0  0  0  0
 46 45  2  0  0  0  0
 47 48  2  0  0  0  0
 47 50  1  0  0  0  0
 48 46  1  0  0  0  0
 49 45  1  0  0  0  0
 49 44  1  0  0  0  0
 50 49  2  0  0  0  0
M  END
>  <MODEL>
3

>  <REMARK>
 VINA RESULT:      -7.8      3.567      8.609
  Name = 
  10 active torsions:
  status: ('A' for Active; 'I' for Inactive)
    1  A    between atoms: C_1  and  C_12
    2  A    between atoms: C_6  and  C_35
    3  A    between atoms: C_12  and  C_24
    4  A    between atoms: C_16  and  C_28
    5  A    between atoms: C_16  and  C_32
    6  A    between atoms: C_17  and  C_28
    7  A    between atoms: C_18  and  C_27
    8  A    between atoms: C_18  and  C_50
    9  A    between atoms: C_24  and  C_50
   10  A    between atoms: C_25  and  C_42
                            x       y       z     vdW  Elec       q    Type
                         _______ _______ _______ _____ _____    ______ ____

>  <TORSDO>
F 10

$$$$
=
 OpenBabel11062419183D

 50 56  0  0  1  0  0  0  0  0999 V2000
  188.6440  173.8560  139.4540 C   0  0  0  0  0  0  0  0  0  0  0  0
  189.9980  173.4320  141.4110 C   0  0  0  0  0  3  0  0  0  0  0  0
  188.6290  175.4370  141.3120 C   0  0  0  0  0  0  0  0  0  0  0  0
  188.1780  173.5450  138.1860 O   0  0  0  0  0  1  0  0  0  0  0  0
  188.1780  175.0170  140.0570 C   0  0  0  0  0  3  0  0  0  0  0  0
  189.5760  174.6310  142.0060 C   0  0  0  0  0  0  0  0  0  0  0  0
  189.5620  173.0330  140.1420 C   0  0  0  0  0  0  0  0  0  0  0  0
  184.4530  178.7330  146.3340 O   0  0  0  0  0  0  0  0  0  0  0  0
  186.6910  176.3360  142.7810 C   0  0  1  0  0  3  0  0  0  0  0  0
  186.3910  178.1550  141.3920 O   0  0  0  0  0  0  0  0  0  0  0  0
  187.4160  177.4940  140.8230 O   0  0  0  0  0  0  0  0  0  0  0  0
  186.4610  177.4400  144.6850 C   0  0  0  0  0  0  0  0  0  0  0  0
  186.5570  177.7700  146.0700 N   0  0  0  0  0  2  0  0  0  0  0  0
  187.8600  176.6130  141.8560 C   0  0  2  0  0  3  0  0  0  0  0  0
  185.9190  178.3140  143.7030 N   0  0  0  0  0  0  0  0  0  0  0  0
  185.6230  178.6020  146.7600 C   0  0  0  0  0  0  0  0  0  0  0  0
  186.0400  179.3530  147.9750 C   0  0  0  0  0  1  0  0  0  0  0  0
  187.0000  176.3550  144.2010 N   0  0  0  0  0  0  0  0  0  0  0  0
  186.0910  177.6320  142.6170 C   0  0  0  0  0  0  0  0  0  0  0  0
  191.3860  176.6160  144.6560 C   0  0  0  0  0  3  0  0  0  0  0  0
  189.6720  174.4170  144.4930 C   0  0  0  0  0  3  0  0  0  0  0  0
  191.1400  176.6330  147.0510 O   0  0  0  0  0  1  0  0  0  0  0  0
  190.1880  174.9730  143.3080 C   0  0  0  0  0  0  0  0  0  0  0  0
  190.8190  176.0910  145.8130 C   0  0  0  0  0  0  0  0  0  0  0  0
  190.0120  174.9530  145.7400 C   0  0  0  0  0  3  0  0  0  0  0  0
  191.0490  176.0780  143.4120 C   0  0  0  0  0  3  0  0  0  0  0  0
  189.9410  171.6440  139.6740 C   0  0  1  0  0  3  0  0  0  0  0  0
  190.8290  171.6460  138.5930 O   0  0  0  0  0  1  0  0  0  0  0  0
  190.4680  170.7240  140.7680 C   0  0  0  0  0  2  0  0  0  0  0  0
  191.4190  169.7500  140.1000 C   0  0  0  0  0  2  0  0  0  0  0  0
  192.4620  169.1890  141.0540 C   0  0  0  0  0  2  0  0  0  0  0  0
  193.5780  170.1910  141.3630 C   0  0  2  0  0  3  0  0  0  0  0  0
  192.3920  170.4000  143.7360 C   0  0  0  0  0  2  0  0  0  0  0  0
  195.7780  170.0280  142.1820 F   0  0  0  0  0  0  0  0  0  0  0  0
  191.8510  171.7070  144.3130 C   0  0  0  0  0  2  0  0  0  0  0  0
  194.4870  169.5900  142.4310 C   0  0  1  0  0  3  0  0  0  0  0  0
  194.3610  172.1920  144.3580 C   0  0  2  0  0  3  0  0  0  0  0  0
  193.5690  170.7380  142.7910 C   0  0  1  0  0  0  0  0  0  0  0  0
  194.2460  171.9700  142.9620 O   0  0  0  0  0  0  0  0  0  0  0  0
  192.9810  172.5470  144.9390 C   0  0  0  0  0  2  0  0  0  0  0  0
  195.9280  173.0670  145.9560 O   0  0  0  0  0  1  0  0  0  0  0  0
  195.3830  173.2800  144.6830 C   0  0  2  0  0  3  0  0  0  0  0  0
  194.9740  175.4340  145.9350 C   0  0  0  0  0  1  0  0  0  0  0  0
  194.7240  174.6720  144.6350 C   0  0  1  0  0  3  0  0  0  0  0  0
  194.3410  175.6490  142.3520 C   0  0  0  0  0  3  0  0  0  0  0  0
  194.8140  176.3920  141.2680 C   0  0  0  0  0  3  0  0  0  0  0  0
  196.8590  176.7670  142.3900 C   0  0  0  0  0  3  0  0  0  0  0  0
  196.0570  176.9480  141.3150 N   0  0  0  0  0  0  0  0  0  0  0  0
  195.1800  175.4840  143.4680 C   0  0  0  0  0  0  0  0  0  0  0  0
  196.4290  176.0340  143.4530 N   0  0  0  0  0  0  0  0  0  0  0  0
  1  5  2  0  0  0  0
  1  7  1  0  0  0  0
  2  6  1  0  0  0  0
  3  6  2  0  0  0  0
  4  1  1  0  0  0  0
  5  3  1  0  0  0  0
  6 23  1  0  0  0  0
  7  2  2  0  0  0  0
  8 16  2  0  0  0  0
  9 19  1  1  0  0  0
  9 18  1  0  0  0  0
 10 19  1  0  0  0  0
 11 10  1  0  0  0  0
 11 14  1  0  0  0  0
 12 13  1  0  0  0  0
 13 16  1  0  0  0  0
 14  3  1  6  0  0  0
 14  9  1  0  0  0  0
 15 12  1  0  0  0  0
 16 17  1  0  0  0  0
 18 12  2  0  0  0  0
 19 15  2  0  0  0  0
 20 24  1  0  0  0  0
 21 25  1  0  0  0  0
 23 26  1  0  0  0  0
 23 21  2  0  0  0  0
 24 22  1  0  0  0  0
 25 24  2  0  0  0  0
 26 20  2  0  0  0  0
 27 28  1  6  0  0  0
 27  7  1  0  0  0  0
 27 29  1  0  0  0  0
 30 29  1  0  0  0  0
 30 31  1  0  0  0  0
 32 31  1  1  0  0  0
 32 36  1  0  0  0  0
 32 38  1  0  0  0  0
 33 35  1  0  0  0  0
 35 40  1  0  0  0  0
 36 34  1  6  0  0  0
 36 38  1  0  0  0  0
 37 42  1  6  0  0  0
 37 40  1  0  0  0  0
 38 39  1  0  0  0  0
 38 33  1  1  0  0  0
 39 37  1  0  0  0  0
 42 41  1  1  0  0  0
 44 42  1  0  0  0  0
 44 43  1  1  0  0  0
 45 49  1  0  0  0  0
 46 48  1  0  0  0  0
 46 45  2  0  0  0  0
 47 50  1  0  0  0  0
 48 47  2  0  0  0  0
 49 44  1  0  0  0  0
 50 49  2  0  0  0  0
M  END
>  <MODEL>
4

>  <REMARK>
 VINA RESULT:      -7.7      2.849      7.517
  Name = 
  10 active torsions:
  status: ('A' for Active; 'I' for Inactive)
    1  A    between atoms: C_1  and  C_12
    2  A    between atoms: C_6  and  C_35
    3  A    between atoms: C_12  and  C_24
    4  A    between atoms: C_16  and  C_28
    5  A    between atoms: C_16  and  C_32
    6  A    between atoms: C_17  and  C_28
    7  A    between atoms: C_18  and  C_27
    8  A    between atoms: C_18  and  C_50
    9  A    between atoms: C_24  and  C_50
   10  A    between atoms: C_25  and  C_42
                            x       y       z     vdW  Elec       q    Type
                         _______ _______ _______ _____ _____    ______ ____

>  <TORSDO>
F 10

$$$$
=
 OpenBabel11062419183D

 50 56  0  0  1  0  0  0  0  0999 V2000
  191.9000  176.5300  147.2470 C   0  0  0  0  0  0  0  0  0  0  0  0
  192.1330  175.3920  145.1270 C   0  0  0  0  0  3  0  0  0  0  0  0
  189.9150  175.8390  146.0100 C   0  0  0  0  0  0  0  0  0  0  0  0
  192.4120  177.1270  148.3890 O   0  0  0  0  0  1  0  0  0  0  0  0
  190.5210  176.4660  147.1020 C   0  0  0  0  0  3  0  0  0  0  0  0
  190.7410  175.2740  144.9970 C   0  0  0  0  0  0  0  0  0  0  0  0
  192.7320  175.9980  146.2380 C   0  0  0  0  0  0  0  0  0  0  0  0
  183.8810  179.1590  143.5380 O   0  0  0  0  0  0  0  0  0  0  0  0
  187.9070  177.4220  145.5770 C   0  0  1  0  0  3  0  0  0  0  0  0
  186.6160  176.3260  147.1450 O   0  0  0  0  0  0  0  0  0  0  0  0
  187.7780  175.6470  147.1670 O   0  0  0  0  0  0  0  0  0  0  0  0
  186.3100  177.6580  144.0640 C   0  0  0  0  0  0  0  0  0  0  0  0
  185.6640  177.8510  142.8060 N   0  0  0  0  0  2  0  0  0  0  0  0
  188.4240  176.0480  145.9580 C   0  0  2  0  0  3  0  0  0  0  0  0
  185.6150  177.3540  145.2670 N   0  0  0  0  0  0  0  0  0  0  0  0
  184.3590  178.4110  142.6550 C   0  0  0  0  0  0  0  0  0  0  0  0
  183.5340  178.0810  141.4610 C   0  0  0  0  0  1  0  0  0  0  0  0
  187.6090  177.6090  144.1660 N   0  0  0  0  0  0  0  0  0  0  0  0
  186.5880  177.2130  146.1080 C   0  0  0  0  0  0  0  0  0  0  0  0
  189.0980  172.5580  142.9560 C   0  0  0  0  0  3  0  0  0  0  0  0
  189.8650  175.2270  142.6590 C   0  0  0  0  0  3  0  0  0  0  0  0
  187.9130  172.6620  140.8630 O   0  0  0  0  0  1  0  0  0  0  0  0
  190.2480  174.5290  143.8180 C   0  0  0  0  0  0  0  0  0  0  0  0
  188.6770  173.2810  141.8440 C   0  0  0  0  0  0  0  0  0  0  0  0
  189.1110  174.5960  141.6630 C   0  0  0  0  0  3  0  0  0  0  0  0
  189.8540  173.1870  143.9480 C   0  0  0  0  0  3  0  0  0  0  0  0
  194.2280  176.2280  146.1910 C   0  0  1  0  0  3  0  0  0  0  0  0
  194.9740  175.0470  146.2700 O   0  0  0  0  0  1  0  0  0  0  0  0
  194.7080  177.0590  145.0080 C   0  0  0  0  0  2  0  0  0  0  0  0
  195.8090  176.2620  144.3320 C   0  0  0  0  0  2  0  0  0  0  0  0
  195.8670  176.4880  142.8290 C   0  0  0  0  0  2  0  0  0  0  0  0
  194.6210  175.9690  142.1070 C   0  0  2  0  0  3  0  0  0  0  0  0
  196.3620  174.8190  140.4550 C   0  0  0  0  0  2  0  0  0  0  0  0
  193.2160  174.0960  142.3530 F   0  0  0  0  0  0  0  0  0  0  0  0
  196.4170  175.0770  138.9510 C   0  0  0  0  0  2  0  0  0  0  0  0
  194.5530  174.4540  142.2840 C   0  0  1  0  0  3  0  0  0  0  0  0
  194.1800  173.8500  139.1230 C   0  0  2  0  0  3  0  0  0  0  0  0
  194.9060  175.0340  140.9310 C   0  0  1  0  0  0  0  0  0  0  0  0
  193.8590  174.9310  139.9830 O   0  0  0  0  0  0  0  0  0  0  0  0
  195.3500  174.2510  138.2070 C   0  0  0  0  0  2  0  0  0  0  0  0
  192.7530  174.2870  137.2390 O   0  0  0  0  0  1  0  0  0  0  0  0
  192.9760  173.3970  138.2980 C   0  0  2  0  0  3  0  0  0  0  0  0
  190.4720  173.7070  138.3770 C   0  0  0  0  0  1  0  0  0  0  0  0
  191.7150  173.3220  139.1780 C   0  0  1  0  0  3  0  0  0  0  0  0
  190.7250  171.0120  139.1710 C   0  0  0  0  0  3  0  0  0  0  0  0
  190.5510  169.7770  139.7990 C   0  0  0  0  0  3  0  0  0  0  0  0
  191.9210  170.4750  141.5940 C   0  0  0  0  0  3  0  0  0  0  0  0
  191.1640  169.5280  140.9910 N   0  0  0  0  0  0  0  0  0  0  0  0
  191.5280  171.9780  139.8030 C   0  0  0  0  0  0  0  0  0  0  0  0
  192.0930  171.6920  141.0110 N   0  0  0  0  0  0  0  0  0  0  0  0
  1  4  1  0  0  0  0
  2  7  1  0  0  0  0
  3  5  2  0  0  0  0
  5  1  1  0  0  0  0
  6  2  2  0  0  0  0
  6  3  1  0  0  0  0
  7  1  2  0  0  0  0
  9 18  1  6  0  0  0
  9 14  1  0  0  0  0
  9 19  1  0  0  0  0
 10 11  1  0  0  0  0
 12 18  2  0  0  0  0
 12 15  1  0  0  0  0
 13 12  1  0  0  0  0
 14  3  1  1  0  0  0
 14 11  1  0  0  0  0
 15 19  2  0  0  0  0
 16 13  1  0  0  0  0
 16  8  2  0  0  0  0
 17 16  1  0  0  0  0
 19 10  1  0  0  0  0
 20 26  1  0  0  0  0
 21 23  1  0  0  0  0
 22 24  1  0  0  0  0
 23 26  2  0  0  0  0
 23  6  1  0  0  0  0
 24 20  2  0  0  0  0
 25 24  1  0  0  0  0
 25 21  2  0  0  0  0
 27  7  1  0  0  0  0
 27 28  1  6  0  0  0
 29 27  1  0  0  0  0
 30 29  1  0  0  0  0
 31 30  1  0  0  0  0
 32 36  1  0  0  0  0
 32 31  1  1  0  0  0
 35 33  1  0  0  0  0
 36 34  1  6  0  0  0
 37 42  1  6  0  0  0
 37 39  1  0  0  0  0
 38 33  1  6  0  0  0
 38 32  1  0  0  0  0
 38 36  1  0  0  0  0
 39 38  1  0  0  0  0
 40 35  1  0  0  0  0
 40 37  1  0  0  0  0
 42 41  1  6  0  0  0
 42 44  1  0  0  0  0
 44 43  1  6  0  0  0
 44 49  1  0  0  0  0
 45 46  2  0  0  0  0
 45 49  1  0  0  0  0
 46 48  1  0  0  0  0
 48 47  2  0  0  0  0
 49 50  2  0  0  0  0
 50 47  1  0  0  0  0
M  END
>  <MODEL>
5

>  <REMARK>
 VINA RESULT:      -7.4      2.546      6.835
  Name = 
  10 active torsions:
  status: ('A' for Active; 'I' for Inactive)
    1  A    between atoms: C_1  and  C_12
    2  A    between atoms: C_6  and  C_35
    3  A    between atoms: C_12  and  C_24
    4  A    between atoms: C_16  and  C_28
    5  A    between atoms: C_16  and  C_32
    6  A    between atoms: C_17  and  C_28
    7  A    between atoms: C_18  and  C_27
    8  A    between atoms: C_18  and  C_50
    9  A    between atoms: C_24  and  C_50
   10  A    between atoms: C_25  and  C_42
                            x       y       z     vdW  Elec       q    Type
                         _______ _______ _______ _____ _____    ______ ____

>  <TORSDO>
F 10

$$$$
=
 OpenBabel11062419183D

 50 56  0  0  1  0  0  0  0  0999 V2000
  189.4950  177.4060  146.3510 C   0  0  0  0  0  0  0  0  0  0  0  0
  190.4410  175.5540  145.1180 C   0  0  0  0  0  3  0  0  0  0  0  0
  188.7070  176.9130  144.0960 C   0  0  0  0  0  0  0  0  0  0  0  0
  189.3780  178.2060  147.4770 O   0  0  0  0  0  1  0  0  0  0  0  0
  188.6930  177.6940  145.2550 C   0  0  0  0  0  3  0  0  0  0  0  0
  189.5960  175.8020  144.0260 C   0  0  0  0  0  0  0  0  0  0  0  0
  190.4020  176.3250  146.2860 C   0  0  0  0  0  0  0  0  0  0  0  0
  182.5770  177.7250  140.1850 O   0  0  0  0  0  0  0  0  0  0  0  0
  186.7430  176.7020  142.4160 C   0  0  1  0  0  3  0  0  0  0  0  0
  187.8720  177.9470  140.8340 O   0  0  0  0  0  0  0  0  0  0  0  0
  188.7240  177.9190  141.8760 O   0  0  0  0  0  0  0  0  0  0  0  0
  184.7620  177.6340  142.0940 C   0  0  0  0  0  0  0  0  0  0  0  0
  183.4210  178.0630  142.3290 N   0  0  0  0  0  2  0  0  0  0  0  0
  187.9020  177.5080  142.9700 C   0  0  2  0  0  3  0  0  0  0  0  0
  185.5110  177.9900  140.9390 N   0  0  0  0  0  0  0  0  0  0  0  0
  182.4610  178.2910  141.2960 C   0  0  0  0  0  0  0  0  0  0  0  0
  181.3320  179.2360  141.5150 C   0  0  0  0  0  1  0  0  0  0  0  0
  185.4440  176.9920  143.0020 N   0  0  0  0  0  0  0  0  0  0  0  0
  186.6550  177.4370  141.1840 C   0  0  0  0  0  0  0  0  0  0  0  0
  191.0570  173.8230  141.1660 C   0  0  0  0  0  3  0  0  0  0  0  0
  188.8460  173.7210  142.8690 C   0  0  0  0  0  3  0  0  0  0  0  0
  190.5310  171.6210  140.3460 O   0  0  0  0  0  1  0  0  0  0  0  0
  189.6800  174.8520  142.8960 C   0  0  0  0  0  0  0  0  0  0  0  0
  190.2560  172.6850  141.1950 C   0  0  0  0  0  0  0  0  0  0  0  0
  189.1150  172.6570  142.0000 C   0  0  0  0  0  3  0  0  0  0  0  0
  190.7870  174.8850  142.0310 C   0  0  0  0  0  3  0  0  0  0  0  0
  191.4740  176.0810  147.3260 C   0  0  1  0  0  3  0  0  0  0  0  0
  191.0580  175.2440  148.3670 O   0  0  0  0  0  1  0  0  0  0  0  0
  192.8020  175.5830  146.7680 C   0  0  0  0  0  2  0  0  0  0  0  0
  193.7270  176.7830  146.7030 C   0  0  0  0  0  2  0  0  0  0  0  0
  194.6490  176.7570  145.4930 C   0  0  0  0  0  2  0  0  0  0  0  0
  194.4660  175.4980  144.6410 C   0  0  2  0  0  3  0  0  0  0  0  0
  196.5050  176.4610  143.2280 C   0  0  0  0  0  2  0  0  0  0  0  0
  195.2510  173.2820  144.7590 F   0  0  0  0  0  0  0  0  0  0  0  0
  196.4410  176.7790  141.7350 C   0  0  0  0  0  2  0  0  0  0  0  0
  195.6820  174.5970  144.8400 C   0  0  1  0  0  3  0  0  0  0  0  0
  196.2410  174.2310  141.6690 C   0  0  2  0  0  3  0  0  0  0  0  0
  195.4980  175.3250  143.5250 C   0  0  1  0  0  0  0  0  0  0  0  0
  195.0930  174.4810  142.4640 O   0  0  0  0  0  0  0  0  0  0  0  0
  196.6140  175.5040  140.8880 C   0  0  0  0  0  2  0  0  0  0  0  0
  196.7280  173.2710  139.5200 O   0  0  0  0  0  1  0  0  0  0  0  0
  196.0350  173.0520  140.7190 C   0  0  2  0  0  3  0  0  0  0  0  0
  194.2530  173.0750  138.9300 C   0  0  0  0  0  1  0  0  0  0  0  0
  194.5370  172.8580  140.4150 C   0  0  1  0  0  3  0  0  0  0  0  0
  193.6120  171.3150  142.1690 C   0  0  0  0  0  3  0  0  0  0  0  0
  193.1740  170.0410  142.5400 C   0  0  0  0  0  3  0  0  0  0  0  0
  193.5730  169.2450  140.3510 C   0  0  0  0  0  3  0  0  0  0  0  0
  193.1500  169.0360  141.6190 N   0  0  0  0  0  0  0  0  0  0  0  0
  194.0330  171.5190  140.8440 C   0  0  0  0  0  0  0  0  0  0  0  0
  194.0200  170.4720  139.9690 N   0  0  0  0  0  0  0  0  0  0  0  0
  1  4  1  0  0  0  0
  2  7  2  0  0  0  0
  3  5  1  0  0  0  0
  5  1  2  0  0  0  0
  6  3  2  0  0  0  0
  6  2  1  0  0  0  0
  7  1  1  0  0  0  0
  7 27  1  0  0  0  0
  8 16  2  0  0  0  0
  9 19  1  6  0  0  0
  9 14  1  0  0  0  0
  9 18  1  0  0  0  0
 10 19  1  0  0  0  0
 10 11  1  0  0  0  0
 11 14  1  0  0  0  0
 12 13  1  0  0  0  0
 12 18  2  0  0  0  0
 14  3  1  1  0  0  0
 15 19  2  0  0  0  0
 15 12  1  0  0  0  0
 16 17  1  0  0  0  0
 16 13  1  0  0  0  0
 20 24  2  0  0  0  0
 20 26  1  0  0  0  0
 21 23  1  0  0  0  0
 22 24  1  0  0  0  0
 23  6  1  0  0  0  0
 24 25  1  0  0  0  0
 25 21  2  0  0  0  0
 26 23  2  0  0  0  0
 27 28  1  1  0  0  0
 29 27  1  0  0  0  0
 30 29  1  0  0  0  0
 31 30  1  0  0  0  0
 32 36  1  0  0  0  0
 32 31  1  1  0  0  0
 35 33  1  0  0  0  0
 36 34  1  6  0  0  0
 37 42  1  6  0  0  0
 37 39  1  0  0  0  0
 38 33  1  6  0  0  0
 38 32  1  0  0  0  0
 38 36  1  0  0  0  0
 39 38  1  0  0  0  0
 40 37  1  0  0  0  0
 40 35  1  0  0  0  0
 42 41  1  6  0  0  0
 44 43  1  6  0  0  0
 44 42  1  0  0  0  0
 44 49  1  0  0  0  0
 45 46  1  0  0  0  0
 47 48  1  0  0  0  0
 48 46  2  0  0  0  0
 49 45  2  0  0  0  0
 50 47  2  0  0  0  0
 50 49  1  0  0  0  0
M  END
>  <MODEL>
6

>  <REMARK>
 VINA RESULT:      -7.4      2.762      7.247
  Name = 
  10 active torsions:
  status: ('A' for Active; 'I' for Inactive)
    1  A    between atoms: C_1  and  C_12
    2  A    between atoms: C_6  and  C_35
    3  A    between atoms: C_12  and  C_24
    4  A    between atoms: C_16  and  C_28
    5  A    between atoms: C_16  and  C_32
    6  A    between atoms: C_17  and  C_28
    7  A    between atoms: C_18  and  C_27
    8  A    between atoms: C_18  and  C_50
    9  A    between atoms: C_24  and  C_50
   10  A    between atoms: C_25  and  C_42
                            x       y       z     vdW  Elec       q    Type
                         _______ _______ _______ _____ _____    ______ ____

>  <TORSDO>
F 10

$$$$
=
 OpenBabel11062419183D

 50 56  0  0  1  0  0  0  0  0999 V2000
  188.4360  174.2730  139.1280 C   0  0  0  0  0  0  0  0  0  0  0  0
  189.8010  173.8710  141.0820 C   0  0  0  0  0  3  0  0  0  0  0  0
  188.1950  175.6920  141.0970 C   0  0  0  0  0  0  0  0  0  0  0  0
  188.0310  174.0040  137.8290 O   0  0  0  0  0  1  0  0  0  0  0  0
  187.8190  175.3170  139.8040 C   0  0  0  0  0  3  0  0  0  0  0  0
  189.2240  174.9590  141.7530 C   0  0  0  0  0  0  0  0  0  0  0  0
  189.4380  173.5180  139.7760 C   0  0  0  0  0  0  0  0  0  0  0  0
  184.0680  178.3380  146.5280 O   0  0  0  0  0  0  0  0  0  0  0  0
  186.3040  176.2630  142.7760 C   0  0  1  0  0  3  0  0  0  0  0  0
  185.4850  177.9230  141.3970 O   0  0  0  0  0  0  0  0  0  0  0  0
  186.5470  177.4490  140.7190 O   0  0  0  0  0  0  0  0  0  0  0  0
  186.0850  177.3870  144.6700 C   0  0  0  0  0  0  0  0  0  0  0  0
  186.2760  177.7930  146.0250 N   0  0  0  0  0  2  0  0  0  0  0  0
  187.2770  176.7200  141.7070 C   0  0  2  0  0  3  0  0  0  0  0  0
  185.2680  178.0930  143.7440 N   0  0  0  0  0  0  0  0  0  0  0  0
  185.2830  178.4570  146.8080 C   0  0  0  0  0  0  0  0  0  0  0  0
  185.6830  179.3310  147.9450 C   0  0  0  0  0  1  0  0  0  0  0  0
  186.7680  176.4070  144.1460 N   0  0  0  0  0  0  0  0  0  0  0  0
  185.4420  177.4080  142.6610 C   0  0  0  0  0  0  0  0  0  0  0  0
  190.3680  176.9830  144.7250 C   0  0  0  0  0  3  0  0  0  0  0  0
  189.6000  174.3610  144.1480 C   0  0  0  0  0  3  0  0  0  0  0  0
  190.3340  176.4790  147.0790 O   0  0  0  0  0  1  0  0  0  0  0  0
  189.7680  175.2730  143.0920 C   0  0  0  0  0  0  0  0  0  0  0  0
  190.1380  176.0840  145.7620 C   0  0  0  0  0  0  0  0  0  0  0  0
  189.8150  174.7560  145.4730 C   0  0  0  0  0  3  0  0  0  0  0  0
  190.1560  176.5880  143.4030 C   0  0  0  0  0  3  0  0  0  0  0  0
  189.9950  172.2270  139.2160 C   0  0  1  0  0  3  0  0  0  0  0  0
  189.0180  171.2480  139.0030 O   0  0  0  0  0  1  0  0  0  0  0  0
  190.8400  172.3900  137.9590 C   0  0  0  0  0  2  0  0  0  0  0  0
  191.7520  173.5790  138.1960 C   0  0  0  0  0  2  0  0  0  0  0  0
  193.0530  173.2000  138.8870 C   0  0  0  0  0  2  0  0  0  0  0  0
  193.3210  174.0420  140.1380 C   0  0  2  0  0  3  0  0  0  0  0  0
  193.0600  171.7360  141.4410 C   0  0  0  0  0  2  0  0  0  0  0  0
  195.2540  174.7660  141.2700 F   0  0  0  0  0  0  0  0  0  0  0  0
  192.0300  171.4820  142.5390 C   0  0  0  0  0  2  0  0  0  0  0  0
  194.6760  173.6360  140.7140 C   0  0  1  0  0  3  0  0  0  0  0  0
  193.5440  173.1760  143.7140 C   0  0  2  0  0  3  0  0  0  0  0  0
  193.4070  173.2440  141.4400 C   0  0  1  0  0  0  0  0  0  0  0  0
  193.1750  173.9950  142.6160 O   0  0  0  0  0  0  0  0  0  0  0  0
  192.5060  172.0520  143.8890 C   0  0  0  0  0  2  0  0  0  0  0  0
  193.2590  175.2970  144.8080 O   0  0  0  0  0  1  0  0  0  0  0  0
  193.6950  173.9800  145.0050 C   0  0  2  0  0  3  0  0  0  0  0  0
  195.6810  172.5680  145.6640 C   0  0  0  0  0  1  0  0  0  0  0  0
  195.1650  173.9920  145.4650 C   0  0  1  0  0  3  0  0  0  0  0  0
  197.1120  174.0670  143.8770 C   0  0  0  0  0  3  0  0  0  0  0  0
  197.9410  174.8000  143.0260 C   0  0  0  0  0  3  0  0  0  0  0  0
  196.6980  176.7600  143.4710 C   0  0  0  0  0  3  0  0  0  0  0  0
  197.7080  176.1290  142.8290 N   0  0  0  0  0  0  0  0  0  0  0  0
  196.0570  174.7340  144.5230 C   0  0  0  0  0  0  0  0  0  0  0  0
  195.8850  176.0720  144.3180 N   0  0  0  0  0  0  0  0  0  0  0  0
  1  7  2  0  0  0  0
  1  5  1  0  0  0  0
  2  6  2  0  0  0  0
  3  6  1  0  0  0  0
  4  1  1  0  0  0  0
  5  3  2  0  0  0  0
  6 23  1  0  0  0  0
  7  2  1  0  0  0  0
  8 16  2  0  0  0  0
  9 19  1  1  0  0  0
  9 18  1  0  0  0  0
 10 19  1  0  0  0  0
 11 10  1  0  0  0  0
 11 14  1  0  0  0  0
 12 13  1  0  0  0  0
 13 16  1  0  0  0  0
 14  3  1  6  0  0  0
 14  9  1  0  0  0  0
 15 12  1  0  0  0  0
 16 17  1  0  0  0  0
 18 12  2  0  0  0  0
 19 15  2  0  0  0  0
 20 24  1  0  0  0  0
 21 25  1  0  0  0  0
 23 26  1  0  0  0  0
 23 21  2  0  0  0  0
 24 22  1  0  0  0  0
 25 24  2  0  0  0  0
 26 20  2  0  0  0  0
 27 28  1  6  0  0  0
 27  7  1  0  0  0  0
 29 30  1  0  0  0  0
 29 27  1  0  0  0  0
 30 31  1  0  0  0  0
 32 31  1  6  0  0  0
 32 36  1  0  0  0  0
 32 38  1  0  0  0  0
 33 35  1  0  0  0  0
 35 40  1  0  0  0  0
 36 34  1  1  0  0  0
 36 38  1  0  0  0  0
 37 40  1  0  0  0  0
 37 42  1  1  0  0  0
 38 33  1  6  0  0  0
 38 39  1  0  0  0  0
 39 37  1  0  0  0  0
 42 41  1  6  0  0  0
 42 44  1  0  0  0  0
 44 43  1  6  0  0  0
 45 49  1  0  0  0  0
 46 45  2  0  0  0  0
 47 50  1  0  0  0  0
 48 46  1  0  0  0  0
 48 47  2  0  0  0  0
 49 44  1  0  0  0  0
 50 49  2  0  0  0  0
M  END
>  <MODEL>
7

>  <REMARK>
 VINA RESULT:      -7.3      2.801      7.750
  Name = 
  10 active torsions:
  status: ('A' for Active; 'I' for Inactive)
    1  A    between atoms: C_1  and  C_12
    2  A    between atoms: C_6  and  C_35
    3  A    between atoms: C_12  and  C_24
    4  A    between atoms: C_16  and  C_28
    5  A    between atoms: C_16  and  C_32
    6  A    between atoms: C_17  and  C_28
    7  A    between atoms: C_18  and  C_27
    8  A    between atoms: C_18  and  C_50
    9  A    between atoms: C_24  and  C_50
   10  A    between atoms: C_25  and  C_42
                            x       y       z     vdW  Elec       q    Type
                         _______ _______ _______ _____ _____    ______ ____

>  <TORSDO>
F 10

$$$$
=
 OpenBabel11062419183D

 50 56  0  0  1  0  0  0  0  0999 V2000
  189.5660  177.2590  146.3620 C   0  0  0  0  0  0  0  0  0  0  0  0
  190.5850  175.5150  145.0330 C   0  0  0  0  0  3  0  0  0  0  0  0
  188.8240  176.8830  144.0690 C   0  0  0  0  0  0  0  0  0  0  0  0
  189.4100  177.9850  147.5320 O   0  0  0  0  0  1  0  0  0  0  0  0
  188.7700  177.5900  145.2730 C   0  0  0  0  0  3  0  0  0  0  0  0
  189.7470  175.8050  143.9450 C   0  0  0  0  0  0  0  0  0  0  0  0
  190.5060  176.2110  146.2450 C   0  0  0  0  0  0  0  0  0  0  0  0
  182.7090  177.7920  140.1560 O   0  0  0  0  0  0  0  0  0  0  0  0
  186.8760  176.7260  142.3640 C   0  0  1  0  0  3  0  0  0  0  0  0
  187.9950  178.0730  140.8590 O   0  0  0  0  0  0  0  0  0  0  0  0
  188.8390  178.0050  141.9050 O   0  0  0  0  0  0  0  0  0  0  0  0
  184.8810  177.6380  142.0750 C   0  0  0  0  0  0  0  0  0  0  0  0
  183.5320  178.0310  142.3220 N   0  0  0  0  0  2  0  0  0  0  0  0
  188.0170  177.5220  142.9690 C   0  0  2  0  0  3  0  0  0  0  0  0
  185.6330  178.0690  140.9470 N   0  0  0  0  0  0  0  0  0  0  0  0
  182.5750  178.2960  141.2940 C   0  0  0  0  0  0  0  0  0  0  0  0
  181.4280  179.2080  141.5530 C   0  0  0  0  0  1  0  0  0  0  0  0
  185.5680  176.9620  142.9530 N   0  0  0  0  0  0  0  0  0  0  0  0
  186.7840  177.5240  141.1720 C   0  0  0  0  0  0  0  0  0  0  0  0
  191.3440  173.8860  141.1170 C   0  0  0  0  0  3  0  0  0  0  0  0
  188.9500  173.8910  142.5530 C   0  0  0  0  0  3  0  0  0  0  0  0
  190.7180  171.8080  140.0750 O   0  0  0  0  0  1  0  0  0  0  0  0
  189.8750  174.9300  142.7600 C   0  0  0  0  0  0  0  0  0  0  0  0
  190.4440  172.8350  140.9690 C   0  0  0  0  0  0  0  0  0  0  0  0
  189.2190  172.8670  141.6390 C   0  0  0  0  0  3  0  0  0  0  0  0
  191.0730  174.9100  142.0270 C   0  0  0  0  0  3  0  0  0  0  0  0
  191.5710  175.9350  147.2840 C   0  0  1  0  0  3  0  0  0  0  0  0
  191.1140  175.1590  148.3550 O   0  0  0  0  0  1  0  0  0  0  0  0
  192.8600  175.3370  146.7330 C   0  0  0  0  0  2  0  0  0  0  0  0
  193.7920  176.4990  146.4450 C   0  0  0  0  0  2  0  0  0  0  0  0
  194.9160  176.1350  145.4870 C   0  0  0  0  0  2  0  0  0  0  0  0
  194.5050  175.0580  144.4790 C   0  0  2  0  0  3  0  0  0  0  0  0
  196.3090  176.2050  142.8950 C   0  0  0  0  0  2  0  0  0  0  0  0
  195.1610  172.8370  144.0600 F   0  0  0  0  0  0  0  0  0  0  0  0
  195.9960  176.7920  141.5200 C   0  0  0  0  0  2  0  0  0  0  0  0
  195.6790  174.1020  144.2840 C   0  0  1  0  0  3  0  0  0  0  0  0
  195.6310  174.3040  141.0510 C   0  0  2  0  0  3  0  0  0  0  0  0
  195.3050  175.0630  143.1760 C   0  0  1  0  0  0  0  0  0  0  0  0
  194.6640  174.4370  142.0800 O   0  0  0  0  0  0  0  0  0  0  0  0
  195.9340  175.6870  140.4470 C   0  0  0  0  0  2  0  0  0  0  0  0
  195.9160  172.1330  140.0600 O   0  0  0  0  0  1  0  0  0  0  0  0
  195.1840  173.3250  139.9670 C   0  0  2  0  0  3  0  0  0  0  0  0
  196.3360  173.0860  137.7330 C   0  0  0  0  0  1  0  0  0  0  0  0
  195.3830  173.9390  138.5680 C   0  0  1  0  0  3  0  0  0  0  0  0
  193.1510  173.0960  137.7810 C   0  0  0  0  0  3  0  0  0  0  0  0
  191.9710  173.3070  137.0650 C   0  0  0  0  0  3  0  0  0  0  0  0
  192.6790  175.4910  136.5030 C   0  0  0  0  0  3  0  0  0  0  0  0
  191.7520  174.5060  136.4530 N   0  0  0  0  0  0  0  0  0  0  0  0
  194.0960  174.1360  137.8380 C   0  0  0  0  0  0  0  0  0  0  0  0
  193.8440  175.3040  137.1810 N   0  0  0  0  0  0  0  0  0  0  0  0
  1  4  1  0  0  0  0
  2  7  2  0  0  0  0
  3  5  1  0  0  0  0
  5  1  2  0  0  0  0
  6  3  2  0  0  0  0
  6  2  1  0  0  0  0
  7  1  1  0  0  0  0
  7 27  1  0  0  0  0
  8 16  2  0  0  0  0
  9 19  1  6  0  0  0
  9 18  1  0  0  0  0
  9 14  1  0  0  0  0
 10 19  1  0  0  0  0
 10 11  1  0  0  0  0
 11 14  1  0  0  0  0
 12 13  1  0  0  0  0
 12 18  2  0  0  0  0
 14  3  1  1  0  0  0
 15 19  2  0  0  0  0
 15 12  1  0  0  0  0
 16 17  1  0  0  0  0
 16 13  1  0  0  0  0
 20 26  1  0  0  0  0
 21 23  1  0  0  0  0
 22 24  1  0  0  0  0
 23  6  1  0  0  0  0
 24 20  2  0  0  0  0
 24 25  1  0  0  0  0
 25 21  2  0  0  0  0
 26 23  2  0  0  0  0
 27 28  1  1  0  0  0
 29 27  1  0  0  0  0
 30 29  1  0  0  0  0
 31 30  1  0  0  0  0
 32 31  1  1  0  0  0
 35 33  1  0  0  0  0
 36 34  1  6  0  0  0
 36 32  1  0  0  0  0
 37 42  1  6  0  0  0
 37 39  1  0  0  0  0
 38 33  1  6  0  0  0
 38 36  1  0  0  0  0
 38 32  1  0  0  0  0
 39 38  1  0  0  0  0
 40 37  1  0  0  0  0
 40 35  1  0  0  0  0
 42 41  1  6  0  0  0
 44 43  1  6  0  0  0
 44 42  1  0  0  0  0
 45 49  1  0  0  0  0
 46 45  2  0  0  0  0
 47 50  1  0  0  0  0
 48 47  2  0  0  0  0
 48 46  1  0  0  0  0
 49 44  1  0  0  0  0
 50 49  2  0  0  0  0
M  END
>  <MODEL>
8

>  <REMARK>
 VINA RESULT:      -7.3      2.877      7.257
  Name = 
  10 active torsions:
  status: ('A' for Active; 'I' for Inactive)
    1  A    between atoms: C_1  and  C_12
    2  A    between atoms: C_6  and  C_35
    3  A    between atoms: C_12  and  C_24
    4  A    between atoms: C_16  and  C_28
    5  A    between atoms: C_16  and  C_32
    6  A    between atoms: C_17  and  C_28
    7  A    between atoms: C_18  and  C_27
    8  A    between atoms: C_18  and  C_50
    9  A    between atoms: C_24  and  C_50
   10  A    between atoms: C_25  and  C_42
                            x       y       z     vdW  Elec       q    Type
                         _______ _______ _______ _____ _____    ______ ____

>  <TORSDO>
F 10

$$$$
=
 OpenBabel11062419183D

 50 56  0  0  1  0  0  0  0  0999 V2000
  194.2520  171.4220  144.5330 C   0  0  0  0  0  0  0  0  0  0  0  0
  195.3710  173.1110  143.2150 C   0  0  0  0  0  3  0  0  0  0  0  0
  193.6410  171.7440  142.1940 C   0  0  0  0  0  0  0  0  0  0  0  0
  194.0470  170.7050  145.7020 O   0  0  0  0  0  1  0  0  0  0  0  0
  193.4730  171.1100  143.4280 C   0  0  0  0  0  3  0  0  0  0  0  0
  194.6260  172.7660  142.0760 C   0  0  0  0  0  0  0  0  0  0  0  0
  195.2140  172.4520  144.4400 C   0  0  0  0  0  0  0  0  0  0  0  0
  188.1900  173.4120  137.6080 O   0  0  0  0  0  0  0  0  0  0  0  0
  191.3670  172.3000  141.0790 C   0  0  1  0  0  3  0  0  0  0  0  0
  190.8980  170.0620  140.7630 O   0  0  0  0  0  0  0  0  0  0  0  0
  192.1090  170.0470  141.3490 O   0  0  0  0  0  0  0  0  0  0  0  0
  190.6400  172.9840  139.1040 C   0  0  0  0  0  0  0  0  0  0  0  0
  190.4650  173.7890  137.9390 N   0  0  0  0  0  2  0  0  0  0  0  0
  192.5740  171.3880  141.1920 C   0  0  2  0  0  3  0  0  0  0  0  0
  190.0760  171.6880  139.2580 N   0  0  0  0  0  0  0  0  0  0  0  0
  189.2880  173.7780  137.1290 C   0  0  0  0  0  0  0  0  0  0  0  0
  189.3600  174.1640  135.6940 C   0  0  0  0  0  1  0  0  0  0  0  0
  191.4570  173.3320  140.0590 N   0  0  0  0  0  0  0  0  0  0  0  0
  190.5400  171.3320  140.4120 C   0  0  0  0  0  0  0  0  0  0  0  0
  195.5410  175.5940  139.7510 C   0  0  0  0  0  3  0  0  0  0  0  0
  195.6140  172.8020  139.7830 C   0  0  0  0  0  3  0  0  0  0  0  0
  196.8500  175.6080  137.7310 O   0  0  0  0  0  1  0  0  0  0  0  0
  194.9610  173.4820  140.8260 C   0  0  0  0  0  0  0  0  0  0  0  0
  196.2330  174.9060  138.7590 C   0  0  0  0  0  0  0  0  0  0  0  0
  196.2180  173.5100  138.7380 C   0  0  0  0  0  3  0  0  0  0  0  0
  194.9340  174.8870  140.7910 C   0  0  0  0  0  3  0  0  0  0  0  0
  195.9380  173.0200  145.6410 C   0  0  1  0  0  3  0  0  0  0  0  0
  197.1930  172.4410  145.8580 O   0  0  0  0  0  1  0  0  0  0  0  0
  196.0660  174.5380  145.6490 C   0  0  0  0  0  2  0  0  0  0  0  0
  194.7730  175.0830  146.2260 C   0  0  0  0  0  2  0  0  0  0  0  0
  193.9020  175.7700  145.1850 C   0  0  0  0  0  2  0  0  0  0  0  0
  192.4390  175.3210  145.2520 C   0  0  2  0  0  3  0  0  0  0  0  0
  192.0470  177.1640  143.3740 C   0  0  0  0  0  2  0  0  0  0  0  0
  191.1720  173.6250  144.2250 F   0  0  0  0  0  0  0  0  0  0  0  0
  191.0880  178.3440  143.5150 C   0  0  0  0  0  2  0  0  0  0  0  0
  192.0840  174.6290  143.9400 C   0  0  1  0  0  3  0  0  0  0  0  0
  189.4220  176.4060  143.4340 C   0  0  2  0  0  3  0  0  0  0  0  0
  191.5150  175.9990  144.2400 C   0  0  1  0  0  0  0  0  0  0  0  0
  190.1410  175.9780  144.5800 O   0  0  0  0  0  0  0  0  0  0  0  0
  189.6360  177.9160  143.2260 C   0  0  0  0  0  2  0  0  0  0  0  0
  187.5940  175.0780  142.6160 O   0  0  0  0  0  1  0  0  0  0  0  0
  187.9330  176.0780  143.5360 C   0  0  2  0  0  3  0  0  0  0  0  0
  186.3040  177.1860  141.9570 C   0  0  0  0  0  1  0  0  0  0  0  0
  187.0830  177.3340  143.2630 C   0  0  1  0  0  3  0  0  0  0  0  0
  186.0680  176.7980  145.4980 C   0  0  0  0  0  3  0  0  0  0  0  0
  185.1630  177.1140  146.5140 C   0  0  0  0  0  3  0  0  0  0  0  0
  184.4740  179.0390  145.3290 C   0  0  0  0  0  3  0  0  0  0  0  0
  184.3950  178.2360  146.4160 N   0  0  0  0  0  0  0  0  0  0  0  0
  186.1500  177.6520  144.3850 C   0  0  0  0  0  0  0  0  0  0  0  0
  185.3360  178.7450  144.3180 N   0  0  0  0  0  0  0  0  0  0  0  0
  1  4  1  0  0  0  0
  2  7  2  0  0  0  0
  3  5  1  0  0  0  0
  5  1  2  0  0  0  0
  6  3  2  0  0  0  0
  6  2  1  0  0  0  0
  7  1  1  0  0  0  0
  7 27  1  0  0  0  0
  9 18  1  6  0  0  0
  9 14  1  0  0  0  0
 10 11  1  0  0  0  0
 12 15  1  0  0  0  0
 12 18  2  0  0  0  0
 13 12  1  0  0  0  0
 14 11  1  0  0  0  0
 14  3  1  1  0  0  0
 15 19  2  0  0  0  0
 16  8  2  0  0  0  0
 16 13  1  0  0  0  0
 17 16  1  0  0  0  0
 19 10  1  0  0  0  0
 19  9  1  0  0  0  0
 20 26  1  0  0  0  0
 21 23  1  0  0  0  0
 22 24  1  0  0  0  0
 23  6  1  0  0  0  0
 24 20  2  0  0  0  0
 25 24  1  0  0  0  0
 25 21  2  0  0  0  0
 26 23  2  0  0  0  0
 27 29  1  0  0  0  0
 27 28  1  6  0  0  0
 29 30  1  0  0  0  0
 31 30  1  0  0  0  0
 32 31  1  6  0  0  0
 33 35  1  0  0  0  0
 36 34  1  1  0  0  0
 36 38  1  0  0  0  0
 36 32  1  0  0  0  0
 37 42  1  1  0  0  0
 37 39  1  0  0  0  0
 38 33  1  6  0  0  0
 38 39  1  0  0  0  0
 38 32  1  0  0  0  0
 40 37  1  0  0  0  0
 40 35  1  0  0  0  0
 42 41  1  6  0  0  0
 44 43  1  6  0  0  0
 44 42  1  0  0  0  0
 44 49  1  0  0  0  0
 45 46  1  0  0  0  0
 47 48  1  0  0  0  0
 48 46  2  0  0  0  0
 49 45  2  0  0  0  0
 50 49  1  0  0  0  0
 50 47  2  0  0  0  0
M  END
>  <MODEL>
9

>  <REMARK>
 VINA RESULT:      -7.2      2.207      2.738
  Name = 
  10 active torsions:
  status: ('A' for Active; 'I' for Inactive)
    1  A    between atoms: C_1  and  C_12
    2  A    between atoms: C_6  and  C_35
    3  A    between atoms: C_12  and  C_24
    4  A    between atoms: C_16  and  C_28
    5  A    between atoms: C_16  and  C_32
    6  A    between atoms: C_17  and  C_28
    7  A    between atoms: C_18  and  C_27
    8  A    between atoms: C_18  and  C_50
    9  A    between atoms: C_24  and  C_50
   10  A    between atoms: C_25  and  C_42
                            x       y       z     vdW  Elec       q    Type
                         _______ _______ _______ _____ _____    ______ ____

>  <TORSDO>
F 10

$$$$
