=
 OpenBabel11072408323D

 62 67  0  0  1  0  0  0  0  0999 V2000
  188.5980  172.7580  140.9330 C   0  0  0  0  0  2  0  0  0  0  0  0
  188.4910  175.7080  146.0830 C   0  0  0  0  0  0  0  0  0  0  0  0
  193.9270  170.5670  142.8620 C   0  0  0  0  0  2  0  0  0  0  0  0
  188.2640  174.4270  142.5370 C   0  0  1  0  0  0  0  0  0  0  0  0
  196.1420  175.3580  141.6920 O   0  0  0  0  0  0  0  0  0  0  0  0
  192.6090  173.2630  145.5870 O   0  0  0  0  0  1  0  0  0  0  0  0
  194.1110  175.3440  144.2710 C   0  0  1  0  0  3  0  0  0  0  0  0
  196.4300  171.0200  142.9780 C   0  0  0  0  0  2  0  0  0  0  0  0
  188.6490  173.0680  142.3070 O   0  0  0  0  0  0  0  0  0  0  0  0
  192.3820  172.2370  141.7760 N   0  0  0  0  0  0  0  0  0  0  0  0
  187.5130  176.1630  147.0180 N   0  0  0  0  0  2  0  0  0  0  0  0
  193.1670  174.5790  141.9950 C   0  0  2  0  0  3  0  0  0  0  0  0
  186.8870  174.4590  142.7590 O   0  0  0  0  0  1  0  0  0  0  0  0
  190.1480  174.1240  144.3500 C   0  0  0  0  0  2  0  0  0  0  0  0
  189.8680  174.9470  140.6580 C   0  0  2  0  0  3  0  0  0  0  0  0
  195.3310  169.9950  142.7080 C   0  0  1  0  0  3  0  0  0  0  0  0
  192.7880  176.9190  145.5780 O   0  0  0  0  0  1  0  0  0  0  0  0
  193.5560  171.3710  141.6050 C   0  0  2  0  0  3  0  0  0  0  0  0
  192.1230  175.0220  140.9670 C   0  0  0  0  0  2  0  0  0  0  0  0
  197.1540  173.7400  143.7390 O   0  0  0  0  0  0  0  0  0  0  0  0
  189.7890  175.1690  146.6430 C   0  0  2  0  0  0  0  0  0  0  0  0
  196.6570  175.3120  143.3170 P   0  0  2  0  0  0  0  0  0  0  0  0
  189.7330  173.4810  140.1980 C   0  0  0  0  0  2  0  0  0  0  0  0
  190.3210  176.1410  147.5130 O   0  0  0  0  0  1  0  0  0  0  0  0
  195.4280  176.0120  144.3910 N   0  0  0  0  0  0  0  0  0  0  0  0
  193.2780  175.6050  145.5430 C   0  0  1  0  0  3  0  0  0  0  0  0
  197.8980  176.1740  143.4390 O   0  0  0  0  0  1  0  0  0  0  0  0
  196.2920  171.5980  144.3020 N   0  0  0  0  0  0  0  0  0  0  0  0
  192.7200  173.3030  142.7100 C   0  0  0  0  0  2  0  0  0  0  0  0
  192.2140  174.5590  145.9040 C   0  0  1  0  0  3  0  0  0  0  0  0
  196.0090  173.0310  144.1410 C   0  0  0  0  0  2  0  0  0  0  0  0
  188.1230  175.5170  144.8390 N   0  0  0  0  0  0  0  0  0  0  0  0
  189.0140  174.9880  143.7820 C   0  0  2  0  0  3  0  0  0  0  0  0
  190.8780  175.0680  141.6130 O   0  0  0  0  0  0  0  0  0  0  0  0
  193.3460  175.7270  142.9910 C   0  0  0  0  0  2  0  0  0  0  0  0
  190.7890  174.9230  145.4790 C   0  0  1  0  0  3  0  0  0  0  0  0
  195.3370  177.4520  144.1260 C   0  0  0  0  0  1  0  0  0  0  0  0
  188.5820  175.3840  141.3480 C   0  0  0  0  0  2  0  0  0  0  0  0
  191.2750  171.4910  142.3790 C   0  0  0  0  0  1  0  0  0  0  0  0
  193.8130  170.1820  138.0280 C   0  0  0  0  0  3  0  0  0  0  0  0
  193.4140  170.5210  140.3850 C   0  0  0  0  0  0  0  0  0  0  0  0
  193.9780  170.9500  139.1790 C   0  0  0  0  0  3  0  0  0  0  0  0
  192.5330  168.5540  139.2780 C   0  0  0  0  0  3  0  0  0  0  0  0
  192.6940  169.3180  140.4320 C   0  0  0  0  0  3  0  0  0  0  0  0
  193.0750  168.9930  138.0710 C   0  0  0  0  0  0  0  0  0  0  0  0
  191.5740  168.1780  136.4720 F   0  0  0  0  0  0  0  0  0  0  0  0
  192.9060  168.1760  136.8380 C   0  0  0  0  0  2  0  0  0  0  0  0
  196.7670  168.1660  143.6860 O   0  0  0  0  0  0  0  0  0  0  0  0
  194.4940  168.1670  143.9970 O   0  0  0  0  0  1  0  0  0  0  0  0
  195.5010  168.7110  143.4670 C   0  0  0  0  0  0  0  0  0  0  0  0
  188.6640  174.2310  148.4580 C   0  0  0  0  0  1  0  0  0  0  0  0
  189.4740  173.9640  147.3390 O   0  0  0  0  0  0  0  0  0  0  0  0
  197.5720  171.3980  144.9860 C   0  0  0  0  0  2  0  0  0  0  0  0
  197.4490  170.4280  145.9900 O   0  0  0  0  0  1  0  0  0  0  0  0
  186.8920  177.4610  146.9120 C   0  0  0  0  0  2  0  0  0  0  0  0
  184.3350  180.0740  144.0710 O   0  0  0  0  0  1  0  0  0  0  0  0
  184.5290  177.6210  146.1520 C   0  0  0  0  0  2  0  0  0  0  0  0
  186.2090  178.2810  143.3680 C   0  0  0  0  0  1  0  0  0  0  0  0
  186.2320  178.7230  144.8420 C   0  0  1  0  0  3  0  0  0  0  0  0
  185.1160  179.7400  145.1810 C   0  0  2  0  0  3  0  0  0  0  0  0
  185.9620  177.5070  145.7110 C   0  0  1  0  0  3  0  0  0  0  0  0
  184.2520  179.1060  146.2490 C   0  0  0  0  0  2  0  0  0  0  0  0
  1  9  1  0  0  0  0
  2 21  1  0  0  0  0
  2 11  1  0  0  0  0
  4 13  1  1  0  0  0
  4 33  1  0  0  0  0
  7 35  1  6  0  0  0
  7 25  1  0  0  0  0
  7 26  1  0  0  0  0
  8 28  1  0  0  0  0
  9  4  1  0  0  0  0
 10 39  1  0  0  0  0
 10 29  1  0  0  0  0
 12 19  1  6  0  0  0
 12 29  1  0  0  0  0
 12 35  1  0  0  0  0
 15 23  1  1  0  0  0
 15 38  1  0  0  0  0
 15 34  1  0  0  0  0
 16  3  1  0  0  0  0
 16  8  1  0  0  0  0
 16 50  1  1  0  0  0
 18 41  1  6  0  0  0
 18 10  1  0  0  0  0
 18  3  1  0  0  0  0
 19 34  1  0  0  0  0
 20 31  1  0  0  0  0
 21 52  1  0  0  0  0
 21 24  1  1  0  0  0
 22  5  2  6  0  0  0
 22 27  1  0  0  0  0
 22 20  1  0  0  0  0
 22 25  1  0  0  0  0
 23  1  1  0  0  0  0
 26 17  1  6  0  0  0
 26 30  1  0  0  0  0
 28 53  1  0  0  0  0
 30  6  1  6  0  0  0
 31 28  1  0  0  0  0
 32  2  2  0  0  0  0
 33 14  1  1  0  0  0
 33 32  1  0  0  0  0
 36 14  1  6  0  0  0
 36 30  1  0  0  0  0
 36 21  1  0  0  0  0
 37 25  1  0  0  0  0
 38  4  1  0  0  0  0
 40 45  2  0  0  0  0
 40 42  1  0  0  0  0
 41 44  1  0  0  0  0
 42 41  2  0  0  0  0
 43 44  2  0  0  0  0
 45 43  1  0  0  0  0
 46 47  1  0  0  0  0
 47 45  1  0  0  0  0
 50 48  2  0  0  0  0
 50 49  1  0  0  0  0
 52 51  1  0  0  0  0
 53 54  1  0  0  0  0
 55 11  1  0  0  0  0
 57 62  1  0  0  0  0
 59 58  1  6  0  0  0
 59 60  1  0  0  0  0
 59 61  1  0  0  0  0
 60 56  1  6  0  0  0
 60 62  1  0  0  0  0
 61 57  1  0  0  0  0
 61 55  1  1  0  0  0
M  END
>  <MODEL>
1

>  <REMARK>
 VINA RESULT:      -5.5      0.000      0.000
  Name = 
  7 active torsions:
  status: ('A' for Active; 'I' for Inactive)
    1  A    between atoms: N_15  and  C_23
    2  A    between atoms: C_21  and  C_35
    3  A    between atoms: C_22  and  C_26
    4  A    between atoms: C_23  and  C_50
    5  A    between atoms: C_31  and  O_39
    6  A    between atoms: C_34  and  C_61
    7  A    between atoms: C_37  and  N_44
                            x       y       z     vdW  Elec       q    Type
                         _______ _______ _______ _____ _____    ______ ____

>  <TORSDO>
F 7

$$$$
=
 OpenBabel11072408323D

 62 67  0  0  1  0  0  0  0  0999 V2000
  187.9470  175.0060  140.5870 C   0  0  0  0  0  2  0  0  0  0  0  0
  192.1900  173.1620  136.8670 C   0  0  0  0  0  0  0  0  0  0  0  0
  192.4700  175.8260  144.5600 C   0  0  0  0  0  2  0  0  0  0  0  0
  189.0970  173.8150  138.9350 C   0  0  1  0  0  0  0  0  0  0  0  0
  192.6140  170.4680  145.2640 O   0  0  0  0  0  0  0  0  0  0  0  0
  194.0210  174.1570  141.2080 O   0  0  0  0  0  1  0  0  0  0  0  0
  193.6930  171.5300  142.3520 C   0  0  1  0  0  3  0  0  0  0  0  0
  193.9100  174.6820  146.3220 C   0  0  0  0  0  2  0  0  0  0  0  0
  189.1280  174.9380  139.8210 O   0  0  0  0  0  0  0  0  0  0  0  0
  190.7010  174.5250  143.3220 N   0  0  0  0  0  0  0  0  0  0  0  0
  192.4450  173.1860  135.4630 N   0  0  0  0  0  2  0  0  0  0  0  0
  191.2780  172.1310  143.0290 C   0  0  2  0  0  3  0  0  0  0  0  0
  188.5420  174.2310  137.7230 O   0  0  0  0  0  1  0  0  0  0  0  0
  191.6430  173.8590  139.6010 C   0  0  0  0  0  2  0  0  0  0  0  0
  188.3710  172.5260  140.9800 C   0  0  2  0  0  3  0  0  0  0  0  0
  193.1040  175.9220  145.9430 C   0  0  1  0  0  3  0  0  0  0  0  0
  194.0610  170.6680  140.1020 O   0  0  0  0  0  1  0  0  0  0  0  0
  191.2010  174.9620  144.6330 C   0  0  2  0  0  3  0  0  0  0  0  0
  189.8440  171.8440  142.5770 C   0  0  0  0  0  2  0  0  0  0  0  0
  194.9050  172.0450  145.5740 O   0  0  0  0  0  0  0  0  0  0  0  0
  193.3680  173.3820  137.7910 C   0  0  2  0  0  0  0  0  0  0  0  0
  194.2610  170.6420  144.8580 P   0  0  2  0  0  0  0  0  0  0  0  0
  187.9300  173.8630  141.6100 C   0  0  0  0  0  2  0  0  0  0  0  0
  194.3750  172.4640  137.4350 O   0  0  0  0  0  1  0  0  0  0  0  0
  194.4950  170.5330  143.1020 N   0  0  0  0  0  0  0  0  0  0  0  0
  194.3130  171.7510  140.9570 C   0  0  1  0  0  3  0  0  0  0  0  0
  195.0200  169.4870  145.4810 O   0  0  0  0  0  1  0  0  0  0  0  0
  194.9430  174.4100  145.3400 N   0  0  0  0  0  0  0  0  0  0  0  0
  191.6560  173.5850  142.7480 C   0  0  0  0  0  2  0  0  0  0  0  0
  194.0590  173.1110  140.2910 C   0  0  1  0  0  3  0  0  0  0  0  0
  194.6360  173.1190  144.7080 C   0  0  0  0  0  2  0  0  0  0  0  0
  190.9460  173.2330  137.2770 N   0  0  0  0  0  0  0  0  0  0  0  0
  190.5420  173.2830  138.7000 C   0  0  2  0  0  3  0  0  0  0  0  0
  189.7170  172.2810  141.2490 O   0  0  0  0  0  0  0  0  0  0  0  0
  192.1990  171.1720  142.2690 C   0  0  0  0  0  2  0  0  0  0  0  0
  192.9290  173.1150  139.2580 C   0  0  1  0  0  3  0  0  0  0  0  0
  194.2040  169.1620  142.6720 C   0  0  0  0  0  1  0  0  0  0  0  0
  188.2540  172.6150  139.4640 C   0  0  0  0  0  2  0  0  0  0  0  0
  190.6240  175.6570  142.3970 C   0  0  0  0  0  1  0  0  0  0  0  0
  188.3320  175.3780  147.0570 C   0  0  0  0  0  3  0  0  0  0  0  0
  190.1070  175.5900  145.4330 C   0  0  0  0  0  0  0  0  0  0  0  0
  189.3820  174.8080  146.3380 C   0  0  0  0  0  3  0  0  0  0  0  0
  188.7340  177.5090  145.9840 C   0  0  0  0  0  3  0  0  0  0  0  0
  189.7830  176.9440  145.2610 C   0  0  0  0  0  3  0  0  0  0  0  0
  187.9950  176.7240  146.8680 C   0  0  0  0  0  0  0  0  0  0  0  0
  186.0870  176.3170  148.1600 F   0  0  0  0  0  0  0  0  0  0  0  0
  186.8760  177.3270  147.6420 C   0  0  0  0  0  2  0  0  0  0  0  0
  194.0620  177.7430  147.4030 O   0  0  0  0  0  1  0  0  0  0  0  0
  194.3820  177.7690  145.1300 O   0  0  0  0  0  0  0  0  0  0  0  0
  193.8520  177.2100  146.1300 C   0  0  0  0  0  0  0  0  0  0  0  0
  195.2040  174.8120  137.6450 C   0  0  0  0  0  1  0  0  0  0  0  0
  193.8010  174.7280  137.6010 O   0  0  0  0  0  0  0  0  0  0  0  0
  196.2110  174.3390  146.0700 C   0  0  0  0  0  2  0  0  0  0  0  0
  197.1560  173.5990  145.3450 O   0  0  0  0  0  1  0  0  0  0  0  0
  192.0050  172.1310  134.5820 C   0  0  0  0  0  2  0  0  0  0  0  0
  192.8960  168.1660  136.8000 O   0  0  0  0  0  1  0  0  0  0  0  0
  191.2740  169.7550  134.5140 C   0  0  0  0  0  2  0  0  0  0  0  0
  191.5850  170.3000  137.7720 C   0  0  0  0  0  1  0  0  0  0  0  0
  192.4050  170.5490  136.4930 C   0  0  1  0  0  3  0  0  0  0  0  0
  193.1170  169.2750  135.9800 C   0  0  2  0  0  3  0  0  0  0  0  0
  191.4520  170.9660  135.3870 C   0  0  1  0  0  3  0  0  0  0  0  0
  192.5860  169.0040  134.5890 C   0  0  0  0  0  2  0  0  0  0  0  0
  1 23  1  0  0  0  0
  2 32  2  0  0  0  0
  2 21  1  0  0  0  0
  3 18  1  0  0  0  0
  3 16  1  0  0  0  0
  4 13  1  6  0  0  0
  4 38  1  0  0  0  0
  4  9  1  0  0  0  0
  7 35  1  6  0  0  0
  7 25  1  0  0  0  0
  9  1  1  0  0  0  0
 10 18  1  0  0  0  0
 11  2  1  0  0  0  0
 12 35  1  6  0  0  0
 15 38  1  6  0  0  0
 15 34  1  0  0  0  0
 15 23  1  0  0  0  0
 16 50  1  6  0  0  0
 16  8  1  0  0  0  0
 18 41  1  6  0  0  0
 19 12  1  0  0  0  0
 21 24  1  6  0  0  0
 21 36  1  0  0  0  0
 22  5  2  1  0  0  0
 22 27  1  0  0  0  0
 22 20  1  0  0  0  0
 25 22  1  0  0  0  0
 26 17  1  6  0  0  0
 26  7  1  0  0  0  0
 28 53  1  0  0  0  0
 28  8  1  0  0  0  0
 29 12  1  0  0  0  0
 29 10  1  0  0  0  0
 30 26  1  0  0  0  0
 30  6  1  1  0  0  0
 31 28  1  0  0  0  0
 31 20  1  0  0  0  0
 32 33  1  0  0  0  0
 33  4  1  0  0  0  0
 33 14  1  1  0  0  0
 34 19  1  0  0  0  0
 36 14  1  1  0  0  0
 36 30  1  0  0  0  0
 37 25  1  0  0  0  0
 39 10  1  0  0  0  0
 41 42  1  0  0  0  0
 42 40  2  0  0  0  0
 43 45  2  0  0  0  0
 44 41  2  0  0  0  0
 44 43  1  0  0  0  0
 45 40  1  0  0  0  0
 45 47  1  0  0  0  0
 47 46  1  0  0  0  0
 49 50  2  0  0  0  0
 50 48  1  0  0  0  0
 52 51  1  0  0  0  0
 52 21  1  0  0  0  0
 54 53  1  0  0  0  0
 55 11  1  0  0  0  0
 57 62  1  0  0  0  0
 57 61  1  0  0  0  0
 59 58  1  1  0  0  0
 60 59  1  0  0  0  0
 60 56  1  1  0  0  0
 61 55  1  6  0  0  0
 61 59  1  0  0  0  0
 62 60  1  0  0  0  0
M  END
>  <MODEL>
2

>  <REMARK>
 VINA RESULT:      -5.1      3.370      8.918
  Name = 
  7 active torsions:
  status: ('A' for Active; 'I' for Inactive)
    1  A    between atoms: N_15  and  C_23
    2  A    between atoms: C_21  and  C_35
    3  A    between atoms: C_22  and  C_26
    4  A    between atoms: C_23  and  C_50
    5  A    between atoms: C_31  and  O_39
    6  A    between atoms: C_34  and  C_61
    7  A    between atoms: C_37  and  N_44
                            x       y       z     vdW  Elec       q    Type
                         _______ _______ _______ _____ _____    ______ ____

>  <TORSDO>
F 7

$$$$
=
 OpenBabel11072408323D

 62 67  0  0  1  0  0  0  0  0999 V2000
  193.6340  177.5800  141.2060 C   0  0  0  0  0  2  0  0  0  0  0  0
  190.4580  174.2480  144.9540 C   0  0  0  0  0  0  0  0  0  0  0  0
  194.1140  172.5150  137.8840 C   0  0  0  0  0  2  0  0  0  0  0  0
  192.7370  176.6720  143.1660 C   0  0  1  0  0  0  0  0  0  0  0  0
  197.7480  170.7050  141.4540 O   0  0  0  0  0  0  0  0  0  0  0  0
  192.1600  171.5960  141.3140 O   0  0  0  0  0  1  0  0  0  0  0  0
  194.6560  170.8440  142.5480 C   0  0  1  0  0  3  0  0  0  0  0  0
  195.4530  170.3740  137.5580 C   0  0  0  0  0  2  0  0  0  0  0  0
  192.6710  176.6980  141.7360 O   0  0  0  0  0  0  0  0  0  0  0  0
  194.7320  174.1360  139.7140 N   0  0  0  0  0  0  0  0  0  0  0  0
  189.3640  174.4240  145.8540 N   0  0  0  0  0  2  0  0  0  0  0  0
  195.7280  173.0310  141.6990 C   0  0  2  0  0  3  0  0  0  0  0  0
  191.8660  177.6440  143.6600 O   0  0  0  0  0  1  0  0  0  0  0  0
  192.1630  174.1570  142.6430 C   0  0  0  0  0  2  0  0  0  0  0  0
  195.2200  176.3960  142.8060 C   0  0  2  0  0  3  0  0  0  0  0  0
  194.7680  171.5630  136.8900 C   0  0  1  0  0  3  0  0  0  0  0  0
  193.4570  170.9160  144.6680 O   0  0  0  0  0  1  0  0  0  0  0  0
  195.1850  173.4210  138.5130 C   0  0  2  0  0  3  0  0  0  0  0  0
  196.1550  174.3980  142.2410 C   0  0  0  0  0  2  0  0  0  0  0  0
  196.1110  168.9490  140.0160 O   0  0  0  0  0  0  0  0  0  0  0  0
  190.5020  172.9630  144.1570 C   0  0  2  0  0  0  0  0  0  0  0  0
  196.7060  169.3590  141.5570 P   0  0  2  0  0  0  0  0  0  0  0  0
  195.0360  176.9880  141.3950 C   0  0  0  0  0  2  0  0  0  0  0  0
  190.4020  171.8890  145.0630 O   0  0  0  0  0  1  0  0  0  0  0  0
  195.4550  169.6190  142.7890 N   0  0  0  0  0  0  0  0  0  0  0  0
  193.3050  170.7370  143.2860 C   0  0  1  0  0  3  0  0  0  0  0  0
  197.5290  168.1660  142.0030 O   0  0  0  0  0  1  0  0  0  0  0  0
  194.5200  169.6330  138.3880 N   0  0  0  0  0  0  0  0  0  0  0  0
  194.5140  173.1660  140.7800 C   0  0  0  0  0  2  0  0  0  0  0  0
  192.1310  171.5360  142.7040 C   0  0  1  0  0  3  0  0  0  0  0  0
  194.9730  169.7410  139.7820 C   0  0  0  0  0  2  0  0  0  0  0  0
  191.1950  175.2920  144.6560 N   0  0  0  0  0  0  0  0  0  0  0  0
  192.3170  175.2670  143.6920 C   0  0  2  0  0  3  0  0  0  0  0  0
  195.0190  175.0160  142.7870 O   0  0  0  0  0  0  0  0  0  0  0  0
  195.4060  172.1410  142.9020 C   0  0  0  0  0  2  0  0  0  0  0  0
  191.8570  172.8710  143.4020 C   0  0  1  0  0  3  0  0  0  0  0  0
  196.0910  169.6320  144.1100 C   0  0  0  0  0  1  0  0  0  0  0  0
  194.1570  176.9630  143.7390 C   0  0  0  0  0  2  0  0  0  0  0  0
  193.4420  174.7840  139.4710 C   0  0  0  0  0  1  0  0  0  0  0  0
  197.6960  175.6910  136.8330 C   0  0  0  0  0  3  0  0  0  0  0  0
  195.8020  174.3670  137.5360 C   0  0  0  0  0  0  0  0  0  0  0  0
  197.1280  174.7750  137.7180 C   0  0  0  0  0  3  0  0  0  0  0  0
  195.6290  175.7860  135.5790 C   0  0  0  0  0  3  0  0  0  0  0  0
  195.0560  174.8720  136.4620 C   0  0  0  0  0  3  0  0  0  0  0  0
  196.9430  176.2110  135.7740 C   0  0  0  0  0  0  0  0  0  0  0  0
  196.6690  178.2200  134.6060 F   0  0  0  0  0  0  0  0  0  0  0  0
  197.5580  177.1860  134.8310 C   0  0  0  0  0  2  0  0  0  0  0  0
  192.4490  171.2790  135.9390 O   0  0  0  0  0  1  0  0  0  0  0  0
  194.3050  170.8510  134.6580 O   0  0  0  0  0  0  0  0  0  0  0  0
  193.8320  171.1780  135.7820 C   0  0  0  0  0  0  0  0  0  0  0  0
  188.9470  171.6880  142.9760 C   0  0  0  0  0  1  0  0  0  0  0  0
  189.3930  172.9920  143.2590 O   0  0  0  0  0  0  0  0  0  0  0  0
  194.5680  168.2400  137.9360 C   0  0  0  0  0  2  0  0  0  0  0  0
  195.0320  168.1660  136.6150 O   0  0  0  0  0  1  0  0  0  0  0  0
  189.5550  174.7910  147.2370 C   0  0  0  0  0  2  0  0  0  0  0  0
  187.0060  178.3080  145.6360 O   0  0  0  0  0  1  0  0  0  0  0  0
  189.5890  177.2770  147.2640 C   0  0  0  0  0  2  0  0  0  0  0  0
  186.3570  176.6140  147.6180 C   0  0  0  0  0  1  0  0  0  0  0  0
  187.5180  176.1650  146.7130 C   0  0  1  0  0  3  0  0  0  0  0  0
  187.8500  177.1950  145.6070 C   0  0  2  0  0  3  0  0  0  0  0  0
  188.7710  176.0510  147.5630 C   0  0  1  0  0  3  0  0  0  0  0  0
  189.2840  177.6270  145.8230 C   0  0  0  0  0  2  0  0  0  0  0  0
  1 23  1  0  0  0  0
  1  9  1  0  0  0  0
  2 11  1  0  0  0  0
  3 18  1  0  0  0  0
  4 13  1  1  0  0  0
  4 33  1  0  0  0  0
  4 38  1  0  0  0  0
  7 25  1  0  0  0  0
  7 35  1  1  0  0  0
  7 26  1  0  0  0  0
  8 28  1  0  0  0  0
  9  4  1  0  0  0  0
 10 29  1  0  0  0  0
 11 55  1  0  0  0  0
 12 29  1  6  0  0  0
 12 19  1  0  0  0  0
 12 35  1  0  0  0  0
 15 23  1  6  0  0  0
 15 38  1  0  0  0  0
 16 50  1  6  0  0  0
 16  8  1  0  0  0  0
 16  3  1  0  0  0  0
 18 41  1  6  0  0  0
 18 10  1  0  0  0  0
 19 34  1  0  0  0  0
 20 22  1  0  0  0  0
 21  2  1  0  0  0  0
 21 24  1  1  0  0  0
 22  5  2  6  0  0  0
 22 27  1  0  0  0  0
 22 25  1  0  0  0  0
 25 37  1  0  0  0  0
 26 17  1  1  0  0  0
 28 31  1  0  0  0  0
 30  6  1  6  0  0  0
 30 26  1  0  0  0  0
 30 36  1  0  0  0  0
 31 20  1  0  0  0  0
 32  2  2  0  0  0  0
 33 14  1  6  0  0  0
 33 32  1  0  0  0  0
 34 15  1  0  0  0  0
 36 14  1  6  0  0  0
 36 21  1  0  0  0  0
 39 10  1  0  0  0  0
 40 42  1  0  0  0  0
 41 42  2  0  0  0  0
 43 45  1  0  0  0  0
 43 44  2  0  0  0  0
 44 41  1  0  0  0  0
 45 40  2  0  0  0  0
 46 47  1  0  0  0  0
 47 45  1  0  0  0  0
 49 50  2  0  0  0  0
 50 48  1  0  0  0  0
 51 52  1  0  0  0  0
 52 21  1  0  0  0  0
 53 28  1  0  0  0  0
 54 53  1  0  0  0  0
 57 61  1  0  0  0  0
 59 61  1  0  0  0  0
 59 58  1  1  0  0  0
 60 56  1  1  0  0  0
 60 62  1  0  0  0  0
 60 59  1  0  0  0  0
 61 55  1  6  0  0  0
 62 57  1  0  0  0  0
M  END
>  <MODEL>
3

>  <REMARK>
 VINA RESULT:      -3.9      3.726      5.947
  Name = 
  7 active torsions:
  status: ('A' for Active; 'I' for Inactive)
    1  A    between atoms: N_15  and  C_23
    2  A    between atoms: C_21  and  C_35
    3  A    between atoms: C_22  and  C_26
    4  A    between atoms: C_23  and  C_50
    5  A    between atoms: C_31  and  O_39
    6  A    between atoms: C_34  and  C_61
    7  A    between atoms: C_37  and  N_44
                            x       y       z     vdW  Elec       q    Type
                         _______ _______ _______ _____ _____    ______ ____

>  <TORSDO>
F 7

$$$$
=
 OpenBabel11072408323D

 62 67  0  0  1  0  0  0  0  0999 V2000
  189.6320  173.7310  140.3260 C   0  0  0  0  0  2  0  0  0  0  0  0
  194.1330  171.3000  137.3140 C   0  0  0  0  0  0  0  0  0  0  0  0
  193.8760  175.4480  144.3200 C   0  0  0  0  0  2  0  0  0  0  0  0
  190.9030  172.2670  139.0180 C   0  0  1  0  0  0  0  0  0  0  0  0
  194.0520  170.3430  146.0910 O   0  0  0  0  0  0  0  0  0  0  0  0
  195.6650  173.1880  141.4710 O   0  0  0  0  0  1  0  0  0  0  0  0
  195.3020  170.8330  143.0950 C   0  0  1  0  0  3  0  0  0  0  0  0
  195.2150  174.7170  146.3590 C   0  0  0  0  0  2  0  0  0  0  0  0
  190.8610  173.5440  139.6620 O   0  0  0  0  0  0  0  0  0  0  0  0
  192.2100  173.8790  143.2630 N   0  0  0  0  0  0  0  0  0  0  0  0
  194.4780  171.0510  135.9520 N   0  0  0  0  0  2  0  0  0  0  0  0
  192.8400  171.4900  143.4910 C   0  0  2  0  0  3  0  0  0  0  0  0
  190.4220  172.4180  137.7170 O   0  0  0  0  0  1  0  0  0  0  0  0
  193.4000  172.5120  139.8150 C   0  0  0  0  0  2  0  0  0  0  0  0
  190.0650  171.3910  141.2320 C   0  0  2  0  0  3  0  0  0  0  0  0
  194.4170  175.8340  145.6920 C   0  0  1  0  0  3  0  0  0  0  0  0
  195.8280  169.5510  141.0900 O   0  0  0  0  0  1  0  0  0  0  0  0
  192.6170  174.5810  144.4880 C   0  0  2  0  0  3  0  0  0  0  0  0
  191.4420  171.0810  143.0200 C   0  0  0  0  0  2  0  0  0  0  0  0
  196.2950  172.0120  146.2160 O   0  0  0  0  0  0  0  0  0  0  0  0
  195.2450  171.7310  138.2450 C   0  0  2  0  0  0  0  0  0  0  0  0
  195.7190  170.4780  145.7580 P   0  0  2  0  0  0  0  0  0  0  0  0
  189.5650  172.8140  141.5540 C   0  0  0  0  0  2  0  0  0  0  0  0
  196.2860  170.7880  138.1420 O   0  0  0  0  0  1  0  0  0  0  0  0
  196.0680  170.0280  144.0770 N   0  0  0  0  0  0  0  0  0  0  0  0
  196.0080  170.7890  141.7240 C   0  0  1  0  0  3  0  0  0  0  0  0
  196.4530  169.4900  146.6440 O   0  0  0  0  0  1  0  0  0  0  0  0
  196.3130  174.2830  145.5160 N   0  0  0  0  0  0  0  0  0  0  0  0
  193.2130  172.8700  142.9480 C   0  0  0  0  0  2  0  0  0  0  0  0
  195.7770  171.9820  140.7860 C   0  0  1  0  0  3  0  0  0  0  0  0
  196.0670  172.8840  145.1380 C   0  0  0  0  0  2  0  0  0  0  0  0
  192.8640  171.4170  137.6250 N   0  0  0  0  0  0  0  0  0  0  0  0
  192.3680  171.7380  138.9820 C   0  0  2  0  0  3  0  0  0  0  0  0
  191.3950  171.2410  141.6260 O   0  0  0  0  0  0  0  0  0  0  0  0
  193.8210  170.4250  142.9950 C   0  0  0  0  0  2  0  0  0  0  0  0
  194.7160  171.7500  139.7060 C   0  0  1  0  0  3  0  0  0  0  0  0
  195.8250  168.5910  143.9140 C   0  0  0  0  0  1  0  0  0  0  0  0
  190.0450  171.1740  139.7240 C   0  0  0  0  0  2  0  0  0  0  0  0
  192.1760  174.8020  142.1270 C   0  0  0  0  0  1  0  0  0  0  0  0
  190.3990  177.4260  145.6130 C   0  0  0  0  0  3  0  0  0  0  0  0
  191.4650  175.3260  145.0780 C   0  0  0  0  0  0  0  0  0  0  0  0
  191.4510  176.7230  145.0260 C   0  0  0  0  0  3  0  0  0  0  0  0
  189.3690  175.3450  146.2940 C   0  0  0  0  0  3  0  0  0  0  0  0
  190.4190  174.6380  145.7100 C   0  0  0  0  0  3  0  0  0  0  0  0
  189.3670  176.7390  146.2630 C   0  0  0  0  0  0  0  0  0  0  0  0
  187.3420  177.8550  145.9020 F   0  0  0  0  0  0  0  0  0  0  0  0
  188.2450  177.4960  146.8850 C   0  0  0  0  0  2  0  0  0  0  0  0
  195.9030  177.5310  144.5620 O   0  0  0  0  0  0  0  0  0  0  0  0
  194.9560  177.9740  146.6040 O   0  0  0  0  0  1  0  0  0  0  0  0
  195.1320  177.1530  145.6620 C   0  0  0  0  0  0  0  0  0  0  0  0
  197.0680  173.0670  137.6680 C   0  0  0  0  0  1  0  0  0  0  0  0
  195.6700  173.0240  137.8150 O   0  0  0  0  0  0  0  0  0  0  0  0
  197.5320  174.3930  146.3210 C   0  0  0  0  0  2  0  0  0  0  0  0
  197.4470  173.5770  147.4580 O   0  0  0  0  0  1  0  0  0  0  0  0
  194.1110  169.8300  135.2750 C   0  0  0  0  0  2  0  0  0  0  0  0
  189.5280  170.0840  135.8750 O   0  0  0  0  0  1  0  0  0  0  0  0
  192.0660  168.6390  134.5130 C   0  0  0  0  0  2  0  0  0  0  0  0
  191.0750  171.8060  134.5130 C   0  0  0  0  0  1  0  0  0  0  0  0
  191.8210  170.8470  135.4580 C   0  0  1  0  0  3  0  0  0  0  0  0
  190.8720  169.8720  136.1950 C   0  0  2  0  0  3  0  0  0  0  0  0
  192.7450  169.9760  134.6250 C   0  0  1  0  0  3  0  0  0  0  0  0
  191.2840  168.4710  135.7980 C   0  0  0  0  0  2  0  0  0  0  0  0
  1 23  1  0  0  0  0
  2 32  2  0  0  0  0
  2 21  1  0  0  0  0
  3 18  1  0  0  0  0
  3 16  1  0  0  0  0
  4 13  1  6  0  0  0
  4  9  1  0  0  0  0
  4 38  1  0  0  0  0
  7 35  1  6  0  0  0
  7 25  1  0  0  0  0
  9  1  1  0  0  0  0
 10 18  1  0  0  0  0
 11  2  1  0  0  0  0
 12 29  1  6  0  0  0
 15 38  1  6  0  0  0
 15 23  1  0  0  0  0
 15 34  1  0  0  0  0
 16 50  1  6  0  0  0
 16  8  1  0  0  0  0
 18 41  1  6  0  0  0
 19 12  1  0  0  0  0
 21 24  1  6  0  0  0
 21 36  1  0  0  0  0
 22  5  2  1  0  0  0
 22 20  1  0  0  0  0
 22 27  1  0  0  0  0
 25 22  1  0  0  0  0
 26 17  1  6  0  0  0
 26  7  1  0  0  0  0
 28 53  1  0  0  0  0
 28  8  1  0  0  0  0
 29 10  1  0  0  0  0
 30  6  1  1  0  0  0
 30 26  1  0  0  0  0
 31 28  1  0  0  0  0
 31 20  1  0  0  0  0
 32 33  1  0  0  0  0
 33  4  1  0  0  0  0
 33 14  1  6  0  0  0
 34 19  1  0  0  0  0
 35 12  1  0  0  0  0
 36 14  1  6  0  0  0
 36 30  1  0  0  0  0
 37 25  1  0  0  0  0
 39 10  1  0  0  0  0
 40 45  1  0  0  0  0
 41 44  2  0  0  0  0
 42 41  1  0  0  0  0
 42 40  2  0  0  0  0
 44 43  1  0  0  0  0
 45 43  2  0  0  0  0
 45 47  1  0  0  0  0
 46 47  1  0  0  0  0
 48 50  2  0  0  0  0
 50 49  1  0  0  0  0
 51 52  1  0  0  0  0
 52 21  1  0  0  0  0
 53 54  1  0  0  0  0
 55 11  1  0  0  0  0
 57 61  1  0  0  0  0
 57 62  1  0  0  0  0
 59 58  1  6  0  0  0
 59 60  1  0  0  0  0
 60 56  1  6  0  0  0
 61 55  1  1  0  0  0
 61 59  1  0  0  0  0
 62 60  1  0  0  0  0
M  END
>  <MODEL>
4

>  <REMARK>
 VINA RESULT:      -3.1      3.475      8.943
  Name = 
  7 active torsions:
  status: ('A' for Active; 'I' for Inactive)
    1  A    between atoms: N_15  and  C_23
    2  A    between atoms: C_21  and  C_35
    3  A    between atoms: C_22  and  C_26
    4  A    between atoms: C_23  and  C_50
    5  A    between atoms: C_31  and  O_39
    6  A    between atoms: C_34  and  C_61
    7  A    between atoms: C_37  and  N_44
                            x       y       z     vdW  Elec       q    Type
                         _______ _______ _______ _____ _____    ______ ____

>  <TORSDO>
F 7

$$$$
=
 OpenBabel11072408323D

 62 67  0  0  1  0  0  0  0  0999 V2000
  189.8680  174.2290  142.0030 C   0  0  0  0  0  2  0  0  0  0  0  0
  187.5840  175.0070  136.5790 C   0  0  0  0  0  0  0  0  0  0  0  0
  195.2460  174.0670  139.1810 C   0  0  0  0  0  2  0  0  0  0  0  0
  188.4530  174.1110  140.1450 C   0  0  1  0  0  0  0  0  0  0  0  0
  194.0460  169.0650  137.5180 O   0  0  0  0  0  1  0  0  0  0  0  0
  192.3480  174.3390  136.3610 O   0  0  0  0  0  1  0  0  0  0  0  0
  192.3010  171.4660  136.1160 C   0  0  1  0  0  3  0  0  0  0  0  0
  196.8990  172.5600  137.9630 C   0  0  0  0  0  2  0  0  0  0  0  0
  189.6190  174.7210  140.7070 O   0  0  0  0  0  0  0  0  0  0  0  0
  193.0740  173.1290  140.0540 N   0  0  0  0  0  0  0  0  0  0  0  0
  186.4760  175.6850  135.9890 N   0  0  0  0  0  2  0  0  0  0  0  0
  192.2030  171.2530  138.6850 C   0  0  2  0  0  3  0  0  0  0  0  0
  187.3480  174.9000  140.4680 O   0  0  0  0  0  1  0  0  0  0  0  0
  189.9810  174.3330  138.0130 C   0  0  0  0  0  2  0  0  0  0  0  0
  189.5020  171.9520  140.9260 C   0  0  2  0  0  3  0  0  0  0  0  0
  196.7050  173.6680  138.9950 C   0  0  1  0  0  3  0  0  0  0  0  0
  190.1970  171.7510  134.9190 O   0  0  0  0  0  1  0  0  0  0  0  0
  194.5400  173.0380  140.0800 C   0  0  2  0  0  3  0  0  0  0  0  0
  191.1850  170.9300  139.7820 C   0  0  0  0  0  2  0  0  0  0  0  0
  195.7050  170.7460  136.0170 O   0  0  0  0  0  0  0  0  0  0  0  0
  188.8920  175.0180  135.8180 C   0  0  2  0  0  0  0  0  0  0  0  0
  194.3630  169.7000  135.9680 P   0  0  2  0  0  0  0  0  0  0  0  0
  190.3460  172.7750  141.9200 C   0  0  0  0  0  2  0  0  0  0  0  0
  188.6370  174.5500  134.5140 O   0  0  0  0  0  1  0  0  0  0  0  0
  192.8970  170.4100  135.2630 N   0  0  0  0  0  0  0  0  0  0  0  0
  191.4030  172.3810  135.2590 C   0  0  1  0  0  3  0  0  0  0  0  0
  194.7780  168.5520  135.0690 O   0  0  0  0  0  0  0  0  0  0  0  0
  196.3380  172.9390  136.6790 N   0  0  0  0  0  0  0  0  0  0  0  0
  192.6050  172.7270  138.7340 C   0  0  0  0  0  2  0  0  0  0  0  0
  191.2080  173.8220  135.7530 C   0  0  1  0  0  3  0  0  0  0  0  0
  195.2320  172.0180  136.3800 C   0  0  0  0  0  2  0  0  0  0  0  0
  187.5030  174.6610  137.8420 N   0  0  0  0  0  0  0  0  0  0  0  0
  188.5990  174.0120  138.5970 C   0  0  2  0  0  3  0  0  0  0  0  0
  190.1450  171.8690  139.6920 O   0  0  0  0  0  0  0  0  0  0  0  0
  191.5540  170.9090  137.3420 C   0  0  0  0  0  2  0  0  0  0  0  0
  189.9020  174.0650  136.5150 C   0  0  1  0  0  3  0  0  0  0  0  0
  191.9430  169.3340  134.9770 C   0  0  0  0  0  1  0  0  0  0  0  0
  188.1820  172.6670  140.6660 C   0  0  0  0  0  2  0  0  0  0  0  0
  192.6410  174.5150  140.2460 C   0  0  0  0  0  1  0  0  0  0  0  0
  195.5600  171.8360  143.5140 C   0  0  0  0  0  3  0  0  0  0  0  0
  195.0460  173.0410  141.4850 C   0  0  0  0  0  0  0  0  0  0  0  0
  195.1290  171.8340  142.1880 C   0  0  0  0  0  3  0  0  0  0  0  0
  195.8360  174.2380  143.4380 C   0  0  0  0  0  3  0  0  0  0  0  0
  195.4040  174.2430  142.1130 C   0  0  0  0  0  3  0  0  0  0  0  0
  195.8960  173.0390  144.1470 C   0  0  0  0  0  0  0  0  0  0  0  0
  197.1800  174.1230  145.7750 F   0  0  0  0  0  0  0  0  0  0  0  0
  196.3590  173.0320  145.5620 C   0  0  0  0  0  2  0  0  0  0  0  0
  197.9410  175.2700  137.4880 O   0  0  0  0  0  0  0  0  0  0  0  0
  197.9410  175.5620  139.7640 O   0  0  0  0  0  1  0  0  0  0  0  0
  197.5890  174.8610  138.7750 C   0  0  0  0  0  0  0  0  0  0  0  0
  189.9070  176.6940  134.5530 C   0  0  0  0  0  1  0  0  0  0  0  0
  189.3540  176.3680  135.8050 O   0  0  0  0  0  0  0  0  0  0  0  0
  197.4100  172.7940  135.6910 C   0  0  0  0  0  2  0  0  0  0  0  0
  197.1690  173.6110  134.5780 O   0  0  0  0  0  1  0  0  0  0  0  0
  185.1870  175.0560  135.8230 C   0  0  0  0  0  2  0  0  0  0  0  0
  180.6420  175.7380  136.3770 O   0  0  0  0  0  1  0  0  0  0  0  0
  183.3920  176.4950  134.8790 C   0  0  0  0  0  2  0  0  0  0  0  0
  182.5950  176.4000  138.0980 C   0  0  0  0  0  1  0  0  0  0  0  0
  182.9920  175.4030  136.9940 C   0  0  1  0  0  3  0  0  0  0  0  0
  181.8260  175.0820  136.0300 C   0  0  2  0  0  3  0  0  0  0  0  0
  184.0730  176.0410  136.1400 C   0  0  1  0  0  3  0  0  0  0  0  0
  182.2670  175.5090  134.6470 C   0  0  0  0  0  2  0  0  0  0  0  0
  2 32  2  0  0  0  0
  3 18  1  0  0  0  0
  4 13  1  1  0  0  0
  4 38  1  0  0  0  0
  4  9  1  0  0  0  0
  7 35  1  1  0  0  0
  8 16  1  0  0  0  0
  9  1  1  0  0  0  0
 10 18  1  0  0  0  0
 10 39  1  0  0  0  0
 11  2  1  0  0  0  0
 12 35  1  6  0  0  0
 12 29  1  0  0  0  0
 12 19  1  0  0  0  0
 15 38  1  6  0  0  0
 15 23  1  0  0  0  0
 16 50  1  6  0  0  0
 16  3  1  0  0  0  0
 18 41  1  1  0  0  0
 20 31  1  0  0  0  0
 21 24  1  6  0  0  0
 21 36  1  0  0  0  0
 21  2  1  0  0  0  0
 22 27  2  6  0  0  0
 22 20  1  0  0  0  0
 22  5  1  0  0  0  0
 23  1  1  0  0  0  0
 25 22  1  0  0  0  0
 25  7  1  0  0  0  0
 26 17  1  1  0  0  0
 26 30  1  0  0  0  0
 26  7  1  0  0  0  0
 28  8  1  0  0  0  0
 29 10  1  0  0  0  0
 30  6  1  1  0  0  0
 30 36  1  0  0  0  0
 31 28  1  0  0  0  0
 32 33  1  0  0  0  0
 33 14  1  6  0  0  0
 33  4  1  0  0  0  0
 34 19  1  0  0  0  0
 34 15  1  0  0  0  0
 36 14  1  1  0  0  0
 37 25  1  0  0  0  0
 40 45  1  0  0  0  0
 41 44  2  0  0  0  0
 41 42  1  0  0  0  0
 42 40  2  0  0  0  0
 43 45  2  0  0  0  0
 44 43  1  0  0  0  0
 45 47  1  0  0  0  0
 47 46  1  0  0  0  0
 48 50  2  0  0  0  0
 50 49  1  0  0  0  0
 51 52  1  0  0  0  0
 52 21  1  0  0  0  0
 53 28  1  0  0  0  0
 54 53  1  0  0  0  0
 55 11  1  0  0  0  0
 57 61  1  0  0  0  0
 59 58  1  1  0  0  0
 60 56  1  1  0  0  0
 60 59  1  0  0  0  0
 61 55  1  6  0  0  0
 61 59  1  0  0  0  0
 62 57  1  0  0  0  0
 62 60  1  0  0  0  0
M  END
>  <MODEL>
5

>  <REMARK>
 VINA RESULT:      -2.7      5.279      8.453
  Name = 
  7 active torsions:
  status: ('A' for Active; 'I' for Inactive)
    1  A    between atoms: N_15  and  C_23
    2  A    between atoms: C_21  and  C_35
    3  A    between atoms: C_22  and  C_26
    4  A    between atoms: C_23  and  C_50
    5  A    between atoms: C_31  and  O_39
    6  A    between atoms: C_34  and  C_61
    7  A    between atoms: C_37  and  N_44
                            x       y       z     vdW  Elec       q    Type
                         _______ _______ _______ _____ _____    ______ ____

>  <TORSDO>
F 7

$$$$
