=
 OpenBabel11062421033D

 38 41  0  0  1  0  0  0  0  0999 V2000
  195.0760  174.5530  144.6860 C   0  0  0  0  0  3  0  0  0  0  0  0
  195.0840  176.9660  144.9990 N   0  0  0  0  0  1  0  0  0  0  0  0
  192.6140  174.9270  144.7510 C   0  0  0  0  0  0  0  0  0  0  0  0
  193.4290  176.0380  142.6350 C   0  0  0  0  0  3  0  0  0  0  0  0
  195.3980  175.8790  144.0830 C   0  0  2  0  0  3  0  0  0  0  0  0
  193.8440  174.1110  144.9850 C   0  0  0  0  0  0  0  0  0  0  0  0
  194.7170  176.0620  142.8080 N   0  0  0  0  0  0  0  0  0  0  0  0
  192.4570  175.7550  143.7040 C   0  0  0  0  0  3  0  0  0  0  0  0
  190.8240  176.2580  145.9730 C   0  0  1  0  0  3  0  0  0  0  0  0
  191.7440  175.7050  147.0410 C   0  0  2  0  0  3  0  0  0  0  0  0
  192.9490  176.4060  147.0080 O   0  0  0  0  0  1  0  0  0  0  0  0
  191.4830  174.9000  145.7570 C   0  0  2  0  0  3  0  0  0  0  0  0
  189.3720  176.0710  146.3970 C   0  0  2  0  0  3  0  0  0  0  0  0
  189.1340  174.6010  146.7030 C   0  0  0  0  0  1  0  0  0  0  0  0
  189.1100  177.0210  144.1860 O   0  0  0  0  0  1  0  0  0  0  0  0
  188.4130  176.5310  145.2960 C   0  0  2  0  0  3  0  0  0  0  0  0
  187.4200  177.5770  145.8180 C   0  0  2  0  0  3  0  0  0  0  0  0
  187.2440  177.4230  147.3170 C   0  0  0  0  0  2  0  0  0  0  0  0
  183.9240  178.6100  145.2480 O   0  0  0  0  0  0  0  0  0  0  0  0
  186.0580  177.5310  145.0950 C   0  0  1  0  0  3  0  0  0  0  0  0
  186.4340  178.6020  147.8290 C   0  0  0  0  0  2  0  0  0  0  0  0
  185.1760  178.6820  147.1660 O   0  0  0  0  0  0  0  0  0  0  0  0
  185.0120  178.3390  145.8210 C   0  0  0  0  0  0  0  0  0  0  0  0
  186.1930  177.9880  143.7790 O   0  0  0  0  0  0  0  0  0  0  0  0
  185.7460  176.9290  142.9830 C   0  0  0  0  0  2  0  0  0  0  0  0
  186.6380  176.7850  141.7730 C   0  0  0  0  0  1  0  0  0  0  0  0
  193.6830  172.8350  145.5560 O   0  0  0  0  0  0  0  0  0  0  0  0
  194.0130  171.5940  144.9280 C   0  0  1  0  0  3  0  0  0  0  0  0
  194.7060  170.6530  145.8950 C   0  0  0  0  0  1  0  0  0  0  0  0
  192.8750  170.9980  144.3750 O   0  0  0  0  0  0  0  0  0  0  0  0
  192.8960  171.3650  143.0260 C   0  0  0  0  0  2  0  0  0  0  0  0
  189.0980  173.6560  143.0200 C   0  0  0  0  0  3  0  0  0  0  0  0
  190.6730  173.6830  141.1000 C   0  0  0  0  0  3  0  0  0  0  0  0
  191.5680  171.9190  142.6370 C   0  0  0  0  0  0  0  0  0  0  0  0
  191.4650  172.6370  141.3510 C   0  0  0  0  0  3  0  0  0  0  0  0
  189.2010  172.1800  143.1890 C   0  0  0  0  0  2  0  0  0  0  0  0
  190.5720  171.7740  143.4580 N   0  0  0  0  0  0  0  0  0  0  0  0
  189.7400  174.3080  142.0570 C   0  0  0  0  0  3  0  0  0  0  0  0
  1  6  2  0  0  0  0
  3  6  1  0  0  0  0
  4  7  2  0  0  0  0
  4  8  1  0  0  0  0
  5  1  1  0  0  0  0
  5  2  1  1  0  0  0
  6 27  1  0  0  0  0
  7  5  1  0  0  0  0
  8  3  2  0  0  0  0
  9 13  1  1  0  0  0
  9 10  1  0  0  0  0
 10 11  1  6  0  0  0
 12  3  1  6  0  0  0
 12  9  1  0  0  0  0
 12 10  1  0  0  0  0
 13 14  1  6  0  0  0
 16 15  1  6  0  0  0
 16 13  1  0  0  0  0
 17 16  1  6  0  0  0
 17 18  1  0  0  0  0
 18 21  1  0  0  0  0
 19 23  2  0  0  0  0
 20 24  1  6  0  0  0
 20 17  1  0  0  0  0
 20 23  1  0  0  0  0
 22 21  1  0  0  0  0
 23 22  1  0  0  0  0
 25 24  1  0  0  0  0
 26 25  1  0  0  0  0
 28 27  1  0  0  0  0
 28 29  1  1  0  0  0
 30 28  1  0  0  0  0
 31 30  1  0  0  0  0
 32 36  1  0  0  0  0
 33 35  2  0  0  0  0
 33 38  1  0  0  0  0
 34 31  1  0  0  0  0
 34 37  2  0  0  0  0
 35 34  1  0  0  0  0
 36 37  1  0  0  0  0
 38 32  2  0  0  0  0
M  END
>  <MODEL>
1

>  <REMARK>
 VINA RESULT:      -6.8      0.000      0.000
  Name = 
  11 active torsions:
  status: ('A' for Active; 'I' for Inactive)
    1  A    between atoms: C_2  and  C_20
    2  A    between atoms: C_5  and  C_32
    3  A    between atoms: C_11  and  O_15
    4  A    between atoms: C_11  and  O_21
    5  A    between atoms: C_12  and  C_27
    6  A    between atoms: C_13  and  O_19
    7  A    between atoms: O_15  and  C_36
    8  A    between atoms: C_16  and  C_36
    9  A    between atoms: O_19  and  C_22
   10  A    between atoms: C_20  and  C_32
   11  A    between atoms: O_21  and  C_30
                            x       y       z     vdW  Elec       q    Type
                         _______ _______ _______ _____ _____    ______ ____

>  <TORSDO>
F 11

$$$$
=
 OpenBabel11062421033D

 38 41  0  0  1  0  0  0  0  0999 V2000
  185.8000  179.1340  145.1080 C   0  0  0  0  0  3  0  0  0  0  0  0
  186.2630  179.3410  147.4880 N   0  0  0  0  0  1  0  0  0  0  0  0
  187.2590  177.1330  145.3790 C   0  0  0  0  0  0  0  0  0  0  0  0
  185.1530  176.6380  146.6820 C   0  0  0  0  0  3  0  0  0  0  0  0
  185.2380  179.0790  146.4880 C   0  0  2  0  0  3  0  0  0  0  0  0
  186.6960  178.2740  144.5960 C   0  0  0  0  0  0  0  0  0  0  0  0
  184.5800  177.8030  146.7430 N   0  0  0  0  0  0  0  0  0  0  0  0
  186.5530  176.4260  146.2790 C   0  0  0  0  0  3  0  0  0  0  0  0
  189.2600  175.9370  146.3950 C   0  0  1  0  0  3  0  0  0  0  0  0
  189.6570  177.3940  146.2670 C   0  0  2  0  0  3  0  0  0  0  0  0
  188.9760  178.1340  147.2330 O   0  0  0  0  0  1  0  0  0  0  0  0
  188.7180  176.7560  145.2290 C   0  0  2  0  0  3  0  0  0  0  0  0
  190.4050  175.0500  145.9200 C   0  0  2  0  0  3  0  0  0  0  0  0
  189.8320  173.7300  145.4270 C   0  0  0  0  0  1  0  0  0  0  0  0
  191.0270  175.4480  148.2250 O   0  0  0  0  0  1  0  0  0  0  0  0
  191.4040  174.7880  147.0500 C   0  0  2  0  0  3  0  0  0  0  0  0
  192.8290  175.1800  146.6410 C   0  0  2  0  0  3  0  0  0  0  0  0
  192.9230  176.6830  146.4620 C   0  0  0  0  0  2  0  0  0  0  0  0
  195.2420  174.4450  143.9490 O   0  0  0  0  0  0  0  0  0  0  0  0
  193.3190  174.4430  145.3770 C   0  0  1  0  0  3  0  0  0  0  0  0
  194.3850  177.0540  146.2750 C   0  0  0  0  0  2  0  0  0  0  0  0
  194.9460  176.3660  145.1630 O   0  0  0  0  0  0  0  0  0  0  0  0
  194.5770  175.0620  144.8220 C   0  0  0  0  0  0  0  0  0  0  0  0
  193.5320  173.0880  145.6600 O   0  0  0  0  0  0  0  0  0  0  0  0
  192.9560  172.4030  144.5850 C   0  0  0  0  0  2  0  0  0  0  0  0
  193.4540  170.9770  144.5610 C   0  0  0  0  0  1  0  0  0  0  0  0
  187.1470  178.4460  143.2740 O   0  0  0  0  0  0  0  0  0  0  0  0
  186.9020  177.5500  142.1880 C   0  0  1  0  0  3  0  0  0  0  0  0
  185.9630  178.1650  141.1670 C   0  0  0  0  0  1  0  0  0  0  0  0
  188.1020  177.1510  141.5920 O   0  0  0  0  0  0  0  0  0  0  0  0
  187.8010  175.9480  140.9470 C   0  0  0  0  0  2  0  0  0  0  0  0
  189.8400  172.0720  141.6450 C   0  0  0  0  0  3  0  0  0  0  0  0
  190.9650  174.2550  142.0170 C   0  0  0  0  0  3  0  0  0  0  0  0
  188.5690  174.8360  141.5770 C   0  0  0  0  0  0  0  0  0  0  0  0
  189.9440  175.1160  142.0360 C   0  0  0  0  0  3  0  0  0  0  0  0
  188.5880  172.5090  142.3240 C   0  0  0  0  0  2  0  0  0  0  0  0
  188.0080  173.6680  141.6630 N   0  0  0  0  0  0  0  0  0  0  0  0
  190.9070  172.8570  141.5460 C   0  0  0  0  0  3  0  0  0  0  0  0
  1  5  1  0  0  0  0
  3  8  2  0  0  0  0
  4  7  2  0  0  0  0
  5  7  1  0  0  0  0
  5  2  1  1  0  0  0
  6  1  2  0  0  0  0
  6  3  1  0  0  0  0
  8  4  1  0  0  0  0
  9 13  1  6  0  0  0
 10  9  1  0  0  0  0
 10 11  1  1  0  0  0
 12  3  1  1  0  0  0
 12 10  1  0  0  0  0
 12  9  1  0  0  0  0
 13 14  1  1  0  0  0
 13 16  1  0  0  0  0
 16 15  1  1  0  0  0
 17 16  1  6  0  0  0
 18 17  1  0  0  0  0
 19 23  2  0  0  0  0
 20 24  1  1  0  0  0
 20 17  1  0  0  0  0
 21 18  1  0  0  0  0
 22 21  1  0  0  0  0
 23 22  1  0  0  0  0
 23 20  1  0  0  0  0
 25 24  1  0  0  0  0
 26 25  1  0  0  0  0
 27  6  1  0  0  0  0
 28 29  1  6  0  0  0
 28 27  1  0  0  0  0
 30 28  1  0  0  0  0
 31 34  1  0  0  0  0
 31 30  1  0  0  0  0
 32 36  1  0  0  0  0
 33 35  2  0  0  0  0
 34 37  2  0  0  0  0
 34 35  1  0  0  0  0
 37 36  1  0  0  0  0
 38 32  2  0  0  0  0
 38 33  1  0  0  0  0
M  END
>  <MODEL>
2

>  <REMARK>
 VINA RESULT:      -6.8      2.686      7.344
  Name = 
  11 active torsions:
  status: ('A' for Active; 'I' for Inactive)
    1  A    between atoms: C_2  and  C_20
    2  A    between atoms: C_5  and  C_32
    3  A    between atoms: C_11  and  O_15
    4  A    between atoms: C_11  and  O_21
    5  A    between atoms: C_12  and  C_27
    6  A    between atoms: C_13  and  O_19
    7  A    between atoms: O_15  and  C_36
    8  A    between atoms: C_16  and  C_36
    9  A    between atoms: O_19  and  C_22
   10  A    between atoms: C_20  and  C_32
   11  A    between atoms: O_21  and  C_30
                            x       y       z     vdW  Elec       q    Type
                         _______ _______ _______ _____ _____    ______ ____

>  <TORSDO>
F 11

$$$$
=
 OpenBabel11062421033D

 38 41  0  0  1  0  0  0  0  0999 V2000
  185.2170  177.7520  143.7260 C   0  0  0  0  0  3  0  0  0  0  0  0
  185.2940  180.1410  144.1860 N   0  0  0  0  0  1  0  0  0  0  0  0
  186.8720  177.7190  145.5880 C   0  0  0  0  0  0  0  0  0  0  0  0
  184.6810  178.4390  146.6190 C   0  0  0  0  0  3  0  0  0  0  0  0
  184.4700  178.9410  144.2300 C   0  0  2  0  0  3  0  0  0  0  0  0
  186.2840  177.1920  144.3190 C   0  0  0  0  0  0  0  0  0  0  0  0
  183.9570  178.7140  145.5750 N   0  0  0  0  0  0  0  0  0  0  0  0
  186.1400  178.2490  146.5840 C   0  0  0  0  0  3  0  0  0  0  0  0
  189.0770  176.5160  145.1930 C   0  0  1  0  0  3  0  0  0  0  0  0
  188.9170  176.6240  146.6950 C   0  0  2  0  0  3  0  0  0  0  0  0
  187.9300  175.7300  147.1100 O   0  0  0  0  0  1  0  0  0  0  0  0
  188.3730  177.7340  145.7800 C   0  0  2  0  0  3  0  0  0  0  0  0
  190.5050  176.8780  144.8010 C   0  0  2  0  0  3  0  0  0  0  0  0
  190.4650  178.0070  143.7830 C   0  0  0  0  0  1  0  0  0  0  0  0
  190.5550  174.4800  144.4780 O   0  0  0  0  0  1  0  0  0  0  0  0
  191.2350  175.6720  144.2050 C   0  0  2  0  0  3  0  0  0  0  0  0
  192.6850  175.5950  144.6970 C   0  0  2  0  0  3  0  0  0  0  0  0
  192.8250  176.3280  146.0170 C   0  0  0  0  0  2  0  0  0  0  0  0
  196.0630  176.5110  143.5300 O   0  0  0  0  0  0  0  0  0  0  0  0
  193.7030  176.1200  143.6640 C   0  0  1  0  0  3  0  0  0  0  0  0
  194.2090  176.0460  146.5790 C   0  0  0  0  0  2  0  0  0  0  0  0
  195.2220  176.4400  145.6600 O   0  0  0  0  0  0  0  0  0  0  0  0
  195.0660  176.3240  144.2760 C   0  0  0  0  0  0  0  0  0  0  0  0
  193.7880  175.2400  142.5780 O   0  0  0  0  0  0  0  0  0  0  0  0
  194.0710  173.9950  143.1470 C   0  0  0  0  0  2  0  0  0  0  0  0
  194.9010  173.1720  142.1890 C   0  0  0  0  0  1  0  0  0  0  0  0
  186.8980  176.0710  143.7300 O   0  0  0  0  0  0  0  0  0  0  0  0
  186.9690  175.8020  142.3290 C   0  0  1  0  0  3  0  0  0  0  0  0
  187.8140  176.8370  141.6100 C   0  0  0  0  0  1  0  0  0  0  0  0
  187.4500  174.5100  142.0940 O   0  0  0  0  0  0  0  0  0  0  0  0
  188.5000  174.6760  141.1860 C   0  0  0  0  0  2  0  0  0  0  0  0
  190.6420  170.7940  141.0890 C   0  0  0  0  0  3  0  0  0  0  0  0
  191.7210  172.9280  140.4160 C   0  0  0  0  0  3  0  0  0  0  0  0
  189.5160  173.6050  141.3930 C   0  0  0  0  0  0  0  0  0  0  0  0
  190.8900  173.8490  140.9110 C   0  0  0  0  0  3  0  0  0  0  0  0
  190.0240  171.3940  142.3040 C   0  0  0  0  0  2  0  0  0  0  0  0
  189.1400  172.4960  141.9560 N   0  0  0  0  0  0  0  0  0  0  0  0
  191.4270  171.4890  140.2730 C   0  0  0  0  0  3  0  0  0  0  0  0
  1  5  1  0  0  0  0
  1  6  2  0  0  0  0
  3  8  2  0  0  0  0
  5  2  1  1  0  0  0
  5  7  1  0  0  0  0
  6  3  1  0  0  0  0
  7  4  2  0  0  0  0
  8  4  1  0  0  0  0
  9 13  1  1  0  0  0
  9 12  1  0  0  0  0
  9 10  1  0  0  0  0
 10 11  1  6  0  0  0
 12  3  1  6  0  0  0
 12 10  1  0  0  0  0
 13 14  1  6  0  0  0
 16 15  1  1  0  0  0
 16 13  1  0  0  0  0
 17 16  1  6  0  0  0
 17 18  1  0  0  0  0
 18 21  1  0  0  0  0
 19 23  2  0  0  0  0
 20 24  1  6  0  0  0
 20 23  1  0  0  0  0
 20 17  1  0  0  0  0
 22 21  1  0  0  0  0
 23 22  1  0  0  0  0
 24 25  1  0  0  0  0
 26 25  1  0  0  0  0
 27  6  1  0  0  0  0
 28 29  1  6  0  0  0
 28 27  1  0  0  0  0
 30 28  1  0  0  0  0
 31 34  1  0  0  0  0
 31 30  1  0  0  0  0
 32 36  1  0  0  0  0
 33 35  2  0  0  0  0
 34 37  2  0  0  0  0
 35 34  1  0  0  0  0
 37 36  1  0  0  0  0
 38 33  1  0  0  0  0
 38 32  2  0  0  0  0
M  END
>  <MODEL>
3

>  <REMARK>
 VINA RESULT:      -6.6      2.997      7.250
  Name = 
  11 active torsions:
  status: ('A' for Active; 'I' for Inactive)
    1  A    between atoms: C_2  and  C_20
    2  A    between atoms: C_5  and  C_32
    3  A    between atoms: C_11  and  O_15
    4  A    between atoms: C_11  and  O_21
    5  A    between atoms: C_12  and  C_27
    6  A    between atoms: C_13  and  O_19
    7  A    between atoms: O_15  and  C_36
    8  A    between atoms: C_16  and  C_36
    9  A    between atoms: O_19  and  C_22
   10  A    between atoms: C_20  and  C_32
   11  A    between atoms: O_21  and  C_30
                            x       y       z     vdW  Elec       q    Type
                         _______ _______ _______ _____ _____    ______ ____

>  <TORSDO>
F 11

$$$$
=
 OpenBabel11062421033D

 38 41  0  0  1  0  0  0  0  0999 V2000
  185.2600  177.7600  143.6930 C   0  0  0  0  0  3  0  0  0  0  0  0
  185.3750  180.1420  144.1780 N   0  0  0  0  0  1  0  0  0  0  0  0
  186.9400  177.6850  145.5310 C   0  0  0  0  0  0  0  0  0  0  0  0
  184.7740  178.4210  146.6000 C   0  0  0  0  0  3  0  0  0  0  0  0
  184.5360  178.9530  144.2210 C   0  0  2  0  0  3  0  0  0  0  0  0
  186.3280  177.1800  144.2650 C   0  0  0  0  0  0  0  0  0  0  0  0
  184.0380  178.7180  145.5700 N   0  0  0  0  0  0  0  0  0  0  0  0
  186.2300  178.2130  146.5430 C   0  0  0  0  0  3  0  0  0  0  0  0
  189.1220  176.4490  145.1080 C   0  0  1  0  0  3  0  0  0  0  0  0
  188.9840  176.5640  146.6120 C   0  0  2  0  0  3  0  0  0  0  0  0
  187.9910  175.6850  147.0440 O   0  0  0  0  0  1  0  0  0  0  0  0
  188.4440  177.6790  145.7020 C   0  0  2  0  0  3  0  0  0  0  0  0
  190.5490  176.7890  144.6950 C   0  0  2  0  0  3  0  0  0  0  0  0
  190.5170  177.9730  143.7420 C   0  0  0  0  0  1  0  0  0  0  0  0
  191.4650  174.5600  144.9230 O   0  0  0  0  0  1  0  0  0  0  0  0
  191.2240  175.5960  144.0130 C   0  0  2  0  0  3  0  0  0  0  0  0
  192.5210  176.0120  143.3090 C   0  0  2  0  0  3  0  0  0  0  0  0
  192.7500  175.1440  142.0870 C   0  0  0  0  0  2  0  0  0  0  0  0
  196.1150  176.3340  144.0780 O   0  0  0  0  0  0  0  0  0  0  0  0
  193.7500  175.9870  144.2410 C   0  0  1  0  0  3  0  0  0  0  0  0
  193.9130  175.7230  141.2970 C   0  0  0  0  0  2  0  0  0  0  0  0
  195.0850  175.8010  142.1020 O   0  0  0  0  0  0  0  0  0  0  0  0
  195.0400  176.0940  143.4680 C   0  0  0  0  0  0  0  0  0  0  0  0
  193.6650  177.0210  145.1820 O   0  0  0  0  0  0  0  0  0  0  0  0
  193.9630  176.4160  146.4070 C   0  0  0  0  0  2  0  0  0  0  0  0
  192.8030  176.5900  147.3590 C   0  0  0  0  0  1  0  0  0  0  0  0
  186.9180  176.0570  143.6550 O   0  0  0  0  0  0  0  0  0  0  0  0
  187.0030  175.8230  142.2480 C   0  0  1  0  0  3  0  0  0  0  0  0
  187.9370  176.8140  141.5790 C   0  0  0  0  0  1  0  0  0  0  0  0
  187.3950  174.5070  141.9860 O   0  0  0  0  0  0  0  0  0  0  0  0
  188.6690  174.6170  141.4190 C   0  0  0  0  0  2  0  0  0  0  0  0
  191.8780  171.5700  141.6980 C   0  0  0  0  0  3  0  0  0  0  0  0
  190.0940  171.7850  143.4120 C   0  0  0  0  0  3  0  0  0  0  0  0
  189.3950  173.3230  141.5630 C   0  0  0  0  0  0  0  0  0  0  0  0
  189.1800  172.5400  142.7960 C   0  0  0  0  0  3  0  0  0  0  0  0
  190.9190  171.6930  140.5650 C   0  0  0  0  0  2  0  0  0  0  0  0
  190.2060  172.9610  140.6150 N   0  0  0  0  0  0  0  0  0  0  0  0
  191.4860  171.5800  142.9670 C   0  0  0  0  0  3  0  0  0  0  0  0
  1  5  1  0  0  0  0
  1  6  2  0  0  0  0
  3  8  2  0  0  0  0
  5  2  1  1  0  0  0
  5  7  1  0  0  0  0
  6  3  1  0  0  0  0
  7  4  2  0  0  0  0
  8  4  1  0  0  0  0
  9 13  1  1  0  0  0
  9 12  1  0  0  0  0
  9 10  1  0  0  0  0
 10 11  1  6  0  0  0
 12  3  1  6  0  0  0
 12 10  1  0  0  0  0
 13 14  1  6  0  0  0
 16 13  1  0  0  0  0
 16 15  1  1  0  0  0
 17 16  1  1  0  0  0
 17 20  1  0  0  0  0
 18 17  1  0  0  0  0
 20 24  1  1  0  0  0
 21 18  1  0  0  0  0
 21 22  1  0  0  0  0
 22 23  1  0  0  0  0
 23 19  2  0  0  0  0
 23 20  1  0  0  0  0
 24 25  1  0  0  0  0
 25 26  1  0  0  0  0
 27  6  1  0  0  0  0
 28 29  1  1  0  0  0
 28 27  1  0  0  0  0
 30 28  1  0  0  0  0
 31 34  1  0  0  0  0
 31 30  1  0  0  0  0
 32 38  2  0  0  0  0
 34 35  1  0  0  0  0
 35 33  2  0  0  0  0
 36 37  1  0  0  0  0
 36 32  1  0  0  0  0
 37 34  2  0  0  0  0
 38 33  1  0  0  0  0
M  END
>  <MODEL>
4

>  <REMARK>
 VINA RESULT:      -6.6      2.959      7.409
  Name = 
  11 active torsions:
  status: ('A' for Active; 'I' for Inactive)
    1  A    between atoms: C_2  and  C_20
    2  A    between atoms: C_5  and  C_32
    3  A    between atoms: C_11  and  O_15
    4  A    between atoms: C_11  and  O_21
    5  A    between atoms: C_12  and  C_27
    6  A    between atoms: C_13  and  O_19
    7  A    between atoms: O_15  and  C_36
    8  A    between atoms: C_16  and  C_36
    9  A    between atoms: O_19  and  C_22
   10  A    between atoms: C_20  and  C_32
   11  A    between atoms: O_21  and  C_30
                            x       y       z     vdW  Elec       q    Type
                         _______ _______ _______ _____ _____    ______ ____

>  <TORSDO>
F 11

$$$$
=
 OpenBabel11062421033D

 38 41  0  0  1  0  0  0  0  0999 V2000
  188.4410  173.6540  140.9900 C   0  0  0  0  0  3  0  0  0  0  0  0
  189.6810  171.7670  141.8980 N   0  0  0  0  0  1  0  0  0  0  0  0
  190.1680  174.9210  142.2620 C   0  0  0  0  0  0  0  0  0  0  0  0
  191.4000  173.7560  140.3900 C   0  0  0  0  0  3  0  0  0  0  0  0
  189.3240  172.4900  140.6860 C   0  0  2  0  0  3  0  0  0  0  0  0
  188.8010  174.7450  141.6850 C   0  0  0  0  0  0  0  0  0  0  0  0
  190.5180  172.9050  139.9600 N   0  0  0  0  0  0  0  0  0  0  0  0
  191.2910  174.4860  141.6640 C   0  0  0  0  0  3  0  0  0  0  0  0
  191.4490  174.9310  144.4590 C   0  0  1  0  0  3  0  0  0  0  0  0
  190.0040  174.6470  144.8120 C   0  0  2  0  0  3  0  0  0  0  0  0
  189.6920  173.3440  144.4250 O   0  0  0  0  0  1  0  0  0  0  0  0
  190.3410  175.5610  143.6230 C   0  0  2  0  0  3  0  0  0  0  0  0
  192.0220  175.9600  145.4260 C   0  0  2  0  0  3  0  0  0  0  0  0
  192.2390  177.2680  144.6810 C   0  0  0  0  0  1  0  0  0  0  0  0
  194.1940  176.5550  146.3120 O   0  0  0  0  0  1  0  0  0  0  0  0
  193.3480  175.4800  146.0210 C   0  0  2  0  0  3  0  0  0  0  0  0
  194.0460  174.4750  145.0960 C   0  0  2  0  0  3  0  0  0  0  0  0
  194.1100  173.1140  145.7630 C   0  0  0  0  0  2  0  0  0  0  0  0
  197.2840  174.0760  143.3740 O   0  0  0  0  0  0  0  0  0  0  0  0
  195.4490  174.9370  144.6500 C   0  0  1  0  0  3  0  0  0  0  0  0
  194.6030  172.1020  144.7410 C   0  0  0  0  0  2  0  0  0  0  0  0
  195.8720  172.4820  144.2200 O   0  0  0  0  0  0  0  0  0  0  0  0
  196.2290  173.8170  144.0100 C   0  0  0  0  0  0  0  0  0  0  0  0
  195.3440  176.0190  143.7670 O   0  0  0  0  0  0  0  0  0  0  0  0
  194.6610  175.5110  142.6580 C   0  0  0  0  0  2  0  0  0  0  0  0
  194.8710  176.4170  141.4680 C   0  0  0  0  0  1  0  0  0  0  0  0
  187.8630  175.7710  141.9020 O   0  0  0  0  0  0  0  0  0  0  0  0
  187.8650  177.0490  141.2630 C   0  0  1  0  0  3  0  0  0  0  0  0
  186.6270  177.2400  140.4080 C   0  0  0  0  0  1  0  0  0  0  0  0
  187.9880  178.0760  142.2050 O   0  0  0  0  0  0  0  0  0  0  0  0
  186.6780  178.4960  142.4530 C   0  0  0  0  0  2  0  0  0  0  0  0
  184.8190  177.5550  146.3670 C   0  0  0  0  0  3  0  0  0  0  0  0
  187.2230  177.1400  145.9000 C   0  0  0  0  0  3  0  0  0  0  0  0
  186.3970  178.4240  143.9150 C   0  0  0  0  0  0  0  0  0  0  0  0
  187.4380  177.8580  144.7950 C   0  0  0  0  0  3  0  0  0  0  0  0
  184.8460  178.9060  145.7420 C   0  0  0  0  0  2  0  0  0  0  0  0
  185.2400  178.8320  144.3430 N   0  0  0  0  0  0  0  0  0  0  0  0
  185.9020  176.7910  146.4590 C   0  0  0  0  0  3  0  0  0  0  0  0
  1  6  2  0  0  0  0
  4  8  1  0  0  0  0
  5  1  1  0  0  0  0
  5  2  1  1  0  0  0
  6 27  1  0  0  0  0
  6  3  1  0  0  0  0
  7  4  2  0  0  0  0
  7  5  1  0  0  0  0
  8  3  2  0  0  0  0
  9 10  1  0  0  0  0
  9 13  1  1  0  0  0
 10 11  1  6  0  0  0
 12  3  1  6  0  0  0
 12  9  1  0  0  0  0
 12 10  1  0  0  0  0
 13 14  1  6  0  0  0
 13 16  1  0  0  0  0
 16 15  1  6  0  0  0
 17 18  1  0  0  0  0
 17 16  1  1  0  0  0
 19 23  2  0  0  0  0
 20 24  1  6  0  0  0
 20 17  1  0  0  0  0
 21 18  1  0  0  0  0
 22 21  1  0  0  0  0
 23 22  1  0  0  0  0
 23 20  1  0  0  0  0
 25 24  1  0  0  0  0
 26 25  1  0  0  0  0
 28 29  1  1  0  0  0
 28 27  1  0  0  0  0
 28 30  1  0  0  0  0
 30 31  1  0  0  0  0
 31 34  1  0  0  0  0
 32 38  2  0  0  0  0
 33 38  1  0  0  0  0
 34 37  2  0  0  0  0
 34 35  1  0  0  0  0
 35 33  2  0  0  0  0
 36 32  1  0  0  0  0
 37 36  1  0  0  0  0
M  END
>  <MODEL>
5

>  <REMARK>
 VINA RESULT:      -6.3      2.637      7.882
  Name = 
  11 active torsions:
  status: ('A' for Active; 'I' for Inactive)
    1  A    between atoms: C_2  and  C_20
    2  A    between atoms: C_5  and  C_32
    3  A    between atoms: C_11  and  O_15
    4  A    between atoms: C_11  and  O_21
    5  A    between atoms: C_12  and  C_27
    6  A    between atoms: C_13  and  O_19
    7  A    between atoms: O_15  and  C_36
    8  A    between atoms: C_16  and  C_36
    9  A    between atoms: O_19  and  C_22
   10  A    between atoms: C_20  and  C_32
   11  A    between atoms: O_21  and  C_30
                            x       y       z     vdW  Elec       q    Type
                         _______ _______ _______ _____ _____    ______ ____

>  <TORSDO>
F 11

$$$$
=
 OpenBabel11062421033D

 38 41  0  0  1  0  0  0  0  0999 V2000
  185.7310  179.1860  145.3240 C   0  0  0  0  0  3  0  0  0  0  0  0
  186.4140  179.2860  147.6580 N   0  0  0  0  0  1  0  0  0  0  0  0
  187.1490  177.1390  145.3840 C   0  0  0  0  0  0  0  0  0  0  0  0
  185.1570  176.6470  146.8560 C   0  0  0  0  0  3  0  0  0  0  0  0
  185.2950  179.0910  146.7470 C   0  0  2  0  0  3  0  0  0  0  0  0
  186.5510  178.3250  144.7000 C   0  0  0  0  0  0  0  0  0  0  0  0
  184.6260  177.8230  147.0130 N   0  0  0  0  0  0  0  0  0  0  0  0
  186.5070  176.4160  146.3180 C   0  0  0  0  0  3  0  0  0  0  0  0
  189.1820  175.8120  146.1430 C   0  0  1  0  0  3  0  0  0  0  0  0
  189.6180  177.2610  146.0870 C   0  0  2  0  0  3  0  0  0  0  0  0
  189.0460  177.9480  147.1570 O   0  0  0  0  0  1  0  0  0  0  0  0
  188.5770  176.7310  145.0880 C   0  0  2  0  0  3  0  0  0  0  0  0
  190.2510  174.9280  145.5120 C   0  0  2  0  0  3  0  0  0  0  0  0
  189.7010  173.5180  145.3660 C   0  0  0  0  0  1  0  0  0  0  0  0
  191.5500  175.9750  147.2670 O   0  0  0  0  0  1  0  0  0  0  0  0
  191.5190  174.9010  146.3700 C   0  0  2  0  0  3  0  0  0  0  0  0
  192.7830  174.8830  145.5020 C   0  0  2  0  0  3  0  0  0  0  0  0
  193.6770  173.7280  145.9100 C   0  0  0  0  0  2  0  0  0  0  0  0
  195.6020  177.1100  144.6600 O   0  0  0  0  0  0  0  0  0  0  0  0
  193.5570  176.2170  145.5340 C   0  0  1  0  0  3  0  0  0  0  0  0
  194.8020  173.6080  144.8950 C   0  0  0  0  0  2  0  0  0  0  0  0
  195.5370  174.8240  144.8050 O   0  0  0  0  0  0  0  0  0  0  0  0
  194.9350  176.0780  144.9360 C   0  0  0  0  0  0  0  0  0  0  0  0
  192.8370  177.2110  144.8590 O   0  0  0  0  0  0  0  0  0  0  0  0
  192.6760  176.7180  143.5610 C   0  0  0  0  0  2  0  0  0  0  0  0
  191.4910  177.3860  142.9030 C   0  0  0  0  0  1  0  0  0  0  0  0
  186.8850  178.5380  143.3490 O   0  0  0  0  0  0  0  0  0  0  0  0
  186.6120  177.6390  142.2730 C   0  0  1  0  0  3  0  0  0  0  0  0
  185.7390  178.2920  141.2170 C   0  0  0  0  0  1  0  0  0  0  0  0
  187.7990  177.1560  141.7150 O   0  0  0  0  0  0  0  0  0  0  0  0
  187.3940  176.3660  140.6350 C   0  0  0  0  0  2  0  0  0  0  0  0
  190.3210  173.2250  139.5260 C   0  0  0  0  0  3  0  0  0  0  0  0
  190.1340  174.1150  141.8370 C   0  0  0  0  0  3  0  0  0  0  0  0
  188.1880  175.1050  140.6100 C   0  0  0  0  0  0  0  0  0  0  0  0
  188.9560  174.7450  141.8180 C   0  0  0  0  0  3  0  0  0  0  0  0
  188.8450  173.1070  139.3630 C   0  0  0  0  0  2  0  0  0  0  0  0
  188.1940  174.3990  139.5190 N   0  0  0  0  0  0  0  0  0  0  0  0
  190.8820  173.6480  140.6540 C   0  0  0  0  0  3  0  0  0  0  0  0
  1  5  1  0  0  0  0
  3  8  2  0  0  0  0
  4  7  2  0  0  0  0
  5  7  1  0  0  0  0
  5  2  1  1  0  0  0
  6  1  2  0  0  0  0
  6  3  1  0  0  0  0
  8  4  1  0  0  0  0
  9 13  1  6  0  0  0
 10  9  1  0  0  0  0
 10 11  1  1  0  0  0
 12  3  1  1  0  0  0
 12 10  1  0  0  0  0
 12  9  1  0  0  0  0
 13 14  1  1  0  0  0
 13 16  1  0  0  0  0
 16 15  1  1  0  0  0
 17 20  1  0  0  0  0
 17 18  1  0  0  0  0
 17 16  1  1  0  0  0
 19 23  2  0  0  0  0
 20 24  1  6  0  0  0
 21 18  1  0  0  0  0
 22 21  1  0  0  0  0
 22 23  1  0  0  0  0
 23 20  1  0  0  0  0
 25 24  1  0  0  0  0
 26 25  1  0  0  0  0
 27  6  1  0  0  0  0
 28 29  1  6  0  0  0
 28 27  1  0  0  0  0
 30 28  1  0  0  0  0
 31 30  1  0  0  0  0
 32 38  2  0  0  0  0
 34 31  1  0  0  0  0
 34 35  1  0  0  0  0
 35 33  2  0  0  0  0
 36 37  1  0  0  0  0
 36 32  1  0  0  0  0
 37 34  2  0  0  0  0
 38 33  1  0  0  0  0
M  END
>  <MODEL>
6

>  <REMARK>
 VINA RESULT:      -6.2      2.837      7.381
  Name = 
  11 active torsions:
  status: ('A' for Active; 'I' for Inactive)
    1  A    between atoms: C_2  and  C_20
    2  A    between atoms: C_5  and  C_32
    3  A    between atoms: C_11  and  O_15
    4  A    between atoms: C_11  and  O_21
    5  A    between atoms: C_12  and  C_27
    6  A    between atoms: C_13  and  O_19
    7  A    between atoms: O_15  and  C_36
    8  A    between atoms: C_16  and  C_36
    9  A    between atoms: O_19  and  C_22
   10  A    between atoms: C_20  and  C_32
   11  A    between atoms: O_21  and  C_30
                            x       y       z     vdW  Elec       q    Type
                         _______ _______ _______ _____ _____    ______ ____

>  <TORSDO>
F 11

$$$$
=
 OpenBabel11062421033D

 38 41  0  0  1  0  0  0  0  0999 V2000
  192.6640  173.0140  141.4050 C   0  0  0  0  0  3  0  0  0  0  0  0
  190.5220  171.9830  140.8830 N   0  0  0  0  0  1  0  0  0  0  0  0
  191.2080  174.4330  142.8440 C   0  0  0  0  0  0  0  0  0  0  0  0
  191.1330  172.1170  143.8490 C   0  0  0  0  0  3  0  0  0  0  0  0
  191.8170  171.7910  141.5200 C   0  0  2  0  0  3  0  0  0  0  0  0
  192.4110  174.1950  141.9900 C   0  0  0  0  0  0  0  0  0  0  0  0
  191.6560  171.3860  142.9100 N   0  0  0  0  0  0  0  0  0  0  0  0
  190.6780  173.5040  143.6590 C   0  0  0  0  0  3  0  0  0  0  0  0
  189.1850  175.7840  143.5830 C   0  0  1  0  0  3  0  0  0  0  0  0
  189.1090  175.6980  142.0730 C   0  0  2  0  0  3  0  0  0  0  0  0
  188.7370  174.4030  141.7110 O   0  0  0  0  0  1  0  0  0  0  0  0
  190.4760  175.7560  142.7740 C   0  0  2  0  0  3  0  0  0  0  0  0
  188.8830  177.2090  144.0320 C   0  0  2  0  0  3  0  0  0  0  0  0
  190.1760  177.8670  144.4860 C   0  0  0  0  0  1  0  0  0  0  0  0
  187.9470  176.0490  145.9400 O   0  0  0  0  0  1  0  0  0  0  0  0
  187.8680  177.2210  145.1790 C   0  0  2  0  0  3  0  0  0  0  0  0
  186.4410  177.4380  144.6630 C   0  0  2  0  0  3  0  0  0  0  0  0
  186.4750  178.1720  143.3360 C   0  0  0  0  0  2  0  0  0  0  0  0
  183.3060  179.0410  145.7670 O   0  0  0  0  0  0  0  0  0  0  0  0
  185.5380  178.1730  145.6760 C   0  0  1  0  0  3  0  0  0  0  0  0
  185.0710  178.1740  142.7530 C   0  0  0  0  0  2  0  0  0  0  0  0
  184.1470  178.7770  143.6520 O   0  0  0  0  0  0  0  0  0  0  0  0
  184.2550  178.6460  145.0390 C   0  0  0  0  0  0  0  0  0  0  0  0
  185.2570  177.3400  146.7660 O   0  0  0  0  0  0  0  0  0  0  0  0
  185.9390  177.9160  147.8420 C   0  0  0  0  0  2  0  0  0  0  0  0
  186.0490  179.4090  147.6380 C   0  0  0  0  0  1  0  0  0  0  0  0
  193.2960  175.2720  141.7930 O   0  0  0  0  0  0  0  0  0  0  0  0
  194.7190  175.1740  141.7050 C   0  0  1  0  0  3  0  0  0  0  0  0
  195.1930  175.3060  140.2700 C   0  0  0  0  0  1  0  0  0  0  0  0
  195.3350  176.1230  142.5270 O   0  0  0  0  0  0  0  0  0  0  0  0
  195.9540  175.3790  143.5360 C   0  0  0  0  0  2  0  0  0  0  0  0
  192.8140  176.4130  146.4910 C   0  0  0  0  0  3  0  0  0  0  0  0
  193.4390  174.0650  145.9790 C   0  0  0  0  0  3  0  0  0  0  0  0
  195.1450  175.4570  144.7860 C   0  0  0  0  0  0  0  0  0  0  0  0
  194.6050  174.2000  145.3420 C   0  0  0  0  0  3  0  0  0  0  0  0
  194.2330  176.8610  146.5660 C   0  0  0  0  0  2  0  0  0  0  0  0
  194.9260  176.6250  145.3080 N   0  0  0  0  0  0  0  0  0  0  0  0
  192.4780  175.1490  146.2600 C   0  0  0  0  0  3  0  0  0  0  0  0
  1  5  1  0  0  0  0
  1  6  2  0  0  0  0
  3  8  2  0  0  0  0
  5  2  1  1  0  0  0
  5  7  1  0  0  0  0
  6  3  1  0  0  0  0
  7  4  2  0  0  0  0
  8  4  1  0  0  0  0
  9 13  1  6  0  0  0
 10 11  1  1  0  0  0
 10 12  1  0  0  0  0
 10  9  1  0  0  0  0
 12  3  1  1  0  0  0
 12  9  1  0  0  0  0
 13 14  1  1  0  0  0
 13 16  1  0  0  0  0
 16 15  1  6  0  0  0
 17 16  1  1  0  0  0
 17 20  1  0  0  0  0
 18 17  1  0  0  0  0
 20 24  1  1  0  0  0
 21 18  1  0  0  0  0
 21 22  1  0  0  0  0
 22 23  1  0  0  0  0
 23 20  1  0  0  0  0
 23 19  2  0  0  0  0
 24 25  1  0  0  0  0
 26 25  1  0  0  0  0
 27  6  1  0  0  0  0
 28 29  1  6  0  0  0
 28 27  1  0  0  0  0
 28 30  1  0  0  0  0
 30 31  1  0  0  0  0
 31 34  1  0  0  0  0
 32 36  1  0  0  0  0
 33 38  1  0  0  0  0
 34 37  2  0  0  0  0
 34 35  1  0  0  0  0
 35 33  2  0  0  0  0
 37 36  1  0  0  0  0
 38 32  2  0  0  0  0
M  END
>  <MODEL>
7

>  <REMARK>
 VINA RESULT:      -6.2      2.165      4.811
  Name = 
  11 active torsions:
  status: ('A' for Active; 'I' for Inactive)
    1  A    between atoms: C_2  and  C_20
    2  A    between atoms: C_5  and  C_32
    3  A    between atoms: C_11  and  O_15
    4  A    between atoms: C_11  and  O_21
    5  A    between atoms: C_12  and  C_27
    6  A    between atoms: C_13  and  O_19
    7  A    between atoms: O_15  and  C_36
    8  A    between atoms: C_16  and  C_36
    9  A    between atoms: O_19  and  C_22
   10  A    between atoms: C_20  and  C_32
   11  A    between atoms: O_21  and  C_30
                            x       y       z     vdW  Elec       q    Type
                         _______ _______ _______ _____ _____    ______ ____

>  <TORSDO>
F 11

$$$$
=
 OpenBabel11062421033D

 38 41  0  0  1  0  0  0  0  0999 V2000
  195.0380  173.7170  143.7720 C   0  0  0  0  0  3  0  0  0  0  0  0
  195.8880  175.9250  144.3420 N   0  0  0  0  0  1  0  0  0  0  0  0
  192.8910  174.7760  144.4620 C   0  0  0  0  0  0  0  0  0  0  0  0
  193.6030  175.9630  142.3500 C   0  0  0  0  0  3  0  0  0  0  0  0
  195.6520  174.9770  143.2620 C   0  0  2  0  0  3  0  0  0  0  0  0
  193.8100  173.6080  144.3040 C   0  0  0  0  0  0  0  0  0  0  0  0
  194.8380  175.5780  142.2140 N   0  0  0  0  0  0  0  0  0  0  0  0
  192.8150  175.7880  143.5800 C   0  0  0  0  0  3  0  0  0  0  0  0
  191.6740  176.3380  146.0570 C   0  0  1  0  0  3  0  0  0  0  0  0
  192.7010  175.5990  146.8890 C   0  0  2  0  0  3  0  0  0  0  0  0
  193.9700  176.0910  146.5830 O   0  0  0  0  0  1  0  0  0  0  0  0
  192.0260  174.8990  145.6980 C   0  0  2  0  0  3  0  0  0  0  0  0
  190.3440  176.3800  146.8000 C   0  0  2  0  0  3  0  0  0  0  0  0
  189.6250  175.0550  146.5970 C   0  0  0  0  0  1  0  0  0  0  0  0
  188.2880  177.6350  147.0420 O   0  0  0  0  0  1  0  0  0  0  0  0
  189.4650  177.5260  146.2920 C   0  0  2  0  0  3  0  0  0  0  0  0
  189.1460  177.3710  144.8010 C   0  0  2  0  0  3  0  0  0  0  0  0
  190.0620  178.2580  143.9790 C   0  0  0  0  0  2  0  0  0  0  0  0
  186.2740  177.7780  142.5210 O   0  0  0  0  0  0  0  0  0  0  0  0
  187.6660  177.6480  144.4670 C   0  0  1  0  0  3  0  0  0  0  0  0
  189.8700  177.9160  142.5100 C   0  0  0  0  0  2  0  0  0  0  0  0
  188.5100  178.0790  142.1230 O   0  0  0  0  0  0  0  0  0  0  0  0
  187.4450  177.7940  142.9820 C   0  0  0  0  0  0  0  0  0  0  0  0
  186.8550  176.6260  144.9770 O   0  0  0  0  0  0  0  0  0  0  0  0
  185.5960  177.2120  145.1350 C   0  0  0  0  0  2  0  0  0  0  0  0
  185.0530  176.8950  146.5080 C   0  0  0  0  0  1  0  0  0  0  0  0
  193.3560  172.3530  144.7510 O   0  0  0  0  0  0  0  0  0  0  0  0
  192.7450  171.3510  143.9360 C   0  0  1  0  0  3  0  0  0  0  0  0
  193.2830  169.9700  144.2620 C   0  0  0  0  0  1  0  0  0  0  0  0
  191.3520  171.3890  144.0610 O   0  0  0  0  0  0  0  0  0  0  0  0
  190.8690  171.1660  142.7680 C   0  0  0  0  0  2  0  0  0  0  0  0
  188.5660  174.1470  140.4290 C   0  0  0  0  0  3  0  0  0  0  0  0
  188.8990  174.3480  142.8820 C   0  0  0  0  0  3  0  0  0  0  0  0
  190.3750  172.4470  142.1890 C   0  0  0  0  0  0  0  0  0  0  0  0
  189.8940  173.4890  143.1180 C   0  0  0  0  0  3  0  0  0  0  0  0
  189.9910  173.7890  140.1820 C   0  0  0  0  0  2  0  0  0  0  0  0
  190.3600  172.5760  140.8960 N   0  0  0  0  0  0  0  0  0  0  0  0
  188.1020  174.4270  141.6420 C   0  0  0  0  0  3  0  0  0  0  0  0
  1  6  2  0  0  0  0
  4  8  1  0  0  0  0
  5  1  1  0  0  0  0
  5  2  1  1  0  0  0
  6  3  1  0  0  0  0
  6 27  1  0  0  0  0
  7  4  2  0  0  0  0
  7  5  1  0  0  0  0
  8  3  2  0  0  0  0
  9 13  1  1  0  0  0
  9 10  1  0  0  0  0
 10 11  1  6  0  0  0
 12  3  1  6  0  0  0
 12  9  1  0  0  0  0
 12 10  1  0  0  0  0
 13 14  1  6  0  0  0
 16 13  1  0  0  0  0
 16 15  1  1  0  0  0
 17 16  1  1  0  0  0
 18 17  1  0  0  0  0
 19 23  2  0  0  0  0
 20 17  1  0  0  0  0
 20 24  1  6  0  0  0
 21 18  1  0  0  0  0
 22 21  1  0  0  0  0
 22 23  1  0  0  0  0
 23 20  1  0  0  0  0
 24 25  1  0  0  0  0
 25 26  1  0  0  0  0
 28 30  1  0  0  0  0
 28 29  1  1  0  0  0
 28 27  1  0  0  0  0
 31 30  1  0  0  0  0
 32 38  2  0  0  0  0
 33 35  2  0  0  0  0
 34 31  1  0  0  0  0
 34 35  1  0  0  0  0
 36 32  1  0  0  0  0
 36 37  1  0  0  0  0
 37 34  2  0  0  0  0
 38 33  1  0  0  0  0
M  END
>  <MODEL>
8

>  <REMARK>
 VINA RESULT:      -6.1      1.582      2.566
  Name = 
  11 active torsions:
  status: ('A' for Active; 'I' for Inactive)
    1  A    between atoms: C_2  and  C_20
    2  A    between atoms: C_5  and  C_32
    3  A    between atoms: C_11  and  O_15
    4  A    between atoms: C_11  and  O_21
    5  A    between atoms: C_12  and  C_27
    6  A    between atoms: C_13  and  O_19
    7  A    between atoms: O_15  and  C_36
    8  A    between atoms: C_16  and  C_36
    9  A    between atoms: O_19  and  C_22
   10  A    between atoms: C_20  and  C_32
   11  A    between atoms: O_21  and  C_30
                            x       y       z     vdW  Elec       q    Type
                         _______ _______ _______ _____ _____    ______ ____

>  <TORSDO>
F 11

$$$$
=
 OpenBabel11062421033D

 38 41  0  0  1  0  0  0  0  0999 V2000
  184.4210  178.7290  144.4280 C   0  0  0  0  0  3  0  0  0  0  0  0
  186.0130  179.5650  146.0680 N   0  0  0  0  0  1  0  0  0  0  0  0
  186.0370  176.8330  144.3780 C   0  0  0  0  0  0  0  0  0  0  0  0
  184.9760  176.7810  146.6690 C   0  0  0  0  0  3  0  0  0  0  0  0
  184.6590  179.0710  145.8600 C   0  0  2  0  0  3  0  0  0  0  0  0
  185.0210  177.7350  143.7540 C   0  0  0  0  0  0  0  0  0  0  0  0
  184.3820  177.9350  146.7310 N   0  0  0  0  0  0  0  0  0  0  0  0
  185.9820  176.4230  145.6570 C   0  0  0  0  0  3  0  0  0  0  0  0
  188.5320  176.3450  144.3960 C   0  0  1  0  0  3  0  0  0  0  0  0
  188.3260  177.4600  143.3920 C   0  0  2  0  0  3  0  0  0  0  0  0
  188.0460  178.6410  144.0800 O   0  0  0  0  0  1  0  0  0  0  0  0
  187.2440  176.3850  143.5820 C   0  0  2  0  0  3  0  0  0  0  0  0
  189.4820  175.3020  143.8180 C   0  0  2  0  0  3  0  0  0  0  0  0
  188.7230  174.4470  142.8160 C   0  0  0  0  0  1  0  0  0  0  0  0
  189.6650  174.8530  146.1890 O   0  0  0  0  0  1  0  0  0  0  0  0
  190.0610  174.4130  144.9210 C   0  0  2  0  0  3  0  0  0  0  0  0
  191.5890  174.3280  144.8280 C   0  0  2  0  0  3  0  0  0  0  0  0
  192.0390  172.8870  144.9770 C   0  0  0  0  0  2  0  0  0  0  0  0
  194.5520  175.7040  146.5420 O   0  0  0  0  0  0  0  0  0  0  0  0
  192.3080  175.2370  145.8470 C   0  0  1  0  0  3  0  0  0  0  0  0
  193.5240  172.8130  144.6620 C   0  0  0  0  0  2  0  0  0  0  0  0
  194.2690  173.6760  145.5140 O   0  0  0  0  0  0  0  0  0  0  0  0
  193.7760  174.9090  145.9500 C   0  0  0  0  0  0  0  0  0  0  0  0
  192.1370  176.5830  145.4990 O   0  0  0  0  0  0  0  0  0  0  0  0
  192.5900  176.6720  144.1790 C   0  0  0  0  0  2  0  0  0  0  0  0
  191.8870  177.8080  143.4730 C   0  0  0  0  0  1  0  0  0  0  0  0
  184.7050  177.5240  142.3980 O   0  0  0  0  0  0  0  0  0  0  0  0
  183.8330  178.3380  141.6110 C   0  0  1  0  0  3  0  0  0  0  0  0
  184.2150  178.2970  140.1440 C   0  0  0  0  0  1  0  0  0  0  0  0
  182.4990  177.9590  141.7940 O   0  0  0  0  0  0  0  0  0  0  0  0
  181.8120  178.5300  140.7180 C   0  0  0  0  0  2  0  0  0  0  0  0
  177.6920  176.9690  141.2250 C   0  0  0  0  0  3  0  0  0  0  0  0
  178.7790  178.4320  142.9120 C   0  0  0  0  0  3  0  0  0  0  0  0
  180.3430  178.4380  140.9560 C   0  0  0  0  0  0  0  0  0  0  0  0
  179.8160  178.9400  142.2400 C   0  0  0  0  0  3  0  0  0  0  0  0
  178.1490  177.8080  140.0820 C   0  0  0  0  0  2  0  0  0  0  0  0
  179.6010  177.8940  140.0400 N   0  0  0  0  0  0  0  0  0  0  0  0
  177.9560  177.2830  142.4890 C   0  0  0  0  0  3  0  0  0  0  0  0
  1  5  1  0  0  0  0
  3  8  2  0  0  0  0
  4  7  2  0  0  0  0
  5  2  1  6  0  0  0
  5  7  1  0  0  0  0
  6  3  1  0  0  0  0
  6  1  2  0  0  0  0
  8  4  1  0  0  0  0
  9 13  1  6  0  0  0
 10 12  1  0  0  0  0
 10 11  1  1  0  0  0
 10  9  1  0  0  0  0
 12  3  1  1  0  0  0
 12  9  1  0  0  0  0
 13 14  1  6  0  0  0
 13 16  1  0  0  0  0
 16 15  1  1  0  0  0
 17 16  1  1  0  0  0
 17 18  1  0  0  0  0
 17 20  1  0  0  0  0
 20 24  1  6  0  0  0
 20 23  1  0  0  0  0
 21 18  1  0  0  0  0
 21 22  1  0  0  0  0
 22 23  1  0  0  0  0
 23 19  2  0  0  0  0
 25 24  1  0  0  0  0
 26 25  1  0  0  0  0
 27  6  1  0  0  0  0
 28 29  1  6  0  0  0
 28 30  1  0  0  0  0
 28 27  1  0  0  0  0
 31 34  1  0  0  0  0
 31 30  1  0  0  0  0
 32 38  2  0  0  0  0
 34 35  1  0  0  0  0
 35 33  2  0  0  0  0
 36 32  1  0  0  0  0
 37 36  1  0  0  0  0
 37 34  2  0  0  0  0
 38 33  1  0  0  0  0
M  END
>  <MODEL>
9

>  <REMARK>
 VINA RESULT:      -6.0      4.546      9.600
  Name = 
  11 active torsions:
  status: ('A' for Active; 'I' for Inactive)
    1  A    between atoms: C_2  and  C_20
    2  A    between atoms: C_5  and  C_32
    3  A    between atoms: C_11  and  O_15
    4  A    between atoms: C_11  and  O_21
    5  A    between atoms: C_12  and  C_27
    6  A    between atoms: C_13  and  O_19
    7  A    between atoms: O_15  and  C_36
    8  A    between atoms: C_16  and  C_36
    9  A    between atoms: O_19  and  C_22
   10  A    between atoms: C_20  and  C_32
   11  A    between atoms: O_21  and  C_30
                            x       y       z     vdW  Elec       q    Type
                         _______ _______ _______ _____ _____    ______ ____

>  <TORSDO>
F 11

$$$$
