=
 OpenBabel11072409403D

 25 27  0  0  1  0  0  0  0  0999 V2000
  190.3350  173.8580  142.8520 C   0  0  0  0  0  2  0  0  0  0  0  0
  188.7070  176.4400  146.9010 N   0  0  1  0  0  0  0  0  0  0  0  0
  192.0420  174.8870  147.2310 C   0  0  0  0  0  2  0  0  0  0  0  0
  190.9200  174.6940  143.8410 O   0  0  0  0  0  0  0  0  0  0  0  0
  185.9440  178.0820  141.8560 C   0  0  2  0  0  3  0  0  0  0  0  0
  190.9450  177.1690  147.3970 C   0  0  0  0  0  2  0  0  0  0  0  0
  189.6340  177.5510  146.7370 C   0  0  0  0  0  2  0  0  0  0  0  0
  190.8210  175.6900  147.6850 C   0  0  1  0  0  3  0  0  0  0  0  0
  185.3270  178.0420  140.4800 C   0  0  0  0  0  2  0  0  0  0  0  0
  188.2420  175.1290  142.4720 C   0  0  0  0  0  2  0  0  0  0  0  0
  184.7300  178.1620  144.1260 C   0  0  0  0  0  2  0  0  0  0  0  0
  185.9320  178.6160  144.9400 C   0  0  0  0  0  2  0  0  0  0  0  0
  183.9240  178.4240  140.6040 N   0  0  0  0  0  2  0  0  0  0  0  0
  192.4320  175.1230  145.7730 C   0  0  0  0  0  2  0  0  0  0  0  0
  187.9480  176.3200  145.6680 C   0  0  0  0  0  2  0  0  0  0  0  0
  191.7280  174.1810  144.8550 C   0  0  0  0  0  0  0  0  0  0  0  0
  189.5440  175.2540  147.0060 C   0  0  0  0  0  2  0  0  0  0  0  0
  186.3220  176.6640  142.2750 C   0  0  0  0  0  2  0  0  0  0  0  0
  186.0180  177.8230  146.2350 C   0  0  0  0  0  2  0  0  0  0  0  0
  186.4580  176.3880  145.9680 C   0  0  0  0  0  2  0  0  0  0  0  0
  184.8240  178.6750  142.6920 C   0  0  2  0  0  3  0  0  0  0  0  0
  189.5620  174.7060  141.8620 C   0  0  0  0  0  2  0  0  0  0  0  0
  191.9010  172.9370  144.9770 O   0  0  0  0  0  0  0  0  0  0  0  0
  183.5950  178.4010  141.9720 N   0  0  0  0  0  2  0  0  0  0  0  0
  187.6590  176.2760  141.6760 C   0  0  0  0  0  2  0  0  0  0  0  0
  1  4  1  0  0  0  0
  2 15  1  6  0  0  0
  2 17  1  0  0  0  0
  3  8  1  0  0  0  0
  4 16  1  0  0  0  0
  5  9  1  6  0  0  0
  5 18  1  0  0  0  0
  5 21  1  0  0  0  0
  6  8  1  0  0  0  0
  7  2  1  0  0  0  0
  7  6  1  0  0  0  0
  8 17  1  6  0  0  0
  9 13  1  0  0  0  0
 11 12  1  0  0  0  0
 12 19  1  0  0  0  0
 13 24  1  0  0  0  0
 14  3  1  0  0  0  0
 15 20  1  0  0  0  0
 16 23  2  0  0  0  0
 16 14  1  0  0  0  0
 20 19  1  0  0  0  0
 21 11  1  1  0  0  0
 22 10  1  0  0  0  0
 22  1  1  0  0  0  0
 24 21  1  0  0  0  0
 25 18  1  0  0  0  0
 25 10  1  0  0  0  0
M  END
>  <MODEL>
1

>  <REMARK>
 VINA RESULT:      -8.6      0.000      0.000
  Name = 
  0 active torsions:
  status: ('A' for Active; 'I' for Inactive)
                            x       y       z     vdW  Elec       q    Type
                         _______ _______ _______ _____ _____    ______ ____

>  <TORSDO>
F 0

$$$$
=
 OpenBabel11072409403D

 25 27  0  0  1  0  0  0  0  0999 V2000
  186.6260  177.9000  147.2890 C   0  0  0  0  0  2  0  0  0  0  0  0
  187.2190  176.4110  142.4770 N   0  0  1  0  0  0  0  0  0  0  0  0
  184.1600  178.3570  143.1820 C   0  0  0  0  0  2  0  0  0  0  0  0
  186.3560  178.4430  146.0040 O   0  0  0  0  0  0  0  0  0  0  0  0
  192.3740  176.5140  145.5110 C   0  0  2  0  0  3  0  0  0  0  0  0
  186.1980  178.4360  141.6740 C   0  0  0  0  0  2  0  0  0  0  0  0
  187.5150  177.7390  141.9590 C   0  0  0  0  0  2  0  0  0  0  0  0
  185.1470  177.5650  142.3240 C   0  0  1  0  0  3  0  0  0  0  0  0
  193.3810  176.4340  146.6310 C   0  0  0  0  0  2  0  0  0  0  0  0
  188.8280  176.8700  146.8080 C   0  0  0  0  0  2  0  0  0  0  0  0
  191.9720  174.8070  143.6260 C   0  0  0  0  0  2  0  0  0  0  0  0
  191.1910  175.7450  142.7170 C   0  0  0  0  0  2  0  0  0  0  0  0
  194.3570  175.4050  146.2850 N   0  0  0  0  0  2  0  0  0  0  0  0
  184.8260  179.2620  144.2180 C   0  0  0  0  0  2  0  0  0  0  0  0
  188.1820  176.1290  143.5290 C   0  0  0  0  0  2  0  0  0  0  0  0
  185.0570  178.5490  145.5070 C   0  0  0  0  0  0  0  0  0  0  0  0
  185.9150  176.5290  143.1110 C   0  0  0  0  0  2  0  0  0  0  0  0
  191.0160  176.0450  146.0250 C   0  0  0  0  0  2  0  0  0  0  0  0
  189.9720  175.0330  142.1520 C   0  0  0  0  0  2  0  0  0  0  0  0
  188.9110  174.8290  143.2270 C   0  0  0  0  0  2  0  0  0  0  0  0
  192.9750  175.5860  144.4720 C   0  0  2  0  0  3  0  0  0  0  0  0
  188.1140  177.9690  147.5670 C   0  0  0  0  0  2  0  0  0  0  0  0
  184.0780  178.0850  146.1530 O   0  0  0  0  0  0  0  0  0  0  0  0
  193.8420  174.6770  145.1960 N   0  0  0  0  0  2  0  0  0  0  0  0
  190.3100  177.1690  146.7550 C   0  0  0  0  0  2  0  0  0  0  0  0
  1 22  1  0  0  0  0
  2  7  1  1  0  0  0
  2 17  1  0  0  0  0
  2 15  1  0  0  0  0
  3 14  1  0  0  0  0
  4  1  1  0  0  0  0
  5 18  1  1  0  0  0
  5  9  1  0  0  0  0
  6  7  1  0  0  0  0
  8  6  1  1  0  0  0
  8 17  1  0  0  0  0
  8  3  1  0  0  0  0
 10 22  1  0  0  0  0
 12 11  1  0  0  0  0
 13  9  1  0  0  0  0
 14 16  1  0  0  0  0
 16  4  1  0  0  0  0
 16 23  2  0  0  0  0
 18 25  1  0  0  0  0
 19 12  1  0  0  0  0
 19 20  1  0  0  0  0
 20 15  1  0  0  0  0
 21 11  1  1  0  0  0
 21 24  1  0  0  0  0
 21  5  1  0  0  0  0
 24 13  1  0  0  0  0
 25 10  1  0  0  0  0
M  END
>  <MODEL>
2

>  <REMARK>
 VINA RESULT:      -8.3      2.971      7.576
  Name = 
  0 active torsions:
  status: ('A' for Active; 'I' for Inactive)
                            x       y       z     vdW  Elec       q    Type
                         _______ _______ _______ _____ _____    ______ ____

>  <TORSDO>
F 0

$$$$
=
 OpenBabel11072409403D

 25 27  0  0  1  0  0  0  0  0999 V2000
  191.2400  175.1760  146.8830 C   0  0  0  0  0  2  0  0  0  0  0  0
  190.1850  175.6490  141.9460 N   0  0  1  0  0  0  0  0  0  0  0  0
  192.9900  173.3930  142.7710 C   0  0  0  0  0  2  0  0  0  0  0  0
  191.2380  174.3230  145.7460 O   0  0  0  0  0  0  0  0  0  0  0  0
  185.5660  177.1370  145.4440 C   0  0  2  0  0  3  0  0  0  0  0  0
  190.7660  173.3480  141.5510 C   0  0  0  0  0  2  0  0  0  0  0  0
  189.6220  174.3130  141.7970 C   0  0  0  0  0  2  0  0  0  0  0  0
  192.0170  174.1400  141.8560 C   0  0  1  0  0  3  0  0  0  0  0  0
  184.7550  177.6410  146.6120 C   0  0  0  0  0  2  0  0  0  0  0  0
  189.1700  176.4500  146.4040 C   0  0  0  0  0  2  0  0  0  0  0  0
  185.9400  178.2870  143.1710 C   0  0  0  0  0  2  0  0  0  0  0  0
  186.4320  177.0490  142.4380 C   0  0  0  0  0  2  0  0  0  0  0  0
  183.9020  178.7250  146.1340 N   0  0  0  0  0  2  0  0  0  0  0  0
  192.3530  172.8720  144.0590 C   0  0  0  0  0  2  0  0  0  0  0  0
  189.4370  176.3220  142.9940 C   0  0  0  0  0  2  0  0  0  0  0  0
  192.4200  173.8810  145.1540 C   0  0  0  0  0  0  0  0  0  0  0  0
  191.5340  175.4430  142.4470 C   0  0  0  0  0  2  0  0  0  0  0  0
  187.0380  177.4590  145.6830 C   0  0  0  0  0  2  0  0  0  0  0  0
  187.6490  177.3900  141.5910 C   0  0  0  0  0  2  0  0  0  0  0  0
  188.8720  177.6330  142.4670 C   0  0  0  0  0  2  0  0  0  0  0  0
  184.9650  177.9060  144.2820 C   0  0  2  0  0  3  0  0  0  0  0  0
  189.8140  175.4360  147.3260 C   0  0  0  0  0  2  0  0  0  0  0  0
  193.5410  174.2940  145.5620 O   0  0  0  0  0  0  0  0  0  0  0  0
  184.3560  179.0920  144.8530 N   0  0  0  0  0  2  0  0  0  0  0  0
  187.6670  176.4160  146.5830 C   0  0  0  0  0  2  0  0  0  0  0  0
  1 22  1  0  0  0  0
  2  7  1  1  0  0  0
  2 17  1  0  0  0  0
  2 15  1  0  0  0  0
  3 14  1  0  0  0  0
  4  1  1  0  0  0  0
  5 18  1  1  0  0  0
  5  9  1  0  0  0  0
  6  7  1  0  0  0  0
  8  6  1  1  0  0  0
  8 17  1  0  0  0  0
  8  3  1  0  0  0  0
 10 25  1  0  0  0  0
 10 22  1  0  0  0  0
 12 11  1  0  0  0  0
 13  9  1  0  0  0  0
 14 16  1  0  0  0  0
 16 23  2  0  0  0  0
 16  4  1  0  0  0  0
 18 25  1  0  0  0  0
 19 12  1  0  0  0  0
 19 20  1  0  0  0  0
 20 15  1  0  0  0  0
 21 11  1  6  0  0  0
 21 24  1  0  0  0  0
 21  5  1  0  0  0  0
 24 13  1  0  0  0  0
M  END
>  <MODEL>
3

>  <REMARK>
 VINA RESULT:      -8.1      2.007      4.374
  Name = 
  0 active torsions:
  status: ('A' for Active; 'I' for Inactive)
                            x       y       z     vdW  Elec       q    Type
                         _______ _______ _______ _____ _____    ______ ____

>  <TORSDO>
F 0

$$$$
=
 OpenBabel11072409403D

 25 27  0  0  1  0  0  0  0  0999 V2000
  191.8690  176.4160  147.1740 C   0  0  0  0  0  2  0  0  0  0  0  0
  190.5770  175.0200  142.4730 N   0  0  1  0  0  0  0  0  0  0  0  0
  193.6890  173.5240  143.7860 C   0  0  0  0  0  2  0  0  0  0  0  0
  191.9390  175.2270  146.3990 O   0  0  0  0  0  0  0  0  0  0  0  0
  185.9330  177.0980  145.6190 C   0  0  2  0  0  3  0  0  0  0  0  0
  191.4470  172.8070  142.8390 C   0  0  0  0  0  2  0  0  0  0  0  0
  190.1940  173.6620  142.8340 C   0  0  0  0  0  2  0  0  0  0  0  0
  192.5910  173.7920  142.7540 C   0  0  1  0  0  3  0  0  0  0  0  0
  185.1050  177.8810  146.6080 C   0  0  0  0  0  2  0  0  0  0  0  0
  189.6290  177.2010  146.4600 C   0  0  0  0  0  2  0  0  0  0  0  0
  186.0640  177.4210  143.0680 C   0  0  0  0  0  2  0  0  0  0  0  0
  186.6910  176.0690  142.7630 C   0  0  0  0  0  2  0  0  0  0  0  0
  184.0980  178.6280  145.8600 N   0  0  0  0  0  2  0  0  0  0  0  0
  193.1760  173.4150  145.2210 C   0  0  0  0  0  2  0  0  0  0  0  0
  189.7850  175.9260  143.2870 C   0  0  0  0  0  2  0  0  0  0  0  0
  193.1470  174.7430  145.8990 C   0  0  0  0  0  0  0  0  0  0  0  0
  191.9600  175.1550  142.9030 C   0  0  0  0  0  2  0  0  0  0  0  0
  187.3570  177.6470  145.6140 C   0  0  0  0  0  2  0  0  0  0  0  0
  187.8190  176.2300  141.7550 C   0  0  0  0  0  2  0  0  0  0  0  0
  189.0300  176.8990  142.3930 C   0  0  0  0  0  2  0  0  0  0  0  0
  185.1910  177.3410  144.3180 C   0  0  2  0  0  3  0  0  0  0  0  0
  190.4380  176.6510  147.6170 C   0  0  0  0  0  2  0  0  0  0  0  0
  194.2160  175.3960  146.0500 O   0  0  0  0  0  0  0  0  0  0  0  0
  184.4510  178.5750  144.4990 N   0  0  0  0  0  2  0  0  0  0  0  0
  188.1530  177.0600  146.7610 C   0  0  0  0  0  2  0  0  0  0  0  0
  1 22  1  0  0  0  0
  2  7  1  1  0  0  0
  2 17  1  0  0  0  0
  2 15  1  0  0  0  0
  3 14  1  0  0  0  0
  4  1  1  0  0  0  0
  5 18  1  6  0  0  0
  5  9  1  0  0  0  0
  7  6  1  0  0  0  0
  8  6  1  1  0  0  0
  8 17  1  0  0  0  0
  8  3  1  0  0  0  0
 10 25  1  0  0  0  0
 10 22  1  0  0  0  0
 12 11  1  0  0  0  0
 13  9  1  0  0  0  0
 14 16  1  0  0  0  0
 16 23  2  0  0  0  0
 16  4  1  0  0  0  0
 18 25  1  0  0  0  0
 19 20  1  0  0  0  0
 19 12  1  0  0  0  0
 20 15  1  0  0  0  0
 21 11  1  6  0  0  0
 21 24  1  0  0  0  0
 21  5  1  0  0  0  0
 24 13  1  0  0  0  0
M  END
>  <MODEL>
4

>  <REMARK>
 VINA RESULT:      -8.1      2.055      4.396
  Name = 
  0 active torsions:
  status: ('A' for Active; 'I' for Inactive)
                            x       y       z     vdW  Elec       q    Type
                         _______ _______ _______ _____ _____    ______ ____

>  <TORSDO>
F 0

$$$$
=
 OpenBabel11072409403D

 25 27  0  0  1  0  0  0  0  0999 V2000
  186.9740  177.0340  140.8300 C   0  0  0  0  0  2  0  0  0  0  0  0
  187.1840  177.9160  145.8190 N   0  0  1  0  0  0  0  0  0  0  0  0
  184.1230  179.0870  144.1180 C   0  0  0  0  0  2  0  0  0  0  0  0
  186.0540  177.0370  141.9130 O   0  0  0  0  0  0  0  0  0  0  0  0
  190.8350  173.4980  144.1030 C   0  0  2  0  0  3  0  0  0  0  0  0
  184.8130  177.5700  146.0300 C   0  0  0  0  0  2  0  0  0  0  0  0
  186.1780  176.9250  146.1760 C   0  0  0  0  0  2  0  0  0  0  0  0
  185.0710  178.8670  145.2980 C   0  0  1  0  0  3  0  0  0  0  0  0
  191.7670  172.6470  143.2780 C   0  0  0  0  0  2  0  0  0  0  0  0
  188.8960  175.9630  141.9710 C   0  0  0  0  0  2  0  0  0  0  0  0
  191.4340  175.0260  146.0870 C   0  0  0  0  0  2  0  0  0  0  0  0
  190.0180  175.1590  146.6270 C   0  0  0  0  0  2  0  0  0  0  0  0
  193.0300  172.5310  144.0010 N   0  0  0  0  0  2  0  0  0  0  0  0
  184.0720  177.9160  143.1380 C   0  0  0  0  0  2  0  0  0  0  0  0
  188.2300  177.2280  145.0820 C   0  0  0  0  0  2  0  0  0  0  0  0
  185.1030  178.0450  142.0690 C   0  0  0  0  0  0  0  0  0  0  0  0
  186.5230  178.8150  144.8870 C   0  0  0  0  0  2  0  0  0  0  0  0
  190.5690  174.8070  143.3660 C   0  0  0  0  0  2  0  0  0  0  0  0
  189.7320  176.6060  146.9960 C   0  0  0  0  0  2  0  0  0  0  0  0
  189.5770  177.4670  145.7480 C   0  0  0  0  0  2  0  0  0  0  0  0
  191.6220  173.6820  145.3880 C   0  0  2  0  0  3  0  0  0  0  0  0
  187.8380  175.7900  140.9010 C   0  0  0  0  0  2  0  0  0  0  0  0
  185.0830  179.0400  141.2930 O   0  0  0  0  0  0  0  0  0  0  0  0
  193.0150  173.4810  145.0400 N   0  0  0  0  0  2  0  0  0  0  0  0
  189.4880  174.6150  142.3220 C   0  0  0  0  0  2  0  0  0  0  0  0
  1 22  1  0  0  0  0
  1  4  1  0  0  0  0
  2 17  1  6  0  0  0
  2  7  1  0  0  0  0
  4 16  1  0  0  0  0
  5  9  1  6  0  0  0
  5 21  1  0  0  0  0
  6  7  1  0  0  0  0
  8  3  1  6  0  0  0
  8  6  1  0  0  0  0
  9 13  1  0  0  0  0
 10 25  1  0  0  0  0
 11 12  1  0  0  0  0
 12 19  1  0  0  0  0
 13 24  1  0  0  0  0
 14  3  1  0  0  0  0
 15 20  1  0  0  0  0
 15  2  1  0  0  0  0
 16 14  1  0  0  0  0
 17  8  1  0  0  0  0
 18  5  1  0  0  0  0
 20 19  1  0  0  0  0
 21 11  1  6  0  0  0
 22 10  1  0  0  0  0
 23 16  2  0  0  0  0
 24 21  1  0  0  0  0
 25 18  1  0  0  0  0
M  END
>  <MODEL>
5

>  <REMARK>
 VINA RESULT:      -7.7      2.786      6.759
  Name = 
  0 active torsions:
  status: ('A' for Active; 'I' for Inactive)
                            x       y       z     vdW  Elec       q    Type
                         _______ _______ _______ _____ _____    ______ ____

>  <TORSDO>
F 0

$$$$
=
 OpenBabel11072409403D

 25 27  0  0  1  0  0  0  0  0999 V2000
  187.0720  176.7850  147.0350 C   0  0  0  0  0  2  0  0  0  0  0  0
  187.2670  176.1340  142.0100 N   0  0  1  0  0  0  0  0  0  0  0  0
  184.7840  178.5910  143.2070 C   0  0  0  0  0  2  0  0  0  0  0  0
  186.9410  177.6100  145.8860 O   0  0  0  0  0  0  0  0  0  0  0  0
  192.2970  174.4150  144.7540 C   0  0  2  0  0  3  0  0  0  0  0  0
  186.7740  178.4590  141.6400 C   0  0  0  0  0  2  0  0  0  0  0  0
  187.8800  177.4250  141.7280 C   0  0  0  0  0  2  0  0  0  0  0  0
  185.5430  177.7610  142.1710 C   0  0  1  0  0  3  0  0  0  0  0  0
  193.2570  173.8830  145.7900 C   0  0  0  0  0  2  0  0  0  0  0  0
  188.9520  175.3640  146.2670 C   0  0  0  0  0  2  0  0  0  0  0  0
  191.4820  173.2430  142.6110 C   0  0  0  0  0  2  0  0  0  0  0  0
  190.9540  174.4950  141.9280 C   0  0  0  0  0  2  0  0  0  0  0  0
  193.9480  172.7340  145.2140 N   0  0  0  0  0  2  0  0  0  0  0  0
  185.6560  179.0970  144.3560 C   0  0  0  0  0  2  0  0  0  0  0  0
  188.1340  175.4350  142.9430 C   0  0  0  0  0  2  0  0  0  0  0  0
  185.7070  178.1180  145.4800 C   0  0  0  0  0  0  0  0  0  0  0  0
  186.0340  176.4410  142.7170 C   0  0  0  0  0  2  0  0  0  0  0  0
  190.8670  174.1980  145.2400 C   0  0  0  0  0  2  0  0  0  0  0  0
  189.5950  174.2190  141.3030 C   0  0  0  0  0  2  0  0  0  0  0  0
  188.5200  174.0780  142.3740 C   0  0  0  0  0  2  0  0  0  0  0  0
  192.6490  173.5820  143.5350 C   0  0  2  0  0  3  0  0  0  0  0  0
  188.5330  176.4390  147.2480 C   0  0  0  0  0  2  0  0  0  0  0  0
  184.6460  177.7910  146.0790 O   0  0  0  0  0  0  0  0  0  0  0  0
  193.2670  172.3710  144.0380 N   0  0  0  0  0  2  0  0  0  0  0  0
  190.4620  175.3010  146.1960 C   0  0  0  0  0  2  0  0  0  0  0  0
  1 22  1  0  0  0  0
  2  7  1  1  0  0  0
  2 17  1  0  0  0  0
  2 15  1  0  0  0  0
  3 14  1  0  0  0  0
  4  1  1  0  0  0  0
  5 18  1  1  0  0  0
  5  9  1  0  0  0  0
  6  7  1  0  0  0  0
  8  6  1  1  0  0  0
  8 17  1  0  0  0  0
  8  3  1  0  0  0  0
 10 22  1  0  0  0  0
 12 11  1  0  0  0  0
 13  9  1  0  0  0  0
 14 16  1  0  0  0  0
 16  4  1  0  0  0  0
 16 23  2  0  0  0  0
 18 25  1  0  0  0  0
 19 12  1  0  0  0  0
 19 20  1  0  0  0  0
 20 15  1  0  0  0  0
 21 11  1  1  0  0  0
 21 24  1  0  0  0  0
 21  5  1  0  0  0  0
 24 13  1  0  0  0  0
 25 10  1  0  0  0  0
M  END
>  <MODEL>
6

>  <REMARK>
 VINA RESULT:      -7.6      2.922      7.499
  Name = 
  0 active torsions:
  status: ('A' for Active; 'I' for Inactive)
                            x       y       z     vdW  Elec       q    Type
                         _______ _______ _______ _____ _____    ______ ____

>  <TORSDO>
F 0

$$$$
=
 OpenBabel11072409403D

 25 27  0  0  1  0  0  0  0  0999 V2000
  186.2300  178.6630  142.2900 C   0  0  0  0  0  2  0  0  0  0  0  0
  188.2030  176.8100  146.5780 N   0  0  1  0  0  0  0  0  0  0  0  0
  185.5640  179.3580  147.0050 C   0  0  0  0  0  2  0  0  0  0  0  0
  185.7460  178.3300  143.5840 O   0  0  0  0  0  0  0  0  0  0  0  0
  189.0210  173.1700  141.9020 C   0  0  2  0  0  3  0  0  0  0  0  0
  186.0720  176.9680  147.6840 C   0  0  0  0  0  2  0  0  0  0  0  0
  187.0230  176.0410  146.9510 C   0  0  0  0  0  2  0  0  0  0  0  0
  186.6270  178.3550  147.4570 C   0  0  1  0  0  3  0  0  0  0  0  0
  189.2360  172.6660  140.4960 C   0  0  0  0  0  2  0  0  0  0  0  0
  187.7670  176.7490  141.9570 C   0  0  0  0  0  2  0  0  0  0  0  0
  190.7420  173.2890  143.8140 C   0  0  0  0  0  2  0  0  0  0  0  0
  189.7290  173.4540  144.9370 C   0  0  0  0  0  2  0  0  0  0  0  0
  190.4840  171.9090  140.4750 N   0  0  0  0  0  2  0  0  0  0  0  0
  184.7510  178.8970  145.7960 C   0  0  0  0  0  2  0  0  0  0  0  0
  188.6080  176.3710  145.2540 C   0  0  0  0  0  2  0  0  0  0  0  0
  185.3910  179.3080  144.5120 C   0  0  0  0  0  0  0  0  0  0  0  0
  187.7420  178.1830  146.4530 C   0  0  0  0  0  2  0  0  0  0  0  0
  189.1270  174.6920  141.9090 C   0  0  0  0  0  2  0  0  0  0  0  0
  190.1910  174.5340  145.9050 C   0  0  0  0  0  2  0  0  0  0  0  0
  190.0600  175.9180  145.2800 C   0  0  0  0  0  2  0  0  0  0  0  0
  190.1440  172.4870  142.6620 C   0  0  2  0  0  3  0  0  0  0  0  0
  186.4770  177.3950  141.4980 C   0  0  0  0  0  2  0  0  0  0  0  0
  185.5660  180.5320  144.2610 O   0  0  0  0  0  0  0  0  0  0  0  0
  191.1630  172.1720  141.6790 N   0  0  0  0  0  2  0  0  0  0  0  0
  187.8170  175.3150  141.4750 C   0  0  0  0  0  2  0  0  0  0  0  0
  1  4  1  0  0  0  0
  2 15  1  6  0  0  0
  2  7  1  0  0  0  0
  3  8  1  0  0  0  0
  4 16  1  0  0  0  0
  5  9  1  6  0  0  0
  5 18  1  0  0  0  0
  5 21  1  0  0  0  0
  7  6  1  0  0  0  0
  8 17  1  6  0  0  0
  8  6  1  0  0  0  0
 11 12  1  0  0  0  0
 12 19  1  0  0  0  0
 13  9  1  0  0  0  0
 13 24  1  0  0  0  0
 14  3  1  0  0  0  0
 15 20  1  0  0  0  0
 16 14  1  0  0  0  0
 17  2  1  0  0  0  0
 20 19  1  0  0  0  0
 21 11  1  1  0  0  0
 22 10  1  0  0  0  0
 22  1  1  0  0  0  0
 23 16  2  0  0  0  0
 24 21  1  0  0  0  0
 25 18  1  0  0  0  0
 25 10  1  0  0  0  0
M  END
>  <MODEL>
7

>  <REMARK>
 VINA RESULT:      -7.6      3.237      6.175
  Name = 
  0 active torsions:
  status: ('A' for Active; 'I' for Inactive)
                            x       y       z     vdW  Elec       q    Type
                         _______ _______ _______ _____ _____    ______ ____

>  <TORSDO>
F 0

$$$$
=
 OpenBabel11072409403D

 25 27  0  0  1  0  0  0  0  0999 V2000
  192.1660  174.9750  145.5950 C   0  0  0  0  0  2  0  0  0  0  0  0
  189.1320  174.8080  141.5350 N   0  0  1  0  0  0  0  0  0  0  0  0
  192.0830  172.5900  141.4170 C   0  0  0  0  0  2  0  0  0  0  0  0
  191.7110  173.9770  144.6930 O   0  0  0  0  0  0  0  0  0  0  0  0
  186.3600  176.9160  146.3990 C   0  0  2  0  0  3  0  0  0  0  0  0
  189.5550  172.4560  141.2550 C   0  0  0  0  0  2  0  0  0  0  0  0
  188.5940  173.4850  141.8210 C   0  0  0  0  0  2  0  0  0  0  0  0
  190.7980  173.2390  140.8980 C   0  0  1  0  0  3  0  0  0  0  0  0
  186.0980  177.6010  147.7170 C   0  0  0  0  0  2  0  0  0  0  0  0
  190.0520  176.2430  145.8530 C   0  0  0  0  0  2  0  0  0  0  0  0
  185.7200  177.7320  144.0420 C   0  0  0  0  0  2  0  0  0  0  0  0
  185.8930  176.3900  143.3490 C   0  0  0  0  0  2  0  0  0  0  0  0
  185.0960  178.6390  147.4930 N   0  0  0  0  0  2  0  0  0  0  0  0
  192.0570  172.2710  142.9110 C   0  0  0  0  0  2  0  0  0  0  0  0
  188.8730  175.6430  142.6960 C   0  0  0  0  0  2  0  0  0  0  0  0
  192.5490  173.4180  143.7290 C   0  0  0  0  0  0  0  0  0  0  0  0
  190.5730  174.6260  141.4500 C   0  0  0  0  0  2  0  0  0  0  0  0
  187.7890  177.2160  145.9550 C   0  0  0  0  0  2  0  0  0  0  0  0
  186.6360  176.5700  142.0340 C   0  0  0  0  0  2  0  0  0  0  0  0
  188.1070  176.8880  142.2770 C   0  0  0  0  0  2  0  0  0  0  0  0
  185.3090  177.5390  145.4990 C   0  0  2  0  0  3  0  0  0  0  0  0
  191.0490  175.3430  146.5520 C   0  0  0  0  0  2  0  0  0  0  0  0
  193.7260  173.8440  143.5700 O   0  0  0  0  0  0  0  0  0  0  0  0
  184.9640  178.8120  146.1030 N   0  0  0  0  0  2  0  0  0  0  0  0
  188.7630  176.2850  146.6450 C   0  0  0  0  0  2  0  0  0  0  0  0
  1 22  1  0  0  0  0
  2 17  1  1  0  0  0
  2  7  1  0  0  0  0
  2 15  1  0  0  0  0
  3 14  1  0  0  0  0
  4  1  1  0  0  0  0
  5 18  1  6  0  0  0
  5  9  1  0  0  0  0
  6  7  1  0  0  0  0
  8  6  1  1  0  0  0
  8  3  1  0  0  0  0
  8 17  1  0  0  0  0
 10 22  1  0  0  0  0
 10 25  1  0  0  0  0
 12 11  1  0  0  0  0
 13  9  1  0  0  0  0
 14 16  1  0  0  0  0
 16  4  1  0  0  0  0
 18 25  1  0  0  0  0
 19 20  1  0  0  0  0
 19 12  1  0  0  0  0
 20 15  1  0  0  0  0
 21 11  1  6  0  0  0
 21 24  1  0  0  0  0
 21  5  1  0  0  0  0
 23 16  2  0  0  0  0
 24 13  1  0  0  0  0
M  END
>  <MODEL>
8

>  <REMARK>
 VINA RESULT:      -7.6      2.183      4.850
  Name = 
  0 active torsions:
  status: ('A' for Active; 'I' for Inactive)
                            x       y       z     vdW  Elec       q    Type
                         _______ _______ _______ _____ _____    ______ ____

>  <TORSDO>
F 0

$$$$
=
 OpenBabel11072409403D

 25 27  0  0  1  0  0  0  0  0999 V2000
  188.4340  175.0190  141.0900 C   0  0  0  0  0  2  0  0  0  0  0  0
  189.3520  177.1860  145.5820 N   0  0  1  0  0  0  0  0  0  0  0  0
  186.0070  177.8270  144.1530 C   0  0  0  0  0  2  0  0  0  0  0  0
  187.6910  175.2950  142.2690 O   0  0  0  0  0  0  0  0  0  0  0  0
  192.9380  172.5220  144.4970 C   0  0  2  0  0  3  0  0  0  0  0  0
  187.0630  176.8750  146.2540 C   0  0  0  0  0  2  0  0  0  0  0  0
  188.4680  176.3100  146.3400 C   0  0  0  0  0  2  0  0  0  0  0  0
  187.1350  177.9380  145.1810 C   0  0  1  0  0  3  0  0  0  0  0  0
  193.7800  171.4970  143.7790 C   0  0  0  0  0  2  0  0  0  0  0  0
  190.5640  174.3130  142.1430 C   0  0  0  0  0  2  0  0  0  0  0  0
  193.7470  174.5270  145.8960 C   0  0  0  0  0  2  0  0  0  0  0  0
  192.4240  174.7770  146.6050 C   0  0  0  0  0  2  0  0  0  0  0  0
  195.1430  171.5930  144.2940 N   0  0  0  0  0  2  0  0  0  0  0  0
  185.8730  176.4380  143.5290 C   0  0  0  0  0  2  0  0  0  0  0  0
  190.3100  176.3420  144.8880 C   0  0  0  0  0  2  0  0  0  0  0  0
  186.7210  176.2960  142.3110 C   0  0  0  0  0  0  0  0  0  0  0  0
  188.5080  177.8000  144.5690 C   0  0  0  0  0  2  0  0  0  0  0  0
  192.4910  173.5880  143.4990 C   0  0  0  0  0  2  0  0  0  0  0  0
  192.1170  176.2670  146.6300 C   0  0  0  0  0  2  0  0  0  0  0  0
  191.7270  176.7670  145.2440 C   0  0  0  0  0  2  0  0  0  0  0  0
  193.9000  173.0490  145.5460 C   0  0  2  0  0  3  0  0  0  0  0  0
  189.3670  173.8500  141.3390 C   0  0  0  0  0  2  0  0  0  0  0  0
  186.5280  177.0510  141.3190 O   0  0  0  0  0  0  0  0  0  0  0  0
  195.2330  172.7820  145.0420 N   0  0  0  0  0  2  0  0  0  0  0  0
  191.2760  173.1130  142.7290 C   0  0  0  0  0  2  0  0  0  0  0  0
  1 22  1  0  0  0  0
  1  4  1  0  0  0  0
  2 17  1  6  0  0  0
  2  7  1  0  0  0  0
  4 16  1  0  0  0  0
  5 18  1  6  0  0  0
  5 21  1  0  0  0  0
  6  7  1  0  0  0  0
  8  3  1  6  0  0  0
  8  6  1  0  0  0  0
  9 13  1  0  0  0  0
  9  5  1  0  0  0  0
 10 25  1  0  0  0  0
 11 12  1  0  0  0  0
 12 19  1  0  0  0  0
 13 24  1  0  0  0  0
 14  3  1  0  0  0  0
 15 20  1  0  0  0  0
 15  2  1  0  0  0  0
 16 14  1  0  0  0  0
 17  8  1  0  0  0  0
 20 19  1  0  0  0  0
 21 11  1  6  0  0  0
 22 10  1  0  0  0  0
 23 16  2  0  0  0  0
 24 21  1  0  0  0  0
 25 18  1  0  0  0  0
M  END
>  <MODEL>
9

>  <REMARK>
 VINA RESULT:      -7.6      3.058      7.184
  Name = 
  0 active torsions:
  status: ('A' for Active; 'I' for Inactive)
                            x       y       z     vdW  Elec       q    Type
                         _______ _______ _______ _____ _____    ______ ____

>  <TORSDO>
F 0

$$$$
