=
 OpenBabel11062422533D

 46 50  0  0  1  0  0  0  0  0999 V2000
  190.6420  178.1280  143.5930 C   0  0  0  0  0  3  0  0  0  0  0  0
  191.5840  175.1650  146.5630 C   0  0  0  0  0  2  0  0  0  0  0  0
  189.9490  176.4260  145.1610 C   0  0  0  0  0  3  0  0  0  0  0  0
  192.3130  176.8850  144.8360 C   0  0  0  0  0  0  0  0  0  0  0  0
  191.2850  176.1530  145.4700 C   0  0  0  0  0  0  0  0  0  0  0  0
  193.0040  174.6220  146.4720 C   0  0  0  0  0  2  0  0  0  0  0  0
  193.7680  176.5850  145.0930 C   0  0  1  0  0  3  0  0  0  0  0  0
  191.9790  177.8690  143.8990 C   0  0  0  0  0  3  0  0  0  0  0  0
  193.9930  175.7780  146.3750 C   0  0  0  0  0  2  0  0  0  0  0  0
  189.6120  177.4060  144.2110 C   0  0  0  0  0  0  0  0  0  0  0  0
  184.9080  178.0410  145.1890 C   0  0  0  0  0  0  0  0  0  0  0  0
  186.2810  177.7370  145.6340 C   0  0  0  0  0  3  0  0  0  0  0  0
  188.1940  177.6810  143.8670 C   0  0  0  0  0  0  0  0  0  0  0  0
  187.2720  177.6930  144.7950 C   0  0  0  0  0  0  0  0  0  0  0  0
  186.3600  178.5510  142.2410 C   0  0  0  0  0  2  0  0  0  0  0  0
  184.5170  178.0910  143.8060 N   0  0  0  0  0  2  0  0  0  0  0  0
  184.0200  178.2970  146.0910 N   0  0  0  0  0  2  0  0  0  0  0  0
  185.2760  177.5690  142.6730 C   0  0  0  0  0  2  0  0  0  0  0  0
  187.7850  178.0000  142.4400 C   0  0  2  0  0  3  0  0  0  0  0  0
  188.1050  176.9260  141.4950 N   0  0  0  0  0  2  0  0  0  0  0  0
  188.0760  173.2580  142.5640 C   0  0  0  0  0  2  0  0  0  0  0  0
  190.0200  175.3100  141.7300 C   0  0  0  0  0  2  0  0  0  0  0  0
  188.5380  175.5940  141.7990 C   0  0  0  0  0  0  0  0  0  0  0  0
  189.5600  173.1560  142.8970 C   0  0  0  0  0  2  0  0  0  0  0  0
  187.6760  174.6740  142.2600 C   0  0  0  0  0  3  0  0  0  0  0  0
  190.3550  173.8220  141.7850 C   0  0  0  0  0  2  0  0  0  0  0  0
  195.5900  176.1940  143.6070 O   0  0  0  0  0  0  0  0  0  0  0  0
  194.4010  175.9110  143.9140 C   0  0  0  0  0  0  0  0  0  0  0  0
  193.6600  174.9570  143.1440 N   0  0  0  0  0  2  0  0  0  0  0  0
  194.2470  174.1900  142.0520 C   0  0  0  0  0  2  0  0  0  0  0  0
  194.5690  172.7660  142.5110 C   0  0  2  0  0  3  0  0  0  0  0  0
  195.7750  172.2720  141.9660 O   0  0  0  0  0  0  0  0  0  0  0  0
  196.8140  172.4740  142.8930 C   0  0  0  0  0  2  0  0  0  0  0  0
  196.8560  171.3350  143.8580 C   0  0  0  0  0  0  0  0  0  0  0  0
  196.7470  170.1890  143.4500 O   0  0  0  0  0  0  0  0  0  0  0  0
  197.0480  171.6140  145.3180 C   0  0  2  0  0  3  0  0  0  0  0  0
  196.7400  170.3890  146.1640 C   0  0  0  0  0  1  0  0  0  0  0  0
  197.0840  173.8350  146.2540 O   0  0  0  0  0  1  0  0  0  0  0  0
  196.2450  172.8260  145.7810 C   0  0  0  0  0  2  0  0  0  0  0  0
  193.4510  171.8560  142.2800 N   0  0  0  0  0  2  0  0  0  0  0  0
  193.6620  171.2590  140.9720 C   0  0  0  0  0  2  0  0  0  0  0  0
  192.3960  171.2530  140.1770 C   0  0  0  0  0  0  0  0  0  0  0  0
  190.8830  171.6740  138.6070 C   0  0  0  0  0  3  0  0  0  0  0  0
  190.3030  170.7960  139.3560 N   0  0  0  0  0  0  0  0  0  0  0  0
  192.2170  171.9880  139.0960 C   0  0  0  0  0  3  0  0  0  0  0  0
  191.1910  170.4180  140.4410 C   0  0  0  0  0  2  0  0  0  0  0  0
  1  8  2  0  0  0  0
  1 10  1  0  0  0  0
  3  5  1  0  0  0  0
  4  7  1  0  0  0  0
  4  5  2  0  0  0  0
  5  2  1  0  0  0  0
  6  2  1  0  0  0  0
  7 28  1  6  0  0  0
  7  9  1  0  0  0  0
  8  4  1  0  0  0  0
  9  6  1  0  0  0  0
 10  3  2  0  0  0  0
 11 12  1  0  0  0  0
 11 17  2  0  0  0  0
 13 10  1  0  0  0  0
 13 14  2  0  0  0  0
 14 12  2  0  0  0  0
 15 19  1  0  0  0  0
 15 18  1  0  0  0  0
 16 11  1  0  0  0  0
 18 16  1  0  0  0  0
 19 20  1  6  0  0  0
 19 13  1  0  0  0  0
 20 23  1  0  0  0  0
 21 24  1  0  0  0  0
 22 26  1  0  0  0  0
 22 23  1  0  0  0  0
 23 25  2  0  0  0  0
 25 21  1  0  0  0  0
 26 24  1  0  0  0  0
 27 28  2  0  0  0  0
 29 28  1  0  0  0  0
 30 29  1  0  0  0  0
 31 30  1  6  0  0  0
 32 31  1  0  0  0  0
 32 33  1  0  0  0  0
 33 34  1  0  0  0  0
 34 36  1  0  0  0  0
 35 34  2  0  0  0  0
 36 39  1  0  0  0  0
 36 37  1  1  0  0  0
 39 38  1  0  0  0  0
 40 31  1  0  0  0  0
 41 40  1  0  0  0  0
 42 46  1  0  0  0  0
 42 41  1  0  0  0  0
 43 45  1  0  0  0  0
 43 44  2  0  0  0  0
 44 46  1  0  0  0  0
 45 42  2  0  0  0  0
M  END
>  <MODEL>
1

>  <REMARK>
 VINA RESULT:      -7.0      0.000      0.000
  Name = 
  14 active torsions:
  status: ('A' for Active; 'I' for Inactive)
    1  A    between atoms: C_1  and  C_22
    2  A    between atoms: C_1  and  C_42
    3  A    between atoms: C_3  and  C_35
    4  A    between atoms: C_11  and  C_44
    5  A    between atoms: C_16  and  C_30
    6  A    between atoms: C_19  and  N_24
    7  A    between atoms: C_19  and  C_45
    8  A    between atoms: C_21  and  N_41
    9  A    between atoms: C_22  and  C_23
   10  A    between atoms: C_23  and  O_27
   11  A    between atoms: O_27  and  C_45
   12  A    between atoms: C_35  and  N_43
   13  A    between atoms: C_39  and  N_41
   14  A    between atoms: N_43  and  C_45
                            x       y       z     vdW  Elec       q    Type
                         _______ _______ _______ _____ _____    ______ ____

>  <TORSDO>
F 14

$$$$
=
 OpenBabel11062422533D

 46 50  0  0  1  0  0  0  0  0999 V2000
  190.6020  178.1810  143.5350 C   0  0  0  0  0  3  0  0  0  0  0  0
  191.5200  175.2100  146.5050 C   0  0  0  0  0  2  0  0  0  0  0  0
  189.8980  176.4680  145.0860 C   0  0  0  0  0  3  0  0  0  0  0  0
  192.2630  176.9420  144.7950 C   0  0  0  0  0  0  0  0  0  0  0  0
  191.2310  176.2010  145.4120 C   0  0  0  0  0  0  0  0  0  0  0  0
  192.9450  174.6760  146.4320 C   0  0  0  0  0  2  0  0  0  0  0  0
  193.7160  176.6500  145.0710 C   0  0  1  0  0  3  0  0  0  0  0  0
  191.9360  177.9290  143.8590 C   0  0  0  0  0  3  0  0  0  0  0  0
  193.9280  175.8380  146.3530 C   0  0  0  0  0  2  0  0  0  0  0  0
  189.5680  177.4490  144.1360 C   0  0  0  0  0  0  0  0  0  0  0  0
  184.8600  178.1330  145.0610 C   0  0  0  0  0  0  0  0  0  0  0  0
  186.2290  177.8390  145.5250 C   0  0  0  0  0  3  0  0  0  0  0  0
  188.1530  177.7180  143.7730 C   0  0  0  0  0  0  0  0  0  0  0  0
  187.2250  177.7640  144.6940 C   0  0  0  0  0  0  0  0  0  0  0  0
  186.3330  178.5380  142.1060 C   0  0  0  0  0  2  0  0  0  0  0  0
  184.4780  178.1380  143.6740 N   0  0  0  0  0  2  0  0  0  0  0  0
  183.9670  178.4220  145.9480 N   0  0  0  0  0  2  0  0  0  0  0  0
  185.2420  177.5750  142.5650 C   0  0  0  0  0  2  0  0  0  0  0  0
  187.7540  177.9890  142.3340 C   0  0  2  0  0  3  0  0  0  0  0  0
  188.0770  176.8830  141.4270 N   0  0  0  0  0  2  0  0  0  0  0  0
  187.9850  173.2430  142.5830 C   0  0  0  0  0  2  0  0  0  0  0  0
  189.9710  175.2630  141.7720 C   0  0  0  0  0  2  0  0  0  0  0  0
  188.4900  175.5560  141.7800 C   0  0  0  0  0  0  0  0  0  0  0  0
  189.4540  173.1400  142.9730 C   0  0  0  0  0  2  0  0  0  0  0  0
  187.6050  174.6530  142.2300 C   0  0  0  0  0  3  0  0  0  0  0  0
  190.2940  173.7740  141.8750 C   0  0  0  0  0  2  0  0  0  0  0  0
  195.5510  176.2980  143.5920 O   0  0  0  0  0  0  0  0  0  0  0  0
  194.3690  175.9860  143.8990 C   0  0  0  0  0  0  0  0  0  0  0  0
  193.6560  175.0060  143.1340 N   0  0  0  0  0  2  0  0  0  0  0  0
  194.2670  174.2470  142.0500 C   0  0  0  0  0  2  0  0  0  0  0  0
  194.3160  172.7580  142.3990 C   0  0  2  0  0  3  0  0  0  0  0  0
  193.3700  171.9930  141.6810 O   0  0  0  0  0  0  0  0  0  0  0  0
  193.4640  172.3120  140.3140 C   0  0  0  0  0  2  0  0  0  0  0  0
  192.2710  171.7840  139.5890 C   0  0  0  0  0  0  0  0  0  0  0  0
  191.7070  170.7800  139.9980 O   0  0  0  0  0  0  0  0  0  0  0  0
  191.7680  172.5030  138.3740 C   0  0  2  0  0  3  0  0  0  0  0  0
  192.3190  173.9180  138.2980 C   0  0  0  0  0  1  0  0  0  0  0  0
  189.7230  173.7760  138.4550 O   0  0  0  0  0  1  0  0  0  0  0  0
  190.2450  172.4930  138.2910 C   0  0  0  0  0  2  0  0  0  0  0  0
  194.2210  172.5350  143.8390 N   0  0  0  0  0  2  0  0  0  0  0  0
  195.5720  172.2880  144.3130 C   0  0  0  0  0  2  0  0  0  0  0  0
  195.5930  171.1760  145.3110 C   0  0  0  0  0  0  0  0  0  0  0  0
  194.9760  169.4590  146.5780 C   0  0  0  0  0  3  0  0  0  0  0  0
  196.2270  169.6090  146.8630 N   0  0  0  0  0  0  0  0  0  0  0  0
  194.5380  170.4360  145.5930 C   0  0  0  0  0  3  0  0  0  0  0  0
  196.7740  170.7130  146.0930 C   0  0  0  0  0  2  0  0  0  0  0  0
  1  8  2  0  0  0  0
  1 10  1  0  0  0  0
  3  5  1  0  0  0  0
  4  7  1  0  0  0  0
  4  5  2  0  0  0  0
  5  2  1  0  0  0  0
  6  2  1  0  0  0  0
  7 28  1  6  0  0  0
  7  9  1  0  0  0  0
  8  4  1  0  0  0  0
  9  6  1  0  0  0  0
 10  3  2  0  0  0  0
 11 12  1  0  0  0  0
 11 17  2  0  0  0  0
 13 10  1  0  0  0  0
 13 14  2  0  0  0  0
 14 12  2  0  0  0  0
 15 19  1  0  0  0  0
 15 18  1  0  0  0  0
 16 11  1  0  0  0  0
 18 16  1  0  0  0  0
 19 20  1  6  0  0  0
 19 13  1  0  0  0  0
 20 23  1  0  0  0  0
 21 24  1  0  0  0  0
 22 23  1  0  0  0  0
 22 26  1  0  0  0  0
 23 25  2  0  0  0  0
 25 21  1  0  0  0  0
 26 24  1  0  0  0  0
 27 28  2  0  0  0  0
 29 28  1  0  0  0  0
 30 29  1  0  0  0  0
 31 30  1  1  0  0  0
 31 40  1  0  0  0  0
 32 31  1  0  0  0  0
 33 32  1  0  0  0  0
 34 35  2  0  0  0  0
 34 33  1  0  0  0  0
 36 37  1  1  0  0  0
 36 34  1  0  0  0  0
 39 36  1  0  0  0  0
 39 38  1  0  0  0  0
 40 41  1  0  0  0  0
 41 42  1  0  0  0  0
 42 45  2  0  0  0  0
 42 46  1  0  0  0  0
 43 44  2  0  0  0  0
 45 43  1  0  0  0  0
 46 44  1  0  0  0  0
M  END
>  <MODEL>
2

>  <REMARK>
 VINA RESULT:      -6.9      1.747      4.239
  Name = 
  14 active torsions:
  status: ('A' for Active; 'I' for Inactive)
    1  A    between atoms: C_1  and  C_22
    2  A    between atoms: C_1  and  C_42
    3  A    between atoms: C_3  and  C_35
    4  A    between atoms: C_11  and  C_44
    5  A    between atoms: C_16  and  C_30
    6  A    between atoms: C_19  and  N_24
    7  A    between atoms: C_19  and  C_45
    8  A    between atoms: C_21  and  N_41
    9  A    between atoms: C_22  and  C_23
   10  A    between atoms: C_23  and  O_27
   11  A    between atoms: O_27  and  C_45
   12  A    between atoms: C_35  and  N_43
   13  A    between atoms: C_39  and  N_41
   14  A    between atoms: N_43  and  C_45
                            x       y       z     vdW  Elec       q    Type
                         _______ _______ _______ _____ _____    ______ ____

>  <TORSDO>
F 14

$$$$
=
 OpenBabel11062422533D

 46 50  0  0  1  0  0  0  0  0999 V2000
  190.6700  178.2610  143.7530 C   0  0  0  0  0  3  0  0  0  0  0  0
  191.6260  175.1680  146.5830 C   0  0  0  0  0  2  0  0  0  0  0  0
  189.9900  176.4550  145.2060 C   0  0  0  0  0  3  0  0  0  0  0  0
  192.3460  177.0030  144.9740 C   0  0  0  0  0  0  0  0  0  0  0  0
  191.3260  176.2060  145.5380 C   0  0  0  0  0  0  0  0  0  0  0  0
  193.0650  174.6750  146.5040 C   0  0  0  0  0  2  0  0  0  0  0  0
  193.8020  176.7340  145.2550 C   0  0  1  0  0  3  0  0  0  0  0  0
  192.0050  178.0270  144.0830 C   0  0  0  0  0  3  0  0  0  0  0  0
  194.0190  175.8640  146.4980 C   0  0  0  0  0  2  0  0  0  0  0  0
  189.6470  177.4740  144.3020 C   0  0  0  0  0  0  0  0  0  0  0  0
  184.9180  178.0390  145.1990 C   0  0  0  0  0  0  0  0  0  0  0  0
  186.2880  177.7600  145.6690 C   0  0  0  0  0  3  0  0  0  0  0  0
  188.2310  177.7250  143.9330 C   0  0  0  0  0  0  0  0  0  0  0  0
  187.2940  177.7270  144.8450 C   0  0  0  0  0  0  0  0  0  0  0  0
  186.4100  178.5550  142.2710 C   0  0  0  0  0  2  0  0  0  0  0  0
  184.5500  178.0750  143.8090 N   0  0  0  0  0  2  0  0  0  0  0  0
  184.0120  178.2850  146.0850 N   0  0  0  0  0  2  0  0  0  0  0  0
  185.3350  177.5590  142.6920 C   0  0  0  0  0  2  0  0  0  0  0  0
  187.8400  178.0280  142.4980 C   0  0  2  0  0  3  0  0  0  0  0  0
  188.1930  176.9540  141.5640 N   0  0  0  0  0  2  0  0  0  0  0  0
  188.1950  173.2850  142.6310 C   0  0  0  0  0  2  0  0  0  0  0  0
  190.1280  175.3750  141.8680 C   0  0  0  0  0  2  0  0  0  0  0  0
  188.6400  175.6300  141.8840 C   0  0  0  0  0  0  0  0  0  0  0  0
  189.6670  173.2110  143.0170 C   0  0  0  0  0  2  0  0  0  0  0  0
  187.7790  174.6940  142.3120 C   0  0  0  0  0  3  0  0  0  0  0  0
  190.4890  173.8930  141.9350 C   0  0  0  0  0  2  0  0  0  0  0  0
  193.8260  175.4380  143.2550 O   0  0  0  0  0  0  0  0  0  0  0  0
  194.4880  176.1460  144.0600 C   0  0  0  0  0  0  0  0  0  0  0  0
  195.8820  176.3870  143.8370 N   0  0  0  0  0  2  0  0  0  0  0  0
  196.5850  175.9350  142.6430 C   0  0  0  0  0  2  0  0  0  0  0  0
  197.7510  175.0190  143.0220 C   0  0  2  0  0  3  0  0  0  0  0  0
  197.9410  173.9610  142.1040 O   0  0  0  0  0  0  0  0  0  0  0  0
  196.9550  174.0400  141.1040 C   0  0  0  0  0  2  0  0  0  0  0  0
  196.3570  172.6900  140.8790 C   0  0  0  0  0  0  0  0  0  0  0  0
  196.9510  171.6930  141.2580 O   0  0  0  0  0  0  0  0  0  0  0  0
  195.0240  172.5780  140.2030 C   0  0  2  0  0  3  0  0  0  0  0  0
  193.8900  172.5230  141.2140 C   0  0  0  0  0  1  0  0  0  0  0  0
  195.1220  171.8190  137.9180 O   0  0  0  0  0  1  0  0  0  0  0  0
  194.9670  171.3980  139.2380 C   0  0  0  0  0  2  0  0  0  0  0  0
  197.6400  174.5390  144.3960 N   0  0  0  0  0  2  0  0  0  0  0  0
  197.9330  173.1160  144.3650 C   0  0  0  0  0  2  0  0  0  0  0  0
  196.7870  172.3220  144.9030 C   0  0  0  0  0  0  0  0  0  0  0  0
  194.7340  171.5700  145.2940 C   0  0  0  0  0  3  0  0  0  0  0  0
  195.4840  170.7630  145.9680 N   0  0  0  0  0  0  0  0  0  0  0  0
  195.5280  172.5740  144.6010 C   0  0  0  0  0  3  0  0  0  0  0  0
  196.8780  171.1370  145.8010 C   0  0  0  0  0  2  0  0  0  0  0  0
  1  8  2  0  0  0  0
  1 10  1  0  0  0  0
  3  5  1  0  0  0  0
  4  7  1  0  0  0  0
  4  5  2  0  0  0  0
  5  2  1  0  0  0  0
  6  2  1  0  0  0  0
  7 28  1  6  0  0  0
  7  9  1  0  0  0  0
  8  4  1  0  0  0  0
  9  6  1  0  0  0  0
 10  3  2  0  0  0  0
 11 12  1  0  0  0  0
 11 17  2  0  0  0  0
 13 10  1  0  0  0  0
 13 14  2  0  0  0  0
 14 12  2  0  0  0  0
 15 19  1  0  0  0  0
 15 18  1  0  0  0  0
 16 11  1  0  0  0  0
 18 16  1  0  0  0  0
 19 20  1  6  0  0  0
 19 13  1  0  0  0  0
 20 23  1  0  0  0  0
 21 24  1  0  0  0  0
 22 23  1  0  0  0  0
 22 26  1  0  0  0  0
 23 25  2  0  0  0  0
 25 21  1  0  0  0  0
 26 24  1  0  0  0  0
 27 28  2  0  0  0  0
 29 28  1  0  0  0  0
 30 29  1  0  0  0  0
 31 30  1  6  0  0  0
 31 40  1  0  0  0  0
 32 31  1  0  0  0  0
 33 32  1  0  0  0  0
 34 33  1  0  0  0  0
 34 35  2  0  0  0  0
 36 34  1  0  0  0  0
 36 37  1  1  0  0  0
 38 39  1  0  0  0  0
 39 36  1  0  0  0  0
 41 40  1  0  0  0  0
 41 42  1  0  0  0  0
 42 46  1  0  0  0  0
 43 44  2  0  0  0  0
 45 42  2  0  0  0  0
 45 43  1  0  0  0  0
 46 44  1  0  0  0  0
M  END
>  <MODEL>
3

>  <REMARK>
 VINA RESULT:      -6.9      1.878      3.606
  Name = 
  14 active torsions:
  status: ('A' for Active; 'I' for Inactive)
    1  A    between atoms: C_1  and  C_22
    2  A    between atoms: C_1  and  C_42
    3  A    between atoms: C_3  and  C_35
    4  A    between atoms: C_11  and  C_44
    5  A    between atoms: C_16  and  C_30
    6  A    between atoms: C_19  and  N_24
    7  A    between atoms: C_19  and  C_45
    8  A    between atoms: C_21  and  N_41
    9  A    between atoms: C_22  and  C_23
   10  A    between atoms: C_23  and  O_27
   11  A    between atoms: O_27  and  C_45
   12  A    between atoms: C_35  and  N_43
   13  A    between atoms: C_39  and  N_41
   14  A    between atoms: N_43  and  C_45
                            x       y       z     vdW  Elec       q    Type
                         _______ _______ _______ _____ _____    ______ ____

>  <TORSDO>
F 14

$$$$
=
 OpenBabel11062422533D

 46 50  0  0  1  0  0  0  0  0999 V2000
  190.6820  178.1950  143.6170 C   0  0  0  0  0  3  0  0  0  0  0  0
  191.7750  175.3000  146.6030 C   0  0  0  0  0  2  0  0  0  0  0  0
  190.0740  176.4910  145.2190 C   0  0  0  0  0  3  0  0  0  0  0  0
  192.4150  177.0220  144.8420 C   0  0  0  0  0  0  0  0  0  0  0  0
  191.4240  176.2650  145.5050 C   0  0  0  0  0  0  0  0  0  0  0  0
  193.2110  174.8020  146.4910 C   0  0  0  0  0  2  0  0  0  0  0  0
  193.8840  176.7720  145.0740 C   0  0  1  0  0  3  0  0  0  0  0  0
  192.0320  177.9830  143.9010 C   0  0  0  0  0  3  0  0  0  0  0  0
  194.1590  175.9880  146.3610 C   0  0  0  0  0  2  0  0  0  0  0  0
  189.6880  177.4470  144.2640 C   0  0  0  0  0  0  0  0  0  0  0  0
  184.9780  177.8880  145.3190 C   0  0  0  0  0  0  0  0  0  0  0  0
  186.3680  177.6310  145.7400 C   0  0  0  0  0  3  0  0  0  0  0  0
  188.2550  177.6730  143.9440 C   0  0  0  0  0  0  0  0  0  0  0  0
  187.3480  177.6360  144.8850 C   0  0  0  0  0  0  0  0  0  0  0  0
  186.3650  178.4930  142.3570 C   0  0  0  0  0  2  0  0  0  0  0  0
  184.5650  177.9420  143.9420 N   0  0  0  0  0  2  0  0  0  0  0  0
  184.0950  178.0970  146.2370 N   0  0  0  0  0  2  0  0  0  0  0  0
  185.3250  177.4650  142.7910 C   0  0  0  0  0  2  0  0  0  0  0  0
  187.8130  177.9950  142.5280 C   0  0  2  0  0  3  0  0  0  0  0  0
  188.1590  176.9470  141.5630 N   0  0  0  0  0  2  0  0  0  0  0  0
  190.3740  173.8690  142.0330 C   0  0  0  0  0  2  0  0  0  0  0  0
  187.5150  174.5810  142.1280 C   0  0  0  0  0  2  0  0  0  0  0  0
  188.5860  175.6070  141.8430 C   0  0  0  0  0  0  0  0  0  0  0  0
  189.2720  172.8280  141.8780 C   0  0  0  0  0  2  0  0  0  0  0  0
  189.8740  175.2520  141.7230 C   0  0  0  0  0  3  0  0  0  0  0  0
  188.0650  173.2720  142.6910 C   0  0  0  0  0  2  0  0  0  0  0  0
  195.6790  176.4390  143.5430 O   0  0  0  0  0  0  0  0  0  0  0  0
  194.5160  176.1050  143.8920 C   0  0  0  0  0  0  0  0  0  0  0  0
  193.8020  175.0980  143.1640 N   0  0  0  0  0  2  0  0  0  0  0  0
  194.3960  174.3360  142.0720 C   0  0  0  0  0  2  0  0  0  0  0  0
  193.7790  174.7500  140.7340 C   0  0  2  0  0  3  0  0  0  0  0  0
  193.3270  173.6480  139.9730 O   0  0  0  0  0  0  0  0  0  0  0  0
  192.6490  174.1240  138.8360 C   0  0  0  0  0  2  0  0  0  0  0  0
  191.4780  173.2450  138.5430 C   0  0  0  0  0  0  0  0  0  0  0  0
  191.4100  172.1360  139.0500 O   0  0  0  0  0  0  0  0  0  0  0  0
  190.3910  173.7430  137.6400 C   0  0  2  0  0  3  0  0  0  0  0  0
  189.0380  173.7220  138.3330 C   0  0  0  0  0  1  0  0  0  0  0  0
  191.6380  172.7200  135.8490 O   0  0  0  0  0  1  0  0  0  0  0  0
  190.3510  172.9840  136.3170 C   0  0  0  0  0  2  0  0  0  0  0  0
  194.6740  175.6130  139.9680 N   0  0  0  0  0  2  0  0  0  0  0  0
  196.0280  175.1740  140.2600 C   0  0  0  0  0  2  0  0  0  0  0  0
  196.6990  174.6570  139.0290 C   0  0  0  0  0  0  0  0  0  0  0  0
  197.9390  173.4320  137.6530 C   0  0  0  0  0  3  0  0  0  0  0  0
  197.3690  174.2840  136.8660 N   0  0  0  0  0  0  0  0  0  0  0  0
  197.5360  173.6370  139.0350 C   0  0  0  0  0  2  0  0  0  0  0  0
  196.5090  175.1620  137.6410 C   0  0  0  0  0  3  0  0  0  0  0  0
  1  8  2  0  0  0  0
  1 10  1  0  0  0  0
  3  5  1  0  0  0  0
  4  7  1  0  0  0  0
  4  5  2  0  0  0  0
  5  2  1  0  0  0  0
  6  2  1  0  0  0  0
  7 28  1  6  0  0  0
  7  9  1  0  0  0  0
  8  4  1  0  0  0  0
  9  6  1  0  0  0  0
 10  3  2  0  0  0  0
 11 12  1  0  0  0  0
 11 17  2  0  0  0  0
 13 10  1  0  0  0  0
 13 14  2  0  0  0  0
 14 12  2  0  0  0  0
 15 19  1  0  0  0  0
 15 18  1  0  0  0  0
 16 11  1  0  0  0  0
 18 16  1  0  0  0  0
 19 20  1  6  0  0  0
 19 13  1  0  0  0  0
 20 23  1  0  0  0  0
 22 26  1  0  0  0  0
 23 22  1  0  0  0  0
 24 21  1  0  0  0  0
 24 26  1  0  0  0  0
 25 23  2  0  0  0  0
 25 21  1  0  0  0  0
 27 28  2  0  0  0  0
 29 28  1  0  0  0  0
 30 29  1  0  0  0  0
 31 30  1  1  0  0  0
 32 31  1  0  0  0  0
 33 32  1  0  0  0  0
 34 33  1  0  0  0  0
 34 35  2  0  0  0  0
 36 37  1  1  0  0  0
 36 34  1  0  0  0  0
 38 39  1  0  0  0  0
 39 36  1  0  0  0  0
 40 41  1  0  0  0  0
 40 31  1  0  0  0  0
 42 45  1  0  0  0  0
 42 41  1  0  0  0  0
 43 45  1  0  0  0  0
 44 46  1  0  0  0  0
 44 43  2  0  0  0  0
 46 42  2  0  0  0  0
M  END
>  <MODEL>
4

>  <REMARK>
 VINA RESULT:      -6.9      2.481      4.625
  Name = 
  14 active torsions:
  status: ('A' for Active; 'I' for Inactive)
    1  A    between atoms: C_1  and  C_22
    2  A    between atoms: C_1  and  C_42
    3  A    between atoms: C_3  and  C_35
    4  A    between atoms: C_11  and  C_44
    5  A    between atoms: C_16  and  C_30
    6  A    between atoms: C_19  and  N_24
    7  A    between atoms: C_19  and  C_45
    8  A    between atoms: C_21  and  N_41
    9  A    between atoms: C_22  and  C_23
   10  A    between atoms: C_23  and  O_27
   11  A    between atoms: O_27  and  C_45
   12  A    between atoms: C_35  and  N_43
   13  A    between atoms: C_39  and  N_41
   14  A    between atoms: N_43  and  C_45
                            x       y       z     vdW  Elec       q    Type
                         _______ _______ _______ _____ _____    ______ ____

>  <TORSDO>
F 14

$$$$
=
 OpenBabel11062422533D

 46 50  0  0  1  0  0  0  0  0999 V2000
  193.2400  173.7790  142.5110 C   0  0  0  0  0  3  0  0  0  0  0  0
  193.7790  176.4990  145.7980 C   0  0  0  0  0  2  0  0  0  0  0  0
  194.3480  175.6800  143.5110 C   0  0  0  0  0  3  0  0  0  0  0  0
  192.5460  174.5640  144.6990 C   0  0  0  0  0  0  0  0  0  0  0  0
  193.5220  175.5830  144.6350 C   0  0  0  0  0  0  0  0  0  0  0  0
  192.5670  176.6180  146.7130 C   0  0  0  0  0  2  0  0  0  0  0  0
  191.5940  174.4570  145.8630 C   0  0  1  0  0  3  0  0  0  0  0  0
  192.4160  173.6690  143.6320 C   0  0  0  0  0  3  0  0  0  0  0  0
  192.0720  175.2290  147.0970 C   0  0  0  0  0  2  0  0  0  0  0  0
  194.2090  174.7900  142.4320 C   0  0  0  0  0  0  0  0  0  0  0  0
  195.0780  175.1350  137.6770 C   0  0  0  0  0  0  0  0  0  0  0  0
  194.1330  174.9980  138.8010 C   0  0  0  0  0  3  0  0  0  0  0  0
  195.0730  174.9060  141.2290 C   0  0  0  0  0  0  0  0  0  0  0  0
  194.5480  174.9430  140.0320 C   0  0  0  0  0  0  0  0  0  0  0  0
  197.3500  175.4310  140.0870 C   0  0  0  0  0  2  0  0  0  0  0  0
  196.5020  174.9970  137.8180 N   0  0  0  0  0  2  0  0  0  0  0  0
  194.5970  175.4140  136.5110 N   0  0  0  0  0  2  0  0  0  0  0  0
  197.2070  174.4170  138.9570 C   0  0  0  0  0  2  0  0  0  0  0  0
  196.5800  175.0270  141.3600 C   0  0  2  0  0  3  0  0  0  0  0  0
  197.1940  173.8850  142.0430 N   0  0  0  0  0  2  0  0  0  0  0  0
  197.0800  173.6810  145.8570 C   0  0  0  0  0  2  0  0  0  0  0  0
  196.3090  172.0530  143.5240 C   0  0  0  0  0  2  0  0  0  0  0  0
  196.9340  173.4200  143.3740 C   0  0  0  0  0  0  0  0  0  0  0  0
  196.8700  172.1750  145.9510 C   0  0  0  0  0  2  0  0  0  0  0  0
  197.3550  174.1130  144.4440 C   0  0  0  0  0  3  0  0  0  0  0  0
  195.8100  171.7680  144.9390 C   0  0  0  0  0  2  0  0  0  0  0  0
  189.2210  174.2800  145.9860 O   0  0  0  0  0  0  0  0  0  0  0  0
  190.2090  174.8700  145.4720 C   0  0  0  0  0  0  0  0  0  0  0  0
  190.0110  175.9240  144.5220 N   0  0  0  0  0  2  0  0  0  0  0  0
  188.6940  176.4450  144.1770 C   0  0  0  0  0  2  0  0  0  0  0  0
  188.4720  176.3810  142.6640 C   0  0  2  0  0  3  0  0  0  0  0  0
  187.1520  176.0120  142.3170 O   0  0  0  0  0  0  0  0  0  0  0  0
  186.3120  176.2200  143.4260 C   0  0  0  0  0  2  0  0  0  0  0  0
  185.4310  177.4000  143.1770 C   0  0  0  0  0  0  0  0  0  0  0  0
  185.0530  177.6460  142.0420 O   0  0  0  0  0  0  0  0  0  0  0  0
  185.0080  178.2600  144.3290 C   0  0  2  0  0  3  0  0  0  0  0  0
  185.3510  179.7210  144.0880 C   0  0  0  0  0  1  0  0  0  0  0  0
  184.5700  177.2740  146.4840 O   0  0  0  0  0  1  0  0  0  0  0  0
  185.5780  177.7640  145.6540 C   0  0  0  0  0  2  0  0  0  0  0  0
  189.4660  175.5410  142.0050 N   0  0  0  0  0  2  0  0  0  0  0  0
  188.7330  174.5150  141.2830 C   0  0  0  0  0  2  0  0  0  0  0  0
  189.3370  173.1670  141.5090 C   0  0  0  0  0  0  0  0  0  0  0  0
  190.5360  171.3150  141.2490 C   0  0  0  0  0  3  0  0  0  0  0  0
  189.9820  171.1550  142.4040 N   0  0  0  0  0  0  0  0  0  0  0  0
  190.1510  172.5850  140.6500 C   0  0  0  0  0  3  0  0  0  0  0  0
  189.1560  172.3090  142.7140 C   0  0  0  0  0  2  0  0  0  0  0  0
  1  8  1  0  0  0  0
  2  6  1  0  0  0  0
  3  5  2  0  0  0  0
  4  7  1  0  0  0  0
  5  4  1  0  0  0  0
  5  2  1  0  0  0  0
  6  9  1  0  0  0  0
  7 28  1  6  0  0  0
  7  9  1  0  0  0  0
  8  4  2  0  0  0  0
 10  1  2  0  0  0  0
 10  3  1  0  0  0  0
 11 16  1  0  0  0  0
 11 12  1  0  0  0  0
 12 14  2  0  0  0  0
 13 19  1  0  0  0  0
 13 10  1  0  0  0  0
 14 13  2  0  0  0  0
 15 19  1  0  0  0  0
 16 18  1  0  0  0  0
 17 11  2  0  0  0  0
 18 15  1  0  0  0  0
 19 20  1  6  0  0  0
 20 23  1  0  0  0  0
 21 24  1  0  0  0  0
 22 26  1  0  0  0  0
 23 22  1  0  0  0  0
 23 25  2  0  0  0  0
 25 21  1  0  0  0  0
 26 24  1  0  0  0  0
 28 27  2  0  0  0  0
 29 28  1  0  0  0  0
 30 29  1  0  0  0  0
 31 30  1  1  0  0  0
 32 31  1  0  0  0  0
 32 33  1  0  0  0  0
 34 33  1  0  0  0  0
 34 36  1  0  0  0  0
 35 34  2  0  0  0  0
 36 37  1  6  0  0  0
 36 39  1  0  0  0  0
 39 38  1  0  0  0  0
 40 31  1  0  0  0  0
 41 42  1  0  0  0  0
 41 40  1  0  0  0  0
 42 46  1  0  0  0  0
 43 44  2  0  0  0  0
 44 46  1  0  0  0  0
 45 43  1  0  0  0  0
 45 42  2  0  0  0  0
M  END
>  <MODEL>
5

>  <REMARK>
 VINA RESULT:      -6.9      3.680      8.677
  Name = 
  14 active torsions:
  status: ('A' for Active; 'I' for Inactive)
    1  A    between atoms: C_1  and  C_22
    2  A    between atoms: C_1  and  C_42
    3  A    between atoms: C_3  and  C_35
    4  A    between atoms: C_11  and  C_44
    5  A    between atoms: C_16  and  C_30
    6  A    between atoms: C_19  and  N_24
    7  A    between atoms: C_19  and  C_45
    8  A    between atoms: C_21  and  N_41
    9  A    between atoms: C_22  and  C_23
   10  A    between atoms: C_23  and  O_27
   11  A    between atoms: O_27  and  C_45
   12  A    between atoms: C_35  and  N_43
   13  A    between atoms: C_39  and  N_41
   14  A    between atoms: N_43  and  C_45
                            x       y       z     vdW  Elec       q    Type
                         _______ _______ _______ _____ _____    ______ ____

>  <TORSDO>
F 14

$$$$
=
 OpenBabel11062422533D

 46 50  0  0  1  0  0  0  0  0999 V2000
  192.8060  172.5810  144.5810 C   0  0  0  0  0  3  0  0  0  0  0  0
  194.9590  176.2900  144.2820 C   0  0  0  0  0  2  0  0  0  0  0  0
  194.2460  174.0850  143.3570 C   0  0  0  0  0  3  0  0  0  0  0  0
  193.3610  174.7470  145.5210 C   0  0  0  0  0  0  0  0  0  0  0  0
  194.1400  175.0340  144.3780 C   0  0  0  0  0  0  0  0  0  0  0  0
  194.4120  177.4020  145.1680 C   0  0  0  0  0  2  0  0  0  0  0  0
  193.1690  175.7620  146.6190 C   0  0  1  0  0  3  0  0  0  0  0  0
  192.6990  173.5170  145.6100 C   0  0  0  0  0  3  0  0  0  0  0  0
  194.2150  176.8800  146.5870 C   0  0  0  0  0  2  0  0  0  0  0  0
  193.5710  172.8550  143.4390 C   0  0  0  0  0  0  0  0  0  0  0  0
  191.8660  169.4090  140.4890 C   0  0  0  0  0  0  0  0  0  0  0  0
  191.6700  170.3550  141.6020 C   0  0  0  0  0  3  0  0  0  0  0  0
  193.6670  171.8550  142.3450 C   0  0  0  0  0  0  0  0  0  0  0  0
  192.6330  171.1250  142.0160 C   0  0  0  0  0  0  0  0  0  0  0  0
  194.8580  170.8440  140.2660 C   0  0  0  0  0  2  0  0  0  0  0  0
  193.1550  169.1000  139.9300 N   0  0  0  0  0  2  0  0  0  0  0  0
  190.8220  168.8470  139.9790 N   0  0  0  0  0  2  0  0  0  0  0  0
  194.4520  169.3980  140.5290 C   0  0  0  0  0  2  0  0  0  0  0  0
  194.9500  171.6870  141.5520 C   0  0  2  0  0  3  0  0  0  0  0  0
  196.0970  171.3110  142.3840 N   0  0  0  0  0  2  0  0  0  0  0  0
  196.7620  171.4760  146.1430 C   0  0  0  0  0  2  0  0  0  0  0  0
  195.4550  169.6890  144.1980 C   0  0  0  0  0  2  0  0  0  0  0  0
  196.0960  170.9910  143.7810 C   0  0  0  0  0  0  0  0  0  0  0  0
  196.5080  170.0020  146.4360 C   0  0  0  0  0  2  0  0  0  0  0  0
  196.7590  171.7530  144.6660 C   0  0  0  0  0  3  0  0  0  0  0  0
  195.2450  169.5720  145.7060 C   0  0  0  0  0  2  0  0  0  0  0  0
  191.2480  176.6770  147.6910 O   0  0  0  0  0  0  0  0  0  0  0  0
  191.7800  176.3220  146.6060 C   0  0  0  0  0  0  0  0  0  0  0  0
  191.0650  176.4500  145.3710 N   0  0  0  0  0  2  0  0  0  0  0  0
  189.7550  177.0820  145.2730 C   0  0  0  0  0  2  0  0  0  0  0  0
  188.6450  176.0340  145.3790 C   0  0  2  0  0  3  0  0  0  0  0  0
  187.8860  175.9150  144.1940 O   0  0  0  0  0  0  0  0  0  0  0  0
  188.6280  176.4400  143.1200 C   0  0  0  0  0  2  0  0  0  0  0  0
  188.8030  175.3930  142.0700 C   0  0  0  0  0  0  0  0  0  0  0  0
  188.2170  175.4980  141.0040 O   0  0  0  0  0  0  0  0  0  0  0  0
  189.7130  174.2310  142.3330 C   0  0  2  0  0  3  0  0  0  0  0  0
  190.7860  174.1120  141.2640 C   0  0  0  0  0  1  0  0  0  0  0  0
  189.4140  172.1940  143.5870 O   0  0  0  0  0  1  0  0  0  0  0  0
  188.9420  172.9250  142.4970 C   0  0  0  0  0  2  0  0  0  0  0  0
  187.8020  176.2540  146.5500 N   0  0  0  0  0  2  0  0  0  0  0  0
  187.6810  177.6940  146.7130 C   0  0  0  0  0  2  0  0  0  0  0  0
  186.3080  178.1600  146.3510 C   0  0  0  0  0  0  0  0  0  0  0  0
  184.5760  178.9470  145.2060 C   0  0  0  0  0  3  0  0  0  0  0  0
  184.0690  178.6610  146.3590 N   0  0  0  0  0  0  0  0  0  0  0  0
  185.9970  178.6390  145.1620 C   0  0  0  0  0  3  0  0  0  0  0  0
  185.1040  178.1230  147.2260 C   0  0  0  0  0  2  0  0  0  0  0  0
  1  8  1  0  0  0  0
  2  5  1  0  0  0  0
  2  6  1  0  0  0  0
  3 10  1  0  0  0  0
  3  5  2  0  0  0  0
  4  8  2  0  0  0  0
  4  7  1  0  0  0  0
  5  4  1  0  0  0  0
  6  9  1  0  0  0  0
  7 28  1  6  0  0  0
  9  7  1  0  0  0  0
 10  1  2  0  0  0  0
 11 12  1  0  0  0  0
 12 14  2  0  0  0  0
 13 10  1  0  0  0  0
 14 13  2  0  0  0  0
 15 18  1  0  0  0  0
 15 19  1  0  0  0  0
 16 11  1  0  0  0  0
 16 18  1  0  0  0  0
 17 11  2  0  0  0  0
 19 13  1  0  0  0  0
 19 20  1  1  0  0  0
 20 23  1  0  0  0  0
 21 24  1  0  0  0  0
 22 26  1  0  0  0  0
 23 22  1  0  0  0  0
 23 25  2  0  0  0  0
 25 21  1  0  0  0  0
 26 24  1  0  0  0  0
 28 27  2  0  0  0  0
 29 28  1  0  0  0  0
 30 29  1  0  0  0  0
 31 30  1  6  0  0  0
 31 40  1  0  0  0  0
 32 31  1  0  0  0  0
 33 32  1  0  0  0  0
 34 36  1  0  0  0  0
 34 33  1  0  0  0  0
 35 34  2  0  0  0  0
 36 37  1  6  0  0  0
 36 39  1  0  0  0  0
 39 38  1  0  0  0  0
 40 41  1  0  0  0  0
 42 41  1  0  0  0  0
 42 46  1  0  0  0  0
 43 44  2  0  0  0  0
 44 46  1  0  0  0  0
 45 43  1  0  0  0  0
 45 42  2  0  0  0  0
M  END
>  <MODEL>
6

>  <REMARK>
 VINA RESULT:      -6.6      2.679      8.711
  Name = 
  14 active torsions:
  status: ('A' for Active; 'I' for Inactive)
    1  A    between atoms: C_1  and  C_22
    2  A    between atoms: C_1  and  C_42
    3  A    between atoms: C_3  and  C_35
    4  A    between atoms: C_11  and  C_44
    5  A    between atoms: C_16  and  C_30
    6  A    between atoms: C_19  and  N_24
    7  A    between atoms: C_19  and  C_45
    8  A    between atoms: C_21  and  N_41
    9  A    between atoms: C_22  and  C_23
   10  A    between atoms: C_23  and  O_27
   11  A    between atoms: O_27  and  C_45
   12  A    between atoms: C_35  and  N_43
   13  A    between atoms: C_39  and  N_41
   14  A    between atoms: N_43  and  C_45
                            x       y       z     vdW  Elec       q    Type
                         _______ _______ _______ _____ _____    ______ ____

>  <TORSDO>
F 14

$$$$
=
 OpenBabel11062422533D

 46 50  0  0  1  0  0  0  0  0999 V2000
  192.5790  174.1660  141.6720 C   0  0  0  0  0  3  0  0  0  0  0  0
  189.0820  172.3730  143.4170 C   0  0  0  0  0  2  0  0  0  0  0  0
  191.4620  173.1120  143.5370 C   0  0  0  0  0  3  0  0  0  0  0  0
  190.2330  173.5760  141.4930 C   0  0  0  0  0  0  0  0  0  0  0  0
  190.2680  173.0690  142.8110 C   0  0  0  0  0  0  0  0  0  0  0  0
  187.7720  172.8000  142.7660 C   0  0  0  0  0  2  0  0  0  0  0  0
  188.9550  173.6060  140.6940 C   0  0  1  0  0  3  0  0  0  0  0  0
  191.3940  174.1220  140.9350 C   0  0  0  0  0  3  0  0  0  0  0  0
  187.8810  172.6660  141.2510 C   0  0  0  0  0  2  0  0  0  0  0  0
  192.6260  173.6710  142.9830 C   0  0  0  0  0  0  0  0  0  0  0  0
  196.1790  171.8510  145.7310 C   0  0  0  0  0  0  0  0  0  0  0  0
  194.9080  171.6840  145.0030 C   0  0  0  0  0  3  0  0  0  0  0  0
  193.8890  173.7360  143.7620 C   0  0  0  0  0  0  0  0  0  0  0  0
  194.3530  172.6750  144.3700 C   0  0  0  0  0  0  0  0  0  0  0  0
  196.1180  174.9050  144.4170 C   0  0  0  0  0  2  0  0  0  0  0  0
  196.7820  173.1320  145.9880 N   0  0  0  0  0  2  0  0  0  0  0  0
  196.7890  170.7890  146.1390 N   0  0  0  0  0  2  0  0  0  0  0  0
  196.1340  174.4340  145.8670 C   0  0  0  0  0  2  0  0  0  0  0  0
  194.6950  175.0200  143.8360 C   0  0  2  0  0  3  0  0  0  0  0  0
  193.9460  176.1390  144.4140 N   0  0  0  0  0  2  0  0  0  0  0  0
  191.6190  175.3870  147.3490 C   0  0  0  0  0  2  0  0  0  0  0  0
  191.4830  176.5890  144.6620 C   0  0  0  0  0  2  0  0  0  0  0  0
  192.7780  176.0740  145.2420 C   0  0  0  0  0  0  0  0  0  0  0  0
  190.3100  175.5040  146.5770 C   0  0  0  0  0  2  0  0  0  0  0  0
  192.8080  175.4560  146.4330 C   0  0  0  0  0  3  0  0  0  0  0  0
  190.3730  176.7450  145.6990 C   0  0  0  0  0  2  0  0  0  0  0  0
  187.8210  175.3330  139.5060 O   0  0  0  0  0  0  0  0  0  0  0  0
  188.4310  175.0020  140.5580 C   0  0  0  0  0  0  0  0  0  0  0  0
  188.6240  175.9520  141.6140 N   0  0  0  0  0  2  0  0  0  0  0  0
  188.0500  177.2920  141.5910 C   0  0  0  0  0  2  0  0  0  0  0  0
  186.9130  177.4050  142.6090 C   0  0  2  0  0  3  0  0  0  0  0  0
  187.2090  176.7710  143.8370 O   0  0  0  0  0  0  0  0  0  0  0  0
  186.0650  176.8000  144.6540 C   0  0  0  0  0  2  0  0  0  0  0  0
  186.1030  178.0070  145.5330 C   0  0  0  0  0  0  0  0  0  0  0  0
  185.5680  179.0420  145.1660 O   0  0  0  0  0  0  0  0  0  0  0  0
  186.7860  177.9280  146.8640 C   0  0  2  0  0  3  0  0  0  0  0  0
  186.9000  176.4910  147.3470 C   0  0  0  0  0  1  0  0  0  0  0  0
  187.0550  179.4080  148.7480 O   0  0  0  0  0  1  0  0  0  0  0  0
  186.1130  178.8150  147.9070 C   0  0  0  0  0  2  0  0  0  0  0  0
  185.6410  176.9540  142.0530 N   0  0  0  0  0  2  0  0  0  0  0  0
  185.2200  177.9660  141.0980 C   0  0  0  0  0  2  0  0  0  0  0  0
  183.7450  178.1920  141.1720 C   0  0  0  0  0  0  0  0  0  0  0  0
  181.5880  178.2670  140.6480 C   0  0  0  0  0  3  0  0  0  0  0  0
  181.6140  178.6710  141.8750 N   0  0  0  0  0  0  0  0  0  0  0  0
  182.9240  177.9510  140.1680 C   0  0  0  0  0  3  0  0  0  0  0  0
  182.9830  178.6690  142.3600 C   0  0  0  0  0  2  0  0  0  0  0  0
  1 10  1  0  0  0  0
  4  5  2  0  0  0  0
  5  2  1  0  0  0  0
  5  3  1  0  0  0  0
  6  2  1  0  0  0  0
  7 28  1  1  0  0  0
  7  9  1  0  0  0  0
  7  4  1  0  0  0  0
  8  4  1  0  0  0  0
  8  1  2  0  0  0  0
  9  6  1  0  0  0  0
 10  3  2  0  0  0  0
 10 13  1  0  0  0  0
 11 16  1  0  0  0  0
 11 17  2  0  0  0  0
 12 11  1  0  0  0  0
 13 19  1  0  0  0  0
 13 14  2  0  0  0  0
 14 12  2  0  0  0  0
 15 18  1  0  0  0  0
 18 16  1  0  0  0  0
 19 20  1  1  0  0  0
 19 15  1  0  0  0  0
 20 23  1  0  0  0  0
 22 23  1  0  0  0  0
 22 26  1  0  0  0  0
 23 25  2  0  0  0  0
 24 21  1  0  0  0  0
 25 21  1  0  0  0  0
 26 24  1  0  0  0  0
 27 28  2  0  0  0  0
 28 29  1  0  0  0  0
 30 29  1  0  0  0  0
 31 30  1  6  0  0  0
 31 32  1  0  0  0  0
 32 33  1  0  0  0  0
 33 34  1  0  0  0  0
 34 36  1  0  0  0  0
 35 34  2  0  0  0  0
 36 37  1  1  0  0  0
 36 39  1  0  0  0  0
 39 38  1  0  0  0  0
 40 31  1  0  0  0  0
 41 42  1  0  0  0  0
 41 40  1  0  0  0  0
 42 46  1  0  0  0  0
 43 44  2  0  0  0  0
 44 46  1  0  0  0  0
 45 43  1  0  0  0  0
 45 42  2  0  0  0  0
M  END
>  <MODEL>
7

>  <REMARK>
 VINA RESULT:      -6.6      3.569      9.284
  Name = 
  14 active torsions:
  status: ('A' for Active; 'I' for Inactive)
    1  A    between atoms: C_1  and  C_22
    2  A    between atoms: C_1  and  C_42
    3  A    between atoms: C_3  and  C_35
    4  A    between atoms: C_11  and  C_44
    5  A    between atoms: C_16  and  C_30
    6  A    between atoms: C_19  and  N_24
    7  A    between atoms: C_19  and  C_45
    8  A    between atoms: C_21  and  N_41
    9  A    between atoms: C_22  and  C_23
   10  A    between atoms: C_23  and  O_27
   11  A    between atoms: O_27  and  C_45
   12  A    between atoms: C_35  and  N_43
   13  A    between atoms: C_39  and  N_41
   14  A    between atoms: N_43  and  C_45
                            x       y       z     vdW  Elec       q    Type
                         _______ _______ _______ _____ _____    ______ ____

>  <TORSDO>
F 14

$$$$
=
 OpenBabel11062422533D

 46 50  0  0  1  0  0  0  0  0999 V2000
  192.6800  172.3270  144.4420 C   0  0  0  0  0  3  0  0  0  0  0  0
  193.9360  175.7290  146.7520 C   0  0  0  0  0  2  0  0  0  0  0  0
  194.4030  173.5700  145.5920 C   0  0  0  0  0  3  0  0  0  0  0  0
  192.1500  174.4670  145.4510 C   0  0  0  0  0  0  0  0  0  0  0  0
  193.4890  174.5870  145.8820 C   0  0  0  0  0  0  0  0  0  0  0  0
  193.0400  176.9520  146.5980 C   0  0  0  0  0  2  0  0  0  0  0  0
  191.1440  175.5650  145.6890 C   0  0  1  0  0  3  0  0  0  0  0  0
  191.7580  173.3330  144.7320 C   0  0  0  0  0  3  0  0  0  0  0  0
  191.5810  176.5480  146.7800 C   0  0  0  0  0  2  0  0  0  0  0  0
  194.0140  172.4360  144.8590 C   0  0  0  0  0  0  0  0  0  0  0  0
  197.3860  169.1130  145.8960 C   0  0  0  0  0  0  0  0  0  0  0  0
  196.4630  170.1800  146.3250 C   0  0  0  0  0  3  0  0  0  0  0  0
  194.9900  171.3640  144.5320 C   0  0  0  0  0  0  0  0  0  0  0  0
  195.7080  170.8060  145.4720 C   0  0  0  0  0  0  0  0  0  0  0  0
  195.9620  169.5650  142.9250 C   0  0  0  0  0  2  0  0  0  0  0  0
  197.6890  168.8340  144.5180 N   0  0  0  0  0  2  0  0  0  0  0  0
  197.9310  168.3790  146.8080 N   0  0  0  0  0  2  0  0  0  0  0  0
  197.4110  169.7030  143.3780 C   0  0  0  0  0  2  0  0  0  0  0  0
  195.1470  170.8600  143.1090 C   0  0  2  0  0  3  0  0  0  0  0  0
  195.5480  171.9090  142.1660 N   0  0  0  0  0  2  0  0  0  0  0  0
  197.7120  174.7910  143.4310 C   0  0  0  0  0  2  0  0  0  0  0  0
  195.0730  174.3790  142.1880 C   0  0  0  0  0  2  0  0  0  0  0  0
  196.0100  173.2300  142.4730 C   0  0  0  0  0  0  0  0  0  0  0  0
  196.5960  175.8240  143.5330 C   0  0  0  0  0  2  0  0  0  0  0  0
  197.1730  173.4250  143.1140 C   0  0  0  0  0  3  0  0  0  0  0  0
  195.7470  175.7470  142.2740 C   0  0  0  0  0  2  0  0  0  0  0  0
  191.6130  176.2190  143.4460 O   0  0  0  0  0  0  0  0  0  0  0  0
  190.8130  176.2840  144.4180 C   0  0  0  0  0  0  0  0  0  0  0  0
  189.6000  177.0380  144.3090 N   0  0  0  0  0  2  0  0  0  0  0  0
  189.1670  177.6720  143.0700 C   0  0  0  0  0  2  0  0  0  0  0  0
  188.0130  176.8870  142.4410 C   0  0  2  0  0  3  0  0  0  0  0  0
  187.0430  176.4830  143.3860 O   0  0  0  0  0  0  0  0  0  0  0  0
  185.7750  176.9120  142.9530 C   0  0  0  0  0  2  0  0  0  0  0  0
  185.1500  177.7750  143.9980 C   0  0  0  0  0  0  0  0  0  0  0  0
  184.1520  178.4260  143.7300 O   0  0  0  0  0  0  0  0  0  0  0  0
  185.7480  177.8190  145.3720 C   0  0  2  0  0  3  0  0  0  0  0  0
  185.1880  176.7190  146.2580 C   0  0  0  0  0  1  0  0  0  0  0  0
  185.9570  179.1560  147.3660 O   0  0  0  0  0  1  0  0  0  0  0  0
  185.5930  179.1910  146.0210 C   0  0  0  0  0  2  0  0  0  0  0  0
  188.4940  175.7670  141.6370 N   0  0  0  0  0  2  0  0  0  0  0  0
  188.1200  174.5540  142.3460 C   0  0  0  0  0  2  0  0  0  0  0  0
  189.0690  173.4420  142.0390 C   0  0  0  0  0  0  0  0  0  0  0  0
  190.7850  172.2890  141.2270 C   0  0  0  0  0  3  0  0  0  0  0  0
  190.1820  171.4360  141.9860 N   0  0  0  0  0  0  0  0  0  0  0  0
  190.1080  173.5770  141.2370 C   0  0  0  0  0  3  0  0  0  0  0  0
  189.0220  172.0610  142.5970 C   0  0  0  0  0  2  0  0  0  0  0  0
  1  8  2  0  0  0  0
  1 10  1  0  0  0  0
  3  5  1  0  0  0  0
  4  7  1  0  0  0  0
  4  5  2  0  0  0  0
  5  2  1  0  0  0  0
  6  2  1  0  0  0  0
  6  9  1  0  0  0  0
  7 28  1  6  0  0  0
  7  9  1  0  0  0  0
  8  4  1  0  0  0  0
 10  3  2  0  0  0  0
 11 12  1  0  0  0  0
 11 17  2  0  0  0  0
 13 10  1  0  0  0  0
 13 14  2  0  0  0  0
 14 12  2  0  0  0  0
 15 19  1  0  0  0  0
 15 18  1  0  0  0  0
 16 11  1  0  0  0  0
 18 16  1  0  0  0  0
 19 20  1  6  0  0  0
 19 13  1  0  0  0  0
 20 23  1  0  0  0  0
 21 24  1  0  0  0  0
 22 26  1  0  0  0  0
 22 23  1  0  0  0  0
 23 25  2  0  0  0  0
 25 21  1  0  0  0  0
 26 24  1  0  0  0  0
 27 28  2  0  0  0  0
 29 28  1  0  0  0  0
 30 29  1  0  0  0  0
 31 30  1  1  0  0  0
 31 32  1  0  0  0  0
 33 32  1  0  0  0  0
 33 34  1  0  0  0  0
 34 36  1  0  0  0  0
 35 34  2  0  0  0  0
 36 39  1  0  0  0  0
 36 37  1  1  0  0  0
 39 38  1  0  0  0  0
 40 41  1  0  0  0  0
 40 31  1  0  0  0  0
 42 41  1  0  0  0  0
 42 46  1  0  0  0  0
 43 45  1  0  0  0  0
 43 44  2  0  0  0  0
 44 46  1  0  0  0  0
 45 42  2  0  0  0  0
M  END
>  <MODEL>
8

>  <REMARK>
 VINA RESULT:      -6.6      3.415      9.143
  Name = 
  14 active torsions:
  status: ('A' for Active; 'I' for Inactive)
    1  A    between atoms: C_1  and  C_22
    2  A    between atoms: C_1  and  C_42
    3  A    between atoms: C_3  and  C_35
    4  A    between atoms: C_11  and  C_44
    5  A    between atoms: C_16  and  C_30
    6  A    between atoms: C_19  and  N_24
    7  A    between atoms: C_19  and  C_45
    8  A    between atoms: C_21  and  N_41
    9  A    between atoms: C_22  and  C_23
   10  A    between atoms: C_23  and  O_27
   11  A    between atoms: O_27  and  C_45
   12  A    between atoms: C_35  and  N_43
   13  A    between atoms: C_39  and  N_41
   14  A    between atoms: N_43  and  C_45
                            x       y       z     vdW  Elec       q    Type
                         _______ _______ _______ _____ _____    ______ ____

>  <TORSDO>
F 14

$$$$
=
 OpenBabel11062422533D

 46 50  0  0  1  0  0  0  0  0999 V2000
  192.9960  175.2310  141.4800 C   0  0  0  0  0  3  0  0  0  0  0  0
  191.4200  171.2380  141.2210 C   0  0  0  0  0  2  0  0  0  0  0  0
  193.1820  172.9390  140.7380 C   0  0  0  0  0  3  0  0  0  0  0  0
  191.2810  173.6270  142.0860 C   0  0  0  0  0  0  0  0  0  0  0  0
  191.9850  172.6220  141.3870 C   0  0  0  0  0  0  0  0  0  0  0  0
  190.4210  170.8910  142.3160 C   0  0  0  0  0  2  0  0  0  0  0  0
  190.0180  173.3190  142.8500 C   0  0  1  0  0  3  0  0  0  0  0  0
  191.7960  174.9270  142.1250 C   0  0  0  0  0  3  0  0  0  0  0  0
  189.3750  171.9940  142.4290 C   0  0  0  0  0  2  0  0  0  0  0  0
  193.7080  174.2410  140.7870 C   0  0  0  0  0  0  0  0  0  0  0  0
  196.5170  175.3090  136.9850 C   0  0  0  0  0  0  0  0  0  0  0  0
  195.1990  174.9630  137.5480 C   0  0  0  0  0  3  0  0  0  0  0  0
  194.9910  174.5740  140.1160 C   0  0  0  0  0  0  0  0  0  0  0  0
  195.0390  174.7550  138.8220 C   0  0  0  0  0  0  0  0  0  0  0  0
  197.4630  175.3770  140.1730 C   0  0  0  0  0  2  0  0  0  0  0  0
  197.7430  175.2280  137.7320 N   0  0  0  0  0  2  0  0  0  0  0  0
  196.5650  175.7270  135.7640 N   0  0  0  0  0  2  0  0  0  0  0  0
  197.9410  174.5290  138.9990 C   0  0  0  0  0  2  0  0  0  0  0  0
  196.2670  174.7550  140.9170 C   0  0  2  0  0  3  0  0  0  0  0  0
  196.6440  173.5610  141.6800 N   0  0  0  0  0  2  0  0  0  0  0  0
  197.1450  173.8290  145.4580 C   0  0  0  0  0  2  0  0  0  0  0  0
  195.5720  172.2430  143.5360 C   0  0  0  0  0  2  0  0  0  0  0  0
  196.5040  173.3440  143.0900 C   0  0  0  0  0  0  0  0  0  0  0  0
  196.5580  172.4690  145.8150 C   0  0  0  0  0  2  0  0  0  0  0  0
  197.2750  174.0010  143.9710 C   0  0  0  0  0  3  0  0  0  0  0  0
  195.2680  172.2750  145.0320 C   0  0  0  0  0  2  0  0  0  0  0  0
  191.1400  172.6170  144.8310 O   0  0  0  0  0  0  0  0  0  0  0  0
  190.2540  173.3570  144.3280 C   0  0  0  0  0  0  0  0  0  0  0  0
  189.4770  174.2270  145.1610 N   0  0  0  0  0  2  0  0  0  0  0  0
  189.7260  174.3910  146.5880 C   0  0  0  0  0  2  0  0  0  0  0  0
  189.6860  175.8720  146.9720 C   0  0  2  0  0  3  0  0  0  0  0  0
  189.3160  176.7100  145.8960 O   0  0  0  0  0  0  0  0  0  0  0  0
  188.2570  177.5400  146.3040 C   0  0  0  0  0  2  0  0  0  0  0  0
  187.3710  177.8380  145.1390 C   0  0  0  0  0  0  0  0  0  0  0  0
  187.8590  177.9920  144.0300 O   0  0  0  0  0  0  0  0  0  0  0  0
  185.8890  177.9290  145.3440 C   0  0  2  0  0  3  0  0  0  0  0  0
  185.3760  179.3350  145.0780 C   0  0  0  0  0  1  0  0  0  0  0  0
  185.1900  178.5020  147.5790 O   0  0  0  0  0  1  0  0  0  0  0  0
  185.4700  177.4350  146.7260 C   0  0  0  0  0  2  0  0  0  0  0  0
  190.9310  176.3040  147.5980 N   0  0  0  0  0  2  0  0  0  0  0  0
  191.9270  175.2910  147.2890 C   0  0  0  0  0  2  0  0  0  0  0  0
  193.0460  175.8690  146.4840 C   0  0  0  0  0  0  0  0  0  0  0  0
  194.4950  176.2500  144.8450 C   0  0  0  0  0  3  0  0  0  0  0  0
  194.7710  177.1690  145.7100 N   0  0  0  0  0  0  0  0  0  0  0  0
  193.4010  175.4050  145.3010 C   0  0  0  0  0  3  0  0  0  0  0  0
  193.8840  177.0440  146.8540 C   0  0  0  0  0  2  0  0  0  0  0  0
  1  8  1  0  0  0  0
  2  5  1  0  0  0  0
  2  6  1  0  0  0  0
  3 10  1  0  0  0  0
  3  5  2  0  0  0  0
  4  8  2  0  0  0  0
  4  7  1  0  0  0  0
  5  4  1  0  0  0  0
  6  9  1  0  0  0  0
  7 28  1  1  0  0  0
  9  7  1  0  0  0  0
 10  1  2  0  0  0  0
 11 12  1  0  0  0  0
 11 16  1  0  0  0  0
 12 14  2  0  0  0  0
 13 10  1  0  0  0  0
 13 19  1  0  0  0  0
 14 13  2  0  0  0  0
 15 19  1  0  0  0  0
 16 18  1  0  0  0  0
 17 11  2  0  0  0  0
 18 15  1  0  0  0  0
 19 20  1  6  0  0  0
 20 23  1  0  0  0  0
 21 24  1  0  0  0  0
 22 26  1  0  0  0  0
 23 22  1  0  0  0  0
 23 25  2  0  0  0  0
 25 21  1  0  0  0  0
 26 24  1  0  0  0  0
 28 27  2  0  0  0  0
 28 29  1  0  0  0  0
 29 30  1  0  0  0  0
 31 30  1  6  0  0  0
 31 40  1  0  0  0  0
 32 33  1  0  0  0  0
 32 31  1  0  0  0  0
 34 36  1  0  0  0  0
 34 33  1  0  0  0  0
 35 34  2  0  0  0  0
 36 37  1  1  0  0  0
 36 39  1  0  0  0  0
 39 38  1  0  0  0  0
 41 40  1  0  0  0  0
 42 46  1  0  0  0  0
 42 41  1  0  0  0  0
 43 45  1  0  0  0  0
 43 44  2  0  0  0  0
 44 46  1  0  0  0  0
 45 42  2  0  0  0  0
M  END
>  <MODEL>
9

>  <REMARK>
 VINA RESULT:      -6.5      3.673      9.374
  Name = 
  14 active torsions:
  status: ('A' for Active; 'I' for Inactive)
    1  A    between atoms: C_1  and  C_22
    2  A    between atoms: C_1  and  C_42
    3  A    between atoms: C_3  and  C_35
    4  A    between atoms: C_11  and  C_44
    5  A    between atoms: C_16  and  C_30
    6  A    between atoms: C_19  and  N_24
    7  A    between atoms: C_19  and  C_45
    8  A    between atoms: C_21  and  N_41
    9  A    between atoms: C_22  and  C_23
   10  A    between atoms: C_23  and  O_27
   11  A    between atoms: O_27  and  C_45
   12  A    between atoms: C_35  and  N_43
   13  A    between atoms: C_39  and  N_41
   14  A    between atoms: N_43  and  C_45
                            x       y       z     vdW  Elec       q    Type
                         _______ _______ _______ _____ _____    ______ ____

>  <TORSDO>
F 14

$$$$
