=
 OpenBabel11062420073D

 35 40  0  0  1  0  0  0  0  0999 V2000
  184.8680  178.2870  144.7800 C   0  0  1  0  0  0  0  0  0  0  0  0
  183.8090  179.3410  144.5340 C   0  0  0  0  0  1  0  0  0  0  0  0
  191.5510  175.1130  149.0030 O   0  0  0  0  0  0  0  0  0  0  0  0
  189.6330  175.9530  146.1220 C   0  0  0  0  0  0  0  0  0  0  0  0
  191.9050  175.3800  145.5210 C   0  0  0  0  0  3  0  0  0  0  0  0
  186.1280  177.0460  143.3650 C   0  0  2  0  0  3  0  0  0  0  0  0
  189.9600  175.6970  147.4620 C   0  0  0  0  0  3  0  0  0  0  0  0
  185.4840  178.2000  146.0960 C   0  0  1  0  0  3  0  0  0  0  0  0
  192.1910  175.1610  146.8310 N   0  0  0  0  0  0  0  0  0  0  0  0
  191.2530  175.3090  147.7990 C   0  0  0  0  0  0  0  0  0  0  0  0
  184.8650  177.1290  143.9660 O   0  0  0  0  0  0  0  0  0  0  0  0
  187.0220  178.0360  144.0800 C   0  0  1  0  0  3  0  0  0  0  0  0
  185.9260  176.7820  146.4500 C   0  0  0  0  0  2  0  0  0  0  0  0
  190.6190  175.7940  145.1310 C   0  0  1  0  0  3  0  0  0  0  0  0
  189.3550  177.2650  143.5490 C   0  0  0  0  0  2  0  0  0  0  0  0
  188.2430  176.3770  145.7010 C   0  0  1  0  0  3  0  0  0  0  0  0
  190.2150  175.9840  143.6710 C   0  0  1  0  0  0  0  0  0  0  0  0
  187.3720  176.7690  146.8840 C   0  0  0  0  0  2  0  0  0  0  0  0
  186.2110  178.8580  144.9630 N   0  0  1  0  0  0  0  0  0  0  0  0
  188.3460  177.5300  144.6820 C   0  0  2  0  0  3  0  0  0  0  0  0
  186.7420  178.5760  141.6310 O   0  0  0  0  0  1  0  0  0  0  0  0
  185.9950  177.4260  141.8910 C   0  0  0  0  0  3  0  0  0  0  0  0
  184.6620  177.6660  141.5650 O   0  0  0  0  0  1  0  0  0  0  0  0
  192.0800  177.5030  142.7920 C   0  0  0  0  0  1  0  0  0  0  0  0
  191.4240  176.1300  142.7020 C   0  0  1  0  0  3  0  0  0  0  0  0
  192.4000  175.1340  142.8870 O   0  0  0  0  0  0  0  0  0  0  0  0
  193.2380  175.2000  141.7720 C   0  0  2  0  0  3  0  0  0  0  0  0
  192.5920  174.0910  140.4920 S   0  0  0  0  0  1  0  0  0  0  0  0
  194.6520  174.7880  142.1460 C   0  0  0  0  0  2  0  0  0  0  0  0
  195.1190  175.5790  143.2830 C   0  0  0  0  0  0  0  0  0  0  0  0
  195.4810  176.1970  144.1910 N   0  0  0  0  0  0  0  0  0  0  0  0
  189.3620  174.7600  143.2690 C   0  0  0  0  0  2  0  0  0  0  0  0
  187.5760  174.1400  141.8150 O   0  0  0  0  0  0  0  0  0  0  0  0
  188.6950  173.4880  141.2740 C   0  0  0  0  0  2  0  0  0  0  0  0
  188.7990  174.8410  141.8540 C   0  0  2  0  0  3  0  0  0  0  0  0
  1  2  1  6  0  0  0
  1 19  1  0  0  0  0
  1  8  1  0  0  0  0
  4  7  2  0  0  0  0
  5  9  2  0  0  0  0
  6 22  1  6  0  0  0
  6 11  1  0  0  0  0
  6 12  1  0  0  0  0
  7 10  1  0  0  0  0
  8 13  1  6  0  0  0
  9 10  1  0  0  0  0
 10  3  2  0  0  0  0
 11  1  1  0  0  0  0
 12 20  1  0  0  0  0
 12 19  1  0  0  0  0
 13 18  1  0  0  0  0
 14  5  1  0  0  0  0
 14  4  1  0  0  0  0
 15 17  1  0  0  0  0
 15 20  1  0  0  0  0
 16  4  1  0  0  0  0
 16 18  1  0  0  0  0
 17 14  1  0  0  0  0
 19  8  1  0  0  0  0
 20 16  1  0  0  0  0
 21 22  1  0  0  0  0
 23 22  1  0  0  0  0
 25 24  1  0  0  0  0
 25 26  1  0  0  0  0
 25 17  1  0  0  0  0
 27 29  1  0  0  0  0
 27 26  1  0  0  0  0
 28 27  1  0  0  0  0
 29 30  1  0  0  0  0
 30 31  3  0  0  0  0
 32 17  1  0  0  0  0
 33 35  1  0  0  0  0
 34 33  1  0  0  0  0
 34 35  1  0  0  0  0
 35 32  1  0  0  0  0
M  END
>  <MODEL>
1

>  <REMARK>
 VINA RESULT:      -7.1      0.000      0.000
  Name = 
  8 active torsions:
  status: ('A' for Active; 'I' for Inactive)
    1  A    between atoms: C_1  and  C_8
    2  A    between atoms: O_2  and  C_11
    3  A    between atoms: O_2  and  C_22
    4  A    between atoms: C_8  and  C_11
    5  A    between atoms: C_12  and  C_16
    6  A    between atoms: C_21  and  C_25
    7  A    between atoms: C_22  and  C_29
    8  A    between atoms: C_25  and  C_29
                            x       y       z     vdW  Elec       q    Type
                         _______ _______ _______ _____ _____    ______ ____

>  <TORSDO>
F 8

$$$$
=
 OpenBabel11062420073D

 35 40  0  0  1  0  0  0  0  0999 V2000
  185.4340  177.8840  143.9080 C   0  0  1  0  0  0  0  0  0  0  0  0
  184.3850  178.5770  143.0640 C   0  0  0  0  0  1  0  0  0  0  0  0
  191.6620  177.8500  149.7200 O   0  0  0  0  0  0  0  0  0  0  0  0
  190.0680  176.9490  146.6650 C   0  0  0  0  0  0  0  0  0  0  0  0
  192.4070  176.3310  146.6440 C   0  0  0  0  0  3  0  0  0  0  0  0
  186.8770  176.2010  143.4490 C   0  0  2  0  0  3  0  0  0  0  0  0
  190.2450  177.4380  147.9680 C   0  0  0  0  0  3  0  0  0  0  0  0
  185.8960  178.5300  145.1280 C   0  0  1  0  0  3  0  0  0  0  0  0
  192.5460  176.8340  147.8980 N   0  0  0  0  0  0  0  0  0  0  0  0
  191.5000  177.3800  148.5660 C   0  0  0  0  0  0  0  0  0  0  0  0
  185.5520  176.4770  143.8110 O   0  0  0  0  0  0  0  0  0  0  0  0
  187.6600  177.4840  143.6260 C   0  0  1  0  0  3  0  0  0  0  0  0
  186.3290  177.5310  146.1990 C   0  0  0  0  0  2  0  0  0  0  0  0
  191.1640  176.3850  145.9870 C   0  0  1  0  0  3  0  0  0  0  0  0
  190.0550  176.7380  143.7710 C   0  0  0  0  0  2  0  0  0  0  0  0
  188.7260  176.9870  145.9680 C   0  0  1  0  0  3  0  0  0  0  0  0
  190.9270  175.7710  144.6100 C   0  0  1  0  0  0  0  0  0  0  0  0
  187.7150  177.8560  146.7000 C   0  0  0  0  0  2  0  0  0  0  0  0
  186.7330  178.5740  143.8850 N   0  0  1  0  0  0  0  0  0  0  0  0
  188.9170  177.4620  144.5140 C   0  0  2  0  0  3  0  0  0  0  0  0
  187.6550  174.5930  141.8570 O   0  0  0  0  0  1  0  0  0  0  0  0
  186.9050  175.7640  141.9860 C   0  0  0  0  0  3  0  0  0  0  0  0
  187.4720  176.7560  141.1890 O   0  0  0  0  0  1  0  0  0  0  0  0
  192.7160  176.7250  143.0470 C   0  0  0  0  0  1  0  0  0  0  0  0
  192.2350  175.4980  143.8130 C   0  0  1  0  0  3  0  0  0  0  0  0
  193.2790  175.0130  144.6200 O   0  0  0  0  0  0  0  0  0  0  0  0
  194.3840  174.8660  143.7780 C   0  0  2  0  0  3  0  0  0  0  0  0
  194.4580  173.1460  143.2100 S   0  0  0  0  0  1  0  0  0  0  0  0
  195.6640  175.2200  144.5170 C   0  0  0  0  0  2  0  0  0  0  0  0
  196.4610  176.1500  143.7180 C   0  0  0  0  0  0  0  0  0  0  0  0
  197.0810  176.8890  143.0800 N   0  0  0  0  0  0  0  0  0  0  0  0
  190.1550  174.4500  144.8240 C   0  0  0  0  0  2  0  0  0  0  0  0
  189.4250  172.3890  143.8720 O   0  0  0  0  0  0  0  0  0  0  0  0
  190.7350  172.1210  144.2970 C   0  0  0  0  0  2  0  0  0  0  0  0
  190.3670  173.4260  143.7150 C   0  0  2  0  0  3  0  0  0  0  0  0
  1  2  1  6  0  0  0
  1  8  1  0  0  0  0
  4  7  2  0  0  0  0
  5  9  2  0  0  0  0
  6 22  1  6  0  0  0
  6 12  1  0  0  0  0
  6 11  1  0  0  0  0
  7 10  1  0  0  0  0
  8 13  1  1  0  0  0
  9 10  1  0  0  0  0
 10  3  2  0  0  0  0
 11  1  1  0  0  0  0
 12 19  1  0  0  0  0
 12 20  1  0  0  0  0
 13 18  1  0  0  0  0
 14  5  1  0  0  0  0
 14  4  1  0  0  0  0
 15 20  1  0  0  0  0
 15 17  1  0  0  0  0
 16  4  1  0  0  0  0
 16 18  1  0  0  0  0
 17 32  1  0  0  0  0
 17 14  1  0  0  0  0
 19  1  1  0  0  0  0
 19  8  1  0  0  0  0
 20 16  1  0  0  0  0
 21 22  1  0  0  0  0
 23 22  1  0  0  0  0
 24 25  1  0  0  0  0
 25 17  1  0  0  0  0
 25 26  1  0  0  0  0
 27 29  1  0  0  0  0
 27 26  1  0  0  0  0
 28 27  1  0  0  0  0
 30 29  1  0  0  0  0
 31 30  3  0  0  0  0
 33 34  1  0  0  0  0
 35 33  1  0  0  0  0
 35 34  1  0  0  0  0
 35 32  1  0  0  0  0
M  END
>  <MODEL>
2

>  <REMARK>
 VINA RESULT:      -6.8      1.710      2.037
  Name = 
  8 active torsions:
  status: ('A' for Active; 'I' for Inactive)
    1  A    between atoms: C_1  and  C_8
    2  A    between atoms: O_2  and  C_11
    3  A    between atoms: O_2  and  C_22
    4  A    between atoms: C_8  and  C_11
    5  A    between atoms: C_12  and  C_16
    6  A    between atoms: C_21  and  C_25
    7  A    between atoms: C_22  and  C_29
    8  A    between atoms: C_25  and  C_29
                            x       y       z     vdW  Elec       q    Type
                         _______ _______ _______ _____ _____    ______ ____

>  <TORSDO>
F 8

$$$$
=
 OpenBabel11062420073D

 35 40  0  0  1  0  0  0  0  0999 V2000
  195.2520  174.4320  144.0090 C   0  0  1  0  0  0  0  0  0  0  0  0
  196.7030  174.7690  144.2760 C   0  0  0  0  0  1  0  0  0  0  0  0
  188.7020  172.7540  138.8260 O   0  0  0  0  0  0  0  0  0  0  0  0
  190.3360  174.2620  141.6080 C   0  0  0  0  0  0  0  0  0  0  0  0
  188.2000  175.3120  141.1770 C   0  0  0  0  0  3  0  0  0  0  0  0
  193.3300  175.1340  144.9790 C   0  0  2  0  0  3  0  0  0  0  0  0
  190.0840  173.3900  140.5390 C   0  0  0  0  0  3  0  0  0  0  0  0
  194.8950  173.8110  142.7410 C   0  0  1  0  0  3  0  0  0  0  0  0
  187.9990  174.4650  140.1350 N   0  0  0  0  0  0  0  0  0  0  0  0
  188.9090  173.5150  139.8050 C   0  0  0  0  0  0  0  0  0  0  0  0
  194.3930  174.2320  145.1160 O   0  0  0  0  0  0  0  0  0  0  0  0
  193.4030  175.6930  143.5740 C   0  0  1  0  0  3  0  0  0  0  0  0
  193.6730  172.9010  142.8520 C   0  0  0  0  0  2  0  0  0  0  0  0
  189.3810  175.2410  141.9370 C   0  0  1  0  0  3  0  0  0  0  0  0
  191.1010  176.6020  143.1430 C   0  0  0  0  0  2  0  0  0  0  0  0
  191.5970  174.1710  142.4390 C   0  0  1  0  0  3  0  0  0  0  0  0
  189.6320  176.1140  143.1640 C   0  0  1  0  0  0  0  0  0  0  0  0
  192.6430  173.2640  141.8100 C   0  0  0  0  0  2  0  0  0  0  0  0
  194.6530  175.2740  142.9610 N   0  0  1  0  0  0  0  0  0  0  0  0
  192.1590  175.5870  142.6740 C   0  0  2  0  0  3  0  0  0  0  0  0
  193.8210  177.4460  145.3470 O   0  0  0  0  0  1  0  0  0  0  0  0
  193.5030  176.2550  146.0020 C   0  0  0  0  0  3  0  0  0  0  0  0
  194.5210  175.9460  146.9020 O   0  0  0  0  0  1  0  0  0  0  0  0
  188.9010  178.2960  142.0410 C   0  0  0  0  0  1  0  0  0  0  0  0
  188.7150  177.3690  143.2370 C   0  0  1  0  0  3  0  0  0  0  0  0
  187.3530  177.0480  143.3700 O   0  0  0  0  0  0  0  0  0  0  0  0
  186.8530  177.8800  144.3750 C   0  0  2  0  0  3  0  0  0  0  0  0
  185.8480  176.8840  145.5080 S   0  0  0  0  0  1  0  0  0  0  0  0
  186.0070  178.9890  143.7740 C   0  0  0  0  0  2  0  0  0  0  0  0
  185.0350  178.4250  142.8380 C   0  0  0  0  0  0  0  0  0  0  0  0
  184.2610  177.9720  142.1070 N   0  0  0  0  0  0  0  0  0  0  0  0
  189.4100  175.2280  144.4100 C   0  0  0  0  0  2  0  0  0  0  0  0
  190.2910  174.9660  146.6110 O   0  0  0  0  0  0  0  0  0  0  0  0
  188.9540  175.3340  146.8230 C   0  0  0  0  0  2  0  0  0  0  0  0
  189.7480  175.9200  145.7260 C   0  0  2  0  0  3  0  0  0  0  0  0
  1  2  1  1  0  0  0
  1 11  1  0  0  0  0
  3 10  2  0  0  0  0
  4 14  1  0  0  0  0
  4 16  1  0  0  0  0
  5 14  1  0  0  0  0
  6 11  1  0  0  0  0
  6 22  1  1  0  0  0
  7  4  2  0  0  0  0
  8 13  1  1  0  0  0
  8 19  1  0  0  0  0
  8  1  1  0  0  0  0
  9  5  2  0  0  0  0
 10  9  1  0  0  0  0
 10  7  1  0  0  0  0
 12  6  1  0  0  0  0
 14 17  1  0  0  0  0
 15 17  1  0  0  0  0
 16 20  1  0  0  0  0
 17 25  1  0  0  0  0
 17 32  1  0  0  0  0
 18 16  1  0  0  0  0
 18 13  1  0  0  0  0
 19 12  1  0  0  0  0
 19  1  1  0  0  0  0
 20 15  1  0  0  0  0
 20 12  1  0  0  0  0
 21 22  1  0  0  0  0
 22 23  1  0  0  0  0
 24 25  1  0  0  0  0
 25 26  1  0  0  0  0
 26 27  1  0  0  0  0
 27 28  1  0  0  0  0
 29 27  1  0  0  0  0
 30 29  1  0  0  0  0
 31 30  3  0  0  0  0
 32 35  1  0  0  0  0
 33 34  1  0  0  0  0
 35 33  1  0  0  0  0
 35 34  1  0  0  0  0
M  END
>  <MODEL>
3

>  <REMARK>
 VINA RESULT:      -6.3      2.698      7.889
  Name = 
  8 active torsions:
  status: ('A' for Active; 'I' for Inactive)
    1  A    between atoms: C_1  and  C_8
    2  A    between atoms: O_2  and  C_11
    3  A    between atoms: O_2  and  C_22
    4  A    between atoms: C_8  and  C_11
    5  A    between atoms: C_12  and  C_16
    6  A    between atoms: C_21  and  C_25
    7  A    between atoms: C_22  and  C_29
    8  A    between atoms: C_25  and  C_29
                            x       y       z     vdW  Elec       q    Type
                         _______ _______ _______ _____ _____    ______ ____

>  <TORSDO>
F 8

$$$$
=
 OpenBabel11062420073D

 35 40  0  0  1  0  0  0  0  0999 V2000
  185.3050  178.6500  145.2420 C   0  0  1  0  0  0  0  0  0  0  0  0
  184.4270  178.9290  146.4430 C   0  0  0  0  0  1  0  0  0  0  0  0
  186.5490  176.1200  137.2030 O   0  0  0  0  0  0  0  0  0  0  0  0
  187.2560  176.3250  140.6870 C   0  0  0  0  0  0  0  0  0  0  0  0
  188.5230  174.5480  139.6430 C   0  0  0  0  0  3  0  0  0  0  0  0
  187.3720  177.7440  145.0530 C   0  0  2  0  0  3  0  0  0  0  0  0
  186.7090  176.6250  139.4310 C   0  0  0  0  0  3  0  0  0  0  0  0
  184.7000  178.6260  143.9180 C   0  0  1  0  0  3  0  0  0  0  0  0
  187.9570  174.8540  138.4470 N   0  0  0  0  0  0  0  0  0  0  0  0
  187.0660  175.8680  138.3200 C   0  0  0  0  0  0  0  0  0  0  0  0
  186.6880  178.9330  145.3390 O   0  0  0  0  0  0  0  0  0  0  0  0
  186.3590  176.7820  144.4700 C   0  0  1  0  0  3  0  0  0  0  0  0
  185.6670  179.0580  142.8180 C   0  0  0  0  0  2  0  0  0  0  0  0
  188.1790  175.2690  140.8010 C   0  0  1  0  0  3  0  0  0  0  0  0
  187.7470  175.0730  143.2590 C   0  0  0  0  0  2  0  0  0  0  0  0
  186.9020  177.1150  141.9280 C   0  0  1  0  0  3  0  0  0  0  0  0
  188.8340  175.0220  142.1570 C   0  0  1  0  0  0  0  0  0  0  0  0
  185.7080  178.0310  141.7120 C   0  0  0  0  0  2  0  0  0  0  0  0
  185.0270  177.3440  144.6220 N   0  0  1  0  0  0  0  0  0  0  0  0
  186.6530  176.1450  143.0990 C   0  0  2  0  0  3  0  0  0  0  0  0
  187.2430  176.0320  146.7190 O   0  0  0  0  0  1  0  0  0  0  0  0
  187.9440  177.1820  146.3530 C   0  0  0  0  0  3  0  0  0  0  0  0
  187.8460  178.1200  147.3780 O   0  0  0  0  0  1  0  0  0  0  0  0
  188.5740  172.4820  142.3480 C   0  0  0  0  0  1  0  0  0  0  0  0
  189.5540  173.6470  142.2630 C   0  0  1  0  0  3  0  0  0  0  0  0
  190.4600  173.4180  141.2130 O   0  0  0  0  0  0  0  0  0  0  0  0
  191.2520  172.3380  141.6100 C   0  0  2  0  0  3  0  0  0  0  0  0
  192.6750  172.9710  142.5380 S   0  0  0  0  0  1  0  0  0  0  0  0
  191.7320  171.5580  140.3990 C   0  0  0  0  0  2  0  0  0  0  0  0
  190.6300  171.3690  139.4570 C   0  0  0  0  0  0  0  0  0  0  0  0
  189.7640  171.2260  138.7030 N   0  0  0  0  0  0  0  0  0  0  0  0
  189.8460  176.1660  142.3920 C   0  0  0  0  0  2  0  0  0  0  0  0
  190.8220  177.4250  144.1670 O   0  0  0  0  0  0  0  0  0  0  0  0
  191.8930  176.6790  143.6520 C   0  0  0  0  0  2  0  0  0  0  0  0
  190.5360  176.1090  143.7500 C   0  0  2  0  0  3  0  0  0  0  0  0
  1 11  1  0  0  0  0
  1  2  1  1  0  0  0
  3 10  2  0  0  0  0
  4 14  1  0  0  0  0
  4 16  1  0  0  0  0
  5 14  1  0  0  0  0
  6 11  1  0  0  0  0
  6 22  1  1  0  0  0
  7  4  2  0  0  0  0
  8 13  1  6  0  0  0
  8 19  1  0  0  0  0
  8  1  1  0  0  0  0
  9  5  2  0  0  0  0
 10  9  1  0  0  0  0
 10  7  1  0  0  0  0
 12 19  1  0  0  0  0
 12  6  1  0  0  0  0
 14 17  1  0  0  0  0
 16 20  1  0  0  0  0
 17 25  1  0  0  0  0
 17 32  1  0  0  0  0
 17 15  1  0  0  0  0
 18 16  1  0  0  0  0
 18 13  1  0  0  0  0
 19  1  1  0  0  0  0
 20 15  1  0  0  0  0
 20 12  1  0  0  0  0
 22 21  1  0  0  0  0
 22 23  1  0  0  0  0
 25 24  1  0  0  0  0
 26 27  1  0  0  0  0
 26 25  1  0  0  0  0
 27 28  1  0  0  0  0
 29 27  1  0  0  0  0
 30 29  1  0  0  0  0
 31 30  3  0  0  0  0
 32 35  1  0  0  0  0
 34 35  1  0  0  0  0
 34 33  1  0  0  0  0
 35 33  1  0  0  0  0
M  END
>  <MODEL>
4

>  <REMARK>
 VINA RESULT:      -6.2      3.096      5.506
  Name = 
  8 active torsions:
  status: ('A' for Active; 'I' for Inactive)
    1  A    between atoms: C_1  and  C_8
    2  A    between atoms: O_2  and  C_11
    3  A    between atoms: O_2  and  C_22
    4  A    between atoms: C_8  and  C_11
    5  A    between atoms: C_12  and  C_16
    6  A    between atoms: C_21  and  C_25
    7  A    between atoms: C_22  and  C_29
    8  A    between atoms: C_25  and  C_29
                            x       y       z     vdW  Elec       q    Type
                         _______ _______ _______ _____ _____    ______ ____

>  <TORSDO>
F 8

$$$$
=
 OpenBabel11062420073D

 35 40  0  0  1  0  0  0  0  0999 V2000
  187.7250  177.4430  146.2690 C   0  0  1  0  0  0  0  0  0  0  0  0
  187.0290  177.7620  147.5740 C   0  0  0  0  0  1  0  0  0  0  0  0
  187.9520  174.1290  138.4240 O   0  0  0  0  0  0  0  0  0  0  0  0
  189.1900  174.8280  141.6890 C   0  0  0  0  0  0  0  0  0  0  0  0
  190.4920  173.0950  140.6150 C   0  0  0  0  0  3  0  0  0  0  0  0
  189.8340  176.7630  145.8030 C   0  0  2  0  0  3  0  0  0  0  0  0
  188.4090  174.9130  140.5270 C   0  0  0  0  0  3  0  0  0  0  0  0
  186.9190  177.1930  145.0820 C   0  0  1  0  0  3  0  0  0  0  0  0
  189.7010  173.1900  139.5150 N   0  0  0  0  0  0  0  0  0  0  0  0
  188.6750  174.0740  139.4500 C   0  0  0  0  0  0  0  0  0  0  0  0
  189.0560  177.8910  146.0890 O   0  0  0  0  0  0  0  0  0  0  0  0
  188.8760  175.6290  145.5070 C   0  0  1  0  0  3  0  0  0  0  0  0
  187.6250  177.5980  143.7900 C   0  0  0  0  0  2  0  0  0  0  0  0
  190.2510  173.9050  141.7390 C   0  0  1  0  0  3  0  0  0  0  0  0
  190.2600  173.9570  144.2410 C   0  0  0  0  0  2  0  0  0  0  0  0
  188.9440  175.7160  142.8890 C   0  0  1  0  0  3  0  0  0  0  0  0
  191.1480  173.8990  142.9740 C   0  0  1  0  0  0  0  0  0  0  0  0
  187.6200  176.4580  142.8020 C   0  0  0  0  0  2  0  0  0  0  0  0
  187.5250  176.0500  145.8400 N   0  0  1  0  0  0  0  0  0  0  0  0
  189.0220  174.8700  144.1760 C   0  0  2  0  0  3  0  0  0  0  0  0
  190.2070  175.2620  147.6280 O   0  0  0  0  0  1  0  0  0  0  0  0
  190.6830  176.4290  147.0290 C   0  0  0  0  0  3  0  0  0  0  0  0
  190.6360  177.4680  147.9560 O   0  0  0  0  0  1  0  0  0  0  0  0
  193.3890  172.8150  142.3750 C   0  0  0  0  0  1  0  0  0  0  0  0
  192.0520  172.6370  143.0840 C   0  0  1  0  0  3  0  0  0  0  0  0
  192.2780  172.2380  144.4130 O   0  0  0  0  0  0  0  0  0  0  0  0
  193.5020  171.5650  144.4140 C   0  0  2  0  0  3  0  0  0  0  0  0
  193.1860  169.7850  144.2800 S   0  0  0  0  0  1  0  0  0  0  0  0
  194.2680  171.8580  145.6920 C   0  0  0  0  0  2  0  0  0  0  0  0
  195.4020  172.7350  145.4060 C   0  0  0  0  0  0  0  0  0  0  0  0
  196.3070  173.4220  145.1870 N   0  0  0  0  0  0  0  0  0  0  0  0
  192.0240  175.1700  142.9110 C   0  0  0  0  0  2  0  0  0  0  0  0
  192.9340  176.9020  144.2750 O   0  0  0  0  0  0  0  0  0  0  0  0
  194.0410  176.0940  143.9690 C   0  0  0  0  0  2  0  0  0  0  0  0
  192.7110  175.5100  144.2290 C   0  0  2  0  0  3  0  0  0  0  0  0
  1  2  1  1  0  0  0
  3 10  2  0  0  0  0
  4 14  1  0  0  0  0
  4 16  1  0  0  0  0
  5 14  1  0  0  0  0
  6 11  1  0  0  0  0
  6 22  1  1  0  0  0
  7  4  2  0  0  0  0
  8 13  1  6  0  0  0
  8 19  1  0  0  0  0
  8  1  1  0  0  0  0
  9  5  2  0  0  0  0
 10  9  1  0  0  0  0
 10  7  1  0  0  0  0
 11  1  1  0  0  0  0
 12  6  1  0  0  0  0
 12 19  1  0  0  0  0
 14 17  1  0  0  0  0
 16 20  1  0  0  0  0
 17 25  1  0  0  0  0
 17 15  1  0  0  0  0
 18 16  1  0  0  0  0
 18 13  1  0  0  0  0
 19  1  1  0  0  0  0
 20 15  1  0  0  0  0
 20 12  1  0  0  0  0
 22 21  1  0  0  0  0
 22 23  1  0  0  0  0
 24 25  1  0  0  0  0
 25 26  1  0  0  0  0
 26 27  1  0  0  0  0
 27 29  1  0  0  0  0
 28 27  1  0  0  0  0
 30 29  1  0  0  0  0
 31 30  3  0  0  0  0
 32 17  1  0  0  0  0
 32 35  1  0  0  0  0
 34 35  1  0  0  0  0
 34 33  1  0  0  0  0
 35 33  1  0  0  0  0
M  END
>  <MODEL>
5

>  <REMARK>
 VINA RESULT:      -6.2      2.819      5.325
  Name = 
  8 active torsions:
  status: ('A' for Active; 'I' for Inactive)
    1  A    between atoms: C_1  and  C_8
    2  A    between atoms: O_2  and  C_11
    3  A    between atoms: O_2  and  C_22
    4  A    between atoms: C_8  and  C_11
    5  A    between atoms: C_12  and  C_16
    6  A    between atoms: C_21  and  C_25
    7  A    between atoms: C_22  and  C_29
    8  A    between atoms: C_25  and  C_29
                            x       y       z     vdW  Elec       q    Type
                         _______ _______ _______ _____ _____    ______ ____

>  <TORSDO>
F 8

$$$$
=
 OpenBabel11062420073D

 35 40  0  0  1  0  0  0  0  0999 V2000
  185.1250  178.5350  145.5300 C   0  0  1  0  0  0  0  0  0  0  0  0
  184.2900  178.6890  146.7840 C   0  0  0  0  0  1  0  0  0  0  0  0
  186.2000  176.3110  137.3770 O   0  0  0  0  0  0  0  0  0  0  0  0
  187.0730  176.5350  140.8230 C   0  0  0  0  0  0  0  0  0  0  0  0
  188.4760  174.9360  139.6700 C   0  0  0  0  0  3  0  0  0  0  0  0
  187.2690  177.8790  145.2090 C   0  0  2  0  0  3  0  0  0  0  0  0
  186.4260  176.7920  139.6050 C   0  0  0  0  0  3  0  0  0  0  0  0
  184.4530  178.4650  144.2400 C   0  0  1  0  0  3  0  0  0  0  0  0
  187.8120  175.1960  138.5130 N   0  0  0  0  0  0  0  0  0  0  0  0
  186.8050  176.1020  138.4580 C   0  0  0  0  0  0  0  0  0  0  0  0
  186.4700  178.9750  145.5600 O   0  0  0  0  0  0  0  0  0  0  0  0
  186.3420  176.8170  144.6580 C   0  0  1  0  0  3  0  0  0  0  0  0
  185.3020  179.0260  143.1010 C   0  0  0  0  0  2  0  0  0  0  0  0
  188.1160  175.5910  140.8610 C   0  0  1  0  0  3  0  0  0  0  0  0
  187.8480  175.3030  143.3330 C   0  0  0  0  0  2  0  0  0  0  0  0
  186.7010  177.2560  142.0990 C   0  0  1  0  0  3  0  0  0  0  0  0
  188.8710  175.3990  142.1740 C   0  0  1  0  0  0  0  0  0  0  0  0
  185.3990  178.0310  141.9700 C   0  0  0  0  0  2  0  0  0  0  0  0
  184.9650  177.2180  144.8950 N   0  0  1  0  0  0  0  0  0  0  0  0
  186.6300  176.2430  143.2590 C   0  0  2  0  0  3  0  0  0  0  0  0
  187.5460  176.0670  146.7450 O   0  0  0  0  0  1  0  0  0  0  0  0
  187.9740  177.3640  146.4620 C   0  0  0  0  0  3  0  0  0  0  0  0
  187.6950  178.1840  147.5540 O   0  0  0  0  0  1  0  0  0  0  0  0
  191.2000  174.3920  141.8320 C   0  0  0  0  0  1  0  0  0  0  0  0
  189.7490  174.1140  142.2080 C   0  0  1  0  0  3  0  0  0  0  0  0
  189.7070  173.4530  143.4480 O   0  0  0  0  0  0  0  0  0  0  0  0
  191.0350  173.2990  143.8510 C   0  0  2  0  0  3  0  0  0  0  0  0
  191.4470  171.5330  143.8340 S   0  0  0  0  0  1  0  0  0  0  0  0
  191.2350  173.8610  145.2480 C   0  0  0  0  0  2  0  0  0  0  0  0
  192.6460  174.1790  145.4630 C   0  0  0  0  0  0  0  0  0  0  0  0
  193.7600  174.4410  145.6250 N   0  0  0  0  0  0  0  0  0  0  0  0
  189.7560  176.6480  142.3820 C   0  0  0  0  0  2  0  0  0  0  0  0
  190.4490  178.2520  144.0050 O   0  0  0  0  0  0  0  0  0  0  0  0
  191.5450  177.3810  143.8990 C   0  0  0  0  0  2  0  0  0  0  0  0
  190.1580  176.8830  143.8330 C   0  0  2  0  0  3  0  0  0  0  0  0
  1 11  1  0  0  0  0
  1  2  1  1  0  0  0
  3 10  2  0  0  0  0
  4 14  1  0  0  0  0
  4 16  1  0  0  0  0
  5 14  1  0  0  0  0
  6 11  1  0  0  0  0
  6 22  1  1  0  0  0
  7  4  2  0  0  0  0
  8 13  1  6  0  0  0
  8 19  1  0  0  0  0
  8  1  1  0  0  0  0
  9  5  2  0  0  0  0
 10  9  1  0  0  0  0
 10  7  1  0  0  0  0
 12 19  1  0  0  0  0
 12  6  1  0  0  0  0
 14 17  1  0  0  0  0
 16 20  1  0  0  0  0
 17 25  1  0  0  0  0
 17 32  1  0  0  0  0
 17 15  1  0  0  0  0
 18 16  1  0  0  0  0
 18 13  1  0  0  0  0
 19  1  1  0  0  0  0
 20 15  1  0  0  0  0
 20 12  1  0  0  0  0
 22 21  1  0  0  0  0
 22 23  1  0  0  0  0
 24 25  1  0  0  0  0
 25 26  1  0  0  0  0
 26 27  1  0  0  0  0
 27 29  1  0  0  0  0
 28 27  1  0  0  0  0
 29 30  1  0  0  0  0
 30 31  3  0  0  0  0
 32 35  1  0  0  0  0
 34 33  1  0  0  0  0
 35 34  1  0  0  0  0
 35 33  1  0  0  0  0
M  END
>  <MODEL>
6

>  <REMARK>
 VINA RESULT:      -6.2      2.627      5.169
  Name = 
  8 active torsions:
  status: ('A' for Active; 'I' for Inactive)
    1  A    between atoms: C_1  and  C_8
    2  A    between atoms: O_2  and  C_11
    3  A    between atoms: O_2  and  C_22
    4  A    between atoms: C_8  and  C_11
    5  A    between atoms: C_12  and  C_16
    6  A    between atoms: C_21  and  C_25
    7  A    between atoms: C_22  and  C_29
    8  A    between atoms: C_25  and  C_29
                            x       y       z     vdW  Elec       q    Type
                         _______ _______ _______ _____ _____    ______ ____

>  <TORSDO>
F 8

$$$$
=
 OpenBabel11062420073D

 35 40  0  0  1  0  0  0  0  0999 V2000
  186.1890  177.4660  142.7140 C   0  0  1  0  0  0  0  0  0  0  0  0
  185.1950  178.1220  141.7800 C   0  0  0  0  0  1  0  0  0  0  0  0
  191.5260  177.5450  149.3540 O   0  0  0  0  0  0  0  0  0  0  0  0
  190.4780  176.7630  146.0410 C   0  0  0  0  0  0  0  0  0  0  0  0
  192.8520  176.3900  146.3150 C   0  0  0  0  0  3  0  0  0  0  0  0
  187.8620  175.9850  142.3480 C   0  0  2  0  0  3  0  0  0  0  0  0
  190.4190  177.1490  147.3880 C   0  0  0  0  0  3  0  0  0  0  0  0
  186.4050  178.0450  144.0330 C   0  0  1  0  0  3  0  0  0  0  0  0
  192.7600  176.7910  147.6100 N   0  0  0  0  0  0  0  0  0  0  0  0
  191.5780  177.1660  148.1570 C   0  0  0  0  0  0  0  0  0  0  0  0
  186.4780  176.0930  142.5320 O   0  0  0  0  0  0  0  0  0  0  0  0
  188.4640  177.3200  142.7310 C   0  0  1  0  0  3  0  0  0  0  0  0
  186.7960  177.0030  145.0790 C   0  0  0  0  0  2  0  0  0  0  0  0
  191.7130  176.3760  145.4900 C   0  0  1  0  0  3  0  0  0  0  0  0
  190.8850  176.8110  143.1690 C   0  0  0  0  0  2  0  0  0  0  0  0
  189.2480  176.7270  145.1600 C   0  0  1  0  0  3  0  0  0  0  0  0
  191.7370  175.8660  144.0520 C   0  0  1  0  0  0  0  0  0  0  0  0
  188.0550  177.4210  145.7990 C   0  0  0  0  0  2  0  0  0  0  0  0
  187.3930  178.2830  142.9320 N   0  0  1  0  0  0  0  0  0  0  0  0
  189.5820  177.3470  143.7890 C   0  0  2  0  0  3  0  0  0  0  0  0
  187.2660  176.4180  140.0720 O   0  0  0  0  0  1  0  0  0  0  0  0
  188.1400  175.6850  140.8760 C   0  0  0  0  0  3  0  0  0  0  0  0
  187.9710  174.3270  140.6120 O   0  0  0  0  0  1  0  0  0  0  0  0
  193.8320  174.4470  143.6610 C   0  0  0  0  0  1  0  0  0  0  0  0
  193.1640  175.7990  143.4360 C   0  0  1  0  0  3  0  0  0  0  0  0
  193.1850  176.1050  142.0640 O   0  0  0  0  0  0  0  0  0  0  0  0
  194.2810  175.4230  141.5290 C   0  0  2  0  0  3  0  0  0  0  0  0
  195.6450  176.5970  141.3080 S   0  0  0  0  0  1  0  0  0  0  0  0
  193.9170  174.7980  140.1940 C   0  0  0  0  0  2  0  0  0  0  0  0
  195.0820  174.1240  139.6230 C   0  0  0  0  0  0  0  0  0  0  0  0
  196.0110  173.5980  139.1780 N   0  0  0  0  0  0  0  0  0  0  0  0
  191.0970  174.4600  144.0530 C   0  0  0  0  0  2  0  0  0  0  0  0
  189.7720  172.9150  142.8100 O   0  0  0  0  0  0  0  0  0  0  0  0
  191.0930  172.5420  142.5150 C   0  0  0  0  0  2  0  0  0  0  0  0
  190.7090  173.9590  142.6660 C   0  0  2  0  0  3  0  0  0  0  0  0
  1  2  1  6  0  0  0
  1 19  1  0  0  0  0
  1  8  1  0  0  0  0
  4  7  2  0  0  0  0
  5  9  2  0  0  0  0
  6 22  1  6  0  0  0
  6 11  1  0  0  0  0
  6 12  1  0  0  0  0
  7 10  1  0  0  0  0
  8 13  1  1  0  0  0
  9 10  1  0  0  0  0
 10  3  2  0  0  0  0
 11  1  1  0  0  0  0
 12 19  1  0  0  0  0
 12 20  1  0  0  0  0
 13 18  1  0  0  0  0
 14  4  1  0  0  0  0
 14  5  1  0  0  0  0
 15 20  1  0  0  0  0
 15 17  1  0  0  0  0
 16 18  1  0  0  0  0
 16  4  1  0  0  0  0
 17 32  1  0  0  0  0
 17 14  1  0  0  0  0
 19  8  1  0  0  0  0
 20 16  1  0  0  0  0
 21 22  1  0  0  0  0
 23 22  1  0  0  0  0
 25 24  1  0  0  0  0
 25 17  1  0  0  0  0
 26 25  1  0  0  0  0
 27 26  1  0  0  0  0
 28 27  1  0  0  0  0
 29 27  1  0  0  0  0
 30 29  1  0  0  0  0
 31 30  3  0  0  0  0
 34 35  1  0  0  0  0
 34 33  1  0  0  0  0
 35 33  1  0  0  0  0
 35 32  1  0  0  0  0
M  END
>  <MODEL>
7

>  <REMARK>
 VINA RESULT:      -6.1      2.044      2.568
  Name = 
  8 active torsions:
  status: ('A' for Active; 'I' for Inactive)
    1  A    between atoms: C_1  and  C_8
    2  A    between atoms: O_2  and  C_11
    3  A    between atoms: O_2  and  C_22
    4  A    between atoms: C_8  and  C_11
    5  A    between atoms: C_12  and  C_16
    6  A    between atoms: C_21  and  C_25
    7  A    between atoms: C_22  and  C_29
    8  A    between atoms: C_25  and  C_29
                            x       y       z     vdW  Elec       q    Type
                         _______ _______ _______ _____ _____    ______ ____

>  <TORSDO>
F 8

$$$$
=
 OpenBabel11062420073D

 35 40  0  0  1  0  0  0  0  0999 V2000
  185.4900  178.4520  144.4250 C   0  0  1  0  0  0  0  0  0  0  0  0
  184.3680  178.9710  145.2990 C   0  0  0  0  0  1  0  0  0  0  0  0
  188.5250  173.7180  138.0250 O   0  0  0  0  0  0  0  0  0  0  0  0
  188.4920  175.1030  141.3070 C   0  0  0  0  0  0  0  0  0  0  0  0
  190.0730  173.2780  141.1450 C   0  0  0  0  0  3  0  0  0  0  0  0
  187.6130  177.8230  144.8990 C   0  0  2  0  0  3  0  0  0  0  0  0
  188.1910  174.9160  139.9490 C   0  0  0  0  0  3  0  0  0  0  0  0
  185.1690  177.9310  143.1040 C   0  0  1  0  0  3  0  0  0  0  0  0
  189.7400  173.1130  139.8390 N   0  0  0  0  0  0  0  0  0  0  0  0
  188.8220  173.9040  139.2320 C   0  0  0  0  0  0  0  0  0  0  0  0
  186.7990  178.9370  144.6530 O   0  0  0  0  0  0  0  0  0  0  0  0
  186.8140  176.5980  144.5110 C   0  0  1  0  0  3  0  0  0  0  0  0
  186.3050  178.1230  142.1010 C   0  0  0  0  0  2  0  0  0  0  0  0
  189.4480  174.2720  141.9200 C   0  0  1  0  0  3  0  0  0  0  0  0
  188.5420  174.8020  144.1920 C   0  0  0  0  0  2  0  0  0  0  0  0
  187.8360  176.1870  142.1330 C   0  0  1  0  0  3  0  0  0  0  0  0
  189.8310  174.5570  143.3700 C   0  0  1  0  0  0  0  0  0  0  0  0
  186.6460  176.8170  141.4270 C   0  0  0  0  0  2  0  0  0  0  0  0
  185.4410  176.9930  144.2410 N   0  0  1  0  0  0  0  0  0  0  0  0
  187.4260  175.6090  143.5030 C   0  0  2  0  0  3  0  0  0  0  0  0
  189.3140  177.5400  146.5570 O   0  0  0  0  0  1  0  0  0  0  0  0
  187.9500  177.7820  146.3890 C   0  0  0  0  0  3  0  0  0  0  0  0
  187.2270  176.7760  147.0270 O   0  0  0  0  0  1  0  0  0  0  0  0
  189.6910  172.3070  144.5840 C   0  0  0  0  0  1  0  0  0  0  0  0
  190.6140  173.3960  144.0490 C   0  0  1  0  0  3  0  0  0  0  0  0
  191.5790  172.8170  143.2070 O   0  0  0  0  0  0  0  0  0  0  0  0
  192.1890  171.8060  143.9520 C   0  0  2  0  0  3  0  0  0  0  0  0
  193.5300  172.5340  144.9310 S   0  0  0  0  0  1  0  0  0  0  0  0
  192.7460  170.7320  143.0330 C   0  0  0  0  0  2  0  0  0  0  0  0
  191.6650  170.1300  142.2540 C   0  0  0  0  0  0  0  0  0  0  0  0
  190.8160  169.6430  141.6380 N   0  0  0  0  0  0  0  0  0  0  0  0
  190.6870  175.8430  143.3750 C   0  0  0  0  0  2  0  0  0  0  0  0
  192.1390  177.2600  144.6280 O   0  0  0  0  0  0  0  0  0  0  0  0
  192.9970  176.2910  144.0850 C   0  0  0  0  0  2  0  0  0  0  0  0
  191.6430  175.9420  144.5570 C   0  0  2  0  0  3  0  0  0  0  0  0
  1 11  1  0  0  0  0
  1  2  1  1  0  0  0
  3 10  2  0  0  0  0
  4 14  1  0  0  0  0
  4 16  1  0  0  0  0
  5 14  1  0  0  0  0
  6 22  1  1  0  0  0
  7  4  2  0  0  0  0
  8 13  1  6  0  0  0
  8 19  1  0  0  0  0
  8  1  1  0  0  0  0
  9  5  2  0  0  0  0
 10  9  1  0  0  0  0
 10  7  1  0  0  0  0
 11  6  1  0  0  0  0
 12  6  1  0  0  0  0
 14 17  1  0  0  0  0
 16 20  1  0  0  0  0
 17 32  1  0  0  0  0
 17 25  1  0  0  0  0
 17 15  1  0  0  0  0
 18 13  1  0  0  0  0
 18 16  1  0  0  0  0
 19  1  1  0  0  0  0
 19 12  1  0  0  0  0
 20 15  1  0  0  0  0
 20 12  1  0  0  0  0
 22 21  1  0  0  0  0
 22 23  1  0  0  0  0
 25 24  1  0  0  0  0
 26 27  1  0  0  0  0
 26 25  1  0  0  0  0
 27 28  1  0  0  0  0
 29 27  1  0  0  0  0
 30 29  1  0  0  0  0
 31 30  3  0  0  0  0
 32 35  1  0  0  0  0
 34 35  1  0  0  0  0
 34 33  1  0  0  0  0
 35 33  1  0  0  0  0
M  END
>  <MODEL>
8

>  <REMARK>
 VINA RESULT:      -6.0      3.017      5.129
  Name = 
  8 active torsions:
  status: ('A' for Active; 'I' for Inactive)
    1  A    between atoms: C_1  and  C_8
    2  A    between atoms: O_2  and  C_11
    3  A    between atoms: O_2  and  C_22
    4  A    between atoms: C_8  and  C_11
    5  A    between atoms: C_12  and  C_16
    6  A    between atoms: C_21  and  C_25
    7  A    between atoms: C_22  and  C_29
    8  A    between atoms: C_25  and  C_29
                            x       y       z     vdW  Elec       q    Type
                         _______ _______ _______ _____ _____    ______ ____

>  <TORSDO>
F 8

$$$$
=
 OpenBabel11062420073D

 35 40  0  0  1  0  0  0  0  0999 V2000
  189.1390  176.5910  146.0830 C   0  0  1  0  0  0  0  0  0  0  0  0
  188.0150  177.5160  146.4980 C   0  0  0  0  0  1  0  0  0  0  0  0
  197.1760  173.7930  146.4770 O   0  0  0  0  0  0  0  0  0  0  0  0
  194.1500  174.7580  144.8650 C   0  0  0  0  0  0  0  0  0  0  0  0
  195.9670  174.5840  143.2780 C   0  0  0  0  0  3  0  0  0  0  0  0
  189.7350  175.7390  144.0720 C   0  0  2  0  0  3  0  0  0  0  0  0
  195.0410  174.3650  145.8750 C   0  0  0  0  0  3  0  0  0  0  0  0
  190.2690  176.4070  146.9830 C   0  0  1  0  0  3  0  0  0  0  0  0
  196.8060  174.2270  144.2850 N   0  0  0  0  0  0  0  0  0  0  0  0
  196.3730  174.1120  145.5650 C   0  0  0  0  0  0  0  0  0  0  0  0
  188.8550  175.5670  145.1480 O   0  0  0  0  0  0  0  0  0  0  0  0
  190.7880  176.7310  144.5160 C   0  0  1  0  0  3  0  0  0  0  0  0
  190.9080  175.0260  146.8550 C   0  0  0  0  0  2  0  0  0  0  0  0
  194.6160  174.8710  143.5430 C   0  0  1  0  0  3  0  0  0  0  0  0
  192.7020  176.3620  142.9300 C   0  0  0  0  0  2  0  0  0  0  0  0
  192.6920  175.0450  145.1470 C   0  0  1  0  0  3  0  0  0  0  0  0
  193.6080  175.2040  142.4460 C   0  0  1  0  0  0  0  0  0  0  0  0
  192.3970  175.1480  146.6350 C   0  0  0  0  0  2  0  0  0  0  0  0
  190.3900  177.3070  145.7900 N   0  0  1  0  0  0  0  0  0  0  0  0
  192.2700  176.3300  144.4080 C   0  0  2  0  0  3  0  0  0  0  0  0
  189.3390  177.6160  142.6420 O   0  0  0  0  0  1  0  0  0  0  0  0
  188.9530  176.2960  142.8840 C   0  0  0  0  0  3  0  0  0  0  0  0
  187.5830  176.2630  143.1390 O   0  0  0  0  0  1  0  0  0  0  0  0
  195.2510  176.7910  141.2890 C   0  0  0  0  0  1  0  0  0  0  0  0
  194.2650  175.6430  141.1050 C   0  0  1  0  0  3  0  0  0  0  0  0
  194.9020  174.5850  140.4330 O   0  0  0  0  0  0  0  0  0  0  0  0
  195.2300  175.0720  139.1650 C   0  0  2  0  0  3  0  0  0  0  0  0
  193.8450  174.7500  138.0410 S   0  0  0  0  0  1  0  0  0  0  0  0
  196.4860  174.3930  138.6450 C   0  0  0  0  0  2  0  0  0  0  0  0
  196.9950  175.1100  137.4780 C   0  0  0  0  0  0  0  0  0  0  0  0
  197.3980  175.6670  136.5470 N   0  0  0  0  0  0  0  0  0  0  0  0
  192.7430  173.9440  142.2200 C   0  0  0  0  0  2  0  0  0  0  0  0
  190.5480  173.2490  141.5970 O   0  0  0  0  0  0  0  0  0  0  0  0
  191.3310  172.9470  140.4720 C   0  0  0  0  0  2  0  0  0  0  0  0
  191.5700  174.1640  141.2710 C   0  0  2  0  0  3  0  0  0  0  0  0
  1  2  1  1  0  0  0
  1  8  1  0  0  0  0
  4 16  1  0  0  0  0
  4  7  2  0  0  0  0
  5 14  1  0  0  0  0
  5  9  2  0  0  0  0
  6 22  1  6  0  0  0
  6 12  1  0  0  0  0
  6 11  1  0  0  0  0
  8 13  1  6  0  0  0
  9 10  1  0  0  0  0
 10  7  1  0  0  0  0
 10  3  2  0  0  0  0
 11  1  1  0  0  0  0
 12 19  1  0  0  0  0
 14  4  1  0  0  0  0
 15 20  1  0  0  0  0
 16 18  1  0  0  0  0
 17 15  1  0  0  0  0
 17 14  1  0  0  0  0
 18 13  1  0  0  0  0
 19  1  1  0  0  0  0
 19  8  1  0  0  0  0
 20 12  1  0  0  0  0
 20 16  1  0  0  0  0
 21 22  1  0  0  0  0
 22 23  1  0  0  0  0
 25 24  1  0  0  0  0
 25 17  1  0  0  0  0
 26 25  1  0  0  0  0
 27 26  1  0  0  0  0
 28 27  1  0  0  0  0
 29 27  1  0  0  0  0
 30 29  1  0  0  0  0
 31 30  3  0  0  0  0
 32 17  1  0  0  0  0
 34 35  1  0  0  0  0
 34 33  1  0  0  0  0
 35 33  1  0  0  0  0
 35 32  1  0  0  0  0
M  END
>  <MODEL>
9

>  <REMARK>
 VINA RESULT:      -5.8      2.851      4.490
  Name = 
  8 active torsions:
  status: ('A' for Active; 'I' for Inactive)
    1  A    between atoms: C_1  and  C_8
    2  A    between atoms: O_2  and  C_11
    3  A    between atoms: O_2  and  C_22
    4  A    between atoms: C_8  and  C_11
    5  A    between atoms: C_12  and  C_16
    6  A    between atoms: C_21  and  C_25
    7  A    between atoms: C_22  and  C_29
    8  A    between atoms: C_25  and  C_29
                            x       y       z     vdW  Elec       q    Type
                         _______ _______ _______ _____ _____    ______ ____

>  <TORSDO>
F 8

$$$$
