=
 OpenBabel11072408533D

 60 66  0  0  1  0  0  0  0  0999 V2000
  191.6260  174.7350  146.4340 C   0  0  2  0  0  3  0  0  0  0  0  0
  193.4130  173.9380  143.7840 C   0  0  2  0  0  3  0  0  0  0  0  0
  193.4870  176.9680  144.8030 C   0  0  0  0  0  2  0  0  0  0  0  0
  191.3170  173.0590  142.2130 N   0  0  0  0  0  1  0  0  0  0  0  0
  189.0740  171.8480  143.7420 N   0  0  0  0  0  2  0  0  0  0  0  0
  190.6270  177.0070  146.5330 C   0  0  0  0  0  3  0  0  0  0  0  0
  194.3490  174.5940  144.8210 C   0  0  2  0  0  3  0  0  0  0  0  0
  193.0280  176.9780  146.2660 C   0  0  2  0  0  3  0  0  0  0  0  0
  192.7130  174.0930  147.0290 O   0  0  0  0  0  1  0  0  0  0  0  0
  192.2690  173.2610  144.4470 N   0  0  1  0  0  0  0  0  0  0  0  0
  194.6770  176.0560  144.5080 C   0  0  1  0  0  3  0  0  0  0  0  0
  190.1040  172.5030  144.1610 C   0  0  0  0  0  0  0  0  0  0  0  0
  191.3110  174.2400  145.0170 C   0  0  1  0  0  3  0  0  0  0  0  0
  189.9970  173.6160  145.0110 N   0  0  0  0  0  2  0  0  0  0  0  0
  191.4290  172.4450  143.5330 C   0  0  1  0  0  3  0  0  0  0  0  0
  194.0210  176.5810  147.1700 O   0  0  0  0  0  1  0  0  0  0  0  0
  191.7330  176.2470  146.4780 C   0  0  0  0  0  0  0  0  0  0  0  0
  195.0720  176.2110  143.1790 O   0  0  0  0  0  0  0  0  0  0  0  0
  196.3900  176.6620  143.2380 C   0  0  0  0  0  1  0  0  0  0  0  0
  196.2430  174.3910  146.2860 O   0  0  0  0  0  1  0  0  0  0  0  0
  195.5910  173.7900  145.2050 C   0  0  0  0  0  2  0  0  0  0  0  0
  189.2480  176.4250  146.6080 C   0  0  0  0  0  2  0  0  0  0  0  0
  188.2220  177.4410  147.1260 C   0  0  0  0  0  2  0  0  0  0  0  0
  186.9730  177.3800  146.4650 O   0  0  0  0  0  0  0  0  0  0  0  0
  184.9040  178.3660  147.0190 C   0  0  2  0  0  3  0  0  0  0  0  0
  186.3450  178.6280  146.6090 C   0  0  2  0  0  0  0  0  0  0  0  0
  185.2060  178.9110  145.6410 C   0  0  1  0  0  3  0  0  0  0  0  0
  185.9010  178.8620  148.0360 C   0  0  0  0  0  2  0  0  0  0  0  0
  184.9480  177.8220  144.6080 C   0  0  0  0  0  2  0  0  0  0  0  0
  184.9830  178.4410  143.2180 C   0  0  1  0  0  3  0  0  0  0  0  0
  185.9910  179.4050  143.1510 O   0  0  0  0  0  1  0  0  0  0  0  0
  185.1880  177.3440  142.1580 C   0  0  0  0  0  2  0  0  0  0  0  0
  186.5070  177.2820  141.6800 O   0  0  0  0  0  0  0  0  0  0  0  0
  187.0220  176.0410  142.0740 C   0  0  1  0  0  3  0  0  0  0  0  0
  189.0200  175.8190  142.5060 C   0  0  2  0  0  3  0  0  0  0  0  0
  188.2120  175.7020  141.2910 N   0  0  0  0  0  0  0  0  0  0  0  0
  187.8210  176.2130  143.3510 C   0  0  0  0  0  2  0  0  0  0  0  0
  190.0090  176.9700  142.3650 C   0  0  2  0  0  3  0  0  0  0  0  0
  191.3080  176.4810  142.5090 O   0  0  0  0  0  1  0  0  0  0  0  0
  189.7500  178.0200  143.4310 C   0  0  0  0  0  1  0  0  0  0  0  0
  188.1420  174.3000  140.8310 C   0  0  0  0  0  2  0  0  0  0  0  0
  189.0110  173.9670  139.6090 C   0  0  2  0  0  3  0  0  0  0  0  0
  188.3040  174.3090  138.3410 C   0  0  0  0  0  2  0  0  0  0  0  0
  189.1600  172.4930  139.4560 C   0  0  0  0  0  2  0  0  0  0  0  0
  189.2860  172.2520  138.0820 O   0  0  0  0  0  0  0  0  0  0  0  0
  188.4750  173.1600  137.4590 N   0  0  0  0  0  2  0  0  0  0  0  0
  194.1800  173.0500  142.7760 C   0  0  0  0  0  2  0  0  0  0  0  0
  194.5020  174.2890  140.4250 C   0  0  0  0  0  0  0  0  0  0  0  0
  194.3720  173.7110  141.4760 C   0  0  0  0  0  0  0  0  0  0  0  0
  194.0040  175.0220  136.6970 C   0  0  1  0  0  3  0  0  0  0  0  0
  197.1900  174.6820  139.6000 C   0  0  0  0  0  1  0  0  0  0  0  0
  194.6410  175.0390  139.1650 C   0  0  2  0  0  3  0  0  0  0  0  0
  195.4850  175.3770  136.4980 C   0  0  1  0  0  3  0  0  0  0  0  0
  196.3000  174.6500  137.3800 O   0  0  0  0  0  0  0  0  0  0  0  0
  193.7660  174.3950  138.0830 C   0  0  1  0  0  3  0  0  0  0  0  0
  195.8580  175.1070  135.1800 O   0  0  0  0  0  1  0  0  0  0  0  0
  192.4120  174.4510  138.4310 O   0  0  0  0  0  1  0  0  0  0  0  0
  196.1110  175.2100  138.6600 C   0  0  2  0  0  3  0  0  0  0  0  0
  192.3760  175.8790  135.4640 C   0  0  0  0  0  1  0  0  0  0  0  0
  193.2270  176.1720  136.5300 O   0  0  0  0  0  0  0  0  0  0  0  0
  1 17  1  0  0  0  0
  1  9  1  6  0  0  0
  2 47  1  1  0  0  0
  2 10  1  0  0  0  0
  2  7  1  0  0  0  0
  3  8  1  0  0  0  0
  4 15  1  0  0  0  0
  5 12  2  0  0  0  0
  6 22  1  0  0  0  0
  7 21  1  6  0  0  0
  8 17  1  0  0  0  0
  8 16  1  1  0  0  0
 10 13  1  0  0  0  0
 11  3  1  0  0  0  0
 11  7  1  0  0  0  0
 12 14  1  0  0  0  0
 13  1  1  0  0  0  0
 14 13  1  0  0  0  0
 15 12  1  0  0  0  0
 15 10  1  0  0  0  0
 17  6  2  0  0  0  0
 18 19  1  0  0  0  0
 18 11  1  0  0  0  0
 21 20  1  0  0  0  0
 22 23  1  0  0  0  0
 24 26  1  0  0  0  0
 24 23  1  0  0  0  0
 25 28  1  0  0  0  0
 26 25  1  0  0  0  0
 26 28  1  0  0  0  0
 27 26  1  0  0  0  0
 27 25  1  0  0  0  0
 29 27  1  0  0  0  0
 30 29  1  0  0  0  0
 31 30  1  0  0  0  0
 32 30  1  0  0  0  0
 33 34  1  0  0  0  0
 33 32  1  0  0  0  0
 34 37  1  0  0  0  0
 35 37  1  0  0  0  0
 36 34  1  0  0  0  0
 36 35  1  0  0  0  0
 38 35  1  0  0  0  0
 38 39  1  0  0  0  0
 38 40  1  0  0  0  0
 41 36  1  0  0  0  0
 42 41  1  0  0  0  0
 43 42  1  0  0  0  0
 44 42  1  0  0  0  0
 45 44  1  0  0  0  0
 46 45  1  0  0  0  0
 46 43  1  0  0  0  0
 48 49  3  0  0  0  0
 49 47  1  0  0  0  0
 50 55  1  0  0  0  0
 52 48  1  0  0  0  0
 53 50  1  0  0  0  0
 53 54  1  0  0  0  0
 54 58  1  0  0  0  0
 55 57  1  0  0  0  0
 55 52  1  0  0  0  0
 56 53  1  0  0  0  0
 58 52  1  0  0  0  0
 58 51  1  0  0  0  0
 59 60  1  0  0  0  0
 60 50  1  0  0  0  0
M  END
>  <MODEL>
1

>  <REMARK>
 VINA RESULT:      -6.9      0.000      0.000
  Name = 
  18 active torsions:
  status: ('A' for Active; 'I' for Inactive)
    1  A    between atoms: C_1  and  O_20
    2  A    between atoms: C_3  and  C_44
    3  A    between atoms: C_6  and  C_14
    4  A    between atoms: C_8  and  C_21
    5  A    between atoms: C_8  and  C_53
    6  A    between atoms: C_9  and  C_51
    7  A    between atoms: O_15  and  C_34
    8  A    between atoms: C_18  and  O_40
    9  A    between atoms: C_19  and  C_36
   10  A    between atoms: C_19  and  C_59
   11  A    between atoms: C_24  and  C_41
   12  A    between atoms: C_26  and  C_39
   13  A    between atoms: C_32  and  O_42
   14  A    between atoms: C_36  and  C_50
   15  A    between atoms: O_40  and  C_59
   16  A    between atoms: O_42  and  C_53
   17  A    between atoms: C_44  and  C_58
   18  A    between atoms: C_51  and  N_52
                            x       y       z     vdW  Elec       q    Type
                         _______ _______ _______ _____ _____    ______ ____

>  <TORSDO>
F 18

$$$$
=
 OpenBabel11072408533D

 60 66  0  0  1  0  0  0  0  0999 V2000
  194.3510  174.7700  141.5590 C   0  0  2  0  0  3  0  0  0  0  0  0
  193.6840  174.3230  144.7540 C   0  0  2  0  0  3  0  0  0  0  0  0
  196.7490  174.5340  143.8630 C   0  0  0  0  0  2  0  0  0  0  0  0
  192.3290  171.9300  144.4860 N   0  0  0  0  0  1  0  0  0  0  0  0
  190.8580  171.6440  141.9190 N   0  0  0  0  0  2  0  0  0  0  0  0
  196.4090  173.7320  140.6350 C   0  0  0  0  0  3  0  0  0  0  0  0
  194.5740  175.5760  144.6150 C   0  0  2  0  0  3  0  0  0  0  0  0
  196.7880  175.2270  142.4950 C   0  0  2  0  0  3  0  0  0  0  0  0
  193.9600  176.0570  141.9330 O   0  0  0  0  0  1  0  0  0  0  0  0
  192.8680  174.1060  143.5320 N   0  0  1  0  0  0  0  0  0  0  0  0
  196.0430  175.3240  144.9640 C   0  0  1  0  0  3  0  0  0  0  0  0
  191.7160  172.5360  142.2880 C   0  0  0  0  0  0  0  0  0  0  0  0
  193.7000  173.6570  142.3900 C   0  0  1  0  0  3  0  0  0  0  0  0
  192.8540  172.8490  141.5260 N   0  0  0  0  0  2  0  0  0  0  0  0
  191.8470  173.0340  143.6620 C   0  0  1  0  0  3  0  0  0  0  0  0
  196.6440  176.6180  142.5650 O   0  0  0  0  0  1  0  0  0  0  0  0
  195.8560  174.6020  141.4960 C   0  0  0  0  0  0  0  0  0  0  0  0
  196.1640  174.6490  146.1800 O   0  0  0  0  0  0  0  0  0  0  0  0
  197.1130  173.6540  145.9530 C   0  0  0  0  0  1  0  0  0  0  0  0
  195.0900  177.7080  145.5960 O   0  0  0  0  0  1  0  0  0  0  0  0
  194.0360  176.8540  145.2590 C   0  0  0  0  0  2  0  0  0  0  0  0
  195.5980  172.9270  139.6650 C   0  0  0  0  0  2  0  0  0  0  0  0
  196.3780  171.7220  139.1230 C   0  0  0  0  0  2  0  0  0  0  0  0
  195.6160  170.5330  139.0540 O   0  0  0  0  0  0  0  0  0  0  0  0
  195.1520  168.6140  140.3450 C   0  0  2  0  0  3  0  0  0  0  0  0
  195.3280  170.1250  140.3670 C   0  0  2  0  0  0  0  0  0  0  0  0
  193.9530  169.5070  140.5810 C   0  0  1  0  0  3  0  0  0  0  0  0
  196.4090  169.2220  140.9160 C   0  0  0  0  0  2  0  0  0  0  0  0
  193.0590  169.4740  139.3480 C   0  0  0  0  0  2  0  0  0  0  0  0
  191.8400  168.6130  139.6460 C   0  0  1  0  0  3  0  0  0  0  0  0
  191.6470  168.5200  141.0260 O   0  0  0  0  0  1  0  0  0  0  0  0
  190.5990  169.1970  138.9470 C   0  0  0  0  0  2  0  0  0  0  0  0
  190.8400  170.4500  138.3600 O   0  0  0  0  0  0  0  0  0  0  0  0
  189.5950  171.0760  138.2200 C   0  0  1  0  0  3  0  0  0  0  0  0
  189.4260  172.8770  137.2420 C   0  0  2  0  0  3  0  0  0  0  0  0
  189.6710  172.4790  138.6290 N   0  0  0  0  0  0  0  0  0  0  0  0
  189.3770  171.4370  136.7630 C   0  0  0  0  0  2  0  0  0  0  0  0
  190.6410  173.6110  136.6890 C   0  0  2  0  0  3  0  0  0  0  0  0
  191.4280  174.0640  137.7480 O   0  0  0  0  0  1  0  0  0  0  0  0
  190.2010  174.8000  135.8520 C   0  0  0  0  0  1  0  0  0  0  0  0
  188.5250  172.8260  139.4940 C   0  0  0  0  0  2  0  0  0  0  0  0
  188.7460  174.0250  140.4280 C   0  0  2  0  0  3  0  0  0  0  0  0
  188.1550  173.7720  141.7730 C   0  0  0  0  0  2  0  0  0  0  0  0
  187.9380  175.1940  139.9830 C   0  0  0  0  0  2  0  0  0  0  0  0
  187.6130  175.9100  141.1430 O   0  0  0  0  0  0  0  0  0  0  0  0
  187.4130  174.9780  142.1240 N   0  0  0  0  0  2  0  0  0  0  0  0
  192.8740  174.3190  146.0710 C   0  0  0  0  0  2  0  0  0  0  0  0
  190.8020  176.0100  145.9760 C   0  0  0  0  0  0  0  0  0  0  0  0
  191.7430  175.2590  146.0410 C   0  0  0  0  0  0  0  0  0  0  0  0
  187.0970  176.9070  145.5830 C   0  0  1  0  0  3  0  0  0  0  0  0
  190.9230  177.8070  143.7810 C   0  0  0  0  0  1  0  0  0  0  0  0
  189.6310  176.8960  145.8580 C   0  0  2  0  0  3  0  0  0  0  0  0
  187.3970  177.9790  144.5260 C   0  0  1  0  0  3  0  0  0  0  0  0
  188.5370  177.6430  143.7760 O   0  0  0  0  0  0  0  0  0  0  0  0
  188.3460  176.0580  145.8830 C   0  0  1  0  0  3  0  0  0  0  0  0
  186.2990  178.1200  143.6760 O   0  0  0  0  0  1  0  0  0  0  0  0
  188.2110  175.3800  147.0980 O   0  0  0  0  0  1  0  0  0  0  0  0
  189.6480  177.8490  144.6190 C   0  0  2  0  0  3  0  0  0  0  0  0
  185.2550  177.2490  146.7650 C   0  0  0  0  0  1  0  0  0  0  0  0
  186.6230  177.5240  146.7450 O   0  0  0  0  0  0  0  0  0  0  0  0
  1  9  1  1  0  0  0
  1 13  1  0  0  0  0
  2 47  1  1  0  0  0
  3 11  1  0  0  0  0
  5 12  2  0  0  0  0
  6 17  2  0  0  0  0
  7  2  1  0  0  0  0
  7 11  1  0  0  0  0
  7 21  1  1  0  0  0
  8 16  1  1  0  0  0
  8  3  1  0  0  0  0
 10 15  1  0  0  0  0
 10  2  1  0  0  0  0
 11 18  1  0  0  0  0
 12 15  1  0  0  0  0
 13 10  1  0  0  0  0
 14 12  1  0  0  0  0
 14 13  1  0  0  0  0
 15  4  1  0  0  0  0
 17  1  1  0  0  0  0
 17  8  1  0  0  0  0
 19 18  1  0  0  0  0
 21 20  1  0  0  0  0
 22  6  1  0  0  0  0
 23 22  1  0  0  0  0
 24 23  1  0  0  0  0
 24 26  1  0  0  0  0
 25 26  1  0  0  0  0
 25 27  1  0  0  0  0
 25 28  1  0  0  0  0
 26 27  1  0  0  0  0
 26 28  1  0  0  0  0
 29 30  1  0  0  0  0
 29 27  1  0  0  0  0
 30 31  1  0  0  0  0
 32 30  1  0  0  0  0
 33 32  1  0  0  0  0
 34 33  1  0  0  0  0
 34 36  1  0  0  0  0
 35 36  1  0  0  0  0
 36 41  1  0  0  0  0
 37 35  1  0  0  0  0
 37 34  1  0  0  0  0
 38 35  1  0  0  0  0
 38 39  1  0  0  0  0
 40 38  1  0  0  0  0
 41 42  1  0  0  0  0
 42 43  1  0  0  0  0
 43 46  1  0  0  0  0
 44 42  1  0  0  0  0
 44 45  1  0  0  0  0
 45 46  1  0  0  0  0
 48 49  3  0  0  0  0
 49 47  1  0  0  0  0
 50 55  1  0  0  0  0
 50 60  1  0  0  0  0
 51 58  1  0  0  0  0
 52 55  1  0  0  0  0
 52 48  1  0  0  0  0
 53 50  1  0  0  0  0
 54 53  1  0  0  0  0
 54 58  1  0  0  0  0
 55 57  1  0  0  0  0
 56 53  1  0  0  0  0
 58 52  1  0  0  0  0
 60 59  1  0  0  0  0
M  END
>  <MODEL>
2

>  <REMARK>
 VINA RESULT:      -6.3      2.355      8.295
  Name = 
  18 active torsions:
  status: ('A' for Active; 'I' for Inactive)
    1  A    between atoms: C_1  and  O_20
    2  A    between atoms: C_3  and  C_44
    3  A    between atoms: C_6  and  C_14
    4  A    between atoms: C_8  and  C_21
    5  A    between atoms: C_8  and  C_53
    6  A    between atoms: C_9  and  C_51
    7  A    between atoms: O_15  and  C_34
    8  A    between atoms: C_18  and  O_40
    9  A    between atoms: C_19  and  C_36
   10  A    between atoms: C_19  and  C_59
   11  A    between atoms: C_24  and  C_41
   12  A    between atoms: C_26  and  C_39
   13  A    between atoms: C_32  and  O_42
   14  A    between atoms: C_36  and  C_50
   15  A    between atoms: O_40  and  C_59
   16  A    between atoms: O_42  and  C_53
   17  A    between atoms: C_44  and  C_58
   18  A    between atoms: C_51  and  N_52
                            x       y       z     vdW  Elec       q    Type
                         _______ _______ _______ _____ _____    ______ ____

>  <TORSDO>
F 18

$$$$
=
 OpenBabel11072408533D

 60 66  0  0  1  0  0  0  0  0999 V2000
  193.1100  175.0090  143.4340 C   0  0  2  0  0  3  0  0  0  0  0  0
  190.5670  175.1530  145.5230 C   0  0  2  0  0  3  0  0  0  0  0  0
  193.5040  175.6750  146.6760 C   0  0  0  0  0  2  0  0  0  0  0  0
  189.6710  172.5670  145.1450 N   0  0  0  0  0  1  0  0  0  0  0  0
  190.1570  171.4970  142.4150 N   0  0  0  0  0  2  0  0  0  0  0  0
  195.2800  174.1540  144.2870 C   0  0  0  0  0  3  0  0  0  0  0  0
  191.3530  176.4770  145.6240 C   0  0  2  0  0  3  0  0  0  0  0  0
  194.4060  176.0540  145.4960 C   0  0  2  0  0  3  0  0  0  0  0  0
  192.5800  176.2620  143.1230 O   0  0  0  0  0  1  0  0  0  0  0  0
  190.7070  174.5460  144.1740 N   0  0  1  0  0  0  0  0  0  0  0  0
  192.2660  176.5540  146.8490 C   0  0  1  0  0  3  0  0  0  0  0  0
  190.5930  172.5770  142.9710 C   0  0  0  0  0  0  0  0  0  0  0  0
  192.0720  174.0080  143.9560 C   0  0  1  0  0  3  0  0  0  0  0  0
  191.9580  172.9040  143.0160 N   0  0  0  0  0  2  0  0  0  0  0  0
  189.8280  173.3730  143.9380 C   0  0  1  0  0  3  0  0  0  0  0  0
  194.2610  177.3850  145.0830 O   0  0  0  0  0  1  0  0  0  0  0  0
  194.3140  175.0840  144.3530 C   0  0  0  0  0  0  0  0  0  0  0  0
  191.5850  176.1860  148.0110 O   0  0  0  0  0  0  0  0  0  0  0  0
  191.5390  177.3400  148.7900 C   0  0  0  0  0  1  0  0  0  0  0  0
  190.8910  178.3740  144.2230 O   0  0  0  0  0  1  0  0  0  0  0  0
  190.5390  177.7560  145.4260 C   0  0  0  0  0  2  0  0  0  0  0  0
  195.2610  173.0360  143.2890 C   0  0  0  0  0  2  0  0  0  0  0  0
  196.6360  172.3700  143.1430 C   0  0  0  0  0  2  0  0  0  0  0  0
  196.6140  170.9690  143.3280 O   0  0  0  0  0  0  0  0  0  0  0  0
  196.5210  169.3200  145.0120 C   0  0  2  0  0  3  0  0  0  0  0  0
  196.0560  170.7060  144.5900 C   0  0  2  0  0  0  0  0  0  0  0  0
  195.0700  169.5480  144.6490 C   0  0  1  0  0  3  0  0  0  0  0  0
  197.1270  170.5480  145.6470 C   0  0  0  0  0  2  0  0  0  0  0  0
  194.7810  168.8750  143.3140 C   0  0  0  0  0  2  0  0  0  0  0  0
  193.2750  168.8350  143.0970 C   0  0  1  0  0  3  0  0  0  0  0  0
  192.6320  169.6010  144.0710 O   0  0  0  0  0  1  0  0  0  0  0  0
  192.9330  169.3310  141.6810 C   0  0  0  0  0  2  0  0  0  0  0  0
  193.5390  170.5590  141.3690 O   0  0  0  0  0  0  0  0  0  0  0  0
  193.3070  170.7900  140.0080 C   0  0  1  0  0  3  0  0  0  0  0  0
  193.8670  172.5620  139.1290 C   0  0  2  0  0  3  0  0  0  0  0  0
  192.6590  172.0870  139.8050 N   0  0  0  0  0  0  0  0  0  0  0  0
  194.5940  171.2470  139.3500 C   0  0  0  0  0  2  0  0  0  0  0  0
  194.5000  173.6940  139.9290 C   0  0  2  0  0  3  0  0  0  0  0  0
  193.6030  174.7600  140.0090 O   0  0  0  0  0  1  0  0  0  0  0  0
  195.7770  174.1660  139.2540 C   0  0  0  0  0  1  0  0  0  0  0  0
  191.5340  171.9580  138.8570 C   0  0  0  0  0  2  0  0  0  0  0  0
  190.4880  173.0810  138.9220 C   0  0  2  0  0  3  0  0  0  0  0  0
  189.1210  172.5270  139.1340 C   0  0  0  0  0  2  0  0  0  0  0  0
  190.3250  173.7260  137.5900 C   0  0  0  0  0  2  0  0  0  0  0  0
  188.9920  174.1540  137.5220 O   0  0  0  0  0  0  0  0  0  0  0  0
  188.2540  173.2080  138.1800 N   0  0  0  0  0  2  0  0  0  0  0  0
  189.1050  175.2970  146.0080 C   0  0  0  0  0  2  0  0  0  0  0  0
  187.6270  176.8940  144.4500 C   0  0  0  0  0  0  0  0  0  0  0  0
  188.3130  176.1920  145.1510 C   0  0  0  0  0  0  0  0  0  0  0  0
  184.3800  177.8980  142.6800 C   0  0  1  0  0  3  0  0  0  0  0  0
  188.5590  177.2300  141.7890 C   0  0  0  0  0  1  0  0  0  0  0  0
  186.7480  177.7210  143.6050 C   0  0  2  0  0  3  0  0  0  0  0  0
  185.1100  178.2030  141.3640 C   0  0  1  0  0  3  0  0  0  0  0  0
  186.2420  177.3850  141.2140 O   0  0  0  0  0  0  0  0  0  0  0  0
  185.3120  177.1890  143.6800 C   0  0  1  0  0  3  0  0  0  0  0  0
  184.2410  178.0080  140.2890 O   0  0  0  0  0  1  0  0  0  0  0  0
  184.8090  177.2770  144.9820 O   0  0  0  0  0  1  0  0  0  0  0  0
  187.2100  177.8650  142.1190 C   0  0  2  0  0  3  0  0  0  0  0  0
  182.5260  179.0890  142.8970 C   0  0  0  0  0  1  0  0  0  0  0  0
  183.8830  179.0880  143.2190 O   0  0  0  0  0  0  0  0  0  0  0  0
  1  9  1  1  0  0  0
  1 13  1  0  0  0  0
  1 17  1  0  0  0  0
  2  7  1  0  0  0  0
  2 47  1  6  0  0  0
  3 11  1  0  0  0  0
  5 12  2  0  0  0  0
  6 17  2  0  0  0  0
  7 21  1  1  0  0  0
  7 11  1  0  0  0  0
  8 16  1  6  0  0  0
  8  3  1  0  0  0  0
 10  2  1  0  0  0  0
 11 18  1  0  0  0  0
 12 14  1  0  0  0  0
 12 15  1  0  0  0  0
 13 10  1  0  0  0  0
 14 13  1  0  0  0  0
 15 10  1  0  0  0  0
 15  4  1  0  0  0  0
 17  8  1  0  0  0  0
 18 19  1  0  0  0  0
 20 21  1  0  0  0  0
 22  6  1  0  0  0  0
 23 22  1  0  0  0  0
 23 24  1  0  0  0  0
 24 26  1  0  0  0  0
 25 28  1  0  0  0  0
 26 27  1  0  0  0  0
 26 25  1  0  0  0  0
 26 28  1  0  0  0  0
 27 25  1  0  0  0  0
 29 27  1  0  0  0  0
 30 29  1  0  0  0  0
 30 31  1  0  0  0  0
 32 30  1  0  0  0  0
 33 32  1  0  0  0  0
 34 33  1  0  0  0  0
 35 37  1  0  0  0  0
 35 36  1  0  0  0  0
 35 38  1  0  0  0  0
 36 34  1  0  0  0  0
 37 34  1  0  0  0  0
 38 39  1  0  0  0  0
 40 38  1  0  0  0  0
 41 42  1  0  0  0  0
 41 36  1  0  0  0  0
 42 43  1  0  0  0  0
 44 42  1  0  0  0  0
 45 44  1  0  0  0  0
 45 46  1  0  0  0  0
 46 43  1  0  0  0  0
 48 49  3  0  0  0  0
 49 47  1  0  0  0  0
 50 60  1  0  0  0  0
 50 55  1  0  0  0  0
 51 58  1  0  0  0  0
 52 55  1  0  0  0  0
 52 48  1  0  0  0  0
 53 50  1  0  0  0  0
 54 53  1  0  0  0  0
 54 58  1  0  0  0  0
 55 57  1  0  0  0  0
 56 53  1  0  0  0  0
 58 52  1  0  0  0  0
 59 60  1  0  0  0  0
M  END
>  <MODEL>
3

>  <REMARK>
 VINA RESULT:      -6.1      2.405      8.224
  Name = 
  18 active torsions:
  status: ('A' for Active; 'I' for Inactive)
    1  A    between atoms: C_1  and  O_20
    2  A    between atoms: C_3  and  C_44
    3  A    between atoms: C_6  and  C_14
    4  A    between atoms: C_8  and  C_21
    5  A    between atoms: C_8  and  C_53
    6  A    between atoms: C_9  and  C_51
    7  A    between atoms: O_15  and  C_34
    8  A    between atoms: C_18  and  O_40
    9  A    between atoms: C_19  and  C_36
   10  A    between atoms: C_19  and  C_59
   11  A    between atoms: C_24  and  C_41
   12  A    between atoms: C_26  and  C_39
   13  A    between atoms: C_32  and  O_42
   14  A    between atoms: C_36  and  C_50
   15  A    between atoms: O_40  and  C_59
   16  A    between atoms: O_42  and  C_53
   17  A    between atoms: C_44  and  C_58
   18  A    between atoms: C_51  and  N_52
                            x       y       z     vdW  Elec       q    Type
                         _______ _______ _______ _____ _____    ______ ____

>  <TORSDO>
F 18

$$$$
=
 OpenBabel11072408533D

 60 66  0  0  1  0  0  0  0  0999 V2000
  194.0490  174.5020  141.4990 C   0  0  2  0  0  3  0  0  0  0  0  0
  193.3250  174.3250  144.7070 C   0  0  2  0  0  3  0  0  0  0  0  0
  196.4000  174.1810  143.8400 C   0  0  0  0  0  2  0  0  0  0  0  0
  191.7440  172.0630  144.5750 N   0  0  0  0  0  1  0  0  0  0  0  0
  190.2670  171.7580  142.0140 N   0  0  0  0  0  2  0  0  0  0  0  0
  196.0010  173.2120  140.6660 C   0  0  0  0  0  3  0  0  0  0  0  0
  194.3330  175.4750  144.5010 C   0  0  2  0  0  3  0  0  0  0  0  0
  196.5140  174.7780  142.4320 C   0  0  2  0  0  3  0  0  0  0  0  0
  193.7830  175.8410  141.7860 O   0  0  0  0  0  1  0  0  0  0  0  0
  192.4970  174.1110  143.4930 N   0  0  1  0  0  0  0  0  0  0  0  0
  195.7680  175.1050  144.8820 C   0  0  1  0  0  3  0  0  0  0  0  0
  191.2050  172.5840  142.3360 C   0  0  0  0  0  0  0  0  0  0  0  0
  193.2880  173.5120  142.3910 C   0  0  1  0  0  3  0  0  0  0  0  0
  192.3720  172.7370  141.5690 N   0  0  0  0  0  2  0  0  0  0  0  0
  191.3770  173.1540  143.6770 C   0  0  1  0  0  3  0  0  0  0  0  0
  196.5060  176.1780  142.4130 O   0  0  0  0  0  1  0  0  0  0  0  0
  195.5310  174.1850  141.4630 C   0  0  0  0  0  0  0  0  0  0  0  0
  195.8170  174.5000  146.1390 O   0  0  0  0  0  0  0  0  0  0  0  0
  196.8610  173.5800  146.0630 C   0  0  0  0  0  1  0  0  0  0  0  0
  195.0480  177.6200  145.3130 O   0  0  0  0  0  1  0  0  0  0  0  0
  193.9180  176.8380  145.0560 C   0  0  0  0  0  2  0  0  0  0  0  0
  195.1210  172.4290  139.7390 C   0  0  0  0  0  2  0  0  0  0  0  0
  195.6190  172.4830  138.2890 C   0  0  0  0  0  2  0  0  0  0  0  0
  195.1450  173.5990  137.5630 O   0  0  0  0  0  0  0  0  0  0  0  0
  196.0550  175.6140  136.7400 C   0  0  2  0  0  3  0  0  0  0  0  0
  196.2100  174.1010  136.7950 C   0  0  2  0  0  0  0  0  0  0  0  0
  195.8210  174.7880  135.4940 C   0  0  1  0  0  3  0  0  0  0  0  0
  197.1130  174.9930  137.6190 C   0  0  0  0  0  2  0  0  0  0  0  0
  194.3310  174.7790  135.1770 C   0  0  0  0  0  2  0  0  0  0  0  0
  193.7430  176.1370  135.5330 C   0  0  1  0  0  3  0  0  0  0  0  0
  194.0070  177.0530  134.5130 O   0  0  0  0  0  1  0  0  0  0  0  0
  192.2310  176.0050  135.7880 C   0  0  0  0  0  2  0  0  0  0  0  0
  191.9070  174.9230  136.6210 O   0  0  0  0  0  0  0  0  0  0  0  0
  191.0650  174.0820  135.8840 C   0  0  1  0  0  3  0  0  0  0  0  0
  189.1740  173.6340  136.5540 C   0  0  2  0  0  3  0  0  0  0  0  0
  190.4970  173.0380  136.7390 N   0  0  0  0  0  0  0  0  0  0  0  0
  189.7220  174.7600  135.6940 C   0  0  0  0  0  2  0  0  0  0  0  0
  188.6460  174.1530  137.8860 C   0  0  2  0  0  3  0  0  0  0  0  0
  188.2140  173.0760  138.6610 O   0  0  0  0  0  1  0  0  0  0  0  0
  187.4820  175.1020  137.6580 C   0  0  0  0  0  1  0  0  0  0  0  0
  190.5870  171.7220  136.0720 C   0  0  0  0  0  2  0  0  0  0  0  0
  191.0500  170.5640  136.9670 C   0  0  2  0  0  3  0  0  0  0  0  0
  189.8870  169.8790  137.6000 C   0  0  0  0  0  2  0  0  0  0  0  0
  191.7580  171.0800  138.1710 C   0  0  0  0  0  2  0  0  0  0  0  0
  191.5090  170.1600  139.1980 O   0  0  0  0  0  0  0  0  0  0  0  0
  190.2300  169.7140  139.0080 N   0  0  0  0  0  2  0  0  0  0  0  0
  192.5100  174.4840  146.0130 C   0  0  0  0  0  2  0  0  0  0  0  0
  190.4140  176.1170  145.6880 C   0  0  0  0  0  0  0  0  0  0  0  0
  191.3430  175.3630  145.8460 C   0  0  0  0  0  0  0  0  0  0  0  0
  186.7800  177.2330  145.2140 C   0  0  1  0  0  3  0  0  0  0  0  0
  190.6240  177.5830  143.2660 C   0  0  0  0  0  1  0  0  0  0  0  0
  189.3100  177.0650  145.4620 C   0  0  2  0  0  3  0  0  0  0  0  0
  187.1370  178.1260  144.0160 C   0  0  1  0  0  3  0  0  0  0  0  0
  188.2330  177.6040  143.3090 O   0  0  0  0  0  0  0  0  0  0  0  0
  187.9680  176.3400  145.6150 C   0  0  1  0  0  3  0  0  0  0  0  0
  186.0350  178.2330  143.1660 O   0  0  0  0  0  1  0  0  0  0  0  0
  187.8070  175.8460  146.9130 O   0  0  0  0  0  1  0  0  0  0  0  0
  189.3740  177.8360  144.1040 C   0  0  2  0  0  3  0  0  0  0  0  0
  185.0720  177.6330  146.5660 C   0  0  0  0  0  1  0  0  0  0  0  0
  186.3770  178.0370  146.2850 O   0  0  0  0  0  0  0  0  0  0  0  0
  1  9  1  1  0  0  0
  1 13  1  0  0  0  0
  2 47  1  1  0  0  0
  3 11  1  0  0  0  0
  5 12  2  0  0  0  0
  6 17  2  0  0  0  0
  7  2  1  0  0  0  0
  7 11  1  0  0  0  0
  7 21  1  1  0  0  0
  8 16  1  1  0  0  0
  8  3  1  0  0  0  0
 10 15  1  0  0  0  0
 10  2  1  0  0  0  0
 11 18  1  0  0  0  0
 12 15  1  0  0  0  0
 13 10  1  0  0  0  0
 14 12  1  0  0  0  0
 14 13  1  0  0  0  0
 15  4  1  0  0  0  0
 17  1  1  0  0  0  0
 17  8  1  0  0  0  0
 19 18  1  0  0  0  0
 21 20  1  0  0  0  0
 22  6  1  0  0  0  0
 23 22  1  0  0  0  0
 24 23  1  0  0  0  0
 25 26  1  0  0  0  0
 25 28  1  0  0  0  0
 26 24  1  0  0  0  0
 26 28  1  0  0  0  0
 27 25  1  0  0  0  0
 27 26  1  0  0  0  0
 29 27  1  0  0  0  0
 29 30  1  0  0  0  0
 30 32  1  0  0  0  0
 31 30  1  0  0  0  0
 32 33  1  0  0  0  0
 34 33  1  0  0  0  0
 34 36  1  0  0  0  0
 35 36  1  0  0  0  0
 35 38  1  0  0  0  0
 37 34  1  0  0  0  0
 37 35  1  0  0  0  0
 38 39  1  0  0  0  0
 40 38  1  0  0  0  0
 41 36  1  0  0  0  0
 41 42  1  0  0  0  0
 42 43  1  0  0  0  0
 42 44  1  0  0  0  0
 43 46  1  0  0  0  0
 44 45  1  0  0  0  0
 46 45  1  0  0  0  0
 48 49  3  0  0  0  0
 49 47  1  0  0  0  0
 50 55  1  0  0  0  0
 50 60  1  0  0  0  0
 51 58  1  0  0  0  0
 52 55  1  0  0  0  0
 52 48  1  0  0  0  0
 53 50  1  0  0  0  0
 54 53  1  0  0  0  0
 54 58  1  0  0  0  0
 55 57  1  0  0  0  0
 56 53  1  0  0  0  0
 58 52  1  0  0  0  0
 60 59  1  0  0  0  0
M  END
>  <MODEL>
4

>  <REMARK>
 VINA RESULT:      -6.1      1.866      8.305
  Name = 
  18 active torsions:
  status: ('A' for Active; 'I' for Inactive)
    1  A    between atoms: C_1  and  O_20
    2  A    between atoms: C_3  and  C_44
    3  A    between atoms: C_6  and  C_14
    4  A    between atoms: C_8  and  C_21
    5  A    between atoms: C_8  and  C_53
    6  A    between atoms: C_9  and  C_51
    7  A    between atoms: O_15  and  C_34
    8  A    between atoms: C_18  and  O_40
    9  A    between atoms: C_19  and  C_36
   10  A    between atoms: C_19  and  C_59
   11  A    between atoms: C_24  and  C_41
   12  A    between atoms: C_26  and  C_39
   13  A    between atoms: C_32  and  O_42
   14  A    between atoms: C_36  and  C_50
   15  A    between atoms: O_40  and  C_59
   16  A    between atoms: O_42  and  C_53
   17  A    between atoms: C_44  and  C_58
   18  A    between atoms: C_51  and  N_52
                            x       y       z     vdW  Elec       q    Type
                         _______ _______ _______ _____ _____    ______ ____

>  <TORSDO>
F 18

$$$$
=
 OpenBabel11072408533D

 60 66  0  0  1  0  0  0  0  0999 V2000
  195.9040  172.9760  143.8040 C   0  0  2  0  0  3  0  0  0  0  0  0
  193.5900  175.3150  143.9450 C   0  0  2  0  0  3  0  0  0  0  0  0
  192.6800  172.2660  144.2620 C   0  0  0  0  0  2  0  0  0  0  0  0
  194.0230  176.3750  141.4300 N   0  0  0  0  0  1  0  0  0  0  0  0
  196.8380  176.1850  140.4980 N   0  0  0  0  0  2  0  0  0  0  0  0
  195.2970  170.7870  142.8000 C   0  0  0  0  0  3  0  0  0  0  0  0
  193.4890  174.4570  145.2230 C   0  0  2  0  0  3  0  0  0  0  0  0
  193.9150  171.4520  144.6660 C   0  0  2  0  0  3  0  0  0  0  0  0
  196.0980  173.4650  145.0960 O   0  0  0  0  0  1  0  0  0  0  0  0
  194.9760  175.3250  143.4120 N   0  0  1  0  0  0  0  0  0  0  0  0
  192.3490  173.4370  145.1860 C   0  0  1  0  0  3  0  0  0  0  0  0
  196.2670  175.6460  141.5220 C   0  0  0  0  0  0  0  0  0  0  0  0
  195.3450  174.0150  142.8240 C   0  0  1  0  0  3  0  0  0  0  0  0
  196.3280  174.2680  141.7830 N   0  0  0  0  0  2  0  0  0  0  0  0
  195.1940  176.2820  142.2960 C   0  0  1  0  0  3  0  0  0  0  0  0
  194.2420  171.5630  146.0230 O   0  0  0  0  0  1  0  0  0  0  0  0
  195.0950  171.6940  143.7690 C   0  0  0  0  0  0  0  0  0  0  0  0
  191.1520  174.0320  144.7840 O   0  0  0  0  0  0  0  0  0  0  0  0
  190.2660  172.9750  144.5860 C   0  0  0  0  0  1  0  0  0  0  0  0
  192.3440  175.0610  147.2480 O   0  0  0  0  0  1  0  0  0  0  0  0
  193.5440  175.2180  146.5480 C   0  0  0  0  0  2  0  0  0  0  0  0
  196.3480  170.9510  141.7440 C   0  0  0  0  0  2  0  0  0  0  0  0
  195.8190  170.6050  140.3460 C   0  0  0  0  0  2  0  0  0  0  0  0
  195.3240  171.7200  139.6300 O   0  0  0  0  0  0  0  0  0  0  0  0
  195.8170  173.2300  137.8870 C   0  0  2  0  0  3  0  0  0  0  0  0
  196.0640  171.8350  138.4410 C   0  0  2  0  0  0  0  0  0  0  0  0
  195.2480  172.0250  137.1700 C   0  0  1  0  0  3  0  0  0  0  0  0
  197.1300  172.9020  138.5540 C   0  0  0  0  0  2  0  0  0  0  0  0
  193.7370  172.0010  137.3610 C   0  0  0  0  0  2  0  0  0  0  0  0
  193.1930  173.4090  137.1640 C   0  0  1  0  0  3  0  0  0  0  0  0
  192.7130  173.5580  135.8620 O   0  0  0  0  0  1  0  0  0  0  0  0
  192.0930  173.6990  138.2010 C   0  0  0  0  0  2  0  0  0  0  0  0
  190.8900  174.1290  137.6190 O   0  0  0  0  0  0  0  0  0  0  0  0
  189.9620  173.0960  137.7980 C   0  0  1  0  0  3  0  0  0  0  0  0
  188.8180  172.9910  139.5040 C   0  0  2  0  0  3  0  0  0  0  0  0
  190.1290  172.4710  139.1120 N   0  0  0  0  0  0  0  0  0  0  0  0
  188.6170  173.6890  138.1700 C   0  0  0  0  0  2  0  0  0  0  0  0
  188.9750  173.9920  140.6430 C   0  0  2  0  0  3  0  0  0  0  0  0
  190.2540  173.8740  141.1870 O   0  0  0  0  0  1  0  0  0  0  0  0
  187.9460  173.7210  141.7270 C   0  0  0  0  0  1  0  0  0  0  0  0
  190.1030  170.9990  138.9890 C   0  0  0  0  0  2  0  0  0  0  0  0
  190.5510  170.2280  140.2390 C   0  0  2  0  0  3  0  0  0  0  0  0
  191.9300  170.6210  140.6450 C   0  0  0  0  0  2  0  0  0  0  0  0
  190.7520  168.7870  139.9240 C   0  0  0  0  0  2  0  0  0  0  0  0
  191.7670  168.3360  140.7770 O   0  0  0  0  0  0  0  0  0  0  0  0
  192.6450  169.3770  140.9090 N   0  0  0  0  0  2  0  0  0  0  0  0
  192.9680  176.7200  144.1290 C   0  0  0  0  0  2  0  0  0  0  0  0
  190.3140  176.6810  143.7830 C   0  0  0  0  0  0  0  0  0  0  0  0
  191.5070  176.7170  143.9580 C   0  0  0  0  0  0  0  0  0  0  0  0
  186.8500  177.9070  142.6970 C   0  0  1  0  0  3  0  0  0  0  0  0
  188.7870  176.0650  146.0960 C   0  0  0  0  0  1  0  0  0  0  0  0
  188.8640  176.5920  143.5400 C   0  0  2  0  0  3  0  0  0  0  0  0
  186.1760  177.3320  143.9520 C   0  0  1  0  0  3  0  0  0  0  0  0
  187.0580  177.3410  145.0460 O   0  0  0  0  0  0  0  0  0  0  0  0
  188.3840  177.8580  142.8190 C   0  0  1  0  0  3  0  0  0  0  0  0
  185.0380  178.0800  144.2580 O   0  0  0  0  0  1  0  0  0  0  0  0
  188.9890  177.9830  141.5650 O   0  0  0  0  0  1  0  0  0  0  0  0
  187.9990  176.3180  144.8140 C   0  0  2  0  0  3  0  0  0  0  0  0
  185.6500  178.1090  140.8470 C   0  0  0  0  0  1  0  0  0  0  0  0
  186.4150  177.1970  141.5740 O   0  0  0  0  0  0  0  0  0  0  0  0
  1  9  1  1  0  0  0
  2 47  1  1  0  0  0
  2  7  1  0  0  0  0
  3  8  1  0  0  0  0
  3 11  1  0  0  0  0
  4 15  1  0  0  0  0
  5 12  2  0  0  0  0
  6 17  2  0  0  0  0
  7 21  1  1  0  0  0
  8 16  1  1  0  0  0
 10  2  1  0  0  0  0
 11  7  1  0  0  0  0
 12 14  1  0  0  0  0
 12 15  1  0  0  0  0
 13 10  1  0  0  0  0
 13  1  1  0  0  0  0
 14 13  1  0  0  0  0
 15 10  1  0  0  0  0
 17  1  1  0  0  0  0
 17  8  1  0  0  0  0
 18 11  1  0  0  0  0
 19 18  1  0  0  0  0
 21 20  1  0  0  0  0
 22  6  1  0  0  0  0
 23 22  1  0  0  0  0
 24 23  1  0  0  0  0
 25 26  1  0  0  0  0
 25 28  1  0  0  0  0
 26 28  1  0  0  0  0
 26 24  1  0  0  0  0
 27 29  1  0  0  0  0
 27 25  1  0  0  0  0
 27 26  1  0  0  0  0
 30 29  1  0  0  0  0
 30 32  1  0  0  0  0
 31 30  1  0  0  0  0
 33 34  1  0  0  0  0
 33 32  1  0  0  0  0
 34 37  1  0  0  0  0
 34 36  1  0  0  0  0
 35 38  1  0  0  0  0
 36 35  1  0  0  0  0
 37 35  1  0  0  0  0
 38 39  1  0  0  0  0
 38 40  1  0  0  0  0
 41 36  1  0  0  0  0
 41 42  1  0  0  0  0
 42 43  1  0  0  0  0
 43 46  1  0  0  0  0
 44 42  1  0  0  0  0
 44 45  1  0  0  0  0
 45 46  1  0  0  0  0
 48 49  3  0  0  0  0
 49 47  1  0  0  0  0
 50 55  1  0  0  0  0
 50 53  1  0  0  0  0
 52 48  1  0  0  0  0
 52 58  1  0  0  0  0
 53 56  1  0  0  0  0
 53 54  1  0  0  0  0
 55 52  1  0  0  0  0
 57 55  1  0  0  0  0
 58 54  1  0  0  0  0
 58 51  1  0  0  0  0
 59 60  1  0  0  0  0
 60 50  1  0  0  0  0
M  END
>  <MODEL>
5

>  <REMARK>
 VINA RESULT:      -6.0      2.545      8.167
  Name = 
  18 active torsions:
  status: ('A' for Active; 'I' for Inactive)
    1  A    between atoms: C_1  and  O_20
    2  A    between atoms: C_3  and  C_44
    3  A    between atoms: C_6  and  C_14
    4  A    between atoms: C_8  and  C_21
    5  A    between atoms: C_8  and  C_53
    6  A    between atoms: C_9  and  C_51
    7  A    between atoms: O_15  and  C_34
    8  A    between atoms: C_18  and  O_40
    9  A    between atoms: C_19  and  C_36
   10  A    between atoms: C_19  and  C_59
   11  A    between atoms: C_24  and  C_41
   12  A    between atoms: C_26  and  C_39
   13  A    between atoms: C_32  and  O_42
   14  A    between atoms: C_36  and  C_50
   15  A    between atoms: O_40  and  C_59
   16  A    between atoms: O_42  and  C_53
   17  A    between atoms: C_44  and  C_58
   18  A    between atoms: C_51  and  N_52
                            x       y       z     vdW  Elec       q    Type
                         _______ _______ _______ _____ _____    ______ ____

>  <TORSDO>
F 18

$$$$
=
 OpenBabel11072408533D

 60 66  0  0  1  0  0  0  0  0999 V2000
  192.2190  174.7320  145.7210 C   0  0  2  0  0  3  0  0  0  0  0  0
  194.4580  173.6510  143.5610 C   0  0  2  0  0  3  0  0  0  0  0  0
  193.8700  176.7920  143.6860 C   0  0  0  0  0  2  0  0  0  0  0  0
  192.7770  171.9860  142.1340 N   0  0  0  0  0  1  0  0  0  0  0  0
  190.5910  170.7860  143.7510 N   0  0  0  0  0  2  0  0  0  0  0  0
  190.8390  176.6990  145.0920 C   0  0  0  0  0  3  0  0  0  0  0  0
  195.1180  174.7310  144.4430 C   0  0  2  0  0  3  0  0  0  0  0  0
  193.2220  177.0900  145.0430 C   0  0  2  0  0  3  0  0  0  0  0  0
  193.3100  174.5020  146.5600 O   0  0  0  0  0  1  0  0  0  0  0  0
  193.3690  172.9530  144.2900 N   0  0  1  0  0  0  0  0  0  0  0  0
  195.2280  176.0960  143.7590 C   0  0  1  0  0  3  0  0  0  0  0  0
  191.4270  171.7230  144.0530 C   0  0  0  0  0  0  0  0  0  0  0  0
  192.1880  173.8310  144.4800 C   0  0  1  0  0  3  0  0  0  0  0  0
  191.0150  172.9730  144.5420 N   0  0  0  0  0  2  0  0  0  0  0  0
  192.8140  171.7730  143.5770 C   0  0  1  0  0  3  0  0  0  0  0  0
  194.1380  177.1530  146.1010 O   0  0  0  0  0  1  0  0  0  0  0  0
  192.0560  176.1920  145.3450 C   0  0  0  0  0  0  0  0  0  0  0  0
  195.7660  175.9760  142.4770 O   0  0  0  0  0  0  0  0  0  0  0  0
  196.9960  176.6290  142.5340 C   0  0  0  0  0  1  0  0  0  0  0  0
  196.2470  174.3380  146.5270 O   0  0  0  0  0  1  0  0  0  0  0  0
  196.4170  174.3250  145.1400 C   0  0  0  0  0  2  0  0  0  0  0  0
  189.5830  175.8890  145.2140 C   0  0  0  0  0  2  0  0  0  0  0  0
  188.7260  176.3310  146.4070 C   0  0  0  0  0  2  0  0  0  0  0  0
  187.4470  176.8110  146.0460 O   0  0  0  0  0  0  0  0  0  0  0  0
  186.3860  177.8910  147.8540 C   0  0  2  0  0  3  0  0  0  0  0  0
  187.2760  178.0760  146.6340 C   0  0  2  0  0  0  0  0  0  0  0  0
  185.8530  178.6170  146.6380 C   0  0  1  0  0  3  0  0  0  0  0  0
  187.8670  178.1220  148.0260 C   0  0  0  0  0  2  0  0  0  0  0  0
  184.8230  177.7340  145.9450 C   0  0  0  0  0  2  0  0  0  0  0  0
  184.3960  178.4010  144.6450 C   0  0  1  0  0  3  0  0  0  0  0  0
  184.5580  179.7850  144.7430 O   0  0  0  0  0  1  0  0  0  0  0  0
  185.2030  177.8260  143.4680 C   0  0  0  0  0  2  0  0  0  0  0  0
  186.3330  178.5950  143.1500 O   0  0  0  0  0  0  0  0  0  0  0  0
  187.3330  177.6990  142.7530 C   0  0  1  0  0  3  0  0  0  0  0  0
  187.5220  177.1350  140.7840 C   0  0  2  0  0  3  0  0  0  0  0  0
  186.7710  176.6250  141.9320 N   0  0  0  0  0  0  0  0  0  0  0  0
  188.1000  178.2890  141.5850 C   0  0  0  0  0  2  0  0  0  0  0  0
  186.5600  177.6260  139.7090 C   0  0  2  0  0  3  0  0  0  0  0  0
  185.2520  177.5410  140.1880 O   0  0  0  0  0  1  0  0  0  0  0  0
  186.6890  176.7730  138.4580 C   0  0  0  0  0  1  0  0  0  0  0  0
  187.2930  175.3150  142.3710 C   0  0  0  0  0  2  0  0  0  0  0  0
  188.1230  174.5560  141.3250 C   0  0  2  0  0  3  0  0  0  0  0  0
  187.8260  173.0950  141.3640 C   0  0  0  0  0  2  0  0  0  0  0  0
  189.5650  174.5570  141.6970 C   0  0  0  0  0  2  0  0  0  0  0  0
  190.1000  173.3600  141.2020 O   0  0  0  0  0  0  0  0  0  0  0  0
  189.1180  172.4170  141.3420 N   0  0  0  0  0  2  0  0  0  0  0  0
  195.4960  172.7060  142.9100 C   0  0  0  0  0  2  0  0  0  0  0  0
  195.7670  173.1190  140.2790 C   0  0  0  0  0  0  0  0  0  0  0  0
  195.6230  172.9210  141.4600 C   0  0  0  0  0  0  0  0  0  0  0  0
  195.8880  175.1890  137.0570 C   0  0  1  0  0  3  0  0  0  0  0  0
  194.2140  171.4910  138.5480 C   0  0  0  0  0  1  0  0  0  0  0  0
  195.9930  173.3780  138.8470 C   0  0  2  0  0  3  0  0  0  0  0  0
  195.1880  174.0900  136.2430 C   0  0  1  0  0  3  0  0  0  0  0  0
  194.3050  173.3520  137.0480 O   0  0  0  0  0  0  0  0  0  0  0  0
  195.8410  174.8770  138.5640 C   0  0  1  0  0  3  0  0  0  0  0  0
  194.4870  174.6670  135.1820 O   0  0  0  0  0  1  0  0  0  0  0  0
  196.8000  175.6210  139.2580 O   0  0  0  0  0  1  0  0  0  0  0  0
  195.1010  172.5360  137.8780 C   0  0  2  0  0  3  0  0  0  0  0  0
  197.1900  176.4150  135.7510 C   0  0  0  0  0  1  0  0  0  0  0  0
  197.2080  175.3200  136.6150 O   0  0  0  0  0  0  0  0  0  0  0  0
  1  9  1  6  0  0  0
  2 47  1  1  0  0  0
  2 10  1  0  0  0  0
  2  7  1  0  0  0  0
  3 11  1  0  0  0  0
  3  8  1  0  0  0  0
  4 15  1  0  0  0  0
  5 12  2  0  0  0  0
  6 22  1  0  0  0  0
  6 17  2  0  0  0  0
  7 21  1  6  0  0  0
  8 17  1  0  0  0  0
  8 16  1  1  0  0  0
 10 13  1  0  0  0  0
 11  7  1  0  0  0  0
 12 14  1  0  0  0  0
 13 14  1  0  0  0  0
 13  1  1  0  0  0  0
 15 12  1  0  0  0  0
 15 10  1  0  0  0  0
 17  1  1  0  0  0  0
 18 19  1  0  0  0  0
 18 11  1  0  0  0  0
 21 20  1  0  0  0  0
 22 23  1  0  0  0  0
 24 23  1  0  0  0  0
 24 26  1  0  0  0  0
 25 28  1  0  0  0  0
 26 27  1  0  0  0  0
 26 25  1  0  0  0  0
 26 28  1  0  0  0  0
 27 25  1  0  0  0  0
 29 27  1  0  0  0  0
 30 31  1  0  0  0  0
 30 29  1  0  0  0  0
 32 30  1  0  0  0  0
 33 32  1  0  0  0  0
 34 33  1  0  0  0  0
 35 37  1  0  0  0  0
 35 36  1  0  0  0  0
 36 41  1  0  0  0  0
 36 34  1  0  0  0  0
 37 34  1  0  0  0  0
 38 39  1  0  0  0  0
 38 35  1  0  0  0  0
 40 38  1  0  0  0  0
 42 43  1  0  0  0  0
 42 44  1  0  0  0  0
 42 41  1  0  0  0  0
 45 46  1  0  0  0  0
 45 44  1  0  0  0  0
 46 43  1  0  0  0  0
 48 49  3  0  0  0  0
 49 47  1  0  0  0  0
 50 55  1  0  0  0  0
 52 48  1  0  0  0  0
 53 54  1  0  0  0  0
 53 50  1  0  0  0  0
 54 58  1  0  0  0  0
 55 52  1  0  0  0  0
 55 57  1  0  0  0  0
 56 53  1  0  0  0  0
 58 51  1  0  0  0  0
 58 52  1  0  0  0  0
 59 60  1  0  0  0  0
 60 50  1  0  0  0  0
M  END
>  <MODEL>
6

>  <REMARK>
 VINA RESULT:      -5.9      1.679      2.439
  Name = 
  18 active torsions:
  status: ('A' for Active; 'I' for Inactive)
    1  A    between atoms: C_1  and  O_20
    2  A    between atoms: C_3  and  C_44
    3  A    between atoms: C_6  and  C_14
    4  A    between atoms: C_8  and  C_21
    5  A    between atoms: C_8  and  C_53
    6  A    between atoms: C_9  and  C_51
    7  A    between atoms: O_15  and  C_34
    8  A    between atoms: C_18  and  O_40
    9  A    between atoms: C_19  and  C_36
   10  A    between atoms: C_19  and  C_59
   11  A    between atoms: C_24  and  C_41
   12  A    between atoms: C_26  and  C_39
   13  A    between atoms: C_32  and  O_42
   14  A    between atoms: C_36  and  C_50
   15  A    between atoms: O_40  and  C_59
   16  A    between atoms: O_42  and  C_53
   17  A    between atoms: C_44  and  C_58
   18  A    between atoms: C_51  and  N_52
                            x       y       z     vdW  Elec       q    Type
                         _______ _______ _______ _____ _____    ______ ____

>  <TORSDO>
F 18

$$$$
=
 OpenBabel11072408533D

 60 66  0  0  1  0  0  0  0  0999 V2000
  194.1360  175.0780  141.5520 C   0  0  2  0  0  3  0  0  0  0  0  0
  193.3250  174.5190  144.6950 C   0  0  2  0  0  3  0  0  0  0  0  0
  196.4260  174.5310  143.9120 C   0  0  0  0  0  2  0  0  0  0  0  0
  191.7970  172.2590  144.2540 N   0  0  0  0  0  1  0  0  0  0  0  0
  190.4000  172.2270  141.6310 N   0  0  0  0  0  2  0  0  0  0  0  0
  196.1390  173.9290  140.6370 C   0  0  0  0  0  3  0  0  0  0  0  0
  194.3140  175.7030  144.6530 C   0  0  2  0  0  3  0  0  0  0  0  0
  196.5680  175.2890  142.5870 C   0  0  2  0  0  3  0  0  0  0  0  0
  193.8340  176.3710  141.9830 O   0  0  0  0  0  1  0  0  0  0  0  0
  192.5370  174.4320  143.4390 N   0  0  1  0  0  0  0  0  0  0  0  0
  195.7450  175.3160  145.0330 C   0  0  1  0  0  3  0  0  0  0  0  0
  191.3110  173.0260  142.0750 C   0  0  0  0  0  0  0  0  0  0  0  0
  193.3720  173.9790  142.3000 C   0  0  1  0  0  3  0  0  0  0  0  0
  192.4960  173.2880  141.3670 N   0  0  0  0  0  2  0  0  0  0  0  0
  191.4320  173.4400  143.4770 C   0  0  1  0  0  3  0  0  0  0  0  0
  196.5310  176.6820  142.7290 O   0  0  0  0  0  1  0  0  0  0  0  0
  195.6260  174.7940  141.5260 C   0  0  0  0  0  0  0  0  0  0  0  0
  195.7710  174.5710  146.2130 O   0  0  0  0  0  0  0  0  0  0  0  0
  196.8250  173.6740  146.0570 C   0  0  0  0  0  1  0  0  0  0  0  0
  194.9600  177.7400  145.7500 O   0  0  0  0  0  1  0  0  0  0  0  0
  193.8550  176.9840  145.3490 C   0  0  0  0  0  2  0  0  0  0  0  0
  195.3030  173.2430  139.5990 C   0  0  0  0  0  2  0  0  0  0  0  0
  196.1600  172.4900  138.5740 C   0  0  0  0  0  2  0  0  0  0  0  0
  195.6360  171.2290  138.2060 O   0  0  0  0  0  0  0  0  0  0  0  0
  195.8230  168.9860  138.9110 C   0  0  2  0  0  3  0  0  0  0  0  0
  195.5970  170.4230  139.3560 C   0  0  2  0  0  0  0  0  0  0  0  0
  194.4620  169.4120  139.4170 C   0  0  1  0  0  3  0  0  0  0  0  0
  196.9270  169.7470  139.6030 C   0  0  0  0  0  2  0  0  0  0  0  0
  193.4890  169.4580  138.2460 C   0  0  0  0  0  2  0  0  0  0  0  0
  192.1070  169.8240  138.7670 C   0  0  1  0  0  3  0  0  0  0  0  0
  192.0370  169.5890  140.1410 O   0  0  0  0  0  1  0  0  0  0  0  0
  191.7910  171.2940  138.4340 C   0  0  0  0  0  2  0  0  0  0  0  0
  192.0960  171.6340  137.1070 O   0  0  0  0  0  0  0  0  0  0  0  0
  192.4190  172.9960  137.1030 C   0  0  1  0  0  3  0  0  0  0  0  0
  190.9990  174.4150  136.6550 C   0  0  2  0  0  3  0  0  0  0  0  0
  191.9560  173.6350  135.8690 N   0  0  0  0  0  0  0  0  0  0  0  0
  191.4180  173.7520  137.9550 C   0  0  0  0  0  2  0  0  0  0  0  0
  189.5750  174.0350  136.2650 C   0  0  2  0  0  3  0  0  0  0  0  0
  189.0850  174.9660  135.3490 O   0  0  0  0  0  1  0  0  0  0  0  0
  188.6790  174.0230  137.4920 C   0  0  0  0  0  1  0  0  0  0  0  0
  193.0150  174.5000  135.3090 C   0  0  0  0  0  2  0  0  0  0  0  0
  194.4060  174.3230  135.9350 C   0  0  2  0  0  3  0  0  0  0  0  0
  194.9690  175.6350  136.3660 C   0  0  0  0  0  2  0  0  0  0  0  0
  195.4000  173.9190  134.9030 C   0  0  0  0  0  2  0  0  0  0  0  0
  196.6290  174.4550  135.3090 O   0  0  0  0  0  0  0  0  0  0  0  0
  196.3460  175.6630  135.8850 N   0  0  0  0  0  2  0  0  0  0  0  0
  192.4700  174.5110  145.9840 C   0  0  0  0  0  2  0  0  0  0  0  0
  190.3800  176.1700  145.7880 C   0  0  0  0  0  0  0  0  0  0  0  0
  191.3150  175.4180  145.9010 C   0  0  0  0  0  0  0  0  0  0  0  0
  186.7100  177.1820  145.3510 C   0  0  1  0  0  3  0  0  0  0  0  0
  190.5410  177.7340  143.4240 C   0  0  0  0  0  1  0  0  0  0  0  0
  189.2450  177.0900  145.5960 C   0  0  2  0  0  3  0  0  0  0  0  0
  187.0370  178.1310  144.1880 C   0  0  1  0  0  3  0  0  0  0  0  0
  188.1500  177.6740  143.4630 O   0  0  0  0  0  0  0  0  0  0  0  0
  187.9270  176.3150  145.7180 C   0  0  1  0  0  3  0  0  0  0  0  0
  185.9330  178.2330  143.3410 O   0  0  0  0  0  1  0  0  0  0  0  0
  187.7830  175.7660  146.9960 O   0  0  0  0  0  1  0  0  0  0  0  0
  189.2830  177.9140  144.2680 C   0  0  2  0  0  3  0  0  0  0  0  0
  184.9290  177.6120  146.5960 C   0  0  0  0  0  1  0  0  0  0  0  0
  186.2800  177.9310  146.4500 O   0  0  0  0  0  0  0  0  0  0  0  0
  1  9  1  1  0  0  0
  1 13  1  0  0  0  0
  2 47  1  1  0  0  0
  3 11  1  0  0  0  0
  5 12  2  0  0  0  0
  6 17  2  0  0  0  0
  7  2  1  0  0  0  0
  7 11  1  0  0  0  0
  7 21  1  1  0  0  0
  8 16  1  1  0  0  0
  8  3  1  0  0  0  0
 10 15  1  0  0  0  0
 10  2  1  0  0  0  0
 11 18  1  0  0  0  0
 12 15  1  0  0  0  0
 13 10  1  0  0  0  0
 14 12  1  0  0  0  0
 14 13  1  0  0  0  0
 15  4  1  0  0  0  0
 17  1  1  0  0  0  0
 17  8  1  0  0  0  0
 19 18  1  0  0  0  0
 21 20  1  0  0  0  0
 22  6  1  0  0  0  0
 23 22  1  0  0  0  0
 24 23  1  0  0  0  0
 24 26  1  0  0  0  0
 25 26  1  0  0  0  0
 25 27  1  0  0  0  0
 25 28  1  0  0  0  0
 26 27  1  0  0  0  0
 26 28  1  0  0  0  0
 29 30  1  0  0  0  0
 29 27  1  0  0  0  0
 30 31  1  0  0  0  0
 32 30  1  0  0  0  0
 33 32  1  0  0  0  0
 34 33  1  0  0  0  0
 34 37  1  0  0  0  0
 35 37  1  0  0  0  0
 36 35  1  0  0  0  0
 36 34  1  0  0  0  0
 38 35  1  0  0  0  0
 38 40  1  0  0  0  0
 39 38  1  0  0  0  0
 41 36  1  0  0  0  0
 41 42  1  0  0  0  0
 42 43  1  0  0  0  0
 44 45  1  0  0  0  0
 44 42  1  0  0  0  0
 45 46  1  0  0  0  0
 46 43  1  0  0  0  0
 48 49  3  0  0  0  0
 49 47  1  0  0  0  0
 50 55  1  0  0  0  0
 50 60  1  0  0  0  0
 51 58  1  0  0  0  0
 52 55  1  0  0  0  0
 52 48  1  0  0  0  0
 53 50  1  0  0  0  0
 54 53  1  0  0  0  0
 54 58  1  0  0  0  0
 55 57  1  0  0  0  0
 56 53  1  0  0  0  0
 58 52  1  0  0  0  0
 60 59  1  0  0  0  0
M  END
>  <MODEL>
7

>  <REMARK>
 VINA RESULT:      -5.9      2.582      8.685
  Name = 
  18 active torsions:
  status: ('A' for Active; 'I' for Inactive)
    1  A    between atoms: C_1  and  O_20
    2  A    between atoms: C_3  and  C_44
    3  A    between atoms: C_6  and  C_14
    4  A    between atoms: C_8  and  C_21
    5  A    between atoms: C_8  and  C_53
    6  A    between atoms: C_9  and  C_51
    7  A    between atoms: O_15  and  C_34
    8  A    between atoms: C_18  and  O_40
    9  A    between atoms: C_19  and  C_36
   10  A    between atoms: C_19  and  C_59
   11  A    between atoms: C_24  and  C_41
   12  A    between atoms: C_26  and  C_39
   13  A    between atoms: C_32  and  O_42
   14  A    between atoms: C_36  and  C_50
   15  A    between atoms: O_40  and  C_59
   16  A    between atoms: O_42  and  C_53
   17  A    between atoms: C_44  and  C_58
   18  A    between atoms: C_51  and  N_52
                            x       y       z     vdW  Elec       q    Type
                         _______ _______ _______ _____ _____    ______ ____

>  <TORSDO>
F 18

$$$$
=
 OpenBabel11072408533D

 60 66  0  0  1  0  0  0  0  0999 V2000
  193.4330  174.1120  141.3190 C   0  0  2  0  0  3  0  0  0  0  0  0
  192.2520  174.3210  144.3860 C   0  0  2  0  0  3  0  0  0  0  0  0
  195.3300  175.0400  143.8980 C   0  0  0  0  0  2  0  0  0  0  0  0
  191.4710  171.6820  144.6300 N   0  0  0  0  0  1  0  0  0  0  0  0
  190.6190  170.4240  142.0760 N   0  0  0  0  0  2  0  0  0  0  0  0
  195.7960  173.4070  141.0190 C   0  0  0  0  0  3  0  0  0  0  0  0
  192.8890  175.6780  144.0190 C   0  0  2  0  0  3  0  0  0  0  0  0
  195.5010  175.3610  142.4090 C   0  0  2  0  0  3  0  0  0  0  0  0
  192.7320  175.3170  141.2530 O   0  0  0  0  0  1  0  0  0  0  0  0
  191.7500  173.6190  143.1780 N   0  0  1  0  0  0  0  0  0  0  0  0
  194.2800  175.8830  144.6220 C   0  0  1  0  0  3  0  0  0  0  0  0
  191.1960  171.5590  142.2880 C   0  0  0  0  0  0  0  0  0  0  0  0
  192.8620  173.1160  142.3360 C   0  0  1  0  0  3  0  0  0  0  0  0
  192.3770  171.9400  141.6310 N   0  0  0  0  0  2  0  0  0  0  0  0
  190.9540  172.3980  143.4680 C   0  0  1  0  0  3  0  0  0  0  0  0
  195.0770  176.6490  142.0590 O   0  0  0  0  0  1  0  0  0  0  0  0
  194.9250  174.3030  141.5120 C   0  0  0  0  0  0  0  0  0  0  0  0
  194.2900  175.5800  145.9840 O   0  0  0  0  0  0  0  0  0  0  0  0
  194.5630  176.7870  146.6260 C   0  0  0  0  0  1  0  0  0  0  0  0
  191.9070  177.6140  142.9890 O   0  0  0  0  0  1  0  0  0  0  0  0
  191.9950  176.9070  144.1910 C   0  0  0  0  0  2  0  0  0  0  0  0
  195.3650  172.2160  140.2180 C   0  0  0  0  0  2  0  0  0  0  0  0
  195.9230  172.2500  138.7890 C   0  0  0  0  0  2  0  0  0  0  0  0
  195.2480  173.1510  137.9330 O   0  0  0  0  0  0  0  0  0  0  0  0
  195.7740  175.2660  137.0310 C   0  0  2  0  0  3  0  0  0  0  0  0
  196.2110  173.8140  137.1540 C   0  0  2  0  0  0  0  0  0  0  0  0
  195.7210  174.3600  135.8200 C   0  0  1  0  0  3  0  0  0  0  0  0
  196.9150  174.8930  137.9460 C   0  0  0  0  0  2  0  0  0  0  0  0
  194.2660  174.0560  135.4910 C   0  0  0  0  0  2  0  0  0  0  0  0
  193.4340  175.3090  135.7270 C   0  0  1  0  0  3  0  0  0  0  0  0
  193.1850  175.9520  134.5130 O   0  0  0  0  0  1  0  0  0  0  0  0
  192.1230  174.9430  136.4450 C   0  0  0  0  0  2  0  0  0  0  0  0
  192.0480  173.5860  136.7930 O   0  0  0  0  0  0  0  0  0  0  0  0
  190.8470  173.0980  136.2620 C   0  0  1  0  0  3  0  0  0  0  0  0
  189.0990  173.2030  137.3410 C   0  0  2  0  0  3  0  0  0  0  0  0
  190.1760  172.2180  137.2210 N   0  0  0  0  0  0  0  0  0  0  0  0
  189.7770  174.1660  136.3810 C   0  0  0  0  0  2  0  0  0  0  0  0
  189.0590  173.7590  138.7580 C   0  0  2  0  0  3  0  0  0  0  0  0
  189.0080  172.7020  139.6670 O   0  0  0  0  0  1  0  0  0  0  0  0
  187.8330  174.6370  138.9450 C   0  0  0  0  0  1  0  0  0  0  0  0
  189.7030  170.9910  136.5490 C   0  0  0  0  0  2  0  0  0  0  0  0
  190.2810  169.6780  137.0970 C   0  0  2  0  0  3  0  0  0  0  0  0
  190.4080  169.7280  138.5820 C   0  0  0  0  0  2  0  0  0  0  0  0
  191.7090  169.5260  136.7010 C   0  0  0  0  0  2  0  0  0  0  0  0
  192.3280  168.8050  137.7300 O   0  0  0  0  0  0  0  0  0  0  0  0
  191.7390  169.2190  138.8930 N   0  0  0  0  0  2  0  0  0  0  0  0
  191.2140  174.4480  145.5270 C   0  0  0  0  0  2  0  0  0  0  0  0
  188.9560  175.6190  144.6950 C   0  0  0  0  0  0  0  0  0  0  0  0
  189.9740  175.1070  145.0910 C   0  0  0  0  0  0  0  0  0  0  0  0
  186.7870  177.9200  142.5320 C   0  0  1  0  0  3  0  0  0  0  0  0
  187.3300  176.8320  146.6810 C   0  0  0  0  0  1  0  0  0  0  0  0
  187.7080  176.2050  144.1750 C   0  0  2  0  0  3  0  0  0  0  0  0
  185.8970  178.3150  143.7200 C   0  0  1  0  0  3  0  0  0  0  0  0
  186.6240  178.2910  144.9220 O   0  0  0  0  0  0  0  0  0  0  0  0
  188.0270  177.1390  143.0020 C   0  0  1  0  0  3  0  0  0  0  0  0
  185.3740  179.5910  143.5110 O   0  0  0  0  0  1  0  0  0  0  0  0
  188.6070  176.4360  141.9420 O   0  0  0  0  0  1  0  0  0  0  0  0
  186.8300  176.9340  145.2430 C   0  0  2  0  0  3  0  0  0  0  0  0
  185.8520  178.0060  140.5250 C   0  0  0  0  0  1  0  0  0  0  0  0
  186.0370  177.1660  141.6240 O   0  0  0  0  0  0  0  0  0  0  0  0
  1  9  1  1  0  0  0
  1 17  1  0  0  0  0
  1 13  1  0  0  0  0
  2 47  1  1  0  0  0
  3 11  1  0  0  0  0
  5 12  2  0  0  0  0
  6 17  2  0  0  0  0
  7 21  1  1  0  0  0
  7  2  1  0  0  0  0
  7 11  1  0  0  0  0
  8 16  1  1  0  0  0
  8  3  1  0  0  0  0
 10 15  1  0  0  0  0
 10  2  1  0  0  0  0
 11 18  1  0  0  0  0
 12 15  1  0  0  0  0
 13 10  1  0  0  0  0
 14 12  1  0  0  0  0
 14 13  1  0  0  0  0
 15  4  1  0  0  0  0
 17  8  1  0  0  0  0
 18 19  1  0  0  0  0
 20 21  1  0  0  0  0
 22  6  1  0  0  0  0
 23 22  1  0  0  0  0
 24 23  1  0  0  0  0
 25 26  1  0  0  0  0
 25 28  1  0  0  0  0
 26 24  1  0  0  0  0
 26 28  1  0  0  0  0
 27 25  1  0  0  0  0
 27 26  1  0  0  0  0
 29 30  1  0  0  0  0
 29 27  1  0  0  0  0
 30 32  1  0  0  0  0
 31 30  1  0  0  0  0
 32 33  1  0  0  0  0
 34 37  1  0  0  0  0
 34 33  1  0  0  0  0
 34 36  1  0  0  0  0
 35 38  1  0  0  0  0
 36 35  1  0  0  0  0
 37 35  1  0  0  0  0
 38 40  1  0  0  0  0
 38 39  1  0  0  0  0
 41 42  1  0  0  0  0
 41 36  1  0  0  0  0
 42 43  1  0  0  0  0
 43 46  1  0  0  0  0
 44 42  1  0  0  0  0
 44 45  1  0  0  0  0
 45 46  1  0  0  0  0
 48 49  3  0  0  0  0
 49 47  1  0  0  0  0
 50 55  1  0  0  0  0
 50 53  1  0  0  0  0
 52 48  1  0  0  0  0
 52 58  1  0  0  0  0
 53 54  1  0  0  0  0
 54 58  1  0  0  0  0
 55 52  1  0  0  0  0
 56 53  1  0  0  0  0
 57 55  1  0  0  0  0
 58 51  1  0  0  0  0
 59 60  1  0  0  0  0
 60 50  1  0  0  0  0
M  END
>  <MODEL>
8

>  <REMARK>
 VINA RESULT:      -5.8      2.039      8.217
  Name = 
  18 active torsions:
  status: ('A' for Active; 'I' for Inactive)
    1  A    between atoms: C_1  and  O_20
    2  A    between atoms: C_3  and  C_44
    3  A    between atoms: C_6  and  C_14
    4  A    between atoms: C_8  and  C_21
    5  A    between atoms: C_8  and  C_53
    6  A    between atoms: C_9  and  C_51
    7  A    between atoms: O_15  and  C_34
    8  A    between atoms: C_18  and  O_40
    9  A    between atoms: C_19  and  C_36
   10  A    between atoms: C_19  and  C_59
   11  A    between atoms: C_24  and  C_41
   12  A    between atoms: C_26  and  C_39
   13  A    between atoms: C_32  and  O_42
   14  A    between atoms: C_36  and  C_50
   15  A    between atoms: O_40  and  C_59
   16  A    between atoms: O_42  and  C_53
   17  A    between atoms: C_44  and  C_58
   18  A    between atoms: C_51  and  N_52
                            x       y       z     vdW  Elec       q    Type
                         _______ _______ _______ _____ _____    ______ ____

>  <TORSDO>
F 18

$$$$
=
 OpenBabel11072408533D

 60 66  0  0  1  0  0  0  0  0999 V2000
  195.7010  172.6330  143.4760 C   0  0  2  0  0  3  0  0  0  0  0  0
  193.4060  174.9910  143.5950 C   0  0  2  0  0  3  0  0  0  0  0  0
  192.5250  171.9890  144.2580 C   0  0  0  0  0  2  0  0  0  0  0  0
  193.6310  175.8170  140.9680 N   0  0  0  0  0  1  0  0  0  0  0  0
  196.3610  175.5250  139.8300 N   0  0  0  0  0  2  0  0  0  0  0  0
  195.0140  170.3660  142.7270 C   0  0  0  0  0  3  0  0  0  0  0  0
  193.4110  174.2520  144.9490 C   0  0  2  0  0  3  0  0  0  0  0  0
  193.7900  171.2060  144.6320 C   0  0  2  0  0  3  0  0  0  0  0  0
  196.0010  173.2340  144.6990 O   0  0  0  0  0  1  0  0  0  0  0  0
  194.7430  174.9440  142.9520 N   0  0  1  0  0  0  0  0  0  0  0  0
  192.2720  173.2410  145.0980 C   0  0  1  0  0  3  0  0  0  0  0  0
  195.8750  175.0840  140.9420 C   0  0  0  0  0  0  0  0  0  0  0  0
  195.0630  173.5830  142.4560 C   0  0  1  0  0  3  0  0  0  0  0  0
  195.9580  173.7340  141.3190 N   0  0  0  0  0  2  0  0  0  0  0  0
  194.8690  175.7940  141.7400 C   0  0  1  0  0  3  0  0  0  0  0  0
  194.2270  171.4370  145.9420 O   0  0  0  0  0  1  0  0  0  0  0  0
  194.8920  171.3580  143.6230 C   0  0  0  0  0  0  0  0  0  0  0  0
  191.0460  173.8060  144.7430 O   0  0  0  0  0  0  0  0  0  0  0  0
  190.0960  172.8240  145.0190 C   0  0  0  0  0  1  0  0  0  0  0  0
  194.8710  175.6450  146.2530 O   0  0  0  0  0  1  0  0  0  0  0  0
  193.5740  175.1280  146.1910 C   0  0  0  0  0  2  0  0  0  0  0  0
  195.9750  170.4270  141.5780 C   0  0  0  0  0  2  0  0  0  0  0  0
  195.4520  169.6730  140.3490 C   0  0  0  0  0  2  0  0  0  0  0  0
  194.6440  170.4600  139.4960 O   0  0  0  0  0  0  0  0  0  0  0  0
  194.2340  170.8820  137.2120 C   0  0  2  0  0  3  0  0  0  0  0  0
  194.5810  169.8210  138.2460 C   0  0  2  0  0  0  0  0  0  0  0  0
  193.2170  169.8210  137.5710 C   0  0  1  0  0  3  0  0  0  0  0  0
  195.6410  170.3440  137.3040 C   0  0  0  0  0  2  0  0  0  0  0  0
  192.0950  170.4630  138.3780 C   0  0  0  0  0  2  0  0  0  0  0  0
  190.8660  169.5670  138.3140 C   0  0  1  0  0  3  0  0  0  0  0  0
  190.4490  169.2360  139.6040 O   0  0  0  0  0  1  0  0  0  0  0  0
  189.7440  170.2680  137.5260 C   0  0  0  0  0  2  0  0  0  0  0  0
  190.2290  171.1780  136.5740 O   0  0  0  0  0  0  0  0  0  0  0  0
  189.4020  172.3060  136.6360 C   0  0  1  0  0  3  0  0  0  0  0  0
  190.1900  174.2000  136.4830 C   0  0  2  0  0  3  0  0  0  0  0  0
  189.9280  173.2820  137.5930 N   0  0  0  0  0  0  0  0  0  0  0  0
  189.6900  173.2050  135.4490 C   0  0  0  0  0  2  0  0  0  0  0  0
  191.6890  174.4410  136.3490 C   0  0  2  0  0  3  0  0  0  0  0  0
  192.2630  174.4840  137.6200 O   0  0  0  0  0  1  0  0  0  0  0  0
  191.9490  175.7580  135.6400 C   0  0  0  0  0  1  0  0  0  0  0  0
  188.8450  173.7900  138.4590 C   0  0  0  0  0  2  0  0  0  0  0  0
  189.1540  173.7950  139.9630 C   0  0  2  0  0  3  0  0  0  0  0  0
  190.4370  173.0900  140.2470 C   0  0  0  0  0  2  0  0  0  0  0  0
  188.1920  172.9310  140.7010 C   0  0  0  0  0  2  0  0  0  0  0  0
  188.8900  172.4170  141.8020 O   0  0  0  0  0  0  0  0  0  0  0  0
  190.1720  172.2040  141.3750 N   0  0  0  0  0  2  0  0  0  0  0  0
  192.8000  176.4110  143.7020 C   0  0  0  0  0  2  0  0  0  0  0  0
  190.1240  176.4330  143.6760 C   0  0  0  0  0  0  0  0  0  0  0  0
  191.3300  176.4010  143.6740 C   0  0  0  0  0  0  0  0  0  0  0  0
  186.6900  178.0400  143.1230 C   0  0  1  0  0  3  0  0  0  0  0  0
  188.9840  176.1450  146.2610 C   0  0  0  0  0  1  0  0  0  0  0  0
  188.6540  176.5210  143.6980 C   0  0  2  0  0  3  0  0  0  0  0  0
  186.1940  177.6250  144.5160 C   0  0  1  0  0  3  0  0  0  0  0  0
  187.2550  177.5770  145.4350 O   0  0  0  0  0  0  0  0  0  0  0  0
  188.2040  177.7980  142.9780 C   0  0  1  0  0  3  0  0  0  0  0  0
  185.2280  178.5300  144.9590 O   0  0  0  0  0  1  0  0  0  0  0  0
  188.5800  177.7760  141.6320 O   0  0  0  0  0  1  0  0  0  0  0  0
  188.0110  176.4290  145.1200 C   0  0  2  0  0  3  0  0  0  0  0  0
  185.1720  178.2910  141.5300 C   0  0  0  0  0  1  0  0  0  0  0  0
  185.9770  177.3340  142.1500 O   0  0  0  0  0  0  0  0  0  0  0  0
  1 17  1  0  0  0  0
  1  9  1  1  0  0  0
  2 47  1  1  0  0  0
  2  7  1  0  0  0  0
  3  8  1  0  0  0  0
  3 11  1  0  0  0  0
  4 15  1  0  0  0  0
  5 12  2  0  0  0  0
  6 17  2  0  0  0  0
  7 11  1  0  0  0  0
  7 21  1  1  0  0  0
  8 16  1  1  0  0  0
 10  2  1  0  0  0  0
 12 14  1  0  0  0  0
 12 15  1  0  0  0  0
 13 10  1  0  0  0  0
 13  1  1  0  0  0  0
 14 13  1  0  0  0  0
 15 10  1  0  0  0  0
 17  8  1  0  0  0  0
 18 19  1  0  0  0  0
 18 11  1  0  0  0  0
 21 20  1  0  0  0  0
 22  6  1  0  0  0  0
 23 22  1  0  0  0  0
 24 23  1  0  0  0  0
 25 28  1  0  0  0  0
 25 27  1  0  0  0  0
 25 26  1  0  0  0  0
 26 24  1  0  0  0  0
 27 26  1  0  0  0  0
 27 29  1  0  0  0  0
 28 26  1  0  0  0  0
 30 29  1  0  0  0  0
 30 31  1  0  0  0  0
 32 30  1  0  0  0  0
 33 34  1  0  0  0  0
 33 32  1  0  0  0  0
 34 36  1  0  0  0  0
 35 36  1  0  0  0  0
 36 41  1  0  0  0  0
 37 35  1  0  0  0  0
 37 34  1  0  0  0  0
 38 35  1  0  0  0  0
 38 39  1  0  0  0  0
 40 38  1  0  0  0  0
 41 42  1  0  0  0  0
 42 43  1  0  0  0  0
 42 44  1  0  0  0  0
 43 46  1  0  0  0  0
 44 45  1  0  0  0  0
 46 45  1  0  0  0  0
 48 52  1  0  0  0  0
 49 48  3  0  0  0  0
 49 47  1  0  0  0  0
 50 53  1  0  0  0  0
 52 58  1  0  0  0  0
 53 56  1  0  0  0  0
 53 54  1  0  0  0  0
 55 50  1  0  0  0  0
 55 52  1  0  0  0  0
 57 55  1  0  0  0  0
 58 54  1  0  0  0  0
 58 51  1  0  0  0  0
 59 60  1  0  0  0  0
 60 50  1  0  0  0  0
M  END
>  <MODEL>
9

>  <REMARK>
 VINA RESULT:      -5.8      2.643      8.395
  Name = 
  18 active torsions:
  status: ('A' for Active; 'I' for Inactive)
    1  A    between atoms: C_1  and  O_20
    2  A    between atoms: C_3  and  C_44
    3  A    between atoms: C_6  and  C_14
    4  A    between atoms: C_8  and  C_21
    5  A    between atoms: C_8  and  C_53
    6  A    between atoms: C_9  and  C_51
    7  A    between atoms: O_15  and  C_34
    8  A    between atoms: C_18  and  O_40
    9  A    between atoms: C_19  and  C_36
   10  A    between atoms: C_19  and  C_59
   11  A    between atoms: C_24  and  C_41
   12  A    between atoms: C_26  and  C_39
   13  A    between atoms: C_32  and  O_42
   14  A    between atoms: C_36  and  C_50
   15  A    between atoms: O_40  and  C_59
   16  A    between atoms: O_42  and  C_53
   17  A    between atoms: C_44  and  C_58
   18  A    between atoms: C_51  and  N_52
                            x       y       z     vdW  Elec       q    Type
                         _______ _______ _______ _____ _____    ______ ____

>  <TORSDO>
F 18

$$$$
