=
 OpenBabel11062420223D

 53 62  0  0  1  0  0  0  0  0999 V2000
  191.1690  175.1970  143.2130 C   0  0  0  0  0  0  0  0  0  0  0  0
  192.5480  175.9980  146.8720 O   0  0  0  0  0  0  0  0  0  0  0  0
  190.6630  173.4030  141.7140 C   0  0  2  0  0  3  0  0  0  0  0  0
  192.9620  176.2850  144.4300 C   0  0  1  0  0  3  0  0  0  0  0  0
  189.3070  176.3840  145.0900 C   0  0  0  0  0  2  0  0  0  0  0  0
  191.8270  173.1870  140.7370 C   0  0  1  0  0  3  0  0  0  0  0  0
  189.0940  172.7590  139.7490 C   0  0  0  0  0  2  0  0  0  0  0  0
  191.9170  171.7810  140.3220 N   0  0  0  0  0  0  0  0  0  0  0  0
  190.6270  175.7180  145.5030 C   0  0  1  0  0  3  0  0  0  0  0  0
  191.7900  174.0750  139.6500 O   0  0  0  0  0  1  0  0  0  0  0  0
  188.5280  176.1590  143.0050 C   0  0  1  0  0  3  0  0  0  0  0  0
  189.2510  173.0120  141.2470 C   0  0  2  0  0  3  0  0  0  0  0  0
  188.5560  175.5320  144.2620 O   0  0  0  0  0  0  0  0  0  0  0  0
  193.9970  175.4000  145.0940 C   0  0  0  0  0  2  0  0  0  0  0  0
  191.6110  175.6260  144.3590 C   0  0  0  0  0  0  0  0  0  0  0  0
  190.5410  174.8100  142.1390 C   0  0  0  0  0  0  0  0  0  0  0  0
  193.3980  176.5490  145.8870 C   0  0  2  0  0  3  0  0  0  0  0  0
  191.2590  176.5000  146.6440 C   0  0  0  0  0  2  0  0  0  0  0  0
  189.1350  175.2690  141.8900 C   0  0  1  0  0  3  0  0  0  0  0  0
  189.6850  171.4130  139.3610 C   0  0  0  0  0  2  0  0  0  0  0  0
  191.1760  171.5360  139.0850 C   0  0  0  0  0  2  0  0  0  0  0  0
  188.3310  174.0710  141.6600 N   0  0  0  0  0  2  0  0  0  0  0  0
  187.1460  176.6420  142.6770 C   0  0  0  0  0  0  0  0  0  0  0  0
  185.3430  177.4800  144.1170 C   0  0  0  0  0  3  0  0  0  0  0  0
  184.7420  178.4090  143.3720 C   0  0  0  0  0  0  0  0  0  0  0  0
  185.9920  176.2640  143.5510 C   0  0  0  0  0  2  0  0  0  0  0  0
  185.6800  177.9180  141.1090 C   0  0  0  0  0  3  0  0  0  0  0  0
  186.9640  177.3380  141.5520 C   0  0  0  0  0  3  0  0  0  0  0  0
  184.6740  178.3600  141.8800 C   0  0  0  0  0  0  0  0  0  0  0  0
  184.1510  179.4770  144.0370 O   0  0  0  0  0  1  0  0  0  0  0  0
  183.5550  178.8590  141.2010 O   0  0  0  0  0  0  0  0  0  0  0  0
  182.4340  178.0650  140.8400 C   0  0  0  0  0  2  0  0  0  0  0  0
  179.8720  177.9930  141.0610 C   0  0  0  0  0  2  0  0  0  0  0  0
  181.1660  178.6950  141.3820 C   0  0  0  0  0  0  0  0  0  0  0  0
  181.2010  179.3190  142.6930 N   0  0  0  0  0  1  0  0  0  0  0  0
  180.2150  179.3260  140.3980 C   0  0  0  0  0  2  0  0  0  0  0  0
  193.3190  171.4950  140.0530 C   0  0  0  0  0  2  0  0  0  0  0  0
  197.9410  172.3750  142.9100 C   0  0  0  0  0  1  0  0  0  0  0  0
  194.6410  169.3160  140.2870 C   0  0  2  0  0  3  0  0  0  0  0  0
  194.6410  171.0910  142.1590 C   0  0  0  0  0  0  0  0  0  0  0  0
  193.5620  168.3370  140.7280 C   0  0  0  0  0  2  0  0  0  0  0  0
  195.9700  172.2890  144.4390 C   0  0  2  0  0  3  0  0  0  0  0  0
  196.6840  170.1610  141.1780 C   0  0  0  0  0  2  0  0  0  0  0  0
  194.5390  171.7750  144.5440 C   0  0  0  0  0  2  0  0  0  0  0  0
  195.9890  170.9900  142.2200 C   0  0  0  0  0  0  0  0  0  0  0  0
  195.9050  168.9510  140.9380 N   0  0  0  0  0  2  0  0  0  0  0  0
  192.8430  169.4430  141.4920 C   0  0  0  0  0  2  0  0  0  0  0  0
  193.8790  171.8910  143.1810 C   0  0  0  0  0  2  0  0  0  0  0  0
  196.7920  171.5070  143.4000 C   0  0  1  0  0  3  0  0  0  0  0  0
  193.8830  170.4440  141.0170 C   0  0  1  0  0  0  0  0  0  0  0  0
  197.0680  173.4480  146.3930 N   0  0  0  0  0  1  0  0  0  0  0  0
  196.8240  171.1390  146.3610 O   0  0  0  0  0  0  0  0  0  0  0  0
  196.6330  172.2410  145.7790 C   0  0  0  0  0  0  0  0  0  0  0  0
  1 15  2  0  0  0  0
  3 16  1  6  0  0  0
  4 14  1  1  0  0  0
  4 17  1  0  0  0  0
  6 10  1  6  0  0  0
  6  3  1  0  0  0  0
  8  6  1  0  0  0  0
  9  5  1  6  0  0  0
  9 18  1  0  0  0  0
 11 23  1  6  0  0  0
 11 13  1  0  0  0  0
 12  7  1  6  0  0  0
 12 22  1  0  0  0  0
 12  3  1  0  0  0  0
 13  5  1  0  0  0  0
 15  4  1  0  0  0  0
 15  9  1  0  0  0  0
 16  1  2  0  0  0  0
 17 14  1  6  0  0  0
 17  2  1  0  0  0  0
 18  2  1  0  0  0  0
 19 22  1  1  0  0  0
 19 16  1  0  0  0  0
 19 11  1  0  0  0  0
 20  7  1  0  0  0  0
 21 20  1  0  0  0  0
 21  8  1  0  0  0  0
 23 26  1  0  0  0  0
 25 30  1  0  0  0  0
 25 24  2  0  0  0  0
 26 24  1  0  0  0  0
 27 28  1  0  0  0  0
 27 29  2  0  0  0  0
 28 23  2  0  0  0  0
 29 25  1  0  0  0  0
 31 29  1  0  0  0  0
 32 31  1  0  0  0  0
 32 34  1  0  0  0  0
 33 34  1  0  0  0  0
 34 35  1  0  0  0  0
 36 33  1  0  0  0  0
 36 34  1  0  0  0  0
 37  8  1  0  0  0  0
 39 41  1  1  0  0  0
 39 46  1  0  0  0  0
 39 50  1  0  0  0  0
 40 45  2  0  0  0  0
 40 48  1  0  0  0  0
 41 47  1  0  0  0  0
 42 44  1  0  0  0  0
 42 53  1  1  0  0  0
 43 45  1  0  0  0  0
 45 49  1  0  0  0  0
 46 43  1  0  0  0  0
 48 44  1  0  0  0  0
 49 38  1  6  0  0  0
 49 42  1  0  0  0  0
 50 37  1  6  0  0  0
 50 47  1  0  0  0  0
 50 40  1  0  0  0  0
 53 52  2  0  0  0  0
 53 51  1  0  0  0  0
M  END
>  <MODEL>
1

>  <REMARK>
 VINA RESULT:      -8.4      0.000      0.000
  Name = 
  7 active torsions:
  status: ('A' for Active; 'I' for Inactive)
    1  A    between atoms: N_10  and  C_46
    2  A    between atoms: C_12  and  C_16
    3  A    between atoms: C_19  and  C_40
    4  A    between atoms: O_20  and  C_28
    5  A    between atoms: O_20  and  C_42
    6  A    between atoms: C_28  and  C_32
    7  A    between atoms: C_46  and  C_53
                            x       y       z     vdW  Elec       q    Type
                         _______ _______ _______ _____ _____    ______ ____

>  <TORSDO>
F 7

$$$$
=
 OpenBabel11062420223D

 53 62  0  0  1  0  0  0  0  0999 V2000
  191.4300  172.8830  142.7330 C   0  0  0  0  0  0  0  0  0  0  0  0
  190.6950  170.4220  139.6780 O   0  0  0  0  0  0  0  0  0  0  0  0
  193.1160  174.2790  143.6970 C   0  0  2  0  0  3  0  0  0  0  0  0
  190.8750  170.5940  142.1580 C   0  0  1  0  0  3  0  0  0  0  0  0
  189.4520  173.7430  140.7960 C   0  0  0  0  0  2  0  0  0  0  0  0
  193.8370  173.5310  144.8270 C   0  0  1  0  0  3  0  0  0  0  0  0
  193.4270  176.4240  145.1230 C   0  0  0  0  0  2  0  0  0  0  0  0
  195.2300  173.9800  144.9560 N   0  0  0  0  0  0  0  0  0  0  0  0
  190.4710  172.6250  140.5360 C   0  0  1  0  0  3  0  0  0  0  0  0
  193.1340  173.5820  146.0410 O   0  0  0  0  0  1  0  0  0  0  0  0
  189.6570  175.0700  142.5860 C   0  0  1  0  0  3  0  0  0  0  0  0
  193.0570  175.8140  143.7740 C   0  0  2  0  0  3  0  0  0  0  0  0
  190.0930  174.9040  141.2600 O   0  0  0  0  0  0  0  0  0  0  0  0
  191.9690  169.7370  141.5550 C   0  0  0  0  0  2  0  0  0  0  0  0
  191.0370  172.0490  141.8150 C   0  0  0  0  0  0  0  0  0  0  0  0
  191.7100  173.8560  143.5530 C   0  0  0  0  0  0  0  0  0  0  0  0
  190.5950  169.7330  140.9080 C   0  0  2  0  0  3  0  0  0  0  0  0
  189.8160  171.5130  139.7340 C   0  0  0  0  0  2  0  0  0  0  0  0
  190.8340  175.0720  143.5960 C   0  0  1  0  0  3  0  0  0  0  0  0
  194.9320  176.3880  145.3410 C   0  0  0  0  0  2  0  0  0  0  0  0
  195.3610  175.0560  145.9380 C   0  0  0  0  0  2  0  0  0  0  0  0
  191.7050  176.2310  143.4060 N   0  0  0  0  0  2  0  0  0  0  0  0
  188.7770  176.2780  142.7150 C   0  0  0  0  0  0  0  0  0  0  0  0
  186.8270  177.0020  141.4110 C   0  0  0  0  0  3  0  0  0  0  0  0
  186.0400  177.5950  142.3120 C   0  0  0  0  0  0  0  0  0  0  0  0
  188.3140  177.0020  141.4900 C   0  0  0  0  0  2  0  0  0  0  0  0
  187.6110  177.8790  144.2340 C   0  0  0  0  0  3  0  0  0  0  0  0
  188.4930  176.7320  143.9370 C   0  0  0  0  0  3  0  0  0  0  0  0
  186.5540  178.3030  143.5230 C   0  0  0  0  0  0  0  0  0  0  0  0
  184.6680  177.5400  142.0960 O   0  0  0  0  0  1  0  0  0  0  0  0
  185.8890  179.4290  144.0250 O   0  0  0  0  0  0  0  0  0  0  0  0
  185.6820  179.6690  145.4090 C   0  0  0  0  0  2  0  0  0  0  0  0
  184.4830  178.5500  147.3910 C   0  0  0  0  0  2  0  0  0  0  0  0
  184.5320  178.8170  145.9080 C   0  0  0  0  0  0  0  0  0  0  0  0
  183.2300  178.9640  145.2820 N   0  0  0  0  0  1  0  0  0  0  0  0
  184.8460  177.4330  146.4140 C   0  0  0  0  0  2  0  0  0  0  0  0
  196.0090  172.8510  145.4430 C   0  0  0  0  0  2  0  0  0  0  0  0
  194.3370  173.5430  140.2440 C   0  0  0  0  0  1  0  0  0  0  0  0
  195.9660  170.6020  144.2220 C   0  0  2  0  0  3  0  0  0  0  0  0
  196.5720  172.7840  142.9880 C   0  0  0  0  0  0  0  0  0  0  0  0
  197.3210  170.0160  144.5910 C   0  0  0  0  0  2  0  0  0  0  0  0
  196.7100  174.2720  140.5040 C   0  0  2  0  0  3  0  0  0  0  0  0
  194.8370  171.2360  142.2200 C   0  0  0  0  0  2  0  0  0  0  0  0
  197.9400  174.1020  141.3880 C   0  0  0  0  0  2  0  0  0  0  0  0
  195.7090  172.4390  142.0040 C   0  0  0  0  0  0  0  0  0  0  0  0
  195.6270  170.1850  142.8560 N   0  0  0  0  0  2  0  0  0  0  0  0
  197.9410  171.4080  144.6090 C   0  0  0  0  0  2  0  0  0  0  0  0
  197.4880  173.9690  142.8310 C   0  0  0  0  0  2  0  0  0  0  0  0
  195.7350  173.0890  140.6330 C   0  0  1  0  0  3  0  0  0  0  0  0
  196.5830  172.0130  144.2930 C   0  0  1  0  0  0  0  0  0  0  0  0
  197.3000  173.3280  138.2400 N   0  0  0  0  0  1  0  0  0  0  0  0
  197.3300  175.6180  138.6210 O   0  0  0  0  0  0  0  0  0  0  0  0
  197.1220  174.4620  139.0790 C   0  0  0  0  0  0  0  0  0  0  0  0
  1 16  2  0  0  0  0
  2 18  1  0  0  0  0
  2 17  1  0  0  0  0
  3 16  1  1  0  0  0
  3 12  1  0  0  0  0
  3  6  1  0  0  0  0
  4 14  1  6  0  0  0
  5 13  1  0  0  0  0
  6  8  1  0  0  0  0
  6 10  1  1  0  0  0
  7 20  1  0  0  0  0
  8 37  1  0  0  0  0
  8 21  1  0  0  0  0
  9 18  1  1  0  0  0
  9  5  1  0  0  0  0
  9 15  1  0  0  0  0
 11 23  1  6  0  0  0
 11 19  1  0  0  0  0
 12  7  1  1  0  0  0
 13 11  1  0  0  0  0
 15  4  1  0  0  0  0
 15  1  2  0  0  0  0
 16 19  1  0  0  0  0
 17 14  1  6  0  0  0
 17  4  1  0  0  0  0
 19 22  1  6  0  0  0
 20 21  1  0  0  0  0
 22 12  1  0  0  0  0
 23 28  2  0  0  0  0
 24 26  1  0  0  0  0
 24 25  2  0  0  0  0
 25 29  1  0  0  0  0
 26 23  1  0  0  0  0
 28 27  1  0  0  0  0
 29 31  1  0  0  0  0
 29 27  2  0  0  0  0
 30 25  1  0  0  0  0
 31 32  1  0  0  0  0
 32 34  1  0  0  0  0
 34 36  1  0  0  0  0
 34 33  1  0  0  0  0
 35 34  1  0  0  0  0
 36 33  1  0  0  0  0
 39 50  1  0  0  0  0
 39 41  1  6  0  0  0
 40 50  1  0  0  0  0
 41 47  1  0  0  0  0
 42 53  1  6  0  0  0
 42 49  1  0  0  0  0
 42 44  1  0  0  0  0
 43 46  1  0  0  0  0
 44 48  1  0  0  0  0
 45 43  1  0  0  0  0
 45 40  2  0  0  0  0
 46 39  1  0  0  0  0
 48 40  1  0  0  0  0
 49 38  1  1  0  0  0
 49 45  1  0  0  0  0
 50 47  1  0  0  0  0
 50 37  1  1  0  0  0
 51 53  1  0  0  0  0
 52 53  2  0  0  0  0
M  END
>  <MODEL>
2

>  <REMARK>
 VINA RESULT:      -8.3      2.458      5.433
  Name = 
  7 active torsions:
  status: ('A' for Active; 'I' for Inactive)
    1  A    between atoms: N_10  and  C_46
    2  A    between atoms: C_12  and  C_16
    3  A    between atoms: C_19  and  C_40
    4  A    between atoms: O_20  and  C_28
    5  A    between atoms: O_20  and  C_42
    6  A    between atoms: C_28  and  C_32
    7  A    between atoms: C_46  and  C_53
                            x       y       z     vdW  Elec       q    Type
                         _______ _______ _______ _____ _____    ______ ____

>  <TORSDO>
F 7

$$$$
=
 OpenBabel11062420223D

 53 62  0  0  1  0  0  0  0  0999 V2000
  191.1840  172.6710  142.4680 C   0  0  0  0  0  0  0  0  0  0  0  0
  191.4170  169.8560  139.6490 O   0  0  0  0  0  0  0  0  0  0  0  0
  192.3580  174.5270  143.4150 C   0  0  2  0  0  3  0  0  0  0  0  0
  191.2770  170.2760  142.1020 C   0  0  1  0  0  3  0  0  0  0  0  0
  189.2800  172.8300  140.2890 C   0  0  0  0  0  2  0  0  0  0  0  0
  193.1130  174.0860  144.6770 C   0  0  1  0  0  3  0  0  0  0  0  0
  191.9720  176.7930  144.6200 C   0  0  0  0  0  2  0  0  0  0  0  0
  194.3290  174.8860  144.8740 N   0  0  0  0  0  0  0  0  0  0  0  0
  190.5650  171.9920  140.2400 C   0  0  1  0  0  3  0  0  0  0  0  0
  192.2910  174.0580  145.8140 O   0  0  0  0  0  1  0  0  0  0  0  0
  188.9540  174.3110  141.9350 C   0  0  1  0  0  3  0  0  0  0  0  0
  191.9150  175.9970  143.3190 C   0  0  2  0  0  3  0  0  0  0  0  0
  189.5600  174.1510  140.6770 O   0  0  0  0  0  0  0  0  0  0  0  0
  192.6080  169.6800  141.6910 C   0  0  0  0  0  2  0  0  0  0  0  0
  191.1120  171.6900  141.6170 C   0  0  0  0  0  0  0  0  0  0  0  0
  191.1240  173.7490  143.1990 C   0  0  0  0  0  0  0  0  0  0  0  0
  191.3570  169.2700  140.9330 C   0  0  2  0  0  3  0  0  0  0  0  0
  190.2960  170.6860  139.5100 C   0  0  0  0  0  2  0  0  0  0  0  0
  189.9760  174.6980  143.0350 C   0  0  1  0  0  3  0  0  0  0  0  0
  193.4070  177.1620  144.9680 C   0  0  0  0  0  2  0  0  0  0  0  0
  194.0820  176.0390  145.7390 C   0  0  0  0  0  2  0  0  0  0  0  0
  190.5500  176.0210  142.7940 N   0  0  0  0  0  2  0  0  0  0  0  0
  187.7950  175.2590  141.8560 C   0  0  0  0  0  0  0  0  0  0  0  0
  186.6830  176.5990  143.5860 C   0  0  0  0  0  3  0  0  0  0  0  0
  186.3240  177.7150  142.9480 C   0  0  0  0  0  0  0  0  0  0  0  0
  186.7540  175.2630  142.9320 C   0  0  0  0  0  2  0  0  0  0  0  0
  186.6170  177.0390  140.5610 C   0  0  0  0  0  3  0  0  0  0  0  0
  187.6730  176.0280  140.7720 C   0  0  0  0  0  3  0  0  0  0  0  0
  185.9820  177.7650  141.4940 C   0  0  0  0  0  0  0  0  0  0  0  0
  186.2710  178.8870  143.6920 O   0  0  0  0  0  1  0  0  0  0  0  0
  185.0080  178.6540  141.0220 O   0  0  0  0  0  0  0  0  0  0  0  0
  183.7980  178.2410  140.4040 C   0  0  0  0  0  2  0  0  0  0  0  0
  181.3260  177.8380  140.9900 C   0  0  0  0  0  2  0  0  0  0  0  0
  182.6320  178.5040  141.3370 C   0  0  0  0  0  0  0  0  0  0  0  0
  182.8890  178.6160  142.7620 N   0  0  0  0  0  1  0  0  0  0  0  0
  181.4930  179.3470  140.8240 C   0  0  0  0  0  2  0  0  0  0  0  0
  195.3040  174.0390  145.5450 C   0  0  0  0  0  2  0  0  0  0  0  0
  194.0660  173.7370  140.1900 C   0  0  0  0  0  1  0  0  0  0  0  0
  196.0410  171.7800  144.5940 C   0  0  2  0  0  3  0  0  0  0  0  0
  196.1200  173.9250  143.1640 C   0  0  0  0  0  0  0  0  0  0  0  0
  197.4600  171.6590  145.1290 C   0  0  0  0  0  2  0  0  0  0  0  0
  196.0860  175.1590  140.5410 C   0  0  2  0  0  3  0  0  0  0  0  0
  194.9960  171.8690  142.4520 C   0  0  0  0  0  2  0  0  0  0  0  0
  197.2120  175.4420  141.5290 C   0  0  0  0  0  2  0  0  0  0  0  0
  195.5030  173.2530  142.1650 C   0  0  0  0  0  0  0  0  0  0  0  0
  195.9830  171.1620  143.2630 N   0  0  0  0  0  2  0  0  0  0  0  0
  197.6470  173.1690  145.0320 C   0  0  0  0  0  2  0  0  0  0  0  0
  196.6670  175.3100  142.9390 C   0  0  0  0  0  2  0  0  0  0  0  0
  195.4850  173.7560  140.7330 C   0  0  1  0  0  3  0  0  0  0  0  0
  196.2140  173.3120  144.5460 C   0  0  1  0  0  0  0  0  0  0  0  0
  197.9410  175.6560  138.9040 N   0  0  0  0  0  1  0  0  0  0  0  0
  195.7840  175.2210  138.1640 O   0  0  0  0  0  0  0  0  0  0  0  0
  196.5750  175.3360  139.1390 C   0  0  0  0  0  0  0  0  0  0  0  0
  1 16  2  0  0  0  0
  2 17  1  0  0  0  0
  3 16  1  1  0  0  0
  3  6  1  0  0  0  0
  4 14  1  6  0  0  0
  5 13  1  0  0  0  0
  6  8  1  0  0  0  0
  6 10  1  1  0  0  0
  7 20  1  0  0  0  0
  8 37  1  0  0  0  0
  8 21  1  0  0  0  0
  9 18  1  1  0  0  0
  9  5  1  0  0  0  0
  9 15  1  0  0  0  0
 11 23  1  6  0  0  0
 11 19  1  0  0  0  0
 12  3  1  0  0  0  0
 12  7  1  1  0  0  0
 13 11  1  0  0  0  0
 15  4  1  0  0  0  0
 15  1  2  0  0  0  0
 17 14  1  1  0  0  0
 17  4  1  0  0  0  0
 18  2  1  0  0  0  0
 19 22  1  6  0  0  0
 19 16  1  0  0  0  0
 20 21  1  0  0  0  0
 22 12  1  0  0  0  0
 23 26  1  0  0  0  0
 25 24  2  0  0  0  0
 25 30  1  0  0  0  0
 26 24  1  0  0  0  0
 27 28  1  0  0  0  0
 27 29  2  0  0  0  0
 28 23  2  0  0  0  0
 29 25  1  0  0  0  0
 31 29  1  0  0  0  0
 32 31  1  0  0  0  0
 32 34  1  0  0  0  0
 33 34  1  0  0  0  0
 34 35  1  0  0  0  0
 36 33  1  0  0  0  0
 36 34  1  0  0  0  0
 39 41  1  1  0  0  0
 40 50  1  0  0  0  0
 42 53  1  6  0  0  0
 42 49  1  0  0  0  0
 42 44  1  0  0  0  0
 43 46  1  0  0  0  0
 44 48  1  0  0  0  0
 45 43  1  0  0  0  0
 45 40  2  0  0  0  0
 46 39  1  0  0  0  0
 47 41  1  0  0  0  0
 48 40  1  0  0  0  0
 49 38  1  1  0  0  0
 49 45  1  0  0  0  0
 50 39  1  0  0  0  0
 50 47  1  0  0  0  0
 50 37  1  1  0  0  0
 51 53  1  0  0  0  0
 52 53  2  0  0  0  0
M  END
>  <MODEL>
3

>  <REMARK>
 VINA RESULT:      -7.8      2.319      5.106
  Name = 
  7 active torsions:
  status: ('A' for Active; 'I' for Inactive)
    1  A    between atoms: N_10  and  C_46
    2  A    between atoms: C_12  and  C_16
    3  A    between atoms: C_19  and  C_40
    4  A    between atoms: O_20  and  C_28
    5  A    between atoms: O_20  and  C_42
    6  A    between atoms: C_28  and  C_32
    7  A    between atoms: C_46  and  C_53
                            x       y       z     vdW  Elec       q    Type
                         _______ _______ _______ _____ _____    ______ ____

>  <TORSDO>
F 7

$$$$
=
 OpenBabel11062420223D

 53 62  0  0  1  0  0  0  0  0999 V2000
  193.7780  174.3360  142.1300 C   0  0  0  0  0  0  0  0  0  0  0  0
  197.1870  176.2410  142.9540 O   0  0  0  0  0  0  0  0  0  0  0  0
  192.7730  172.1660  142.0560 C   0  0  2  0  0  3  0  0  0  0  0  0
  195.5240  175.7190  141.1720 C   0  0  1  0  0  3  0  0  0  0  0  0
  193.7770  176.1020  144.4280 C   0  0  0  0  0  2  0  0  0  0  0  0
  192.7950  171.6240  140.6200 C   0  0  1  0  0  3  0  0  0  0  0  0
  190.4910  170.9590  142.3160 C   0  0  0  0  0  2  0  0  0  0  0  0
  192.8780  170.1570  140.6090 N   0  0  0  0  0  0  0  0  0  0  0  0
  195.0530  175.5770  143.7560 C   0  0  1  0  0  3  0  0  0  0  0  0
  191.7350  172.1150  139.8420 O   0  0  0  0  0  1  0  0  0  0  0  0
  191.7810  175.2360  143.9040 C   0  0  1  0  0  3  0  0  0  0  0  0
  191.6570  171.6760  142.9930 C   0  0  2  0  0  3  0  0  0  0  0  0
  192.9010  175.0460  144.7310 O   0  0  0  0  0  0  0  0  0  0  0  0
  196.8700  175.0730  140.9160 C   0  0  0  0  0  2  0  0  0  0  0  0
  194.8090  175.1000  142.3420 C   0  0  0  0  0  0  0  0  0  0  0  0
  192.6780  173.6380  142.0980 C   0  0  0  0  0  0  0  0  0  0  0  0
  196.8270  176.4280  141.6010 C   0  0  2  0  0  3  0  0  0  0  0  0
  196.1100  176.6700  143.7410 C   0  0  0  0  0  2  0  0  0  0  0  0
  191.5240  174.0230  142.9740 C   0  0  1  0  0  3  0  0  0  0  0  0
  190.8840  169.5470  141.9100 C   0  0  0  0  0  2  0  0  0  0  0  0
  191.5520  169.5430  140.5430 C   0  0  0  0  0  2  0  0  0  0  0  0
  191.1520  172.8310  143.7350 N   0  0  0  0  0  2  0  0  0  0  0  0
  190.5760  175.6170  144.7110 C   0  0  0  0  0  0  0  0  0  0  0  0
  190.3630  176.3800  147.0350 C   0  0  0  0  0  3  0  0  0  0  0  0
  189.3470  177.2450  146.9980 C   0  0  0  0  0  0  0  0  0  0  0  0
  190.4660  175.1920  146.1420 C   0  0  0  0  0  2  0  0  0  0  0  0
  188.3490  176.7440  144.7630 C   0  0  0  0  0  3  0  0  0  0  0  0
  189.5790  176.2630  144.1020 C   0  0  0  0  0  3  0  0  0  0  0  0
  188.2070  177.1440  146.0370 C   0  0  0  0  0  0  0  0  0  0  0  0
  189.3650  178.2920  147.9110 O   0  0  0  0  0  1  0  0  0  0  0  0
  186.9200  177.5470  146.4130 O   0  0  0  0  0  0  0  0  0  0  0  0
  185.7320  177.0550  145.8100 C   0  0  0  0  0  2  0  0  0  0  0  0
  184.6620  178.2870  143.8220 C   0  0  0  0  0  2  0  0  0  0  0  0
  184.8950  178.2150  145.3090 C   0  0  0  0  0  0  0  0  0  0  0  0
  183.7750  178.6670  146.1150 N   0  0  0  0  0  1  0  0  0  0  0  0
  185.5850  179.2910  144.5110 C   0  0  0  0  0  2  0  0  0  0  0  0
  193.5960  169.7700  139.4040 C   0  0  0  0  0  2  0  0  0  0  0  0
  196.1220  171.9360  143.7890 C   0  0  0  0  0  1  0  0  0  0  0  0
  196.0020  170.4100  138.8100 C   0  0  2  0  0  3  0  0  0  0  0  0
  195.3850  169.5550  141.1640 C   0  0  0  0  0  0  0  0  0  0  0  0
  196.4960  169.1600  138.0970 C   0  0  0  0  0  2  0  0  0  0  0  0
  195.9790  169.4530  144.0000 C   0  0  2  0  0  3  0  0  0  0  0  0
  196.5980  171.6440  140.7610 C   0  0  0  0  0  2  0  0  0  0  0  0
  195.8070  168.1760  143.1860 C   0  0  0  0  0  2  0  0  0  0  0  0
  196.0780  170.5890  141.6950 C   0  0  0  0  0  0  0  0  0  0  0  0
  197.1180  171.0000  139.5600 N   0  0  0  0  0  2  0  0  0  0  0  0
  195.6280  168.2830  138.9920 C   0  0  0  0  0  2  0  0  0  0  0  0
  194.8510  168.4540  142.0400 C   0  0  0  0  0  2  0  0  0  0  0  0
  196.5180  170.6160  143.1470 C   0  0  1  0  0  3  0  0  0  0  0  0
  195.0850  169.5250  139.6790 C   0  0  1  0  0  0  0  0  0  0  0  0
  196.5350  169.7360  146.4450 N   0  0  0  0  0  1  0  0  0  0  0  0
  197.9330  168.5310  145.0370 O   0  0  0  0  0  0  0  0  0  0  0  0
  196.8740  169.2010  145.1710 C   0  0  0  0  0  0  0  0  0  0  0  0
  1 15  2  0  0  0  0
  2 18  1  0  0  0  0
  3 16  1  6  0  0  0
  3 12  1  0  0  0  0
  4 14  1  6  0  0  0
  4 17  1  0  0  0  0
  4 15  1  0  0  0  0
  5 13  1  0  0  0  0
  6 10  1  1  0  0  0
  6  3  1  0  0  0  0
  8  6  1  0  0  0  0
  9 18  1  6  0  0  0
  9  5  1  0  0  0  0
 11 23  1  1  0  0  0
 11 13  1  0  0  0  0
 12  7  1  6  0  0  0
 12 22  1  0  0  0  0
 15  9  1  0  0  0  0
 16  1  2  0  0  0  0
 17 14  1  6  0  0  0
 17  2  1  0  0  0  0
 19 16  1  1  0  0  0
 19 22  1  0  0  0  0
 19 11  1  0  0  0  0
 20  7  1  0  0  0  0
 21  8  1  0  0  0  0
 21 20  1  0  0  0  0
 23 26  1  0  0  0  0
 25 24  2  0  0  0  0
 25 30  1  0  0  0  0
 26 24  1  0  0  0  0
 27 29  2  0  0  0  0
 28 23  2  0  0  0  0
 28 27  1  0  0  0  0
 29 31  1  0  0  0  0
 29 25  1  0  0  0  0
 32 31  1  0  0  0  0
 33 36  1  0  0  0  0
 33 34  1  0  0  0  0
 34 32  1  0  0  0  0
 34 35  1  0  0  0  0
 36 34  1  0  0  0  0
 37  8  1  0  0  0  0
 39 41  1  6  0  0  0
 39 46  1  0  0  0  0
 39 50  1  0  0  0  0
 40 45  2  0  0  0  0
 40 48  1  0  0  0  0
 41 47  1  0  0  0  0
 42 53  1  1  0  0  0
 43 45  1  0  0  0  0
 44 42  1  0  0  0  0
 45 49  1  0  0  0  0
 46 43  1  0  0  0  0
 47 50  1  0  0  0  0
 48 44  1  0  0  0  0
 49 38  1  1  0  0  0
 49 42  1  0  0  0  0
 50 37  1  6  0  0  0
 50 40  1  0  0  0  0
 52 53  2  0  0  0  0
 53 51  1  0  0  0  0
M  END
>  <MODEL>
4

>  <REMARK>
 VINA RESULT:      -7.6      2.619      4.098
  Name = 
  7 active torsions:
  status: ('A' for Active; 'I' for Inactive)
    1  A    between atoms: N_10  and  C_46
    2  A    between atoms: C_12  and  C_16
    3  A    between atoms: C_19  and  C_40
    4  A    between atoms: O_20  and  C_28
    5  A    between atoms: O_20  and  C_42
    6  A    between atoms: C_28  and  C_32
    7  A    between atoms: C_46  and  C_53
                            x       y       z     vdW  Elec       q    Type
                         _______ _______ _______ _____ _____    ______ ____

>  <TORSDO>
F 7

$$$$
=
 OpenBabel11062420223D

 53 62  0  0  1  0  0  0  0  0999 V2000
  193.8820  174.7420  141.6870 C   0  0  0  0  0  0  0  0  0  0  0  0
  197.0870  175.9040  143.7610 O   0  0  0  0  0  0  0  0  0  0  0  0
  192.6520  172.8110  140.9950 C   0  0  2  0  0  3  0  0  0  0  0  0
  196.0220  175.8690  141.5080 C   0  0  1  0  0  3  0  0  0  0  0  0
  193.4020  176.2510  144.1140 C   0  0  0  0  0  2  0  0  0  0  0  0
  193.0520  172.4140  139.5670 C   0  0  1  0  0  3  0  0  0  0  0  0
  190.2570  172.0220  140.3810 C   0  0  0  0  0  2  0  0  0  0  0  0
  192.9220  170.9640  139.3640 N   0  0  0  0  0  0  0  0  0  0  0  0
  194.7360  175.5680  143.7830 C   0  0  1  0  0  3  0  0  0  0  0  0
  192.3780  173.1630  138.5910 O   0  0  0  0  0  1  0  0  0  0  0  0
  191.5750  175.8180  142.8970 C   0  0  1  0  0  3  0  0  0  0  0  0
  191.2370  172.4450  141.4730 C   0  0  2  0  0  3  0  0  0  0  0  0
  192.3330  175.3480  143.9830 O   0  0  0  0  0  0  0  0  0  0  0  0
  197.2710  175.0150  141.5720 C   0  0  0  0  0  2  0  0  0  0  0  0
  194.8900  175.2820  142.3070 C   0  0  0  0  0  0  0  0  0  0  0  0
  192.7610  174.2640  141.2240 C   0  0  0  0  0  0  0  0  0  0  0  0
  197.2070  176.2830  142.4060 C   0  0  2  0  0  3  0  0  0  0  0  0
  195.8880  176.4460  144.2460 C   0  0  0  0  0  2  0  0  0  0  0  0
  191.4560  174.7670  141.7640 C   0  0  1  0  0  3  0  0  0  0  0  0
  190.5520  170.6070  139.9060 C   0  0  0  0  0  2  0  0  0  0  0  0
  191.6130  170.6120  138.8160 C   0  0  0  0  0  2  0  0  0  0  0  0
  190.6940  173.5960  142.1930 N   0  0  0  0  0  2  0  0  0  0  0  0
  190.2430  176.3340  143.3550 C   0  0  0  0  0  0  0  0  0  0  0  0
  188.3800  177.3330  142.1070 C   0  0  0  0  0  3  0  0  0  0  0  0
  187.2940  176.9070  142.7550 C   0  0  0  0  0  0  0  0  0  0  0  0
  189.6860  177.5950  142.7730 C   0  0  0  0  0  2  0  0  0  0  0  0
  188.2870  176.0470  144.8800 C   0  0  0  0  0  3  0  0  0  0  0  0
  189.6170  175.6930  144.3450 C   0  0  0  0  0  3  0  0  0  0  0  0
  187.2640  176.6130  144.2200 C   0  0  0  0  0  0  0  0  0  0  0  0
  186.1330  176.7330  142.0110 O   0  0  0  0  0  1  0  0  0  0  0  0
  186.1070  176.8520  144.9710 O   0  0  0  0  0  0  0  0  0  0  0  0
  186.1200  177.2140  146.3450 C   0  0  0  0  0  2  0  0  0  0  0  0
  184.0820  178.7710  146.1430 C   0  0  0  0  0  2  0  0  0  0  0  0
  185.5340  178.6020  146.5130 C   0  0  0  0  0  0  0  0  0  0  0  0
  185.9640  179.4100  147.6400 N   0  0  0  0  0  1  0  0  0  0  0  0
  185.1800  179.3750  145.2690 C   0  0  0  0  0  2  0  0  0  0  0  0
  193.9240  170.5700  138.3840 C   0  0  0  0  0  2  0  0  0  0  0  0
  195.4230  171.8520  143.5240 C   0  0  0  0  0  1  0  0  0  0  0  0
  196.4750  170.5830  138.5830 C   0  0  2  0  0  3  0  0  0  0  0  0
  194.9830  169.8360  140.5490 C   0  0  0  0  0  0  0  0  0  0  0  0
  196.8520  169.2720  137.9070 C   0  0  0  0  0  2  0  0  0  0  0  0
  194.6370  169.4860  143.4060 C   0  0  2  0  0  3  0  0  0  0  0  0
  196.7200  171.5510  140.7480 C   0  0  0  0  0  2  0  0  0  0  0  0
  194.4250  168.3260  142.4400 C   0  0  0  0  0  2  0  0  0  0  0  0
  195.7050  170.6360  141.3690 C   0  0  0  0  0  0  0  0  0  0  0  0
  197.4150  170.8350  139.6820 N   0  0  0  0  0  2  0  0  0  0  0  0
  195.5700  168.6210  138.4110 C   0  0  0  0  0  2  0  0  0  0  0  0
  193.9600  168.8820  141.1060 C   0  0  0  0  0  2  0  0  0  0  0  0
  195.6710  170.4970  142.8800 C   0  0  1  0  0  3  0  0  0  0  0  0
  195.1540  169.9370  139.0470 C   0  0  1  0  0  0  0  0  0  0  0  0
  196.2260  168.1900  144.8770 N   0  0  0  0  0  1  0  0  0  0  0  0
  194.3350  169.2030  145.7670 O   0  0  0  0  0  0  0  0  0  0  0  0
  195.0430  168.9690  144.7500 C   0  0  0  0  0  0  0  0  0  0  0  0
  1 15  2  0  0  0  0
  2 18  1  0  0  0  0
  3 16  1  6  0  0  0
  3 12  1  0  0  0  0
  4 14  1  6  0  0  0
  4 15  1  0  0  0  0
  4 17  1  0  0  0  0
  6 10  1  6  0  0  0
  6  3  1  0  0  0  0
  8  6  1  0  0  0  0
  9  5  1  6  0  0  0
  9 18  1  0  0  0  0
 11 23  1  1  0  0  0
 11 13  1  0  0  0  0
 12  7  1  6  0  0  0
 12 22  1  0  0  0  0
 13  5  1  0  0  0  0
 15  9  1  0  0  0  0
 16  1  2  0  0  0  0
 17 14  1  6  0  0  0
 17  2  1  0  0  0  0
 19 16  1  1  0  0  0
 19 22  1  0  0  0  0
 19 11  1  0  0  0  0
 20  7  1  0  0  0  0
 21  8  1  0  0  0  0
 21 20  1  0  0  0  0
 23 28  2  0  0  0  0
 24 25  2  0  0  0  0
 24 26  1  0  0  0  0
 25 29  1  0  0  0  0
 26 23  1  0  0  0  0
 28 27  1  0  0  0  0
 29 27  2  0  0  0  0
 29 31  1  0  0  0  0
 30 25  1  0  0  0  0
 31 32  1  0  0  0  0
 32 34  1  0  0  0  0
 33 34  1  0  0  0  0
 34 35  1  0  0  0  0
 36 33  1  0  0  0  0
 36 34  1  0  0  0  0
 37  8  1  0  0  0  0
 39 41  1  6  0  0  0
 39 50  1  0  0  0  0
 39 46  1  0  0  0  0
 40 48  1  0  0  0  0
 40 45  2  0  0  0  0
 41 47  1  0  0  0  0
 42 53  1  1  0  0  0
 43 45  1  0  0  0  0
 44 42  1  0  0  0  0
 45 49  1  0  0  0  0
 46 43  1  0  0  0  0
 47 50  1  0  0  0  0
 48 44  1  0  0  0  0
 49 42  1  0  0  0  0
 49 38  1  1  0  0  0
 50 37  1  6  0  0  0
 50 40  1  0  0  0  0
 53 51  1  0  0  0  0
 53 52  2  0  0  0  0
M  END
>  <MODEL>
5

>  <REMARK>
 VINA RESULT:      -7.4      2.739      3.893
  Name = 
  7 active torsions:
  status: ('A' for Active; 'I' for Inactive)
    1  A    between atoms: N_10  and  C_46
    2  A    between atoms: C_12  and  C_16
    3  A    between atoms: C_19  and  C_40
    4  A    between atoms: O_20  and  C_28
    5  A    between atoms: O_20  and  C_42
    6  A    between atoms: C_28  and  C_32
    7  A    between atoms: C_46  and  C_53
                            x       y       z     vdW  Elec       q    Type
                         _______ _______ _______ _____ _____    ______ ____

>  <TORSDO>
F 7

$$$$
=
 OpenBabel11062420223D

 53 62  0  0  1  0  0  0  0  0999 V2000
  191.8880  174.5240  144.4930 C   0  0  0  0  0  0  0  0  0  0  0  0
  193.5580  177.1670  146.9730 O   0  0  0  0  0  0  0  0  0  0  0  0
  190.6280  174.3370  142.4680 C   0  0  2  0  0  3  0  0  0  0  0  0
  191.8340  175.3790  146.7610 C   0  0  1  0  0  3  0  0  0  0  0  0
  194.7810  174.5170  144.6690 C   0  0  0  0  0  2  0  0  0  0  0  0
  189.1360  174.1680  142.7890 C   0  0  1  0  0  3  0  0  0  0  0  0
  190.2180  172.7550  140.4520 C   0  0  0  0  0  2  0  0  0  0  0  0
  188.2980  174.7400  141.7270 N   0  0  0  0  0  0  0  0  0  0  0  0
  193.8990  175.6750  145.1570 C   0  0  1  0  0  3  0  0  0  0  0  0
  188.7970  172.8410  143.0940 O   0  0  0  0  0  1  0  0  0  0  0  0
  193.9090  172.8740  143.4250 C   0  0  1  0  0  3  0  0  0  0  0  0
  191.1520  173.7390  141.1510 C   0  0  2  0  0  3  0  0  0  0  0  0
  194.4570  174.1660  143.3480 O   0  0  0  0  0  0  0  0  0  0  0  0
  191.2260  176.7490  146.9800 C   0  0  0  0  0  2  0  0  0  0  0  0
  192.4690  175.2490  145.4030 C   0  0  0  0  0  0  0  0  0  0  0  0
  191.4950  173.7600  143.5130 C   0  0  0  0  0  0  0  0  0  0  0  0
  192.5560  176.4260  147.6370 C   0  0  2  0  0  3  0  0  0  0  0  0
  194.4770  176.2520  146.4390 C   0  0  0  0  0  2  0  0  0  0  0  0
  192.4640  172.8140  142.8690 C   0  0  1  0  0  3  0  0  0  0  0  0
  189.0770  173.4860  139.7620 C   0  0  0  0  0  2  0  0  0  0  0  0
  187.9300  173.7350  140.7300 C   0  0  0  0  0  2  0  0  0  0  0  0
  192.4280  173.0830  141.4320 N   0  0  0  0  0  2  0  0  0  0  0  0
  194.8200  171.8660  142.7910 C   0  0  0  0  0  0  0  0  0  0  0  0
  197.0870  171.1350  143.3880 C   0  0  0  0  0  3  0  0  0  0  0  0
  197.1020  169.8400  143.0670 C   0  0  0  0  0  0  0  0  0  0  0  0
  196.2830  172.1540  142.6580 C   0  0  0  0  0  2  0  0  0  0  0  0
  195.0450  169.6510  141.6610 C   0  0  0  0  0  3  0  0  0  0  0  0
  194.2850  170.7560  142.2780 C   0  0  0  0  0  3  0  0  0  0  0  0
  196.2920  169.2510  141.9580 C   0  0  0  0  0  0  0  0  0  0  0  0
  197.9230  169.0050  143.8160 O   0  0  0  0  0  1  0  0  0  0  0  0
  196.7850  168.1740  141.2100 O   0  0  0  0  0  0  0  0  0  0  0  0
  197.9330  168.2540  140.3770 C   0  0  0  0  0  2  0  0  0  0  0  0
  196.3960  168.3990  138.3190 C   0  0  0  0  0  2  0  0  0  0  0  0
  197.5740  168.9510  139.0790 C   0  0  0  0  0  0  0  0  0  0  0  0
  197.7180  170.3930  138.9980 N   0  0  0  0  0  1  0  0  0  0  0  0
  197.8160  168.2100  137.7890 C   0  0  0  0  0  2  0  0  0  0  0  0
  187.0670  175.2080  142.3470 C   0  0  0  0  0  2  0  0  0  0  0  0
  184.2800  177.6580  146.4130 C   0  0  0  0  0  1  0  0  0  0  0  0
  186.0790  177.4230  141.5310 C   0  0  2  0  0  3  0  0  0  0  0  0
  186.8910  177.1340  143.9620 C   0  0  0  0  0  0  0  0  0  0  0  0
  187.2700  178.0630  140.8330 C   0  0  0  0  0  2  0  0  0  0  0  0
  186.7370  177.9460  146.7400 C   0  0  2  0  0  3  0  0  0  0  0  0
  184.6580  177.9500  143.3720 C   0  0  0  0  0  2  0  0  0  0  0  0
  188.0690  177.9280  145.9990 C   0  0  0  0  0  2  0  0  0  0  0  0
  185.7300  177.6830  144.3890 C   0  0  0  0  0  0  0  0  0  0  0  0
  185.2760  178.4790  142.1600 N   0  0  0  0  0  2  0  0  0  0  0  0
  188.2250  177.4220  141.8330 C   0  0  0  0  0  2  0  0  0  0  0  0
  188.0140  176.8560  144.9250 C   0  0  0  0  0  2  0  0  0  0  0  0
  185.5520  178.2190  145.7980 C   0  0  1  0  0  3  0  0  0  0  0  0
  187.0510  176.7330  142.5090 C   0  0  1  0  0  0  0  0  0  0  0  0
  187.8940  178.9940  148.7220 N   0  0  0  0  0  1  0  0  0  0  0  0
  185.8190  179.7580  148.0130 O   0  0  0  0  0  0  0  0  0  0  0  0
  186.7760  178.9540  147.8440 C   0  0  0  0  0  0  0  0  0  0  0  0
  1 15  2  0  0  0  0
  2 17  1  0  0  0  0
  3  6  1  0  0  0  0
  3 16  1  1  0  0  0
  4 14  1  6  0  0  0
  4 17  1  0  0  0  0
  6 10  1  6  0  0  0
  8 37  1  0  0  0  0
  8  6  1  0  0  0  0
  9  5  1  1  0  0  0
  9 15  1  0  0  0  0
  9 18  1  0  0  0  0
 11 23  1  6  0  0  0
 12  7  1  1  0  0  0
 12 22  1  0  0  0  0
 12  3  1  0  0  0  0
 13 11  1  0  0  0  0
 13  5  1  0  0  0  0
 15  4  1  0  0  0  0
 16  1  2  0  0  0  0
 17 14  1  6  0  0  0
 18  2  1  0  0  0  0
 19 22  1  6  0  0  0
 19 11  1  0  0  0  0
 19 16  1  0  0  0  0
 20  7  1  0  0  0  0
 20 21  1  0  0  0  0
 21  8  1  0  0  0  0
 25 24  2  0  0  0  0
 25 30  1  0  0  0  0
 26 23  1  0  0  0  0
 26 24  1  0  0  0  0
 27 29  2  0  0  0  0
 27 28  1  0  0  0  0
 28 23  2  0  0  0  0
 29 25  1  0  0  0  0
 31 29  1  0  0  0  0
 32 31  1  0  0  0  0
 33 34  1  0  0  0  0
 34 32  1  0  0  0  0
 35 34  1  0  0  0  0
 36 33  1  0  0  0  0
 36 34  1  0  0  0  0
 39 41  1  6  0  0  0
 39 46  1  0  0  0  0
 39 50  1  0  0  0  0
 40 45  2  0  0  0  0
 40 48  1  0  0  0  0
 41 47  1  0  0  0  0
 42 53  1  1  0  0  0
 43 45  1  0  0  0  0
 44 42  1  0  0  0  0
 45 49  1  0  0  0  0
 46 43  1  0  0  0  0
 47 50  1  0  0  0  0
 48 44  1  0  0  0  0
 49 38  1  1  0  0  0
 49 42  1  0  0  0  0
 50 37  1  6  0  0  0
 50 40  1  0  0  0  0
 53 52  2  0  0  0  0
 53 51  1  0  0  0  0
M  END
>  <MODEL>
6

>  <REMARK>
 VINA RESULT:      -7.2      2.580     10.781
  Name = 
  7 active torsions:
  status: ('A' for Active; 'I' for Inactive)
    1  A    between atoms: N_10  and  C_46
    2  A    between atoms: C_12  and  C_16
    3  A    between atoms: C_19  and  C_40
    4  A    between atoms: O_20  and  C_28
    5  A    between atoms: O_20  and  C_42
    6  A    between atoms: C_28  and  C_32
    7  A    between atoms: C_46  and  C_53
                            x       y       z     vdW  Elec       q    Type
                         _______ _______ _______ _____ _____    ______ ____

>  <TORSDO>
F 7

$$$$
=
 OpenBabel11062420223D

 53 62  0  0  1  0  0  0  0  0999 V2000
  194.1520  174.1500  142.4220 C   0  0  0  0  0  0  0  0  0  0  0  0
  196.7040  177.2180  142.4110 O   0  0  0  0  0  0  0  0  0  0  0  0
  191.8290  173.5980  142.5760 C   0  0  2  0  0  3  0  0  0  0  0  0
  196.0100  175.1490  143.6170 C   0  0  1  0  0  3  0  0  0  0  0  0
  195.5920  174.6540  139.9590 C   0  0  0  0  0  2  0  0  0  0  0  0
  191.4760  173.2000  144.0160 C   0  0  1  0  0  3  0  0  0  0  0  0
  190.0930  171.8240  141.8190 C   0  0  0  0  0  2  0  0  0  0  0  0
  190.0820  173.5380  144.3320 N   0  0  0  0  0  0  0  0  0  0  0  0
  195.4650  175.6750  141.0970 C   0  0  1  0  0  3  0  0  0  0  0  0
  191.7880  171.8610  144.2960 O   0  0  0  0  0  1  0  0  0  0  0  0
  194.3430  172.7970  139.9570 C   0  0  1  0  0  3  0  0  0  0  0  0
  190.9840  173.0040  141.4370 C   0  0  2  0  0  3  0  0  0  0  0  0
  194.3310  174.1550  139.5930 O   0  0  0  0  0  0  0  0  0  0  0  0
  195.7360  176.4060  144.4160 C   0  0  0  0  0  2  0  0  0  0  0  0
  195.1100  175.0290  142.4170 C   0  0  0  0  0  0  0  0  0  0  0  0
  193.2210  173.2580  142.2260 C   0  0  0  0  0  0  0  0  0  0  0  0
  196.9540  176.3660  143.5100 C   0  0  2  0  0  3  0  0  0  0  0  0
  196.7720  176.4370  141.2480 C   0  0  0  0  0  2  0  0  0  0  0  0
  193.2180  172.4480  140.9650 C   0  0  1  0  0  3  0  0  0  0  0  0
  188.8710  172.2950  142.5920 C   0  0  0  0  0  2  0  0  0  0  0  0
  189.1820  172.4140  144.0770 C   0  0  0  0  0  2  0  0  0  0  0  0
  191.8930  172.5990  140.3660 N   0  0  0  0  0  2  0  0  0  0  0  0
  194.3330  171.9160  138.7430 C   0  0  0  0  0  0  0  0  0  0  0  0
  195.2010  172.2780  136.4750 C   0  0  0  0  0  3  0  0  0  0  0  0
  195.6180  171.0690  136.0940 C   0  0  0  0  0  0  0  0  0  0  0  0
  194.0500  172.5000  137.3940 C   0  0  0  0  0  2  0  0  0  0  0  0
  194.5520  169.6080  137.8170 C   0  0  0  0  0  3  0  0  0  0  0  0
  194.4950  170.6010  138.9080 C   0  0  0  0  0  3  0  0  0  0  0  0
  195.0010  169.7920  136.5650 C   0  0  0  0  0  0  0  0  0  0  0  0
  196.6870  171.0130  135.2070 O   0  0  0  0  0  1  0  0  0  0  0  0
  194.9360  168.6780  135.7200 O   0  0  0  0  0  0  0  0  0  0  0  0
  194.1630  168.6380  134.5280 C   0  0  0  0  0  2  0  0  0  0  0  0
  192.0350  168.4310  135.9590 C   0  0  0  0  0  2  0  0  0  0  0  0
  192.7520  169.1080  134.8190 C   0  0  0  0  0  0  0  0  0  0  0  0
  192.4400  170.5190  134.6690 N   0  0  0  0  0  1  0  0  0  0  0  0
  191.6160  168.1660  134.5140 C   0  0  0  0  0  2  0  0  0  0  0  0
  190.0170  173.8320  145.7560 C   0  0  0  0  0  2  0  0  0  0  0  0
  187.1750  177.6020  142.9240 C   0  0  0  0  0  1  0  0  0  0  0  0
  191.4380  175.9320  145.4080 C   0  0  2  0  0  3  0  0  0  0  0  0
  188.8830  176.0820  145.7310 C   0  0  0  0  0  0  0  0  0  0  0  0
  191.9860  176.1780  146.8070 C   0  0  0  0  0  2  0  0  0  0  0  0
  186.4100  177.5320  145.2990 C   0  0  2  0  0  3  0  0  0  0  0  0
  190.0690  177.1080  143.8500 C   0  0  0  0  0  2  0  0  0  0  0  0
  186.8430  177.1150  146.7000 C   0  0  0  0  0  2  0  0  0  0  0  0
  188.8210  176.9060  144.6590 C   0  0  0  0  0  0  0  0  0  0  0  0
  191.2080  177.2270  144.7560 N   0  0  0  0  0  2  0  0  0  0  0  0
  190.7040  175.6340  147.4270 C   0  0  0  0  0  2  0  0  0  0  0  0
  187.6730  175.8480  146.5960 C   0  0  0  0  0  2  0  0  0  0  0  0
  187.6120  177.7770  144.3700 C   0  0  1  0  0  3  0  0  0  0  0  0
  190.1640  175.3330  146.0380 C   0  0  1  0  0  0  0  0  0  0  0  0
  184.2750  178.6720  146.0110 N   0  0  0  0  0  1  0  0  0  0  0  0
  185.9160  179.8340  144.8510 O   0  0  0  0  0  0  0  0  0  0  0  0
  185.5420  178.7480  145.3700 C   0  0  0  0  0  0  0  0  0  0  0  0
  2 17  1  0  0  0  0
  3 16  1  6  0  0  0
  3  6  1  0  0  0  0
  4 14  1  1  0  0  0
  6 10  1  6  0  0  0
  6  8  1  0  0  0  0
  7 20  1  0  0  0  0
  8 37  1  0  0  0  0
  9  5  1  6  0  0  0
  9 18  1  0  0  0  0
  9 15  1  0  0  0  0
 11 23  1  6  0  0  0
 11 19  1  0  0  0  0
 12  7  1  1  0  0  0
 12  3  1  0  0  0  0
 13 11  1  0  0  0  0
 13  5  1  0  0  0  0
 15  1  2  0  0  0  0
 15  4  1  0  0  0  0
 16  1  2  0  0  0  0
 17  4  1  0  0  0  0
 17 14  1  1  0  0  0
 18  2  1  0  0  0  0
 19 22  1  6  0  0  0
 19 16  1  0  0  0  0
 20 21  1  0  0  0  0
 21  8  1  0  0  0  0
 22 12  1  0  0  0  0
 23 28  2  0  0  0  0
 24 26  1  0  0  0  0
 25 24  2  0  0  0  0
 25 29  1  0  0  0  0
 26 23  1  0  0  0  0
 27 28  1  0  0  0  0
 29 27  2  0  0  0  0
 30 25  1  0  0  0  0
 31 29  1  0  0  0  0
 32 34  1  0  0  0  0
 32 31  1  0  0  0  0
 34 33  1  0  0  0  0
 35 34  1  0  0  0  0
 36 34  1  0  0  0  0
 36 33  1  0  0  0  0
 39 50  1  0  0  0  0
 39 41  1  1  0  0  0
 40 50  1  0  0  0  0
 40 48  1  0  0  0  0
 41 47  1  0  0  0  0
 42 53  1  1  0  0  0
 42 44  1  0  0  0  0
 43 45  1  0  0  0  0
 43 46  1  0  0  0  0
 45 40  2  0  0  0  0
 46 39  1  0  0  0  0
 48 44  1  0  0  0  0
 49 38  1  6  0  0  0
 49 45  1  0  0  0  0
 49 42  1  0  0  0  0
 50 37  1  6  0  0  0
 50 47  1  0  0  0  0
 52 53  2  0  0  0  0
 53 51  1  0  0  0  0
M  END
>  <MODEL>
7

>  <REMARK>
 VINA RESULT:      -7.2      3.412     10.097
  Name = 
  7 active torsions:
  status: ('A' for Active; 'I' for Inactive)
    1  A    between atoms: N_10  and  C_46
    2  A    between atoms: C_12  and  C_16
    3  A    between atoms: C_19  and  C_40
    4  A    between atoms: O_20  and  C_28
    5  A    between atoms: O_20  and  C_42
    6  A    between atoms: C_28  and  C_32
    7  A    between atoms: C_46  and  C_53
                            x       y       z     vdW  Elec       q    Type
                         _______ _______ _______ _____ _____    ______ ____

>  <TORSDO>
F 7

$$$$
=
 OpenBabel11062420223D

 53 62  0  0  1  0  0  0  0  0999 V2000
  191.8990  172.0580  140.9540 C   0  0  0  0  0  0  0  0  0  0  0  0
  189.5720  170.7970  137.9680 O   0  0  0  0  0  0  0  0  0  0  0  0
  193.8180  173.4010  141.4440 C   0  0  2  0  0  3  0  0  0  0  0  0
  191.1420  170.0840  139.7670 C   0  0  1  0  0  3  0  0  0  0  0  0
  189.1590  173.0010  140.9340 C   0  0  0  0  0  2  0  0  0  0  0  0
  195.0650  172.5140  141.5620 C   0  0  1  0  0  3  0  0  0  0  0  0
  194.8660  174.8660  143.3110 C   0  0  0  0  0  2  0  0  0  0  0  0
  196.2740  173.2440  141.1570 N   0  0  0  0  0  0  0  0  0  0  0  0
  189.8560  172.3790  139.7170 C   0  0  1  0  0  3  0  0  0  0  0  0
  195.1870  171.9210  142.8290 O   0  0  0  0  0  1  0  0  0  0  0  0
  190.3390  173.5760  142.7460 C   0  0  1  0  0  3  0  0  0  0  0  0
  193.7960  174.7210  142.2330 C   0  0  2  0  0  3  0  0  0  0  0  0
  189.9370  174.0360  141.4800 O   0  0  0  0  0  0  0  0  0  0  0  0
  191.7010  169.8420  138.3810 C   0  0  0  0  0  2  0  0  0  0  0  0
  191.0610  171.5490  140.1010 C   0  0  0  0  0  0  0  0  0  0  0  0
  192.5890  172.6970  141.8570 C   0  0  0  0  0  0  0  0  0  0  0  0
  190.2040  169.7040  138.6010 C   0  0  2  0  0  3  0  0  0  0  0  0
  188.8710  171.5080  138.9530 C   0  0  0  0  0  2  0  0  0  0  0  0
  191.8820  173.5240  142.8890 C   0  0  1  0  0  3  0  0  0  0  0  0
  196.2240  175.1620  142.6920 C   0  0  0  0  0  2  0  0  0  0  0  0
  196.9330  173.8740  142.3010 C   0  0  0  0  0  2  0  0  0  0  0  0
  192.4730  174.8600  142.8390 N   0  0  0  0  0  2  0  0  0  0  0  0
  189.6790  174.3630  143.8380 C   0  0  0  0  0  0  0  0  0  0  0  0
  190.4190  174.9020  146.1160 C   0  0  0  0  0  3  0  0  0  0  0  0
  189.9270  176.1230  146.3340 C   0  0  0  0  0  0  0  0  0  0  0  0
  189.7510  173.8870  145.2550 C   0  0  0  0  0  2  0  0  0  0  0  0
  188.2880  176.3410  144.4600 C   0  0  0  0  0  3  0  0  0  0  0  0
  188.9620  175.4390  143.5050 C   0  0  0  0  0  3  0  0  0  0  0  0
  188.6640  176.6310  145.7160 C   0  0  0  0  0  0  0  0  0  0  0  0
  190.6420  176.9580  147.1850 O   0  0  0  0  0  1  0  0  0  0  0  0
  187.8360  177.5170  146.4150 O   0  0  0  0  0  0  0  0  0  0  0  0
  186.4450  177.3050  146.6140 C   0  0  0  0  0  2  0  0  0  0  0  0
  184.3040  178.6120  146.0460 C   0  0  0  0  0  2  0  0  0  0  0  0
  185.7160  178.6330  146.5730 C   0  0  0  0  0  0  0  0  0  0  0  0
  185.9420  179.5880  147.6430 N   0  0  0  0  0  1  0  0  0  0  0  0
  185.4270  179.2400  145.2240 C   0  0  0  0  0  2  0  0  0  0  0  0
  197.2050  172.2720  140.6010 C   0  0  0  0  0  2  0  0  0  0  0  0
  193.8160  175.4200  137.6160 C   0  0  0  0  0  1  0  0  0  0  0  0
  195.8500  170.8240  138.9830 C   0  0  2  0  0  3  0  0  0  0  0  0
  196.5890  173.2110  138.3460 C   0  0  0  0  0  0  0  0  0  0  0  0
  196.9280  169.9440  138.3680 C   0  0  0  0  0  2  0  0  0  0  0  0
  196.1550  175.6030  136.7660 C   0  0  2  0  0  3  0  0  0  0  0  0
  194.2720  172.4330  138.2050 C   0  0  0  0  0  2  0  0  0  0  0  0
  197.4980  174.8820  136.7500 C   0  0  0  0  0  2  0  0  0  0  0  0
  195.3260  173.4650  137.9310 C   0  0  0  0  0  0  0  0  0  0  0  0
  194.8320  171.1070  137.9640 N   0  0  0  0  0  2  0  0  0  0  0  0
  197.9410  171.0780  138.4700 C   0  0  0  0  0  2  0  0  0  0  0  0
  197.6990  174.1950  138.0890 C   0  0  0  0  0  2  0  0  0  0  0  0
  194.9840  174.6410  137.0340 C   0  0  1  0  0  3  0  0  0  0  0  0
  196.8900  171.9520  139.1340 C   0  0  1  0  0  0  0  0  0  0  0  0
  196.6690  177.5400  135.2340 N   0  0  0  0  0  1  0  0  0  0  0  0
  195.1320  175.9110  134.6210 O   0  0  0  0  0  0  0  0  0  0  0  0
  195.9500  176.3380  135.4810 C   0  0  0  0  0  0  0  0  0  0  0  0
  1 16  2  0  0  0  0
  2 17  1  0  0  0  0
  2 18  1  0  0  0  0
  3  6  1  0  0  0  0
  3 16  1  1  0  0  0
  3 12  1  0  0  0  0
  4 14  1  6  0  0  0
  4 15  1  0  0  0  0
  5 13  1  0  0  0  0
  6 10  1  1  0  0  0
  8  6  1  0  0  0  0
  8 21  1  0  0  0  0
  9 18  1  1  0  0  0
  9 15  1  0  0  0  0
  9  5  1  0  0  0  0
 11 19  1  0  0  0  0
 11 23  1  1  0  0  0
 12 22  1  0  0  0  0
 12  7  1  1  0  0  0
 13 11  1  0  0  0  0
 15  1  2  0  0  0  0
 17 14  1  6  0  0  0
 17  4  1  0  0  0  0
 19 16  1  6  0  0  0
 20  7  1  0  0  0  0
 21 20  1  0  0  0  0
 22 19  1  0  0  0  0
 23 26  1  0  0  0  0
 24 25  2  0  0  0  0
 25 30  1  0  0  0  0
 26 24  1  0  0  0  0
 27 29  2  0  0  0  0
 28 23  2  0  0  0  0
 28 27  1  0  0  0  0
 29 25  1  0  0  0  0
 29 31  1  0  0  0  0
 31 32  1  0  0  0  0
 33 34  1  0  0  0  0
 34 32  1  0  0  0  0
 34 35  1  0  0  0  0
 36 33  1  0  0  0  0
 36 34  1  0  0  0  0
 37  8  1  0  0  0  0
 39 41  1  6  0  0  0
 39 50  1  0  0  0  0
 40 50  1  0  0  0  0
 41 47  1  0  0  0  0
 42 53  1  6  0  0  0
 42 49  1  0  0  0  0
 44 42  1  0  0  0  0
 44 48  1  0  0  0  0
 45 43  1  0  0  0  0
 45 40  2  0  0  0  0
 46 43  1  0  0  0  0
 46 39  1  0  0  0  0
 47 50  1  0  0  0  0
 48 40  1  0  0  0  0
 49 38  1  1  0  0  0
 49 45  1  0  0  0  0
 50 37  1  1  0  0  0
 51 53  1  0  0  0  0
 52 53  2  0  0  0  0
M  END
>  <MODEL>
8

>  <REMARK>
 VINA RESULT:      -7.1      3.444      6.642
  Name = 
  7 active torsions:
  status: ('A' for Active; 'I' for Inactive)
    1  A    between atoms: N_10  and  C_46
    2  A    between atoms: C_12  and  C_16
    3  A    between atoms: C_19  and  C_40
    4  A    between atoms: O_20  and  C_28
    5  A    between atoms: O_20  and  C_42
    6  A    between atoms: C_28  and  C_32
    7  A    between atoms: C_46  and  C_53
                            x       y       z     vdW  Elec       q    Type
                         _______ _______ _______ _____ _____    ______ ____

>  <TORSDO>
F 7

$$$$
=
 OpenBabel11062420223D

 53 62  0  0  1  0  0  0  0  0999 V2000
  192.5160  172.1830  139.7420 C   0  0  0  0  0  0  0  0  0  0  0  0
  189.7000  170.5890  137.4060 O   0  0  0  0  0  0  0  0  0  0  0  0
  194.2090  173.8720  139.8120 C   0  0  2  0  0  3  0  0  0  0  0  0
  191.8290  170.1440  138.6240 C   0  0  1  0  0  3  0  0  0  0  0  0
  189.7620  172.5390  140.5710 C   0  0  0  0  0  2  0  0  0  0  0  0
  195.5800  173.2580  139.4940 C   0  0  1  0  0  3  0  0  0  0  0  0
  195.4620  175.4460  141.4510 C   0  0  0  0  0  2  0  0  0  0  0  0
  196.4610  174.2370  138.8440 N   0  0  0  0  0  0  0  0  0  0  0  0
  190.1800  172.1240  139.1540 C   0  0  1  0  0  3  0  0  0  0  0  0
  196.1710  172.6530  140.6140 O   0  0  0  0  0  1  0  0  0  0  0  0
  191.2890  173.2730  142.0340 C   0  0  1  0  0  3  0  0  0  0  0  0
  194.1710  175.1260  140.7010 C   0  0  2  0  0  3  0  0  0  0  0  0
  190.4580  173.6900  140.9800 O   0  0  0  0  0  0  0  0  0  0  0  0
  191.9960  170.0780  137.1200 C   0  0  0  0  0  2  0  0  0  0  0  0
  191.5760  171.5460  139.1080 C   0  0  0  0  0  0  0  0  0  0  0  0
  193.3070  172.9130  140.4780 C   0  0  0  0  0  0  0  0  0  0  0  0
  190.6810  169.6260  137.7310 C   0  0  2  0  0  3  0  0  0  0  0  0
  189.1960  171.1000  138.6110 C   0  0  0  0  0  2  0  0  0  0  0  0
  192.7880  173.5350  141.7400 C   0  0  1  0  0  3  0  0  0  0  0  0
  196.5010  176.0410  140.5130 C   0  0  0  0  0  2  0  0  0  0  0  0
  197.2930  174.9430  139.8180 C   0  0  0  0  0  2  0  0  0  0  0  0
  193.0790  174.9650  141.6600 N   0  0  0  0  0  2  0  0  0  0  0  0
  190.8390  173.8620  143.3370 C   0  0  0  0  0  0  0  0  0  0  0  0
  192.1150  174.6590  145.2770 C   0  0  0  0  0  3  0  0  0  0  0  0
  191.3980  175.6880  145.7340 C   0  0  0  0  0  0  0  0  0  0  0  0
  191.5160  173.4680  144.6130 C   0  0  0  0  0  2  0  0  0  0  0  0
  189.2350  175.3610  144.5260 C   0  0  0  0  0  3  0  0  0  0  0  0
  189.7760  174.6700  143.3390 C   0  0  0  0  0  3  0  0  0  0  0  0
  189.9120  175.7850  145.6060 C   0  0  0  0  0  0  0  0  0  0  0  0
  192.0870  176.7190  146.3600 O   0  0  0  0  0  1  0  0  0  0  0  0
  189.1510  176.4080  146.6020 O   0  0  0  0  0  0  0  0  0  0  0  0
  187.8030  176.0670  146.8930 C   0  0  0  0  0  2  0  0  0  0  0  0
  185.7350  177.0630  145.7310 C   0  0  0  0  0  2  0  0  0  0  0  0
  186.9100  177.2680  146.6530 C   0  0  0  0  0  0  0  0  0  0  0  0
  186.6560  178.1810  147.7530 N   0  0  0  0  0  1  0  0  0  0  0  0
  186.9310  177.9030  145.2870 C   0  0  0  0  0  2  0  0  0  0  0  0
  197.3540  173.5010  137.9610 C   0  0  0  0  0  2  0  0  0  0  0  0
  192.1260  174.7110  136.7350 C   0  0  0  0  0  1  0  0  0  0  0  0
  196.5430  172.0460  136.0190 C   0  0  2  0  0  3  0  0  0  0  0  0
  195.7130  174.4700  136.3140 C   0  0  0  0  0  0  0  0  0  0  0  0
  197.6850  172.1810  135.0230 C   0  0  0  0  0  2  0  0  0  0  0  0
  193.6620  176.4630  135.8410 C   0  0  2  0  0  3  0  0  0  0  0  0
  194.2130  172.5500  136.0650 C   0  0  0  0  0  2  0  0  0  0  0  0
  195.1100  176.7130  135.4350 C   0  0  0  0  0  2  0  0  0  0  0  0
  194.4450  174.0310  136.1350 C   0  0  0  0  0  0  0  0  0  0  0  0
  195.2800  171.9390  135.2780 N   0  0  0  0  0  2  0  0  0  0  0  0
  197.9410  173.6120  135.4810 C   0  0  0  0  0  2  0  0  0  0  0  0
  196.0190  175.9420  136.3750 C   0  0  0  0  0  2  0  0  0  0  0  0
  193.2980  174.9690  135.8020 C   0  0  1  0  0  3  0  0  0  0  0  0
  196.8380  173.4750  136.5170 C   0  0  1  0  0  0  0  0  0  0  0  0
  193.0650  178.5960  134.6320 N   0  0  0  0  0  1  0  0  0  0  0  0
  191.6680  176.7440  134.5420 O   0  0  0  0  0  0  0  0  0  0  0  0
  192.7400  177.2530  134.9680 C   0  0  0  0  0  0  0  0  0  0  0  0
  1 16  2  0  0  0  0
  2 17  1  0  0  0  0
  2 18  1  0  0  0  0
  3 16  1  1  0  0  0
  3 12  1  0  0  0  0
  4 14  1  6  0  0  0
  4 15  1  0  0  0  0
  5 13  1  0  0  0  0
  6  3  1  0  0  0  0
  6 10  1  1  0  0  0
  8  6  1  0  0  0  0
  8 21  1  0  0  0  0
  9 18  1  1  0  0  0
  9  5  1  0  0  0  0
 11 23  1  1  0  0  0
 12  7  1  1  0  0  0
 12 22  1  0  0  0  0
 13 11  1  0  0  0  0
 15  9  1  0  0  0  0
 15  1  2  0  0  0  0
 17 14  1  6  0  0  0
 17  4  1  0  0  0  0
 19 16  1  6  0  0  0
 19 11  1  0  0  0  0
 20  7  1  0  0  0  0
 21 20  1  0  0  0  0
 22 19  1  0  0  0  0
 23 28  2  0  0  0  0
 23 26  1  0  0  0  0
 24 25  2  0  0  0  0
 25 30  1  0  0  0  0
 26 24  1  0  0  0  0
 27 29  2  0  0  0  0
 28 27  1  0  0  0  0
 29 25  1  0  0  0  0
 29 31  1  0  0  0  0
 31 32  1  0  0  0  0
 33 34  1  0  0  0  0
 34 32  1  0  0  0  0
 34 35  1  0  0  0  0
 36 33  1  0  0  0  0
 36 34  1  0  0  0  0
 37  8  1  0  0  0  0
 39 41  1  6  0  0  0
 39 50  1  0  0  0  0
 40 48  1  0  0  0  0
 40 50  1  0  0  0  0
 41 47  1  0  0  0  0
 42 53  1  6  0  0  0
 43 45  1  0  0  0  0
 44 42  1  0  0  0  0
 44 48  1  0  0  0  0
 45 40  2  0  0  0  0
 46 39  1  0  0  0  0
 46 43  1  0  0  0  0
 47 50  1  0  0  0  0
 49 42  1  0  0  0  0
 49 45  1  0  0  0  0
 49 38  1  1  0  0  0
 50 37  1  1  0  0  0
 51 53  1  0  0  0  0
 52 53  2  0  0  0  0
M  END
>  <MODEL>
9

>  <REMARK>
 VINA RESULT:      -6.9      4.121      7.708
  Name = 
  7 active torsions:
  status: ('A' for Active; 'I' for Inactive)
    1  A    between atoms: N_10  and  C_46
    2  A    between atoms: C_12  and  C_16
    3  A    between atoms: C_19  and  C_40
    4  A    between atoms: O_20  and  C_28
    5  A    between atoms: O_20  and  C_42
    6  A    between atoms: C_28  and  C_32
    7  A    between atoms: C_46  and  C_53
                            x       y       z     vdW  Elec       q    Type
                         _______ _______ _______ _____ _____    ______ ____

>  <TORSDO>
F 7

$$$$
