=
 OpenBabel11062421153D

 33 35  0  0  1  0  0  0  0  0999 V2000
  188.2370  172.6890  142.2800 O   0  0  0  0  0  0  0  0  0  0  0  0
  190.0200  175.6660  143.2070 C   0  0  0  0  0  0  0  0  0  0  0  0
  188.1290  176.2770  141.7310 C   0  0  0  0  0  0  0  0  0  0  0  0
  189.2420  176.6190  142.3830 C   0  0  0  0  0  3  0  0  0  0  0  0
  189.6670  174.3560  143.2330 C   0  0  0  0  0  0  0  0  0  0  0  0
  187.5220  174.9130  141.8740 C   0  0  0  0  0  2  0  0  0  0  0  0
  188.4800  173.9130  142.4490 C   0  0  0  0  0  0  0  0  0  0  0  0
  190.9890  177.1250  144.8110 O   0  0  0  0  0  0  0  0  0  0  0  0
  192.5170  175.7590  143.7170 N   0  0  0  0  0  2  0  0  0  0  0  0
  191.1830  176.2260  143.9480 C   0  0  0  0  0  0  0  0  0  0  0  0
  193.6780  176.2900  144.4200 C   0  0  2  0  0  3  0  0  0  0  0  0
  196.3080  174.9230  142.4550 C   0  0  0  0  0  3  0  0  0  0  0  0
  194.9350  175.9540  143.6810 C   0  0  0  0  0  0  0  0  0  0  0  0
  196.9660  176.0300  142.8600 N   0  0  0  0  0  0  0  0  0  0  0  0
  196.0950  176.6960  143.6430 C   0  0  0  0  0  3  0  0  0  0  0  0
  195.0920  174.8820  142.9490 O   0  0  0  0  0  0  0  0  0  0  0  0
  193.7390  175.7230  145.8290 C   0  0  0  0  0  2  0  0  0  0  0  0
  194.1540  176.7990  146.8140 C   0  0  0  0  0  1  0  0  0  0  0  0
  189.9870  172.7830  144.9930 N   0  0  0  0  0  2  0  0  0  0  0  0
  190.4450  173.4110  143.9870 N   0  0  0  0  0  0  0  0  0  0  0  0
  187.3940  177.3070  140.9430 C   0  0  0  0  0  2  0  0  0  0  0  0
  186.8900  178.4130  141.8540 C   0  0  0  0  0  2  0  0  0  0  0  0
  185.3790  178.3300  142.0030 C   0  0  0  0  0  2  0  0  0  0  0  0
  184.9800  178.2710  143.4690 C   0  0  1  0  0  3  0  0  0  0  0  0
  185.6460  179.0930  145.5520 C   0  0  0  0  0  2  0  0  0  0  0  0
  185.6220  177.1930  144.1070 O   0  0  0  0  0  0  0  0  0  0  0  0
  185.1530  176.8200  146.4120 C   0  0  0  0  0  1  0  0  0  0  0  0
  185.3790  179.5470  144.1560 C   0  0  0  0  0  2  0  0  0  0  0  0
  185.9680  177.6170  145.4060 C   0  0  2  0  0  0  0  0  0  0  0  0
  187.4680  177.3680  145.6080 C   0  0  0  0  0  2  0  0  0  0  0  0
  187.8010  176.5490  146.8530 C   0  0  0  0  0  2  0  0  0  0  0  0
  188.4930  175.3910  146.4980 O   0  0  0  0  0  0  0  0  0  0  0  0
  189.5760  175.4130  147.2450 O   0  0  0  0  0  1  0  0  0  0  0  0
  1  7  2  0  0  0  0
  2  5  2  0  0  0  0
  2 10  1  0  0  0  0
  3  6  1  0  0  0  0
  3  4  2  0  0  0  0
  4  2  1  0  0  0  0
  5 20  1  0  0  0  0
  6  7  1  0  0  0  0
  7  5  1  0  0  0  0
  9 10  1  0  0  0  0
  9 11  1  0  0  0  0
 10  8  2  0  0  0  0
 11 17  1  1  0  0  0
 12 14  2  0  0  0  0
 12 16  1  0  0  0  0
 13 11  1  0  0  0  0
 14 15  1  0  0  0  0
 15 13  2  0  0  0  0
 16 13  1  0  0  0  0
 17 18  1  0  0  0  0
 20 19  2  0  0  0  0
 21  3  1  0  0  0  0
 21 22  1  0  0  0  0
 22 23  1  0  0  0  0
 24 23  1  6  0  0  0
 24 26  1  0  0  0  0
 24 28  1  0  0  0  0
 26 29  1  0  0  0  0
 28 25  1  0  0  0  0
 29 25  1  0  0  0  0
 29 30  1  0  0  0  0
 29 27  1  1  0  0  0
 30 31  1  0  0  0  0
 32 31  1  0  0  0  0
 32 33  1  0  0  0  0
M  END
>  <MODEL>
1

>  <REMARK>
 VINA RESULT:      -6.6      0.000      0.000
  Name = 
  12 active torsions:
  status: ('A' for Active; 'I' for Inactive)
    1  A    between atoms: C_1  and  C_9
    2  A    between atoms: C_1  and  C_10
    3  A    between atoms: C_5  and  C_14
    4  A    between atoms: N_6  and  C_14
    5  A    between atoms: C_7  and  C_10
    6  A    between atoms: C_7  and  C_13
    7  A    between atoms: C_8  and  C_16
    8  A    between atoms: C_8  and  C_26
    9  A    between atoms: N_11  and  C_17
   10  A    between atoms: C_12  and  C_19
   11  A    between atoms: C_14  and  C_28
   12  A    between atoms: C_16  and  O_27
                            x       y       z     vdW  Elec       q    Type
                         _______ _______ _______ _____ _____    ______ ____

>  <TORSDO>
F 12

$$$$
=
 OpenBabel11062421153D

 33 35  0  0  1  0  0  0  0  0999 V2000
  190.9470  178.6110  143.9400 O   0  0  0  0  0  0  0  0  0  0  0  0
  189.9420  175.1980  143.4510 C   0  0  0  0  0  0  0  0  0  0  0  0
  188.4470  176.6810  142.1480 C   0  0  0  0  0  0  0  0  0  0  0  0
  188.7480  175.4680  142.6180 C   0  0  0  0  0  3  0  0  0  0  0  0
  190.7250  176.2290  143.8570 C   0  0  0  0  0  0  0  0  0  0  0  0
  189.3660  177.8490  142.3460 C   0  0  0  0  0  2  0  0  0  0  0  0
  190.3770  177.6130  143.4270 C   0  0  0  0  0  0  0  0  0  0  0  0
  189.6170  173.2920  144.8300 O   0  0  0  0  0  0  0  0  0  0  0  0
  191.0460  172.9380  143.0320 N   0  0  0  0  0  2  0  0  0  0  0  0
  190.1880  173.7760  143.8150 C   0  0  0  0  0  0  0  0  0  0  0  0
  191.3140  171.5430  143.3630 C   0  0  2  0  0  3  0  0  0  0  0  0
  194.1220  171.9310  145.5100 C   0  0  0  0  0  3  0  0  0  0  0  0
  192.5620  171.4310  144.1800 C   0  0  0  0  0  0  0  0  0  0  0  0
  194.3970  170.6710  145.1080 N   0  0  0  0  0  0  0  0  0  0  0  0
  193.4040  170.3440  144.2580 C   0  0  0  0  0  3  0  0  0  0  0  0
  193.0220  172.3810  144.9520 O   0  0  0  0  0  0  0  0  0  0  0  0
  191.4510  170.7220  142.0910 C   0  0  0  0  0  2  0  0  0  0  0  0
  191.8620  171.6090  140.9330 C   0  0  0  0  0  1  0  0  0  0  0  0
  193.0400  175.8500  144.2670 N   0  0  0  0  0  2  0  0  0  0  0  0
  191.8570  175.9860  144.7090 N   0  0  0  0  0  0  0  0  0  0  0  0
  187.2380  176.8590  141.2960 C   0  0  0  0  0  2  0  0  0  0  0  0
  186.5040  178.1340  141.6760 C   0  0  0  0  0  2  0  0  0  0  0  0
  185.0570  177.8280  142.0270 C   0  0  0  0  0  2  0  0  0  0  0  0
  184.7880  178.0890  143.5020 C   0  0  1  0  0  3  0  0  0  0  0  0
  185.6780  179.2640  145.3130 C   0  0  0  0  0  2  0  0  0  0  0  0
  185.4310  177.1200  144.2940 O   0  0  0  0  0  0  0  0  0  0  0  0
  185.1540  177.2470  146.6560 C   0  0  0  0  0  1  0  0  0  0  0  0
  185.3090  179.4470  143.8790 C   0  0  0  0  0  2  0  0  0  0  0  0
  185.9130  177.7710  145.4480 C   0  0  2  0  0  0  0  0  0  0  0  0
  187.4110  177.4690  145.5790 C   0  0  0  0  0  2  0  0  0  0  0  0
  187.7210  176.1460  146.2760 C   0  0  0  0  0  2  0  0  0  0  0  0
  188.9820  176.1980  146.8700 O   0  0  0  0  0  0  0  0  0  0  0  0
  189.1090  175.0360  147.4730 O   0  0  0  0  0  1  0  0  0  0  0  0
  2 10  1  0  0  0  0
  2  5  2  0  0  0  0
  3  6  1  0  0  0  0
  3  4  2  0  0  0  0
  4  2  1  0  0  0  0
  5 20  1  0  0  0  0
  6  7  1  0  0  0  0
  7  5  1  0  0  0  0
  7  1  2  0  0  0  0
  9 11  1  0  0  0  0
  9 10  1  0  0  0  0
 10  8  2  0  0  0  0
 11 17  1  6  0  0  0
 11 13  1  0  0  0  0
 13 15  2  0  0  0  0
 13 16  1  0  0  0  0
 14 12  2  0  0  0  0
 15 14  1  0  0  0  0
 16 12  1  0  0  0  0
 18 17  1  0  0  0  0
 19 20  2  0  0  0  0
 21 22  1  0  0  0  0
 21  3  1  0  0  0  0
 22 23  1  0  0  0  0
 24 23  1  6  0  0  0
 24 28  1  0  0  0  0
 24 26  1  0  0  0  0
 25 29  1  0  0  0  0
 26 29  1  0  0  0  0
 28 25  1  0  0  0  0
 29 30  1  0  0  0  0
 29 27  1  1  0  0  0
 30 31  1  0  0  0  0
 31 32  1  0  0  0  0
 32 33  1  0  0  0  0
M  END
>  <MODEL>
2

>  <REMARK>
 VINA RESULT:      -6.4      2.301      3.658
  Name = 
  12 active torsions:
  status: ('A' for Active; 'I' for Inactive)
    1  A    between atoms: C_1  and  C_9
    2  A    between atoms: C_1  and  C_10
    3  A    between atoms: C_5  and  C_14
    4  A    between atoms: N_6  and  C_14
    5  A    between atoms: C_7  and  C_10
    6  A    between atoms: C_7  and  C_13
    7  A    between atoms: C_8  and  C_16
    8  A    between atoms: C_8  and  C_26
    9  A    between atoms: N_11  and  C_17
   10  A    between atoms: C_12  and  C_19
   11  A    between atoms: C_14  and  C_28
   12  A    between atoms: C_16  and  O_27
                            x       y       z     vdW  Elec       q    Type
                         _______ _______ _______ _____ _____    ______ ____

>  <TORSDO>
F 12

$$$$
=
 OpenBabel11062421153D

 33 35  0  0  1  0  0  0  0  0999 V2000
  184.4620  178.8820  140.3370 O   0  0  0  0  0  0  0  0  0  0  0  0
  186.9880  176.8340  141.8600 C   0  0  0  0  0  0  0  0  0  0  0  0
  185.3550  177.5310  143.5860 C   0  0  0  0  0  0  0  0  0  0  0  0
  186.5130  176.9520  143.2580 C   0  0  0  0  0  3  0  0  0  0  0  0
  186.2870  177.4230  140.8600 C   0  0  0  0  0  0  0  0  0  0  0  0
  184.3940  178.0130  142.5410 C   0  0  0  0  0  2  0  0  0  0  0  0
  185.0310  178.1550  141.1910 C   0  0  0  0  0  0  0  0  0  0  0  0
  189.3390  176.5680  142.0640 O   0  0  0  0  0  0  0  0  0  0  0  0
  188.2650  174.7960  141.0110 N   0  0  0  0  0  2  0  0  0  0  0  0
  188.2520  176.0760  141.6530 C   0  0  0  0  0  0  0  0  0  0  0  0
  189.4860  174.0320  140.7860 C   0  0  2  0  0  3  0  0  0  0  0  0
  190.4170  173.1850  137.4610 C   0  0  0  0  0  3  0  0  0  0  0  0
  189.5890  173.6220  139.3510 C   0  0  0  0  0  0  0  0  0  0  0  0
  189.0960  172.9390  137.3270 N   0  0  0  0  0  0  0  0  0  0  0  0
  188.5580  173.2160  138.5310 C   0  0  0  0  0  3  0  0  0  0  0  0
  190.7070  173.5930  138.6750 O   0  0  0  0  0  0  0  0  0  0  0  0
  189.5020  172.8000  141.6780 C   0  0  0  0  0  2  0  0  0  0  0  0
  188.1290  172.5650  142.2770 C   0  0  0  0  0  1  0  0  0  0  0  0
  186.3090  176.5410  138.6480 N   0  0  0  0  0  2  0  0  0  0  0  0
  186.7650  177.3600  139.5050 N   0  0  0  0  0  0  0  0  0  0  0  0
  184.9420  177.5860  145.0170 C   0  0  0  0  0  2  0  0  0  0  0  0
  186.1110  178.0080  145.8910 C   0  0  0  0  0  2  0  0  0  0  0  0
  186.5590  176.8520  146.7710 C   0  0  0  0  0  2  0  0  0  0  0  0
  188.0660  176.8760  146.9740 C   0  0  1  0  0  3  0  0  0  0  0  0
  190.0480  176.9570  145.7410 C   0  0  0  0  0  2  0  0  0  0  0  0
  188.5760  175.5640  147.0020 O   0  0  0  0  0  0  0  0  0  0  0  0
  190.9140  175.2830  147.3510 C   0  0  0  0  0  1  0  0  0  0  0  0
  188.7180  177.6250  145.8460 C   0  0  0  0  0  2  0  0  0  0  0  0
  189.8200  175.5810  146.3400 C   0  0  2  0  0  0  0  0  0  0  0  0
  189.7940  174.5110  145.2410 C   0  0  0  0  0  2  0  0  0  0  0  0
  191.1620  173.9100  144.9250 C   0  0  0  0  0  2  0  0  0  0  0  0
  191.7110  174.5250  143.8000 O   0  0  0  0  0  0  0  0  0  0  0  0
  192.7690  175.1580  144.2550 O   0  0  0  0  0  1  0  0  0  0  0  0
  1  7  2  0  0  0  0
  2  4  1  0  0  0  0
  3 21  1  0  0  0  0
  4  3  2  0  0  0  0
  5  7  1  0  0  0  0
  5  2  2  0  0  0  0
  6  3  1  0  0  0  0
  7  6  1  0  0  0  0
  9 10  1  0  0  0  0
 10  2  1  0  0  0  0
 10  8  2  0  0  0  0
 11  9  1  0  0  0  0
 11 17  1  1  0  0  0
 12 16  1  0  0  0  0
 13 11  1  0  0  0  0
 14 12  2  0  0  0  0
 14 15  1  0  0  0  0
 15 13  2  0  0  0  0
 16 13  1  0  0  0  0
 17 18  1  0  0  0  0
 19 20  2  0  0  0  0
 20  5  1  0  0  0  0
 21 22  1  0  0  0  0
 22 23  1  0  0  0  0
 24 23  1  6  0  0  0
 24 26  1  0  0  0  0
 25 28  1  0  0  0  0
 25 29  1  0  0  0  0
 28 24  1  0  0  0  0
 29 26  1  0  0  0  0
 29 27  1  1  0  0  0
 30 29  1  0  0  0  0
 31 30  1  0  0  0  0
 32 33  1  0  0  0  0
 32 31  1  0  0  0  0
M  END
>  <MODEL>
3

>  <REMARK>
 VINA RESULT:      -6.3      3.279      5.832
  Name = 
  12 active torsions:
  status: ('A' for Active; 'I' for Inactive)
    1  A    between atoms: C_1  and  C_9
    2  A    between atoms: C_1  and  C_10
    3  A    between atoms: C_5  and  C_14
    4  A    between atoms: N_6  and  C_14
    5  A    between atoms: C_7  and  C_10
    6  A    between atoms: C_7  and  C_13
    7  A    between atoms: C_8  and  C_16
    8  A    between atoms: C_8  and  C_26
    9  A    between atoms: N_11  and  C_17
   10  A    between atoms: C_12  and  C_19
   11  A    between atoms: C_14  and  C_28
   12  A    between atoms: C_16  and  O_27
                            x       y       z     vdW  Elec       q    Type
                         _______ _______ _______ _____ _____    ______ ____

>  <TORSDO>
F 12

$$$$
=
 OpenBabel11062421153D

 33 35  0  0  1  0  0  0  0  0999 V2000
  187.7540  174.7320  138.9810 O   0  0  0  0  0  0  0  0  0  0  0  0
  188.1470  176.0380  142.3030 C   0  0  0  0  0  0  0  0  0  0  0  0
  188.9010  173.6800  142.2610 C   0  0  0  0  0  0  0  0  0  0  0  0
  188.6030  174.7860  142.9480 C   0  0  0  0  0  3  0  0  0  0  0  0
  187.9120  176.0590  140.9670 C   0  0  0  0  0  0  0  0  0  0  0  0
  188.8950  173.6620  140.7620 C   0  0  0  0  0  2  0  0  0  0  0  0
  188.1480  174.8200  140.1730 C   0  0  0  0  0  0  0  0  0  0  0  0
  188.9420  177.9220  143.5120 O   0  0  0  0  0  0  0  0  0  0  0  0
  186.6540  177.5620  143.7000 N   0  0  0  0  0  2  0  0  0  0  0  0
  187.9480  177.2110  143.1980 C   0  0  0  0  0  0  0  0  0  0  0  0
  186.4260  178.7000  144.5830 C   0  0  2  0  0  3  0  0  0  0  0  0
  186.1590  176.9730  147.6800 C   0  0  0  0  0  3  0  0  0  0  0  0
  186.2250  178.2350  145.9910 C   0  0  0  0  0  0  0  0  0  0  0  0
  185.7690  178.1830  148.1350 N   0  0  0  0  0  0  0  0  0  0  0  0
  185.8090  178.9970  147.0610 C   0  0  0  0  0  3  0  0  0  0  0  0
  186.4320  177.0100  146.3960 O   0  0  0  0  0  0  0  0  0  0  0  0
  185.2100  179.4850  144.1180 C   0  0  0  0  0  2  0  0  0  0  0  0
  184.0920  178.5410  143.7220 C   0  0  0  0  0  1  0  0  0  0  0  0
  186.1820  177.4730  140.1410 N   0  0  0  0  0  2  0  0  0  0  0  0
  187.4180  177.2540  140.3370 N   0  0  0  0  0  0  0  0  0  0  0  0
  189.3760  172.4700  142.9890 C   0  0  0  0  0  2  0  0  0  0  0  0
  189.8840  172.8470  144.3710 C   0  0  0  0  0  2  0  0  0  0  0  0
  191.3300  172.4110  144.5410 C   0  0  0  0  0  2  0  0  0  0  0  0
  192.2670  173.6090  144.5080 C   0  0  1  0  0  3  0  0  0  0  0  0
  193.7670  174.7600  145.8790 C   0  0  0  0  0  2  0  0  0  0  0  0
  191.5850  174.7730  144.9110 O   0  0  0  0  0  0  0  0  0  0  0  0
  192.7910  176.8260  144.9170 C   0  0  0  0  0  1  0  0  0  0  0  0
  193.4210  173.3770  145.4420 C   0  0  0  0  0  2  0  0  0  0  0  0
  192.4840  175.5450  145.6740 C   0  0  2  0  0  0  0  0  0  0  0  0
  191.8220  175.8600  147.0220 C   0  0  0  0  0  2  0  0  0  0  0  0
  190.2990  175.7520  147.0080 C   0  0  0  0  0  2  0  0  0  0  0  0
  189.7380  176.9150  146.4770 O   0  0  0  0  0  0  0  0  0  0  0  0
  189.6960  177.7520  147.4910 O   0  0  0  0  0  1  0  0  0  0  0  0
  1  7  2  0  0  0  0
  2  4  1  0  0  0  0
  2 10  1  0  0  0  0
  3  4  2  0  0  0  0
  3 21  1  0  0  0  0
  5  2  2  0  0  0  0
  6  3  1  0  0  0  0
  7  6  1  0  0  0  0
  7  5  1  0  0  0  0
  9 11  1  0  0  0  0
 10  8  2  0  0  0  0
 10  9  1  0  0  0  0
 11 17  1  6  0  0  0
 11 13  1  0  0  0  0
 12 14  2  0  0  0  0
 13 16  1  0  0  0  0
 13 15  2  0  0  0  0
 15 14  1  0  0  0  0
 16 12  1  0  0  0  0
 18 17  1  0  0  0  0
 19 20  2  0  0  0  0
 20  5  1  0  0  0  0
 21 22  1  0  0  0  0
 22 23  1  0  0  0  0
 24 23  1  1  0  0  0
 24 26  1  0  0  0  0
 24 28  1  0  0  0  0
 26 29  1  0  0  0  0
 28 25  1  0  0  0  0
 29 27  1  6  0  0  0
 29 25  1  0  0  0  0
 29 30  1  0  0  0  0
 31 30  1  0  0  0  0
 32 31  1  0  0  0  0
 32 33  1  0  0  0  0
M  END
>  <MODEL>
4

>  <REMARK>
 VINA RESULT:      -6.3      3.173      7.115
  Name = 
  12 active torsions:
  status: ('A' for Active; 'I' for Inactive)
    1  A    between atoms: C_1  and  C_9
    2  A    between atoms: C_1  and  C_10
    3  A    between atoms: C_5  and  C_14
    4  A    between atoms: N_6  and  C_14
    5  A    between atoms: C_7  and  C_10
    6  A    between atoms: C_7  and  C_13
    7  A    between atoms: C_8  and  C_16
    8  A    between atoms: C_8  and  C_26
    9  A    between atoms: N_11  and  C_17
   10  A    between atoms: C_12  and  C_19
   11  A    between atoms: C_14  and  C_28
   12  A    between atoms: C_16  and  O_27
                            x       y       z     vdW  Elec       q    Type
                         _______ _______ _______ _____ _____    ______ ____

>  <TORSDO>
F 12

$$$$
=
 OpenBabel11062421153D

 33 35  0  0  1  0  0  0  0  0999 V2000
  188.6230  175.3820  147.2610 O   0  0  0  0  0  0  0  0  0  0  0  0
  191.5460  175.9920  145.2660 C   0  0  0  0  0  0  0  0  0  0  0  0
  189.5990  175.6520  143.7740 C   0  0  0  0  0  0  0  0  0  0  0  0
  190.9160  175.8000  143.9400 C   0  0  0  0  0  3  0  0  0  0  0  0
  190.7880  175.9130  146.3880 C   0  0  0  0  0  0  0  0  0  0  0  0
  188.6440  175.7770  144.9240 C   0  0  0  0  0  2  0  0  0  0  0  0
  189.3250  175.6630  146.2550 C   0  0  0  0  0  0  0  0  0  0  0  0
  193.4400  177.4200  145.3920 O   0  0  0  0  0  0  0  0  0  0  0  0
  193.9560  175.1660  145.1640 N   0  0  0  0  0  2  0  0  0  0  0  0
  193.0140  176.2380  145.2730 C   0  0  0  0  0  0  0  0  0  0  0  0
  195.4000  175.3720  145.1610 C   0  0  2  0  0  3  0  0  0  0  0  0
  195.9040  175.8130  141.6690 C   0  0  0  0  0  3  0  0  0  0  0  0
  195.8990  175.5460  143.7610 C   0  0  0  0  0  0  0  0  0  0  0  0
  197.2080  175.7700  142.0170 N   0  0  0  0  0  0  0  0  0  0  0  0
  197.2140  175.6000  143.3540 C   0  0  0  0  0  3  0  0  0  0  0  0
  195.1240  175.6800  142.7170 O   0  0  0  0  0  0  0  0  0  0  0  0
  196.0970  174.1910  145.8170 C   0  0  0  0  0  2  0  0  0  0  0  0
  195.4210  172.8930  145.4200 C   0  0  0  0  0  1  0  0  0  0  0  0
  191.2990  177.0980  148.3900 N   0  0  0  0  0  2  0  0  0  0  0  0
  191.3960  176.0460  147.6840 N   0  0  0  0  0  0  0  0  0  0  0  0
  189.0460  175.4870  142.4010 C   0  0  0  0  0  2  0  0  0  0  0  0
  187.5330  175.6200  142.4180 C   0  0  0  0  0  2  0  0  0  0  0  0
  187.0690  176.5410  141.3010 C   0  0  0  0  0  2  0  0  0  0  0  0
  186.2180  177.6760  141.8510 C   0  0  1  0  0  3  0  0  0  0  0  0
  186.1650  179.1870  143.6310 C   0  0  0  0  0  2  0  0  0  0  0  0
  185.2460  177.1740  142.7360 O   0  0  0  0  0  0  0  0  0  0  0  0
  183.7320  178.7220  143.7250 C   0  0  0  0  0  1  0  0  0  0  0  0
  187.0910  178.6500  142.5920 C   0  0  0  0  0  2  0  0  0  0  0  0
  185.1170  178.1000  143.7900 C   0  0  2  0  0  0  0  0  0  0  0  0
  185.3110  177.3510  145.1150 C   0  0  0  0  0  2  0  0  0  0  0  0
  184.6570  178.0300  146.3150 C   0  0  0  0  0  2  0  0  0  0  0  0
  185.4610  177.8890  147.4470 O   0  0  0  0  0  0  0  0  0  0  0  0
  186.6800  178.1260  147.0150 O   0  0  0  0  0  1  0  0  0  0  0  0
  2 10  1  0  0  0  0
  2  5  2  0  0  0  0
  3  4  2  0  0  0  0
  3  6  1  0  0  0  0
  4  2  1  0  0  0  0
  5 20  1  0  0  0  0
  6  7  1  0  0  0  0
  7  5  1  0  0  0  0
  7  1  2  0  0  0  0
  9 10  1  0  0  0  0
 10  8  2  0  0  0  0
 11  9  1  0  0  0  0
 11 17  1  6  0  0  0
 12 14  2  0  0  0  0
 12 16  1  0  0  0  0
 13 11  1  0  0  0  0
 14 15  1  0  0  0  0
 15 13  2  0  0  0  0
 16 13  1  0  0  0  0
 18 17  1  0  0  0  0
 20 19  2  0  0  0  0
 21 22  1  0  0  0  0
 21  3  1  0  0  0  0
 23 22  1  0  0  0  0
 24 23  1  1  0  0  0
 24 28  1  0  0  0  0
 24 26  1  0  0  0  0
 25 29  1  0  0  0  0
 26 29  1  0  0  0  0
 28 25  1  0  0  0  0
 29 27  1  6  0  0  0
 29 30  1  0  0  0  0
 30 31  1  0  0  0  0
 31 32  1  0  0  0  0
 33 32  1  0  0  0  0
M  END
>  <MODEL>
5

>  <REMARK>
 VINA RESULT:      -6.2      2.012      3.054
  Name = 
  12 active torsions:
  status: ('A' for Active; 'I' for Inactive)
    1  A    between atoms: C_1  and  C_9
    2  A    between atoms: C_1  and  C_10
    3  A    between atoms: C_5  and  C_14
    4  A    between atoms: N_6  and  C_14
    5  A    between atoms: C_7  and  C_10
    6  A    between atoms: C_7  and  C_13
    7  A    between atoms: C_8  and  C_16
    8  A    between atoms: C_8  and  C_26
    9  A    between atoms: N_11  and  C_17
   10  A    between atoms: C_12  and  C_19
   11  A    between atoms: C_14  and  C_28
   12  A    between atoms: C_16  and  O_27
                            x       y       z     vdW  Elec       q    Type
                         _______ _______ _______ _____ _____    ______ ____

>  <TORSDO>
F 12

$$$$
=
 OpenBabel11062421153D

 33 35  0  0  1  0  0  0  0  0999 V2000
  190.9620  177.5810  144.0080 O   0  0  0  0  0  0  0  0  0  0  0  0
  189.3310  175.0270  142.0800 C   0  0  0  0  0  0  0  0  0  0  0  0
  188.1430  177.1740  141.7550 C   0  0  0  0  0  0  0  0  0  0  0  0
  188.2100  175.8530  141.5780 C   0  0  0  0  0  3  0  0  0  0  0  0
  190.2940  175.5960  142.8480 C   0  0  0  0  0  0  0  0  0  0  0  0
  189.2660  177.9390  142.3900 C   0  0  0  0  0  2  0  0  0  0  0  0
  190.2140  177.0540  143.1430 C   0  0  0  0  0  0  0  0  0  0  0  0
  188.7460  172.7630  142.4960 O   0  0  0  0  0  0  0  0  0  0  0  0
  189.8860  173.1040  140.5000 N   0  0  0  0  0  2  0  0  0  0  0  0
  189.3050  173.5830  141.7180 C   0  0  0  0  0  0  0  0  0  0  0  0
  189.8830  171.6970  140.1180 C   0  0  2  0  0  3  0  0  0  0  0  0
  192.8820  170.4240  141.5420 C   0  0  0  0  0  3  0  0  0  0  0  0
  190.9670  170.9580  140.8380 C   0  0  0  0  0  0  0  0  0  0  0  0
  192.0440  169.5170  142.0900 N   0  0  0  0  0  0  0  0  0  0  0  0
  190.8170  169.8520  141.6460 C   0  0  0  0  0  3  0  0  0  0  0  0
  192.2320  171.2850  140.7940 O   0  0  0  0  0  0  0  0  0  0  0  0
  190.0760  171.5640  138.6150 C   0  0  0  0  0  2  0  0  0  0  0  0
  189.7140  170.1650  138.1590 C   0  0  0  0  0  1  0  0  0  0  0  0
  191.3060  174.2480  144.5310 N   0  0  0  0  0  2  0  0  0  0  0  0
  191.3600  174.7940  143.3850 N   0  0  0  0  0  0  0  0  0  0  0  0
  186.9890  177.9330  141.1950 C   0  0  0  0  0  2  0  0  0  0  0  0
  185.6810  177.3920  141.7470 C   0  0  0  0  0  2  0  0  0  0  0  0
  184.8290  178.5250  142.2960 C   0  0  0  0  0  2  0  0  0  0  0  0
  184.7100  178.4320  143.8100 C   0  0  1  0  0  3  0  0  0  0  0  0
  185.8860  178.9980  145.7470 C   0  0  0  0  0  2  0  0  0  0  0  0
  185.2710  177.2260  144.2700 O   0  0  0  0  0  0  0  0  0  0  0  0
  185.1920  176.7790  146.6070 C   0  0  0  0  0  1  0  0  0  0  0  0
  185.4400  179.5800  144.4480 C   0  0  0  0  0  2  0  0  0  0  0  0
  185.9230  177.5030  145.4890 C   0  0  2  0  0  0  0  0  0  0  0  0
  187.3710  177.0080  145.3820 C   0  0  0  0  0  2  0  0  0  0  0  0
  188.0660  176.8210  146.7290 C   0  0  0  0  0  2  0  0  0  0  0  0
  189.1420  175.9430  146.5990 O   0  0  0  0  0  0  0  0  0  0  0  0
  188.7820  174.8780  147.2820 O   0  0  0  0  0  1  0  0  0  0  0  0
  2  5  2  0  0  0  0
  3  6  1  0  0  0  0
  4  3  2  0  0  0  0
  4  2  1  0  0  0  0
  5  7  1  0  0  0  0
  5 20  1  0  0  0  0
  6  7  1  0  0  0  0
  7  1  2  0  0  0  0
  9 10  1  0  0  0  0
 10  2  1  0  0  0  0
 10  8  2  0  0  0  0
 11 17  1  6  0  0  0
 11  9  1  0  0  0  0
 11 13  1  0  0  0  0
 12 14  2  0  0  0  0
 13 15  2  0  0  0  0
 15 14  1  0  0  0  0
 16 13  1  0  0  0  0
 16 12  1  0  0  0  0
 18 17  1  0  0  0  0
 20 19  2  0  0  0  0
 21 22  1  0  0  0  0
 21  3  1  0  0  0  0
 22 23  1  0  0  0  0
 24 23  1  6  0  0  0
 24 26  1  0  0  0  0
 24 28  1  0  0  0  0
 26 29  1  0  0  0  0
 28 25  1  0  0  0  0
 29 25  1  0  0  0  0
 29 27  1  1  0  0  0
 30 29  1  0  0  0  0
 30 31  1  0  0  0  0
 32 31  1  0  0  0  0
 32 33  1  0  0  0  0
M  END
>  <MODEL>
6

>  <REMARK>
 VINA RESULT:      -6.1      2.672      4.535
  Name = 
  12 active torsions:
  status: ('A' for Active; 'I' for Inactive)
    1  A    between atoms: C_1  and  C_9
    2  A    between atoms: C_1  and  C_10
    3  A    between atoms: C_5  and  C_14
    4  A    between atoms: N_6  and  C_14
    5  A    between atoms: C_7  and  C_10
    6  A    between atoms: C_7  and  C_13
    7  A    between atoms: C_8  and  C_16
    8  A    between atoms: C_8  and  C_26
    9  A    between atoms: N_11  and  C_17
   10  A    between atoms: C_12  and  C_19
   11  A    between atoms: C_14  and  C_28
   12  A    between atoms: C_16  and  O_27
                            x       y       z     vdW  Elec       q    Type
                         _______ _______ _______ _____ _____    ______ ____

>  <TORSDO>
F 12

$$$$
=
 OpenBabel11062421153D

 33 35  0  0  1  0  0  0  0  0999 V2000
  189.8710  173.2880  142.6670 O   0  0  0  0  0  0  0  0  0  0  0  0
  192.4130  174.7620  144.7300 C   0  0  0  0  0  0  0  0  0  0  0  0
  190.3070  174.6040  146.0230 C   0  0  0  0  0  0  0  0  0  0  0  0
  191.5640  175.0420  145.9100 C   0  0  0  0  0  3  0  0  0  0  0  0
  191.8830  174.1250  143.6560 C   0  0  0  0  0  0  0  0  0  0  0  0
  189.6970  173.6980  144.9950 C   0  0  0  0  0  2  0  0  0  0  0  0
  190.4570  173.6940  143.7030 C   0  0  0  0  0  0  0  0  0  0  0  0
  194.0580  176.4760  144.7310 O   0  0  0  0  0  0  0  0  0  0  0  0
  194.9160  174.3290  144.9590 N   0  0  0  0  0  2  0  0  0  0  0  0
  193.8220  175.2390  144.8000 C   0  0  0  0  0  0  0  0  0  0  0  0
  196.3070  174.7610  145.0250 C   0  0  2  0  0  3  0  0  0  0  0  0
  197.4190  174.4140  141.6650 C   0  0  0  0  0  3  0  0  0  0  0  0
  196.8790  174.8890  143.6480 C   0  0  0  0  0  0  0  0  0  0  0  0
  197.8740  175.6710  141.8580 N   0  0  0  0  0  0  0  0  0  0  0  0
  197.5320  175.9830  143.1240 C   0  0  0  0  0  3  0  0  0  0  0  0
  196.8240  173.9510  142.7400 O   0  0  0  0  0  0  0  0  0  0  0  0
  197.1240  173.7670  145.8350 C   0  0  0  0  0  2  0  0  0  0  0  0
  196.4750  172.3970  145.7980 C   0  0  0  0  0  1  0  0  0  0  0  0
  192.8970  174.7870  141.6050 N   0  0  0  0  0  2  0  0  0  0  0  0
  192.6830  173.8950  142.4840 N   0  0  0  0  0  0  0  0  0  0  0  0
  189.5310  174.9120  147.2570 C   0  0  0  0  0  2  0  0  0  0  0  0
  188.2590  175.6680  146.9090 C   0  0  0  0  0  2  0  0  0  0  0  0
  188.5600  177.1440  146.7040 C   0  0  0  0  0  2  0  0  0  0  0  0
  187.3320  177.8830  146.1940 C   0  0  1  0  0  3  0  0  0  0  0  0
  185.1220  177.4780  145.5560 C   0  0  0  0  0  2  0  0  0  0  0  0
  187.3380  177.9250  144.7870 O   0  0  0  0  0  0  0  0  0  0  0  0
  185.5510  179.0630  143.6990 C   0  0  0  0  0  1  0  0  0  0  0  0
  186.0880  177.1760  146.6530 C   0  0  0  0  0  2  0  0  0  0  0  0
  186.0050  177.7700  144.3560 C   0  0  2  0  0  0  0  0  0  0  0  0
  185.9560  176.6090  143.3540 C   0  0  0  0  0  2  0  0  0  0  0  0
  187.3300  176.0920  142.9330 C   0  0  0  0  0  2  0  0  0  0  0  0
  187.7100  176.6640  141.7190 O   0  0  0  0  0  0  0  0  0  0  0  0
  188.0300  175.6400  140.9590 O   0  0  0  0  0  1  0  0  0  0  0  0
  1  7  2  0  0  0  0
  2 10  1  0  0  0  0
  2  4  1  0  0  0  0
  3 21  1  0  0  0  0
  4  3  2  0  0  0  0
  5  7  1  0  0  0  0
  5  2  2  0  0  0  0
  6  3  1  0  0  0  0
  7  6  1  0  0  0  0
  8 10  2  0  0  0  0
  9 11  1  0  0  0  0
 10  9  1  0  0  0  0
 11 17  1  1  0  0  0
 12 14  2  0  0  0  0
 12 16  1  0  0  0  0
 13 11  1  0  0  0  0
 14 15  1  0  0  0  0
 15 13  2  0  0  0  0
 16 13  1  0  0  0  0
 18 17  1  0  0  0  0
 19 20  2  0  0  0  0
 20  5  1  0  0  0  0
 22 21  1  0  0  0  0
 23 22  1  0  0  0  0
 24 28  1  0  0  0  0
 24 23  1  6  0  0  0
 25 28  1  0  0  0  0
 26 24  1  0  0  0  0
 29 27  1  6  0  0  0
 29 26  1  0  0  0  0
 29 25  1  0  0  0  0
 30 29  1  0  0  0  0
 31 30  1  0  0  0  0
 32 31  1  0  0  0  0
 33 32  1  0  0  0  0
M  END
>  <MODEL>
7

>  <REMARK>
 VINA RESULT:      -6.1      2.124      3.759
  Name = 
  12 active torsions:
  status: ('A' for Active; 'I' for Inactive)
    1  A    between atoms: C_1  and  C_9
    2  A    between atoms: C_1  and  C_10
    3  A    between atoms: C_5  and  C_14
    4  A    between atoms: N_6  and  C_14
    5  A    between atoms: C_7  and  C_10
    6  A    between atoms: C_7  and  C_13
    7  A    between atoms: C_8  and  C_16
    8  A    between atoms: C_8  and  C_26
    9  A    between atoms: N_11  and  C_17
   10  A    between atoms: C_12  and  C_19
   11  A    between atoms: C_14  and  C_28
   12  A    between atoms: C_16  and  O_27
                            x       y       z     vdW  Elec       q    Type
                         _______ _______ _______ _____ _____    ______ ____

>  <TORSDO>
F 12

$$$$
=
 OpenBabel11062421153D

 33 35  0  0  1  0  0  0  0  0999 V2000
  195.1580  175.3540  145.6240 O   0  0  0  0  0  0  0  0  0  0  0  0
  191.9840  173.8910  144.7990 C   0  0  0  0  0  0  0  0  0  0  0  0
  191.6720  175.5340  146.6250 C   0  0  0  0  0  0  0  0  0  0  0  0
  191.1850  174.5620  145.8490 C   0  0  0  0  0  3  0  0  0  0  0  0
  193.3020  174.1820  144.6680 C   0  0  0  0  0  0  0  0  0  0  0  0
  193.0480  176.0920  146.4120 C   0  0  0  0  0  2  0  0  0  0  0  0
  193.9100  175.2000  145.5710 C   0  0  0  0  0  0  0  0  0  0  0  0
  191.3690  171.6680  144.2310 O   0  0  0  0  0  0  0  0  0  0  0  0
  190.4510  173.2960  142.8500 N   0  0  0  0  0  2  0  0  0  0  0  0
  191.2670  172.8950  143.9560 C   0  0  0  0  0  0  0  0  0  0  0  0
  189.7400  172.3470  142.0010 C   0  0  2  0  0  3  0  0  0  0  0  0
  191.9180  171.0840  139.4900 C   0  0  0  0  0  3  0  0  0  0  0  0
  190.5460  172.0350  140.7800 C   0  0  0  0  0  0  0  0  0  0  0  0
  191.3870  172.0850  138.7560 N   0  0  0  0  0  0  0  0  0  0  0  0
  190.5080  172.6980  139.5720 C   0  0  0  0  0  3  0  0  0  0  0  0
  191.4100  171.0570  140.7010 O   0  0  0  0  0  0  0  0  0  0  0  0
  188.3890  172.9170  141.5990 C   0  0  0  0  0  2  0  0  0  0  0  0
  188.1910  174.2880  142.2150 C   0  0  0  0  0  1  0  0  0  0  0  0
  194.8270  172.4940  143.9630 N   0  0  0  0  0  2  0  0  0  0  0  0
  194.1010  173.4990  143.6870 N   0  0  0  0  0  0  0  0  0  0  0  0
  190.7910  176.1730  147.6420 C   0  0  0  0  0  2  0  0  0  0  0  0
  189.9290  177.2470  146.9990 C   0  0  0  0  0  2  0  0  0  0  0  0
  188.4880  176.7750  146.8900 C   0  0  0  0  0  2  0  0  0  0  0  0
  188.0770  176.6160  145.4340 C   0  0  1  0  0  3  0  0  0  0  0  0
  188.0280  177.8240  143.4350 C   0  0  0  0  0  2  0  0  0  0  0  0
  186.7330  176.9970  145.2620 O   0  0  0  0  0  0  0  0  0  0  0  0
  185.7920  176.8130  143.0820 C   0  0  0  0  0  1  0  0  0  0  0  0
  188.9420  177.4860  144.5660 C   0  0  0  0  0  2  0  0  0  0  0  0
  186.6380  177.6580  144.0210 C   0  0  2  0  0  0  0  0  0  0  0  0
  185.9820  179.0250  144.2540 C   0  0  0  0  0  2  0  0  0  0  0  0
  185.5290  179.2610  145.6930 C   0  0  0  0  0  2  0  0  0  0  0  0
  184.1590  179.0250  145.8110 O   0  0  0  0  0  0  0  0  0  0  0  0
  184.0460  178.2720  146.8840 O   0  0  0  0  0  1  0  0  0  0  0  0
  2  4  1  0  0  0  0
  3 21  1  0  0  0  0
  4  3  2  0  0  0  0
  5  2  2  0  0  0  0
  5  7  1  0  0  0  0
  6  3  1  0  0  0  0
  7  1  2  0  0  0  0
  7  6  1  0  0  0  0
  9 10  1  0  0  0  0
 10  8  2  0  0  0  0
 10  2  1  0  0  0  0
 11 17  1  6  0  0  0
 11  9  1  0  0  0  0
 12 16  1  0  0  0  0
 13 11  1  0  0  0  0
 14 12  2  0  0  0  0
 14 15  1  0  0  0  0
 15 13  2  0  0  0  0
 16 13  1  0  0  0  0
 17 18  1  0  0  0  0
 20 19  2  0  0  0  0
 20  5  1  0  0  0  0
 22 21  1  0  0  0  0
 23 22  1  0  0  0  0
 24 23  1  1  0  0  0
 25 29  1  0  0  0  0
 25 28  1  0  0  0  0
 26 24  1  0  0  0  0
 28 24  1  0  0  0  0
 29 27  1  6  0  0  0
 29 30  1  0  0  0  0
 29 26  1  0  0  0  0
 30 31  1  0  0  0  0
 31 32  1  0  0  0  0
 32 33  1  0  0  0  0
M  END
>  <MODEL>
8

>  <REMARK>
 VINA RESULT:      -6.0      2.652      5.551
  Name = 
  12 active torsions:
  status: ('A' for Active; 'I' for Inactive)
    1  A    between atoms: C_1  and  C_9
    2  A    between atoms: C_1  and  C_10
    3  A    between atoms: C_5  and  C_14
    4  A    between atoms: N_6  and  C_14
    5  A    between atoms: C_7  and  C_10
    6  A    between atoms: C_7  and  C_13
    7  A    between atoms: C_8  and  C_16
    8  A    between atoms: C_8  and  C_26
    9  A    between atoms: N_11  and  C_17
   10  A    between atoms: C_12  and  C_19
   11  A    between atoms: C_14  and  C_28
   12  A    between atoms: C_16  and  O_27
                            x       y       z     vdW  Elec       q    Type
                         _______ _______ _______ _____ _____    ______ ____

>  <TORSDO>
F 12

$$$$
=
 OpenBabel11062421153D

 33 35  0  0  1  0  0  0  0  0999 V2000
  190.8660  178.8730  144.2550 O   0  0  0  0  0  0  0  0  0  0  0  0
  191.2650  175.3460  143.7090 C   0  0  0  0  0  0  0  0  0  0  0  0
  189.1860  176.1110  142.6030 C   0  0  0  0  0  0  0  0  0  0  0  0
  189.9890  175.1180  142.9940 C   0  0  0  0  0  3  0  0  0  0  0  0
  191.6060  176.6020  144.0910 C   0  0  0  0  0  0  0  0  0  0  0  0
  189.5770  177.5490  142.7710 C   0  0  0  0  0  2  0  0  0  0  0  0
  190.6960  177.7320  143.7520 C   0  0  0  0  0  0  0  0  0  0  0  0
  191.6970  173.3100  144.8540 O   0  0  0  0  0  0  0  0  0  0  0  0
  193.3170  173.8910  143.2930 N   0  0  0  0  0  2  0  0  0  0  0  0
  192.0910  174.1400  143.9900 C   0  0  0  0  0  0  0  0  0  0  0  0
  194.1530  172.7240  143.5470 C   0  0  2  0  0  3  0  0  0  0  0  0
  196.8300  174.1700  145.3880 C   0  0  0  0  0  3  0  0  0  0  0  0
  195.2750  173.0780  144.4720 C   0  0  0  0  0  0  0  0  0  0  0  0
  196.7790  173.0030  146.0660 N   0  0  0  0  0  0  0  0  0  0  0  0
  195.7860  172.2980  145.4870 C   0  0  0  0  0  3  0  0  0  0  0  0
  195.9270  174.2100  144.4360 O   0  0  0  0  0  0  0  0  0  0  0  0
  194.7110  172.1860  142.2390 C   0  0  0  0  0  2  0  0  0  0  0  0
  193.6520  172.2340  141.1550 C   0  0  0  0  0  1  0  0  0  0  0  0
  192.8730  176.7720  146.1010 N   0  0  0  0  0  2  0  0  0  0  0  0
  192.8170  176.8300  144.8320 N   0  0  0  0  0  0  0  0  0  0  0  0
  187.9300  175.7930  141.8660 C   0  0  0  0  0  2  0  0  0  0  0  0
  186.7220  175.9860  142.7670 C   0  0  0  0  0  2  0  0  0  0  0  0
  185.8780  177.1520  142.2780 C   0  0  0  0  0  2  0  0  0  0  0  0
  185.1860  177.8470  143.4410 C   0  0  1  0  0  3  0  0  0  0  0  0
  185.5730  179.5120  145.0330 C   0  0  0  0  0  2  0  0  0  0  0  0
  185.4420  177.1610  144.6420 O   0  0  0  0  0  0  0  0  0  0  0  0
  184.4470  177.9960  146.6380 C   0  0  0  0  0  1  0  0  0  0  0  0
  185.6980  179.2540  143.5680 C   0  0  0  0  0  2  0  0  0  0  0  0
  185.5990  178.1280  145.6550 C   0  0  2  0  0  0  0  0  0  0  0  0
  186.9390  177.8760  146.3580 C   0  0  0  0  0  2  0  0  0  0  0  0
  187.3650  176.4100  146.3780 C   0  0  0  0  0  2  0  0  0  0  0  0
  188.7560  176.3100  146.3290 O   0  0  0  0  0  0  0  0  0  0  0  0
  189.1840  177.4130  146.9050 O   0  0  0  0  0  1  0  0  0  0  0  0
  2 10  1  0  0  0  0
  2  5  2  0  0  0  0
  3  6  1  0  0  0  0
  3  4  2  0  0  0  0
  4  2  1  0  0  0  0
  5 20  1  0  0  0  0
  6  7  1  0  0  0  0
  7  5  1  0  0  0  0
  7  1  2  0  0  0  0
  9 11  1  0  0  0  0
  9 10  1  0  0  0  0
 10  8  2  0  0  0  0
 11 17  1  6  0  0  0
 11 13  1  0  0  0  0
 12 14  2  0  0  0  0
 13 15  2  0  0  0  0
 15 14  1  0  0  0  0
 16 13  1  0  0  0  0
 16 12  1  0  0  0  0
 18 17  1  0  0  0  0
 20 19  2  0  0  0  0
 21  3  1  0  0  0  0
 21 22  1  0  0  0  0
 23 22  1  0  0  0  0
 24 23  1  6  0  0  0
 24 28  1  0  0  0  0
 24 26  1  0  0  0  0
 25 29  1  0  0  0  0
 26 29  1  0  0  0  0
 28 25  1  0  0  0  0
 29 30  1  0  0  0  0
 29 27  1  1  0  0  0
 30 31  1  0  0  0  0
 32 31  1  0  0  0  0
 32 33  1  0  0  0  0
M  END
>  <MODEL>
9

>  <REMARK>
 VINA RESULT:      -5.9      2.140      3.241
  Name = 
  12 active torsions:
  status: ('A' for Active; 'I' for Inactive)
    1  A    between atoms: C_1  and  C_9
    2  A    between atoms: C_1  and  C_10
    3  A    between atoms: C_5  and  C_14
    4  A    between atoms: N_6  and  C_14
    5  A    between atoms: C_7  and  C_10
    6  A    between atoms: C_7  and  C_13
    7  A    between atoms: C_8  and  C_16
    8  A    between atoms: C_8  and  C_26
    9  A    between atoms: N_11  and  C_17
   10  A    between atoms: C_12  and  C_19
   11  A    between atoms: C_14  and  C_28
   12  A    between atoms: C_16  and  O_27
                            x       y       z     vdW  Elec       q    Type
                         _______ _______ _______ _____ _____    ______ ____

>  <TORSDO>
F 12

$$$$
