=
 OpenBabel11062421253D

 31 33  0  0  1  0  0  0  0  0999 V2000
  189.6610  174.2170  141.4770 C   0  0  0  0  0  2  0  0  0  0  0  0
  191.0710  174.6570  141.8470 C   0  0  2  0  0  3  0  0  0  0  0  0
  195.1110  175.6630  145.7150 C   0  0  0  0  0  2  0  0  0  0  0  0
  192.4760  176.7790  144.6240 C   0  0  0  0  0  2  0  0  0  0  0  0
  195.2970  174.9960  144.4760 O   0  0  0  0  0  0  0  0  0  0  0  0
  194.9170  175.5960  143.2770 C   0  0  0  0  0  0  0  0  0  0  0  0
  192.7000  176.3730  146.0860 C   0  0  0  0  0  2  0  0  0  0  0  0
  193.7580  175.2900  146.3000 C   0  0  0  0  0  2  0  0  0  0  0  0
  191.7160  172.3580  142.3050 O   0  0  0  0  0  1  0  0  0  0  0  0
  191.7230  174.5120  144.1060 O   0  0  0  0  0  0  0  0  0  0  0  0
  195.7350  176.3930  142.6720 N   0  0  0  0  0  2  0  0  0  0  0  0
  193.5780  175.3200  142.6740 C   0  0  1  0  0  3  0  0  0  0  0  0
  193.5200  173.9120  142.0830 C   0  0  0  0  0  2  0  0  0  0  0  0
  192.1080  173.5230  141.6410 C   0  0  2  0  0  3  0  0  0  0  0  0
  191.0750  175.3160  143.1730 N   0  0  1  0  0  0  0  0  0  0  0  0
  192.4160  175.5970  143.6550 C   0  0  2  0  0  0  0  0  0  0  0  0
  188.7280  175.1210  141.9890 O   0  0  0  0  0  0  0  0  0  0  0  0
  188.1040  175.6740  140.8680 C   0  0  0  0  0  2  0  0  0  0  0  0
  186.6500  177.4780  140.1150 N   0  0  0  0  0  1  0  0  0  0  0  0
  187.1640  176.7950  141.2900 C   0  0  2  0  0  3  0  0  0  0  0  0
  187.8370  177.7900  142.2340 C   0  0  0  0  0  2  0  0  0  0  0  0
  186.8790  178.3180  143.2950 C   0  0  0  0  0  2  0  0  0  0  0  0
  187.2770  177.8420  144.6590 C   0  0  0  0  0  0  0  0  0  0  0  0
  188.5200  177.3680  144.8380 C   0  0  0  0  0  3  0  0  0  0  0  0
  185.4790  176.7420  146.1020 C   0  0  0  0  0  1  0  0  0  0  0  0
  186.3190  177.9860  145.8200 C   0  0  2  0  0  3  0  0  0  0  0  0
  185.5760  179.1880  145.8050 O   0  0  0  0  0  0  0  0  0  0  0  0
  184.2060  178.8810  145.8190 C   0  0  0  0  0  1  0  0  0  0  0  0
  189.0620  176.9240  146.1610 C   0  0  0  0  0  2  0  0  0  0  0  0
  188.9640  174.8110  147.3870 C   0  0  0  0  0  2  0  0  0  0  0  0
  189.1110  175.4340  146.2220 C   0  0  0  0  0  3  0  0  0  0  0  0
  1 17  1  0  0  0  0
  2  1  1  1  0  0  0
  2 15  1  0  0  0  0
  3  8  1  0  0  0  0
  4  7  1  0  0  0  0
  5  3  1  0  0  0  0
  6  5  1  0  0  0  0
  7  8  1  0  0  0  0
 11  6  2  0  0  0  0
 12 13  1  1  0  0  0
 12  6  1  0  0  0  0
 12 16  1  0  0  0  0
 14  2  1  0  0  0  0
 14 13  1  0  0  0  0
 14  9  1  1  0  0  0
 15 16  1  0  0  0  0
 15 10  1  1  0  0  0
 16 10  1  0  0  0  0
 16  4  1  1  0  0  0
 18 20  1  0  0  0  0
 18 17  1  0  0  0  0
 20 19  1  6  0  0  0
 20 21  1  0  0  0  0
 21 22  1  0  0  0  0
 22 23  1  0  0  0  0
 23 24  2  0  0  0  0
 23 26  1  0  0  0  0
 24 29  1  0  0  0  0
 26 25  1  6  0  0  0
 27 28  1  0  0  0  0
 27 26  1  0  0  0  0
 29 31  1  0  0  0  0
 31 30  2  0  0  0  0
M  END
>  <MODEL>
1

>  <REMARK>
 VINA RESULT:      -6.3      0.000      0.000
  Name = 
  11 active torsions:
  status: ('A' for Active; 'I' for Inactive)
    1  A    between atoms: O_1  and  C_4
    2  A    between atoms: O_1  and  C_18
    3  A    between atoms: C_2  and  C_4
    4  A    between atoms: O_6  and  C_17
    5  A    between atoms: C_10  and  C_19
    6  A    between atoms: C_10  and  C_24
    7  A    between atoms: C_12  and  C_17
    8  A    between atoms: C_12  and  C_29
    9  A    between atoms: C_18  and  C_31
   10  A    between atoms: C_26  and  C_29
   11  A    between atoms: C_26  and  C_31
                            x       y       z     vdW  Elec       q    Type
                         _______ _______ _______ _____ _____    ______ ____

>  <TORSDO>
F 11

$$$$
=
 OpenBabel11062421253D

 31 33  0  0  1  0  0  0  0  0999 V2000
  189.7220  175.3170  147.1270 C   0  0  0  0  0  2  0  0  0  0  0  0
  188.7330  175.8190  146.0830 C   0  0  2  0  0  3  0  0  0  0  0  0
  184.4830  179.2480  144.5060 C   0  0  0  0  0  2  0  0  0  0  0  0
  185.0940  176.7840  146.2190 C   0  0  0  0  0  2  0  0  0  0  0  0
  185.6390  178.9510  143.7360 O   0  0  0  0  0  0  0  0  0  0  0  0
  185.9910  177.6330  143.4540 C   0  0  0  0  0  0  0  0  0  0  0  0
  184.4940  178.0850  146.7650 C   0  0  0  0  0  2  0  0  0  0  0  0
  184.8580  179.3440  145.9760 C   0  0  0  0  0  2  0  0  0  0  0  0
  190.0070  177.8690  145.7980 O   0  0  0  0  0  1  0  0  0  0  0  0
  187.3440  177.6340  146.6530 O   0  0  0  0  0  0  0  0  0  0  0  0
  185.4770  177.0380  142.4290 N   0  0  0  0  0  2  0  0  0  0  0  0
  186.9680  176.9000  144.3160 C   0  0  1  0  0  3  0  0  0  0  0  0
  188.3890  177.4140  144.0960 C   0  0  0  0  0  2  0  0  0  0  0  0
  189.3820  176.8300  145.1040 C   0  0  2  0  0  3  0  0  0  0  0  0
  187.4740  176.2510  146.7320 N   0  0  1  0  0  0  0  0  0  0  0  0
  186.5620  176.9030  145.8070 C   0  0  2  0  0  0  0  0  0  0  0  0
  190.8030  174.6950  146.5010 O   0  0  0  0  0  0  0  0  0  0  0  0
  191.9380  175.2470  147.1000 C   0  0  0  0  0  2  0  0  0  0  0  0
  192.6010  175.2140  144.7560 N   0  0  0  0  0  1  0  0  0  0  0  0
  192.8540  175.8440  146.0410 C   0  0  2  0  0  3  0  0  0  0  0  0
  194.3300  175.7200  146.4150 C   0  0  0  0  0  2  0  0  0  0  0  0
  195.2520  176.0660  145.2520 C   0  0  0  0  0  2  0  0  0  0  0  0
  196.1240  174.9000  144.8970 C   0  0  0  0  0  0  0  0  0  0  0  0
  196.3850  173.9810  145.8400 C   0  0  0  0  0  3  0  0  0  0  0  0
  197.7260  175.6940  143.0730 C   0  0  0  0  0  1  0  0  0  0  0  0
  196.6150  174.7270  143.4770 C   0  0  2  0  0  3  0  0  0  0  0  0
  195.5800  174.6110  142.5220 O   0  0  0  0  0  0  0  0  0  0  0  0
  195.3090  173.2500  142.3030 C   0  0  0  0  0  1  0  0  0  0  0  0
  197.1850  172.7390  145.5970 C   0  0  0  0  0  2  0  0  0  0  0  0
  195.0380  171.5710  145.6240 C   0  0  0  0  0  2  0  0  0  0  0  0
  196.3470  171.5300  145.8480 C   0  0  0  0  0  3  0  0  0  0  0  0
  2 15  1  0  0  0  0
  2  1  1  1  0  0  0
  3  8  1  0  0  0  0
  4  7  1  0  0  0  0
  5  3  1  0  0  0  0
  6  5  1  0  0  0  0
  6 12  1  0  0  0  0
  8  7  1  0  0  0  0
 11  6  2  0  0  0  0
 12 13  1  1  0  0  0
 12 16  1  0  0  0  0
 13 14  1  0  0  0  0
 14  9  1  1  0  0  0
 14  2  1  0  0  0  0
 15 10  1  1  0  0  0
 16  4  1  1  0  0  0
 16 10  1  0  0  0  0
 16 15  1  0  0  0  0
 17 18  1  0  0  0  0
 17  1  1  0  0  0  0
 20 19  1  6  0  0  0
 20 21  1  0  0  0  0
 20 18  1  0  0  0  0
 22 21  1  0  0  0  0
 23 22  1  0  0  0  0
 23 24  2  0  0  0  0
 26 25  1  6  0  0  0
 26 23  1  0  0  0  0
 27 26  1  0  0  0  0
 28 27  1  0  0  0  0
 29 24  1  0  0  0  0
 29 31  1  0  0  0  0
 30 31  2  0  0  0  0
M  END
>  <MODEL>
2

>  <REMARK>
 VINA RESULT:      -6.3      2.478      8.542
  Name = 
  11 active torsions:
  status: ('A' for Active; 'I' for Inactive)
    1  A    between atoms: O_1  and  C_4
    2  A    between atoms: O_1  and  C_18
    3  A    between atoms: C_2  and  C_4
    4  A    between atoms: O_6  and  C_17
    5  A    between atoms: C_10  and  C_19
    6  A    between atoms: C_10  and  C_24
    7  A    between atoms: C_12  and  C_17
    8  A    between atoms: C_12  and  C_29
    9  A    between atoms: C_18  and  C_31
   10  A    between atoms: C_26  and  C_29
   11  A    between atoms: C_26  and  C_31
                            x       y       z     vdW  Elec       q    Type
                         _______ _______ _______ _____ _____    ______ ____

>  <TORSDO>
F 11

$$$$
=
 OpenBabel11062421253D

 31 33  0  0  1  0  0  0  0  0999 V2000
  188.1530  175.4570  141.2140 C   0  0  0  0  0  2  0  0  0  0  0  0
  187.1980  176.3690  141.9730 C   0  0  2  0  0  3  0  0  0  0  0  0
  185.6650  179.1390  146.6930 C   0  0  0  0  0  2  0  0  0  0  0  0
  185.8200  176.3320  145.4780 C   0  0  0  0  0  2  0  0  0  0  0  0
  185.6320  179.6650  145.3740 O   0  0  0  0  0  0  0  0  0  0  0  0
  184.9440  179.0060  144.3580 C   0  0  0  0  0  0  0  0  0  0  0  0
  186.5370  176.7540  146.7670 C   0  0  0  0  0  2  0  0  0  0  0  0
  186.8810  178.2420  146.8560 C   0  0  0  0  0  2  0  0  0  0  0  0
  188.7820  178.2090  141.8450 O   0  0  0  0  0  1  0  0  0  0  0  0
  187.7720  176.9990  144.1690 O   0  0  0  0  0  0  0  0  0  0  0  0
  183.6810  179.2220  144.1950 N   0  0  0  0  0  2  0  0  0  0  0  0
  185.6520  178.0580  143.4450 C   0  0  1  0  0  3  0  0  0  0  0  0
  186.5500  178.8080  142.4630 C   0  0  0  0  0  2  0  0  0  0  0  0
  187.4410  177.8650  141.6510 C   0  0  2  0  0  3  0  0  0  0  0  0
  187.1670  176.0030  143.4070 N   0  0  1  0  0  0  0  0  0  0  0  0
  186.4100  176.9500  144.2100 C   0  0  2  0  0  0  0  0  0  0  0  0
  188.4960  174.3590  142.0050 O   0  0  0  0  0  0  0  0  0  0  0  0
  188.8120  173.3430  141.1000 C   0  0  0  0  0  2  0  0  0  0  0  0
  190.3380  171.4980  140.6520 N   0  0  0  0  0  1  0  0  0  0  0  0
  189.9910  172.5290  141.6150 C   0  0  2  0  0  3  0  0  0  0  0  0
  189.7120  171.9090  142.9830 C   0  0  0  0  0  2  0  0  0  0  0  0
  190.8680  172.1120  143.9550 C   0  0  0  0  0  2  0  0  0  0  0  0
  190.8350  173.4910  144.5430 C   0  0  0  0  0  0  0  0  0  0  0  0
  189.8160  173.8220  145.3520 C   0  0  0  0  0  3  0  0  0  0  0  0
  191.9060  175.1890  142.9630 C   0  0  0  0  0  1  0  0  0  0  0  0
  191.9820  174.4460  144.2960 C   0  0  2  0  0  3  0  0  0  0  0  0
  193.2540  173.8990  144.5760 O   0  0  0  0  0  0  0  0  0  0  0  0
  193.7800  174.5250  145.7180 C   0  0  0  0  0  1  0  0  0  0  0  0
  189.7000  175.1400  146.0530 C   0  0  0  0  0  2  0  0  0  0  0  0
  191.0720  175.8000  147.9660 C   0  0  0  0  0  2  0  0  0  0  0  0
  190.1270  175.0040  147.4750 C   0  0  0  0  0  3  0  0  0  0  0  0
  1 17  1  0  0  0  0
  2  1  1  6  0  0  0
  2 15  1  0  0  0  0
  3  8  1  0  0  0  0
  4  7  1  0  0  0  0
  5  3  1  0  0  0  0
  6  5  1  0  0  0  0
  7  8  1  0  0  0  0
 10 16  1  0  0  0  0
 11  6  2  0  0  0  0
 12 13  1  1  0  0  0
 12 16  1  0  0  0  0
 12  6  1  0  0  0  0
 14  9  1  1  0  0  0
 14  2  1  0  0  0  0
 14 13  1  0  0  0  0
 15 10  1  1  0  0  0
 15 16  1  0  0  0  0
 16  4  1  1  0  0  0
 18 20  1  0  0  0  0
 18 17  1  0  0  0  0
 20 19  1  6  0  0  0
 20 21  1  0  0  0  0
 21 22  1  0  0  0  0
 22 23  1  0  0  0  0
 23 24  2  0  0  0  0
 24 29  1  0  0  0  0
 26 25  1  6  0  0  0
 26 23  1  0  0  0  0
 26 27  1  0  0  0  0
 27 28  1  0  0  0  0
 29 31  1  0  0  0  0
 31 30  2  0  0  0  0
M  END
>  <MODEL>
3

>  <REMARK>
 VINA RESULT:      -6.2      2.306      6.922
  Name = 
  11 active torsions:
  status: ('A' for Active; 'I' for Inactive)
    1  A    between atoms: O_1  and  C_4
    2  A    between atoms: O_1  and  C_18
    3  A    between atoms: C_2  and  C_4
    4  A    between atoms: O_6  and  C_17
    5  A    between atoms: C_10  and  C_19
    6  A    between atoms: C_10  and  C_24
    7  A    between atoms: C_12  and  C_17
    8  A    between atoms: C_12  and  C_29
    9  A    between atoms: C_18  and  C_31
   10  A    between atoms: C_26  and  C_29
   11  A    between atoms: C_26  and  C_31
                            x       y       z     vdW  Elec       q    Type
                         _______ _______ _______ _____ _____    ______ ____

>  <TORSDO>
F 11

$$$$
=
 OpenBabel11062421253D

 31 33  0  0  1  0  0  0  0  0999 V2000
  188.9780  175.2810  141.7790 C   0  0  0  0  0  2  0  0  0  0  0  0
  187.6970  176.0630  142.0400 C   0  0  2  0  0  3  0  0  0  0  0  0
  184.4760  179.3610  145.3650 C   0  0  0  0  0  2  0  0  0  0  0  0
  185.4960  176.4890  145.0670 C   0  0  0  0  0  2  0  0  0  0  0  0
  184.6810  179.5370  143.9710 O   0  0  0  0  0  0  0  0  0  0  0  0
  184.4250  178.5020  143.0740 C   0  0  0  0  0  0  0  0  0  0  0  0
  185.7560  177.3720  146.2930 C   0  0  0  0  0  2  0  0  0  0  0  0
  185.7630  178.8760  146.0140 C   0  0  0  0  0  2  0  0  0  0  0  0
  188.8610  178.1700  141.6990 O   0  0  0  0  0  1  0  0  0  0  0  0
  187.5470  177.3170  144.0290 O   0  0  0  0  0  0  0  0  0  0  0  0
  183.2300  178.3360  142.6120 N   0  0  0  0  0  2  0  0  0  0  0  0
  185.5190  177.5850  142.6300 C   0  0  1  0  0  3  0  0  0  0  0  0
  186.4720  178.2930  141.6680 C   0  0  0  0  0  2  0  0  0  0  0  0
  187.7120  177.4530  141.3540 C   0  0  2  0  0  3  0  0  0  0  0  0
  187.3690  176.0480  143.4840 N   0  0  1  0  0  0  0  0  0  0  0  0
  186.2580  176.9250  143.8160 C   0  0  2  0  0  0  0  0  0  0  0  0
  188.8080  173.9470  142.1520 O   0  0  0  0  0  0  0  0  0  0  0  0
  190.0720  173.3680  142.0180 C   0  0  0  0  0  2  0  0  0  0  0  0
  189.1360  172.0880  143.8670 N   0  0  0  0  0  1  0  0  0  0  0  0
  190.3750  172.4840  143.2200 C   0  0  2  0  0  3  0  0  0  0  0  0
  191.3050  173.1680  144.2210 C   0  0  0  0  0  2  0  0  0  0  0  0
  190.5450  174.0450  145.2090 C   0  0  0  0  0  2  0  0  0  0  0  0
  191.4170  175.1510  145.7210 C   0  0  0  0  0  0  0  0  0  0  0  0
  192.6070  174.8370  146.2580 C   0  0  0  0  0  3  0  0  0  0  0  0
  189.9690  177.0770  146.5690 C   0  0  0  0  0  1  0  0  0  0  0  0
  190.9940  176.5930  145.5450 C   0  0  2  0  0  3  0  0  0  0  0  0
  190.6810  176.9390  144.2110 O   0  0  0  0  0  0  0  0  0  0  0  0
  191.8730  177.0960  143.4870 C   0  0  0  0  0  1  0  0  0  0  0  0
  193.5980  175.8490  146.7440 C   0  0  0  0  0  2  0  0  0  0  0  0
  195.0190  175.1940  144.8660 C   0  0  0  0  0  2  0  0  0  0  0  0
  194.9330  175.5970  146.1300 C   0  0  0  0  0  3  0  0  0  0  0  0
  1 17  1  0  0  0  0
  2  1  1  1  0  0  0
  2 15  1  0  0  0  0
  3  8  1  0  0  0  0
  4  7  1  0  0  0  0
  5  3  1  0  0  0  0
  6  5  1  0  0  0  0
  8  7  1  0  0  0  0
 11  6  2  0  0  0  0
 12 13  1  1  0  0  0
 12  6  1  0  0  0  0
 12 16  1  0  0  0  0
 14 13  1  0  0  0  0
 14  9  1  1  0  0  0
 14  2  1  0  0  0  0
 15 16  1  0  0  0  0
 15 10  1  1  0  0  0
 16 10  1  0  0  0  0
 16  4  1  1  0  0  0
 18 17  1  0  0  0  0
 18 20  1  0  0  0  0
 20 19  1  1  0  0  0
 20 21  1  0  0  0  0
 21 22  1  0  0  0  0
 22 23  1  0  0  0  0
 23 24  2  0  0  0  0
 24 29  1  0  0  0  0
 26 23  1  0  0  0  0
 26 25  1  1  0  0  0
 27 26  1  0  0  0  0
 28 27  1  0  0  0  0
 30 31  2  0  0  0  0
 31 29  1  0  0  0  0
M  END
>  <MODEL>
4

>  <REMARK>
 VINA RESULT:      -6.2      2.552      6.925
  Name = 
  11 active torsions:
  status: ('A' for Active; 'I' for Inactive)
    1  A    between atoms: O_1  and  C_4
    2  A    between atoms: O_1  and  C_18
    3  A    between atoms: C_2  and  C_4
    4  A    between atoms: O_6  and  C_17
    5  A    between atoms: C_10  and  C_19
    6  A    between atoms: C_10  and  C_24
    7  A    between atoms: C_12  and  C_17
    8  A    between atoms: C_12  and  C_29
    9  A    between atoms: C_18  and  C_31
   10  A    between atoms: C_26  and  C_29
   11  A    between atoms: C_26  and  C_31
                            x       y       z     vdW  Elec       q    Type
                         _______ _______ _______ _____ _____    ______ ____

>  <TORSDO>
F 11

$$$$
=
 OpenBabel11062421253D

 31 33  0  0  1  0  0  0  0  0999 V2000
  190.0140  175.3330  143.0750 C   0  0  0  0  0  2  0  0  0  0  0  0
  188.6730  176.0440  142.9530 C   0  0  2  0  0  3  0  0  0  0  0  0
  184.6010  179.3790  145.0980 C   0  0  0  0  0  2  0  0  0  0  0  0
  185.7970  176.5690  145.3280 C   0  0  0  0  0  2  0  0  0  0  0  0
  185.1240  179.4500  143.7790 O   0  0  0  0  0  0  0  0  0  0  0  0
  185.1370  178.3290  142.9530 C   0  0  0  0  0  0  0  0  0  0  0  0
  185.7160  177.5690  146.4890 C   0  0  0  0  0  2  0  0  0  0  0  0
  185.7170  179.0410  146.0730 C   0  0  0  0  0  2  0  0  0  0  0  0
  189.7830  178.1890  142.6870 O   0  0  0  0  0  1  0  0  0  0  0  0
  187.9950  177.4470  144.7190 O   0  0  0  0  0  0  0  0  0  0  0  0
  184.0960  178.0430  142.2440 N   0  0  0  0  0  2  0  0  0  0  0  0
  186.3480  177.4560  142.8680 C   0  0  1  0  0  3  0  0  0  0  0  0
  187.4680  178.1450  142.0900 C   0  0  0  0  0  2  0  0  0  0  0  0
  188.7850  177.3680  142.1570 C   0  0  2  0  0  3  0  0  0  0  0  0
  188.0120  176.1280  144.2750 N   0  0  1  0  0  0  0  0  0  0  0  0
  186.8140  176.9500  144.2520 C   0  0  2  0  0  0  0  0  0  0  0  0
  190.2420  174.9650  144.4020 O   0  0  0  0  0  0  0  0  0  0  0  0
  191.5660  175.3290  144.6590 C   0  0  0  0  0  2  0  0  0  0  0  0
  190.9930  176.4870  146.7240 N   0  0  0  0  0  1  0  0  0  0  0  0
  191.8030  175.4220  146.1600 C   0  0  2  0  0  3  0  0  0  0  0  0
  193.2770  175.6350  146.5000 C   0  0  0  0  0  2  0  0  0  0  0  0
  194.0220  176.3810  145.4000 C   0  0  0  0  0  2  0  0  0  0  0  0
  195.2240  175.6070  144.9490 C   0  0  0  0  0  0  0  0  0  0  0  0
  195.8090  174.7640  145.8140 C   0  0  0  0  0  3  0  0  0  0  0  0
  196.7360  176.8070  143.2760 C   0  0  0  0  0  1  0  0  0  0  0  0
  195.6980  175.7130  143.5160 C   0  0  2  0  0  3  0  0  0  0  0  0
  194.6540  175.6930  142.5640 O   0  0  0  0  0  0  0  0  0  0  0  0
  195.1700  176.0610  141.3100 C   0  0  0  0  0  1  0  0  0  0  0  0
  196.9710  173.8860  145.4680 C   0  0  0  0  0  2  0  0  0  0  0  0
  196.0270  171.6320  145.5550 C   0  0  0  0  0  2  0  0  0  0  0  0
  196.8140  172.5480  146.1100 C   0  0  0  0  0  3  0  0  0  0  0  0
  1 17  1  0  0  0  0
  2  1  1  1  0  0  0
  2 15  1  0  0  0  0
  3  8  1  0  0  0  0
  4  7  1  0  0  0  0
  5  3  1  0  0  0  0
  6  5  1  0  0  0  0
  8  7  1  0  0  0  0
 11  6  2  0  0  0  0
 12 13  1  1  0  0  0
 12  6  1  0  0  0  0
 12 16  1  0  0  0  0
 13 14  1  0  0  0  0
 14  9  1  1  0  0  0
 14  2  1  0  0  0  0
 15 10  1  1  0  0  0
 16 15  1  0  0  0  0
 16 10  1  0  0  0  0
 16  4  1  1  0  0  0
 17 18  1  0  0  0  0
 18 20  1  0  0  0  0
 20 21  1  0  0  0  0
 20 19  1  6  0  0  0
 22 21  1  0  0  0  0
 23 22  1  0  0  0  0
 23 24  2  0  0  0  0
 26 25  1  1  0  0  0
 26 23  1  0  0  0  0
 27 26  1  0  0  0  0
 28 27  1  0  0  0  0
 29 24  1  0  0  0  0
 29 31  1  0  0  0  0
 30 31  2  0  0  0  0
M  END
>  <MODEL>
5

>  <REMARK>
 VINA RESULT:      -6.1      2.366      8.025
  Name = 
  11 active torsions:
  status: ('A' for Active; 'I' for Inactive)
    1  A    between atoms: O_1  and  C_4
    2  A    between atoms: O_1  and  C_18
    3  A    between atoms: C_2  and  C_4
    4  A    between atoms: O_6  and  C_17
    5  A    between atoms: C_10  and  C_19
    6  A    between atoms: C_10  and  C_24
    7  A    between atoms: C_12  and  C_17
    8  A    between atoms: C_12  and  C_29
    9  A    between atoms: C_18  and  C_31
   10  A    between atoms: C_26  and  C_29
   11  A    between atoms: C_26  and  C_31
                            x       y       z     vdW  Elec       q    Type
                         _______ _______ _______ _____ _____    ______ ____

>  <TORSDO>
F 11

$$$$
=
 OpenBabel11062421253D

 31 33  0  0  1  0  0  0  0  0999 V2000
  189.7400  175.3410  147.3220 C   0  0  0  0  0  2  0  0  0  0  0  0
  188.7860  175.8040  146.2290 C   0  0  2  0  0  3  0  0  0  0  0  0
  184.6060  179.1830  144.3810 C   0  0  0  0  0  2  0  0  0  0  0  0
  185.1510  176.7900  146.2120 C   0  0  0  0  0  2  0  0  0  0  0  0
  185.7840  178.8500  143.6610 O   0  0  0  0  0  0  0  0  0  0  0  0
  186.1360  177.5200  143.4430 C   0  0  0  0  0  0  0  0  0  0  0  0
  184.5410  178.1150  146.6860 C   0  0  0  0  0  2  0  0  0  0  0  0
  184.9370  179.3390  145.8570 C   0  0  0  0  0  2  0  0  0  0  0  0
  190.0800  177.8340  145.8980 O   0  0  0  0  0  1  0  0  0  0  0  0
  187.3900  177.6470  146.6800 O   0  0  0  0  0  0  0  0  0  0  0  0
  185.6500  176.8850  142.4290 N   0  0  0  0  0  2  0  0  0  0  0  0
  187.0810  176.8180  144.3650 C   0  0  1  0  0  3  0  0  0  0  0  0
  188.5120  177.3160  144.1680 C   0  0  0  0  0  2  0  0  0  0  0  0
  189.4700  176.7700  145.2290 C   0  0  2  0  0  3  0  0  0  0  0  0
  187.5100  176.2670  146.8200 N   0  0  1  0  0  0  0  0  0  0  0  0
  186.6300  176.8850  145.8420 C   0  0  2  0  0  0  0  0  0  0  0  0
  190.7690  174.5770  146.7670 O   0  0  0  0  0  0  0  0  0  0  0  0
  191.9490  175.1910  147.1950 C   0  0  0  0  0  2  0  0  0  0  0  0
  193.2430  176.2840  145.4440 N   0  0  0  0  0  1  0  0  0  0  0  0
  193.0370  175.0270  146.1430 C   0  0  2  0  0  3  0  0  0  0  0  0
  192.7180  173.9100  145.1500 C   0  0  0  0  0  2  0  0  0  0  0  0
  192.3950  174.4480  143.7610 C   0  0  0  0  0  2  0  0  0  0  0  0
  191.3650  173.5930  143.0850 C   0  0  0  0  0  0  0  0  0  0  0  0
  190.0680  173.8290  143.3330 C   0  0  0  0  0  3  0  0  0  0  0  0
  192.1750  171.2040  142.6810 C   0  0  0  0  0  1  0  0  0  0  0  0
  191.7930  172.5520  142.0740 C   0  0  2  0  0  3  0  0  0  0  0  0
  192.7120  173.0300  141.1120 O   0  0  0  0  0  0  0  0  0  0  0  0
  192.0050  173.6670  140.0790 C   0  0  0  0  0  1  0  0  0  0  0  0
  188.9430  173.0930  142.6740 C   0  0  0  0  0  2  0  0  0  0  0  0
  188.4470  174.8520  141.0500 C   0  0  0  0  0  2  0  0  0  0  0  0
  188.0100  174.0580  142.0220 C   0  0  0  0  0  3  0  0  0  0  0  0
  2 15  1  0  0  0  0
  2  1  1  1  0  0  0
  3  8  1  0  0  0  0
  4  7  1  0  0  0  0
  5  3  1  0  0  0  0
  6  5  1  0  0  0  0
  6 12  1  0  0  0  0
  8  7  1  0  0  0  0
 11  6  2  0  0  0  0
 12 13  1  1  0  0  0
 12 16  1  0  0  0  0
 13 14  1  0  0  0  0
 14  9  1  1  0  0  0
 14  2  1  0  0  0  0
 15 10  1  1  0  0  0
 16  4  1  1  0  0  0
 16 10  1  0  0  0  0
 16 15  1  0  0  0  0
 17 18  1  0  0  0  0
 17  1  1  0  0  0  0
 20 19  1  6  0  0  0
 20 18  1  0  0  0  0
 21 20  1  0  0  0  0
 22 21  1  0  0  0  0
 23 24  2  0  0  0  0
 23 22  1  0  0  0  0
 26 25  1  1  0  0  0
 26 23  1  0  0  0  0
 27 26  1  0  0  0  0
 28 27  1  0  0  0  0
 29 24  1  0  0  0  0
 30 31  2  0  0  0  0
 31 29  1  0  0  0  0
M  END
>  <MODEL>
6

>  <REMARK>
 VINA RESULT:      -6.1      2.155      7.633
  Name = 
  11 active torsions:
  status: ('A' for Active; 'I' for Inactive)
    1  A    between atoms: O_1  and  C_4
    2  A    between atoms: O_1  and  C_18
    3  A    between atoms: C_2  and  C_4
    4  A    between atoms: O_6  and  C_17
    5  A    between atoms: C_10  and  C_19
    6  A    between atoms: C_10  and  C_24
    7  A    between atoms: C_12  and  C_17
    8  A    between atoms: C_12  and  C_29
    9  A    between atoms: C_18  and  C_31
   10  A    between atoms: C_26  and  C_29
   11  A    between atoms: C_26  and  C_31
                            x       y       z     vdW  Elec       q    Type
                         _______ _______ _______ _____ _____    ______ ____

>  <TORSDO>
F 11

$$$$
=
 OpenBabel11062421253D

 31 33  0  0  1  0  0  0  0  0999 V2000
  188.9440  174.1550  142.1370 C   0  0  0  0  0  2  0  0  0  0  0  0
  190.3760  174.6700  142.0710 C   0  0  2  0  0  3  0  0  0  0  0  0
  195.3560  175.8410  144.5460 C   0  0  0  0  0  2  0  0  0  0  0  0
  192.4610  176.8210  144.3550 C   0  0  0  0  0  2  0  0  0  0  0  0
  195.1840  175.2080  143.2870 O   0  0  0  0  0  0  0  0  0  0  0  0
  194.4240  175.8050  142.2840 C   0  0  0  0  0  0  0  0  0  0  0  0
  193.1440  176.4040  145.6630 C   0  0  0  0  0  2  0  0  0  0  0  0
  194.2690  175.3800  145.5040 C   0  0  0  0  0  2  0  0  0  0  0  0
  191.2440  172.4050  142.2300 O   0  0  0  0  0  1  0  0  0  0  0  0
  191.6990  174.5240  144.0150 O   0  0  0  0  0  0  0  0  0  0  0  0
  194.9740  176.6590  141.4850 N   0  0  0  0  0  2  0  0  0  0  0  0
  192.9790  175.4630  142.1120 C   0  0  1  0  0  3  0  0  0  0  0  0
  192.8120  174.0650  141.5190 C   0  0  0  0  0  2  0  0  0  0  0  0
  191.3540  173.6020  141.5190 C   0  0  2  0  0  3  0  0  0  0  0  0
  190.7550  175.3050  143.3540 N   0  0  1  0  0  0  0  0  0  0  0  0
  192.1640  175.6550  143.4110 C   0  0  2  0  0  0  0  0  0  0  0  0
  188.1000  174.9940  141.4070 O   0  0  0  0  0  0  0  0  0  0  0  0
  187.2180  175.5320  142.3480 C   0  0  0  0  0  2  0  0  0  0  0  0
  187.5170  177.3290  140.7300 N   0  0  0  0  0  1  0  0  0  0  0  0
  186.8280  176.9500  141.9510 C   0  0  2  0  0  3  0  0  0  0  0  0
  187.1150  177.9600  143.0610 C   0  0  0  0  0  2  0  0  0  0  0  0
  188.2430  177.5060  143.9790 C   0  0  0  0  0  2  0  0  0  0  0  0
  187.7280  177.2230  145.3580 C   0  0  0  0  0  0  0  0  0  0  0  0
  186.4250  177.4210  145.6120 C   0  0  0  0  0  3  0  0  0  0  0  0
  189.8050  177.5500  146.8090 C   0  0  0  0  0  1  0  0  0  0  0  0
  188.6500  176.6360  146.4040 C   0  0  2  0  0  3  0  0  0  0  0  0
  189.0370  175.3020  146.1440 O   0  0  0  0  0  0  0  0  0  0  0  0
  188.9410  174.5570  147.3310 C   0  0  0  0  0  1  0  0  0  0  0  0
  185.7740  177.1150  146.9250 C   0  0  0  0  0  2  0  0  0  0  0  0
  184.0840  178.6880  146.1220 C   0  0  0  0  0  2  0  0  0  0  0  0
  184.4160  177.7310  146.9810 C   0  0  0  0  0  3  0  0  0  0  0  0
  2  1  1  1  0  0  0
  2 15  1  0  0  0  0
  3  8  1  0  0  0  0
  4  7  1  0  0  0  0
  5  3  1  0  0  0  0
  6  5  1  0  0  0  0
  8  7  1  0  0  0  0
 11  6  2  0  0  0  0
 12 13  1  1  0  0  0
 12  6  1  0  0  0  0
 12 16  1  0  0  0  0
 13 14  1  0  0  0  0
 14  2  1  0  0  0  0
 14  9  1  1  0  0  0
 15 16  1  0  0  0  0
 15 10  1  1  0  0  0
 16 10  1  0  0  0  0
 16  4  1  1  0  0  0
 17  1  1  0  0  0  0
 17 18  1  0  0  0  0
 20 19  1  6  0  0  0
 20 18  1  0  0  0  0
 20 21  1  0  0  0  0
 21 22  1  0  0  0  0
 22 23  1  0  0  0  0
 23 24  2  0  0  0  0
 23 26  1  0  0  0  0
 24 29  1  0  0  0  0
 26 25  1  6  0  0  0
 27 26  1  0  0  0  0
 27 28  1  0  0  0  0
 29 31  1  0  0  0  0
 30 31  2  0  0  0  0
M  END
>  <MODEL>
7

>  <REMARK>
 VINA RESULT:      -5.9      1.278      2.574
  Name = 
  11 active torsions:
  status: ('A' for Active; 'I' for Inactive)
    1  A    between atoms: O_1  and  C_4
    2  A    between atoms: O_1  and  C_18
    3  A    between atoms: C_2  and  C_4
    4  A    between atoms: O_6  and  C_17
    5  A    between atoms: C_10  and  C_19
    6  A    between atoms: C_10  and  C_24
    7  A    between atoms: C_12  and  C_17
    8  A    between atoms: C_12  and  C_29
    9  A    between atoms: C_18  and  C_31
   10  A    between atoms: C_26  and  C_29
   11  A    between atoms: C_26  and  C_31
                            x       y       z     vdW  Elec       q    Type
                         _______ _______ _______ _____ _____    ______ ____

>  <TORSDO>
F 11

$$$$
=
 OpenBabel11062421253D

 31 33  0  0  1  0  0  0  0  0999 V2000
  189.9830  175.1350  146.5490 C   0  0  0  0  0  2  0  0  0  0  0  0
  188.9410  175.7530  145.6260 C   0  0  2  0  0  3  0  0  0  0  0  0
  184.7010  179.4140  144.6630 C   0  0  0  0  0  2  0  0  0  0  0  0
  185.3510  176.7900  146.1030 C   0  0  0  0  0  2  0  0  0  0  0  0
  185.7920  179.1590  143.7910 O   0  0  0  0  0  0  0  0  0  0  0  0
  186.0830  177.8640  143.3680 C   0  0  0  0  0  0  0  0  0  0  0  0
  184.8290  178.0510  146.8040 C   0  0  0  0  0  2  0  0  0  0  0  0
  185.1780  179.3670  146.1060 C   0  0  0  0  0  2  0  0  0  0  0  0
  190.2550  177.7890  145.4340 O   0  0  0  0  0  1  0  0  0  0  0  0
  187.6500  177.5430  146.4510 O   0  0  0  0  0  0  0  0  0  0  0  0
  185.4820  177.3780  142.3330 N   0  0  0  0  0  2  0  0  0  0  0  0
  187.0930  177.0320  144.0910 C   0  0  1  0  0  3  0  0  0  0  0  0
  188.5120  177.5290  143.8170 C   0  0  0  0  0  2  0  0  0  0  0  0
  189.5520  176.8330  144.6970 C   0  0  2  0  0  3  0  0  0  0  0  0
  187.7430  176.1550  146.3980 N   0  0  1  0  0  0  0  0  0  0  0  0
  186.7900  176.9100  145.6010 C   0  0  2  0  0  0  0  0  0  0  0  0
  190.8810  174.3640  145.8080 O   0  0  0  0  0  0  0  0  0  0  0  0
  190.0870  173.4590  145.1000 C   0  0  0  0  0  2  0  0  0  0  0  0
  191.6480  171.8240  144.1920 N   0  0  0  0  0  1  0  0  0  0  0  0
  190.8230  172.9720  143.8590 C   0  0  2  0  0  3  0  0  0  0  0  0
  191.6700  174.0720  143.2220 C   0  0  0  0  0  2  0  0  0  0  0  0
  193.0950  173.6120  142.9390 C   0  0  0  0  0  2  0  0  0  0  0  0
  194.0890  174.5020  143.6230 C   0  0  0  0  0  0  0  0  0  0  0  0
  194.1630  174.4740  144.9630 C   0  0  0  0  0  3  0  0  0  0  0  0
  194.4010  176.0420  141.6090 C   0  0  0  0  0  1  0  0  0  0  0  0
  195.0450  175.3390  142.8030 C   0  0  2  0  0  3  0  0  0  0  0  0
  196.2610  174.6870  142.4980 O   0  0  0  0  0  0  0  0  0  0  0  0
  197.2360  175.6520  142.1970 C   0  0  0  0  0  1  0  0  0  0  0  0
  195.1540  175.2630  145.7610 C   0  0  0  0  0  2  0  0  0  0  0  0
  193.4550  176.6160  146.8830 C   0  0  0  0  0  2  0  0  0  0  0  0
  194.5670  176.5760  146.1570 C   0  0  0  0  0  3  0  0  0  0  0  0
  2 15  1  0  0  0  0
  2  1  1  1  0  0  0
  3  8  1  0  0  0  0
  4  7  1  0  0  0  0
  5  3  1  0  0  0  0
  6  5  1  0  0  0  0
  6 12  1  0  0  0  0
  8  7  1  0  0  0  0
 11  6  2  0  0  0  0
 12 13  1  1  0  0  0
 12 16  1  0  0  0  0
 13 14  1  0  0  0  0
 14  9  1  1  0  0  0
 14  2  1  0  0  0  0
 15 10  1  1  0  0  0
 16  4  1  1  0  0  0
 16 15  1  0  0  0  0
 16 10  1  0  0  0  0
 17  1  1  0  0  0  0
 18 17  1  0  0  0  0
 20 19  1  1  0  0  0
 20 18  1  0  0  0  0
 21 20  1  0  0  0  0
 22 21  1  0  0  0  0
 22 23  1  0  0  0  0
 23 24  2  0  0  0  0
 24 29  1  0  0  0  0
 26 25  1  6  0  0  0
 26 23  1  0  0  0  0
 27 26  1  0  0  0  0
 28 27  1  0  0  0  0
 29 31  1  0  0  0  0
 31 30  2  0  0  0  0
M  END
>  <MODEL>
8

>  <REMARK>
 VINA RESULT:      -5.9      2.335      7.815
  Name = 
  11 active torsions:
  status: ('A' for Active; 'I' for Inactive)
    1  A    between atoms: O_1  and  C_4
    2  A    between atoms: O_1  and  C_18
    3  A    between atoms: C_2  and  C_4
    4  A    between atoms: O_6  and  C_17
    5  A    between atoms: C_10  and  C_19
    6  A    between atoms: C_10  and  C_24
    7  A    between atoms: C_12  and  C_17
    8  A    between atoms: C_12  and  C_29
    9  A    between atoms: C_18  and  C_31
   10  A    between atoms: C_26  and  C_29
   11  A    between atoms: C_26  and  C_31
                            x       y       z     vdW  Elec       q    Type
                         _______ _______ _______ _____ _____    ______ ____

>  <TORSDO>
F 11

$$$$
=
 OpenBabel11062421253D

 31 33  0  0  1  0  0  0  0  0999 V2000
  189.8000  175.2830  147.1110 C   0  0  0  0  0  2  0  0  0  0  0  0
  188.8110  175.7950  146.0720 C   0  0  2  0  0  3  0  0  0  0  0  0
  184.5700  179.2460  144.5200 C   0  0  0  0  0  2  0  0  0  0  0  0
  185.1760  176.7700  146.2170 C   0  0  0  0  0  2  0  0  0  0  0  0
  185.7250  178.9500  143.7480 O   0  0  0  0  0  0  0  0  0  0  0  0
  186.0720  177.6330  143.4560 C   0  0  0  0  0  0  0  0  0  0  0  0
  184.5790  178.0690  146.7720 C   0  0  0  0  0  2  0  0  0  0  0  0
  184.9470  179.3320  145.9910 C   0  0  0  0  0  2  0  0  0  0  0  0
  190.0910  177.8430  145.7980 O   0  0  0  0  0  1  0  0  0  0  0  0
  187.4280  177.6110  146.6540 O   0  0  0  0  0  0  0  0  0  0  0  0
  185.5550  177.0470  142.4290 N   0  0  0  0  0  2  0  0  0  0  0  0
  187.0470  176.8920  144.3140 C   0  0  1  0  0  3  0  0  0  0  0  0
  188.4700  177.4030  144.0950 C   0  0  0  0  0  2  0  0  0  0  0  0
  189.4620  176.8100  145.0980 C   0  0  2  0  0  3  0  0  0  0  0  0
  187.5540  176.2260  146.7250 N   0  0  1  0  0  0  0  0  0  0  0  0
  186.6430  176.8870  145.8050 C   0  0  2  0  0  0  0  0  0  0  0  0
  190.8870  174.6770  146.4800 O   0  0  0  0  0  0  0  0  0  0  0  0
  192.0090  175.1080  147.1920 C   0  0  0  0  0  2  0  0  0  0  0  0
  193.1670  176.5220  145.5810 N   0  0  0  0  0  1  0  0  0  0  0  0
  193.2050  175.2370  146.2600 C   0  0  2  0  0  3  0  0  0  0  0  0
  193.2730  174.0990  145.2440 C   0  0  0  0  0  2  0  0  0  0  0  0
  194.1900  172.9700  145.7010 C   0  0  0  0  0  2  0  0  0  0  0  0
  195.5170  173.0480  145.0090 C   0  0  0  0  0  0  0  0  0  0  0  0
  196.2970  174.1180  145.2280 C   0  0  0  0  0  3  0  0  0  0  0  0
  195.3670  171.8330  142.7660 C   0  0  0  0  0  1  0  0  0  0  0  0
  195.9950  171.8920  144.1580 C   0  0  2  0  0  3  0  0  0  0  0  0
  196.0110  170.6510  144.8330 O   0  0  0  0  0  0  0  0  0  0  0  0
  197.2220  170.5250  145.5330 C   0  0  0  0  0  1  0  0  0  0  0  0
  197.6690  174.2850  144.6520 C   0  0  0  0  0  2  0  0  0  0  0  0
  196.6640  176.1490  143.4300 C   0  0  0  0  0  2  0  0  0  0  0  0
  197.6320  175.2420  143.5080 C   0  0  0  0  0  3  0  0  0  0  0  0
  2 15  1  0  0  0  0
  2  1  1  1  0  0  0
  3  8  1  0  0  0  0
  4  7  1  0  0  0  0
  5  3  1  0  0  0  0
  6  5  1  0  0  0  0
  6 12  1  0  0  0  0
  8  7  1  0  0  0  0
 11  6  2  0  0  0  0
 12 13  1  1  0  0  0
 12 16  1  0  0  0  0
 13 14  1  0  0  0  0
 14  9  1  1  0  0  0
 14  2  1  0  0  0  0
 15 10  1  1  0  0  0
 16  4  1  1  0  0  0
 16 10  1  0  0  0  0
 16 15  1  0  0  0  0
 17  1  1  0  0  0  0
 17 18  1  0  0  0  0
 20 19  1  6  0  0  0
 20 18  1  0  0  0  0
 21 22  1  0  0  0  0
 21 20  1  0  0  0  0
 23 24  2  0  0  0  0
 23 22  1  0  0  0  0
 26 25  1  6  0  0  0
 26 27  1  0  0  0  0
 26 23  1  0  0  0  0
 27 28  1  0  0  0  0
 29 24  1  0  0  0  0
 30 31  2  0  0  0  0
 31 29  1  0  0  0  0
M  END
>  <MODEL>
9

>  <REMARK>
 VINA RESULT:      -5.8      2.719      8.815
  Name = 
  11 active torsions:
  status: ('A' for Active; 'I' for Inactive)
    1  A    between atoms: O_1  and  C_4
    2  A    between atoms: O_1  and  C_18
    3  A    between atoms: C_2  and  C_4
    4  A    between atoms: O_6  and  C_17
    5  A    between atoms: C_10  and  C_19
    6  A    between atoms: C_10  and  C_24
    7  A    between atoms: C_12  and  C_17
    8  A    between atoms: C_12  and  C_29
    9  A    between atoms: C_18  and  C_31
   10  A    between atoms: C_26  and  C_29
   11  A    between atoms: C_26  and  C_31
                            x       y       z     vdW  Elec       q    Type
                         _______ _______ _______ _____ _____    ______ ____

>  <TORSDO>
F 11

$$$$
