=
 OpenBabel11062419273D

 38 39  0  0  1  0  0  0  0  0999 V2000
  189.4210  174.8700  142.9500 C   0  0  0  0  0  0  0  0  0  0  0  0
  189.5440  174.6900  145.3630 C   0  0  0  0  0  0  0  0  0  0  0  0
  188.0790  176.3830  144.5700 C   0  0  2  0  0  3  0  0  0  0  0  0
  188.8600  175.5350  141.7310 C   0  0  0  0  0  1  0  0  0  0  0  0
  189.0240  175.2860  144.2300 C   0  0  0  0  0  0  0  0  0  0  0  0
  190.8790  173.2190  144.0070 C   0  0  0  0  0  3  0  0  0  0  0  0
  188.7240  177.7280  144.2530 C   0  0  0  0  0  1  0  0  0  0  0  0
  190.3710  173.8300  142.8450 C   0  0  0  0  0  0  0  0  0  0  0  0
  187.8670  176.1820  146.0850 C   0  0  1  0  0  3  0  0  0  0  0  0
  189.0060  175.2840  146.6130 C   0  0  2  0  0  3  0  0  0  0  0  0
  190.4690  173.6500  145.2760 C   0  0  0  0  0  3  0  0  0  0  0  0
  190.8530  175.3650  148.2980 O   0  0  0  0  0  1  0  0  0  0  0  0
  190.3080  177.2490  147.1080 O   0  0  0  0  0  0  0  0  0  0  0  0
  190.0840  176.0330  147.3510 C   0  0  0  0  0  0  0  0  0  0  0  0
  190.8690  173.3720  141.5140 C   0  0  0  0  0  2  0  0  0  0  0  0
  192.3550  173.0540  141.5650 C   0  0  0  0  0  2  0  0  0  0  0  0
  193.3360  174.8610  140.3580 O   0  0  0  0  0  0  0  0  0  0  0  0
  193.1230  174.3280  141.4830 C   0  0  0  0  0  0  0  0  0  0  0  0
  193.7130  174.8730  142.6620 N   0  0  0  0  0  2  0  0  0  0  0  0
  194.5060  175.9760  142.6210 O   0  0  0  0  0  0  0  0  0  0  0  0
  194.8830  176.1950  143.9540 C   0  0  2  0  0  3  0  0  0  0  0  0
  195.6160  174.9820  144.5100 C   0  0  0  0  0  2  0  0  0  0  0  0
  196.9860  175.1120  144.2790 O   0  0  0  0  0  1  0  0  0  0  0  0
  193.6310  175.7810  146.1140 C   0  0  0  0  0  1  0  0  0  0  0  0
  193.6680  176.5570  144.8060 C   0  0  0  0  0  2  0  0  0  0  0  0
  187.5160  177.4190  146.9160 C   0  0  0  0  0  2  0  0  0  0  0  0
  186.0910  177.2980  147.4400 C   0  0  2  0  0  3  0  0  0  0  0  0
  185.3190  176.3250  146.5580 C   0  0  0  0  0  1  0  0  0  0  0  0
  186.3000  179.6760  147.8010 O   0  0  0  0  0  1  0  0  0  0  0  0
  185.3980  178.6660  147.4500 C   0  0  1  0  0  3  0  0  0  0  0  0
  184.7450  178.9990  146.1030 C   0  0  0  0  0  2  0  0  0  0  0  0
  185.6890  179.7560  145.1700 C   0  0  0  0  0  2  0  0  0  0  0  0
  185.3990  179.4560  143.7090 C   0  0  0  0  0  2  0  0  0  0  0  0
  184.7070  178.1120  143.5720 C   0  0  0  0  0  2  0  0  0  0  0  0
  185.4150  177.2890  142.5090 C   0  0  0  0  0  2  0  0  0  0  0  0
  186.1840  178.1910  141.5600 C   0  0  0  0  0  2  0  0  0  0  0  0
  186.5610  177.0660  139.4960 O   0  0  0  0  0  1  0  0  0  0  0  0
  185.6990  177.9530  140.1430 C   0  0  0  0  0  2  0  0  0  0  0  0
  1  5  1  0  0  0  0
  2 10  1  0  0  0  0
  3  7  1  1  0  0  0
  3  9  1  0  0  0  0
  4  1  1  0  0  0  0
  5  3  1  0  0  0  0
  5  2  2  0  0  0  0
  6 11  2  0  0  0  0
  8  1  2  0  0  0  0
  8  6  1  0  0  0  0
  9 10  1  0  0  0  0
  9 26  1  1  0  0  0
 10 14  1  6  0  0  0
 11  2  1  0  0  0  0
 13 14  2  0  0  0  0
 14 12  1  0  0  0  0
 15 16  1  0  0  0  0
 15  8  1  0  0  0  0
 17 18  2  0  0  0  0
 18 16  1  0  0  0  0
 18 19  1  0  0  0  0
 20 19  1  0  0  0  0
 20 21  1  0  0  0  0
 21 22  1  1  0  0  0
 21 25  1  0  0  0  0
 23 22  1  0  0  0  0
 25 24  1  0  0  0  0
 26 27  1  0  0  0  0
 27 28  1  6  0  0  0
 27 30  1  0  0  0  0
 30 29  1  6  0  0  0
 31 30  1  0  0  0  0
 32 31  1  0  0  0  0
 33 32  1  0  0  0  0
 34 33  1  0  0  0  0
 35 34  1  0  0  0  0
 36 35  1  0  0  0  0
 37 38  1  0  0  0  0
 38 36  1  0  0  0  0
M  END
>  <MODEL>
1

>  <REMARK>
 VINA RESULT:      -6.3      0.000      0.000
  Name = 
  18 active torsions:
  status: ('A' for Active; 'I' for Inactive)
    1  A    between atoms: C_1  and  C_6
    2  A    between atoms: C_1  and  C_24
    3  A    between atoms: C_3  and  C_36
    4  A    between atoms: C_4  and  C_17
    5  A    between atoms: C_4  and  C_21
    6  A    between atoms: C_6  and  C_28
    7  A    between atoms: C_7  and  C_28
    8  A    between atoms: C_7  and  C_31
    9  A    between atoms: C_11  and  C_27
   10  A    between atoms: C_11  and  C_30
   11  A    between atoms: O_12  and  N_25
   12  A    between atoms: O_12  and  C_36
   13  A    between atoms: C_17  and  C_24
   14  A    between atoms: C_21  and  C_34
   15  A    between atoms: C_22  and  C_27
   16  A    between atoms: C_29  and  C_34
   17  A    between atoms: C_32  and  C_37
   18  A    between atoms: C_33  and  C_36
                            x       y       z     vdW  Elec       q    Type
                         _______ _______ _______ _____ _____    ______ ____

>  <TORSDO>
F 18

$$$$
=
 OpenBabel11062419273D

 38 39  0  0  1  0  0  0  0  0999 V2000
  189.9540  175.4910  142.8870 C   0  0  0  0  0  0  0  0  0  0  0  0
  191.8570  176.4850  144.0080 C   0  0  0  0  0  0  0  0  0  0  0  0
  191.8480  174.1100  143.9920 C   0  0  2  0  0  3  0  0  0  0  0  0
  189.2070  174.2700  142.4450 C   0  0  0  0  0  1  0  0  0  0  0  0
  191.1660  175.3670  143.5830 C   0  0  0  0  0  0  0  0  0  0  0  0
  190.1760  177.9180  143.0560 C   0  0  0  0  0  3  0  0  0  0  0  0
  191.0540  173.4390  145.1080 C   0  0  0  0  0  1  0  0  0  0  0  0
  189.4520  176.7860  142.6330 C   0  0  0  0  0  0  0  0  0  0  0  0
  193.2200  174.6200  144.4800 C   0  0  1  0  0  3  0  0  0  0  0  0
  193.1030  176.1380  144.7350 C   0  0  2  0  0  3  0  0  0  0  0  0
  191.3850  177.7720  143.7500 C   0  0  0  0  0  3  0  0  0  0  0  0
  194.0870  177.0540  146.8440 O   0  0  0  0  0  1  0  0  0  0  0  0
  191.9070  176.3420  146.8160 O   0  0  0  0  0  0  0  0  0  0  0  0
  192.9890  176.5060  146.1910 C   0  0  0  0  0  0  0  0  0  0  0  0
  188.1460  176.9860  141.9380 C   0  0  0  0  0  2  0  0  0  0  0  0
  187.6130  178.3910  142.1650 C   0  0  0  0  0  2  0  0  0  0  0  0
  185.7170  179.3010  143.2890 O   0  0  0  0  0  0  0  0  0  0  0  0
  186.5240  178.3350  143.1810 C   0  0  0  0  0  0  0  0  0  0  0  0
  186.4740  177.2470  144.1020 N   0  0  0  0  0  2  0  0  0  0  0  0
  185.5630  177.2030  145.1080 O   0  0  0  0  0  0  0  0  0  0  0  0
  186.2920  176.7890  146.2330 C   0  0  2  0  0  3  0  0  0  0  0  0
  186.0700  177.7450  147.3960 C   0  0  0  0  0  2  0  0  0  0  0  0
  185.6360  178.9810  146.9140 O   0  0  0  0  0  1  0  0  0  0  0  0
  188.4640  175.5950  146.7460 C   0  0  0  0  0  1  0  0  0  0  0  0
  187.7760  176.6510  145.8940 C   0  0  0  0  0  2  0  0  0  0  0  0
  193.9400  173.7890  145.5450 C   0  0  0  0  0  2  0  0  0  0  0  0
  195.2750  173.2990  144.9990 C   0  0  2  0  0  3  0  0  0  0  0  0
  195.6040  171.9520  145.6300 C   0  0  0  0  0  1  0  0  0  0  0  0
  197.2980  173.7870  146.2220 O   0  0  0  0  0  1  0  0  0  0  0  0
  196.3880  174.3100  145.2960 C   0  0  1  0  0  3  0  0  0  0  0  0
  197.1320  174.7480  144.0290 C   0  0  0  0  0  2  0  0  0  0  0  0
  196.7070  176.1370  143.5560 C   0  0  0  0  0  2  0  0  0  0  0  0
  195.8100  176.0660  142.3310 C   0  0  0  0  0  2  0  0  0  0  0  0
  196.0670  174.7840  141.5600 C   0  0  0  0  0  2  0  0  0  0  0  0
  194.7600  174.0280  141.3950 C   0  0  0  0  0  2  0  0  0  0  0  0
  193.6880  174.9350  140.8150 C   0  0  0  0  0  2  0  0  0  0  0  0
  191.8290  173.6250  140.1130 O   0  0  0  0  0  1  0  0  0  0  0  0
  193.0050  174.2260  139.6620 C   0  0  0  0  0  2  0  0  0  0  0  0
  1  5  1  0  0  0  0
  2 10  1  0  0  0  0
  3  9  1  0  0  0  0
  3  7  1  1  0  0  0
  4  1  1  0  0  0  0
  5  3  1  0  0  0  0
  5  2  2  0  0  0  0
  6 11  2  0  0  0  0
  8  1  2  0  0  0  0
  8  6  1  0  0  0  0
  9 10  1  0  0  0  0
  9 26  1  1  0  0  0
 10 14  1  1  0  0  0
 11  2  1  0  0  0  0
 14 13  2  0  0  0  0
 14 12  1  0  0  0  0
 15 16  1  0  0  0  0
 15  8  1  0  0  0  0
 16 18  1  0  0  0  0
 18 17  2  0  0  0  0
 18 19  1  0  0  0  0
 19 20  1  0  0  0  0
 20 21  1  0  0  0  0
 21 25  1  6  0  0  0
 21 22  1  0  0  0  0
 23 22  1  0  0  0  0
 25 24  1  0  0  0  0
 27 30  1  0  0  0  0
 27 26  1  0  0  0  0
 27 28  1  1  0  0  0
 30 29  1  1  0  0  0
 31 30  1  0  0  0  0
 32 31  1  0  0  0  0
 33 32  1  0  0  0  0
 34 33  1  0  0  0  0
 35 34  1  0  0  0  0
 36 35  1  0  0  0  0
 38 37  1  0  0  0  0
 38 36  1  0  0  0  0
M  END
>  <MODEL>
2

>  <REMARK>
 VINA RESULT:      -6.2      2.343      7.967
  Name = 
  18 active torsions:
  status: ('A' for Active; 'I' for Inactive)
    1  A    between atoms: C_1  and  C_6
    2  A    between atoms: C_1  and  C_24
    3  A    between atoms: C_3  and  C_36
    4  A    between atoms: C_4  and  C_17
    5  A    between atoms: C_4  and  C_21
    6  A    between atoms: C_6  and  C_28
    7  A    between atoms: C_7  and  C_28
    8  A    between atoms: C_7  and  C_31
    9  A    between atoms: C_11  and  C_27
   10  A    between atoms: C_11  and  C_30
   11  A    between atoms: O_12  and  N_25
   12  A    between atoms: O_12  and  C_36
   13  A    between atoms: C_17  and  C_24
   14  A    between atoms: C_21  and  C_34
   15  A    between atoms: C_22  and  C_27
   16  A    between atoms: C_29  and  C_34
   17  A    between atoms: C_32  and  C_37
   18  A    between atoms: C_33  and  C_36
                            x       y       z     vdW  Elec       q    Type
                         _______ _______ _______ _____ _____    ______ ____

>  <TORSDO>
F 18

$$$$
=
 OpenBabel11062419273D

 38 39  0  0  1  0  0  0  0  0999 V2000
  193.4160  176.5800  145.3130 C   0  0  0  0  0  0  0  0  0  0  0  0
  191.3980  176.2970  144.0030 C   0  0  0  0  0  0  0  0  0  0  0  0
  191.0320  176.6170  146.3280 C   0  0  2  0  0  3  0  0  0  0  0  0
  194.0750  176.8020  146.6390 C   0  0  0  0  0  1  0  0  0  0  0  0
  192.0180  176.5140  145.2180 C   0  0  0  0  0  0  0  0  0  0  0  0
  193.5350  176.2110  142.9010 C   0  0  0  0  0  3  0  0  0  0  0  0
  191.1060  175.3630  147.1930 C   0  0  0  0  0  1  0  0  0  0  0  0
  194.1790  176.4140  144.1360 C   0  0  0  0  0  0  0  0  0  0  0  0
  189.6910  176.7230  145.5710 C   0  0  1  0  0  3  0  0  0  0  0  0
  189.9190  176.2460  144.1210 C   0  0  2  0  0  3  0  0  0  0  0  0
  192.1360  176.1480  142.8290 C   0  0  0  0  0  3  0  0  0  0  0  0
  190.0330  173.7710  144.4560 O   0  0  0  0  0  1  0  0  0  0  0  0
  188.4210  174.6660  143.0920 O   0  0  0  0  0  0  0  0  0  0  0  0
  189.4110  174.8550  143.8470 C   0  0  0  0  0  0  0  0  0  0  0  0
  195.6720  176.4280  144.1750 C   0  0  0  0  0  2  0  0  0  0  0  0
  196.2540  175.3490  143.2770 C   0  0  0  0  0  2  0  0  0  0  0  0
  197.4470  174.2740  145.0380 O   0  0  0  0  0  0  0  0  0  0  0  0
  196.5980  174.1630  144.1100 C   0  0  0  0  0  0  0  0  0  0  0  0
  196.0570  172.8860  143.7780 N   0  0  0  0  0  2  0  0  0  0  0  0
  196.4200  171.7590  144.4440 O   0  0  0  0  0  0  0  0  0  0  0  0
  195.4000  171.5560  145.3860 C   0  0  2  0  0  3  0  0  0  0  0  0
  195.5170  170.1730  146.0100 C   0  0  0  0  0  2  0  0  0  0  0  0
  196.8360  169.9420  146.4030 O   0  0  0  0  0  1  0  0  0  0  0  0
  193.2730  172.9260  145.3930 C   0  0  0  0  0  1  0  0  0  0  0  0
  194.0280  171.7720  144.7500 C   0  0  0  0  0  2  0  0  0  0  0  0
  188.4400  176.2050  146.2840 C   0  0  0  0  0  2  0  0  0  0  0  0
  187.4810  177.3590  146.5450 C   0  0  2  0  0  3  0  0  0  0  0  0
  188.1730  178.3870  147.4310 C   0  0  0  0  0  1  0  0  0  0  0  0
  185.9530  177.5610  148.4030 O   0  0  0  0  0  1  0  0  0  0  0  0
  186.1980  176.8600  147.2180 C   0  0  1  0  0  3  0  0  0  0  0  0
  184.9780  176.9610  146.2940 C   0  0  0  0  0  2  0  0  0  0  0  0
  184.4200  178.3820  146.2200 C   0  0  0  0  0  2  0  0  0  0  0  0
  184.2510  178.8480  144.7830 C   0  0  0  0  0  2  0  0  0  0  0  0
  185.4930  179.5850  144.3160 C   0  0  0  0  0  2  0  0  0  0  0  0
  185.8630  179.1080  142.9210 C   0  0  0  0  0  2  0  0  0  0  0  0
  187.0160  178.1210  142.9820 C   0  0  0  0  0  2  0  0  0  0  0  0
  186.3580  178.0770  140.6950 O   0  0  0  0  0  1  0  0  0  0  0  0
  187.3630  177.6730  141.5760 C   0  0  0  0  0  2  0  0  0  0  0  0
  1  4  1  0  0  0  0
  2 10  1  0  0  0  0
  2  5  2  0  0  0  0
  3  7  1  1  0  0  0
  5  1  1  0  0  0  0
  5  3  1  0  0  0  0
  6  8  1  0  0  0  0
  8 15  1  0  0  0  0
  8  1  2  0  0  0  0
  9 26  1  1  0  0  0
  9  3  1  0  0  0  0
 10 14  1  1  0  0  0
 10  9  1  0  0  0  0
 11  6  2  0  0  0  0
 11  2  1  0  0  0  0
 13 14  2  0  0  0  0
 14 12  1  0  0  0  0
 16 18  1  0  0  0  0
 16 15  1  0  0  0  0
 18 17  2  0  0  0  0
 19 18  1  0  0  0  0
 19 20  1  0  0  0  0
 20 21  1  0  0  0  0
 21 25  1  6  0  0  0
 21 22  1  0  0  0  0
 22 23  1  0  0  0  0
 25 24  1  0  0  0  0
 26 27  1  0  0  0  0
 27 30  1  0  0  0  0
 27 28  1  1  0  0  0
 30 29  1  1  0  0  0
 31 30  1  0  0  0  0
 32 31  1  0  0  0  0
 33 32  1  0  0  0  0
 34 33  1  0  0  0  0
 35 36  1  0  0  0  0
 35 34  1  0  0  0  0
 37 38  1  0  0  0  0
 38 36  1  0  0  0  0
M  END
>  <MODEL>
3

>  <REMARK>
 VINA RESULT:      -6.2      2.331      3.903
  Name = 
  18 active torsions:
  status: ('A' for Active; 'I' for Inactive)
    1  A    between atoms: C_1  and  C_6
    2  A    between atoms: C_1  and  C_24
    3  A    between atoms: C_3  and  C_36
    4  A    between atoms: C_4  and  C_17
    5  A    between atoms: C_4  and  C_21
    6  A    between atoms: C_6  and  C_28
    7  A    between atoms: C_7  and  C_28
    8  A    between atoms: C_7  and  C_31
    9  A    between atoms: C_11  and  C_27
   10  A    between atoms: C_11  and  C_30
   11  A    between atoms: O_12  and  N_25
   12  A    between atoms: O_12  and  C_36
   13  A    between atoms: C_17  and  C_24
   14  A    between atoms: C_21  and  C_34
   15  A    between atoms: C_22  and  C_27
   16  A    between atoms: C_29  and  C_34
   17  A    between atoms: C_32  and  C_37
   18  A    between atoms: C_33  and  C_36
                            x       y       z     vdW  Elec       q    Type
                         _______ _______ _______ _____ _____    ______ ____

>  <TORSDO>
F 18

$$$$
=
 OpenBabel11062419273D

 38 39  0  0  1  0  0  0  0  0999 V2000
  190.6030  176.2740  142.9230 C   0  0  0  0  0  0  0  0  0  0  0  0
  190.5410  173.8620  143.1340 C   0  0  0  0  0  0  0  0  0  0  0  0
  192.7200  174.8060  143.2020 C   0  0  2  0  0  3  0  0  0  0  0  0
  191.3920  177.5470  142.8640 C   0  0  0  0  0  1  0  0  0  0  0  0
  191.2550  175.0440  143.0910 C   0  0  0  0  0  0  0  0  0  0  0  0
  188.4790  175.0700  142.8570 C   0  0  0  0  0  3  0  0  0  0  0  0
  193.3800  175.0550  141.8500 C   0  0  0  0  0  1  0  0  0  0  0  0
  189.1970  176.2790  142.7940 C   0  0  0  0  0  0  0  0  0  0  0  0
  192.7840  173.3210  143.6160 C   0  0  1  0  0  3  0  0  0  0  0  0
  191.4170  172.6760  143.3030 C   0  0  2  0  0  3  0  0  0  0  0  0
  189.1510  173.8500  143.0250 C   0  0  0  0  0  3  0  0  0  0  0  0
  191.3670  170.4450  142.1740 O   0  0  0  0  0  1  0  0  0  0  0  0
  191.4270  172.3610  140.9150 O   0  0  0  0  0  0  0  0  0  0  0  0
  191.4110  171.8300  142.0570 C   0  0  0  0  0  0  0  0  0  0  0  0
  188.4460  177.5500  142.5670 C   0  0  0  0  0  2  0  0  0  0  0  0
  187.5060  177.4280  141.3790 C   0  0  0  0  0  2  0  0  0  0  0  0
  185.3490  178.3840  141.0430 O   0  0  0  0  0  0  0  0  0  0  0  0
  186.1240  177.7610  141.8220 C   0  0  0  0  0  0  0  0  0  0  0  0
  185.7250  177.4810  143.1620 N   0  0  0  0  0  2  0  0  0  0  0  0
  184.5120  177.8570  143.6420 O   0  0  0  0  0  0  0  0  0  0  0  0
  184.7370  178.1510  144.9950 C   0  0  2  0  0  3  0  0  0  0  0  0
  185.6490  179.3600  145.1360 C   0  0  0  0  0  2  0  0  0  0  0  0
  185.3050  180.3240  144.1880 O   0  0  0  0  0  1  0  0  0  0  0  0
  186.3740  177.3130  146.7340 C   0  0  0  0  0  1  0  0  0  0  0  0
  185.3010  176.9320  145.7250 C   0  0  0  0  0  2  0  0  0  0  0  0
  194.0330  172.5330  143.2130 C   0  0  0  0  0  2  0  0  0  0  0  0
  194.9140  172.3060  144.4340 C   0  0  2  0  0  3  0  0  0  0  0  0
  194.0670  172.4520  145.6910 C   0  0  0  0  0  1  0  0  0  0  0  0
  196.3490  173.7820  143.1730 O   0  0  0  0  0  1  0  0  0  0  0  0
  196.0760  173.3050  144.4600 C   0  0  1  0  0  3  0  0  0  0  0  0
  195.8100  174.4840  145.4040 C   0  0  0  0  0  2  0  0  0  0  0  0
  195.7020  175.8140  144.6580 C   0  0  0  0  0  2  0  0  0  0  0  0
  194.7650  176.7810  145.3630 C   0  0  0  0  0  2  0  0  0  0  0  0
  194.0640  176.0910  146.5200 C   0  0  0  0  0  2  0  0  0  0  0  0
  192.5690  176.3410  146.4190 C   0  0  0  0  0  2  0  0  0  0  0  0
  191.7910  175.0990  146.8190 C   0  0  0  0  0  2  0  0  0  0  0  0
  189.7660  176.2500  146.3260 O   0  0  0  0  0  1  0  0  0  0  0  0
  190.4180  175.5090  147.3140 C   0  0  0  0  0  2  0  0  0  0  0  0
  1  5  1  0  0  0  0
  2 10  1  0  0  0  0
  3  7  1  6  0  0  0
  3  9  1  0  0  0  0
  4  1  1  0  0  0  0
  5  2  2  0  0  0  0
  5  3  1  0  0  0  0
  6 11  2  0  0  0  0
  8  6  1  0  0  0  0
  8  1  2  0  0  0  0
  9 26  1  6  0  0  0
 10 14  1  6  0  0  0
 10  9  1  0  0  0  0
 11  2  1  0  0  0  0
 13 14  2  0  0  0  0
 14 12  1  0  0  0  0
 15  8  1  0  0  0  0
 16 18  1  0  0  0  0
 16 15  1  0  0  0  0
 17 18  2  0  0  0  0
 18 19  1  0  0  0  0
 19 20  1  0  0  0  0
 20 21  1  0  0  0  0
 21 22  1  6  0  0  0
 21 25  1  0  0  0  0
 23 22  1  0  0  0  0
 25 24  1  0  0  0  0
 26 27  1  0  0  0  0
 27 30  1  0  0  0  0
 27 28  1  1  0  0  0
 30 29  1  6  0  0  0
 30 31  1  0  0  0  0
 32 33  1  0  0  0  0
 32 31  1  0  0  0  0
 33 34  1  0  0  0  0
 35 34  1  0  0  0  0
 35 36  1  0  0  0  0
 36 38  1  0  0  0  0
 37 38  1  0  0  0  0
M  END
>  <MODEL>
4

>  <REMARK>
 VINA RESULT:      -6.2      2.467      8.222
  Name = 
  18 active torsions:
  status: ('A' for Active; 'I' for Inactive)
    1  A    between atoms: C_1  and  C_6
    2  A    between atoms: C_1  and  C_24
    3  A    between atoms: C_3  and  C_36
    4  A    between atoms: C_4  and  C_17
    5  A    between atoms: C_4  and  C_21
    6  A    between atoms: C_6  and  C_28
    7  A    between atoms: C_7  and  C_28
    8  A    between atoms: C_7  and  C_31
    9  A    between atoms: C_11  and  C_27
   10  A    between atoms: C_11  and  C_30
   11  A    between atoms: O_12  and  N_25
   12  A    between atoms: O_12  and  C_36
   13  A    between atoms: C_17  and  C_24
   14  A    between atoms: C_21  and  C_34
   15  A    between atoms: C_22  and  C_27
   16  A    between atoms: C_29  and  C_34
   17  A    between atoms: C_32  and  C_37
   18  A    between atoms: C_33  and  C_36
                            x       y       z     vdW  Elec       q    Type
                         _______ _______ _______ _____ _____    ______ ____

>  <TORSDO>
F 18

$$$$
=
 OpenBabel11062419273D

 38 39  0  0  1  0  0  0  0  0999 V2000
  192.1380  176.4160  145.9230 C   0  0  0  0  0  0  0  0  0  0  0  0
  190.5980  177.0320  144.1580 C   0  0  0  0  0  0  0  0  0  0  0  0
  189.5810  176.6500  146.2700 C   0  0  2  0  0  3  0  0  0  0  0  0
  192.3820  176.0410  147.3530 C   0  0  0  0  0  1  0  0  0  0  0  0
  190.8390  176.6970  145.4760 C   0  0  0  0  0  0  0  0  0  0  0  0
  192.9430  176.8350  143.6550 C   0  0  0  0  0  3  0  0  0  0  0  0
  189.2350  175.2000  146.5910 C   0  0  0  0  0  1  0  0  0  0  0  0
  193.1980  176.4760  144.9920 C   0  0  0  0  0  0  0  0  0  0  0  0
  188.5590  177.2940  145.3100 C   0  0  1  0  0  3  0  0  0  0  0  0
  189.1600  177.2770  143.8880 C   0  0  2  0  0  3  0  0  0  0  0  0
  191.6360  177.1130  143.2290 C   0  0  0  0  0  3  0  0  0  0  0  0
  188.8010  174.8660  143.3270 O   0  0  0  0  0  1  0  0  0  0  0  0
  187.9240  176.4970  141.9740 O   0  0  0  0  0  0  0  0  0  0  0  0
  188.5950  176.2010  142.9980 C   0  0  0  0  0  0  0  0  0  0  0  0
  194.5980  176.1430  145.3930 C   0  0  0  0  0  2  0  0  0  0  0  0
  195.3830  175.5730  144.2220 C   0  0  0  0  0  2  0  0  0  0  0  0
  196.5840  173.5380  144.5350 O   0  0  0  0  0  0  0  0  0  0  0  0
  195.4610  174.0930  144.3700 C   0  0  0  0  0  0  0  0  0  0  0  0
  194.2840  173.3040  144.2060 N   0  0  0  0  0  2  0  0  0  0  0  0
  194.3230  171.9460  144.2310 O   0  0  0  0  0  0  0  0  0  0  0  0
  192.9950  171.5530  144.4530 C   0  0  2  0  0  3  0  0  0  0  0  0
  192.6620  170.3100  143.6410 C   0  0  0  0  0  2  0  0  0  0  0  0
  192.6130  170.6320  142.2840 O   0  0  0  0  0  1  0  0  0  0  0  0
  190.6280  172.4260  144.6550 C   0  0  0  0  0  1  0  0  0  0  0  0
  192.0340  172.7010  144.1450 C   0  0  0  0  0  2  0  0  0  0  0  0
  187.0960  176.8640  145.4510 C   0  0  0  0  0  2  0  0  0  0  0  0
  186.3280  177.9110  146.2470 C   0  0  2  0  0  3  0  0  0  0  0  0
  185.9550  177.3270  147.6040 C   0  0  0  0  0  1  0  0  0  0  0  0
  184.0100  178.5730  146.3850 O   0  0  0  0  0  1  0  0  0  0  0  0
  185.0660  178.3480  145.4950 C   0  0  1  0  0  3  0  0  0  0  0  0
  185.3000  179.6010  144.6410 C   0  0  0  0  0  2  0  0  0  0  0  0
  185.6200  179.2610  143.1860 C   0  0  0  0  0  2  0  0  0  0  0  0
  185.0300  177.9220  142.7770 C   0  0  0  0  0  2  0  0  0  0  0  0
  184.2630  178.0570  141.4730 C   0  0  0  0  0  2  0  0  0  0  0  0
  182.8160  178.4040  141.7760 C   0  0  0  0  0  2  0  0  0  0  0  0
  181.9300  178.0920  140.5830 C   0  0  0  0  0  2  0  0  0  0  0  0
  179.8250  177.8000  141.6550 O   0  0  0  0  0  1  0  0  0  0  0  0
  180.5460  178.6620  140.8270 C   0  0  0  0  0  2  0  0  0  0  0  0
  1  4  1  0  0  0  0
  2  5  2  0  0  0  0
  3  7  1  6  0  0  0
  5  1  1  0  0  0  0
  5  3  1  0  0  0  0
  6  8  1  0  0  0  0
  8 15  1  0  0  0  0
  8  1  2  0  0  0  0
  9 26  1  6  0  0  0
  9  3  1  0  0  0  0
 10 14  1  6  0  0  0
 10  2  1  0  0  0  0
 10  9  1  0  0  0  0
 11  6  2  0  0  0  0
 11  2  1  0  0  0  0
 13 14  2  0  0  0  0
 14 12  1  0  0  0  0
 16 18  1  0  0  0  0
 16 15  1  0  0  0  0
 18 17  2  0  0  0  0
 19 20  1  0  0  0  0
 19 18  1  0  0  0  0
 20 21  1  0  0  0  0
 21 22  1  6  0  0  0
 23 22  1  0  0  0  0
 25 21  1  0  0  0  0
 25 24  1  0  0  0  0
 26 27  1  0  0  0  0
 27 28  1  1  0  0  0
 30 27  1  0  0  0  0
 30 29  1  1  0  0  0
 31 30  1  0  0  0  0
 32 31  1  0  0  0  0
 33 32  1  0  0  0  0
 34 35  1  0  0  0  0
 34 33  1  0  0  0  0
 36 38  1  0  0  0  0
 36 35  1  0  0  0  0
 38 37  1  0  0  0  0
M  END
>  <MODEL>
5

>  <REMARK>
 VINA RESULT:      -6.0      2.543      4.147
  Name = 
  18 active torsions:
  status: ('A' for Active; 'I' for Inactive)
    1  A    between atoms: C_1  and  C_6
    2  A    between atoms: C_1  and  C_24
    3  A    between atoms: C_3  and  C_36
    4  A    between atoms: C_4  and  C_17
    5  A    between atoms: C_4  and  C_21
    6  A    between atoms: C_6  and  C_28
    7  A    between atoms: C_7  and  C_28
    8  A    between atoms: C_7  and  C_31
    9  A    between atoms: C_11  and  C_27
   10  A    between atoms: C_11  and  C_30
   11  A    between atoms: O_12  and  N_25
   12  A    between atoms: O_12  and  C_36
   13  A    between atoms: C_17  and  C_24
   14  A    between atoms: C_21  and  C_34
   15  A    between atoms: C_22  and  C_27
   16  A    between atoms: C_29  and  C_34
   17  A    between atoms: C_32  and  C_37
   18  A    between atoms: C_33  and  C_36
                            x       y       z     vdW  Elec       q    Type
                         _______ _______ _______ _____ _____    ______ ____

>  <TORSDO>
F 18

$$$$
=
 OpenBabel11062419273D

 38 39  0  0  1  0  0  0  0  0999 V2000
  188.6370  175.4070  142.3780 C   0  0  0  0  0  0  0  0  0  0  0  0
  190.7050  176.3550  143.2090 C   0  0  0  0  0  0  0  0  0  0  0  0
  190.5150  174.0030  143.4810 C   0  0  2  0  0  3  0  0  0  0  0  0
  187.7630  174.2120  142.1510 C   0  0  0  0  0  1  0  0  0  0  0  0
  189.8950  175.2600  142.9810 C   0  0  0  0  0  0  0  0  0  0  0  0
  189.0550  177.8100  142.2350 C   0  0  0  0  0  3  0  0  0  0  0  0
  189.7800  173.5340  144.7320 C   0  0  0  0  0  1  0  0  0  0  0  0
  188.2130  176.7040  142.0130 C   0  0  0  0  0  0  0  0  0  0  0  0
  191.9610  174.4460  143.7880 C   0  0  1  0  0  3  0  0  0  0  0  0
  191.9840  175.9880  143.8680 C   0  0  2  0  0  3  0  0  0  0  0  0
  190.3090  177.6400  142.8390 C   0  0  0  0  0  3  0  0  0  0  0  0
  193.2460  176.9600  145.7960 O   0  0  0  0  0  0  0  0  0  0  0  0
  190.9860  176.6080  145.9710 O   0  0  0  0  0  1  0  0  0  0  0  0
  192.0320  176.5270  145.2730 C   0  0  0  0  0  0  0  0  0  0  0  0
  186.8670  176.9350  141.4100 C   0  0  0  0  0  2  0  0  0  0  0  0
  186.3950  178.3600  141.6490 C   0  0  0  0  0  2  0  0  0  0  0  0
  184.3440  177.9560  142.7950 O   0  0  0  0  0  0  0  0  0  0  0  0
  185.5310  178.3840  142.8620 C   0  0  0  0  0  0  0  0  0  0  0  0
  186.0090  178.9980  144.0580 N   0  0  0  0  0  2  0  0  0  0  0  0
  185.2220  179.1340  145.1560 O   0  0  0  0  0  0  0  0  0  0  0  0
  185.7320  178.2100  146.0800 C   0  0  2  0  0  3  0  0  0  0  0  0
  185.5240  178.7050  147.5030 C   0  0  0  0  0  2  0  0  0  0  0  0
  186.7500  178.7600  148.1680 O   0  0  0  0  0  1  0  0  0  0  0  0
  187.4990  176.4280  145.7500 C   0  0  0  0  0  1  0  0  0  0  0  0
  187.2050  177.9200  145.7950 C   0  0  0  0  0  2  0  0  0  0  0  0
  192.7120  173.6830  144.8820 C   0  0  0  0  0  2  0  0  0  0  0  0
  193.9630  173.0430  144.2960 C   0  0  2  0  0  3  0  0  0  0  0  0
  194.0590  173.4030  142.8190 C   0  0  0  0  0  1  0  0  0  0  0  0
  194.4490  171.1490  145.7120 O   0  0  0  0  0  1  0  0  0  0  0  0
  193.9270  171.5200  144.4680 C   0  0  1  0  0  3  0  0  0  0  0  0
  192.5120  170.9490  144.3070 C   0  0  0  0  0  2  0  0  0  0  0  0
  192.3530  170.1430  143.0180 C   0  0  0  0  0  2  0  0  0  0  0  0
  191.1260  170.5750  142.2320 C   0  0  0  0  0  2  0  0  0  0  0  0
  191.5290  171.4620  141.0680 C   0  0  0  0  0  2  0  0  0  0  0  0
  190.2790  172.0050  140.3970 C   0  0  0  0  0  2  0  0  0  0  0  0
  190.5540  173.3620  139.7720 C   0  0  0  0  0  2  0  0  0  0  0  0
  189.9280  174.0140  137.5690 O   0  0  0  0  0  1  0  0  0  0  0  0
  189.4170  173.7190  138.8340 C   0  0  0  0  0  2  0  0  0  0  0  0
  1  5  1  0  0  0  0
  2 10  1  0  0  0  0
  3  9  1  0  0  0  0
  3  7  1  1  0  0  0
  4  1  1  0  0  0  0
  5  2  2  0  0  0  0
  5  3  1  0  0  0  0
  6 11  2  0  0  0  0
  8  6  1  0  0  0  0
  8  1  2  0  0  0  0
  9 10  1  0  0  0  0
  9 26  1  1  0  0  0
 10 14  1  1  0  0  0
 11  2  1  0  0  0  0
 14 12  2  0  0  0  0
 14 13  1  0  0  0  0
 15 16  1  0  0  0  0
 15  8  1  0  0  0  0
 16 18  1  0  0  0  0
 17 18  2  0  0  0  0
 18 19  1  0  0  0  0
 19 20  1  0  0  0  0
 20 21  1  0  0  0  0
 21 25  1  6  0  0  0
 21 22  1  0  0  0  0
 22 23  1  0  0  0  0
 24 25  1  0  0  0  0
 27 28  1  6  0  0  0
 27 30  1  0  0  0  0
 27 26  1  0  0  0  0
 30 29  1  1  0  0  0
 31 30  1  0  0  0  0
 32 31  1  0  0  0  0
 33 32  1  0  0  0  0
 34 33  1  0  0  0  0
 35 34  1  0  0  0  0
 36 35  1  0  0  0  0
 37 38  1  0  0  0  0
 38 36  1  0  0  0  0
M  END
>  <MODEL>
6

>  <REMARK>
 VINA RESULT:      -5.9      2.669      7.619
  Name = 
  18 active torsions:
  status: ('A' for Active; 'I' for Inactive)
    1  A    between atoms: C_1  and  C_6
    2  A    between atoms: C_1  and  C_24
    3  A    between atoms: C_3  and  C_36
    4  A    between atoms: C_4  and  C_17
    5  A    between atoms: C_4  and  C_21
    6  A    between atoms: C_6  and  C_28
    7  A    between atoms: C_7  and  C_28
    8  A    between atoms: C_7  and  C_31
    9  A    between atoms: C_11  and  C_27
   10  A    between atoms: C_11  and  C_30
   11  A    between atoms: O_12  and  N_25
   12  A    between atoms: O_12  and  C_36
   13  A    between atoms: C_17  and  C_24
   14  A    between atoms: C_21  and  C_34
   15  A    between atoms: C_22  and  C_27
   16  A    between atoms: C_29  and  C_34
   17  A    between atoms: C_32  and  C_37
   18  A    between atoms: C_33  and  C_36
                            x       y       z     vdW  Elec       q    Type
                         _______ _______ _______ _____ _____    ______ ____

>  <TORSDO>
F 18

$$$$
=
 OpenBabel11062419273D

 38 39  0  0  1  0  0  0  0  0999 V2000
  189.1630  176.6300  145.1070 C   0  0  0  0  0  0  0  0  0  0  0  0
  190.2700  174.4940  145.3880 C   0  0  0  0  0  0  0  0  0  0  0  0
  190.8710  175.6670  143.4120 C   0  0  2  0  0  3  0  0  0  0  0  0
  188.9410  177.8750  144.3040 C   0  0  0  0  0  1  0  0  0  0  0  0
  190.0660  175.6520  144.6630 C   0  0  0  0  0  0  0  0  0  0  0  0
  188.6910  175.2260  147.0490 C   0  0  0  0  0  3  0  0  0  0  0  0
  189.9510  175.4670  142.2120 C   0  0  0  0  0  1  0  0  0  0  0  0
  188.4610  176.4020  146.3110 C   0  0  0  0  0  0  0  0  0  0  0  0
  191.8270  174.4740  143.6180 C   0  0  1  0  0  3  0  0  0  0  0  0
  191.2500  173.5860  144.7420 C   0  0  2  0  0  3  0  0  0  0  0  0
  189.5970  174.2610  146.5880 C   0  0  0  0  0  3  0  0  0  0  0  0
  189.2960  172.4250  143.7000 O   0  0  0  0  0  0  0  0  0  0  0  0
  191.1510  171.2200  144.3030 O   0  0  0  0  0  1  0  0  0  0  0  0
  190.5710  172.3360  144.2460 C   0  0  0  0  0  0  0  0  0  0  0  0
  187.4530  177.3820  146.8140 C   0  0  0  0  0  2  0  0  0  0  0  0
  186.0430  176.8200  146.7120 C   0  0  0  0  0  2  0  0  0  0  0  0
  184.4290  178.5530  146.4420 O   0  0  0  0  0  0  0  0  0  0  0  0
  185.2180  177.7410  145.8820 C   0  0  0  0  0  0  0  0  0  0  0  0
  185.2340  177.6170  144.4610 N   0  0  0  0  0  2  0  0  0  0  0  0
  184.4230  178.3640  143.6680 O   0  0  0  0  0  0  0  0  0  0  0  0
  184.6730  177.9050  142.3660 C   0  0  2  0  0  3  0  0  0  0  0  0
  186.1310  178.1270  141.9910 C   0  0  0  0  0  2  0  0  0  0  0  0
  186.7290  176.9040  141.6830 O   0  0  0  0  0  1  0  0  0  0  0  0
  182.2900  178.1040  141.5360 C   0  0  0  0  0  1  0  0  0  0  0  0
  183.7270  178.5730  141.3680 C   0  0  0  0  0  2  0  0  0  0  0  0
  192.3410  173.7610  142.3650 C   0  0  0  0  0  2  0  0  0  0  0  0
  193.8190  174.0700  142.1680 C   0  0  2  0  0  3  0  0  0  0  0  0
  194.0000  174.8140  140.8510 C   0  0  0  0  0  1  0  0  0  0  0  0
  195.0950  172.4810  140.8730 O   0  0  0  0  0  1  0  0  0  0  0  0
  194.6480  172.7810  142.1650 C   0  0  1  0  0  3  0  0  0  0  0  0
  195.8450  172.8550  143.1230 C   0  0  0  0  0  2  0  0  0  0  0  0
  195.8480  174.1390  143.9510 C   0  0  0  0  0  2  0  0  0  0  0  0
  195.2770  173.9140  145.3420 C   0  0  0  0  0  2  0  0  0  0  0  0
  195.1640  175.2320  146.0870 C   0  0  0  0  0  2  0  0  0  0  0  0
  194.5700  176.2800  145.1620 C   0  0  0  0  0  2  0  0  0  0  0  0
  193.3630  176.9400  145.8070 C   0  0  0  0  0  2  0  0  0  0  0  0
  191.8820  176.7800  147.6640 O   0  0  0  0  0  1  0  0  0  0  0  0
  192.9970  176.1850  147.0700 C   0  0  0  0  0  2  0  0  0  0  0  0
  1  8  1  0  0  0  0
  2 11  2  0  0  0  0
  3  7  1  6  0  0  0
  3  9  1  0  0  0  0
  3  5  1  0  0  0  0
  4  1  1  0  0  0  0
  5  1  2  0  0  0  0
  5  2  1  0  0  0  0
  8 15  1  0  0  0  0
  8  6  2  0  0  0  0
  9 26  1  6  0  0  0
  9 10  1  0  0  0  0
 10 14  1  6  0  0  0
 10  2  1  0  0  0  0
 11  6  1  0  0  0  0
 12 14  2  0  0  0  0
 14 13  1  0  0  0  0
 16 15  1  0  0  0  0
 18 17  2  0  0  0  0
 18 16  1  0  0  0  0
 19 18  1  0  0  0  0
 20 19  1  0  0  0  0
 21 25  1  6  0  0  0
 21 20  1  0  0  0  0
 22 21  1  0  0  0  0
 23 22  1  0  0  0  0
 25 24  1  0  0  0  0
 27 28  1  6  0  0  0
 27 26  1  0  0  0  0
 30 29  1  6  0  0  0
 30 27  1  0  0  0  0
 30 31  1  0  0  0  0
 31 32  1  0  0  0  0
 32 33  1  0  0  0  0
 33 34  1  0  0  0  0
 35 36  1  0  0  0  0
 35 34  1  0  0  0  0
 36 38  1  0  0  0  0
 38 37  1  0  0  0  0
M  END
>  <MODEL>
7

>  <REMARK>
 VINA RESULT:      -5.8      2.577      8.718
  Name = 
  18 active torsions:
  status: ('A' for Active; 'I' for Inactive)
    1  A    between atoms: C_1  and  C_6
    2  A    between atoms: C_1  and  C_24
    3  A    between atoms: C_3  and  C_36
    4  A    between atoms: C_4  and  C_17
    5  A    between atoms: C_4  and  C_21
    6  A    between atoms: C_6  and  C_28
    7  A    between atoms: C_7  and  C_28
    8  A    between atoms: C_7  and  C_31
    9  A    between atoms: C_11  and  C_27
   10  A    between atoms: C_11  and  C_30
   11  A    between atoms: O_12  and  N_25
   12  A    between atoms: O_12  and  C_36
   13  A    between atoms: C_17  and  C_24
   14  A    between atoms: C_21  and  C_34
   15  A    between atoms: C_22  and  C_27
   16  A    between atoms: C_29  and  C_34
   17  A    between atoms: C_32  and  C_37
   18  A    between atoms: C_33  and  C_36
                            x       y       z     vdW  Elec       q    Type
                         _______ _______ _______ _____ _____    ______ ____

>  <TORSDO>
F 18

$$$$
=
 OpenBabel11062419273D

 38 39  0  0  1  0  0  0  0  0999 V2000
  188.8340  174.5610  142.7840 C   0  0  0  0  0  0  0  0  0  0  0  0
  189.4680  174.3820  145.1150 C   0  0  0  0  0  0  0  0  0  0  0  0
  188.3020  176.3750  144.5560 C   0  0  2  0  0  3  0  0  0  0  0  0
  188.1790  175.3300  141.6780 C   0  0  0  0  0  1  0  0  0  0  0  0
  188.8560  175.0760  144.0890 C   0  0  0  0  0  0  0  0  0  0  0  0
  190.0650  172.6140  143.5970 C   0  0  0  0  0  3  0  0  0  0  0  0
  189.1560  177.5170  144.0140 C   0  0  0  0  0  1  0  0  0  0  0  0
  189.4590  173.3190  142.5390 C   0  0  0  0  0  0  0  0  0  0  0  0
  188.4070  176.2480  146.0900 C   0  0  1  0  0  3  0  0  0  0  0  0
  189.3920  175.1030  146.4100 C   0  0  2  0  0  3  0  0  0  0  0  0
  190.0750  173.1460  144.8940 C   0  0  0  0  0  3  0  0  0  0  0  0
  191.5970  176.1700  145.9040 O   0  0  0  0  0  0  0  0  0  0  0  0
  191.1390  175.4490  148.0320 O   0  0  0  0  0  1  0  0  0  0  0  0
  190.7580  175.5730  146.8380 C   0  0  0  0  0  0  0  0  0  0  0  0
  189.5120  172.7380  141.1650 C   0  0  0  0  0  2  0  0  0  0  0  0
  190.4390  171.5340  141.1130 C   0  0  0  0  0  2  0  0  0  0  0  0
  191.4560  170.2420  139.3870 O   0  0  0  0  0  0  0  0  0  0  0  0
  190.5720  171.0890  139.6980 C   0  0  0  0  0  0  0  0  0  0  0  0
  189.7810  171.7100  138.6850 N   0  0  0  0  0  2  0  0  0  0  0  0
  189.9400  171.4110  137.3700 O   0  0  0  0  0  0  0  0  0  0  0  0
  190.5400  172.5500  136.8130 C   0  0  2  0  0  3  0  0  0  0  0  0
  189.7010  173.0890  135.6630 C   0  0  0  0  0  2  0  0  0  0  0  0
  189.5710  174.4730  135.7830 O   0  0  0  0  0  1  0  0  0  0  0  0
  193.0040  172.8880  137.2820 C   0  0  0  0  0  1  0  0  0  0  0  0
  191.9700  172.2440  136.3710 C   0  0  0  0  0  2  0  0  0  0  0  0
  188.5620  177.5420  146.8930 C   0  0  0  0  0  2  0  0  0  0  0  0
  187.1940  178.1710  147.1240 C   0  0  2  0  0  3  0  0  0  0  0  0
  187.2480  179.0310  148.3790 C   0  0  0  0  0  1  0  0  0  0  0  0
  185.5660  177.1080  148.5550 O   0  0  0  0  0  1  0  0  0  0  0  0
  186.1170  177.0900  147.2690 C   0  0  1  0  0  3  0  0  0  0  0  0
  185.0020  177.2340  146.2250 C   0  0  0  0  0  2  0  0  0  0  0  0
  184.4610  178.6610  146.1450 C   0  0  0  0  0  2  0  0  0  0  0  0
  184.3290  179.1340  144.7060 C   0  0  0  0  0  2  0  0  0  0  0  0
  185.6990  179.2840  144.0710 C   0  0  0  0  0  2  0  0  0  0  0  0
  185.7380  178.4950  142.7730 C   0  0  0  0  0  2  0  0  0  0  0  0
  184.3310  178.2000  142.2840 C   0  0  0  0  0  2  0  0  0  0  0  0
  185.6060  178.2740  140.2750 O   0  0  0  0  0  1  0  0  0  0  0  0
  184.3010  178.2900  140.7700 C   0  0  0  0  0  2  0  0  0  0  0  0
  1  5  1  0  0  0  0
  2 10  1  0  0  0  0
  3  7  1  6  0  0  0
  3  9  1  0  0  0  0
  4  1  1  0  0  0  0
  5  3  1  0  0  0  0
  5  2  2  0  0  0  0
  6 11  2  0  0  0  0
  8  1  2  0  0  0  0
  8  6  1  0  0  0  0
  9 10  1  0  0  0  0
  9 26  1  1  0  0  0
 10 14  1  6  0  0  0
 11  2  1  0  0  0  0
 12 14  2  0  0  0  0
 14 13  1  0  0  0  0
 15  8  1  0  0  0  0
 16 15  1  0  0  0  0
 17 18  2  0  0  0  0
 18 16  1  0  0  0  0
 19 18  1  0  0  0  0
 20 19  1  0  0  0  0
 21 22  1  6  0  0  0
 21 20  1  0  0  0  0
 22 23  1  0  0  0  0
 25 21  1  0  0  0  0
 25 24  1  0  0  0  0
 26 27  1  0  0  0  0
 27 30  1  0  0  0  0
 27 28  1  1  0  0  0
 30 29  1  1  0  0  0
 31 30  1  0  0  0  0
 32 31  1  0  0  0  0
 33 32  1  0  0  0  0
 34 33  1  0  0  0  0
 35 34  1  0  0  0  0
 36 35  1  0  0  0  0
 37 38  1  0  0  0  0
 38 36  1  0  0  0  0
M  END
>  <MODEL>
8

>  <REMARK>
 VINA RESULT:      -5.7      2.742      4.415
  Name = 
  18 active torsions:
  status: ('A' for Active; 'I' for Inactive)
    1  A    between atoms: C_1  and  C_6
    2  A    between atoms: C_1  and  C_24
    3  A    between atoms: C_3  and  C_36
    4  A    between atoms: C_4  and  C_17
    5  A    between atoms: C_4  and  C_21
    6  A    between atoms: C_6  and  C_28
    7  A    between atoms: C_7  and  C_28
    8  A    between atoms: C_7  and  C_31
    9  A    between atoms: C_11  and  C_27
   10  A    between atoms: C_11  and  C_30
   11  A    between atoms: O_12  and  N_25
   12  A    between atoms: O_12  and  C_36
   13  A    between atoms: C_17  and  C_24
   14  A    between atoms: C_21  and  C_34
   15  A    between atoms: C_22  and  C_27
   16  A    between atoms: C_29  and  C_34
   17  A    between atoms: C_32  and  C_37
   18  A    between atoms: C_33  and  C_36
                            x       y       z     vdW  Elec       q    Type
                         _______ _______ _______ _____ _____    ______ ____

>  <TORSDO>
F 18

$$$$
=
 OpenBabel11062419273D

 38 39  0  0  1  0  0  0  0  0999 V2000
  192.9360  175.8240  144.0520 C   0  0  0  0  0  0  0  0  0  0  0  0
  191.0270  175.2400  145.4230 C   0  0  0  0  0  0  0  0  0  0  0  0
  190.4820  176.2840  143.3610 C   0  0  2  0  0  3  0  0  0  0  0  0
  193.4900  176.4200  142.7930 C   0  0  0  0  0  1  0  0  0  0  0  0
  191.5500  175.7740  144.2620 C   0  0  0  0  0  0  0  0  0  0  0  0
  193.2430  174.7620  146.2300 C   0  0  0  0  0  3  0  0  0  0  0  0
  190.5000  177.8090  143.3610 C   0  0  0  0  0  1  0  0  0  0  0  0
  193.7890  175.3200  145.0580 C   0  0  0  0  0  0  0  0  0  0  0  0
  189.2020  175.7180  144.0110 C   0  0  1  0  0  3  0  0  0  0  0  0
  189.5440  175.2940  145.4550 C   0  0  2  0  0  3  0  0  0  0  0  0
  191.8540  174.7220  146.4200 C   0  0  0  0  0  3  0  0  0  0  0  0
  187.9890  175.9220  147.3090 O   0  0  0  0  0  1  0  0  0  0  0  0
  189.6540  177.3670  146.6770 O   0  0  0  0  0  0  0  0  0  0  0  0
  189.0710  176.2640  146.5060 C   0  0  0  0  0  0  0  0  0  0  0  0
  195.2740  175.3850  144.9170 C   0  0  0  0  0  2  0  0  0  0  0  0
  195.8170  174.1330  144.2480 C   0  0  0  0  0  2  0  0  0  0  0  0
  197.1200  173.4640  146.1280 O   0  0  0  0  0  0  0  0  0  0  0  0
  196.2150  173.1580  145.3010 C   0  0  0  0  0  0  0  0  0  0  0  0
  195.6590  171.8450  145.2950 N   0  0  0  0  0  2  0  0  0  0  0  0
  196.0660  170.8910  146.1720 O   0  0  0  0  0  0  0  0  0  0  0  0
  195.0090  169.9700  146.2160 C   0  0  2  0  0  3  0  0  0  0  0  0
  195.2790  168.8940  147.2580 C   0  0  0  0  0  2  0  0  0  0  0  0
  196.6250  168.9220  147.6260 O   0  0  0  0  0  1  0  0  0  0  0  0
  193.3830  168.7330  144.7220 C   0  0  0  0  0  1  0  0  0  0  0  0
  194.7620  169.3660  144.8340 C   0  0  0  0  0  2  0  0  0  0  0  0
  187.9040  176.5040  143.8070 C   0  0  0  0  0  2  0  0  0  0  0  0
  187.2060  176.0230  142.5410 C   0  0  2  0  0  3  0  0  0  0  0  0
  187.8000  174.6840  142.1250 C   0  0  0  0  0  1  0  0  0  0  0  0
  187.0670  176.4670  140.1720 O   0  0  0  0  0  1  0  0  0  0  0  0
  187.3630  177.0460  141.4110 C   0  0  1  0  0  3  0  0  0  0  0  0
  186.4910  178.2900  141.6240 C   0  0  0  0  0  2  0  0  0  0  0  0
  185.0320  177.9350  141.9080 C   0  0  0  0  0  2  0  0  0  0  0  0
  184.5510  178.5340  143.2190 C   0  0  0  0  0  2  0  0  0  0  0  0
  185.5750  179.5150  143.7600 C   0  0  0  0  0  2  0  0  0  0  0  0
  185.5600  179.4690  145.2790 C   0  0  0  0  0  2  0  0  0  0  0  0
  184.3740  178.6610  145.7770 C   0  0  0  0  0  2  0  0  0  0  0  0
  185.1530  176.4390  146.1240 O   0  0  0  0  0  1  0  0  0  0  0  0
  184.8570  177.6340  146.7820 C   0  0  0  0  0  2  0  0  0  0  0  0
  1  5  2  0  0  0  0
  1  8  1  0  0  0  0
  2 10  1  0  0  0  0
  2 11  2  0  0  0  0
  3  7  1  1  0  0  0
  3  9  1  0  0  0  0
  3  5  1  0  0  0  0
  4  1  1  0  0  0  0
  5  2  1  0  0  0  0
  6 11  1  0  0  0  0
  8  6  2  0  0  0  0
  9 26  1  1  0  0  0
  9 10  1  0  0  0  0
 10 14  1  1  0  0  0
 14 13  2  0  0  0  0
 14 12  1  0  0  0  0
 15  8  1  0  0  0  0
 16 15  1  0  0  0  0
 16 18  1  0  0  0  0
 18 17  2  0  0  0  0
 19 18  1  0  0  0  0
 19 20  1  0  0  0  0
 20 21  1  0  0  0  0
 21 25  1  6  0  0  0
 21 22  1  0  0  0  0
 22 23  1  0  0  0  0
 24 25  1  0  0  0  0
 27 28  1  6  0  0  0
 27 26  1  0  0  0  0
 30 29  1  6  0  0  0
 30 31  1  0  0  0  0
 30 27  1  0  0  0  0
 31 32  1  0  0  0  0
 32 33  1  0  0  0  0
 33 34  1  0  0  0  0
 34 35  1  0  0  0  0
 35 36  1  0  0  0  0
 36 38  1  0  0  0  0
 37 38  1  0  0  0  0
M  END
>  <MODEL>
9

>  <REMARK>
 VINA RESULT:      -5.7      2.803      4.850
  Name = 
  18 active torsions:
  status: ('A' for Active; 'I' for Inactive)
    1  A    between atoms: C_1  and  C_6
    2  A    between atoms: C_1  and  C_24
    3  A    between atoms: C_3  and  C_36
    4  A    between atoms: C_4  and  C_17
    5  A    between atoms: C_4  and  C_21
    6  A    between atoms: C_6  and  C_28
    7  A    between atoms: C_7  and  C_28
    8  A    between atoms: C_7  and  C_31
    9  A    between atoms: C_11  and  C_27
   10  A    between atoms: C_11  and  C_30
   11  A    between atoms: O_12  and  N_25
   12  A    between atoms: O_12  and  C_36
   13  A    between atoms: C_17  and  C_24
   14  A    between atoms: C_21  and  C_34
   15  A    between atoms: C_22  and  C_27
   16  A    between atoms: C_29  and  C_34
   17  A    between atoms: C_32  and  C_37
   18  A    between atoms: C_33  and  C_36
                            x       y       z     vdW  Elec       q    Type
                         _______ _______ _______ _____ _____    ______ ____

>  <TORSDO>
F 18

$$$$
