=
 OpenBabel11062421123D

 33 35  0  0  1  0  0  0  0  0999 V2000
  188.9490  176.8880  144.4710 C   0  0  1  0  0  3  0  0  0  0  0  0
  186.9950  176.5980  143.0030 C   0  0  0  0  0  2  0  0  0  0  0  0
  188.1250  177.5090  145.6120 C   0  0  1  0  0  3  0  0  0  0  0  0
  184.4680  179.3090  144.2750 C   0  0  0  0  0  2  0  0  0  0  0  0
  185.2070  178.3700  143.2960 C   0  0  1  0  0  3  0  0  0  0  0  0
  186.6650  177.7350  145.2800 C   0  0  0  0  0  0  0  0  0  0  0  0
  185.9320  178.5040  146.0970 C   0  0  0  0  0  3  0  0  0  0  0  0
  186.0210  177.2560  143.9860 C   0  0  2  0  0  3  0  0  0  0  0  0
  188.3810  177.2100  143.0980 C   0  0  0  0  0  2  0  0  0  0  0  0
  184.5170  178.8330  145.7290 C   0  0  0  0  0  2  0  0  0  0  0  0
  190.3630  177.3650  144.5470 C   0  0  0  0  0  3  0  0  0  0  0  0
  191.4500  176.6330  144.2580 C   0  0  0  0  0  0  0  0  0  0  0  0
  191.4230  175.2000  143.8640 C   0  0  0  0  0  0  0  0  0  0  0  0
  191.1510  171.7270  144.2640 O   0  0  0  0  0  0  0  0  0  0  0  0
  191.2630  172.9300  143.9090 C   0  0  0  0  0  0  0  0  0  0  0  0
  191.5030  174.7390  142.6140 C   0  0  0  0  0  3  0  0  0  0  0  0
  191.2520  174.0800  144.8420 C   0  0  0  0  0  3  0  0  0  0  0  0
  191.4140  173.3220  142.5570 N   0  0  0  0  0  0  0  0  0  0  0  0
  192.7740  177.3190  144.3640 C   0  0  0  0  0  2  0  0  0  0  0  0
  193.6280  176.6770  145.4160 C   0  0  0  0  0  0  0  0  0  0  0  0
  193.2020  176.6070  146.5990 O   0  0  0  0  0  0  0  0  0  0  0  0
  194.8880  176.1490  145.1140 O   0  0  0  0  0  0  0  0  0  0  0  0
  195.2790  175.7580  143.8010 C   0  0  0  0  0  2  0  0  0  0  0  0
  197.6310  174.9340  143.9180 O   0  0  0  0  0  1  0  0  0  0  0  0
  196.7460  175.9560  143.6000 C   0  0  0  0  0  0  0  0  0  0  0  0
  197.1870  177.0530  143.1670 O   0  0  0  0  0  0  0  0  0  0  0  0
  188.2410  176.6520  146.8700 C   0  0  0  0  0  2  0  0  0  0  0  0
  188.2800  175.2960  146.5340 O   0  0  0  0  0  0  0  0  0  0  0  0
  189.0430  174.7080  147.5460 C   0  0  0  0  0  1  0  0  0  0  0  0
  184.2540  177.7750  142.3680 N   0  0  0  0  0  2  0  0  0  0  0  0
  183.0310  178.2280  140.4860 C   0  0  0  0  0  1  0  0  0  0  0  0
  184.2410  178.5710  141.2130 N   0  0  0  0  0  0  0  0  0  0  0  0
  185.2810  178.1650  140.4460 O   0  0  0  0  0  1  0  0  0  0  0  0
  1 11  1  6  0  0  0
  1  3  1  0  0  0  0
  2  9  1  0  0  0  0
  3 27  1  1  0  0  0
  4 10  1  0  0  0  0
  5 30  1  6  0  0  0
  5  8  1  0  0  0  0
  5  4  1  0  0  0  0
  6  3  1  0  0  0  0
  6  7  2  0  0  0  0
  8  2  1  6  0  0  0
  8  6  1  0  0  0  0
  9  1  1  0  0  0  0
 10  7  1  0  0  0  0
 12 19  1  0  0  0  0
 12 11  2  0  0  0  0
 13 12  1  0  0  0  0
 13 17  2  0  0  0  0
 15 14  2  0  0  0  0
 15 17  1  0  0  0  0
 16 13  1  0  0  0  0
 18 16  2  0  0  0  0
 18 15  1  0  0  0  0
 19 20  1  0  0  0  0
 20 21  2  0  0  0  0
 22 20  1  0  0  0  0
 23 22  1  0  0  0  0
 25 23  1  0  0  0  0
 25 24  1  0  0  0  0
 26 25  2  0  0  0  0
 28 27  1  0  0  0  0
 28 29  1  0  0  0  0
 31 32  1  0  0  0  0
 32 30  1  0  0  0  0
 33 32  1  0  0  0  0
M  END
>  <MODEL>
1

>  <REMARK>
 VINA RESULT:      -6.9      0.000      0.000
  Name = 
  11 active torsions:
  status: ('A' for Active; 'I' for Inactive)
    1  A    between atoms: C_1  and  C_2
    2  A    between atoms: C_3  and  C_12
    3  A    between atoms: C_3  and  O_21
    4  A    between atoms: C_6  and  C_7
    5  A    between atoms: C_6  and  C_12
    6  A    between atoms: C_8  and  C_16
    7  A    between atoms: O_10  and  C_16
    8  A    between atoms: C_13  and  C_14
    9  A    between atoms: C_14  and  O_21
   10  A    between atoms: N_17  and  N_20
   11  A    between atoms: C_19  and  N_20
                            x       y       z     vdW  Elec       q    Type
                         _______ _______ _______ _____ _____    ______ ____

>  <TORSDO>
F 11

$$$$
=
 OpenBabel11062421123D

 33 35  0  0  1  0  0  0  0  0999 V2000
  188.9040  176.8270  144.4490 C   0  0  1  0  0  3  0  0  0  0  0  0
  186.9390  176.5630  142.9910 C   0  0  0  0  0  2  0  0  0  0  0  0
  188.0940  177.4570  145.5950 C   0  0  1  0  0  3  0  0  0  0  0  0
  184.4520  179.3030  144.2800 C   0  0  0  0  0  2  0  0  0  0  0  0
  185.1740  178.3560  143.2950 C   0  0  1  0  0  3  0  0  0  0  0  0
  186.6350  177.7010  145.2710 C   0  0  0  0  0  0  0  0  0  0  0  0
  185.9150  178.4770  146.0930 C   0  0  0  0  0  3  0  0  0  0  0  0
  185.9790  177.2310  143.9790 C   0  0  2  0  0  3  0  0  0  0  0  0
  188.3330  177.1580  143.0790 C   0  0  0  0  0  2  0  0  0  0  0  0
  184.5020  178.8230  145.7330 C   0  0  0  0  0  2  0  0  0  0  0  0
  190.3240  177.2870  144.5180 C   0  0  0  0  0  3  0  0  0  0  0  0
  191.4020  176.5410  144.2290 C   0  0  0  0  0  0  0  0  0  0  0  0
  191.3550  175.1070  143.8410 C   0  0  0  0  0  0  0  0  0  0  0  0
  191.1440  171.6320  144.2670 O   0  0  0  0  0  0  0  0  0  0  0  0
  191.2180  172.8350  143.9030 C   0  0  0  0  0  0  0  0  0  0  0  0
  191.3410  174.6430  142.5890 C   0  0  0  0  0  3  0  0  0  0  0  0
  191.2710  173.9870  144.8310 C   0  0  0  0  0  3  0  0  0  0  0  0
  191.2590  173.2250  142.5420 N   0  0  0  0  0  0  0  0  0  0  0  0
  192.7340  177.2110  144.3280 C   0  0  0  0  0  2  0  0  0  0  0  0
  193.4970  176.7140  145.5190 C   0  0  0  0  0  0  0  0  0  0  0  0
  192.8920  176.5370  146.6090 O   0  0  0  0  0  0  0  0  0  0  0  0
  194.8670  176.4390  145.4490 O   0  0  0  0  0  0  0  0  0  0  0  0
  195.4600  175.6830  144.3970 C   0  0  0  0  0  2  0  0  0  0  0  0
  195.0050  173.5650  145.6350 O   0  0  0  0  0  1  0  0  0  0  0  0
  194.9970  174.2630  144.4340 C   0  0  0  0  0  0  0  0  0  0  0  0
  194.6200  173.6890  143.3790 O   0  0  0  0  0  0  0  0  0  0  0  0
  188.2060  176.5960  146.8510 C   0  0  0  0  0  2  0  0  0  0  0  0
  188.3350  175.2470  146.5080 O   0  0  0  0  0  0  0  0  0  0  0  0
  189.1090  174.6990  147.5340 C   0  0  0  0  0  1  0  0  0  0  0  0
  184.2090  177.7740  142.3720 N   0  0  0  0  0  2  0  0  0  0  0  0
  182.9980  178.2120  140.4780 C   0  0  0  0  0  1  0  0  0  0  0  0
  184.1880  178.5820  141.2250 N   0  0  0  0  0  0  0  0  0  0  0  0
  185.2490  178.2150  140.4670 O   0  0  0  0  0  1  0  0  0  0  0  0
  1 11  1  6  0  0  0
  1  3  1  0  0  0  0
  2  9  1  0  0  0  0
  3 27  1  1  0  0  0
  4 10  1  0  0  0  0
  5 30  1  6  0  0  0
  5  8  1  0  0  0  0
  5  4  1  0  0  0  0
  6  3  1  0  0  0  0
  6  7  2  0  0  0  0
  8  2  1  6  0  0  0
  8  6  1  0  0  0  0
  9  1  1  0  0  0  0
 10  7  1  0  0  0  0
 12 19  1  0  0  0  0
 12 11  2  0  0  0  0
 13 12  1  0  0  0  0
 13 17  2  0  0  0  0
 15 14  2  0  0  0  0
 15 17  1  0  0  0  0
 16 13  1  0  0  0  0
 18 16  2  0  0  0  0
 18 15  1  0  0  0  0
 19 20  1  0  0  0  0
 20 21  2  0  0  0  0
 22 20  1  0  0  0  0
 23 25  1  0  0  0  0
 23 22  1  0  0  0  0
 25 24  1  0  0  0  0
 26 25  2  0  0  0  0
 28 27  1  0  0  0  0
 28 29  1  0  0  0  0
 31 32  1  0  0  0  0
 32 30  1  0  0  0  0
 33 32  1  0  0  0  0
M  END
>  <MODEL>
2

>  <REMARK>
 VINA RESULT:      -6.8      0.873      1.062
  Name = 
  11 active torsions:
  status: ('A' for Active; 'I' for Inactive)
    1  A    between atoms: C_1  and  C_2
    2  A    between atoms: C_3  and  C_12
    3  A    between atoms: C_3  and  O_21
    4  A    between atoms: C_6  and  C_7
    5  A    between atoms: C_6  and  C_12
    6  A    between atoms: C_8  and  C_16
    7  A    between atoms: O_10  and  C_16
    8  A    between atoms: C_13  and  C_14
    9  A    between atoms: C_14  and  O_21
   10  A    between atoms: N_17  and  N_20
   11  A    between atoms: C_19  and  N_20
                            x       y       z     vdW  Elec       q    Type
                         _______ _______ _______ _____ _____    ______ ____

>  <TORSDO>
F 11

$$$$
=
 OpenBabel11062421123D

 33 35  0  0  1  0  0  0  0  0999 V2000
  190.3490  176.5320  145.0160 C   0  0  1  0  0  3  0  0  0  0  0  0
  188.7540  177.5890  143.4680 C   0  0  0  0  0  2  0  0  0  0  0  0
  189.2510  176.0740  145.9920 C   0  0  1  0  0  3  0  0  0  0  0  0
  185.6700  178.4230  145.7370 C   0  0  0  0  0  2  0  0  0  0  0  0
  186.7030  178.5600  144.5960 C   0  0  1  0  0  3  0  0  0  0  0  0
  187.8570  176.5460  145.6340 C   0  0  0  0  0  0  0  0  0  0  0  0
  186.8840  176.4280  146.5480 C   0  0  0  0  0  3  0  0  0  0  0  0
  187.5340  177.2850  144.3420 C   0  0  2  0  0  3  0  0  0  0  0  0
  189.9960  177.8300  144.3070 C   0  0  0  0  0  2  0  0  0  0  0  0
  185.5260  176.9900  146.2580 C   0  0  0  0  0  2  0  0  0  0  0  0
  191.6400  176.7010  145.7480 C   0  0  0  0  0  3  0  0  0  0  0  0
  192.7220  175.9180  145.6150 C   0  0  0  0  0  0  0  0  0  0  0  0
  192.7880  174.7120  144.7490 C   0  0  0  0  0  0  0  0  0  0  0  0
  192.6470  172.8210  141.7990 O   0  0  0  0  0  0  0  0  0  0  0  0
  192.7580  173.3140  142.9510 C   0  0  0  0  0  0  0  0  0  0  0  0
  193.1340  173.4870  145.1520 C   0  0  0  0  0  3  0  0  0  0  0  0
  192.5110  174.7370  143.2770 C   0  0  0  0  0  3  0  0  0  0  0  0
  193.1360  172.5510  144.0830 N   0  0  0  0  0  0  0  0  0  0  0  0
  193.9280  176.2890  146.4160 C   0  0  0  0  0  2  0  0  0  0  0  0
  194.9570  176.9610  145.5580 C   0  0  0  0  0  0  0  0  0  0  0  0
  195.1170  178.2070  145.6480 O   0  0  0  0  0  0  0  0  0  0  0  0
  195.7480  176.2360  144.6600 O   0  0  0  0  0  0  0  0  0  0  0  0
  196.4030  176.8270  143.5410 C   0  0  0  0  0  2  0  0  0  0  0  0
  196.0500  176.7330  141.0730 O   0  0  0  0  0  0  0  0  0  0  0  0
  196.1100  176.0650  142.2900 C   0  0  0  0  0  0  0  0  0  0  0  0
  195.8950  174.8250  142.3340 O   0  0  0  0  0  1  0  0  0  0  0  0
  189.2630  174.5530  146.1190 C   0  0  0  0  0  2  0  0  0  0  0  0
  189.4300  173.9600  144.8640 O   0  0  0  0  0  0  0  0  0  0  0  0
  189.6560  172.6100  145.1440 C   0  0  0  0  0  1  0  0  0  0  0  0
  186.0300  178.9560  143.3650 N   0  0  0  0  0  2  0  0  0  0  0  0
  185.6410  177.8060  141.4240 C   0  0  0  0  0  1  0  0  0  0  0  0
  185.3880  177.8190  142.8540 N   0  0  0  0  0  0  0  0  0  0  0  0
  184.0570  178.0170  143.0090 O   0  0  0  0  0  1  0  0  0  0  0  0
  1 11  1  1  0  0  0
  1  3  1  0  0  0  0
  2  9  1  0  0  0  0
  3 27  1  6  0  0  0
  4 10  1  0  0  0  0
  5 30  1  6  0  0  0
  5  4  1  0  0  0  0
  6  3  1  0  0  0  0
  6  7  2  0  0  0  0
  8  2  1  1  0  0  0
  8  5  1  0  0  0  0
  8  6  1  0  0  0  0
  9  1  1  0  0  0  0
 10  7  1  0  0  0  0
 12 11  2  0  0  0  0
 12 19  1  0  0  0  0
 13 16  1  0  0  0  0
 13 12  1  0  0  0  0
 14 15  2  0  0  0  0
 15 17  1  0  0  0  0
 15 18  1  0  0  0  0
 17 13  2  0  0  0  0
 18 16  2  0  0  0  0
 20 21  2  0  0  0  0
 20 19  1  0  0  0  0
 22 20  1  0  0  0  0
 23 22  1  0  0  0  0
 24 25  2  0  0  0  0
 25 26  1  0  0  0  0
 25 23  1  0  0  0  0
 28 29  1  0  0  0  0
 28 27  1  0  0  0  0
 31 32  1  0  0  0  0
 32 33  1  0  0  0  0
 32 30  1  0  0  0  0
M  END
>  <MODEL>
3

>  <REMARK>
 VINA RESULT:      -6.6      1.769      2.293
  Name = 
  11 active torsions:
  status: ('A' for Active; 'I' for Inactive)
    1  A    between atoms: C_1  and  C_2
    2  A    between atoms: C_3  and  C_12
    3  A    between atoms: C_3  and  O_21
    4  A    between atoms: C_6  and  C_7
    5  A    between atoms: C_6  and  C_12
    6  A    between atoms: C_8  and  C_16
    7  A    between atoms: O_10  and  C_16
    8  A    between atoms: C_13  and  C_14
    9  A    between atoms: C_14  and  O_21
   10  A    between atoms: N_17  and  N_20
   11  A    between atoms: C_19  and  N_20
                            x       y       z     vdW  Elec       q    Type
                         _______ _______ _______ _____ _____    ______ ____

>  <TORSDO>
F 11

$$$$
=
 OpenBabel11062421123D

 33 35  0  0  1  0  0  0  0  0999 V2000
  188.8060  175.8500  144.2960 C   0  0  1  0  0  3  0  0  0  0  0  0
  186.4500  176.4370  143.8970 C   0  0  0  0  0  2  0  0  0  0  0  0
  188.7490  176.2220  145.7880 C   0  0  1  0  0  3  0  0  0  0  0  0
  185.6490  179.0380  146.7160 C   0  0  0  0  0  2  0  0  0  0  0  0
  185.5950  178.3360  145.3400 C   0  0  1  0  0  3  0  0  0  0  0  0
  187.4340  176.8250  146.2350 C   0  0  0  0  0  0  0  0  0  0  0  0
  187.3740  177.4190  147.4350 C   0  0  0  0  0  3  0  0  0  0  0  0
  186.2130  176.9220  145.3300 C   0  0  2  0  0  3  0  0  0  0  0  0
  187.8750  176.7010  143.4470 C   0  0  0  0  0  2  0  0  0  0  0  0
  186.1160  178.1190  147.8490 C   0  0  0  0  0  2  0  0  0  0  0  0
  190.2050  175.9900  143.7900 C   0  0  0  0  0  3  0  0  0  0  0  0
  190.7530  175.2690  142.8000 C   0  0  0  0  0  0  0  0  0  0  0  0
  190.0640  174.1670  142.0780 C   0  0  0  0  0  0  0  0  0  0  0  0
  188.0820  172.6330  139.6260 O   0  0  0  0  0  0  0  0  0  0  0  0
  188.8290  172.9830  140.5770 C   0  0  0  0  0  0  0  0  0  0  0  0
  190.1590  172.8690  142.3740 C   0  0  0  0  0  3  0  0  0  0  0  0
  189.1960  174.3850  140.8780 C   0  0  0  0  0  3  0  0  0  0  0  0
  189.4100  172.0580  141.4790 N   0  0  0  0  0  0  0  0  0  0  0  0
  192.1620  175.5970  142.4250 C   0  0  0  0  0  2  0  0  0  0  0  0
  193.1350  174.8300  143.2680 C   0  0  0  0  0  0  0  0  0  0  0  0
  193.7900  173.8860  142.7510 O   0  0  0  0  0  0  0  0  0  0  0  0
  193.3380  175.1390  144.6170 O   0  0  0  0  0  0  0  0  0  0  0  0
  194.6290  175.2860  145.2010 C   0  0  0  0  0  2  0  0  0  0  0  0
  194.8180  177.7300  145.6630 O   0  0  0  0  0  1  0  0  0  0  0  0
  195.1990  176.6330  144.9010 C   0  0  0  0  0  0  0  0  0  0  0  0
  196.0060  176.7850  143.9460 O   0  0  0  0  0  0  0  0  0  0  0  0
  189.0750  175.0020  146.6450 C   0  0  0  0  0  2  0  0  0  0  0  0
  190.4560  174.8900  146.8300 O   0  0  0  0  0  0  0  0  0  0  0  0
  190.7940  175.9980  147.6110 C   0  0  0  0  0  1  0  0  0  0  0  0
  184.2160  178.2700  144.8730 N   0  0  0  0  0  2  0  0  0  0  0  0
  183.7360  178.3980  142.6380 C   0  0  0  0  0  1  0  0  0  0  0  0
  184.0890  179.1770  143.8120 N   0  0  0  0  0  0  0  0  0  0  0  0
  185.3230  179.6850  143.5800 O   0  0  0  0  0  1  0  0  0  0  0  0
  1 11  1  6  0  0  0
  1  3  1  0  0  0  0
  3  6  1  0  0  0  0
  3 27  1  1  0  0  0
  4 10  1  0  0  0  0
  5 30  1  1  0  0  0
  5  4  1  0  0  0  0
  6  7  2  0  0  0  0
  7 10  1  0  0  0  0
  8  2  1  6  0  0  0
  8  5  1  0  0  0  0
  8  6  1  0  0  0  0
  9  2  1  0  0  0  0
  9  1  1  0  0  0  0
 12 11  2  0  0  0  0
 13 16  1  0  0  0  0
 13 12  1  0  0  0  0
 14 15  2  0  0  0  0
 15 17  1  0  0  0  0
 15 18  1  0  0  0  0
 17 13  2  0  0  0  0
 18 16  2  0  0  0  0
 19 12  1  0  0  0  0
 19 20  1  0  0  0  0
 20 22  1  0  0  0  0
 21 20  2  0  0  0  0
 22 23  1  0  0  0  0
 25 23  1  0  0  0  0
 25 24  1  0  0  0  0
 26 25  2  0  0  0  0
 27 28  1  0  0  0  0
 28 29  1  0  0  0  0
 31 32  1  0  0  0  0
 32 30  1  0  0  0  0
 33 32  1  0  0  0  0
M  END
>  <MODEL>
4

>  <REMARK>
 VINA RESULT:      -6.5      2.121      2.705
  Name = 
  11 active torsions:
  status: ('A' for Active; 'I' for Inactive)
    1  A    between atoms: C_1  and  C_2
    2  A    between atoms: C_3  and  C_12
    3  A    between atoms: C_3  and  O_21
    4  A    between atoms: C_6  and  C_7
    5  A    between atoms: C_6  and  C_12
    6  A    between atoms: C_8  and  C_16
    7  A    between atoms: O_10  and  C_16
    8  A    between atoms: C_13  and  C_14
    9  A    between atoms: C_14  and  O_21
   10  A    between atoms: N_17  and  N_20
   11  A    between atoms: C_19  and  N_20
                            x       y       z     vdW  Elec       q    Type
                         _______ _______ _______ _____ _____    ______ ____

>  <TORSDO>
F 11

$$$$
=
 OpenBabel11062421123D

 33 35  0  0  1  0  0  0  0  0999 V2000
  189.8300  175.3550  144.7980 C   0  0  1  0  0  3  0  0  0  0  0  0
  190.5680  173.8790  142.9720 C   0  0  0  0  0  2  0  0  0  0  0  0
  191.1200  175.1580  145.6120 C   0  0  1  0  0  3  0  0  0  0  0  0
  193.1640  171.5010  144.6930 C   0  0  0  0  0  2  0  0  0  0  0  0
  192.0590  171.9710  143.7200 C   0  0  1  0  0  3  0  0  0  0  0  0
  192.0890  174.1560  145.0200 C   0  0  0  0  0  0  0  0  0  0  0  0
  193.1050  173.7220  145.7780 C   0  0  0  0  0  3  0  0  0  0  0  0
  191.8840  173.5030  143.6600 C   0  0  2  0  0  3  0  0  0  0  0  0
  189.4620  174.1260  143.9810 C   0  0  0  0  0  2  0  0  0  0  0  0
  194.0100  172.6480  145.2540 C   0  0  0  0  0  2  0  0  0  0  0  0
  188.6990  175.7000  145.7110 C   0  0  0  0  0  3  0  0  0  0  0  0
  187.5970  176.3840  145.3660 C   0  0  0  0  0  0  0  0  0  0  0  0
  187.3500  176.9600  144.0190 C   0  0  0  0  0  0  0  0  0  0  0  0
  185.8390  177.3400  140.8770 O   0  0  0  0  0  0  0  0  0  0  0  0
  186.4960  177.3780  141.9500 C   0  0  0  0  0  0  0  0  0  0  0  0
  187.9630  178.0310  143.5100 C   0  0  0  0  0  3  0  0  0  0  0  0
  186.3270  176.4220  143.0670 C   0  0  0  0  0  3  0  0  0  0  0  0
  187.4850  178.3580  142.2120 N   0  0  0  0  0  0  0  0  0  0  0  0
  186.5670  176.5880  146.4300 C   0  0  0  0  0  2  0  0  0  0  0  0
  186.5760  178.0050  146.9210 C   0  0  0  0  0  0  0  0  0  0  0  0
  187.5050  178.3890  147.6800 O   0  0  0  0  0  0  0  0  0  0  0  0
  185.5770  178.9130  146.5550 O   0  0  0  0  0  0  0  0  0  0  0  0
  184.4290  178.5490  145.7940 C   0  0  0  0  0  2  0  0  0  0  0  0
  185.3380  180.2410  144.2030 O   0  0  0  0  0  1  0  0  0  0  0  0
  184.4480  179.2040  144.4520 C   0  0  0  0  0  0  0  0  0  0  0  0
  183.6460  178.8380  143.5530 O   0  0  0  0  0  0  0  0  0  0  0  0
  191.8220  176.4980  145.8130 C   0  0  0  0  0  2  0  0  0  0  0  0
  192.4010  176.5600  147.0840 O   0  0  0  0  0  0  0  0  0  0  0  0
  191.3150  176.6790  147.9560 C   0  0  0  0  0  1  0  0  0  0  0  0
  192.3270  171.4580  142.3830 N   0  0  0  0  0  2  0  0  0  0  0  0
  193.0550  169.5040  141.4360 C   0  0  0  0  0  1  0  0  0  0  0  0
  192.1520  170.0680  142.4250 N   0  0  0  0  0  0  0  0  0  0  0  0
  190.8950  169.8170  141.9870 O   0  0  0  0  0  1  0  0  0  0  0  0
  1  3  1  0  0  0  0
  1 11  1  1  0  0  0
  2  9  1  0  0  0  0
  3 27  1  6  0  0  0
  4 10  1  0  0  0  0
  5 30  1  6  0  0  0
  5  4  1  0  0  0  0
  6  3  1  0  0  0  0
  6  7  2  0  0  0  0
  8  2  1  1  0  0  0
  8  5  1  0  0  0  0
  8  6  1  0  0  0  0
  9  1  1  0  0  0  0
 10  7  1  0  0  0  0
 12 11  2  0  0  0  0
 12 19  1  0  0  0  0
 13 12  1  0  0  0  0
 14 15  2  0  0  0  0
 15 18  1  0  0  0  0
 15 17  1  0  0  0  0
 16 13  1  0  0  0  0
 17 13  2  0  0  0  0
 18 16  2  0  0  0  0
 19 20  1  0  0  0  0
 20 21  2  0  0  0  0
 22 20  1  0  0  0  0
 23 22  1  0  0  0  0
 24 25  1  0  0  0  0
 25 23  1  0  0  0  0
 26 25  2  0  0  0  0
 27 28  1  0  0  0  0
 28 29  1  0  0  0  0
 30 32  1  0  0  0  0
 31 32  1  0  0  0  0
 33 32  1  0  0  0  0
M  END
>  <MODEL>
5

>  <REMARK>
 VINA RESULT:      -6.3      2.629      8.311
  Name = 
  11 active torsions:
  status: ('A' for Active; 'I' for Inactive)
    1  A    between atoms: C_1  and  C_2
    2  A    between atoms: C_3  and  C_12
    3  A    between atoms: C_3  and  O_21
    4  A    between atoms: C_6  and  C_7
    5  A    between atoms: C_6  and  C_12
    6  A    between atoms: C_8  and  C_16
    7  A    between atoms: O_10  and  C_16
    8  A    between atoms: C_13  and  C_14
    9  A    between atoms: C_14  and  O_21
   10  A    between atoms: N_17  and  N_20
   11  A    between atoms: C_19  and  N_20
                            x       y       z     vdW  Elec       q    Type
                         _______ _______ _______ _____ _____    ______ ____

>  <TORSDO>
F 11

$$$$
=
 OpenBabel11062421123D

 33 35  0  0  1  0  0  0  0  0999 V2000
  189.9910  176.0280  144.0290 C   0  0  1  0  0  3  0  0  0  0  0  0
  192.2590  176.9780  143.9520 C   0  0  0  0  0  2  0  0  0  0  0  0
  190.4720  174.6640  144.5510 C   0  0  1  0  0  3  0  0  0  0  0  0
  194.5720  173.8350  143.5980 C   0  0  0  0  0  2  0  0  0  0  0  0
  194.0740  175.2880  143.4310 C   0  0  1  0  0  3  0  0  0  0  0  0
  191.9770  174.5250  144.6500 C   0  0  0  0  0  0  0  0  0  0  0  0
  192.4990  173.3050  144.8370 C   0  0  0  0  0  3  0  0  0  0  0  0
  192.9370  175.6800  144.3980 C   0  0  2  0  0  3  0  0  0  0  0  0
  191.0140  176.7030  143.1290 C   0  0  0  0  0  2  0  0  0  0  0  0
  193.9870  173.1290  144.8250 C   0  0  0  0  0  2  0  0  0  0  0  0
  188.7070  175.8630  143.2820 C   0  0  0  0  0  3  0  0  0  0  0  0
  187.5020  176.2840  143.6970 C   0  0  0  0  0  0  0  0  0  0  0  0
  187.2430  176.9430  145.0040 C   0  0  0  0  0  0  0  0  0  0  0  0
  185.8370  177.4110  148.1820 O   0  0  0  0  0  0  0  0  0  0  0  0
  186.4570  177.4190  147.0870 C   0  0  0  0  0  0  0  0  0  0  0  0
  187.8570  178.0400  145.4530 C   0  0  0  0  0  3  0  0  0  0  0  0
  186.2730  176.4160  146.0150 C   0  0  0  0  0  2  0  0  0  0  0  0
  187.4170  178.4070  146.7540 N   0  0  0  0  0  2  0  0  0  0  0  0
  186.3490  176.0490  142.7750 C   0  0  0  0  0  2  0  0  0  0  0  0
  186.1730  177.2010  141.8320 C   0  0  0  0  0  0  0  0  0  0  0  0
  186.6690  177.1340  140.6770 O   0  0  0  0  0  0  0  0  0  0  0  0
  185.4650  178.3490  142.2030 O   0  0  0  0  0  0  0  0  0  0  0  0
  184.3180  178.3220  143.0490 C   0  0  0  0  0  2  0  0  0  0  0  0
  183.7990  178.9480  145.4070 O   0  0  0  0  0  1  0  0  0  0  0  0
  184.5160  179.1960  144.2440 C   0  0  0  0  0  0  0  0  0  0  0  0
  185.3120  180.1710  144.1950 O   0  0  0  0  0  0  0  0  0  0  0  0
  189.8370  174.3680  145.9080 C   0  0  0  0  0  2  0  0  0  0  0  0
  189.8080  175.5230  146.6950 O   0  0  0  0  0  0  0  0  0  0  0  0
  190.6610  175.2370  147.7640 C   0  0  0  0  0  1  0  0  0  0  0  0
  195.1890  176.2130  143.5880 N   0  0  0  0  0  2  0  0  0  0  0  0
  197.4080  176.3410  143.0380 C   0  0  0  0  0  1  0  0  0  0  0  0
  196.0960  175.9570  142.5490 N   0  0  0  0  0  0  0  0  0  0  0  0
  195.7920  176.8130  141.5440 O   0  0  0  0  0  1  0  0  0  0  0  0
  1 11  1  6  0  0  0
  1  3  1  0  0  0  0
  3  6  1  0  0  0  0
  3 27  1  1  0  0  0
  4 10  1  0  0  0  0
  5 30  1  1  0  0  0
  5  4  1  0  0  0  0
  5  8  1  0  0  0  0
  6  7  2  0  0  0  0
  8  2  1  6  0  0  0
  8  6  1  0  0  0  0
  9  2  1  0  0  0  0
  9  1  1  0  0  0  0
 10  7  1  0  0  0  0
 11 12  2  0  0  0  0
 12 13  1  0  0  0  0
 13 16  2  0  0  0  0
 13 17  1  0  0  0  0
 15 14  2  0  0  0  0
 16 18  1  0  0  0  0
 17 15  1  0  0  0  0
 18 15  1  0  0  0  0
 19 12  1  0  0  0  0
 20 22  1  0  0  0  0
 20 19  1  0  0  0  0
 21 20  2  0  0  0  0
 22 23  1  0  0  0  0
 23 25  1  0  0  0  0
 25 24  1  0  0  0  0
 26 25  2  0  0  0  0
 27 28  1  0  0  0  0
 28 29  1  0  0  0  0
 32 31  1  0  0  0  0
 32 30  1  0  0  0  0
 33 32  1  0  0  0  0
M  END
>  <MODEL>
6

>  <REMARK>
 VINA RESULT:      -6.3      2.540      8.555
  Name = 
  11 active torsions:
  status: ('A' for Active; 'I' for Inactive)
    1  A    between atoms: C_1  and  C_2
    2  A    between atoms: C_3  and  C_12
    3  A    between atoms: C_3  and  O_21
    4  A    between atoms: C_6  and  C_7
    5  A    between atoms: C_6  and  C_12
    6  A    between atoms: C_8  and  C_16
    7  A    between atoms: O_10  and  C_16
    8  A    between atoms: C_13  and  C_14
    9  A    between atoms: C_14  and  O_21
   10  A    between atoms: N_17  and  N_20
   11  A    between atoms: C_19  and  N_20
                            x       y       z     vdW  Elec       q    Type
                         _______ _______ _______ _____ _____    ______ ____

>  <TORSDO>
F 11

$$$$
=
 OpenBabel11062421123D

 33 35  0  0  1  0  0  0  0  0999 V2000
  190.6610  176.0480  143.0400 C   0  0  1  0  0  3  0  0  0  0  0  0
  188.3980  176.9700  142.7520 C   0  0  0  0  0  2  0  0  0  0  0  0
  190.3980  175.5870  144.4830 C   0  0  1  0  0  3  0  0  0  0  0  0
  187.2490  177.7690  146.4130 C   0  0  0  0  0  2  0  0  0  0  0  0
  187.3800  177.9010  144.8780 C   0  0  1  0  0  3  0  0  0  0  0  0
  189.0430  175.9830  145.0320 C   0  0  0  0  0  0  0  0  0  0  0  0
  188.8230  175.8640  146.3480 C   0  0  0  0  0  3  0  0  0  0  0  0
  187.9670  176.6520  144.1870 C   0  0  2  0  0  3  0  0  0  0  0  0
  189.8770  177.2990  142.6740 C   0  0  0  0  0  2  0  0  0  0  0  0
  187.5320  176.3550  146.9280 C   0  0  0  0  0  2  0  0  0  0  0  0
  192.1210  176.3030  142.8450 C   0  0  0  0  0  3  0  0  0  0  0  0
  192.9890  175.4630  142.2620 C   0  0  0  0  0  0  0  0  0  0  0  0
  192.6440  174.1080  141.7580 C   0  0  0  0  0  0  0  0  0  0  0  0
  191.1770  171.6910  139.6830 O   0  0  0  0  0  0  0  0  0  0  0  0
  191.7960  172.3910  140.5280 C   0  0  0  0  0  0  0  0  0  0  0  0
  193.1100  172.9580  142.2490 C   0  0  0  0  0  3  0  0  0  0  0  0
  191.7440  173.8690  140.5860 C   0  0  0  0  0  3  0  0  0  0  0  0
  192.6220  171.8310  141.5330 N   0  0  0  0  0  0  0  0  0  0  0  0
  194.4030  175.9330  142.1360 C   0  0  0  0  0  2  0  0  0  0  0  0
  195.0760  175.9760  143.4740 C   0  0  0  0  0  0  0  0  0  0  0  0
  195.9850  176.8220  143.6820 O   0  0  0  0  0  0  0  0  0  0  0  0
  194.7160  175.0990  144.5030 O   0  0  0  0  0  0  0  0  0  0  0  0
  195.0570  175.3130  145.8700 C   0  0  0  0  0  2  0  0  0  0  0  0
  192.8620  175.9300  146.8810 O   0  0  0  0  0  1  0  0  0  0  0  0
  194.1420  176.3120  146.4980 C   0  0  0  0  0  0  0  0  0  0  0  0
  194.5140  177.5030  146.6610 O   0  0  0  0  0  0  0  0  0  0  0  0
  190.5750  174.0740  144.5910 C   0  0  0  0  0  2  0  0  0  0  0  0
  189.7820  173.4220  143.6420 O   0  0  0  0  0  0  0  0  0  0  0  0
  189.7380  172.0950  144.0780 C   0  0  0  0  0  1  0  0  0  0  0  0
  186.0810  178.2150  144.2970 N   0  0  0  0  0  2  0  0  0  0  0  0
  184.1100  178.8870  145.2490 C   0  0  0  0  0  1  0  0  0  0  0  0
  185.5100  179.2330  145.0740 N   0  0  0  0  0  0  0  0  0  0  0  0
  185.5380  180.3610  144.3250 O   0  0  0  0  0  1  0  0  0  0  0  0
  1 11  1  1  0  0  0
  1  3  1  0  0  0  0
  3 27  1  6  0  0  0
  3  6  1  0  0  0  0
  4 10  1  0  0  0  0
  5 30  1  6  0  0  0
  5  4  1  0  0  0  0
  6  7  2  0  0  0  0
  7 10  1  0  0  0  0
  8  2  1  6  0  0  0
  8  5  1  0  0  0  0
  8  6  1  0  0  0  0
  9  2  1  0  0  0  0
  9  1  1  0  0  0  0
 12 11  2  0  0  0  0
 13 16  1  0  0  0  0
 13 12  1  0  0  0  0
 14 15  2  0  0  0  0
 15 17  1  0  0  0  0
 15 18  1  0  0  0  0
 17 13  2  0  0  0  0
 18 16  2  0  0  0  0
 19 12  1  0  0  0  0
 19 20  1  0  0  0  0
 20 21  2  0  0  0  0
 20 22  1  0  0  0  0
 22 23  1  0  0  0  0
 23 25  1  0  0  0  0
 25 26  2  0  0  0  0
 25 24  1  0  0  0  0
 28 29  1  0  0  0  0
 28 27  1  0  0  0  0
 30 32  1  0  0  0  0
 32 31  1  0  0  0  0
 33 32  1  0  0  0  0
M  END
>  <MODEL>
7

>  <REMARK>
 VINA RESULT:      -6.1      2.063      3.466
  Name = 
  11 active torsions:
  status: ('A' for Active; 'I' for Inactive)
    1  A    between atoms: C_1  and  C_2
    2  A    between atoms: C_3  and  C_12
    3  A    between atoms: C_3  and  O_21
    4  A    between atoms: C_6  and  C_7
    5  A    between atoms: C_6  and  C_12
    6  A    between atoms: C_8  and  C_16
    7  A    between atoms: O_10  and  C_16
    8  A    between atoms: C_13  and  C_14
    9  A    between atoms: C_14  and  O_21
   10  A    between atoms: N_17  and  N_20
   11  A    between atoms: C_19  and  N_20
                            x       y       z     vdW  Elec       q    Type
                         _______ _______ _______ _____ _____    ______ ____

>  <TORSDO>
F 11

$$$$
=
 OpenBabel11062421123D

 33 35  0  0  1  0  0  0  0  0999 V2000
  189.6370  175.8110  144.7040 C   0  0  1  0  0  3  0  0  0  0  0  0
  188.0660  177.3070  145.8650 C   0  0  0  0  0  2  0  0  0  0  0  0
  189.2710  176.3460  143.3090 C   0  0  1  0  0  3  0  0  0  0  0  0
  185.3650  178.1110  143.1420 C   0  0  0  0  0  2  0  0  0  0  0  0
  185.9770  177.8490  144.5360 C   0  0  1  0  0  3  0  0  0  0  0  0
  188.1440  177.3570  143.3010 C   0  0  0  0  0  0  0  0  0  0  0  0
  187.5790  177.6790  142.1290 C   0  0  0  0  0  3  0  0  0  0  0  0
  187.5180  177.9160  144.5710 C   0  0  2  0  0  3  0  0  0  0  0  0
  188.4660  175.8560  145.6730 C   0  0  0  0  0  2  0  0  0  0  0  0
  186.3890  178.5900  142.1090 C   0  0  0  0  0  2  0  0  0  0  0  0
  190.1370  174.4070  144.5960 C   0  0  0  0  0  3  0  0  0  0  0  0
  191.4100  174.0160  144.7660 C   0  0  0  0  0  0  0  0  0  0  0  0
  192.5450  174.9350  145.0400 C   0  0  0  0  0  0  0  0  0  0  0  0
  194.5600  177.1540  146.8600 O   0  0  0  0  0  0  0  0  0  0  0  0
  193.9870  176.3770  146.0530 C   0  0  0  0  0  0  0  0  0  0  0  0
  193.5600  175.1810  144.2090 C   0  0  0  0  0  3  0  0  0  0  0  0
  192.7120  175.6780  146.3290 C   0  0  0  0  0  3  0  0  0  0  0  0
  194.5080  176.0800  144.7690 N   0  0  0  0  0  0  0  0  0  0  0  0
  191.6880  172.5520  144.6490 C   0  0  0  0  0  2  0  0  0  0  0  0
  191.5740  172.0960  143.2260 C   0  0  0  0  0  0  0  0  0  0  0  0
  192.5170  172.3290  142.4250 O   0  0  0  0  0  0  0  0  0  0  0  0
  190.4430  171.4130  142.7650 O   0  0  0  0  0  0  0  0  0  0  0  0
  189.8900  171.6010  141.4660 C   0  0  0  0  0  2  0  0  0  0  0  0
  189.6690  173.9800  140.7470 O   0  0  0  0  0  0  0  0  0  0  0  0
  189.1210  172.8800  141.3940 C   0  0  0  0  0  0  0  0  0  0  0  0
  187.9890  172.9730  141.9370 O   0  0  0  0  0  1  0  0  0  0  0  0
  190.5040  176.9430  142.6360 C   0  0  0  0  0  2  0  0  0  0  0  0
  190.6120  178.3040  142.9350 O   0  0  0  0  0  0  0  0  0  0  0  0
  191.6860  178.3820  143.8250 C   0  0  0  0  0  1  0  0  0  0  0  0
  185.4250  178.7900  145.5020 N   0  0  0  0  0  2  0  0  0  0  0  0
  184.6390  178.5380  147.6390 C   0  0  0  0  0  1  0  0  0  0  0  0
  184.4720  178.0980  146.2640 N   0  0  0  0  0  0  0  0  0  0  0  0
  184.8200  176.7890  146.2330 O   0  0  0  0  0  1  0  0  0  0  0  0
  1 11  1  6  0  0  0
  1  9  1  0  0  0  0
  3 27  1  1  0  0  0
  3  1  1  0  0  0  0
  4  5  1  0  0  0  0
  5  8  1  0  0  0  0
  5 30  1  1  0  0  0
  6  3  1  0  0  0  0
  6  8  1  0  0  0  0
  7  6  2  0  0  0  0
  8  2  1  1  0  0  0
  9  2  1  0  0  0  0
 10  7  1  0  0  0  0
 10  4  1  0  0  0  0
 11 12  2  0  0  0  0
 12 13  1  0  0  0  0
 13 17  2  0  0  0  0
 15 17  1  0  0  0  0
 15 14  2  0  0  0  0
 16 18  2  0  0  0  0
 16 13  1  0  0  0  0
 18 15  1  0  0  0  0
 19 12  1  0  0  0  0
 20 19  1  0  0  0  0
 21 20  2  0  0  0  0
 22 20  1  0  0  0  0
 23 22  1  0  0  0  0
 24 25  2  0  0  0  0
 25 23  1  0  0  0  0
 25 26  1  0  0  0  0
 27 28  1  0  0  0  0
 28 29  1  0  0  0  0
 30 32  1  0  0  0  0
 32 31  1  0  0  0  0
 33 32  1  0  0  0  0
M  END
>  <MODEL>
8

>  <REMARK>
 VINA RESULT:      -6.0      2.601      5.096
  Name = 
  11 active torsions:
  status: ('A' for Active; 'I' for Inactive)
    1  A    between atoms: C_1  and  C_2
    2  A    between atoms: C_3  and  C_12
    3  A    between atoms: C_3  and  O_21
    4  A    between atoms: C_6  and  C_7
    5  A    between atoms: C_6  and  C_12
    6  A    between atoms: C_8  and  C_16
    7  A    between atoms: O_10  and  C_16
    8  A    between atoms: C_13  and  C_14
    9  A    between atoms: C_14  and  O_21
   10  A    between atoms: N_17  and  N_20
   11  A    between atoms: C_19  and  N_20
                            x       y       z     vdW  Elec       q    Type
                         _______ _______ _______ _____ _____    ______ ____

>  <TORSDO>
F 11

$$$$
=
 OpenBabel11062421123D

 33 35  0  0  1  0  0  0  0  0999 V2000
  189.8220  176.6550  143.5100 C   0  0  1  0  0  3  0  0  0  0  0  0
  187.8470  177.7470  142.5290 C   0  0  0  0  0  2  0  0  0  0  0  0
  189.1440  176.4280  144.8720 C   0  0  1  0  0  3  0  0  0  0  0  0
  185.9260  179.1590  145.6400 C   0  0  0  0  0  2  0  0  0  0  0  0
  186.4560  179.0620  144.1910 C   0  0  1  0  0  3  0  0  0  0  0  0
  187.7590  177.0300  144.9920 C   0  0  0  0  0  0  0  0  0  0  0  0
  187.1990  177.1170  146.2060 C   0  0  0  0  0  3  0  0  0  0  0  0
  187.0290  177.6770  143.8230 C   0  0  2  0  0  3  0  0  0  0  0  0
  189.3280  177.9140  142.8140 C   0  0  0  0  0  2  0  0  0  0  0  0
  185.8800  177.8100  146.3630 C   0  0  0  0  0  2  0  0  0  0  0  0
  191.3040  176.7350  143.6870 C   0  0  0  0  0  3  0  0  0  0  0  0
  192.1850  175.7900  143.3270 C   0  0  0  0  0  0  0  0  0  0  0  0
  191.8180  174.4750  142.7380 C   0  0  0  0  0  0  0  0  0  0  0  0
  190.8410  172.1800  140.2730 O   0  0  0  0  0  0  0  0  0  0  0  0
  191.2070  172.8310  141.2860 C   0  0  0  0  0  0  0  0  0  0  0  0
  191.8470  173.3040  143.3790 C   0  0  0  0  0  3  0  0  0  0  0  0
  191.4060  174.2980  141.3100 C   0  0  0  0  0  3  0  0  0  0  0  0
  191.4740  172.2220  142.5370 N   0  0  0  0  0  0  0  0  0  0  0  0
  193.6310  176.0890  143.5600 C   0  0  0  0  0  2  0  0  0  0  0  0
  193.9510  176.0800  145.0250 C   0  0  0  0  0  0  0  0  0  0  0  0
  194.0540  177.1740  145.6400 O   0  0  0  0  0  0  0  0  0  0  0  0
  194.1350  174.8850  145.7270 O   0  0  0  0  0  0  0  0  0  0  0  0
  194.9780  173.8310  145.2710 C   0  0  0  0  0  2  0  0  0  0  0  0
  197.1030  174.9020  144.5210 O   0  0  0  0  0  0  0  0  0  0  0  0
  196.4170  174.1700  145.4820 C   0  0  0  0  0  0  0  0  0  0  0  0
  197.0200  173.7760  146.5150 O   0  0  0  0  0  1  0  0  0  0  0  0
  189.0870  174.9360  145.1870 C   0  0  0  0  0  2  0  0  0  0  0  0
  190.0350  174.6060  146.1600 O   0  0  0  0  0  0  0  0  0  0  0  0
  189.3070  174.5480  147.3510 C   0  0  0  0  0  1  0  0  0  0  0  0
  185.4000  179.4190  143.2530 N   0  0  0  0  0  2  0  0  0  0  0  0
  184.1070  178.0850  141.9140 C   0  0  0  0  0  1  0  0  0  0  0  0
  184.4420  178.3960  143.2930 N   0  0  0  0  0  0  0  0  0  0  0  0
  183.3260  178.9250  143.8510 O   0  0  0  0  0  1  0  0  0  0  0  0
  1 11  1  1  0  0  0
  1  3  1  0  0  0  0
  2  9  1  0  0  0  0
  3  6  1  0  0  0  0
  3 27  1  6  0  0  0
  4 10  1  0  0  0  0
  5 30  1  6  0  0  0
  5  4  1  0  0  0  0
  6  7  2  0  0  0  0
  7 10  1  0  0  0  0
  8  2  1  6  0  0  0
  8  5  1  0  0  0  0
  8  6  1  0  0  0  0
  9  1  1  0  0  0  0
 12 19  1  0  0  0  0
 12 11  2  0  0  0  0
 13 12  1  0  0  0  0
 13 16  1  0  0  0  0
 14 15  2  0  0  0  0
 15 17  1  0  0  0  0
 15 18  1  0  0  0  0
 17 13  2  0  0  0  0
 18 16  2  0  0  0  0
 19 20  1  0  0  0  0
 20 21  2  0  0  0  0
 20 22  1  0  0  0  0
 23 25  1  0  0  0  0
 23 22  1  0  0  0  0
 24 25  2  0  0  0  0
 25 26  1  0  0  0  0
 27 28  1  0  0  0  0
 28 29  1  0  0  0  0
 30 32  1  0  0  0  0
 31 32  1  0  0  0  0
 32 33  1  0  0  0  0
M  END
>  <MODEL>
9

>  <REMARK>
 VINA RESULT:      -6.0      1.762      2.152
  Name = 
  11 active torsions:
  status: ('A' for Active; 'I' for Inactive)
    1  A    between atoms: C_1  and  C_2
    2  A    between atoms: C_3  and  C_12
    3  A    between atoms: C_3  and  O_21
    4  A    between atoms: C_6  and  C_7
    5  A    between atoms: C_6  and  C_12
    6  A    between atoms: C_8  and  C_16
    7  A    between atoms: O_10  and  C_16
    8  A    between atoms: C_13  and  C_14
    9  A    between atoms: C_14  and  O_21
   10  A    between atoms: N_17  and  N_20
   11  A    between atoms: C_19  and  N_20
                            x       y       z     vdW  Elec       q    Type
                         _______ _______ _______ _____ _____    ______ ____

>  <TORSDO>
F 11

$$$$
