=
 OpenBabel11062421383D

 52 56  0  0  1  0  0  0  0  0999 V2000
  190.3500  172.5860  144.0110 C   0  0  2  0  0  3  0  0  0  0  0  0
  191.4190  171.5020  143.9700 C   0  0  0  0  0  2  0  0  0  0  0  0
  192.8200  172.0860  143.8400 C   0  0  2  0  0  3  0  0  0  0  0  0
  192.9070  172.8390  142.5080 C   0  0  1  0  0  3  0  0  0  0  0  0
  193.5620  175.1400  143.2350 C   0  0  0  0  0  3  0  0  0  0  0  0
  195.2000  173.7980  142.0640 C   0  0  0  0  0  3  0  0  0  0  0  0
  195.7780  176.0250  142.8170 C   0  0  0  0  0  3  0  0  0  0  0  0
  194.4930  176.1780  143.3470 C   0  0  0  0  0  3  0  0  0  0  0  0
  193.9090  173.9500  142.5910 C   0  0  0  0  0  0  0  0  0  0  0  0
  196.1310  174.8360  142.1740 C   0  0  0  0  0  3  0  0  0  0  0  0
  193.2290  171.9750  141.4530 O   0  0  0  0  0  0  0  0  0  0  0  0
  191.1930  170.5600  139.0620 O   0  0  0  0  0  0  0  0  0  0  0  0
  192.8420  172.2010  139.1440 C   0  0  0  0  0  0  0  0  0  0  0  0
  192.2460  172.2010  140.4810 C   0  0  1  0  0  3  0  0  0  0  0  0
  192.2700  171.1030  138.3340 C   0  0  2  0  0  3  0  0  0  0  0  0
  193.9410  172.8820  138.8130 C   0  0  0  0  0  2  0  0  0  0  0  0
  191.3240  170.9970  140.4010 C   0  0  0  0  0  2  0  0  0  0  0  0
  190.8340  172.6150  136.9350 O   0  0  0  0  0  1  0  0  0  0  0  0
  192.1940  171.0460  135.9540 O   0  0  0  0  0  0  0  0  0  0  0  0
  191.7780  171.5930  137.0090 C   0  0  0  0  0  0  0  0  0  0  0  0
  193.7610  171.0470  143.8810 O   0  0  0  0  0  0  0  0  0  0  0  0
  194.0720  170.8950  145.1930 N   0  0  0  0  0  0  0  0  0  0  0  0
  195.1600  169.9210  145.2680 C   0  0  0  0  0  2  0  0  0  0  0  0
  196.1270  172.0900  145.5170 C   0  0  0  0  0  2  0  0  0  0  0  0
  194.6260  172.1640  145.6500 C   0  0  0  0  0  2  0  0  0  0  0  0
  196.4270  170.6310  145.6980 C   0  0  0  0  0  2  0  0  0  0  0  0
  190.0740  173.0140  145.3450 O   0  0  0  0  0  0  0  0  0  0  0  0
  188.5870  174.8180  147.2910 O   0  0  0  0  0  1  0  0  0  0  0  0
  192.5280  176.7050  146.7940 O   0  0  0  0  0  0  0  0  0  0  0  0
  191.5100  176.0250  146.5040 C   0  0  0  0  0  0  0  0  0  0  0  0
  189.3210  175.2800  146.1990 C   0  0  2  0  0  3  0  0  0  0  0  0
  190.3800  174.2820  145.8530 C   0  0  0  0  0  0  0  0  0  0  0  0
  190.1150  176.5230  146.6060 C   0  0  2  0  0  3  0  0  0  0  0  0
  191.5890  174.6940  146.0360 N   0  0  0  0  0  0  0  0  0  0  0  0
  189.8970  177.6470  145.5980 C   0  0  0  0  0  2  0  0  0  0  0  0
  189.5330  177.1230  144.2090 C   0  0  0  0  0  2  0  0  0  0  0  0
  188.4400  177.9630  143.5590 C   0  0  1  0  0  3  0  0  0  0  0  0
  187.4940  177.8220  141.2540 C   0  0  0  0  0  1  0  0  0  0  0  0
  188.7310  178.1300  142.0750 C   0  0  0  0  0  2  0  0  0  0  0  0
  187.1040  177.2580  143.7330 C   0  0  0  0  0  2  0  0  0  0  0  0
  184.4220  177.8800  143.4800 N   0  0  0  0  0  1  0  0  0  0  0  0
  185.9680  176.6430  145.7150 C   0  0  0  0  0  2  0  0  0  0  0  0
  185.4370  177.1180  147.0720 C   0  0  0  0  0  2  0  0  0  0  0  0
  184.9420  178.5650  147.0290 C   0  0  0  0  0  2  0  0  0  0  0  0
  186.3920  177.7840  144.9000 N   0  0  0  0  0  0  0  0  0  0  0  0
  185.2050  178.5810  144.4920 C   0  0  1  0  0  0  0  0  0  0  0  0
  185.6650  179.9130  143.9200 C   0  0  0  0  0  1  0  0  0  0  0  0
  184.2810  178.8800  145.6870 C   0  0  0  0  0  2  0  0  0  0  0  0
  189.0860  172.0970  143.3160 C   0  0  0  0  0  2  0  0  0  0  0  0
  189.4420  174.2850  141.9920 C   0  0  0  0  0  1  0  0  0  0  0  0
  188.6800  173.0260  142.2170 C   0  0  0  0  0  0  0  0  0  0  0  0
  187.7400  172.7460  141.4860 O   0  0  0  0  0  0  0  0  0  0  0  0
  1 49  1  1  0  0  0
  1 27  1  0  0  0  0
  2  1  1  0  0  0  0
  3 21  1  0  0  0  0
  3  2  1  6  0  0  0
  4 11  1  6  0  0  0
  4  9  1  0  0  0  0
  4  3  1  0  0  0  0
  5  8  1  0  0  0  0
  6 10  2  0  0  0  0
  6  9  1  0  0  0  0
  7  8  2  0  0  0  0
  9  5  2  0  0  0  0
 10  7  1  0  0  0  0
 12 17  1  0  0  0  0
 13 14  1  0  0  0  0
 14 11  1  1  0  0  0
 15 20  1  6  0  0  0
 15 12  1  0  0  0  0
 15 13  1  0  0  0  0
 16 13  2  0  0  0  0
 17 14  1  0  0  0  0
 18 20  1  0  0  0  0
 19 20  2  0  0  0  0
 21 22  1  0  0  0  0
 22 23  1  0  0  0  0
 22 25  1  0  0  0  0
 23 26  1  0  0  0  0
 24 25  1  0  0  0  0
 24 26  1  0  0  0  0
 27 32  1  0  0  0  0
 30 33  1  0  0  0  0
 30 29  2  0  0  0  0
 31 33  1  0  0  0  0
 31 28  1  1  0  0  0
 32 34  2  0  0  0  0
 32 31  1  0  0  0  0
 33 35  1  6  0  0  0
 34 30  1  0  0  0  0
 36 35  1  0  0  0  0
 37 39  1  6  0  0  0
 37 40  1  0  0  0  0
 37 36  1  0  0  0  0
 38 39  1  0  0  0  0
 40 45  1  0  0  0  0
 41 46  1  0  0  0  0
 42 43  1  0  0  0  0
 44 43  1  0  0  0  0
 45 42  1  0  0  0  0
 46 47  1  6  0  0  0
 46 45  1  0  0  0  0
 46 48  1  0  0  0  0
 48 44  1  0  0  0  0
 50 51  1  0  0  0  0
 51 49  1  0  0  0  0
 52 51  2  0  0  0  0
M  END
>  <MODEL>
1

>  <REMARK>
 VINA RESULT:      -6.6      0.000      0.000
  Name = 
  19 active torsions:
  status: ('A' for Active; 'I' for Inactive)
    1  A    between atoms: C_3  and  C_8
    2  A    between atoms: C_3  and  C_29
    3  A    between atoms: N_4  and  O_21
    4  A    between atoms: C_8  and  O_39
    5  A    between atoms: C_8  and  C_42
    6  A    between atoms: C_16  and  C_19
    7  A    between atoms: C_16  and  C_38
    8  A    between atoms: C_19  and  C_37
    9  A    between atoms: O_21  and  C_33
   10  A    between atoms: C_22  and  C_33
   11  A    between atoms: C_22  and  C_48
   12  A    between atoms: C_22  and  O_51
   13  A    between atoms: N_24  and  C_44
   14  A    between atoms: C_33  and  C_42
   15  A    between atoms: C_34  and  O_39
   16  A    between atoms: C_35  and  O_51
   17  A    between atoms: C_36  and  C_37
   18  A    between atoms: C_37  and  C_44
   19  A    between atoms: C_46  and  C_47
                            x       y       z     vdW  Elec       q    Type
                         _______ _______ _______ _____ _____    ______ ____

>  <TORSDO>
F 19

$$$$
=
 OpenBabel11062421383D

 52 56  0  0  1  0  0  0  0  0999 V2000
  192.6710  171.9290  141.6430 C   0  0  2  0  0  3  0  0  0  0  0  0
  193.9830  172.6050  142.0200 C   0  0  0  0  0  2  0  0  0  0  0  0
  194.1610  172.7030  143.5300 C   0  0  2  0  0  3  0  0  0  0  0  0
  194.3380  174.1800  143.8990 C   0  0  1  0  0  3  0  0  0  0  0  0
  194.5640  175.7880  141.9970 C   0  0  0  0  0  3  0  0  0  0  0  0
  196.5600  174.6830  142.8080 C   0  0  0  0  0  3  0  0  0  0  0  0
  196.7120  176.2700  140.9860 C   0  0  0  0  0  3  0  0  0  0  0  0
  195.3310  176.4780  141.0530 C   0  0  0  0  0  3  0  0  0  0  0  0
  195.1730  174.8860  142.8750 C   0  0  0  0  0  0  0  0  0  0  0  0
  197.3260  175.3710  141.8620 C   0  0  0  0  0  3  0  0  0  0  0  0
  193.1020  174.8230  144.0410 O   0  0  0  0  0  0  0  0  0  0  0  0
  190.5290  175.0140  146.3220 O   0  0  0  0  0  0  0  0  0  0  0  0
  192.7580  175.6740  146.2060 C   0  0  0  0  0  0  0  0  0  0  0  0
  192.6670  174.5020  145.3330 C   0  0  1  0  0  3  0  0  0  0  0  0
  191.4130  176.0440  146.6990 C   0  0  2  0  0  3  0  0  0  0  0  0
  193.8310  176.4620  146.2950 C   0  0  0  0  0  2  0  0  0  0  0  0
  191.1690  174.2510  145.3190 C   0  0  0  0  0  2  0  0  0  0  0  0
  191.4550  177.4630  148.7700 O   0  0  0  0  0  0  0  0  0  0  0  0
  191.3610  175.1730  148.9150 O   0  0  0  0  0  1  0  0  0  0  0  0
  191.3930  176.1990  148.1860 C   0  0  0  0  0  0  0  0  0  0  0  0
  195.2890  171.9610  143.9120 O   0  0  0  0  0  0  0  0  0  0  0  0
  195.3100  172.0150  145.2680 N   0  0  0  0  0  0  0  0  0  0  0  0
  194.5680  170.8540  145.7570 C   0  0  0  0  0  2  0  0  0  0  0  0
  196.8930  170.3500  145.9590 C   0  0  0  0  0  2  0  0  0  0  0  0
  196.6950  171.8190  145.6800 C   0  0  0  0  0  2  0  0  0  0  0  0
  195.5380  169.8880  146.4070 C   0  0  0  0  0  2  0  0  0  0  0  0
  191.6000  172.3230  142.5000 O   0  0  0  0  0  0  0  0  0  0  0  0
  190.7170  173.7010  139.9370 O   0  0  0  0  0  1  0  0  0  0  0  0
  186.9770  172.5250  141.9290 O   0  0  0  0  0  0  0  0  0  0  0  0
  188.1820  172.8690  141.8070 C   0  0  0  0  0  0  0  0  0  0  0  0
  190.1560  173.9450  141.1910 C   0  0  2  0  0  3  0  0  0  0  0  0
  190.3390  172.7410  142.0590 C   0  0  0  0  0  0  0  0  0  0  0  0
  188.6370  174.0660  141.0560 C   0  0  2  0  0  3  0  0  0  0  0  0
  189.2450  172.1410  142.3870 N   0  0  0  0  0  0  0  0  0  0  0  0
  188.1400  175.3280  141.7540 C   0  0  0  0  0  2  0  0  0  0  0  0
  189.1550  175.8790  142.7570 C   0  0  0  0  0  2  0  0  0  0  0  0
  188.4680  176.5200  143.9570 C   0  0  1  0  0  3  0  0  0  0  0  0
  190.5470  177.8680  143.6640 C   0  0  0  0  0  1  0  0  0  0  0  0
  189.1930  177.8010  144.3430 C   0  0  0  0  0  2  0  0  0  0  0  0
  187.0290  176.8480  143.5880 C   0  0  0  0  0  2  0  0  0  0  0  0
  184.4510  177.7690  143.2000 N   0  0  0  0  0  1  0  0  0  0  0  0
  185.7890  176.5630  145.5830 C   0  0  0  0  0  2  0  0  0  0  0  0
  185.2970  177.2230  146.8750 C   0  0  0  0  0  2  0  0  0  0  0  0
  184.9870  178.7100  146.6880 C   0  0  0  0  0  2  0  0  0  0  0  0
  186.3670  177.5630  144.6810 N   0  0  0  0  0  0  0  0  0  0  0  0
  185.2970  178.4590  144.1690 C   0  0  1  0  0  0  0  0  0  0  0  0
  185.9300  179.6660  143.4940 C   0  0  0  0  0  1  0  0  0  0  0  0
  184.3950  178.9780  145.3040 C   0  0  0  0  0  2  0  0  0  0  0  0
  192.8480  170.4160  141.6400 C   0  0  0  0  0  2  0  0  0  0  0  0
  192.0810  169.7030  139.2800 C   0  0  0  0  0  1  0  0  0  0  0  0
  191.8440  169.7560  140.7480 C   0  0  0  0  0  0  0  0  0  0  0  0
  190.8420  169.2390  141.2220 O   0  0  0  0  0  0  0  0  0  0  0  0
  1 49  1  1  0  0  0
  1  2  1  0  0  0  0
  1 27  1  0  0  0  0
  3  2  1  6  0  0  0
  3  4  1  0  0  0  0
  3 21  1  0  0  0  0
  4 11  1  6  0  0  0
  5  9  1  0  0  0  0
  6  9  2  0  0  0  0
  7  8  1  0  0  0  0
  7 10  2  0  0  0  0
  8  5  2  0  0  0  0
  9  4  1  0  0  0  0
 10  6  1  0  0  0  0
 12 15  1  0  0  0  0
 13 16  2  0  0  0  0
 13 15  1  0  0  0  0
 14 11  1  6  0  0  0
 14 13  1  0  0  0  0
 15 20  1  1  0  0  0
 17 14  1  0  0  0  0
 17 12  1  0  0  0  0
 20 18  2  0  0  0  0
 20 19  1  0  0  0  0
 21 22  1  0  0  0  0
 22 25  1  0  0  0  0
 22 23  1  0  0  0  0
 23 26  1  0  0  0  0
 24 26  1  0  0  0  0
 25 24  1  0  0  0  0
 30 29  2  0  0  0  0
 30 34  1  0  0  0  0
 31 28  1  6  0  0  0
 31 32  1  0  0  0  0
 32 34  2  0  0  0  0
 32 27  1  0  0  0  0
 33 31  1  0  0  0  0
 33 35  1  1  0  0  0
 33 30  1  0  0  0  0
 35 36  1  0  0  0  0
 37 36  1  6  0  0  0
 37 39  1  0  0  0  0
 38 39  1  0  0  0  0
 40 37  1  0  0  0  0
 40 45  1  0  0  0  0
 41 46  1  0  0  0  0
 42 43  1  0  0  0  0
 44 43  1  0  0  0  0
 45 42  1  0  0  0  0
 46 47  1  6  0  0  0
 46 45  1  0  0  0  0
 46 48  1  0  0  0  0
 48 44  1  0  0  0  0
 50 51  1  0  0  0  0
 51 52  2  0  0  0  0
 51 49  1  0  0  0  0
M  END
>  <MODEL>
2

>  <REMARK>
 VINA RESULT:      -6.2      1.861      5.167
  Name = 
  19 active torsions:
  status: ('A' for Active; 'I' for Inactive)
    1  A    between atoms: C_3  and  C_8
    2  A    between atoms: C_3  and  C_29
    3  A    between atoms: N_4  and  O_21
    4  A    between atoms: C_8  and  O_39
    5  A    between atoms: C_8  and  C_42
    6  A    between atoms: C_16  and  C_19
    7  A    between atoms: C_16  and  C_38
    8  A    between atoms: C_19  and  C_37
    9  A    between atoms: O_21  and  C_33
   10  A    between atoms: C_22  and  C_33
   11  A    between atoms: C_22  and  C_48
   12  A    between atoms: C_22  and  O_51
   13  A    between atoms: N_24  and  C_44
   14  A    between atoms: C_33  and  C_42
   15  A    between atoms: C_34  and  O_39
   16  A    between atoms: C_35  and  O_51
   17  A    between atoms: C_36  and  C_37
   18  A    between atoms: C_37  and  C_44
   19  A    between atoms: C_46  and  C_47
                            x       y       z     vdW  Elec       q    Type
                         _______ _______ _______ _____ _____    ______ ____

>  <TORSDO>
F 19

$$$$
=
 OpenBabel11062421383D

 52 56  0  0  1  0  0  0  0  0999 V2000
  194.5750  174.1500  144.4390 C   0  0  2  0  0  3  0  0  0  0  0  0
  195.1820  173.9960  143.0510 C   0  0  0  0  0  2  0  0  0  0  0  0
  194.5430  172.8520  142.2720 C   0  0  2  0  0  3  0  0  0  0  0  0
  193.8070  173.4430  141.0650 C   0  0  1  0  0  3  0  0  0  0  0  0
  195.1320  174.9070  139.5300 C   0  0  0  0  0  3  0  0  0  0  0  0
  195.2590  172.5090  139.2210 C   0  0  0  0  0  3  0  0  0  0  0  0
  196.5370  173.9810  137.7860 C   0  0  0  0  0  3  0  0  0  0  0  0
  196.0270  175.0890  138.4700 C   0  0  0  0  0  3  0  0  0  0  0  0
  194.7420  173.6180  139.9070 C   0  0  0  0  0  0  0  0  0  0  0  0
  196.1510  172.6920  138.1610 C   0  0  0  0  0  3  0  0  0  0  0  0
  192.7180  172.6460  140.6890 O   0  0  0  0  0  0  0  0  0  0  0  0
  189.2960  172.9150  140.9750 O   0  0  0  0  0  0  0  0  0  0  0  0
  190.9230  173.4450  139.3960 C   0  0  0  0  0  0  0  0  0  0  0  0
  191.6150  173.5090  140.6850 C   0  0  1  0  0  3  0  0  0  0  0  0
  189.5400  172.9560  139.5880 C   0  0  2  0  0  3  0  0  0  0  0  0
  191.5350  173.5200  138.2120 C   0  0  0  0  0  2  0  0  0  0  0  0
  190.5490  172.9780  141.6270 C   0  0  0  0  0  2  0  0  0  0  0  0
  188.1120  173.6100  137.6290 O   0  0  0  0  0  0  0  0  0  0  0  0
  188.1160  174.8650  139.5530 O   0  0  0  0  0  1  0  0  0  0  0  0
  188.5410  173.8550  138.9320 C   0  0  0  0  0  0  0  0  0  0  0  0
  193.6480  172.1670  143.1070 O   0  0  0  0  0  0  0  0  0  0  0  0
  193.7930  170.8550  142.7880 N   0  0  0  0  0  0  0  0  0  0  0  0
  195.1990  170.5140  142.9970 C   0  0  0  0  0  2  0  0  0  0  0  0
  193.9800  169.6950  144.8790 C   0  0  0  0  0  2  0  0  0  0  0  0
  193.0350  170.0910  143.7720 C   0  0  0  0  0  2  0  0  0  0  0  0
  195.3080  169.5880  144.1900 C   0  0  0  0  0  2  0  0  0  0  0  0
  193.4090  174.9740  144.4240 O   0  0  0  0  0  0  0  0  0  0  0  0
  191.2440  172.9320  145.0510 O   0  0  0  0  0  1  0  0  0  0  0  0
  191.1410  175.7520  148.4230 O   0  0  0  0  0  0  0  0  0  0  0  0
  191.3230  175.3340  147.2500 C   0  0  0  0  0  0  0  0  0  0  0  0
  191.0780  174.3120  145.1690 C   0  0  2  0  0  3  0  0  0  0  0  0
  192.4080  174.9550  145.4020 C   0  0  0  0  0  0  0  0  0  0  0  0
  190.2960  174.6240  146.4470 C   0  0  2  0  0  3  0  0  0  0  0  0
  192.5440  175.5080  146.5590 N   0  0  0  0  0  0  0  0  0  0  0  0
  189.1380  175.5690  146.1440 C   0  0  0  0  0  2  0  0  0  0  0  0
  189.5850  177.0270  146.0420 C   0  0  0  0  0  2  0  0  0  0  0  0
  188.9670  177.7220  144.8340 C   0  0  1  0  0  3  0  0  0  0  0  0
  189.3120  177.0670  142.4510 C   0  0  0  0  0  1  0  0  0  0  0  0
  189.9480  177.7040  143.6710 C   0  0  0  0  0  2  0  0  0  0  0  0
  187.6990  176.9840  144.4330 C   0  0  0  0  0  2  0  0  0  0  0  0
  185.4460  177.0040  142.8300 N   0  0  0  0  0  1  0  0  0  0  0  0
  185.7700  176.8180  145.7930 C   0  0  0  0  0  2  0  0  0  0  0  0
  184.6550  177.5860  146.5120 C   0  0  0  0  0  2  0  0  0  0  0  0
  184.2190  178.8350  145.7430 C   0  0  0  0  0  2  0  0  0  0  0  0
  186.5130  177.7080  144.8970 N   0  0  0  0  0  0  0  0  0  0  0  0
  185.6490  178.1130  143.7570 C   0  0  1  0  0  0  0  0  0  0  0  0
  186.3070  179.2620  143.0100 C   0  0  0  0  0  1  0  0  0  0  0  0
  184.2660  178.5950  144.2330 C   0  0  0  0  0  2  0  0  0  0  0  0
  195.6200  174.6890  145.4070 C   0  0  0  0  0  2  0  0  0  0  0  0
  196.6940  172.4170  146.0010 C   0  0  0  0  0  1  0  0  0  0  0  0
  196.8200  173.7980  145.4580 C   0  0  0  0  0  0  0  0  0  0  0  0
  197.8990  174.1890  145.0350 O   0  0  0  0  0  0  0  0  0  0  0  0
  1  2  1  6  0  0  0
  1 49  1  0  0  0  0
  3  2  1  1  0  0  0
  3 21  1  0  0  0  0
  4 11  1  6  0  0  0
  4  3  1  0  0  0  0
  5  9  1  0  0  0  0
  6  9  2  0  0  0  0
  7 10  2  0  0  0  0
  7  8  1  0  0  0  0
  8  5  2  0  0  0  0
  9  4  1  0  0  0  0
 10  6  1  0  0  0  0
 12 17  1  0  0  0  0
 13 15  1  0  0  0  0
 13 14  1  0  0  0  0
 14 11  1  6  0  0  0
 14 17  1  0  0  0  0
 15 20  1  6  0  0  0
 15 12  1  0  0  0  0
 16 13  2  0  0  0  0
 18 20  2  0  0  0  0
 20 19  1  0  0  0  0
 22 23  1  0  0  0  0
 22 21  1  0  0  0  0
 22 25  1  0  0  0  0
 23 26  1  0  0  0  0
 25 24  1  0  0  0  0
 26 24  1  0  0  0  0
 27  1  1  0  0  0  0
 27 32  1  0  0  0  0
 30 29  2  0  0  0  0
 31 28  1  1  0  0  0
 31 32  1  0  0  0  0
 31 33  1  0  0  0  0
 32 34  2  0  0  0  0
 33 35  1  6  0  0  0
 33 30  1  0  0  0  0
 34 30  1  0  0  0  0
 36 35  1  0  0  0  0
 37 39  1  6  0  0  0
 37 36  1  0  0  0  0
 38 39  1  0  0  0  0
 40 37  1  0  0  0  0
 40 45  1  0  0  0  0
 41 46  1  0  0  0  0
 42 43  1  0  0  0  0
 44 43  1  0  0  0  0
 45 42  1  0  0  0  0
 46 47  1  6  0  0  0
 46 48  1  0  0  0  0
 46 45  1  0  0  0  0
 48 44  1  0  0  0  0
 49 51  1  0  0  0  0
 51 50  1  0  0  0  0
 52 51  2  0  0  0  0
M  END
>  <MODEL>
3

>  <REMARK>
 VINA RESULT:      -5.8      1.919      3.739
  Name = 
  19 active torsions:
  status: ('A' for Active; 'I' for Inactive)
    1  A    between atoms: C_3  and  C_8
    2  A    between atoms: C_3  and  C_29
    3  A    between atoms: N_4  and  O_21
    4  A    between atoms: C_8  and  O_39
    5  A    between atoms: C_8  and  C_42
    6  A    between atoms: C_16  and  C_19
    7  A    between atoms: C_16  and  C_38
    8  A    between atoms: C_19  and  C_37
    9  A    between atoms: O_21  and  C_33
   10  A    between atoms: C_22  and  C_33
   11  A    between atoms: C_22  and  C_48
   12  A    between atoms: C_22  and  O_51
   13  A    between atoms: N_24  and  C_44
   14  A    between atoms: C_33  and  C_42
   15  A    between atoms: C_34  and  O_39
   16  A    between atoms: C_35  and  O_51
   17  A    between atoms: C_36  and  C_37
   18  A    between atoms: C_37  and  C_44
   19  A    between atoms: C_46  and  C_47
                            x       y       z     vdW  Elec       q    Type
                         _______ _______ _______ _____ _____    ______ ____

>  <TORSDO>
F 19

$$$$
=
 OpenBabel11062421383D

 52 56  0  0  1  0  0  0  0  0999 V2000
  191.6540  172.8720  142.6300 C   0  0  2  0  0  3  0  0  0  0  0  0
  192.6560  171.7280  142.7110 C   0  0  0  0  0  2  0  0  0  0  0  0
  194.0460  172.2130  143.1060 C   0  0  2  0  0  3  0  0  0  0  0  0
  194.6960  172.8620  141.8790 C   0  0  1  0  0  3  0  0  0  0  0  0
  196.8160  173.9460  142.6420 C   0  0  0  0  0  3  0  0  0  0  0  0
  194.8870  175.3540  142.2440 C   0  0  0  0  0  3  0  0  0  0  0  0
  196.9780  176.3420  142.9590 C   0  0  0  0  0  3  0  0  0  0  0  0
  197.5670  175.0740  142.9860 C   0  0  0  0  0  3  0  0  0  0  0  0
  195.4740  174.0800  142.2730 C   0  0  0  0  0  0  0  0  0  0  0  0
  195.6380  176.4810  142.5900 C   0  0  0  0  0  3  0  0  0  0  0  0
  195.5250  171.9570  141.2020 O   0  0  0  0  0  0  0  0  0  0  0  0
  195.2620  170.0970  138.3150 O   0  0  0  0  0  0  0  0  0  0  0  0
  196.0700  172.1930  138.9260 C   0  0  0  0  0  0  0  0  0  0  0  0
  195.0150  171.8990  139.8980 C   0  0  1  0  0  3  0  0  0  0  0  0
  196.2890  171.0240  138.0470 C   0  0  2  0  0  3  0  0  0  0  0  0
  196.9060  173.2300  139.0170 C   0  0  0  0  0  2  0  0  0  0  0  0
  194.6750  170.4610  139.5490 C   0  0  0  0  0  2  0  0  0  0  0  0
  197.3020  171.0660  135.7500 O   0  0  0  0  0  0  0  0  0  0  0  0
  195.2790  172.0720  136.1620 O   0  0  0  0  0  1  0  0  0  0  0  0
  196.2520  171.4050  136.6010 C   0  0  0  0  0  0  0  0  0  0  0  0
  194.8090  171.1220  143.5480 O   0  0  0  0  0  0  0  0  0  0  0  0
  194.6120  171.0670  144.8900 N   0  0  0  0  0  0  0  0  0  0  0  0
  195.4230  169.9620  145.3990 C   0  0  0  0  0  2  0  0  0  0  0  0
  196.5980  171.9860  145.8750 C   0  0  0  0  0  2  0  0  0  0  0  0
  195.1810  172.2860  145.4540 C   0  0  0  0  0  2  0  0  0  0  0  0
  196.5620  170.5260  146.2220 C   0  0  0  0  0  2  0  0  0  0  0  0
  191.0010  173.1010  143.8790 O   0  0  0  0  0  0  0  0  0  0  0  0
  189.4520  174.1240  146.2880 O   0  0  0  0  0  1  0  0  0  0  0  0
  192.9840  176.7310  146.0310 O   0  0  0  0  0  0  0  0  0  0  0  0
  192.0600  175.9680  145.6450 C   0  0  0  0  0  0  0  0  0  0  0  0
  189.9940  174.9440  145.2990 C   0  0  2  0  0  3  0  0  0  0  0  0
  191.1550  174.2520  144.6600 C   0  0  0  0  0  0  0  0  0  0  0  0
  190.6210  176.1800  145.9470 C   0  0  2  0  0  3  0  0  0  0  0  0
  192.2980  174.8140  144.8650 N   0  0  0  0  0  0  0  0  0  0  0  0
  190.1340  177.4490  145.2560 C   0  0  0  0  0  2  0  0  0  0  0  0
  189.7920  177.2180  143.7840 C   0  0  0  0  0  2  0  0  0  0  0  0
  188.5770  178.0320  143.3540 C   0  0  1  0  0  3  0  0  0  0  0  0
  187.2530  177.7710  141.2560 C   0  0  0  0  0  1  0  0  0  0  0  0
  188.5810  178.2060  141.8430 C   0  0  0  0  0  2  0  0  0  0  0  0
  187.3140  177.2950  143.7720 C   0  0  0  0  0  2  0  0  0  0  0  0
  184.5860  177.7160  143.9310 N   0  0  0  0  0  1  0  0  0  0  0  0
  186.5690  176.7810  145.9590 C   0  0  0  0  0  2  0  0  0  0  0  0
  186.2310  177.3360  147.3460 C   0  0  0  0  0  2  0  0  0  0  0  0
  185.6230  178.7380  147.2800 C   0  0  0  0  0  2  0  0  0  0  0  0
  186.7620  177.8720  145.0000 N   0  0  0  0  0  0  0  0  0  0  0  0
  185.4660  178.5520  144.7410 C   0  0  1  0  0  0  0  0  0  0  0  0
  185.7200  179.8560  144.0010 C   0  0  0  0  0  1  0  0  0  0  0  0
  184.7290  178.8920  146.0490 C   0  0  0  0  0  2  0  0  0  0  0  0
  190.6470  172.6040  141.5200 C   0  0  0  0  0  2  0  0  0  0  0  0
  188.7290  174.3250  141.6850 C   0  0  0  0  0  1  0  0  0  0  0  0
  189.2600  172.9600  141.9510 C   0  0  0  0  0  0  0  0  0  0  0  0
  188.5500  172.1280  142.5000 O   0  0  0  0  0  0  0  0  0  0  0  0
  1 49  1  6  0  0  0
  1  2  1  0  0  0  0
  1 27  1  0  0  0  0
  3  2  1  6  0  0  0
  3 21  1  0  0  0  0
  4 11  1  1  0  0  0
  4  9  1  0  0  0  0
  4  3  1  0  0  0  0
  5  8  1  0  0  0  0
  6  9  1  0  0  0  0
  6 10  2  0  0  0  0
  7  8  2  0  0  0  0
  9  5  2  0  0  0  0
 10  7  1  0  0  0  0
 12 17  1  0  0  0  0
 13 16  2  0  0  0  0
 13 14  1  0  0  0  0
 14 11  1  1  0  0  0
 15 20  1  6  0  0  0
 15 12  1  0  0  0  0
 15 13  1  0  0  0  0
 17 14  1  0  0  0  0
 18 20  2  0  0  0  0
 19 20  1  0  0  0  0
 21 22  1  0  0  0  0
 22 23  1  0  0  0  0
 22 25  1  0  0  0  0
 23 26  1  0  0  0  0
 24 26  1  0  0  0  0
 25 24  1  0  0  0  0
 27 32  1  0  0  0  0
 30 33  1  0  0  0  0
 30 29  2  0  0  0  0
 31 33  1  0  0  0  0
 31 28  1  1  0  0  0
 32 34  2  0  0  0  0
 32 31  1  0  0  0  0
 33 35  1  6  0  0  0
 34 30  1  0  0  0  0
 36 35  1  0  0  0  0
 37 39  1  6  0  0  0
 37 40  1  0  0  0  0
 37 36  1  0  0  0  0
 38 39  1  0  0  0  0
 40 45  1  0  0  0  0
 41 46  1  0  0  0  0
 42 43  1  0  0  0  0
 44 43  1  0  0  0  0
 45 42  1  0  0  0  0
 46 47  1  6  0  0  0
 46 45  1  0  0  0  0
 46 48  1  0  0  0  0
 48 44  1  0  0  0  0
 49 51  1  0  0  0  0
 50 51  1  0  0  0  0
 51 52  2  0  0  0  0
M  END
>  <MODEL>
4

>  <REMARK>
 VINA RESULT:      -5.7      1.661      2.098
  Name = 
  19 active torsions:
  status: ('A' for Active; 'I' for Inactive)
    1  A    between atoms: C_3  and  C_8
    2  A    between atoms: C_3  and  C_29
    3  A    between atoms: N_4  and  O_21
    4  A    between atoms: C_8  and  O_39
    5  A    between atoms: C_8  and  C_42
    6  A    between atoms: C_16  and  C_19
    7  A    between atoms: C_16  and  C_38
    8  A    between atoms: C_19  and  C_37
    9  A    between atoms: O_21  and  C_33
   10  A    between atoms: C_22  and  C_33
   11  A    between atoms: C_22  and  C_48
   12  A    between atoms: C_22  and  O_51
   13  A    between atoms: N_24  and  C_44
   14  A    between atoms: C_33  and  C_42
   15  A    between atoms: C_34  and  O_39
   16  A    between atoms: C_35  and  O_51
   17  A    between atoms: C_36  and  C_37
   18  A    between atoms: C_37  and  C_44
   19  A    between atoms: C_46  and  C_47
                            x       y       z     vdW  Elec       q    Type
                         _______ _______ _______ _____ _____    ______ ____

>  <TORSDO>
F 19

$$$$
=
 OpenBabel11062421383D

 52 56  0  0  1  0  0  0  0  0999 V2000
  192.8960  173.9570  143.9610 C   0  0  2  0  0  3  0  0  0  0  0  0
  191.4390  173.5300  144.0760 C   0  0  0  0  0  2  0  0  0  0  0  0
  190.5580  174.2180  143.0410 C   0  0  2  0  0  3  0  0  0  0  0  0
  189.4990  175.0420  143.7810 C   0  0  1  0  0  3  0  0  0  0  0  0
  189.4700  174.6120  146.2440 C   0  0  0  0  0  3  0  0  0  0  0  0
  190.8850  176.3880  145.4070 C   0  0  0  0  0  3  0  0  0  0  0  0
  190.8300  175.9030  147.7780 C   0  0  0  0  0  3  0  0  0  0  0  0
  189.9050  174.8800  147.5460 C   0  0  0  0  0  3  0  0  0  0  0  0
  189.9540  175.3660  145.1710 C   0  0  0  0  0  0  0  0  0  0  0  0
  191.3190  176.6580  146.7090 C   0  0  0  0  0  3  0  0  0  0  0  0
  189.1910  176.2200  143.0870 O   0  0  0  0  0  0  0  0  0  0  0  0
  186.4510  177.4770  141.4210 O   0  0  0  0  0  0  0  0  0  0  0  0
  187.2550  177.4520  143.6060 C   0  0  0  0  0  0  0  0  0  0  0  0
  187.7940  176.2350  142.9930 C   0  0  1  0  0  3  0  0  0  0  0  0
  186.5440  178.2580  142.5900 C   0  0  2  0  0  3  0  0  0  0  0  0
  187.6120  177.9060  144.8090 C   0  0  0  0  0  2  0  0  0  0  0  0
  187.3830  176.4210  141.5420 C   0  0  0  0  0  2  0  0  0  0  0  0
  184.9730  179.7570  143.8510 O   0  0  0  0  0  1  0  0  0  0  0  0
  184.1920  177.9090  142.7330 O   0  0  0  0  0  0  0  0  0  0  0  0
  185.1710  178.6360  143.0470 C   0  0  0  0  0  0  0  0  0  0  0  0
  189.9490  173.2480  142.2320 O   0  0  0  0  0  0  0  0  0  0  0  0
  190.5460  173.3670  141.0180 N   0  0  0  0  0  0  0  0  0  0  0  0
  191.0070  172.0340  140.6330 C   0  0  0  0  0  2  0  0  0  0  0  0
  188.9860  172.4620  139.4360 C   0  0  0  0  0  2  0  0  0  0  0  0
  189.5040  173.7310  140.0650 C   0  0  0  0  0  2  0  0  0  0  0  0
  190.1690  171.5400  139.4720 C   0  0  0  0  0  2  0  0  0  0  0  0
  193.5530  173.3270  142.8600 O   0  0  0  0  0  0  0  0  0  0  0  0
  193.3840  176.1340  141.7010 O   0  0  0  0  0  1  0  0  0  0  0  0
  197.2690  174.5850  140.3400 O   0  0  0  0  0  0  0  0  0  0  0  0
  196.0670  174.5700  140.7170 C   0  0  0  0  0  0  0  0  0  0  0  0
  193.7930  175.0120  140.9810 C   0  0  2  0  0  3  0  0  0  0  0  0
  194.3500  173.9930  141.9230 C   0  0  0  0  0  0  0  0  0  0  0  0
  194.9870  175.3790  140.0980 C   0  0  2  0  0  3  0  0  0  0  0  0
  195.6120  173.7610  141.7820 N   0  0  0  0  0  0  0  0  0  0  0  0
  194.7530  174.9110  138.6650 C   0  0  0  0  0  2  0  0  0  0  0  0
  193.3580  174.3210  138.4630 C   0  0  0  0  0  2  0  0  0  0  0  0
  192.7780  174.6980  137.1050 C   0  0  1  0  0  3  0  0  0  0  0  0
  192.4910  176.6340  135.5580 C   0  0  0  0  0  1  0  0  0  0  0  0
  193.3490  176.0350  136.6550 C   0  0  0  0  0  2  0  0  0  0  0  0
  193.1490  173.6260  136.0930 C   0  0  0  0  0  2  0  0  0  0  0  0
  192.5420  171.0660  136.9440 N   0  0  0  0  0  1  0  0  0  0  0  0
  190.8070  173.4280  136.3680 C   0  0  0  0  0  2  0  0  0  0  0  0
  189.4870  172.9900  135.7250 C   0  0  0  0  0  2  0  0  0  0  0  0
  189.6590  171.7710  134.8150 C   0  0  0  0  0  2  0  0  0  0  0  0
  191.9470  172.9770  135.5650 N   0  0  0  0  0  0  0  0  0  0  0  0
  192.0590  171.4960  135.6360 C   0  0  1  0  0  0  0  0  0  0  0  0
  193.0320  171.0130  134.5720 C   0  0  0  0  0  1  0  0  0  0  0  0
  190.7050  170.8090  135.3780 C   0  0  0  0  0  2  0  0  0  0  0  0
  193.6240  173.6820  145.2700 C   0  0  0  0  0  2  0  0  0  0  0  0
  194.6170  176.0570  145.0710 C   0  0  0  0  0  1  0  0  0  0  0  0
  194.7660  174.6290  145.4630 C   0  0  0  0  0  0  0  0  0  0  0  0
  195.8120  174.2410  145.9630 O   0  0  0  0  0  0  0  0  0  0  0  0
  1  2  1  1  0  0  0
  1 49  1  0  0  0  0
  3  4  1  0  0  0  0
  3  2  1  1  0  0  0
  4 11  1  6  0  0  0
  4  9  1  0  0  0  0
  5  8  1  0  0  0  0
  6 10  2  0  0  0  0
  8  7  2  0  0  0  0
  9  6  1  0  0  0  0
  9  5  2  0  0  0  0
 10  7  1  0  0  0  0
 12 17  1  0  0  0  0
 12 15  1  0  0  0  0
 13 16  2  0  0  0  0
 14 11  1  6  0  0  0
 14 13  1  0  0  0  0
 15 20  1  1  0  0  0
 15 13  1  0  0  0  0
 17 14  1  0  0  0  0
 19 20  2  0  0  0  0
 20 18  1  0  0  0  0
 21  3  1  0  0  0  0
 22 21  1  0  0  0  0
 23 22  1  0  0  0  0
 24 26  1  0  0  0  0
 24 25  1  0  0  0  0
 25 22  1  0  0  0  0
 26 23  1  0  0  0  0
 27  1  1  0  0  0  0
 29 30  2  0  0  0  0
 30 34  1  0  0  0  0
 31 28  1  1  0  0  0
 31 32  1  0  0  0  0
 32 27  1  0  0  0  0
 33 35  1  6  0  0  0
 33 30  1  0  0  0  0
 33 31  1  0  0  0  0
 34 32  2  0  0  0  0
 36 35  1  0  0  0  0
 37 40  1  6  0  0  0
 37 36  1  0  0  0  0
 38 39  1  0  0  0  0
 39 37  1  0  0  0  0
 43 42  1  0  0  0  0
 44 48  1  0  0  0  0
 44 43  1  0  0  0  0
 45 46  1  0  0  0  0
 45 40  1  0  0  0  0
 45 42  1  0  0  0  0
 46 47  1  6  0  0  0
 46 41  1  0  0  0  0
 48 46  1  0  0  0  0
 49 51  1  0  0  0  0
 50 51  1  0  0  0  0
 51 52  2  0  0  0  0
M  END
>  <MODEL>
5

>  <REMARK>
 VINA RESULT:      -5.5      3.377      8.676
  Name = 
  19 active torsions:
  status: ('A' for Active; 'I' for Inactive)
    1  A    between atoms: C_3  and  C_8
    2  A    between atoms: C_3  and  C_29
    3  A    between atoms: N_4  and  O_21
    4  A    between atoms: C_8  and  O_39
    5  A    between atoms: C_8  and  C_42
    6  A    between atoms: C_16  and  C_19
    7  A    between atoms: C_16  and  C_38
    8  A    between atoms: C_19  and  C_37
    9  A    between atoms: O_21  and  C_33
   10  A    between atoms: C_22  and  C_33
   11  A    between atoms: C_22  and  C_48
   12  A    between atoms: C_22  and  O_51
   13  A    between atoms: N_24  and  C_44
   14  A    between atoms: C_33  and  C_42
   15  A    between atoms: C_34  and  O_39
   16  A    between atoms: C_35  and  O_51
   17  A    between atoms: C_36  and  C_37
   18  A    between atoms: C_37  and  C_44
   19  A    between atoms: C_46  and  C_47
                            x       y       z     vdW  Elec       q    Type
                         _______ _______ _______ _____ _____    ______ ____

>  <TORSDO>
F 19

$$$$
=
 OpenBabel11062421383D

 52 56  0  0  1  0  0  0  0  0999 V2000
  193.1660  172.8350  144.1310 C   0  0  2  0  0  3  0  0  0  0  0  0
  193.4410  172.5850  142.6550 C   0  0  0  0  0  2  0  0  0  0  0  0
  193.2220  173.8360  141.8130 C   0  0  2  0  0  3  0  0  0  0  0  0
  192.4910  173.4300  140.5280 C   0  0  1  0  0  3  0  0  0  0  0  0
  190.1890  172.6220  139.9780 C   0  0  0  0  0  3  0  0  0  0  0  0
  190.4290  174.3330  141.6740 C   0  0  0  0  0  3  0  0  0  0  0  0
  188.2310  173.4890  141.1110 C   0  0  0  0  0  3  0  0  0  0  0  0
  188.8040  172.6290  140.1680 C   0  0  0  0  0  3  0  0  0  0  0  0
  191.0060  173.4750  140.7260 C   0  0  0  0  0  0  0  0  0  0  0  0
  189.0440  174.3420  141.8620 C   0  0  0  0  0  3  0  0  0  0  0  0
  192.8600  174.2460  139.4510 O   0  0  0  0  0  0  0  0  0  0  0  0
  194.9910  171.6160  138.8180 O   0  0  0  0  0  0  0  0  0  0  0  0
  194.7050  173.7990  138.0620 C   0  0  0  0  0  0  0  0  0  0  0  0
  193.3700  173.3700  138.4850 C   0  0  1  0  0  3  0  0  0  0  0  0
  195.7010  172.7570  138.3940 C   0  0  2  0  0  3  0  0  0  0  0  0
  195.0160  175.0500  137.7180 C   0  0  0  0  0  2  0  0  0  0  0  0
  193.6740  172.0270  139.1260 C   0  0  0  0  0  2  0  0  0  0  0  0
  195.9630  172.1120  135.9820 O   0  0  0  0  0  0  0  0  0  0  0  0
  197.7980  172.3390  137.3440 O   0  0  0  0  0  1  0  0  0  0  0  0
  196.5470  172.4060  137.2120 C   0  0  0  0  0  0  0  0  0  0  0  0
  194.4630  174.4150  141.5110 O   0  0  0  0  0  0  0  0  0  0  0  0
  194.3900  175.6860  141.9810 N   0  0  0  0  0  0  0  0  0  0  0  0
  195.2650  175.7640  143.1490 C   0  0  0  0  0  2  0  0  0  0  0  0
  196.4380  176.7440  141.3150 C   0  0  0  0  0  2  0  0  0  0  0  0
  194.9830  176.5500  140.9670 C   0  0  0  0  0  2  0  0  0  0  0  0
  196.4630  176.6270  142.8100 C   0  0  0  0  0  2  0  0  0  0  0  0
  192.5280  174.0940  144.3510 O   0  0  0  0  0  0  0  0  0  0  0  0
  190.1120  172.5640  145.3860 O   0  0  0  0  0  1  0  0  0  0  0  0
  190.8280  175.7000  148.3850 O   0  0  0  0  0  0  0  0  0  0  0  0
  190.8200  175.1330  147.2610 C   0  0  0  0  0  0  0  0  0  0  0  0
  190.2000  173.9550  145.3460 C   0  0  2  0  0  3  0  0  0  0  0  0
  191.6380  174.3640  145.3970 C   0  0  0  0  0  0  0  0  0  0  0  0
  189.6120  174.5410  146.6320 C   0  0  2  0  0  3  0  0  0  0  0  0
  191.9800  175.0040  146.4630 N   0  0  0  0  0  0  0  0  0  0  0  0
  188.6120  175.6450  146.3040 C   0  0  0  0  0  2  0  0  0  0  0  0
  189.2860  177.0020  146.0970 C   0  0  0  0  0  2  0  0  0  0  0  0
  188.7560  177.7100  144.8560 C   0  0  1  0  0  3  0  0  0  0  0  0
  189.0900  177.9140  142.3920 C   0  0  0  0  0  1  0  0  0  0  0  0
  189.7440  177.5490  143.7100 C   0  0  0  0  0  2  0  0  0  0  0  0
  187.4240  177.0890  144.4630 C   0  0  0  0  0  2  0  0  0  0  0  0
  185.0410  177.4040  143.0970 N   0  0  0  0  0  1  0  0  0  0  0  0
  185.6180  176.7970  145.9640 C   0  0  0  0  0  2  0  0  0  0  0  0
  184.6070  177.4920  146.8810 C   0  0  0  0  0  2  0  0  0  0  0  0
  184.1600  178.8490  146.3330 C   0  0  0  0  0  2  0  0  0  0  0  0
  186.3180  177.7790  145.1310 N   0  0  0  0  0  0  0  0  0  0  0  0
  185.3740  178.3650  144.1420 C   0  0  1  0  0  0  0  0  0  0  0  0
  186.0130  179.5860  143.4990 C   0  0  0  0  0  1  0  0  0  0  0  0
  184.0620  178.8210  144.8080 C   0  0  0  0  0  2  0  0  0  0  0  0
  194.4600  172.7260  144.9280 C   0  0  0  0  0  2  0  0  0  0  0  0
  196.2060  170.8880  145.4160 C   0  0  0  0  0  1  0  0  0  0  0  0
  194.7870  171.2990  145.2340 C   0  0  0  0  0  0  0  0  0  0  0  0
  193.8940  170.4730  145.3590 O   0  0  0  0  0  0  0  0  0  0  0  0
  1  2  1  6  0  0  0
  1 27  1  0  0  0  0
  1 49  1  0  0  0  0
  3  2  1  1  0  0  0
  4 11  1  6  0  0  0
  4  9  1  0  0  0  0
  4  3  1  0  0  0  0
  5  8  2  0  0  0  0
  5  9  1  0  0  0  0
  6 10  1  0  0  0  0
  7 10  2  0  0  0  0
  8  7  1  0  0  0  0
  9  6  2  0  0  0  0
 12 17  1  0  0  0  0
 13 15  1  0  0  0  0
 13 14  1  0  0  0  0
 14 17  1  0  0  0  0
 14 11  1  1  0  0  0
 15 20  1  6  0  0  0
 15 12  1  0  0  0  0
 16 13  2  0  0  0  0
 18 20  2  0  0  0  0
 20 19  1  0  0  0  0
 21  3  1  0  0  0  0
 21 22  1  0  0  0  0
 22 23  1  0  0  0  0
 24 26  1  0  0  0  0
 25 24  1  0  0  0  0
 25 22  1  0  0  0  0
 26 23  1  0  0  0  0
 27 32  1  0  0  0  0
 30 29  2  0  0  0  0
 31 28  1  1  0  0  0
 31 32  1  0  0  0  0
 31 33  1  0  0  0  0
 32 34  2  0  0  0  0
 33 35  1  6  0  0  0
 33 30  1  0  0  0  0
 34 30  1  0  0  0  0
 36 35  1  0  0  0  0
 37 39  1  6  0  0  0
 37 36  1  0  0  0  0
 38 39  1  0  0  0  0
 40 37  1  0  0  0  0
 40 45  1  0  0  0  0
 41 46  1  0  0  0  0
 42 43  1  0  0  0  0
 44 43  1  0  0  0  0
 45 42  1  0  0  0  0
 46 47  1  6  0  0  0
 46 48  1  0  0  0  0
 46 45  1  0  0  0  0
 48 44  1  0  0  0  0
 49 51  1  0  0  0  0
 51 52  2  0  0  0  0
 51 50  1  0  0  0  0
M  END
>  <MODEL>
6

>  <REMARK>
 VINA RESULT:      -5.5      1.891      4.163
  Name = 
  19 active torsions:
  status: ('A' for Active; 'I' for Inactive)
    1  A    between atoms: C_3  and  C_8
    2  A    between atoms: C_3  and  C_29
    3  A    between atoms: N_4  and  O_21
    4  A    between atoms: C_8  and  O_39
    5  A    between atoms: C_8  and  C_42
    6  A    between atoms: C_16  and  C_19
    7  A    between atoms: C_16  and  C_38
    8  A    between atoms: C_19  and  C_37
    9  A    between atoms: O_21  and  C_33
   10  A    between atoms: C_22  and  C_33
   11  A    between atoms: C_22  and  C_48
   12  A    between atoms: C_22  and  O_51
   13  A    between atoms: N_24  and  C_44
   14  A    between atoms: C_33  and  C_42
   15  A    between atoms: C_34  and  O_39
   16  A    between atoms: C_35  and  O_51
   17  A    between atoms: C_36  and  C_37
   18  A    between atoms: C_37  and  C_44
   19  A    between atoms: C_46  and  C_47
                            x       y       z     vdW  Elec       q    Type
                         _______ _______ _______ _____ _____    ______ ____

>  <TORSDO>
F 19

$$$$
=
 OpenBabel11062421383D

 52 56  0  0  1  0  0  0  0  0999 V2000
  194.4470  174.3890  144.6230 C   0  0  2  0  0  3  0  0  0  0  0  0
  195.3150  173.1390  144.6500 C   0  0  0  0  0  2  0  0  0  0  0  0
  195.3290  172.4240  143.3050 C   0  0  2  0  0  3  0  0  0  0  0  0
  194.9720  170.9520  143.5380 C   0  0  1  0  0  3  0  0  0  0  0  0
  195.5030  170.3040  145.8940 C   0  0  0  0  0  3  0  0  0  0  0  0
  197.1100  169.7640  144.1670 C   0  0  0  0  0  3  0  0  0  0  0  0
  197.5510  169.1430  146.4640 C   0  0  0  0  0  3  0  0  0  0  0  0
  196.3320  169.7100  146.8500 C   0  0  0  0  0  3  0  0  0  0  0  0
  195.8890  170.3380  144.5510 C   0  0  0  0  0  0  0  0  0  0  0  0
  197.9410  169.1720  145.1230 C   0  0  0  0  0  3  0  0  0  0  0  0
  193.6380  170.8070  143.9430 O   0  0  0  0  0  0  0  0  0  0  0  0
  193.5540  169.9840  140.6000 O   0  0  0  0  0  0  0  0  0  0  0  0
  192.0670  170.8040  142.1930 C   0  0  0  0  0  0  0  0  0  0  0  0
  193.0380  170.0170  142.9550 C   0  0  1  0  0  3  0  0  0  0  0  0
  192.4760  170.8750  140.7730 C   0  0  2  0  0  3  0  0  0  0  0  0
  191.1370  171.5860  142.7450 C   0  0  0  0  0  2  0  0  0  0  0  0
  194.0600  169.6780  141.8840 C   0  0  0  0  0  2  0  0  0  0  0  0
  190.5480  171.4610  139.2760 O   0  0  0  0  0  0  0  0  0  0  0  0
  191.1260  169.2690  139.6440 O   0  0  0  0  0  1  0  0  0  0  0  0
  191.3580  170.4890  139.8570 C   0  0  0  0  0  0  0  0  0  0  0  0
  196.6040  172.5360  142.7330 O   0  0  0  0  0  0  0  0  0  0  0  0
  196.4460  172.1910  141.4300 N   0  0  0  0  0  0  0  0  0  0  0  0
  195.6440  173.2400  140.8010 C   0  0  0  0  0  2  0  0  0  0  0  0
  197.9220  173.6220  140.1950 C   0  0  0  0  0  2  0  0  0  0  0  0
  197.7640  172.2540  140.8090 C   0  0  0  0  0  2  0  0  0  0  0  0
  196.5180  174.0150  139.8370 C   0  0  0  0  0  2  0  0  0  0  0  0
  193.0580  174.0800  144.7480 O   0  0  0  0  0  0  0  0  0  0  0  0
  190.1130  173.6210  145.3520 O   0  0  0  0  0  1  0  0  0  0  0  0
  191.3370  176.8340  148.0930 O   0  0  0  0  0  0  0  0  0  0  0  0
  191.3320  176.1110  147.0630 C   0  0  0  0  0  0  0  0  0  0  0  0
  190.6930  174.8790  145.1890 C   0  0  2  0  0  3  0  0  0  0  0  0
  192.1480  174.8030  145.5270 C   0  0  0  0  0  0  0  0  0  0  0  0
  190.1280  175.8410  146.2370 C   0  0  2  0  0  3  0  0  0  0  0  0
  192.4950  175.4760  146.5720 N   0  0  0  0  0  0  0  0  0  0  0  0
  189.6600  177.1330  145.5760 C   0  0  0  0  0  2  0  0  0  0  0  0
  189.5130  176.9940  144.0600 C   0  0  0  0  0  2  0  0  0  0  0  0
  188.4800  177.9670  143.5040 C   0  0  1  0  0  3  0  0  0  0  0  0
  187.5890  177.9110  141.1740 C   0  0  0  0  0  1  0  0  0  0  0  0
  188.7820  178.2590  142.0420 C   0  0  0  0  0  2  0  0  0  0  0  0
  187.0990  177.3400  143.6160 C   0  0  0  0  0  2  0  0  0  0  0  0
  184.3730  177.7810  143.4730 N   0  0  0  0  0  1  0  0  0  0  0  0
  186.0910  176.6800  145.6530 C   0  0  0  0  0  2  0  0  0  0  0  0
  185.5880  177.1380  147.0260 C   0  0  0  0  0  2  0  0  0  0  0  0
  184.9970  178.5490  146.9880 C   0  0  0  0  0  2  0  0  0  0  0  0
  186.4030  177.8350  144.8070 N   0  0  0  0  0  0  0  0  0  0  0  0
  185.1500  178.5460  144.4420 C   0  0  1  0  0  0  0  0  0  0  0  0
  185.4970  179.8980  143.8350 C   0  0  0  0  0  1  0  0  0  0  0  0
  184.2600  178.8010  145.6720 C   0  0  0  0  0  2  0  0  0  0  0  0
  194.7230  175.1870  143.3560 C   0  0  0  0  0  2  0  0  0  0  0  0
  197.1380  176.0220  142.9850 C   0  0  0  0  0  1  0  0  0  0  0  0
  195.7880  176.2120  143.5830 C   0  0  0  0  0  0  0  0  0  0  0  0
  195.5490  177.2170  144.2380 O   0  0  0  0  0  0  0  0  0  0  0  0
  1 49  1  6  0  0  0
  1  2  1  0  0  0  0
  1 27  1  0  0  0  0
  3  4  1  0  0  0  0
  3  2  1  1  0  0  0
  4 11  1  1  0  0  0
  4  9  1  0  0  0  0
  5  8  1  0  0  0  0
  6  9  1  0  0  0  0
  6 10  2  0  0  0  0
  7  8  2  0  0  0  0
  9  5  2  0  0  0  0
 10  7  1  0  0  0  0
 12 15  1  0  0  0  0
 12 17  1  0  0  0  0
 13 16  2  0  0  0  0
 13 14  1  0  0  0  0
 14 11  1  1  0  0  0
 15 20  1  6  0  0  0
 15 13  1  0  0  0  0
 17 14  1  0  0  0  0
 18 20  2  0  0  0  0
 19 20  1  0  0  0  0
 21  3  1  0  0  0  0
 22 21  1  0  0  0  0
 23 22  1  0  0  0  0
 24 25  1  0  0  0  0
 25 22  1  0  0  0  0
 26 24  1  0  0  0  0
 26 23  1  0  0  0  0
 27 32  1  0  0  0  0
 30 29  2  0  0  0  0
 31 28  1  1  0  0  0
 31 32  1  0  0  0  0
 31 33  1  0  0  0  0
 32 34  2  0  0  0  0
 33 35  1  6  0  0  0
 33 30  1  0  0  0  0
 34 30  1  0  0  0  0
 36 35  1  0  0  0  0
 37 39  1  6  0  0  0
 37 40  1  0  0  0  0
 37 36  1  0  0  0  0
 38 39  1  0  0  0  0
 40 45  1  0  0  0  0
 41 46  1  0  0  0  0
 42 43  1  0  0  0  0
 44 43  1  0  0  0  0
 45 42  1  0  0  0  0
 46 47  1  6  0  0  0
 46 45  1  0  0  0  0
 46 48  1  0  0  0  0
 48 44  1  0  0  0  0
 49 51  1  0  0  0  0
 50 51  1  0  0  0  0
 51 52  2  0  0  0  0
M  END
>  <MODEL>
7

>  <REMARK>
 VINA RESULT:      -5.3      1.768      4.111
  Name = 
  19 active torsions:
  status: ('A' for Active; 'I' for Inactive)
    1  A    between atoms: C_3  and  C_8
    2  A    between atoms: C_3  and  C_29
    3  A    between atoms: N_4  and  O_21
    4  A    between atoms: C_8  and  O_39
    5  A    between atoms: C_8  and  C_42
    6  A    between atoms: C_16  and  C_19
    7  A    between atoms: C_16  and  C_38
    8  A    between atoms: C_19  and  C_37
    9  A    between atoms: O_21  and  C_33
   10  A    between atoms: C_22  and  C_33
   11  A    between atoms: C_22  and  C_48
   12  A    between atoms: C_22  and  O_51
   13  A    between atoms: N_24  and  C_44
   14  A    between atoms: C_33  and  C_42
   15  A    between atoms: C_34  and  O_39
   16  A    between atoms: C_35  and  O_51
   17  A    between atoms: C_36  and  C_37
   18  A    between atoms: C_37  and  C_44
   19  A    between atoms: C_46  and  C_47
                            x       y       z     vdW  Elec       q    Type
                         _______ _______ _______ _____ _____    ______ ____

>  <TORSDO>
F 19

$$$$
=
 OpenBabel11062421383D

 52 56  0  0  1  0  0  0  0  0999 V2000
  194.1200  173.8610  145.0630 C   0  0  2  0  0  3  0  0  0  0  0  0
  194.4200  173.7260  143.5760 C   0  0  0  0  0  2  0  0  0  0  0  0
  194.4800  172.2690  143.1360 C   0  0  2  0  0  3  0  0  0  0  0  0
  193.4340  172.0540  142.0370 C   0  0  1  0  0  3  0  0  0  0  0  0
  195.0330  171.9010  140.1210 C   0  0  0  0  0  3  0  0  0  0  0  0
  193.6040  170.0010  140.5760 C   0  0  0  0  0  3  0  0  0  0  0  0
  195.1930  169.9080  138.7520 C   0  0  0  0  0  3  0  0  0  0  0  0
  195.6160  171.2060  139.0570 C   0  0  0  0  0  3  0  0  0  0  0  0
  194.0240  171.3040  140.8820 C   0  0  0  0  0  0  0  0  0  0  0  0
  194.1860  169.3070  139.5110 C   0  0  0  0  0  3  0  0  0  0  0  0
  192.3090  171.3770  142.5280 O   0  0  0  0  0  0  0  0  0  0  0  0
  189.2810  172.1770  143.9620 O   0  0  0  0  0  0  0  0  0  0  0  0
  190.2020  172.1520  141.8240 C   0  0  0  0  0  0  0  0  0  0  0  0
  191.3390  172.3700  142.7200 C   0  0  1  0  0  3  0  0  0  0  0  0
  188.9750  171.9090  142.6130 C   0  0  2  0  0  3  0  0  0  0  0  0
  190.3140  171.9050  140.5170 C   0  0  0  0  0  2  0  0  0  0  0  0
  190.6900  172.1900  144.0820 C   0  0  0  0  0  2  0  0  0  0  0  0
  188.0390  174.1680  142.0410 O   0  0  0  0  0  1  0  0  0  0  0  0
  186.7170  172.2920  141.9570 O   0  0  0  0  0  0  0  0  0  0  0  0
  187.8520  172.7940  142.1720 C   0  0  0  0  0  0  0  0  0  0  0  0
  194.2150  171.4410  144.2360 O   0  0  0  0  0  0  0  0  0  0  0  0
  195.1330  170.4430  144.1640 N   0  0  0  0  0  0  0  0  0  0  0  0
  196.4140  171.0610  143.8220 C   0  0  0  0  0  2  0  0  0  0  0  0
  196.4410  170.6180  146.1680 C   0  0  0  0  0  2  0  0  0  0  0  0
  195.2850  169.9060  145.5110 C   0  0  0  0  0  2  0  0  0  0  0  0
  197.3380  170.9720  145.0180 C   0  0  0  0  0  2  0  0  0  0  0  0
  192.7560  174.2100  145.3040 O   0  0  0  0  0  0  0  0  0  0  0  0
  192.3030  176.4410  147.3210 O   0  0  0  0  0  1  0  0  0  0  0  0
  191.5810  178.3030  143.4040 O   0  0  0  0  0  0  0  0  0  0  0  0
  191.6430  177.4000  144.2790 C   0  0  0  0  0  0  0  0  0  0  0  0
  191.4530  176.1690  146.2500 C   0  0  2  0  0  3  0  0  0  0  0  0
  192.2260  175.4980  145.1600 C   0  0  0  0  0  0  0  0  0  0  0  0
  190.9980  177.4840  145.6130 C   0  0  2  0  0  3  0  0  0  0  0  0
  192.3400  176.1880  144.0750 N   0  0  0  0  0  0  0  0  0  0  0  0
  189.4810  177.4980  145.4490 C   0  0  0  0  0  2  0  0  0  0  0  0
  189.0310  176.8800  144.1260 C   0  0  0  0  0  2  0  0  0  0  0  0
  188.1180  177.8210  143.3470 C   0  0  1  0  0  3  0  0  0  0  0  0
  187.2790  177.8500  140.9980 C   0  0  0  0  0  1  0  0  0  0  0  0
  188.5130  177.8220  141.8770 C   0  0  0  0  0  2  0  0  0  0  0  0
  186.6820  177.3400  143.4810 C   0  0  0  0  0  2  0  0  0  0  0  0
  184.0790  178.2720  143.4630 N   0  0  0  0  0  1  0  0  0  0  0  0
  185.5880  176.6440  145.4610 C   0  0  0  0  0  2  0  0  0  0  0  0
  185.1860  177.0260  146.8890 C   0  0  0  0  0  2  0  0  0  0  0  0
  184.8580  178.5150  147.0230 C   0  0  0  0  0  2  0  0  0  0  0  0
  186.0960  177.8130  144.7380 N   0  0  0  0  0  0  0  0  0  0  0  0
  184.9880  178.7730  144.4880 C   0  0  1  0  0  0  0  0  0  0  0  0
  185.5670  180.1010  144.0240 C   0  0  0  0  0  1  0  0  0  0  0  0
  184.1680  179.0410  145.7640 C   0  0  0  0  0  2  0  0  0  0  0  0
  195.0680  174.8710  145.6960 C   0  0  0  0  0  2  0  0  0  0  0  0
  197.2810  174.6330  144.3870 C   0  0  0  0  0  1  0  0  0  0  0  0
  196.0430  175.4000  144.6930 C   0  0  0  0  0  0  0  0  0  0  0  0
  195.8160  176.4480  144.1040 O   0  0  0  0  0  0  0  0  0  0  0  0
  1  2  1  6  0  0  0
  1 27  1  0  0  0  0
  1 49  1  0  0  0  0
  3  2  1  1  0  0  0
  3 21  1  0  0  0  0
  4 11  1  1  0  0  0
  4  3  1  0  0  0  0
  5  9  1  0  0  0  0
  6  9  2  0  0  0  0
  7  8  1  0  0  0  0
  7 10  2  0  0  0  0
  8  5  2  0  0  0  0
  9  4  1  0  0  0  0
 10  6  1  0  0  0  0
 12 17  1  0  0  0  0
 13 15  1  0  0  0  0
 13 14  1  0  0  0  0
 14 11  1  6  0  0  0
 14 17  1  0  0  0  0
 15 20  1  6  0  0  0
 15 12  1  0  0  0  0
 16 13  2  0  0  0  0
 18 20  1  0  0  0  0
 19 20  2  0  0  0  0
 22 21  1  0  0  0  0
 22 25  1  0  0  0  0
 23 22  1  0  0  0  0
 23 26  1  0  0  0  0
 25 24  1  0  0  0  0
 26 24  1  0  0  0  0
 29 30  2  0  0  0  0
 30 33  1  0  0  0  0
 31 28  1  1  0  0  0
 32 27  1  0  0  0  0
 32 31  1  0  0  0  0
 33 35  1  6  0  0  0
 33 31  1  0  0  0  0
 34 30  1  0  0  0  0
 34 32  2  0  0  0  0
 36 35  1  0  0  0  0
 37 39  1  6  0  0  0
 37 40  1  0  0  0  0
 37 36  1  0  0  0  0
 38 39  1  0  0  0  0
 40 45  1  0  0  0  0
 41 46  1  0  0  0  0
 42 43  1  0  0  0  0
 43 44  1  0  0  0  0
 45 42  1  0  0  0  0
 46 47  1  6  0  0  0
 46 45  1  0  0  0  0
 46 48  1  0  0  0  0
 48 44  1  0  0  0  0
 50 51  1  0  0  0  0
 51 49  1  0  0  0  0
 52 51  2  0  0  0  0
M  END
>  <MODEL>
8

>  <REMARK>
 VINA RESULT:      -5.3      2.046      4.029
  Name = 
  19 active torsions:
  status: ('A' for Active; 'I' for Inactive)
    1  A    between atoms: C_3  and  C_8
    2  A    between atoms: C_3  and  C_29
    3  A    between atoms: N_4  and  O_21
    4  A    between atoms: C_8  and  O_39
    5  A    between atoms: C_8  and  C_42
    6  A    between atoms: C_16  and  C_19
    7  A    between atoms: C_16  and  C_38
    8  A    between atoms: C_19  and  C_37
    9  A    between atoms: O_21  and  C_33
   10  A    between atoms: C_22  and  C_33
   11  A    between atoms: C_22  and  C_48
   12  A    between atoms: C_22  and  O_51
   13  A    between atoms: N_24  and  C_44
   14  A    between atoms: C_33  and  C_42
   15  A    between atoms: C_34  and  O_39
   16  A    between atoms: C_35  and  O_51
   17  A    between atoms: C_36  and  C_37
   18  A    between atoms: C_37  and  C_44
   19  A    between atoms: C_46  and  C_47
                            x       y       z     vdW  Elec       q    Type
                         _______ _______ _______ _____ _____    ______ ____

>  <TORSDO>
F 19

$$$$
=
 OpenBabel11062421383D

 52 56  0  0  1  0  0  0  0  0999 V2000
  192.4740  172.5850  142.0770 C   0  0  2  0  0  3  0  0  0  0  0  0
  193.9170  172.1840  141.8020 C   0  0  0  0  0  2  0  0  0  0  0  0
  194.8960  172.9180  142.7100 C   0  0  2  0  0  3  0  0  0  0  0  0
  195.6590  173.9450  141.8660 C   0  0  1  0  0  3  0  0  0  0  0  0
  197.3680  172.4470  140.8230 C   0  0  0  0  0  3  0  0  0  0  0  0
  195.7290  173.4940  139.3820 C   0  0  0  0  0  3  0  0  0  0  0  0
  197.3950  172.0130  138.4400 C   0  0  0  0  0  3  0  0  0  0  0  0
  197.9330  171.8080  139.7150 C   0  0  0  0  0  3  0  0  0  0  0  0
  196.2680  173.2940  140.6620 C   0  0  0  0  0  0  0  0  0  0  0  0
  196.2940  172.8570  138.2740 C   0  0  0  0  0  3  0  0  0  0  0  0
  194.8280  175.0030  141.4750 O   0  0  0  0  0  0  0  0  0  0  0  0
  196.3320  175.9800  144.4150 O   0  0  0  0  0  0  0  0  0  0  0  0
  194.2530  176.2300  143.3980 C   0  0  0  0  0  0  0  0  0  0  0  0
  195.1980  176.0810  142.2890 C   0  0  1  0  0  3  0  0  0  0  0  0
  194.9510  176.0370  144.6880 C   0  0  2  0  0  3  0  0  0  0  0  0
  192.9260  176.2320  143.2570 C   0  0  0  0  0  2  0  0  0  0  0  0
  196.4810  175.7420  143.0290 C   0  0  0  0  0  2  0  0  0  0  0  0
  193.6550  177.0600  146.5790 O   0  0  0  0  0  1  0  0  0  0  0  0
  195.3520  178.2200  145.5540 O   0  0  0  0  0  0  0  0  0  0  0  0
  194.6770  177.1600  145.6370 C   0  0  0  0  0  0  0  0  0  0  0  0
  195.7830  171.9930  143.2790 O   0  0  0  0  0  0  0  0  0  0  0  0
  195.1530  171.5260  144.3870 N   0  0  0  0  0  0  0  0  0  0  0  0
  195.6020  170.1490  144.5900 C   0  0  0  0  0  2  0  0  0  0  0  0
  196.8080  171.5260  146.1240 C   0  0  0  0  0  2  0  0  0  0  0  0
  195.6590  172.2930  145.5200 C   0  0  0  0  0  2  0  0  0  0  0  0
  196.4720  170.0930  145.8290 C   0  0  0  0  0  2  0  0  0  0  0  0
  192.0200  172.1100  143.3460 O   0  0  0  0  0  0  0  0  0  0  0  0
  189.3410  172.3340  144.7690 O   0  0  0  0  0  1  0  0  0  0  0  0
  192.1080  174.7430  147.1920 O   0  0  0  0  0  0  0  0  0  0  0  0
  191.6230  174.1870  146.1730 C   0  0  0  0  0  0  0  0  0  0  0  0
  190.1830  173.4150  144.5090 C   0  0  2  0  0  3  0  0  0  0  0  0
  191.5940  172.9300  144.3970 C   0  0  0  0  0  0  0  0  0  0  0  0
  190.2150  174.3410  145.7270 C   0  0  2  0  0  3  0  0  0  0  0  0
  192.3840  173.3500  145.3260 N   0  0  0  0  0  0  0  0  0  0  0  0
  189.9660  175.7850  145.3040 C   0  0  0  0  0  2  0  0  0  0  0  0
  188.9960  175.8900  144.1270 C   0  0  0  0  0  2  0  0  0  0  0  0
  188.3800  177.2810  144.0290 C   0  0  1  0  0  3  0  0  0  0  0  0
  188.1630  177.7660  141.5910 C   0  0  0  0  0  1  0  0  0  0  0  0
  188.9760  178.0260  142.8440 C   0  0  0  0  0  2  0  0  0  0  0  0
  186.8780  177.1430  143.8320 C   0  0  0  0  0  2  0  0  0  0  0  0
  184.2530  177.9210  143.4460 N   0  0  0  0  0  1  0  0  0  0  0  0
  185.6270  176.6690  145.7840 C   0  0  0  0  0  2  0  0  0  0  0  0
  185.0730  177.2230  147.1010 C   0  0  0  0  0  2  0  0  0  0  0  0
  184.6720  178.6960  146.9900 C   0  0  0  0  0  2  0  0  0  0  0  0
  186.1540  177.7530  144.9500 N   0  0  0  0  0  0  0  0  0  0  0  0
  185.0370  178.6070  144.4670 C   0  0  1  0  0  0  0  0  0  0  0  0
  185.6030  179.8880  143.8720 C   0  0  0  0  0  1  0  0  0  0  0  0
  184.0870  179.0040  145.6120 C   0  0  0  0  0  2  0  0  0  0  0  0
  191.5740  172.0960  140.9500 C   0  0  0  0  0  2  0  0  0  0  0  0
  190.1040  174.2110  140.7780 C   0  0  0  0  0  1  0  0  0  0  0  0
  190.2290  172.7460  141.0110 C   0  0  0  0  0  0  0  0  0  0  0  0
  189.2280  172.0780  141.2270 O   0  0  0  0  0  0  0  0  0  0  0  0
  1 49  1  6  0  0  0
  1 27  1  0  0  0  0
  2  1  1  0  0  0  0
  3  2  1  6  0  0  0
  3 21  1  0  0  0  0
  4 11  1  6  0  0  0
  4  3  1  0  0  0  0
  6  9  2  0  0  0  0
  7  8  1  0  0  0  0
  8  5  2  0  0  0  0
  9  5  1  0  0  0  0
  9  4  1  0  0  0  0
 10  7  2  0  0  0  0
 10  6  1  0  0  0  0
 12 15  1  0  0  0  0
 13 15  1  0  0  0  0
 14 11  1  6  0  0  0
 14 17  1  0  0  0  0
 14 13  1  0  0  0  0
 15 20  1  1  0  0  0
 16 13  2  0  0  0  0
 17 12  1  0  0  0  0
 19 20  2  0  0  0  0
 20 18  1  0  0  0  0
 21 22  1  0  0  0  0
 22 23  1  0  0  0  0
 22 25  1  0  0  0  0
 23 26  1  0  0  0  0
 25 24  1  0  0  0  0
 26 24  1  0  0  0  0
 27 32  1  0  0  0  0
 30 29  2  0  0  0  0
 31 28  1  1  0  0  0
 31 33  1  0  0  0  0
 32 31  1  0  0  0  0
 32 34  2  0  0  0  0
 33 35  1  6  0  0  0
 33 30  1  0  0  0  0
 34 30  1  0  0  0  0
 36 35  1  0  0  0  0
 37 39  1  6  0  0  0
 37 36  1  0  0  0  0
 38 39  1  0  0  0  0
 40 37  1  0  0  0  0
 40 45  1  0  0  0  0
 41 46  1  0  0  0  0
 42 43  1  0  0  0  0
 44 43  1  0  0  0  0
 45 42  1  0  0  0  0
 46 47  1  6  0  0  0
 46 45  1  0  0  0  0
 46 48  1  0  0  0  0
 48 44  1  0  0  0  0
 49 51  1  0  0  0  0
 50 51  1  0  0  0  0
 51 52  2  0  0  0  0
M  END
>  <MODEL>
9

>  <REMARK>
 VINA RESULT:      -5.3      1.844      4.337
  Name = 
  19 active torsions:
  status: ('A' for Active; 'I' for Inactive)
    1  A    between atoms: C_3  and  C_8
    2  A    between atoms: C_3  and  C_29
    3  A    between atoms: N_4  and  O_21
    4  A    between atoms: C_8  and  O_39
    5  A    between atoms: C_8  and  C_42
    6  A    between atoms: C_16  and  C_19
    7  A    between atoms: C_16  and  C_38
    8  A    between atoms: C_19  and  C_37
    9  A    between atoms: O_21  and  C_33
   10  A    between atoms: C_22  and  C_33
   11  A    between atoms: C_22  and  C_48
   12  A    between atoms: C_22  and  O_51
   13  A    between atoms: N_24  and  C_44
   14  A    between atoms: C_33  and  C_42
   15  A    between atoms: C_34  and  O_39
   16  A    between atoms: C_35  and  O_51
   17  A    between atoms: C_36  and  C_37
   18  A    between atoms: C_37  and  C_44
   19  A    between atoms: C_46  and  C_47
                            x       y       z     vdW  Elec       q    Type
                         _______ _______ _______ _____ _____    ______ ____

>  <TORSDO>
F 19

$$$$
