=
 OpenBabel11062419063D

 32 34  0  0  1  0  0  0  0  0999 V2000
  188.1140  176.2280  141.3400 N   0  0  0  0  0  2  0  0  0  0  0  0
  188.5640  174.8760  141.2000 C   0  0  0  0  0  0  0  0  0  0  0  0
  188.6310  174.3800  140.0430 O   0  0  0  0  0  0  0  0  0  0  0  0
  184.5430  178.2730  143.9630 C   0  0  0  0  0  3  0  0  0  0  0  0
  184.3530  178.0820  141.5710 C   0  0  0  0  0  0  0  0  0  0  0  0
  183.6170  178.2790  140.3700 N   0  0  0  0  0  1  0  0  0  0  0  0
  183.8080  178.4750  142.7940 C   0  0  0  0  0  3  0  0  0  0  0  0
  185.8080  177.6840  143.9020 C   0  0  0  0  0  0  0  0  0  0  0  0
  187.6280  176.7280  142.5560 N   0  0  0  0  0  2  0  0  0  0  0  0
  185.5880  177.5150  141.5240 N   0  0  0  0  0  0  0  0  0  0  0  0
  186.3280  177.3110  142.6510 C   0  0  0  0  0  0  0  0  0  0  0  0
  186.5720  177.4620  145.1650 C   0  0  0  0  0  2  0  0  0  0  0  0
  185.6460  176.9890  146.2700 C   0  0  0  0  0  2  0  0  0  0  0  0
  186.6720  178.5240  147.9830 N   0  0  0  0  0  1  0  0  0  0  0  0
  185.5160  178.0480  147.3060 C   0  0  0  0  0  0  0  0  0  0  0  0
  184.3890  178.5440  147.5630 O   0  0  0  0  0  0  0  0  0  0  0  0
  189.3190  171.8740  143.3680 C   0  0  0  0  0  3  0  0  0  0  0  0
  189.8430  173.8790  144.6310 C   0  0  0  0  0  0  0  0  0  0  0  0
  188.9610  174.0570  142.3640 C   0  0  0  0  0  0  0  0  0  0  0  0
  189.4320  174.6580  143.5400 C   0  0  0  0  0  3  0  0  0  0  0  0
  188.9180  172.6580  142.2840 C   0  0  0  0  0  3  0  0  0  0  0  0
  189.7790  172.4830  144.5380 C   0  0  0  0  0  3  0  0  0  0  0  0
  189.5380  174.9350  146.7280 O   0  0  0  0  0  0  0  0  0  0  0  0
  190.3490  174.5160  145.8560 C   0  0  0  0  0  0  0  0  0  0  0  0
  191.7330  174.6560  146.0440 O   0  0  0  0  0  0  0  0  0  0  0  0
  194.5340  177.1770  145.9580 C   0  0  0  0  0  2  0  0  0  0  0  0
  194.3380  175.8090  143.8460 C   0  0  0  0  0  3  0  0  0  0  0  0
  191.6680  176.8280  145.3200 O   0  0  0  0  0  1  0  0  0  0  0  0
  192.5140  175.7400  145.5370 C   0  0  1  0  0  0  0  0  0  0  0  0
  195.0940  176.6630  144.7110 N   0  0  0  0  0  2  0  0  0  0  0  0
  193.5840  176.1470  146.5650 C   0  0  0  0  0  2  0  0  0  0  0  0
  193.1400  175.3530  144.2180 C   0  0  0  0  0  3  0  0  0  0  0  0
  1  9  1  0  0  0  0
  2  1  1  0  0  0  0
  2 19  1  0  0  0  0
  3  2  2  0  0  0  0
  5  7  2  0  0  0  0
  6  5  1  0  0  0  0
  7  4  1  0  0  0  0
  8  4  2  0  0  0  0
  8 12  1  0  0  0  0
  9 11  1  0  0  0  0
 10  5  1  0  0  0  0
 10 11  2  0  0  0  0
 11  8  1  0  0  0  0
 12 13  1  0  0  0  0
 13 15  1  0  0  0  0
 15 16  2  0  0  0  0
 15 14  1  0  0  0  0
 17 22  1  0  0  0  0
 18 24  1  0  0  0  0
 19 20  2  0  0  0  0
 20 18  1  0  0  0  0
 21 19  1  0  0  0  0
 21 17  2  0  0  0  0
 22 18  2  0  0  0  0
 24 25  1  0  0  0  0
 24 23  2  0  0  0  0
 26 31  1  0  0  0  0
 27 32  2  0  0  0  0
 27 30  1  0  0  0  0
 29 28  1  6  0  0  0
 29 25  1  0  0  0  0
 29 31  1  0  0  0  0
 30 26  1  0  0  0  0
 32 29  1  0  0  0  0
M  END
>  <MODEL>
1

>  <REMARK>
 VINA RESULT:      -7.8      0.000      0.000
  Name = 
  8 active torsions:
  status: ('A' for Active; 'I' for Inactive)
    1  A    between atoms: O_4  and  C_21
    2  A    between atoms: O_4  and  C_23
    3  A    between atoms: N_6  and  N_24
    4  A    between atoms: C_7  and  C_17
    5  A    between atoms: C_10  and  C_15
    6  A    between atoms: C_14  and  C_21
    7  A    between atoms: C_17  and  C_18
    8  A    between atoms: C_18  and  C_20
                            x       y       z     vdW  Elec       q    Type
                         _______ _______ _______ _____ _____    ______ ____

>  <TORSDO>
F 8

$$$$
=
 OpenBabel11062419063D

 32 34  0  0  1  0  0  0  0  0999 V2000
  191.6090  172.2920  144.4940 N   0  0  0  0  0  0  0  0  0  0  0  0
  190.2390  172.6980  144.4210 C   0  0  0  0  0  0  0  0  0  0  0  0
  189.4220  171.9570  143.8110 O   0  0  0  0  0  0  0  0  0  0  0  0
  196.2430  173.1970  145.7300 C   0  0  0  0  0  3  0  0  0  0  0  0
  195.3700  170.9540  145.8020 C   0  0  0  0  0  0  0  0  0  0  0  0
  195.5500  169.5650  146.0430 N   0  0  0  0  0  1  0  0  0  0  0  0
  196.4370  171.8360  145.9720 C   0  0  0  0  0  3  0  0  0  0  0  0
  194.9910  173.6630  145.3220 C   0  0  0  0  0  0  0  0  0  0  0  0
  192.6400  173.1980  144.7780 N   0  0  0  0  0  0  0  0  0  0  0  0
  194.1540  171.4220  145.4100 N   0  0  0  0  0  0  0  0  0  0  0  0
  193.9370  172.7460  145.1720 C   0  0  0  0  0  0  0  0  0  0  0  0
  194.8060  175.1200  145.0520 C   0  0  0  0  0  2  0  0  0  0  0  0
  194.4980  175.8630  146.3390 C   0  0  0  0  0  2  0  0  0  0  0  0
  192.6370  176.9970  145.0740 N   0  0  0  0  0  1  0  0  0  0  0  0
  193.1200  176.4190  146.2810 C   0  0  0  0  0  0  0  0  0  0  0  0
  192.3700  176.3530  147.2890 O   0  0  0  0  0  0  0  0  0  0  0  0
  189.1220  175.1840  147.0410 C   0  0  0  0  0  3  0  0  0  0  0  0
  189.1260  176.2970  144.8850 C   0  0  0  0  0  0  0  0  0  0  0  0
  189.7560  173.9460  145.0480 C   0  0  0  0  0  0  0  0  0  0  0  0
  189.5490  175.1030  144.2820 C   0  0  0  0  0  3  0  0  0  0  0  0
  189.5500  174.0000  146.4340 C   0  0  0  0  0  3  0  0  0  0  0  0
  188.9100  176.3280  146.2670 C   0  0  0  0  0  3  0  0  0  0  0  0
  189.9130  178.0880  143.5510 O   0  0  0  0  0  0  0  0  0  0  0  0
  188.9230  177.5090  144.0770 C   0  0  0  0  0  0  0  0  0  0  0  0
  187.6260  178.0150  143.9000 O   0  0  0  0  0  0  0  0  0  0  0  0
  184.7940  178.2080  141.4190 C   0  0  0  0  0  2  0  0  0  0  0  0
  186.9120  177.2210  140.4650 C   0  0  0  0  0  3  0  0  0  0  0  0
  186.0180  176.4460  143.4550 O   0  0  0  0  0  1  0  0  0  0  0  0
  186.6980  177.5430  142.9220 C   0  0  1  0  0  0  0  0  0  0  0  0
  185.6300  177.8340  140.2820 N   0  0  0  0  0  2  0  0  0  0  0  0
  185.6730  178.6410  142.5910 C   0  0  0  0  0  2  0  0  0  0  0  0
  187.4360  177.0900  141.6850 C   0  0  0  0  0  3  0  0  0  0  0  0
  1  9  2  0  0  0  0
  2  1  1  0  0  0  0
  2 19  1  0  0  0  0
  3  2  2  0  0  0  0
  4  7  1  0  0  0  0
  5  7  2  0  0  0  0
  5  6  1  0  0  0  0
  8  4  2  0  0  0  0
  9 11  1  0  0  0  0
 10  5  1  0  0  0  0
 11  8  1  0  0  0  0
 11 10  2  0  0  0  0
 12  8  1  0  0  0  0
 12 13  1  0  0  0  0
 14 15  1  0  0  0  0
 15 13  1  0  0  0  0
 15 16  2  0  0  0  0
 18 22  1  0  0  0  0
 19 21  2  0  0  0  0
 20 18  2  0  0  0  0
 20 19  1  0  0  0  0
 21 17  1  0  0  0  0
 22 17  2  0  0  0  0
 23 24  2  0  0  0  0
 24 18  1  0  0  0  0
 25 24  1  0  0  0  0
 26 31  1  0  0  0  0
 27 32  2  0  0  0  0
 29 28  1  1  0  0  0
 29 25  1  0  0  0  0
 30 27  1  0  0  0  0
 30 26  1  0  0  0  0
 31 29  1  0  0  0  0
 32 29  1  0  0  0  0
M  END
>  <MODEL>
2

>  <REMARK>
 VINA RESULT:      -7.7      3.202      8.343
  Name = 
  8 active torsions:
  status: ('A' for Active; 'I' for Inactive)
    1  A    between atoms: O_4  and  C_21
    2  A    between atoms: O_4  and  C_23
    3  A    between atoms: N_6  and  N_24
    4  A    between atoms: C_7  and  C_17
    5  A    between atoms: C_10  and  C_15
    6  A    between atoms: C_14  and  C_21
    7  A    between atoms: C_17  and  C_18
    8  A    between atoms: C_18  and  C_20
                            x       y       z     vdW  Elec       q    Type
                         _______ _______ _______ _____ _____    ______ ____

>  <TORSDO>
F 8

$$$$
=
 OpenBabel11062419063D

 32 34  0  0  1  0  0  0  0  0999 V2000
  187.9650  175.9280  140.9710 N   0  0  0  0  0  2  0  0  0  0  0  0
  188.5300  174.6320  140.7470 C   0  0  0  0  0  0  0  0  0  0  0  0
  188.5110  174.1600  139.5790 O   0  0  0  0  0  0  0  0  0  0  0  0
  184.7130  178.0560  143.9230 C   0  0  0  0  0  3  0  0  0  0  0  0
  184.4140  178.1000  141.5350 C   0  0  0  0  0  0  0  0  0  0  0  0
  183.6560  178.4720  140.3900 N   0  0  0  0  0  1  0  0  0  0  0  0
  183.9570  178.4310  142.8110 C   0  0  0  0  0  3  0  0  0  0  0  0
  185.9100  177.3590  143.7520 C   0  0  0  0  0  0  0  0  0  0  0  0
  187.5760  176.3610  142.2460 N   0  0  0  0  0  2  0  0  0  0  0  0
  185.5850  177.4250  141.3820 N   0  0  0  0  0  0  0  0  0  0  0  0
  186.3430  177.0520  142.4510 C   0  0  0  0  0  0  0  0  0  0  0  0
  186.6970  176.9530  144.9550 C   0  0  0  0  0  2  0  0  0  0  0  0
  185.7770  176.7310  146.1410 C   0  0  0  0  0  2  0  0  0  0  0  0
  184.7890  178.5850  147.5320 N   0  0  0  0  0  1  0  0  0  0  0  0
  185.9300  177.8470  147.1120 C   0  0  0  0  0  0  0  0  0  0  0  0
  187.0640  178.1200  147.5860 O   0  0  0  0  0  0  0  0  0  0  0  0
  189.1090  171.9070  143.3020 C   0  0  0  0  0  3  0  0  0  0  0  0
  190.9710  173.4590  143.4060 C   0  0  0  0  0  0  0  0  0  0  0  0
  189.1430  173.8460  141.8380 C   0  0  0  0  0  0  0  0  0  0  0  0
  190.3720  174.2260  142.3960 C   0  0  0  0  0  3  0  0  0  0  0  0
  188.5220  172.6730  142.2920 C   0  0  0  0  0  3  0  0  0  0  0  0
  190.3290  172.3000  143.8580 C   0  0  0  0  0  3  0  0  0  0  0  0
  193.1190  172.9760  144.2780 O   0  0  0  0  0  0  0  0  0  0  0  0
  192.2660  173.8570  143.9780 C   0  0  0  0  0  0  0  0  0  0  0  0
  192.5430  175.2160  144.1880 O   0  0  0  0  0  0  0  0  0  0  0  0
  190.1940  177.3910  146.1780 C   0  0  0  0  0  2  0  0  0  0  0  0
  190.8990  175.2910  147.3870 C   0  0  0  0  0  3  0  0  0  0  0  0
  193.0610  176.9080  145.6410 O   0  0  0  0  0  1  0  0  0  0  0  0
  192.0800  175.9740  145.3070 C   0  0  1  0  0  0  0  0  0  0  0  0
  190.0030  176.3970  147.2300 N   0  0  0  0  0  2  0  0  0  0  0  0
  190.7910  176.7280  144.9380 C   0  0  0  0  0  2  0  0  0  0  0  0
  191.8640  175.0650  146.4930 C   0  0  0  0  0  3  0  0  0  0  0  0
  1  9  1  0  0  0  0
  2  1  1  0  0  0  0
  2 19  1  0  0  0  0
  3  2  2  0  0  0  0
  5  7  2  0  0  0  0
  6  5  1  0  0  0  0
  7  4  1  0  0  0  0
  8  4  2  0  0  0  0
  8 12  1  0  0  0  0
  9 11  1  0  0  0  0
 10  5  1  0  0  0  0
 10 11  2  0  0  0  0
 11  8  1  0  0  0  0
 12 13  1  0  0  0  0
 13 15  1  0  0  0  0
 15 14  1  0  0  0  0
 15 16  2  0  0  0  0
 17 22  1  0  0  0  0
 18 22  2  0  0  0  0
 18 24  1  0  0  0  0
 19 21  1  0  0  0  0
 19 20  2  0  0  0  0
 20 18  1  0  0  0  0
 21 17  2  0  0  0  0
 24 25  1  0  0  0  0
 24 23  2  0  0  0  0
 25 29  1  0  0  0  0
 26 30  1  0  0  0  0
 29 28  1  1  0  0  0
 29 32  1  0  0  0  0
 30 27  1  0  0  0  0
 31 29  1  0  0  0  0
 31 26  1  0  0  0  0
 32 27  2  0  0  0  0
M  END
>  <MODEL>
3

>  <REMARK>
 VINA RESULT:      -7.7      1.761      2.169
  Name = 
  8 active torsions:
  status: ('A' for Active; 'I' for Inactive)
    1  A    between atoms: O_4  and  C_21
    2  A    between atoms: O_4  and  C_23
    3  A    between atoms: N_6  and  N_24
    4  A    between atoms: C_7  and  C_17
    5  A    between atoms: C_10  and  C_15
    6  A    between atoms: C_14  and  C_21
    7  A    between atoms: C_17  and  C_18
    8  A    between atoms: C_18  and  C_20
                            x       y       z     vdW  Elec       q    Type
                         _______ _______ _______ _____ _____    ______ ____

>  <TORSDO>
F 8

$$$$
=
 OpenBabel11062419063D

 32 34  0  0  1  0  0  0  0  0999 V2000
  188.7550  175.6590  146.7320 N   0  0  0  0  0  2  0  0  0  0  0  0
  190.0590  176.2470  146.6770 C   0  0  0  0  0  0  0  0  0  0  0  0
  190.6920  176.4110  147.7540 O   0  0  0  0  0  0  0  0  0  0  0  0
  185.1770  178.1510  144.5400 C   0  0  0  0  0  3  0  0  0  0  0  0
  185.9500  178.7860  146.7290 C   0  0  0  0  0  0  0  0  0  0  0  0
  185.8940  179.6480  147.8590 N   0  0  0  0  0  1  0  0  0  0  0  0
  185.1070  179.0060  145.6410 C   0  0  0  0  0  3  0  0  0  0  0  0
  186.0830  177.0890  144.5360 C   0  0  0  0  0  0  0  0  0  0  0  0
  187.8300  175.8000  145.6880 N   0  0  0  0  0  2  0  0  0  0  0  0
  186.8250  177.7440  146.7150 N   0  0  0  0  0  0  0  0  0  0  0  0
  186.9100  176.8920  145.6550 C   0  0  0  0  0  0  0  0  0  0  0  0
  186.1550  176.1940  143.3430 C   0  0  0  0  0  2  0  0  0  0  0  0
  186.4480  177.0000  142.0910 C   0  0  0  0  0  2  0  0  0  0  0  0
  188.7380  175.9510  142.1120 N   0  0  0  0  0  1  0  0  0  0  0  0
  187.9170  177.0900  141.8820 C   0  0  0  0  0  0  0  0  0  0  0  0
  188.4330  178.1630  141.4740 O   0  0  0  0  0  0  0  0  0  0  0  0
  191.0370  178.3270  143.6760 C   0  0  0  0  0  3  0  0  0  0  0  0
  192.1930  176.1990  143.5390 C   0  0  0  0  0  0  0  0  0  0  0  0
  190.6830  176.6520  145.4000 C   0  0  0  0  0  0  0  0  0  0  0  0
  191.5740  175.7990  144.7320 C   0  0  0  0  0  3  0  0  0  0  0  0
  190.4290  177.9240  144.8680 C   0  0  0  0  0  3  0  0  0  0  0  0
  191.9160  177.4660  143.0140 C   0  0  0  0  0  3  0  0  0  0  0  0
  192.7250  174.2190  142.3530 O   0  0  0  0  0  0  0  0  0  0  0  0
  193.1360  175.3040  142.8520 C   0  0  0  0  0  0  0  0  0  0  0  0
  194.4890  175.6630  142.7560 O   0  0  0  0  0  0  0  0  0  0  0  0
  196.1670  174.2430  145.8200 C   0  0  0  0  0  2  0  0  0  0  0  0
  197.7680  174.7760  143.9430 C   0  0  0  0  0  3  0  0  0  0  0  0
  195.3370  176.7880  144.5620 O   0  0  0  0  0  1  0  0  0  0  0  0
  195.4230  175.5990  143.8370 C   0  0  1  0  0  0  0  0  0  0  0  0
  197.4630  174.0940  145.1650 N   0  0  0  0  0  2  0  0  0  0  0  0
  195.0720  174.4280  144.7700 C   0  0  0  0  0  2  0  0  0  0  0  0
  196.8280  175.4700  143.2990 C   0  0  0  0  0  3  0  0  0  0  0  0
  2  1  1  0  0  0  0
  2  3  2  0  0  0  0
  4  7  1  0  0  0  0
  5  6  1  0  0  0  0
  7  5  2  0  0  0  0
  8  4  2  0  0  0  0
  8 11  1  0  0  0  0
  9  1  1  0  0  0  0
 10  5  1  0  0  0  0
 11  9  1  0  0  0  0
 11 10  2  0  0  0  0
 12  8  1  0  0  0  0
 13 12  1  0  0  0  0
 15 13  1  0  0  0  0
 15 14  1  0  0  0  0
 16 15  2  0  0  0  0
 17 21  1  0  0  0  0
 18 20  2  0  0  0  0
 19  2  1  0  0  0  0
 20 19  1  0  0  0  0
 21 19  2  0  0  0  0
 22 18  1  0  0  0  0
 22 17  2  0  0  0  0
 23 24  2  0  0  0  0
 24 18  1  0  0  0  0
 25 24  1  0  0  0  0
 25 29  1  0  0  0  0
 27 30  1  0  0  0  0
 29 28  1  1  0  0  0
 29 31  1  0  0  0  0
 30 26  1  0  0  0  0
 31 26  1  0  0  0  0
 32 29  1  0  0  0  0
 32 27  2  0  0  0  0
M  END
>  <MODEL>
4

>  <REMARK>
 VINA RESULT:      -7.7      2.916      4.829
  Name = 
  8 active torsions:
  status: ('A' for Active; 'I' for Inactive)
    1  A    between atoms: O_4  and  C_21
    2  A    between atoms: O_4  and  C_23
    3  A    between atoms: N_6  and  N_24
    4  A    between atoms: C_7  and  C_17
    5  A    between atoms: C_10  and  C_15
    6  A    between atoms: C_14  and  C_21
    7  A    between atoms: C_17  and  C_18
    8  A    between atoms: C_18  and  C_20
                            x       y       z     vdW  Elec       q    Type
                         _______ _______ _______ _____ _____    ______ ____

>  <TORSDO>
F 8

$$$$
=
 OpenBabel11062419063D

 32 34  0  0  1  0  0  0  0  0999 V2000
  188.2200  176.6630  142.0370 N   0  0  0  0  0  2  0  0  0  0  0  0
  189.0390  175.4900  142.0800 C   0  0  0  0  0  0  0  0  0  0  0  0
  189.1480  174.7930  141.0360 O   0  0  0  0  0  0  0  0  0  0  0  0
  184.5330  178.6780  144.5200 C   0  0  0  0  0  3  0  0  0  0  0  0
  184.3050  178.1780  142.1760 C   0  0  0  0  0  0  0  0  0  0  0  0
  183.5260  178.1560  140.9870 N   0  0  0  0  0  1  0  0  0  0  0  0
  183.7550  178.6660  143.3610 C   0  0  0  0  0  3  0  0  0  0  0  0
  185.8460  178.2060  144.4850 C   0  0  0  0  0  0  0  0  0  0  0  0
  187.7170  177.2630  143.2000 N   0  0  0  0  0  2  0  0  0  0  0  0
  185.5870  177.7250  142.1550 N   0  0  0  0  0  0  0  0  0  0  0  0
  186.3700  177.7310  143.2700 C   0  0  0  0  0  0  0  0  0  0  0  0
  186.6590  178.2120  145.7380 C   0  0  0  0  0  2  0  0  0  0  0  0
  186.6110  176.8510  146.4080 C   0  0  0  0  0  2  0  0  0  0  0  0
  189.0330  177.4090  146.8190 N   0  0  0  0  0  1  0  0  0  0  0  0
  187.9770  176.4570  146.8440 C   0  0  0  0  0  0  0  0  0  0  0  0
  188.1940  175.2900  147.2620 O   0  0  0  0  0  0  0  0  0  0  0  0
  190.2010  173.4390  145.0340 C   0  0  0  0  0  3  0  0  0  0  0  0
  191.4770  175.5020  144.9880 C   0  0  0  0  0  0  0  0  0  0  0  0
  189.7660  175.0850  143.3010 C   0  0  0  0  0  0  0  0  0  0  0  0
  190.7630  175.9040  143.8500 C   0  0  0  0  0  3  0  0  0  0  0  0
  189.4990  173.8440  143.8970 C   0  0  0  0  0  3  0  0  0  0  0  0
  191.1860  174.2670  145.5780 C   0  0  0  0  0  3  0  0  0  0  0  0
  192.4290  176.7900  146.7330 O   0  0  0  0  0  0  0  0  0  0  0  0
  192.5310  176.3610  145.5500 C   0  0  0  0  0  0  0  0  0  0  0  0
  193.6430  176.6990  144.7640 O   0  0  0  0  0  0  0  0  0  0  0  0
  196.2740  174.1670  145.7020 C   0  0  0  0  0  2  0  0  0  0  0  0
  195.0800  173.6350  143.5430 C   0  0  0  0  0  3  0  0  0  0  0  0
  195.8630  176.6830  144.2030 O   0  0  0  0  0  1  0  0  0  0  0  0
  194.7960  175.8730  144.5920 C   0  0  1  0  0  0  0  0  0  0  0  0
  195.8890  173.2280  144.6530 N   0  0  0  0  0  2  0  0  0  0  0  0
  195.1590  175.1880  145.9210 C   0  0  0  0  0  2  0  0  0  0  0  0
  194.5470  174.8580  143.5020 C   0  0  0  0  0  3  0  0  0  0  0  0
  1  2  1  0  0  0  0
  1  9  1  0  0  0  0
  2 19  1  0  0  0  0
  3  2  2  0  0  0  0
  5  7  2  0  0  0  0
  6  5  1  0  0  0  0
  7  4  1  0  0  0  0
  8  4  2  0  0  0  0
  8 12  1  0  0  0  0
  9 11  1  0  0  0  0
 10  5  1  0  0  0  0
 10 11  2  0  0  0  0
 11  8  1  0  0  0  0
 12 13  1  0  0  0  0
 13 15  1  0  0  0  0
 14 15  1  0  0  0  0
 15 16  2  0  0  0  0
 17 22  1  0  0  0  0
 18 24  1  0  0  0  0
 18 22  2  0  0  0  0
 19 20  2  0  0  0  0
 19 21  1  0  0  0  0
 20 18  1  0  0  0  0
 21 17  2  0  0  0  0
 24 23  2  0  0  0  0
 25 24  1  0  0  0  0
 26 31  1  0  0  0  0
 27 30  1  0  0  0  0
 29 28  1  6  0  0  0
 29 25  1  0  0  0  0
 29 31  1  0  0  0  0
 30 26  1  0  0  0  0
 32 27  2  0  0  0  0
 32 29  1  0  0  0  0
M  END
>  <MODEL>
5

>  <REMARK>
 VINA RESULT:      -7.6      1.697      2.308
  Name = 
  8 active torsions:
  status: ('A' for Active; 'I' for Inactive)
    1  A    between atoms: O_4  and  C_21
    2  A    between atoms: O_4  and  C_23
    3  A    between atoms: N_6  and  N_24
    4  A    between atoms: C_7  and  C_17
    5  A    between atoms: C_10  and  C_15
    6  A    between atoms: C_14  and  C_21
    7  A    between atoms: C_17  and  C_18
    8  A    between atoms: C_18  and  C_20
                            x       y       z     vdW  Elec       q    Type
                         _______ _______ _______ _____ _____    ______ ____

>  <TORSDO>
F 8

$$$$
=
 OpenBabel11062419063D

 32 34  0  0  1  0  0  0  0  0999 V2000
  186.3240  178.0730  145.3740 N   0  0  0  0  0  0  0  0  0  0  0  0
  187.1370  177.8670  146.5340 C   0  0  0  0  0  0  0  0  0  0  0  0
  186.8290  178.4620  147.6000 O   0  0  0  0  0  0  0  0  0  0  0  0
  185.6020  177.9160  140.5510 C   0  0  0  0  0  3  0  0  0  0  0  0
  183.7700  178.3480  142.0510 C   0  0  0  0  0  0  0  0  0  0  0  0
  182.3950  178.6340  142.2730 N   0  0  0  0  0  1  0  0  0  0  0  0
  184.2490  178.1950  140.7500 C   0  0  0  0  0  3  0  0  0  0  0  0
  186.4600  177.7920  141.6450 C   0  0  0  0  0  0  0  0  0  0  0  0
  186.7880  177.7990  144.0810 N   0  0  0  0  0  0  0  0  0  0  0  0
  184.6150  178.2200  143.1090 N   0  0  0  0  0  0  0  0  0  0  0  0
  185.9390  177.9430  142.9420 C   0  0  0  0  0  0  0  0  0  0  0  0
  187.9070  177.5090  141.4110 C   0  0  0  0  0  2  0  0  0  0  0  0
  188.1380  176.0170  141.2570 C   0  0  0  0  0  2  0  0  0  0  0  0
  188.4600  174.8430  143.4630 N   0  0  0  0  0  1  0  0  0  0  0  0
  189.0200  175.5290  142.3500 C   0  0  0  0  0  0  0  0  0  0  0  0
  190.2660  175.6960  142.2780 O   0  0  0  0  0  0  0  0  0  0  0  0
  189.2990  174.7980  146.9820 C   0  0  0  0  0  3  0  0  0  0  0  0
  190.6310  176.5210  145.9120 C   0  0  0  0  0  0  0  0  0  0  0  0
  188.3110  176.9690  146.5180 C   0  0  0  0  0  0  0  0  0  0  0  0
  189.5290  177.3860  145.9590 C   0  0  0  0  0  3  0  0  0  0  0  0
  188.2040  175.6640  147.0190 C   0  0  0  0  0  3  0  0  0  0  0  0
  190.5100  175.2270  146.4310 C   0  0  0  0  0  3  0  0  0  0  0  0
  191.8970  177.5650  144.2040 O   0  0  0  0  0  0  0  0  0  0  0  0
  191.9000  176.9610  145.3120 C   0  0  0  0  0  0  0  0  0  0  0  0
  193.1080  176.7030  145.9780 O   0  0  0  0  0  0  0  0  0  0  0  0
  194.7490  174.0760  143.8280 C   0  0  0  0  0  2  0  0  0  0  0  0
  195.8040  176.3590  143.6210 C   0  0  0  0  0  3  0  0  0  0  0  0
  194.8530  175.3170  146.5100 O   0  0  0  0  0  1  0  0  0  0  0  0
  194.1740  175.9130  145.4460 C   0  0  1  0  0  0  0  0  0  0  0  0
  195.5850  175.0370  143.1150 N   0  0  0  0  0  2  0  0  0  0  0  0
  193.6110  174.8050  144.5410 C   0  0  0  0  0  2  0  0  0  0  0  0
  195.1450  176.7940  144.6960 C   0  0  0  0  0  3  0  0  0  0  0  0
  1  2  1  0  0  0  0
  2  3  2  0  0  0  0
  4  7  1  0  0  0  0
  4  8  2  0  0  0  0
  5  6  1  0  0  0  0
  5 10  1  0  0  0  0
  7  5  2  0  0  0  0
  8 11  1  0  0  0  0
  9  1  2  0  0  0  0
 11 10  2  0  0  0  0
 11  9  1  0  0  0  0
 12  8  1  0  0  0  0
 13 12  1  0  0  0  0
 13 15  1  0  0  0  0
 15 14  1  0  0  0  0
 16 15  2  0  0  0  0
 17 21  1  0  0  0  0
 18 20  2  0  0  0  0
 18 22  1  0  0  0  0
 19  2  1  0  0  0  0
 19 21  2  0  0  0  0
 20 19  1  0  0  0  0
 22 17  2  0  0  0  0
 23 24  2  0  0  0  0
 24 18  1  0  0  0  0
 24 25  1  0  0  0  0
 26 31  1  0  0  0  0
 27 32  2  0  0  0  0
 29 25  1  0  0  0  0
 29 28  1  1  0  0  0
 30 27  1  0  0  0  0
 30 26  1  0  0  0  0
 31 29  1  0  0  0  0
 32 29  1  0  0  0  0
M  END
>  <MODEL>
6

>  <REMARK>
 VINA RESULT:      -7.6      2.104      4.237
  Name = 
  8 active torsions:
  status: ('A' for Active; 'I' for Inactive)
    1  A    between atoms: O_4  and  C_21
    2  A    between atoms: O_4  and  C_23
    3  A    between atoms: N_6  and  N_24
    4  A    between atoms: C_7  and  C_17
    5  A    between atoms: C_10  and  C_15
    6  A    between atoms: C_14  and  C_21
    7  A    between atoms: C_17  and  C_18
    8  A    between atoms: C_18  and  C_20
                            x       y       z     vdW  Elec       q    Type
                         _______ _______ _______ _____ _____    ______ ____

>  <TORSDO>
F 8

$$$$
=
 OpenBabel11062419063D

 32 34  0  0  1  0  0  0  0  0999 V2000
  192.1370  173.6670  143.0880 N   0  0  0  0  0  2  0  0  0  0  0  0
  191.0550  174.4690  142.6050 C   0  0  0  0  0  0  0  0  0  0  0  0
  190.4980  174.1420  141.5230 O   0  0  0  0  0  0  0  0  0  0  0  0
  196.1570  176.2170  144.1640 C   0  0  0  0  0  3  0  0  0  0  0  0
  195.5650  175.7700  141.8740 C   0  0  0  0  0  0  0  0  0  0  0  0
  195.8220  175.9040  140.4820 N   0  0  0  0  0  1  0  0  0  0  0  0
  196.4260  176.3570  142.8010 C   0  0  0  0  0  3  0  0  0  0  0  0
  195.0380  175.4970  144.5860 C   0  0  0  0  0  0  0  0  0  0  0  0
  193.0600  174.1490  144.0260 N   0  0  0  0  0  2  0  0  0  0  0  0
  194.4810  175.0660  142.2980 N   0  0  0  0  0  0  0  0  0  0  0  0
  194.1990  174.9110  143.6220 C   0  0  0  0  0  0  0  0  0  0  0  0
  194.7580  175.3720  146.0470 C   0  0  0  0  0  2  0  0  0  0  0  0
  193.8650  176.5060  146.5160 C   0  0  0  0  0  2  0  0  0  0  0  0
  191.6930  176.8010  147.7570 N   0  0  0  0  0  1  0  0  0  0  0  0
  192.5890  175.9560  147.0460 C   0  0  0  0  0  0  0  0  0  0  0  0
  192.2870  174.7520  146.8410 O   0  0  0  0  0  0  0  0  0  0  0  0
  190.5200  178.0630  143.6480 C   0  0  0  0  0  3  0  0  0  0  0  0
  189.1410  176.6470  145.0540 C   0  0  0  0  0  0  0  0  0  0  0  0
  190.5660  175.6530  143.3430 C   0  0  0  0  0  0  0  0  0  0  0  0
  189.6310  175.5200  144.3790 C   0  0  0  0  0  3  0  0  0  0  0  0
  190.9980  176.9350  142.9760 C   0  0  0  0  0  3  0  0  0  0  0  0
  189.5950  177.9180  144.6850 C   0  0  0  0  0  3  0  0  0  0  0  0
  188.1670  175.4740  146.8670 O   0  0  0  0  0  0  0  0  0  0  0  0
  188.1500  176.5000  146.1310 C   0  0  0  0  0  0  0  0  0  0  0  0
  187.1900  177.5040  146.3320 O   0  0  0  0  0  0  0  0  0  0  0  0
  184.0780  179.0140  144.8340 C   0  0  0  0  0  2  0  0  0  0  0  0
  185.1950  177.3110  143.3440 C   0  0  0  0  0  3  0  0  0  0  0  0
  185.0280  176.7700  146.5090 O   0  0  0  0  0  1  0  0  0  0  0  0
  185.8980  177.5230  145.7210 C   0  0  1  0  0  0  0  0  0  0  0  0
  184.2920  178.4080  143.5240 N   0  0  0  0  0  2  0  0  0  0  0  0
  185.3700  178.9660  145.6470 C   0  0  0  0  0  2  0  0  0  0  0  0
  185.9650  176.8930  144.3500 C   0  0  0  0  0  3  0  0  0  0  0  0
  1  9  1  0  0  0  0
  2  1  1  0  0  0  0
  2 19  1  0  0  0  0
  3  2  2  0  0  0  0
  4  8  2  0  0  0  0
  5 10  1  0  0  0  0
  5  7  2  0  0  0  0
  6  5  1  0  0  0  0
  7  4  1  0  0  0  0
  8 12  1  0  0  0  0
 10 11  2  0  0  0  0
 11  9  1  0  0  0  0
 11  8  1  0  0  0  0
 12 13  1  0  0  0  0
 13 15  1  0  0  0  0
 15 14  1  0  0  0  0
 16 15  2  0  0  0  0
 17 22  1  0  0  0  0
 18 24  1  0  0  0  0
 19 20  2  0  0  0  0
 20 18  1  0  0  0  0
 21 19  1  0  0  0  0
 21 17  2  0  0  0  0
 22 18  2  0  0  0  0
 24 25  1  0  0  0  0
 24 23  2  0  0  0  0
 26 31  1  0  0  0  0
 27 30  1  0  0  0  0
 27 32  2  0  0  0  0
 29 25  1  0  0  0  0
 29 28  1  1  0  0  0
 30 26  1  0  0  0  0
 31 29  1  0  0  0  0
 32 29  1  0  0  0  0
M  END
>  <MODEL>
7

>  <REMARK>
 VINA RESULT:      -7.5      2.415      7.713
  Name = 
  8 active torsions:
  status: ('A' for Active; 'I' for Inactive)
    1  A    between atoms: O_4  and  C_21
    2  A    between atoms: O_4  and  C_23
    3  A    between atoms: N_6  and  N_24
    4  A    between atoms: C_7  and  C_17
    5  A    between atoms: C_10  and  C_15
    6  A    between atoms: C_14  and  C_21
    7  A    between atoms: C_17  and  C_18
    8  A    between atoms: C_18  and  C_20
                            x       y       z     vdW  Elec       q    Type
                         _______ _______ _______ _____ _____    ______ ____

>  <TORSDO>
F 8

$$$$
=
 OpenBabel11062419063D

 32 34  0  0  1  0  0  0  0  0999 V2000
  188.9250  174.7940  143.1280 N   0  0  0  0  0  0  0  0  0  0  0  0
  189.9290  174.1060  143.8810 C   0  0  0  0  0  0  0  0  0  0  0  0
  190.2650  172.9470  143.5200 O   0  0  0  0  0  0  0  0  0  0  0  0
  185.7980  178.4970  142.5590 C   0  0  0  0  0  3  0  0  0  0  0  0
  186.6410  177.2990  140.6480 C   0  0  0  0  0  0  0  0  0  0  0  0
  186.6830  177.0860  139.2430 N   0  0  0  0  0  1  0  0  0  0  0  0
  185.8290  178.3030  141.1770 C   0  0  0  0  0  3  0  0  0  0  0  0
  186.5730  177.6920  143.3960 C   0  0  0  0  0  0  0  0  0  0  0  0
  188.2080  175.8760  143.6560 N   0  0  0  0  0  0  0  0  0  0  0  0
  187.3950  176.5260  141.4750 N   0  0  0  0  0  0  0  0  0  0  0  0
  187.3870  176.6980  142.8260 C   0  0  0  0  0  0  0  0  0  0  0  0
  186.5150  177.9050  144.8730 C   0  0  0  0  0  2  0  0  0  0  0  0
  185.2460  177.3010  145.4460 C   0  0  0  0  0  2  0  0  0  0  0  0
  184.8920  178.4940  147.6360 N   0  0  0  0  0  1  0  0  0  0  0  0
  184.5360  178.3140  146.2710 C   0  0  0  0  0  0  0  0  0  0  0  0
  183.6400  179.0320  145.7560 O   0  0  0  0  0  0  0  0  0  0  0  0
  190.6600  175.1080  147.4520 C   0  0  0  0  0  3  0  0  0  0  0  0
  192.4330  175.9710  146.0380 C   0  0  0  0  0  0  0  0  0  0  0  0
  190.5860  174.7190  145.0550 C   0  0  0  0  0  0  0  0  0  0  0  0
  191.7920  175.4210  144.9190 C   0  0  0  0  0  3  0  0  0  0  0  0
  190.0320  174.5570  146.3320 C   0  0  0  0  0  3  0  0  0  0  0  0
  191.8570  175.8140  147.3040 C   0  0  0  0  0  3  0  0  0  0  0  0
  194.2650  177.1980  146.9030 O   0  0  0  0  0  0  0  0  0  0  0  0
  193.7050  176.6950  145.8900 C   0  0  0  0  0  0  0  0  0  0  0  0
  194.2850  176.8250  144.6180 O   0  0  0  0  0  0  0  0  0  0  0  0
  196.7970  174.0140  144.6210 C   0  0  0  0  0  2  0  0  0  0  0  0
  195.4080  174.1290  142.5170 C   0  0  0  0  0  3  0  0  0  0  0  0
  196.4500  176.8530  143.8720 O   0  0  0  0  0  1  0  0  0  0  0  0
  195.3610  176.0200  144.1330 C   0  0  1  0  0  0  0  0  0  0  0  0
  196.2690  173.4050  143.4040 N   0  0  0  0  0  2  0  0  0  0  0  0
  195.7750  174.9910  145.1990 C   0  0  0  0  0  2  0  0  0  0  0  0
  194.9600  175.3430  142.8440 C   0  0  0  0  0  3  0  0  0  0  0  0
  1  9  2  0  0  0  0
  1  2  1  0  0  0  0
  2 19  1  0  0  0  0
  3  2  2  0  0  0  0
  4  8  2  0  0  0  0
  5  7  2  0  0  0  0
  5 10  1  0  0  0  0
  6  5  1  0  0  0  0
  7  4  1  0  0  0  0
  8 12  1  0  0  0  0
 10 11  2  0  0  0  0
 11  8  1  0  0  0  0
 11  9  1  0  0  0  0
 12 13  1  0  0  0  0
 13 15  1  0  0  0  0
 15 14  1  0  0  0  0
 16 15  2  0  0  0  0
 18 22  2  0  0  0  0
 19 21  1  0  0  0  0
 20 19  2  0  0  0  0
 20 18  1  0  0  0  0
 21 17  2  0  0  0  0
 22 17  1  0  0  0  0
 24 18  1  0  0  0  0
 24 23  2  0  0  0  0
 25 24  1  0  0  0  0
 26 31  1  0  0  0  0
 27 32  2  0  0  0  0
 27 30  1  0  0  0  0
 29 28  1  6  0  0  0
 29 25  1  0  0  0  0
 29 31  1  0  0  0  0
 30 26  1  0  0  0  0
 32 29  1  0  0  0  0
M  END
>  <MODEL>
8

>  <REMARK>
 VINA RESULT:      -7.5      2.067      3.197
  Name = 
  8 active torsions:
  status: ('A' for Active; 'I' for Inactive)
    1  A    between atoms: O_4  and  C_21
    2  A    between atoms: O_4  and  C_23
    3  A    between atoms: N_6  and  N_24
    4  A    between atoms: C_7  and  C_17
    5  A    between atoms: C_10  and  C_15
    6  A    between atoms: C_14  and  C_21
    7  A    between atoms: C_17  and  C_18
    8  A    between atoms: C_18  and  C_20
                            x       y       z     vdW  Elec       q    Type
                         _______ _______ _______ _____ _____    ______ ____

>  <TORSDO>
F 8

$$$$
=
 OpenBabel11062419063D

 32 34  0  0  1  0  0  0  0  0999 V2000
  187.8610  175.2350  142.3850 N   0  0  0  0  0  2  0  0  0  0  0  0
  189.2660  175.0030  142.2390 C   0  0  0  0  0  0  0  0  0  0  0  0
  189.6510  174.1530  141.3920 O   0  0  0  0  0  0  0  0  0  0  0  0
  184.6280  178.2180  144.4980 C   0  0  0  0  0  3  0  0  0  0  0  0
  184.8570  178.1580  142.1030 C   0  0  0  0  0  0  0  0  0  0  0  0
  184.4620  178.6030  140.8120 N   0  0  0  0  0  1  0  0  0  0  0  0
  184.2290  178.6680  143.2390 C   0  0  0  0  0  3  0  0  0  0  0  0
  185.6450  177.2690  144.6120 C   0  0  0  0  0  0  0  0  0  0  0  0
  187.3210  175.8310  143.5330 N   0  0  0  0  0  2  0  0  0  0  0  0
  185.8500  177.2370  142.2280 N   0  0  0  0  0  0  0  0  0  0  0  0
  186.2620  176.7850  143.4460 C   0  0  0  0  0  0  0  0  0  0  0  0
  186.0480  176.7880  145.9680 C   0  0  0  0  0  2  0  0  0  0  0  0
  187.1290  177.6810  146.5480 C   0  0  0  0  0  2  0  0  0  0  0  0
  189.5970  177.5430  147.0330 N   0  0  0  0  0  1  0  0  0  0  0  0
  188.3590  176.8830  146.7980 C   0  0  0  0  0  0  0  0  0  0  0  0
  188.3010  175.6270  146.8310 O   0  0  0  0  0  0  0  0  0  0  0  0
  191.4200  177.8080  143.5710 C   0  0  0  0  0  3  0  0  0  0  0  0
  191.8960  175.8050  144.8550 C   0  0  0  0  0  0  0  0  0  0  0  0
  190.2690  175.7350  143.0380 C   0  0  0  0  0  0  0  0  0  0  0  0
  190.9700  175.0990  144.0730 C   0  0  0  0  0  3  0  0  0  0  0  0
  190.4940  177.0990  142.8020 C   0  0  0  0  0  3  0  0  0  0  0  0
  192.1190  177.1620  144.5940 C   0  0  0  0  0  3  0  0  0  0  0  0
  192.2610  175.3190  147.1440 O   0  0  0  0  0  0  0  0  0  0  0  0
  192.6170  175.1340  145.9470 C   0  0  0  0  0  0  0  0  0  0  0  0
  193.7000  174.2920  145.6480 O   0  0  0  0  0  0  0  0  0  0  0  0
  197.4350  174.1620  145.1550 C   0  0  0  0  0  2  0  0  0  0  0  0
  196.1500  174.6530  143.0390 C   0  0  0  0  0  3  0  0  0  0  0  0
  195.2140  176.0040  145.8020 O   0  0  0  0  0  1  0  0  0  0  0  0
  194.9910  174.7470  145.2380 C   0  0  1  0  0  0  0  0  0  0  0  0
  197.3470  174.2240  143.7000 N   0  0  0  0  0  2  0  0  0  0  0  0
  196.0770  173.7830  145.7430 C   0  0  0  0  0  2  0  0  0  0  0  0
  195.0360  174.8860  143.7350 C   0  0  0  0  0  3  0  0  0  0  0  0
  1  9  1  0  0  0  0
  2  1  1  0  0  0  0
  2 19  1  0  0  0  0
  3  2  2  0  0  0  0
  4  8  2  0  0  0  0
  5 10  1  0  0  0  0
  5  7  2  0  0  0  0
  6  5  1  0  0  0  0
  7  4  1  0  0  0  0
  8 12  1  0  0  0  0
 10 11  2  0  0  0  0
 11  9  1  0  0  0  0
 11  8  1  0  0  0  0
 12 13  1  0  0  0  0
 13 15  1  0  0  0  0
 15 16  2  0  0  0  0
 15 14  1  0  0  0  0
 17 22  1  0  0  0  0
 18 24  1  0  0  0  0
 19 20  2  0  0  0  0
 20 18  1  0  0  0  0
 21 19  1  0  0  0  0
 21 17  2  0  0  0  0
 22 18  2  0  0  0  0
 24 23  2  0  0  0  0
 25 24  1  0  0  0  0
 26 31  1  0  0  0  0
 27 30  1  0  0  0  0
 27 32  2  0  0  0  0
 29 25  1  0  0  0  0
 29 31  1  0  0  0  0
 29 28  1  1  0  0  0
 30 26  1  0  0  0  0
 32 29  1  0  0  0  0
M  END
>  <MODEL>
9

>  <REMARK>
 VINA RESULT:      -7.5      1.988      2.834
  Name = 
  8 active torsions:
  status: ('A' for Active; 'I' for Inactive)
    1  A    between atoms: O_4  and  C_21
    2  A    between atoms: O_4  and  C_23
    3  A    between atoms: N_6  and  N_24
    4  A    between atoms: C_7  and  C_17
    5  A    between atoms: C_10  and  C_15
    6  A    between atoms: C_14  and  C_21
    7  A    between atoms: C_17  and  C_18
    8  A    between atoms: C_18  and  C_20
                            x       y       z     vdW  Elec       q    Type
                         _______ _______ _______ _____ _____    ______ ____

>  <TORSDO>
F 8

$$$$
