=
 OpenBabel11062421563D

 37 41  0  0  1  0  0  0  0  0999 V2000
  190.3210  172.7050  144.1320 C   0  0  0  0  0  0  0  0  0  0  0  0
  188.1560  172.8200  141.4120 F   0  0  0  0  0  0  0  0  0  0  0  0
  189.4180  171.8680  143.2770 C   0  0  0  0  0  2  0  0  0  0  0  0
  192.2860  172.0700  142.7400 C   0  0  0  0  0  3  0  0  0  0  0  0
  190.4260  172.3650  141.0740 C   0  0  0  0  0  0  0  0  0  0  0  0
  189.3570  172.3930  141.8820 C   0  0  0  0  0  0  0  0  0  0  0  0
  191.6490  172.7510  143.8960 C   0  0  0  0  0  0  0  0  0  0  0  0
  191.7600  171.9080  141.5190 C   0  0  0  0  0  3  0  0  0  0  0  0
  189.2600  174.6710  145.1750 C   0  0  0  0  0  3  0  0  0  0  0  0
  189.7410  173.4360  145.2780 C   0  0  0  0  0  3  0  0  0  0  0  0
  188.6840  175.3690  146.3650 C   0  0  1  0  0  3  0  0  0  0  0  0
  189.2730  174.7550  147.6290 C   0  0  0  0  0  1  0  0  0  0  0  0
  187.7580  177.6880  146.8370 C   0  0  0  0  0  2  0  0  0  0  0  0
  184.9190  178.4250  144.2580 C   0  0  0  0  0  0  0  0  0  0  0  0
  188.9680  176.8780  146.3080 C   0  0  2  0  0  3  0  0  0  0  0  0
  186.0720  178.2560  143.5720 N   0  0  0  0  0  0  0  0  0  0  0  0
  188.4790  177.7560  144.0060 C   0  0  0  0  0  3  0  0  0  0  0  0
  183.8300  178.7140  143.7010 O   0  0  0  0  0  0  0  0  0  0  0  0
  185.1040  178.2220  145.9250 S   0  0  0  0  0  0  0  0  0  0  0  0
  186.7390  177.8710  145.7570 C   0  0  1  0  0  3  0  0  0  0  0  0
  187.0850  177.9490  144.4210 C   0  0  0  0  0  0  0  0  0  0  0  0
  189.3690  177.3040  144.9010 C   0  0  0  0  0  3  0  0  0  0  0  0
  189.8260  171.5570  138.8830 N   0  0  0  0  0  1  0  0  0  0  0  0
  190.2710  172.7200  139.6330 C   0  0  0  0  0  2  0  0  0  0  0  0
  192.5620  173.4670  144.8570 C   0  0  1  0  0  3  0  0  0  0  0  0
  193.6900  172.6780  145.0940 O   0  0  0  0  0  1  0  0  0  0  0  0
  196.0770  176.5680  143.9510 O   0  0  0  0  0  0  0  0  0  0  0  0
  194.9900  176.1350  144.2950 C   0  0  0  0  0  0  0  0  0  0  0  0
  194.3950  174.8930  143.7340 C   0  0  0  0  0  0  0  0  0  0  0  0
  192.3870  175.7930  146.6640 F   0  0  0  0  0  0  0  0  0  0  0  0
  195.1650  173.8040  144.1090 F   0  0  0  0  0  0  0  0  0  0  0  0
  192.8760  177.2660  144.9080 O   0  0  0  0  0  0  0  0  0  0  0  0
  192.9790  174.8530  144.3360 C   0  0  2  0  0  3  0  0  0  0  0  0
  194.3190  174.9710  142.3550 F   0  0  0  0  0  0  0  0  0  0  0  0
  192.9480  175.9510  145.4090 C   0  0  2  0  0  0  0  0  0  0  0  0
  194.6230  177.2080  146.5450 F   0  0  0  0  0  0  0  0  0  0  0  0
  194.1460  176.7980  145.3120 C   0  0  1  0  0  0  0  0  0  0  0  0
  1 10  1  0  0  0  0
  2  6  1  0  0  0  0
  3  1  1  0  0  0  0
  4  7  1  0  0  0  0
  5  8  1  0  0  0  0
  5  6  2  0  0  0  0
  6  3  1  0  0  0  0
  7  1  2  0  0  0  0
  7 25  1  0  0  0  0
  8  4  2  0  0  0  0
  9 10  2  0  0  0  0
  9 11  1  0  0  0  0
 11 12  1  1  0  0  0
 14 19  1  0  0  0  0
 15 11  1  6  0  0  0
 15 13  1  0  0  0  0
 16 14  1  0  0  0  0
 16 21  2  0  0  0  0
 17 21  1  0  0  0  0
 17 22  2  0  0  0  0
 18 14  2  0  0  0  0
 20 19  1  0  0  0  0
 20 13  1  1  0  0  0
 21 20  1  0  0  0  0
 22 15  1  0  0  0  0
 23 24  1  0  0  0  0
 24  5  1  0  0  0  0
 25 26  1  6  0  0  0
 27 28  2  0  0  0  0
 28 37  1  0  0  0  0
 29 31  1  0  0  0  0
 29 28  1  0  0  0  0
 29 33  1  0  0  0  0
 32 37  1  0  0  0  0
 32 35  1  0  0  0  0
 33 25  1  1  0  0  0
 33 35  1  0  0  0  0
 34 29  1  0  0  0  0
 35 30  1  1  0  0  0
 37 35  1  0  0  0  0
 37 36  1  1  0  0  0
M  END
>  <MODEL>
1

>  <REMARK>
 VINA RESULT:      -8.4      0.000      0.000
  Name = 
  6 active torsions:
  status: ('A' for Active; 'I' for Inactive)
    1  A    between atoms: C_1  and  C_9
    2  A    between atoms: C_6  and  C_8
    3  A    between atoms: C_7  and  C_8
    4  A    between atoms: C_20  and  C_23
    5  A    between atoms: C_26  and  C_28
    6  A    between atoms: C_26  and  C_31
                            x       y       z     vdW  Elec       q    Type
                         _______ _______ _______ _____ _____    ______ ____

>  <TORSDO>
F 6

$$$$
=
 OpenBabel11062421563D

 37 41  0  0  1  0  0  0  0  0999 V2000
  190.5280  172.8090  144.1110 C   0  0  0  0  0  0  0  0  0  0  0  0
  188.5880  173.1590  141.2470 F   0  0  0  0  0  0  0  0  0  0  0  0
  189.6830  172.0520  143.1310 C   0  0  0  0  0  2  0  0  0  0  0  0
  192.5870  172.2310  142.8350 C   0  0  0  0  0  3  0  0  0  0  0  0
  190.8700  172.6810  141.0540 C   0  0  0  0  0  0  0  0  0  0  0  0
  189.7400  172.6750  141.7770 C   0  0  0  0  0  0  0  0  0  0  0  0
  191.8720  172.8430  143.9830 C   0  0  0  0  0  0  0  0  0  0  0  0
  192.1570  172.1660  141.5670 C   0  0  0  0  0  3  0  0  0  0  0  0
  189.3040  174.6690  145.1690 C   0  0  0  0  0  3  0  0  0  0  0  0
  189.8710  173.4700  145.2580 C   0  0  0  0  0  3  0  0  0  0  0  0
  188.6520  175.2970  146.3590 C   0  0  1  0  0  3  0  0  0  0  0  0
  189.2170  174.6600  147.6230 C   0  0  0  0  0  1  0  0  0  0  0  0
  187.6010  177.5570  146.8490 C   0  0  0  0  0  2  0  0  0  0  0  0
  184.8920  178.2670  144.1260 C   0  0  0  0  0  0  0  0  0  0  0  0
  188.8740  176.8170  146.3690 C   0  0  2  0  0  3  0  0  0  0  0  0
  186.0910  178.1700  143.5070 N   0  0  0  0  0  0  0  0  0  0  0  0
  188.4860  177.7550  144.0710 C   0  0  0  0  0  3  0  0  0  0  0  0
  183.8270  178.5310  143.5130 O   0  0  0  0  0  0  0  0  0  0  0  0
  184.9860  178.0140  145.7940 S   0  0  0  0  0  0  0  0  0  0  0  0
  186.6410  177.7360  145.7150 C   0  0  1  0  0  3  0  0  0  0  0  0
  187.0630  177.8760  144.4060 C   0  0  0  0  0  0  0  0  0  0  0  0
  189.3400  177.3090  145.0040 C   0  0  0  0  0  3  0  0  0  0  0  0
  192.1700  173.5160  139.2030 N   0  0  0  0  0  1  0  0  0  0  0  0
  190.8340  173.1390  139.6340 C   0  0  0  0  0  2  0  0  0  0  0  0
  192.7170  173.4710  145.0610 C   0  0  1  0  0  3  0  0  0  0  0  0
  193.4910  172.4820  145.6730 O   0  0  0  0  0  1  0  0  0  0  0  0
  194.7640  177.7290  145.7470 O   0  0  0  0  0  0  0  0  0  0  0  0
  194.2040  176.8020  145.1840 C   0  0  0  0  0  0  0  0  0  0  0  0
  194.3600  175.3840  145.6010 C   0  0  0  0  0  0  0  0  0  0  0  0
  191.5560  175.4870  143.2450 F   0  0  0  0  0  0  0  0  0  0  0  0
  193.8060  175.2110  146.8600 F   0  0  0  0  0  0  0  0  0  0  0  0
  193.6720  176.3900  142.8030 O   0  0  0  0  0  0  0  0  0  0  0  0
  193.6170  174.5910  144.5120 C   0  0  2  0  0  3  0  0  0  0  0  0
  195.6960  175.0270  145.6160 F   0  0  0  0  0  0  0  0  0  0  0  0
  192.8630  175.6340  143.6740 C   0  0  2  0  0  0  0  0  0  0  0  0
  192.2760  177.9190  144.0070 F   0  0  0  0  0  0  0  0  0  0  0  0
  193.3040  176.9920  144.0260 C   0  0  1  0  0  0  0  0  0  0  0  0
  1 10  1  0  0  0  0
  2  6  1  0  0  0  0
  3  1  1  0  0  0  0
  4  7  1  0  0  0  0
  5  8  1  0  0  0  0
  5  6  2  0  0  0  0
  6  3  1  0  0  0  0
  7  1  2  0  0  0  0
  7 25  1  0  0  0  0
  8  4  2  0  0  0  0
  9 10  2  0  0  0  0
  9 11  1  0  0  0  0
 11 12  1  1  0  0  0
 14 19  1  0  0  0  0
 15 11  1  6  0  0  0
 15 13  1  0  0  0  0
 16 14  1  0  0  0  0
 16 21  2  0  0  0  0
 17 21  1  0  0  0  0
 17 22  2  0  0  0  0
 18 14  2  0  0  0  0
 20 19  1  0  0  0  0
 20 13  1  1  0  0  0
 21 20  1  0  0  0  0
 22 15  1  0  0  0  0
 23 24  1  0  0  0  0
 24  5  1  0  0  0  0
 25 26  1  6  0  0  0
 28 29  1  0  0  0  0
 28 27  2  0  0  0  0
 29 34  1  0  0  0  0
 29 31  1  0  0  0  0
 32 35  1  0  0  0  0
 32 37  1  0  0  0  0
 33 25  1  1  0  0  0
 33 29  1  0  0  0  0
 35 30  1  6  0  0  0
 35 37  1  0  0  0  0
 35 33  1  0  0  0  0
 37 36  1  1  0  0  0
 37 28  1  0  0  0  0
M  END
>  <MODEL>
2

>  <REMARK>
 VINA RESULT:      -8.3      1.223      1.514
  Name = 
  6 active torsions:
  status: ('A' for Active; 'I' for Inactive)
    1  A    between atoms: C_1  and  C_9
    2  A    between atoms: C_6  and  C_8
    3  A    between atoms: C_7  and  C_8
    4  A    between atoms: C_20  and  C_23
    5  A    between atoms: C_26  and  C_28
    6  A    between atoms: C_26  and  C_31
                            x       y       z     vdW  Elec       q    Type
                         _______ _______ _______ _____ _____    ______ ____

>  <TORSDO>
F 6

$$$$
=
 OpenBabel11062421563D

 37 41  0  0  1  0  0  0  0  0999 V2000
  190.5000  172.8090  144.0760 C   0  0  0  0  0  0  0  0  0  0  0  0
  188.9300  172.4830  140.9900 F   0  0  0  0  0  0  0  0  0  0  0  0
  189.7410  171.8510  143.2070 C   0  0  0  0  0  2  0  0  0  0  0  0
  192.6650  171.9010  143.2450 C   0  0  0  0  0  3  0  0  0  0  0  0
  191.1930  171.9320  141.2070 C   0  0  0  0  0  0  0  0  0  0  0  0
  189.9870  172.1220  141.7620 C   0  0  0  0  0  0  0  0  0  0  0  0
  191.8490  172.7870  144.1130 C   0  0  0  0  0  0  0  0  0  0  0  0
  192.3850  171.5360  141.9870 C   0  0  0  0  0  3  0  0  0  0  0  0
  189.2870  174.9120  144.5040 C   0  0  0  0  0  3  0  0  0  0  0  0
  189.7440  173.7420  144.9380 C   0  0  0  0  0  3  0  0  0  0  0  0
  188.5270  175.8220  145.4160 C   0  0  1  0  0  3  0  0  0  0  0  0
  188.9200  175.5140  146.8560 C   0  0  0  0  0  1  0  0  0  0  0  0
  187.4840  178.0490  144.7800 C   0  0  0  0  0  2  0  0  0  0  0  0
  186.1300  177.7720  141.1280 C   0  0  0  0  0  0  0  0  0  0  0  0
  188.8040  177.2940  145.0780 C   0  0  2  0  0  3  0  0  0  0  0  0
  187.4690  177.5880  141.0910 N   0  0  0  0  0  0  0  0  0  0  0  0
  189.4150  177.5160  142.6520 C   0  0  0  0  0  3  0  0  0  0  0  0
  185.4130  177.7770  140.0950 O   0  0  0  0  0  0  0  0  0  0  0  0
  185.5360  178.0060  142.6920 S   0  0  0  0  0  0  0  0  0  0  0  0
  187.0690  177.8340  143.3590 C   0  0  1  0  0  3  0  0  0  0  0  0
  187.9850  177.6270  142.3450 C   0  0  0  0  0  0  0  0  0  0  0  0
  189.8010  177.4120  143.9320 C   0  0  0  0  0  3  0  0  0  0  0  0
  191.6370  173.4040  139.3500 N   0  0  0  0  0  1  0  0  0  0  0  0
  191.3470  172.0310  139.7260 C   0  0  0  0  0  2  0  0  0  0  0  0
  192.5900  173.6440  145.1060 C   0  0  1  0  0  3  0  0  0  0  0  0
  193.6890  172.9340  145.5970 O   0  0  0  0  0  1  0  0  0  0  0  0
  196.1940  176.5650  143.9780 O   0  0  0  0  0  0  0  0  0  0  0  0
  195.0960  176.1900  144.3560 C   0  0  0  0  0  0  0  0  0  0  0  0
  194.4580  174.9340  143.8810 C   0  0  0  0  0  0  0  0  0  0  0  0
  192.5030  176.0880  146.7570 F   0  0  0  0  0  0  0  0  0  0  0  0
  195.1970  173.8480  144.3230 F   0  0  0  0  0  0  0  0  0  0  0  0
  193.0240  177.4260  144.9060 O   0  0  0  0  0  0  0  0  0  0  0  0
  193.0470  174.9790  144.4930 C   0  0  2  0  0  3  0  0  0  0  0  0
  194.3750  174.9230  142.5010 F   0  0  0  0  0  0  0  0  0  0  0  0
  193.0590  176.1450  145.4910 C   0  0  2  0  0  0  0  0  0  0  0  0
  194.7810  177.4190  146.5330 F   0  0  0  0  0  0  0  0  0  0  0  0
  194.2820  176.9450  145.3320 C   0  0  1  0  0  0  0  0  0  0  0  0
  1  7  2  0  0  0  0
  1 10  1  0  0  0  0
  2  6  1  0  0  0  0
  3  1  1  0  0  0  0
  4  7  1  0  0  0  0
  5  6  2  0  0  0  0
  5  8  1  0  0  0  0
  6  3  1  0  0  0  0
  7 25  1  0  0  0  0
  8  4  2  0  0  0  0
  9 10  2  0  0  0  0
  9 11  1  0  0  0  0
 11 12  1  1  0  0  0
 13 15  1  0  0  0  0
 14 19  1  0  0  0  0
 15 11  1  6  0  0  0
 16 14  1  0  0  0  0
 16 21  2  0  0  0  0
 17 22  2  0  0  0  0
 18 14  2  0  0  0  0
 19 20  1  0  0  0  0
 20 13  1  6  0  0  0
 21 17  1  0  0  0  0
 21 20  1  0  0  0  0
 22 15  1  0  0  0  0
 23 24  1  0  0  0  0
 24  5  1  0  0  0  0
 25 26  1  6  0  0  0
 27 28  2  0  0  0  0
 28 37  1  0  0  0  0
 29 31  1  0  0  0  0
 29 28  1  0  0  0  0
 29 33  1  0  0  0  0
 32 37  1  0  0  0  0
 32 35  1  0  0  0  0
 33 25  1  1  0  0  0
 33 35  1  0  0  0  0
 34 29  1  0  0  0  0
 35 30  1  1  0  0  0
 37 35  1  0  0  0  0
 37 36  1  1  0  0  0
M  END
>  <MODEL>
3

>  <REMARK>
 VINA RESULT:      -8.1      1.384      1.513
  Name = 
  6 active torsions:
  status: ('A' for Active; 'I' for Inactive)
    1  A    between atoms: C_1  and  C_9
    2  A    between atoms: C_6  and  C_8
    3  A    between atoms: C_7  and  C_8
    4  A    between atoms: C_20  and  C_23
    5  A    between atoms: C_26  and  C_28
    6  A    between atoms: C_26  and  C_31
                            x       y       z     vdW  Elec       q    Type
                         _______ _______ _______ _____ _____    ______ ____

>  <TORSDO>
F 6

$$$$
=
 OpenBabel11062421563D

 37 41  0  0  1  0  0  0  0  0999 V2000
  190.0690  173.6720  143.4040 C   0  0  0  0  0  0  0  0  0  0  0  0
  187.1620  172.4610  141.9280 F   0  0  0  0  0  0  0  0  0  0  0  0
  189.3440  172.4150  143.0280 C   0  0  0  0  0  2  0  0  0  0  0  0
  191.3640  173.6010  141.2770 C   0  0  0  0  0  3  0  0  0  0  0  0
  189.0560  172.8580  140.6120 C   0  0  0  0  0  0  0  0  0  0  0  0
  188.5060  172.6180  141.8120 C   0  0  0  0  0  0  0  0  0  0  0  0
  191.0300  174.1800  142.6030 C   0  0  0  0  0  0  0  0  0  0  0  0
  190.5090  173.0350  140.4150 C   0  0  0  0  0  3  0  0  0  0  0  0
  188.6490  175.0250  144.8970 C   0  0  0  0  0  3  0  0  0  0  0  0
  189.7550  174.3170  144.6960 C   0  0  0  0  0  3  0  0  0  0  0  0
  188.3780  175.6600  146.2240 C   0  0  1  0  0  3  0  0  0  0  0  0
  189.3100  175.0470  147.2620 C   0  0  0  0  0  1  0  0  0  0  0  0
  187.3040  177.9190  146.6700 C   0  0  0  0  0  2  0  0  0  0  0  0
  184.4360  178.4500  144.0730 C   0  0  0  0  0  0  0  0  0  0  0  0
  188.5650  177.1830  146.1530 C   0  0  2  0  0  3  0  0  0  0  0  0
  185.6000  178.3480  143.3930 N   0  0  0  0  0  0  0  0  0  0  0  0
  188.0310  178.0060  143.8410 C   0  0  0  0  0  3  0  0  0  0  0  0
  183.3330  178.6640  143.5090 O   0  0  0  0  0  0  0  0  0  0  0  0
  184.6260  178.2750  145.7430 S   0  0  0  0  0  0  0  0  0  0  0  0
  186.2810  178.0270  145.5840 C   0  0  1  0  0  3  0  0  0  0  0  0
  186.6270  178.1140  144.2490 C   0  0  0  0  0  0  0  0  0  0  0  0
  188.9450  177.6200  144.7430 C   0  0  0  0  0  3  0  0  0  0  0  0
  188.2520  174.1660  138.7530 N   0  0  0  0  0  1  0  0  0  0  0  0
  188.1940  172.8630  139.3940 C   0  0  0  0  0  2  0  0  0  0  0  0
  191.8570  175.3510  143.0670 C   0  0  1  0  0  3  0  0  0  0  0  0
  191.0960  176.5180  142.9690 O   0  0  0  0  0  1  0  0  0  0  0  0
  194.5660  176.9730  146.6480 O   0  0  0  0  0  0  0  0  0  0  0  0
  194.0200  176.1940  145.8840 C   0  0  0  0  0  0  0  0  0  0  0  0
  192.7230  176.4830  145.2170 C   0  0  0  0  0  0  0  0  0  0  0  0
  194.1260  173.5300  143.5610 F   0  0  0  0  0  0  0  0  0  0  0  0
  192.8860  177.5390  144.3340 F   0  0  0  0  0  0  0  0  0  0  0  0
  193.8510  173.7250  145.8800 O   0  0  0  0  0  0  0  0  0  0  0  0
  192.3680  175.1650  144.5060 C   0  0  2  0  0  3  0  0  0  0  0  0
  191.7540  176.7900  146.1540 F   0  0  0  0  0  0  0  0  0  0  0  0
  193.6210  174.2830  144.6070 C   0  0  2  0  0  0  0  0  0  0  0  0
  195.9060  174.7010  145.1330 F   0  0  0  0  0  0  0  0  0  0  0  0
  194.5940  174.8760  145.5360 C   0  0  1  0  0  0  0  0  0  0  0  0
  1 10  1  0  0  0  0
  3  1  1  0  0  0  0
  4  7  1  0  0  0  0
  5  6  2  0  0  0  0
  6  2  1  0  0  0  0
  6  3  1  0  0  0  0
  7 25  1  0  0  0  0
  7  1  2  0  0  0  0
  8  5  1  0  0  0  0
  8  4  2  0  0  0  0
  9 11  1  0  0  0  0
 10  9  2  0  0  0  0
 11 12  1  1  0  0  0
 14 19  1  0  0  0  0
 15 11  1  6  0  0  0
 15 13  1  0  0  0  0
 16 14  1  0  0  0  0
 16 21  2  0  0  0  0
 17 21  1  0  0  0  0
 17 22  2  0  0  0  0
 18 14  2  0  0  0  0
 20 19  1  0  0  0  0
 20 13  1  1  0  0  0
 21 20  1  0  0  0  0
 22 15  1  0  0  0  0
 23 24  1  0  0  0  0
 24  5  1  0  0  0  0
 25 26  1  1  0  0  0
 28 27  2  0  0  0  0
 29 28  1  0  0  0  0
 29 34  1  0  0  0  0
 31 29  1  0  0  0  0
 33 25  1  6  0  0  0
 33 35  1  0  0  0  0
 33 29  1  0  0  0  0
 35 30  1  6  0  0  0
 35 37  1  0  0  0  0
 35 32  1  0  0  0  0
 37 36  1  6  0  0  0
 37 32  1  0  0  0  0
 37 28  1  0  0  0  0
M  END
>  <MODEL>
4

>  <REMARK>
 VINA RESULT:      -7.7      1.399      2.244
  Name = 
  6 active torsions:
  status: ('A' for Active; 'I' for Inactive)
    1  A    between atoms: C_1  and  C_9
    2  A    between atoms: C_6  and  C_8
    3  A    between atoms: C_7  and  C_8
    4  A    between atoms: C_20  and  C_23
    5  A    between atoms: C_26  and  C_28
    6  A    between atoms: C_26  and  C_31
                            x       y       z     vdW  Elec       q    Type
                         _______ _______ _______ _____ _____    ______ ____

>  <TORSDO>
F 6

$$$$
=
 OpenBabel11062421563D

 37 41  0  0  1  0  0  0  0  0999 V2000
  190.0790  174.2630  145.7490 C   0  0  0  0  0  0  0  0  0  0  0  0
  189.2050  172.1530  143.1260 F   0  0  0  0  0  0  0  0  0  0  0  0
  189.7220  172.8460  145.4120 C   0  0  0  0  0  2  0  0  0  0  0  0
  192.5050  173.7300  145.5760 C   0  0  0  0  0  3  0  0  0  0  0  0
  191.4570  172.4230  143.7020 C   0  0  0  0  0  0  0  0  0  0  0  0
  190.1590  172.4940  144.0310 C   0  0  0  0  0  0  0  0  0  0  0  0
  191.3690  174.6410  145.8640 C   0  0  0  0  0  0  0  0  0  0  0  0
  192.5450  172.7740  144.6380 C   0  0  0  0  0  3  0  0  0  0  0  0
  188.1890  175.6860  145.0560 C   0  0  0  0  0  3  0  0  0  0  0  0
  188.9910  175.2290  146.0120 C   0  0  0  0  0  3  0  0  0  0  0  0
  187.1030  176.6640  145.3730 C   0  0  1  0  0  3  0  0  0  0  0  0
  186.9250  176.7290  146.8850 C   0  0  0  0  0  1  0  0  0  0  0  0
  186.1330  178.8530  144.5230 C   0  0  0  0  0  2  0  0  0  0  0  0
  184.3970  178.1760  141.0910 C   0  0  0  0  0  0  0  0  0  0  0  0
  187.4290  178.0520  144.8020 C   0  0  2  0  0  3  0  0  0  0  0  0
  185.7120  177.8910  140.9560 N   0  0  0  0  0  0  0  0  0  0  0  0
  187.8000  177.8930  142.3230 C   0  0  0  0  0  3  0  0  0  0  0  0
  183.5800  178.0910  140.1390 O   0  0  0  0  0  0  0  0  0  0  0  0
  183.9820  178.6660  142.6530 S   0  0  0  0  0  0  0  0  0  0  0  0
  185.5620  178.4760  143.1930 C   0  0  1  0  0  3  0  0  0  0  0  0
  186.3560  178.0650  142.1380 C   0  0  0  0  0  0  0  0  0  0  0  0
  188.3090  177.9380  143.5620 C   0  0  0  0  0  3  0  0  0  0  0  0
  191.7850  172.9350  141.3690 N   0  0  0  0  0  1  0  0  0  0  0  0
  191.8510  171.8810  142.3680 C   0  0  0  0  0  2  0  0  0  0  0  0
  191.7090  176.0240  146.3570 C   0  0  1  0  0  3  0  0  0  0  0  0
  192.2610  175.9330  147.6370 O   0  0  0  0  0  1  0  0  0  0  0  0
  193.5740  176.4160  141.9790 O   0  0  0  0  0  0  0  0  0  0  0  0
  193.4950  176.4110  143.1970 C   0  0  0  0  0  0  0  0  0  0  0  0
  192.2420  176.7260  143.9330 C   0  0  0  0  0  0  0  0  0  0  0  0
  194.5680  175.2960  146.3770 F   0  0  0  0  0  0  0  0  0  0  0  0
  191.2980  175.7450  143.6730 F   0  0  0  0  0  0  0  0  0  0  0  0
  195.0930  177.0880  144.9610 O   0  0  0  0  0  0  0  0  0  0  0  0
  192.6740  176.7570  145.4090 C   0  0  2  0  0  3  0  0  0  0  0  0
  191.7570  177.9650  143.5570 F   0  0  0  0  0  0  0  0  0  0  0  0
  194.1060  176.2030  145.4390 C   0  0  2  0  0  0  0  0  0  0  0  0
  195.4410  174.9710  143.8970 F   0  0  0  0  0  0  0  0  0  0  0  0
  194.6410  176.0870  144.0740 C   0  0  1  0  0  0  0  0  0  0  0  0
  1  7  2  0  0  0  0
  1 10  1  0  0  0  0
  2  6  1  0  0  0  0
  3  1  1  0  0  0  0
  4  7  1  0  0  0  0
  5  6  2  0  0  0  0
  5  8  1  0  0  0  0
  6  3  1  0  0  0  0
  7 25  1  0  0  0  0
  8  4  2  0  0  0  0
  9 11  1  0  0  0  0
  9 10  2  0  0  0  0
 11 12  1  1  0  0  0
 13 15  1  0  0  0  0
 14 19  1  0  0  0  0
 15 11  1  6  0  0  0
 16 14  1  0  0  0  0
 16 21  2  0  0  0  0
 17 22  2  0  0  0  0
 18 14  2  0  0  0  0
 19 20  1  0  0  0  0
 20 13  1  6  0  0  0
 21 17  1  0  0  0  0
 21 20  1  0  0  0  0
 22 15  1  0  0  0  0
 23 24  1  0  0  0  0
 24  5  1  0  0  0  0
 25 26  1  1  0  0  0
 27 28  2  0  0  0  0
 28 29  1  0  0  0  0
 28 37  1  0  0  0  0
 29 33  1  0  0  0  0
 31 29  1  0  0  0  0
 32 35  1  0  0  0  0
 33 35  1  0  0  0  0
 33 25  1  1  0  0  0
 34 29  1  0  0  0  0
 35 30  1  1  0  0  0
 37 36  1  6  0  0  0
 37 32  1  0  0  0  0
 37 35  1  0  0  0  0
M  END
>  <MODEL>
5

>  <REMARK>
 VINA RESULT:      -7.6      1.992      2.840
  Name = 
  6 active torsions:
  status: ('A' for Active; 'I' for Inactive)
    1  A    between atoms: C_1  and  C_9
    2  A    between atoms: C_6  and  C_8
    3  A    between atoms: C_7  and  C_8
    4  A    between atoms: C_20  and  C_23
    5  A    between atoms: C_26  and  C_28
    6  A    between atoms: C_26  and  C_31
                            x       y       z     vdW  Elec       q    Type
                         _______ _______ _______ _____ _____    ______ ____

>  <TORSDO>
F 6

$$$$
=
 OpenBabel11062421563D

 37 41  0  0  1  0  0  0  0  0999 V2000
  193.6470  175.9750  143.6030 C   0  0  0  0  0  0  0  0  0  0  0  0
  194.9400  175.7970  146.8270 F   0  0  0  0  0  0  0  0  0  0  0  0
  194.6610  176.5790  144.5280 C   0  0  0  0  0  2  0  0  0  0  0  0
  195.3680  174.4420  142.6610 C   0  0  0  0  0  3  0  0  0  0  0  0
  195.9000  174.5210  145.1160 C   0  0  0  0  0  0  0  0  0  0  0  0
  195.1660  175.5730  145.5070 C   0  0  0  0  0  0  0  0  0  0  0  0
  194.0020  175.0200  142.7170 C   0  0  0  0  0  0  0  0  0  0  0  0
  196.1870  174.2210  143.6980 C   0  0  0  0  0  3  0  0  0  0  0  0
  191.6070  176.7180  144.7700 C   0  0  0  0  0  3  0  0  0  0  0  0
  192.2600  176.4830  143.6370 C   0  0  0  0  0  3  0  0  0  0  0  0
  190.2020  177.2320  144.7510 C   0  0  1  0  0  3  0  0  0  0  0  0
  190.0350  178.1600  143.5540 C   0  0  0  0  0  1  0  0  0  0  0  0
  187.8050  176.5760  144.2220 C   0  0  0  0  0  2  0  0  0  0  0  0
  185.4870  178.0540  146.9960 C   0  0  0  0  0  0  0  0  0  0  0  0
  189.1940  176.0740  144.6890 C   0  0  2  0  0  3  0  0  0  0  0  0
  186.3400  177.1840  147.5840 N   0  0  0  0  0  0  0  0  0  0  0  0
  188.2200  175.6630  146.9670 C   0  0  0  0  0  3  0  0  0  0  0  0
  184.5890  178.6640  147.6300 O   0  0  0  0  0  0  0  0  0  0  0  0
  185.7490  178.2160  145.3350 S   0  0  0  0  0  0  0  0  0  0  0  0
  187.0380  177.1400  145.3760 C   0  0  1  0  0  3  0  0  0  0  0  0
  187.2020  176.6760  146.6680 C   0  0  0  0  0  0  0  0  0  0  0  0
  189.1190  175.3450  146.0250 C   0  0  0  0  0  3  0  0  0  0  0  0
  196.6650  172.2940  145.6350 N   0  0  0  0  0  1  0  0  0  0  0  0
  196.5430  173.6500  146.1440 C   0  0  0  0  0  2  0  0  0  0  0  0
  193.0110  174.5380  141.6900 C   0  0  1  0  0  3  0  0  0  0  0  0
  193.4470  174.9170  140.4180 O   0  0  0  0  0  1  0  0  0  0  0  0
  190.3830  170.7470  140.4590 O   0  0  0  0  0  0  0  0  0  0  0  0
  191.0820  171.4910  141.1280 C   0  0  0  0  0  0  0  0  0  0  0  0
  192.0660  172.4340  140.5350 C   0  0  0  0  0  0  0  0  0  0  0  0
  191.7080  173.3620  144.0620 F   0  0  0  0  0  0  0  0  0  0  0  0
  191.3930  173.4020  139.8070 F   0  0  0  0  0  0  0  0  0  0  0  0
  192.1880  171.1920  143.3210 O   0  0  0  0  0  0  0  0  0  0  0  0
  192.8060  173.0150  141.7540 C   0  0  2  0  0  3  0  0  0  0  0  0
  192.9560  171.7580  139.7210 F   0  0  0  0  0  0  0  0  0  0  0  0
  192.0160  172.5490  142.9850 C   0  0  2  0  0  0  0  0  0  0  0  0
  189.8370  171.6440  143.3140 F   0  0  0  0  0  0  0  0  0  0  0  0
  191.0210  171.5360  142.6050 C   0  0  1  0  0  0  0  0  0  0  0  0
  1 10  1  0  0  0  0
  1  3  1  0  0  0  0
  3  6  1  0  0  0  0
  4  7  1  0  0  0  0
  4  8  2  0  0  0  0
  5  6  2  0  0  0  0
  5 24  1  0  0  0  0
  6  2  1  0  0  0  0
  7  1  2  0  0  0  0
  8  5  1  0  0  0  0
 10  9  2  0  0  0  0
 11 12  1  6  0  0  0
 11  9  1  0  0  0  0
 13 15  1  0  0  0  0
 14 16  1  0  0  0  0
 14 18  2  0  0  0  0
 15 11  1  1  0  0  0
 15 22  1  0  0  0  0
 19 20  1  0  0  0  0
 19 14  1  0  0  0  0
 20 13  1  6  0  0  0
 20 21  1  0  0  0  0
 21 17  1  0  0  0  0
 21 16  2  0  0  0  0
 22 17  2  0  0  0  0
 23 24  1  0  0  0  0
 25 26  1  6  0  0  0
 25  7  1  0  0  0  0
 27 28  2  0  0  0  0
 28 37  1  0  0  0  0
 29 28  1  0  0  0  0
 29 33  1  0  0  0  0
 31 29  1  0  0  0  0
 33 25  1  6  0  0  0
 33 35  1  0  0  0  0
 34 29  1  0  0  0  0
 35 32  1  0  0  0  0
 35 30  1  1  0  0  0
 37 35  1  0  0  0  0
 37 36  1  1  0  0  0
 37 32  1  0  0  0  0
M  END
>  <MODEL>
6

>  <REMARK>
 VINA RESULT:      -7.6      2.881      5.379
  Name = 
  6 active torsions:
  status: ('A' for Active; 'I' for Inactive)
    1  A    between atoms: C_1  and  C_9
    2  A    between atoms: C_6  and  C_8
    3  A    between atoms: C_7  and  C_8
    4  A    between atoms: C_20  and  C_23
    5  A    between atoms: C_26  and  C_28
    6  A    between atoms: C_26  and  C_31
                            x       y       z     vdW  Elec       q    Type
                         _______ _______ _______ _____ _____    ______ ____

>  <TORSDO>
F 6

$$$$
=
 OpenBabel11062421563D

 37 41  0  0  1  0  0  0  0  0999 V2000
  188.8600  173.7830  142.3470 C   0  0  0  0  0  0  0  0  0  0  0  0
  188.5550  174.4640  138.9500 F   0  0  0  0  0  0  0  0  0  0  0  0
  188.2940  173.2600  141.0610 C   0  0  0  0  0  2  0  0  0  0  0  0
  190.9120  172.4050  142.0460 C   0  0  0  0  0  3  0  0  0  0  0  0
  190.3770  173.2190  139.7280 C   0  0  0  0  0  0  0  0  0  0  0  0
  189.1270  173.6760  139.8960 C   0  0  0  0  0  0  0  0  0  0  0  0
  190.0490  173.3430  142.8080 C   0  0  0  0  0  0  0  0  0  0  0  0
  191.0580  172.3550  140.7150 C   0  0  0  0  0  3  0  0  0  0  0  0
  187.4730  175.8070  142.5910 C   0  0  0  0  0  3  0  0  0  0  0  0
  188.0640  174.7480  143.1350 C   0  0  0  0  0  3  0  0  0  0  0  0
  186.6790  176.7550  143.4310 C   0  0  1  0  0  3  0  0  0  0  0  0
  187.2750  176.7860  144.8330 C   0  0  0  0  0  1  0  0  0  0  0  0
  185.3600  178.9110  143.1680 C   0  0  0  0  0  2  0  0  0  0  0  0
  182.2870  178.1960  140.8660 C   0  0  0  0  0  0  0  0  0  0  0  0
  186.6680  178.1610  142.8120 C   0  0  2  0  0  3  0  0  0  0  0  0
  183.4090  177.9670  140.1470 N   0  0  0  0  0  0  0  0  0  0  0  0
  185.8870  178.0410  140.4280 C   0  0  0  0  0  3  0  0  0  0  0  0
  181.1310  178.0860  140.3820 O   0  0  0  0  0  0  0  0  0  0  0  0
  182.6040  178.6530  142.4610 S   0  0  0  0  0  0  0  0  0  0  0  0
  184.2640  178.5230  142.2270 C   0  0  1  0  0  3  0  0  0  0  0  0
  184.5100  178.1560  140.9170 C   0  0  0  0  0  0  0  0  0  0  0  0
  186.8980  178.0950  141.3070 C   0  0  0  0  0  3  0  0  0  0  0  0
  192.5300  173.3180  138.6480 N   0  0  0  0  0  1  0  0  0  0  0  0
  191.1020  173.5060  138.4560 C   0  0  0  0  0  2  0  0  0  0  0  0
  190.5290  173.7580  144.1750 C   0  0  1  0  0  3  0  0  0  0  0  0
  190.5830  172.6340  145.0030 O   0  0  0  0  0  1  0  0  0  0  0  0
  193.6580  176.7170  146.2350 O   0  0  0  0  0  0  0  0  0  0  0  0
  193.0100  176.1560  145.3670 C   0  0  0  0  0  0  0  0  0  0  0  0
  192.4930  174.7680  145.5070 C   0  0  0  0  0  0  0  0  0  0  0  0
  190.8350  176.2210  142.5790 F   0  0  0  0  0  0  0  0  0  0  0  0
  191.5420  174.7320  146.5150 F   0  0  0  0  0  0  0  0  0  0  0  0
  193.1570  176.2060  142.8970 O   0  0  0  0  0  0  0  0  0  0  0  0
  191.9020  174.4500  144.1220 C   0  0  2  0  0  3  0  0  0  0  0  0
  193.5240  173.8930  145.7930 F   0  0  0  0  0  0  0  0  0  0  0  0
  191.8940  175.7780  143.3530 C   0  0  2  0  0  0  0  0  0  0  0  0
  192.1120  178.0640  143.9880 F   0  0  0  0  0  0  0  0  0  0  0  0
  192.6640  176.7980  144.0800 C   0  0  1  0  0  0  0  0  0  0  0  0
  1  7  2  0  0  0  0
  1 10  1  0  0  0  0
  2  6  1  0  0  0  0
  3  1  1  0  0  0  0
  4  7  1  0  0  0  0
  5  6  2  0  0  0  0
  5  8  1  0  0  0  0
  6  3  1  0  0  0  0
  7 25  1  0  0  0  0
  8  4  2  0  0  0  0
  9 10  2  0  0  0  0
  9 11  1  0  0  0  0
 11 12  1  1  0  0  0
 14 19  1  0  0  0  0
 15 13  1  0  0  0  0
 15 11  1  6  0  0  0
 16 14  1  0  0  0  0
 16 21  2  0  0  0  0
 17 21  1  0  0  0  0
 17 22  2  0  0  0  0
 18 14  2  0  0  0  0
 20 19  1  0  0  0  0
 20 13  1  6  0  0  0
 21 20  1  0  0  0  0
 22 15  1  0  0  0  0
 24 23  1  0  0  0  0
 24  5  1  0  0  0  0
 25 26  1  1  0  0  0
 28 29  1  0  0  0  0
 28 27  2  0  0  0  0
 29 34  1  0  0  0  0
 29 31  1  0  0  0  0
 32 35  1  0  0  0  0
 32 37  1  0  0  0  0
 33 25  1  1  0  0  0
 33 29  1  0  0  0  0
 35 30  1  6  0  0  0
 35 37  1  0  0  0  0
 35 33  1  0  0  0  0
 37 36  1  6  0  0  0
 37 28  1  0  0  0  0
M  END
>  <MODEL>
7

>  <REMARK>
 VINA RESULT:      -7.6      2.501      3.347
  Name = 
  6 active torsions:
  status: ('A' for Active; 'I' for Inactive)
    1  A    between atoms: C_1  and  C_9
    2  A    between atoms: C_6  and  C_8
    3  A    between atoms: C_7  and  C_8
    4  A    between atoms: C_20  and  C_23
    5  A    between atoms: C_26  and  C_28
    6  A    between atoms: C_26  and  C_31
                            x       y       z     vdW  Elec       q    Type
                         _______ _______ _______ _____ _____    ______ ____

>  <TORSDO>
F 6

$$$$
=
 OpenBabel11062421563D

 37 41  0  0  1  0  0  0  0  0999 V2000
  191.4940  173.8450  145.0090 C   0  0  0  0  0  0  0  0  0  0  0  0
  194.5810  174.3240  143.4800 F   0  0  0  0  0  0  0  0  0  0  0  0
  192.9240  173.3920  145.0160 C   0  0  0  0  0  2  0  0  0  0  0  0
  191.9670  175.4790  146.8280 C   0  0  0  0  0  3  0  0  0  0  0  0
  194.0080  175.5880  145.3640 C   0  0  0  0  0  0  0  0  0  0  0  0
  193.8410  174.4940  144.6060 C   0  0  0  0  0  0  0  0  0  0  0  0
  191.0620  174.7770  145.8840 C   0  0  0  0  0  0  0  0  0  0  0  0
  193.2390  175.8340  146.6010 C   0  0  0  0  0  3  0  0  0  0  0  0
  190.8240  173.0430  142.7770 C   0  0  0  0  0  3  0  0  0  0  0  0
  190.5500  173.2090  144.0670 C   0  0  0  0  0  3  0  0  0  0  0  0
  189.8340  172.3950  141.8630 C   0  0  1  0  0  3  0  0  0  0  0  0
  188.4950  172.2900  142.5820 C   0  0  0  0  0  1  0  0  0  0  0  0
  188.9940  172.3380  139.4660 C   0  0  0  0  0  2  0  0  0  0  0  0
  191.3020  169.9490  137.4120 C   0  0  0  0  0  0  0  0  0  0  0  0
  189.6900  173.1890  140.5560 C   0  0  2  0  0  3  0  0  0  0  0  0
  192.0600  170.9730  137.8660 N   0  0  0  0  0  0  0  0  0  0  0  0
  191.8180  173.0490  139.2290 C   0  0  0  0  0  3  0  0  0  0  0  0
  191.7590  169.0320  136.6830 O   0  0  0  0  0  0  0  0  0  0  0  0
  189.6910  170.0440  137.9130 S   0  0  0  0  0  0  0  0  0  0  0  0
  189.9860  171.4530  138.7810 C   0  0  1  0  0  3  0  0  0  0  0  0
  191.3130  171.8100  138.6290 C   0  0  0  0  0  0  0  0  0  0  0  0
  191.0410  173.7210  140.0900 C   0  0  0  0  0  3  0  0  0  0  0  0
  194.8770  177.8010  145.7630 N   0  0  0  0  0  1  0  0  0  0  0  0
  195.0730  176.5720  145.0130 C   0  0  0  0  0  2  0  0  0  0  0  0
  189.5940  175.1050  145.9710 C   0  0  1  0  0  3  0  0  0  0  0  0
  189.1240  174.7730  147.2440 O   0  0  0  0  0  1  0  0  0  0  0  0
  186.3750  178.5280  145.1230 O   0  0  0  0  0  0  0  0  0  0  0  0
  187.4030  177.8760  145.0470 C   0  0  0  0  0  0  0  0  0  0  0  0
  187.9470  177.0800  146.1800 C   0  0  0  0  0  0  0  0  0  0  0  0
  189.8060  176.0640  143.1890 F   0  0  0  0  0  0  0  0  0  0  0  0
  187.0780  176.0400  146.4700 F   0  0  0  0  0  0  0  0  0  0  0  0
  189.5430  178.2890  143.8760 O   0  0  0  0  0  0  0  0  0  0  0  0
  189.3120  176.5870  145.6670 C   0  0  2  0  0  3  0  0  0  0  0  0
  188.1230  177.8790  147.2940 F   0  0  0  0  0  0  0  0  0  0  0  0
  189.3450  176.9260  144.1690 C   0  0  2  0  0  0  0  0  0  0  0  0
  187.6880  177.5280  142.5680 F   0  0  0  0  0  0  0  0  0  0  0  0
  188.2190  177.8030  143.8160 C   0  0  1  0  0  0  0  0  0  0  0  0
  1  3  1  0  0  0  0
  1  7  2  0  0  0  0
  2  6  1  0  0  0  0
  5  8  1  0  0  0  0
  6  3  1  0  0  0  0
  6  5  2  0  0  0  0
  7 25  1  0  0  0  0
  7  4  1  0  0  0  0
  8  4  2  0  0  0  0
  9 10  2  0  0  0  0
 10  1  1  0  0  0  0
 11 12  1  1  0  0  0
 11  9  1  0  0  0  0
 13 15  1  0  0  0  0
 14 16  1  0  0  0  0
 14 19  1  0  0  0  0
 15 11  1  1  0  0  0
 16 21  2  0  0  0  0
 17 22  2  0  0  0  0
 18 14  2  0  0  0  0
 19 20  1  0  0  0  0
 20 13  1  6  0  0  0
 21 20  1  0  0  0  0
 21 17  1  0  0  0  0
 22 15  1  0  0  0  0
 24  5  1  0  0  0  0
 24 23  1  0  0  0  0
 25 26  1  1  0  0  0
 28 27  2  0  0  0  0
 28 29  1  0  0  0  0
 29 31  1  0  0  0  0
 29 34  1  0  0  0  0
 32 35  1  0  0  0  0
 33 25  1  6  0  0  0
 33 29  1  0  0  0  0
 35 30  1  6  0  0  0
 35 33  1  0  0  0  0
 37 36  1  6  0  0  0
 37 32  1  0  0  0  0
 37 35  1  0  0  0  0
 37 28  1  0  0  0  0
M  END
>  <MODEL>
8

>  <REMARK>
 VINA RESULT:      -7.5      3.733      7.539
  Name = 
  6 active torsions:
  status: ('A' for Active; 'I' for Inactive)
    1  A    between atoms: C_1  and  C_9
    2  A    between atoms: C_6  and  C_8
    3  A    between atoms: C_7  and  C_8
    4  A    between atoms: C_20  and  C_23
    5  A    between atoms: C_26  and  C_28
    6  A    between atoms: C_26  and  C_31
                            x       y       z     vdW  Elec       q    Type
                         _______ _______ _______ _____ _____    ______ ____

>  <TORSDO>
F 6

$$$$
=
 OpenBabel11062421563D

 37 41  0  0  1  0  0  0  0  0999 V2000
  189.5320  175.4090  145.1430 C   0  0  0  0  0  0  0  0  0  0  0  0
  192.6810  174.0420  145.6990 F   0  0  0  0  0  0  0  0  0  0  0  0
  190.2890  174.4420  146.0040 C   0  0  0  0  0  2  0  0  0  0  0  0
  189.8440  177.2120  146.8330 C   0  0  0  0  0  3  0  0  0  0  0  0
  192.0360  175.9800  146.8410 C   0  0  0  0  0  0  0  0  0  0  0  0
  191.7090  174.8660  146.1690 C   0  0  0  0  0  0  0  0  0  0  0  0
  189.2980  176.6700  145.5630 C   0  0  0  0  0  0  0  0  0  0  0  0
  191.0300  176.9170  147.3820 C   0  0  0  0  0  3  0  0  0  0  0  0
  189.7300  174.2890  142.9560 C   0  0  0  0  0  3  0  0  0  0  0  0
  188.9930  174.9400  143.8490 C   0  0  0  0  0  3  0  0  0  0  0  0
  189.1380  173.8360  141.6590 C   0  0  1  0  0  3  0  0  0  0  0  0
  188.1970  174.9180  141.1440 C   0  0  0  0  0  1  0  0  0  0  0  0
  190.2120  172.0400  140.2190 C   0  0  0  0  0  2  0  0  0  0  0  0
  192.1410  169.5800  142.5610 C   0  0  0  0  0  0  0  0  0  0  0  0
  190.2370  173.5330  140.6300 C   0  0  2  0  0  3  0  0  0  0  0  0
  192.7010  170.8040  142.6900 N   0  0  0  0  0  0  0  0  0  0  0  0
  192.4190  173.1190  141.8010 C   0  0  0  0  0  3  0  0  0  0  0  0
  192.5720  168.5650  143.1650 O   0  0  0  0  0  0  0  0  0  0  0  0
  190.8250  169.5610  141.5010 S   0  0  0  0  0  0  0  0  0  0  0  0
  190.9620  171.2120  141.2150 C   0  0  1  0  0  3  0  0  0  0  0  0
  192.0350  171.7100  141.9300 C   0  0  0  0  0  0  0  0  0  0  0  0
  191.6040  173.9610  141.1500 C   0  0  0  0  0  3  0  0  0  0  0  0
  194.0900  176.9380  146.0200 N   0  0  0  0  0  1  0  0  0  0  0  0
  193.4690  176.2630  147.1470 C   0  0  0  0  0  2  0  0  0  0  0  0
  188.4020  177.5780  144.7600 C   0  0  1  0  0  3  0  0  0  0  0  0
  188.8910  177.6680  143.4540 O   0  0  0  0  0  1  0  0  0  0  0  0
  183.8380  178.4740  143.6840 O   0  0  0  0  0  0  0  0  0  0  0  0
  184.8150  178.0660  144.2900 C   0  0  0  0  0  0  0  0  0  0  0  0
  186.0910  177.6960  143.6210 C   0  0  0  0  0  0  0  0  0  0  0  0
  186.7880  177.8400  147.2160 F   0  0  0  0  0  0  0  0  0  0  0  0
  186.6640  178.8300  143.0670 F   0  0  0  0  0  0  0  0  0  0  0  0
  185.0410  176.5980  146.2680 O   0  0  0  0  0  0  0  0  0  0  0  0
  186.9420  177.0920  144.7520 C   0  0  2  0  0  3  0  0  0  0  0  0
  185.8670  176.7480  142.6400 F   0  0  0  0  0  0  0  0  0  0  0  0
  186.1850  177.3920  146.0530 C   0  0  2  0  0  0  0  0  0  0  0  0
  184.4200  178.8800  146.6410 F   0  0  0  0  0  0  0  0  0  0  0  0
  184.8370  177.8990  145.7590 C   0  0  1  0  0  0  0  0  0  0  0  0
  1  7  2  0  0  0  0
  1  3  1  0  0  0  0
  2  6  1  0  0  0  0
  3  6  1  0  0  0  0
  4  8  2  0  0  0  0
  5 24  1  0  0  0  0
  5  8  1  0  0  0  0
  6  5  2  0  0  0  0
  7  4  1  0  0  0  0
  9 10  2  0  0  0  0
 10  1  1  0  0  0  0
 11 12  1  6  0  0  0
 11  9  1  0  0  0  0
 13 15  1  0  0  0  0
 14 16  1  0  0  0  0
 14 18  2  0  0  0  0
 15 22  1  0  0  0  0
 15 11  1  1  0  0  0
 17 21  1  0  0  0  0
 19 14  1  0  0  0  0
 20 13  1  6  0  0  0
 20 19  1  0  0  0  0
 20 21  1  0  0  0  0
 21 16  2  0  0  0  0
 22 17  2  0  0  0  0
 23 24  1  0  0  0  0
 25 26  1  6  0  0  0
 25  7  1  0  0  0  0
 27 28  2  0  0  0  0
 28 37  1  0  0  0  0
 29 28  1  0  0  0  0
 29 33  1  0  0  0  0
 31 29  1  0  0  0  0
 33 25  1  1  0  0  0
 33 35  1  0  0  0  0
 34 29  1  0  0  0  0
 35 32  1  0  0  0  0
 35 30  1  1  0  0  0
 37 35  1  0  0  0  0
 37 32  1  0  0  0  0
 37 36  1  1  0  0  0
M  END
>  <MODEL>
9

>  <REMARK>
 VINA RESULT:      -7.4      3.712      8.059
  Name = 
  6 active torsions:
  status: ('A' for Active; 'I' for Inactive)
    1  A    between atoms: C_1  and  C_9
    2  A    between atoms: C_6  and  C_8
    3  A    between atoms: C_7  and  C_8
    4  A    between atoms: C_20  and  C_23
    5  A    between atoms: C_26  and  C_28
    6  A    between atoms: C_26  and  C_31
                            x       y       z     vdW  Elec       q    Type
                         _______ _______ _______ _____ _____    ______ ____

>  <TORSDO>
F 6

$$$$
