=
 OpenBabel11062418403D

 69 76  0  0  1  0  0  0  0  0999 V2000
  195.5780  173.3280  141.6230 C   0  0  0  0  0  2  0  0  0  0  0  0
  195.2720  173.4130  143.1310 C   0  0  2  0  0  0  0  0  0  0  0  0
  197.3520  175.0130  142.9310 C   0  0  1  0  0  3  0  0  0  0  0  0
  196.4760  174.1220  143.8280 C   0  0  1  0  0  3  0  0  0  0  0  0
  196.2090  174.7100  145.0650 O   0  0  0  0  0  1  0  0  0  0  0  0
  197.7580  174.2920  141.6380 C   0  0  0  0  0  2  0  0  0  0  0  0
  196.9950  173.0660  141.3890 N   0  0  0  0  0  2  0  0  0  0  0  0
  196.0450  176.5340  141.4220 O   0  0  0  0  0  0  0  0  0  0  0  0
  196.8070  177.2750  143.4490 O   0  0  0  0  0  1  0  0  0  0  0  0
  196.7180  176.3340  142.6200 C   0  0  0  0  0  0  0  0  0  0  0  0
  194.1820  171.0600  143.3380 C   0  0  0  0  0  0  0  0  0  0  0  0
  195.1960  172.0350  143.6230 N   0  0  0  0  0  2  0  0  0  0  0  0
  194.1660  169.9880  144.0010 O   0  0  0  0  0  0  0  0  0  0  0  0
  193.1180  171.3090  142.3140 C   0  0  0  0  0  2  0  0  0  0  0  0
  192.2170  168.5360  139.8630 C   0  0  0  0  0  3  0  0  0  0  0  0
  193.1730  170.3350  141.1800 C   0  0  0  0  0  0  0  0  0  0  0  0
  192.1370  169.4130  140.9480 C   0  0  0  0  0  0  0  0  0  0  0  0
  191.0200  169.3700  141.7780 O   0  0  0  0  0  1  0  0  0  0  0  0
  194.2920  170.3470  140.3390 C   0  0  0  0  0  3  0  0  0  0  0  0
  194.3870  169.4540  139.2690 C   0  0  0  0  0  0  0  0  0  0  0  0
  193.3350  168.5590  139.0230 C   0  0  0  0  0  3  0  0  0  0  0  0
  195.5890  169.5220  138.3780 C   0  0  0  0  0  2  0  0  0  0  0  0
  196.2720  170.8880  138.4200 C   0  0  1  0  0  3  0  0  0  0  0  0
  197.5750  170.7320  138.8980 O   0  0  0  0  0  1  0  0  0  0  0  0
  197.6430  172.1520  136.7280 C   0  0  0  0  0  1  0  0  0  0  0  0
  196.2560  171.6220  137.0610 C   0  0  0  0  0  0  0  0  0  0  0  0
  195.8600  170.6380  135.9600 C   0  0  0  0  0  1  0  0  0  0  0  0
  195.2690  172.8150  137.1350 C   0  0  1  0  0  0  0  0  0  0  0  0
  192.9640  174.8410  136.8230 O   0  0  0  0  0  1  0  0  0  0  0  0
  194.7480  173.4480  135.8600 C   0  0  2  0  0  3  0  0  0  0  0  0
  193.2760  173.7590  135.9970 C   0  0  1  0  0  0  0  0  0  0  0  0
  193.8320  172.5610  136.7280 C   0  0  2  0  0  3  0  0  0  0  0  0
  195.3920  173.7070  138.2050 O   0  0  0  0  0  1  0  0  0  0  0  0
  192.3610  173.4490  134.8230 C   0  0  0  0  0  2  0  0  0  0  0  0
  190.9490  173.1060  135.2990 C   0  0  1  0  0  3  0  0  0  0  0  0
  189.0840  171.6150  134.9550 O   0  0  0  0  0  1  0  0  0  0  0  0
  191.2480  170.6170  135.1210 C   0  0  0  0  0  1  0  0  0  0  0  0
  190.4360  171.8150  134.6610 C   0  0  2  0  0  3  0  0  0  0  0  0
  190.9190  172.9870  136.7520 N   0  0  0  0  0  2  0  0  0  0  0  0
  189.9050  173.6120  137.5420 C   0  0  0  0  0  0  0  0  0  0  0  0
  189.0150  174.3190  136.9940 O   0  0  0  0  0  0  0  0  0  0  0  0
  189.9500  173.4960  139.0330 C   0  0  0  0  0  3  0  0  0  0  0  0
  191.2220  172.7860  139.4610 C   0  0  0  0  0  2  0  0  0  0  0  0
  189.9100  172.0340  139.4450 C   0  0  0  0  0  2  0  0  0  0  0  0
  193.5280  174.5340  144.4960 C   0  0  0  0  0  2  0  0  0  0  0  0
  193.9070  174.1000  143.2870 C   0  0  0  0  0  0  0  0  0  0  0  0
  193.0770  174.5490  142.1180 C   0  0  0  0  0  2  0  0  0  0  0  0
  192.3840  175.8720  142.4010 C   0  0  0  0  0  2  0  0  0  0  0  0
  190.0180  173.6840  145.0030 C   0  0  0  0  0  2  0  0  0  0  0  0
  188.7350  176.5720  143.5420 C   0  0  2  0  0  3  0  0  0  0  0  0
  188.3690  177.6150  146.2220 O   0  0  0  0  0  1  0  0  0  0  0  0
  190.0040  173.4730  143.5070 C   0  0  0  0  0  0  0  0  0  0  0  0
  189.5500  172.3120  143.0630 C   0  0  0  0  0  2  0  0  0  0  0  0
  190.6660  177.9360  143.1970 O   0  0  0  0  0  0  0  0  0  0  0  0
  189.2810  175.4240  146.7660 C   0  0  2  0  0  3  0  0  0  0  0  0
  190.4600  174.4070  142.5550 O   0  0  0  0  0  0  0  0  0  0  0  0
  188.5110  175.6700  144.7810 C   0  0  1  0  0  3  0  0  0  0  0  0
  190.1800  176.7740  143.1730 C   0  0  0  0  0  0  0  0  0  0  0  0
  191.0200  175.6400  142.8570 N   0  0  0  0  0  0  0  0  0  0  0  0
  189.8020  175.1360  145.3720 C   0  0  2  0  0  3  0  0  0  0  0  0
  188.1260  176.2370  146.1510 C   0  0  2  0  0  3  0  0  0  0  0  0
  191.3730  175.3420  148.0950 C   0  0  0  0  0  1  0  0  0  0  0  0
  190.2870  176.2500  147.5640 C   0  0  0  0  0  2  0  0  0  0  0  0
  188.0230  177.7840  143.5760 O   0  0  0  0  0  0  0  0  0  0  0  0
  186.7160  176.9400  141.8730 O   0  0  0  0  0  0  0  0  0  0  0  0
  186.7140  177.4900  143.1710 C   0  0  2  0  0  3  0  0  0  0  0  0
  186.3740  178.3040  141.9820 C   0  0  2  0  0  3  0  0  0  0  0  0
  184.6960  178.4130  140.5380 C   0  0  0  0  0  1  0  0  0  0  0  0
  184.9880  178.4490  141.9050 O   0  0  0  0  0  0  0  0  0  0  0  0
  1  2  1  0  0  0  0
  2 46  1  1  0  0  0
  2 12  1  0  0  0  0
  2  4  1  0  0  0  0
  3 10  1  6  0  0  0
  3  4  1  0  0  0  0
  4  5  1  1  0  0  0
  6  3  1  0  0  0  0
  7  1  1  0  0  0  0
  7  6  1  0  0  0  0
  8 10  2  0  0  0  0
 10  9  1  0  0  0  0
 11 12  1  0  0  0  0
 11 13  2  0  0  0  0
 14 11  1  0  0  0  0
 15 17  1  0  0  0  0
 16 14  1  0  0  0  0
 17 16  2  0  0  0  0
 17 18  1  0  0  0  0
 19 16  1  0  0  0  0
 20 19  2  0  0  0  0
 21 20  1  0  0  0  0
 21 15  2  0  0  0  0
 22 23  1  0  0  0  0
 22 20  1  0  0  0  0
 23 24  1  6  0  0  0
 25 26  1  0  0  0  0
 26 28  1  0  0  0  0
 26 23  1  0  0  0  0
 27 26  1  0  0  0  0
 28 33  1  0  0  0  0
 30 31  1  0  0  0  0
 30 32  1  0  0  0  0
 30 28  1  0  0  0  0
 31 32  1  0  0  0  0
 31 29  1  0  0  0  0
 32 28  1  0  0  0  0
 34 35  1  0  0  0  0
 34 31  1  0  0  0  0
 35 39  1  0  0  0  0
 38 36  1  0  0  0  0
 38 37  1  0  0  0  0
 38 35  1  0  0  0  0
 39 40  1  0  0  0  0
 40 42  1  0  0  0  0
 41 40  2  0  0  0  0
 42 44  1  0  0  0  0
 42 43  1  0  0  0  0
 44 43  1  0  0  0  0
 46 45  2  0  0  0  0
 47 48  1  0  0  0  0
 47 46  1  0  0  0  0
 48 59  1  0  0  0  0
 49 60  1  0  0  0  0
 50 64  1  0  0  0  0
 50 57  1  0  0  0  0
 52 49  1  0  0  0  0
 53 52  2  0  0  0  0
 55 63  1  0  0  0  0
 56 59  1  0  0  0  0
 56 52  1  0  0  0  0
 57 60  1  0  0  0  0
 57 61  1  0  0  0  0
 58 54  2  0  0  0  0
 58 50  1  0  0  0  0
 59 58  1  0  0  0  0
 60 55  1  0  0  0  0
 61 51  1  0  0  0  0
 61 55  1  0  0  0  0
 63 62  1  0  0  0  0
 65 67  1  0  0  0  0
 65 66  1  0  0  0  0
 66 64  1  0  0  0  0
 67 66  1  0  0  0  0
 68 69  1  0  0  0  0
 69 67  1  0  0  0  0
M  END
>  <MODEL>
1

>  <REMARK>
 VINA RESULT:      -6.0      0.000      0.000
  Name = 
  21 active torsions:
  status: ('A' for Active; 'I' for Inactive)
    1  A    between atoms: C_2  and  C_52
    2  A    between atoms: N_3  and  C_42
    3  A    between atoms: C_5  and  C_35
    4  A    between atoms: C_5  and  C_42
    5  A    between atoms: C_6  and  C_33
    6  A    between atoms: C_6  and  N_59
    7  A    between atoms: C_7  and  N_24
    8  A    between atoms: C_7  and  C_43
    9  A    between atoms: C_9  and  C_22
   10  A    between atoms: C_13  and  C_21
   11  A    between atoms: C_15  and  C_16
   12  A    between atoms: C_15  and  C_62
   13  A    between atoms: C_16  and  C_52
   14  A    between atoms: C_17  and  C_21
   15  A    between atoms: C_18  and  C_63
   16  A    between atoms: C_19  and  O_45
   17  A    between atoms: C_20  and  O_45
   18  A    between atoms: C_33  and  C_43
   19  A    between atoms: C_42  and  C_50
   20  A    between atoms: C_46  and  C_67
   21  A    between atoms: O_64  and  C_69
                            x       y       z     vdW  Elec       q    Type
                         _______ _______ _______ _____ _____    ______ ____

>  <TORSDO>
F 21

$$$$
=
 OpenBabel11062418403D

 69 76  0  0  1  0  0  0  0  0999 V2000
  194.5720  174.6900  143.1460 C   0  0  0  0  0  2  0  0  0  0  0  0
  194.6430  175.7370  142.0170 C   0  0  2  0  0  0  0  0  0  0  0  0
  197.1920  175.4120  142.5880 C   0  0  1  0  0  3  0  0  0  0  0  0
  196.0980  176.3050  141.9770 C   0  0  1  0  0  3  0  0  0  0  0  0
  196.4960  176.8870  140.7730 O   0  0  0  0  0  1  0  0  0  0  0  0
  196.7960  174.8990  143.9800 C   0  0  0  0  0  2  0  0  0  0  0  0
  195.3780  175.0990  144.2930 N   0  0  0  0  0  2  0  0  0  0  0  0
  197.5650  172.9660  142.1700 O   0  0  0  0  0  1  0  0  0  0  0  0
  197.9400  174.5020  140.5160 O   0  0  0  0  0  0  0  0  0  0  0  0
  197.5820  174.2720  141.6990 C   0  0  0  0  0  0  0  0  0  0  0  0
  192.5290  176.7240  143.1670 C   0  0  0  0  0  0  0  0  0  0  0  0
  193.7320  176.8220  142.3920 N   0  0  0  0  0  2  0  0  0  0  0  0
  191.7610  177.7220  143.2280 O   0  0  0  0  0  0  0  0  0  0  0  0
  192.1400  175.4520  143.8570 C   0  0  0  0  0  2  0  0  0  0  0  0
  191.8940  175.2710  147.6550 C   0  0  0  0  0  3  0  0  0  0  0  0
  191.7030  175.6770  145.2710 C   0  0  0  0  0  0  0  0  0  0  0  0
  192.3180  175.0150  146.3480 C   0  0  0  0  0  0  0  0  0  0  0  0
  193.3560  174.1120  146.1330 O   0  0  0  0  0  1  0  0  0  0  0  0
  190.6510  176.5680  145.5130 C   0  0  0  0  0  3  0  0  0  0  0  0
  190.2090  176.8080  146.8170 C   0  0  0  0  0  0  0  0  0  0  0  0
  190.8480  176.1690  147.8900 C   0  0  0  0  0  3  0  0  0  0  0  0
  189.1000  177.7910  147.0320 C   0  0  0  0  0  2  0  0  0  0  0  0
  187.7470  177.2580  146.5590 C   0  0  1  0  0  3  0  0  0  0  0  0
  187.7280  175.8700  146.7060 O   0  0  0  0  0  1  0  0  0  0  0  0
  185.9020  176.9320  148.2420 C   0  0  0  0  0  1  0  0  0  0  0  0
  186.5470  177.9150  147.2760 C   0  0  0  0  0  0  0  0  0  0  0  0
  187.0380  179.1110  148.0910 C   0  0  0  0  0  1  0  0  0  0  0  0
  185.4940  178.3430  146.2210 C   0  0  1  0  0  0  0  0  0  0  0  0
  183.8940  179.0760  143.6880 O   0  0  0  0  0  1  0  0  0  0  0  0
  185.8700  179.3270  145.1310 C   0  0  2  0  0  3  0  0  0  0  0  0
  185.2730  178.8950  143.8120 C   0  0  1  0  0  0  0  0  0  0  0  0
  185.6720  177.8320  144.8070 C   0  0  2  0  0  3  0  0  0  0  0  0
  184.1550  178.4190  146.6190 O   0  0  0  0  0  1  0  0  0  0  0  0
  186.1370  178.9870  142.5640 C   0  0  0  0  0  2  0  0  0  0  0  0
  185.9330  177.7700  141.6600 C   0  0  1  0  0  3  0  0  0  0  0  0
  184.0630  177.9790  140.1510 O   0  0  0  0  0  1  0  0  0  0  0  0
  186.1700  177.4040  139.1850 C   0  0  0  0  0  1  0  0  0  0  0  0
  185.4420  178.1760  140.2710 C   0  0  2  0  0  3  0  0  0  0  0  0
  187.1720  177.0110  141.5460 N   0  0  0  0  0  2  0  0  0  0  0  0
  187.3330  175.7300  142.1590 C   0  0  0  0  0  0  0  0  0  0  0  0
  186.4030  175.2320  142.8510 O   0  0  0  0  0  0  0  0  0  0  0  0
  188.6430  175.0140  142.0490 C   0  0  0  0  0  3  0  0  0  0  0  0
  188.4310  173.5180  142.1970 C   0  0  0  0  0  2  0  0  0  0  0  0
  188.9700  174.3200  143.3610 C   0  0  0  0  0  2  0  0  0  0  0  0
  194.9050  175.1330  139.6250 C   0  0  0  0  0  2  0  0  0  0  0  0
  194.1510  175.0620  140.7290 C   0  0  0  0  0  0  0  0  0  0  0  0
  192.9950  174.1030  140.6960 C   0  0  0  0  0  2  0  0  0  0  0  0
  192.5940  173.7610  139.2700 C   0  0  0  0  0  2  0  0  0  0  0  0
  189.5800  171.7200  137.2920 C   0  0  0  0  0  2  0  0  0  0  0  0
  191.6800  169.9880  139.4630 C   0  0  2  0  0  3  0  0  0  0  0  0
  192.4390  168.3320  137.2080 O   0  0  0  0  0  1  0  0  0  0  0  0
  189.4030  172.3120  138.6710 C   0  0  0  0  0  0  0  0  0  0  0  0
  188.1640  172.5430  139.0770 C   0  0  0  0  0  2  0  0  0  0  0  0
  193.7340  171.2040  139.3520 O   0  0  0  0  0  0  0  0  0  0  0  0
  190.8270  169.7900  136.1100 C   0  0  2  0  0  3  0  0  0  0  0  0
  190.4540  172.6580  139.5440 O   0  0  0  0  0  0  0  0  0  0  0  0
  190.7520  169.7270  138.2510 C   0  0  1  0  0  3  0  0  0  0  0  0
  192.4760  171.2630  139.3740 C   0  0  0  0  0  0  0  0  0  0  0  0
  191.8040  172.5370  139.2480 N   0  0  0  0  0  0  0  0  0  0  0  0
  190.8020  170.8300  137.2120 C   0  0  2  0  0  3  0  0  0  0  0  0
  191.0860  168.6990  137.1670 C   0  0  2  0  0  3  0  0  0  0  0  0
  192.0220  171.5010  134.7710 C   0  0  0  0  0  1  0  0  0  0  0  0
  191.9880  170.0380  135.1510 C   0  0  0  0  0  2  0  0  0  0  0  0
  192.4800  168.8890  139.8220 O   0  0  0  0  0  0  0  0  0  0  0  0
  191.5380  169.5160  141.8320 O   0  0  0  0  0  0  0  0  0  0  0  0
  192.0010  168.4330  141.0580 C   0  0  2  0  0  3  0  0  0  0  0  0
  192.8180  169.0160  142.1460 C   0  0  2  0  0  3  0  0  0  0  0  0
  192.6800  169.0720  144.3580 C   0  0  0  0  0  1  0  0  0  0  0  0
  192.7390  168.1930  143.2710 O   0  0  0  0  0  0  0  0  0  0  0  0
  1  7  1  0  0  0  0
  2 46  1  6  0  0  0
  2 12  1  0  0  0  0
  2  1  1  0  0  0  0
  3 10  1  6  0  0  0
  3  6  1  0  0  0  0
  4  5  1  6  0  0  0
  4  2  1  0  0  0  0
  4  3  1  0  0  0  0
  6  7  1  0  0  0  0
  9 10  2  0  0  0  0
 10  8  1  0  0  0  0
 11 13  2  0  0  0  0
 11 14  1  0  0  0  0
 12 11  1  0  0  0  0
 14 16  1  0  0  0  0
 15 21  1  0  0  0  0
 16 19  2  0  0  0  0
 16 17  1  0  0  0  0
 17 15  2  0  0  0  0
 18 17  1  0  0  0  0
 19 20  1  0  0  0  0
 20 22  1  0  0  0  0
 20 21  2  0  0  0  0
 23 24  1  1  0  0  0
 23 22  1  0  0  0  0
 23 26  1  0  0  0  0
 26 27  1  0  0  0  0
 26 25  1  0  0  0  0
 28 33  1  0  0  0  0
 28 26  1  0  0  0  0
 29 31  1  0  0  0  0
 30 28  1  0  0  0  0
 31 32  1  0  0  0  0
 31 30  1  0  0  0  0
 32 30  1  0  0  0  0
 32 28  1  0  0  0  0
 34 31  1  0  0  0  0
 35 34  1  0  0  0  0
 36 38  1  0  0  0  0
 37 38  1  0  0  0  0
 38 35  1  0  0  0  0
 39 35  1  0  0  0  0
 39 40  1  0  0  0  0
 40 41  2  0  0  0  0
 42 40  1  0  0  0  0
 42 43  1  0  0  0  0
 42 44  1  0  0  0  0
 43 44  1  0  0  0  0
 45 46  2  0  0  0  0
 47 46  1  0  0  0  0
 48 47  1  0  0  0  0
 49 52  1  0  0  0  0
 50 64  1  0  0  0  0
 52 53  2  0  0  0  0
 52 56  1  0  0  0  0
 54 58  2  0  0  0  0
 55 61  1  0  0  0  0
 55 60  1  0  0  0  0
 57 50  1  0  0  0  0
 58 50  1  0  0  0  0
 59 48  1  0  0  0  0
 59 58  1  0  0  0  0
 59 56  1  0  0  0  0
 60 49  1  0  0  0  0
 60 57  1  0  0  0  0
 61 51  1  0  0  0  0
 61 57  1  0  0  0  0
 62 63  1  0  0  0  0
 63 55  1  0  0  0  0
 64 66  1  0  0  0  0
 65 67  1  0  0  0  0
 66 65  1  0  0  0  0
 66 67  1  0  0  0  0
 67 69  1  0  0  0  0
 69 68  1  0  0  0  0
M  END
>  <MODEL>
2

>  <REMARK>
 VINA RESULT:      -5.3      2.457      9.465
  Name = 
  21 active torsions:
  status: ('A' for Active; 'I' for Inactive)
    1  A    between atoms: C_2  and  C_52
    2  A    between atoms: N_3  and  C_42
    3  A    between atoms: C_5  and  C_35
    4  A    between atoms: C_5  and  C_42
    5  A    between atoms: C_6  and  C_33
    6  A    between atoms: C_6  and  N_59
    7  A    between atoms: C_7  and  N_24
    8  A    between atoms: C_7  and  C_43
    9  A    between atoms: C_9  and  C_22
   10  A    between atoms: C_13  and  C_21
   11  A    between atoms: C_15  and  C_16
   12  A    between atoms: C_15  and  C_62
   13  A    between atoms: C_16  and  C_52
   14  A    between atoms: C_17  and  C_21
   15  A    between atoms: C_18  and  C_63
   16  A    between atoms: C_19  and  O_45
   17  A    between atoms: C_20  and  O_45
   18  A    between atoms: C_33  and  C_43
   19  A    between atoms: C_42  and  C_50
   20  A    between atoms: C_46  and  C_67
   21  A    between atoms: O_64  and  C_69
                            x       y       z     vdW  Elec       q    Type
                         _______ _______ _______ _____ _____    ______ ____

>  <TORSDO>
F 21

$$$$
=
 OpenBabel11062418403D

 69 76  0  0  1  0  0  0  0  0999 V2000
  193.9740  170.1090  137.9220 C   0  0  0  0  0  2  0  0  0  0  0  0
  195.0990  171.0110  138.4700 C   0  0  2  0  0  0  0  0  0  0  0  0
  196.3900  169.6150  136.6500 C   0  0  1  0  0  3  0  0  0  0  0  0
  196.4590  170.4660  137.9300 C   0  0  1  0  0  3  0  0  0  0  0  0
  197.5180  171.3750  137.9080 O   0  0  0  0  0  1  0  0  0  0  0  0
  195.3150  168.5230  136.7520 C   0  0  0  0  0  2  0  0  0  0  0  0
  194.3970  168.7130  137.8780 N   0  0  0  0  0  2  0  0  0  0  0  0
  194.9170  170.7370  134.9570 O   0  0  0  0  0  1  0  0  0  0  0  0
  197.1960  170.8390  134.7710 O   0  0  0  0  0  0  0  0  0  0  0  0
  196.1930  170.4330  135.4120 C   0  0  0  0  0  0  0  0  0  0  0  0
  195.9190  171.5310  140.8830 C   0  0  0  0  0  0  0  0  0  0  0  0
  195.0840  170.8610  139.9280 N   0  0  0  0  0  2  0  0  0  0  0  0
  195.9090  171.1380  142.0810 O   0  0  0  0  0  0  0  0  0  0  0  0
  196.8380  172.6440  140.4800 C   0  0  0  0  0  2  0  0  0  0  0  0
  196.4480  176.4020  140.9650 C   0  0  0  0  0  3  0  0  0  0  0  0
  196.3730  173.9780  140.9740 C   0  0  0  0  0  0  0  0  0  0  0  0
  196.9270  175.1770  140.4930 C   0  0  0  0  0  0  0  0  0  0  0  0
  197.9410  175.1640  139.5390 O   0  0  0  0  0  1  0  0  0  0  0  0
  195.3650  174.0190  141.9450 C   0  0  0  0  0  3  0  0  0  0  0  0
  194.9020  175.2420  142.4370 C   0  0  0  0  0  0  0  0  0  0  0  0
  195.4350  176.4360  141.9280 C   0  0  0  0  0  3  0  0  0  0  0  0
  193.8030  175.2400  143.4540 C   0  0  0  0  0  2  0  0  0  0  0  0
  193.9180  176.4000  144.4420 C   0  0  1  0  0  3  0  0  0  0  0  0
  192.9610  177.3670  144.1240 O   0  0  0  0  0  1  0  0  0  0  0  0
  194.7980  174.8500  146.2210 C   0  0  0  0  0  1  0  0  0  0  0  0
  193.8020  175.9600  145.9180 C   0  0  0  0  0  0  0  0  0  0  0  0
  194.1360  177.1430  146.8260 C   0  0  0  0  0  1  0  0  0  0  0  0
  192.3680  175.4320  146.1820 C   0  0  1  0  0  0  0  0  0  0  0  0
  189.3330  174.9960  146.5190 O   0  0  0  0  0  1  0  0  0  0  0  0
  191.3870  176.2680  146.9800 C   0  0  2  0  0  3  0  0  0  0  0  0
  190.0150  176.2030  146.3500 C   0  0  1  0  0  0  0  0  0  0  0  0
  191.2260  176.1110  145.4540 C   0  0  2  0  0  3  0  0  0  0  0  0
  192.1900  174.0520  146.3280 O   0  0  0  0  0  1  0  0  0  0  0  0
  189.2100  177.4880  146.2400 C   0  0  0  0  0  2  0  0  0  0  0  0
  187.7100  177.2100  146.3370 C   0  0  1  0  0  3  0  0  0  0  0  0
  186.0560  176.6160  147.9900 O   0  0  0  0  0  1  0  0  0  0  0  0
  186.8780  178.8570  148.0440 C   0  0  0  0  0  1  0  0  0  0  0  0
  187.1920  177.3980  147.7630 C   0  0  2  0  0  3  0  0  0  0  0  0
  186.9750  178.0760  145.4240 N   0  0  0  0  0  2  0  0  0  0  0  0
  186.1790  177.5510  144.3590 C   0  0  0  0  0  0  0  0  0  0  0  0
  186.1180  176.3060  144.1620 O   0  0  0  0  0  0  0  0  0  0  0  0
  185.4820  178.4870  143.4220 C   0  0  0  0  0  3  0  0  0  0  0  0
  185.5800  179.9100  143.9420 C   0  0  0  0  0  2  0  0  0  0  0  0
  184.2940  179.1330  144.1160 C   0  0  0  0  0  2  0  0  0  0  0  0
  195.7160  173.2470  137.5890 C   0  0  0  0  0  2  0  0  0  0  0  0
  194.7570  172.4590  138.0890 C   0  0  0  0  0  0  0  0  0  0  0  0
  193.3470  172.9730  138.0010 C   0  0  0  0  0  2  0  0  0  0  0  0
  192.9520  173.7360  139.2540 C   0  0  0  0  0  2  0  0  0  0  0  0
  191.1520  170.3340  140.7850 C   0  0  0  0  0  2  0  0  0  0  0  0
  189.6980  173.4450  141.3600 C   0  0  2  0  0  3  0  0  0  0  0  0
  190.0060  172.9250  144.1950 O   0  0  0  0  0  1  0  0  0  0  0  0
  190.7850  170.9230  139.4430 C   0  0  0  0  0  0  0  0  0  0  0  0
  190.1890  170.1240  138.5720 C   0  0  0  0  0  2  0  0  0  0  0  0
  191.5570  174.9450  141.3600 O   0  0  0  0  0  0  0  0  0  0  0  0
  190.9190  170.8500  143.3060 C   0  0  2  0  0  3  0  0  0  0  0  0
  191.0520  172.2480  139.0420 O   0  0  0  0  0  0  0  0  0  0  0  0
  189.7250  172.0190  141.9640 C   0  0  1  0  0  3  0  0  0  0  0  0
  191.0270  173.9260  140.8430 C   0  0  0  0  0  0  0  0  0  0  0  0
  191.7200  173.1910  139.8090 N   0  0  0  0  0  0  0  0  0  0  0  0
  191.0920  171.3650  141.8910 C   0  0  2  0  0  3  0  0  0  0  0  0
  189.6900  171.7650  143.4730 C   0  0  2  0  0  3  0  0  0  0  0  0
  193.1780  170.1560  144.0570 C   0  0  0  0  0  1  0  0  0  0  0  0
  192.1180  171.2270  144.1740 C   0  0  0  0  0  2  0  0  0  0  0  0
  189.0690  174.4020  142.1740 O   0  0  0  0  0  0  0  0  0  0  0  0
  187.9960  174.8440  140.1790 O   0  0  0  0  0  0  0  0  0  0  0  0
  187.8360  174.6900  141.5710 C   0  0  2  0  0  3  0  0  0  0  0  0
  187.9000  176.0280  140.9390 C   0  0  2  0  0  3  0  0  0  0  0  0
  186.7790  177.8310  140.3040 C   0  0  0  0  0  1  0  0  0  0  0  0
  186.6080  176.5490  140.8360 O   0  0  0  0  0  0  0  0  0  0  0  0
  1  2  1  0  0  0  0
  2 46  1  6  0  0  0
  2 12  1  0  0  0  0
  3 10  1  6  0  0  0
  3  6  1  0  0  0  0
  3  4  1  0  0  0  0
  4  5  1  6  0  0  0
  4  2  1  0  0  0  0
  6  7  1  0  0  0  0
  7  1  1  0  0  0  0
  8 10  1  0  0  0  0
  9 10  2  0  0  0  0
 11 13  2  0  0  0  0
 12 11  1  0  0  0  0
 14 11  1  0  0  0  0
 14 16  1  0  0  0  0
 15 21  1  0  0  0  0
 16 19  2  0  0  0  0
 17 15  2  0  0  0  0
 17 16  1  0  0  0  0
 18 17  1  0  0  0  0
 19 20  1  0  0  0  0
 20 22  1  0  0  0  0
 21 20  2  0  0  0  0
 22 23  1  0  0  0  0
 23 24  1  6  0  0  0
 23 26  1  0  0  0  0
 26 28  1  0  0  0  0
 26 25  1  0  0  0  0
 26 27  1  0  0  0  0
 28 33  1  0  0  0  0
 28 30  1  0  0  0  0
 31 29  1  0  0  0  0
 31 30  1  0  0  0  0
 32 28  1  0  0  0  0
 32 31  1  0  0  0  0
 32 30  1  0  0  0  0
 34 35  1  0  0  0  0
 34 31  1  0  0  0  0
 35 38  1  0  0  0  0
 38 36  1  0  0  0  0
 38 37  1  0  0  0  0
 39 35  1  0  0  0  0
 40 39  1  0  0  0  0
 41 40  2  0  0  0  0
 42 43  1  0  0  0  0
 42 44  1  0  0  0  0
 42 40  1  0  0  0  0
 43 44  1  0  0  0  0
 45 46  2  0  0  0  0
 47 46  1  0  0  0  0
 47 48  1  0  0  0  0
 48 59  1  0  0  0  0
 49 60  1  0  0  0  0
 50 57  1  0  0  0  0
 50 64  1  0  0  0  0
 52 49  1  0  0  0  0
 53 52  2  0  0  0  0
 55 61  1  0  0  0  0
 55 63  1  0  0  0  0
 56 52  1  0  0  0  0
 56 59  1  0  0  0  0
 57 61  1  0  0  0  0
 58 54  2  0  0  0  0
 58 50  1  0  0  0  0
 59 58  1  0  0  0  0
 60 57  1  0  0  0  0
 60 55  1  0  0  0  0
 61 51  1  0  0  0  0
 62 63  1  0  0  0  0
 65 67  1  0  0  0  0
 65 66  1  0  0  0  0
 66 64  1  0  0  0  0
 67 66  1  0  0  0  0
 68 69  1  0  0  0  0
 69 67  1  0  0  0  0
M  END
>  <MODEL>
3

>  <REMARK>
 VINA RESULT:      -5.0      2.437      7.948
  Name = 
  21 active torsions:
  status: ('A' for Active; 'I' for Inactive)
    1  A    between atoms: C_2  and  C_52
    2  A    between atoms: N_3  and  C_42
    3  A    between atoms: C_5  and  C_35
    4  A    between atoms: C_5  and  C_42
    5  A    between atoms: C_6  and  C_33
    6  A    between atoms: C_6  and  N_59
    7  A    between atoms: C_7  and  N_24
    8  A    between atoms: C_7  and  C_43
    9  A    between atoms: C_9  and  C_22
   10  A    between atoms: C_13  and  C_21
   11  A    between atoms: C_15  and  C_16
   12  A    between atoms: C_15  and  C_62
   13  A    between atoms: C_16  and  C_52
   14  A    between atoms: C_17  and  C_21
   15  A    between atoms: C_18  and  C_63
   16  A    between atoms: C_19  and  O_45
   17  A    between atoms: C_20  and  O_45
   18  A    between atoms: C_33  and  C_43
   19  A    between atoms: C_42  and  C_50
   20  A    between atoms: C_46  and  C_67
   21  A    between atoms: O_64  and  C_69
                            x       y       z     vdW  Elec       q    Type
                         _______ _______ _______ _____ _____    ______ ____

>  <TORSDO>
F 21

$$$$
=
 OpenBabel11062418403D

 69 76  0  0  1  0  0  0  0  0999 V2000
  194.6810  174.1810  143.2710 C   0  0  0  0  0  2  0  0  0  0  0  0
  194.8260  175.1750  142.1010 C   0  0  2  0  0  0  0  0  0  0  0  0
  197.3290  174.4610  142.4900 C   0  0  1  0  0  3  0  0  0  0  0  0
  196.3440  175.5020  141.9310 C   0  0  1  0  0  3  0  0  0  0  0  0
  196.7310  175.9820  140.6790 O   0  0  0  0  0  1  0  0  0  0  0  0
  196.9700  174.0530  143.9260 C   0  0  0  0  0  2  0  0  0  0  0  0
  195.6310  174.4850  144.3370 N   0  0  0  0  0  2  0  0  0  0  0  0
  197.5080  171.9790  142.1710 O   0  0  0  0  0  1  0  0  0  0  0  0
  197.5460  173.3920  140.3710 O   0  0  0  0  0  0  0  0  0  0  0  0
  197.4630  173.2510  141.6180 C   0  0  0  0  0  0  0  0  0  0  0  0
  192.8400  176.5100  143.1210 C   0  0  0  0  0  0  0  0  0  0  0  0
  194.1300  176.4000  142.5020 N   0  0  0  0  0  2  0  0  0  0  0  0
  192.3070  177.6480  143.2180 O   0  0  0  0  0  0  0  0  0  0  0  0
  192.0950  175.3030  143.6030 C   0  0  0  0  0  2  0  0  0  0  0  0
  191.1880  175.2670  147.3030 C   0  0  0  0  0  3  0  0  0  0  0  0
  191.3920  175.5430  144.9020 C   0  0  0  0  0  0  0  0  0  0  0  0
  191.8620  174.9980  146.1090 C   0  0  0  0  0  0  0  0  0  0  0  0
  193.0030  174.2000  146.1350 O   0  0  0  0  0  1  0  0  0  0  0  0
  190.2330  176.3300  144.9010 C   0  0  0  0  0  3  0  0  0  0  0  0
  189.5430  176.5800  146.0900 C   0  0  0  0  0  0  0  0  0  0  0  0
  190.0370  176.0600  147.2950 C   0  0  0  0  0  3  0  0  0  0  0  0
  188.3250  177.4500  146.0460 C   0  0  0  0  0  2  0  0  0  0  0  0
  187.1030  176.7760  146.6720 C   0  0  1  0  0  3  0  0  0  0  0  0
  187.5320  175.8450  147.6200 O   0  0  0  0  0  1  0  0  0  0  0  0
  185.2590  177.1010  148.3560 C   0  0  0  0  0  1  0  0  0  0  0  0
  186.0980  177.7780  147.2820 C   0  0  0  0  0  0  0  0  0  0  0  0
  186.8650  178.9220  147.9460 C   0  0  0  0  0  1  0  0  0  0  0  0
  185.1570  178.3010  146.1670 C   0  0  1  0  0  0  0  0  0  0  0  0
  183.7880  179.1710  143.5420 O   0  0  0  0  0  1  0  0  0  0  0  0
  185.6920  179.2350  145.0990 C   0  0  2  0  0  3  0  0  0  0  0  0
  185.1330  178.8550  143.7470 C   0  0  1  0  0  0  0  0  0  0  0  0
  185.3650  177.7650  144.7660 C   0  0  2  0  0  3  0  0  0  0  0  0
  183.8110  178.5120  146.4840 O   0  0  0  0  0  1  0  0  0  0  0  0
  186.0740  178.8520  142.5530 C   0  0  0  0  0  2  0  0  0  0  0  0
  185.8720  177.6030  141.6940 C   0  0  1  0  0  3  0  0  0  0  0  0
  184.2480  177.4940  139.9150 O   0  0  0  0  0  1  0  0  0  0  0  0
  186.5490  177.4000  139.2820 C   0  0  0  0  0  1  0  0  0  0  0  0
  185.5220  177.9600  140.2510 C   0  0  2  0  0  3  0  0  0  0  0  0
  187.0690  176.7710  141.7230 N   0  0  0  0  0  2  0  0  0  0  0  0
  187.1810  175.6360  142.5850 C   0  0  0  0  0  0  0  0  0  0  0  0
  186.2440  175.3420  143.3770 O   0  0  0  0  0  0  0  0  0  0  0  0
  188.4500  174.8450  142.6080 C   0  0  0  0  0  3  0  0  0  0  0  0
  188.9800  174.6710  141.1950 C   0  0  0  0  0  2  0  0  0  0  0  0
  188.2580  173.5270  141.8740 C   0  0  0  0  0  2  0  0  0  0  0  0
  194.2400  175.1580  139.6900 C   0  0  0  0  0  2  0  0  0  0  0  0
  194.1320  174.5540  140.8790 C   0  0  0  0  0  0  0  0  0  0  0  0
  193.5500  173.1690  140.8820 C   0  0  0  0  0  2  0  0  0  0  0  0
  194.3990  172.2050  140.0710 C   0  0  0  0  0  2  0  0  0  0  0  0
  190.5320  170.8180  139.5440 C   0  0  0  0  0  2  0  0  0  0  0  0
  192.8570  170.4170  136.9840 C   0  0  2  0  0  3  0  0  0  0  0  0
  191.0880  171.9830  135.3030 O   0  0  0  0  0  1  0  0  0  0  0  0
  191.6500  169.9500  140.0730 C   0  0  0  0  0  0  0  0  0  0  0  0
  191.3080  168.8710  140.7590 C   0  0  0  0  0  2  0  0  0  0  0  0
  194.3380  172.2700  137.2720 O   0  0  0  0  0  0  0  0  0  0  0  0
  189.7710  171.9530  137.3510 C   0  0  2  0  0  3  0  0  0  0  0  0
  193.0260  170.2160  139.9110 O   0  0  0  0  0  0  0  0  0  0  0  0
  191.3230  170.4830  137.1940 C   0  0  1  0  0  3  0  0  0  0  0  0
  193.6420  171.3810  137.8320 C   0  0  0  0  0  0  0  0  0  0  0  0
  193.5490  171.3320  139.2740 N   0  0  0  0  0  0  0  0  0  0  0  0
  190.9070  171.4950  138.2440 C   0  0  2  0  0  3  0  0  0  0  0  0
  190.3840  171.1520  136.1860 C   0  0  2  0  0  3  0  0  0  0  0  0
  188.4930  174.0560  137.6530 C   0  0  0  0  0  1  0  0  0  0  0  0
  189.7980  173.4680  137.1670 C   0  0  0  0  0  2  0  0  0  0  0  0
  193.2550  170.4530  135.6360 O   0  0  0  0  0  0  0  0  0  0  0  0
  194.3130  168.5920  136.4960 O   0  0  0  0  0  0  0  0  0  0  0  0
  193.7690  169.1830  135.3380 C   0  0  2  0  0  3  0  0  0  0  0  0
  195.2270  169.1730  135.5940 C   0  0  2  0  0  3  0  0  0  0  0  0
  197.1740  168.1960  135.1790 C   0  0  0  0  0  1  0  0  0  0  0  0
  195.8220  168.1740  134.8190 O   0  0  0  0  0  0  0  0  0  0  0  0
  1  7  1  0  0  0  0
  2 46  1  6  0  0  0
  2 12  1  0  0  0  0
  2  1  1  0  0  0  0
  3 10  1  6  0  0  0
  3  6  1  0  0  0  0
  4  5  1  6  0  0  0
  4  2  1  0  0  0  0
  4  3  1  0  0  0  0
  6  7  1  0  0  0  0
  9 10  2  0  0  0  0
 10  8  1  0  0  0  0
 11 13  2  0  0  0  0
 11 14  1  0  0  0  0
 12 11  1  0  0  0  0
 14 16  1  0  0  0  0
 16 17  1  0  0  0  0
 17 18  1  0  0  0  0
 17 15  2  0  0  0  0
 19 16  2  0  0  0  0
 19 20  1  0  0  0  0
 20 21  2  0  0  0  0
 21 15  1  0  0  0  0
 22 20  1  0  0  0  0
 22 23  1  0  0  0  0
 23 26  1  0  0  0  0
 23 24  1  1  0  0  0
 26 27  1  0  0  0  0
 26 25  1  0  0  0  0
 28 33  1  0  0  0  0
 28 26  1  0  0  0  0
 29 31  1  0  0  0  0
 30 28  1  0  0  0  0
 31 32  1  0  0  0  0
 31 30  1  0  0  0  0
 32 30  1  0  0  0  0
 32 28  1  0  0  0  0
 34 31  1  0  0  0  0
 35 39  1  0  0  0  0
 35 34  1  0  0  0  0
 36 38  1  0  0  0  0
 37 38  1  0  0  0  0
 38 35  1  0  0  0  0
 39 40  1  0  0  0  0
 40 42  1  0  0  0  0
 40 41  2  0  0  0  0
 43 44  1  0  0  0  0
 43 42  1  0  0  0  0
 44 42  1  0  0  0  0
 45 46  2  0  0  0  0
 46 47  1  0  0  0  0
 48 47  1  0  0  0  0
 49 52  1  0  0  0  0
 50 57  1  0  0  0  0
 50 58  1  0  0  0  0
 51 61  1  0  0  0  0
 52 53  2  0  0  0  0
 54 58  2  0  0  0  0
 55 60  1  0  0  0  0
 56 52  1  0  0  0  0
 57 60  1  0  0  0  0
 58 59  1  0  0  0  0
 59 56  1  0  0  0  0
 59 48  1  0  0  0  0
 60 49  1  0  0  0  0
 61 57  1  0  0  0  0
 61 55  1  0  0  0  0
 63 55  1  0  0  0  0
 63 62  1  0  0  0  0
 64 50  1  0  0  0  0
 66 67  1  0  0  0  0
 66 64  1  0  0  0  0
 66 65  1  0  0  0  0
 67 65  1  0  0  0  0
 69 68  1  0  0  0  0
 69 67  1  0  0  0  0
M  END
>  <MODEL>
4

>  <REMARK>
 VINA RESULT:      -4.8      2.384      9.699
  Name = 
  21 active torsions:
  status: ('A' for Active; 'I' for Inactive)
    1  A    between atoms: C_2  and  C_52
    2  A    between atoms: N_3  and  C_42
    3  A    between atoms: C_5  and  C_35
    4  A    between atoms: C_5  and  C_42
    5  A    between atoms: C_6  and  C_33
    6  A    between atoms: C_6  and  N_59
    7  A    between atoms: C_7  and  N_24
    8  A    between atoms: C_7  and  C_43
    9  A    between atoms: C_9  and  C_22
   10  A    between atoms: C_13  and  C_21
   11  A    between atoms: C_15  and  C_16
   12  A    between atoms: C_15  and  C_62
   13  A    between atoms: C_16  and  C_52
   14  A    between atoms: C_17  and  C_21
   15  A    between atoms: C_18  and  C_63
   16  A    between atoms: C_19  and  O_45
   17  A    between atoms: C_20  and  O_45
   18  A    between atoms: C_33  and  C_43
   19  A    between atoms: C_42  and  C_50
   20  A    between atoms: C_46  and  C_67
   21  A    between atoms: O_64  and  C_69
                            x       y       z     vdW  Elec       q    Type
                         _______ _______ _______ _____ _____    ______ ____

>  <TORSDO>
F 21

$$$$
=
 OpenBabel11062418403D

 69 76  0  0  1  0  0  0  0  0999 V2000
  195.0960  174.2120  143.9180 C   0  0  0  0  0  2  0  0  0  0  0  0
  194.9890  174.7150  142.4650 C   0  0  2  0  0  0  0  0  0  0  0  0
  197.5950  174.4790  142.7420 C   0  0  1  0  0  3  0  0  0  0  0  0
  196.4190  175.1230  141.9890 C   0  0  1  0  0  3  0  0  0  0  0  0
  196.6210  175.1490  140.6080 O   0  0  0  0  0  1  0  0  0  0  0  0
  197.4250  174.5910  144.2640 C   0  0  0  0  0  2  0  0  0  0  0  0
  196.0750  174.9910  144.6710 N   0  0  0  0  0  2  0  0  0  0  0  0
  197.9380  172.7010  141.0060 O   0  0  0  0  0  0  0  0  0  0  0  0
  197.9410  172.1720  143.2330 O   0  0  0  0  0  1  0  0  0  0  0  0
  197.8380  173.0560  142.3440 C   0  0  0  0  0  0  0  0  0  0  0  0
  192.8790  176.0780  143.1450 C   0  0  0  0  0  0  0  0  0  0  0  0
  194.1490  175.9160  142.4970 N   0  0  0  0  0  2  0  0  0  0  0  0
  192.2020  177.1140  142.9060 O   0  0  0  0  0  0  0  0  0  0  0  0
  192.3200  175.0240  144.0510 C   0  0  0  0  0  2  0  0  0  0  0  0
  191.8750  175.8730  147.7380 C   0  0  0  0  0  3  0  0  0  0  0  0
  191.7890  175.5900  145.3300 C   0  0  0  0  0  0  0  0  0  0  0  0
  192.3890  175.3050  146.5690 C   0  0  0  0  0  0  0  0  0  0  0  0
  193.5000  174.4700  146.6490 O   0  0  0  0  0  1  0  0  0  0  0  0
  190.6620  176.4200  145.2790 C   0  0  0  0  0  3  0  0  0  0  0  0
  190.1320  176.9700  146.4490 C   0  0  0  0  0  0  0  0  0  0  0  0
  190.7540  176.7080  147.6780 C   0  0  0  0  0  3  0  0  0  0  0  0
  188.9430  177.8750  146.3440 C   0  0  0  0  0  2  0  0  0  0  0  0
  188.1190  177.9100  147.6310 C   0  0  1  0  0  3  0  0  0  0  0  0
  188.3520  179.1190  148.2890 O   0  0  0  0  0  1  0  0  0  0  0  0
  186.2720  176.2010  147.5270 C   0  0  0  0  0  1  0  0  0  0  0  0
  186.6100  177.6790  147.3980 C   0  0  0  0  0  0  0  0  0  0  0  0
  185.8130  178.4310  148.4640 C   0  0  0  0  0  1  0  0  0  0  0  0
  186.2350  178.1560  145.9710 C   0  0  1  0  0  0  0  0  0  0  0  0
  185.4870  178.4490  142.9920 O   0  0  0  0  0  1  0  0  0  0  0  0
  186.9520  177.5780  144.7660 C   0  0  2  0  0  3  0  0  0  0  0  0
  185.9670  177.3150  143.6510 C   0  0  1  0  0  0  0  0  0  0  0  0
  185.4950  177.1810  145.0790 C   0  0  2  0  0  3  0  0  0  0  0  0
  185.8220  179.4820  145.8050 O   0  0  0  0  0  1  0  0  0  0  0  0
  186.0890  176.0140  142.8730 C   0  0  0  0  0  2  0  0  0  0  0  0
  187.2220  176.0880  141.8480 C   0  0  1  0  0  3  0  0  0  0  0  0
  187.3950  177.8440  140.2040 O   0  0  0  0  0  1  0  0  0  0  0  0
  189.0720  177.7880  141.9030 C   0  0  0  0  0  1  0  0  0  0  0  0
  187.6180  177.5330  141.5480 C   0  0  2  0  0  3  0  0  0  0  0  0
  188.3810  175.3440  142.3220 N   0  0  0  0  0  2  0  0  0  0  0  0
  188.6580  174.0130  141.8800 C   0  0  0  0  0  0  0  0  0  0  0  0
  187.8740  173.4290  141.0820 O   0  0  0  0  0  0  0  0  0  0  0  0
  189.8370  173.2770  142.4350 C   0  0  0  0  0  3  0  0  0  0  0  0
  189.5210  171.7960  142.5450 C   0  0  0  0  0  2  0  0  0  0  0  0
  189.4860  172.6660  143.7810 C   0  0  0  0  0  2  0  0  0  0  0  0
  194.5150  172.3320  141.9600 C   0  0  0  0  0  2  0  0  0  0  0  0
  194.2970  173.6150  141.6460 C   0  0  0  0  0  0  0  0  0  0  0  0
  193.1860  173.8920  140.6740 C   0  0  0  0  0  2  0  0  0  0  0  0
  193.7240  174.2710  139.3040 C   0  0  0  0  0  2  0  0  0  0  0  0
  193.8150  170.4740  137.6510 C   0  0  0  0  0  2  0  0  0  0  0  0
  191.0980  172.5560  137.0090 C   0  0  2  0  0  3  0  0  0  0  0  0
  189.4180  170.5260  138.2180 O   0  0  0  0  0  1  0  0  0  0  0  0
  194.3340  171.6960  136.9300 C   0  0  0  0  0  0  0  0  0  0  0  0
  195.1950  171.4980  135.9440 C   0  0  0  0  0  2  0  0  0  0  0  0
  190.9660  173.9290  138.9600 O   0  0  0  0  0  0  0  0  0  0  0  0
  191.5800  169.4240  138.4140 C   0  0  2  0  0  3  0  0  0  0  0  0
  193.9900  173.0270  137.2420 O   0  0  0  0  0  0  0  0  0  0  0  0
  191.4610  171.0500  137.0220 C   0  0  1  0  0  3  0  0  0  0  0  0
  191.7160  173.3540  138.1260 C   0  0  0  0  0  0  0  0  0  0  0  0
  193.1520  173.4070  138.2800 N   0  0  0  0  0  0  0  0  0  0  0  0
  192.4000  170.6720  138.1520 C   0  0  2  0  0  3  0  0  0  0  0  0
  190.4780  169.9720  137.4870 C   0  0  2  0  0  3  0  0  0  0  0  0
  192.1270  170.1770  140.7130 C   0  0  0  0  0  1  0  0  0  0  0  0
  191.1870  169.3300  139.8860 C   0  0  0  0  0  2  0  0  0  0  0  0
  189.7240  172.8140  136.8700 O   0  0  0  0  0  0  0  0  0  0  0  0
  190.3840  174.4570  135.3910 O   0  0  0  0  0  0  0  0  0  0  0  0
  189.5440  173.3410  135.5830 C   0  0  2  0  0  3  0  0  0  0  0  0
  189.0320  174.7260  135.6870 C   0  0  2  0  0  3  0  0  0  0  0  0
  187.4060  176.0100  134.9000 C   0  0  0  0  0  1  0  0  0  0  0  0
  188.3490  175.0520  134.5140 O   0  0  0  0  0  0  0  0  0  0  0  0
  1  7  1  0  0  0  0
  2 46  1  6  0  0  0
  2 12  1  0  0  0  0
  2  1  1  0  0  0  0
  3 10  1  1  0  0  0
  3  6  1  0  0  0  0
  4  5  1  6  0  0  0
  4  2  1  0  0  0  0
  4  3  1  0  0  0  0
  6  7  1  0  0  0  0
  8 10  2  0  0  0  0
 10  9  1  0  0  0  0
 11 14  1  0  0  0  0
 12 11  1  0  0  0  0
 13 11  2  0  0  0  0
 14 16  1  0  0  0  0
 16 17  1  0  0  0  0
 17 18  1  0  0  0  0
 17 15  2  0  0  0  0
 19 16  2  0  0  0  0
 19 20  1  0  0  0  0
 20 21  2  0  0  0  0
 21 15  1  0  0  0  0
 22 20  1  0  0  0  0
 22 23  1  0  0  0  0
 23 24  1  6  0  0  0
 26 25  1  0  0  0  0
 26 23  1  0  0  0  0
 26 27  1  0  0  0  0
 28 26  1  0  0  0  0
 29 31  1  0  0  0  0
 30 32  1  0  0  0  0
 30 28  1  0  0  0  0
 31 30  1  0  0  0  0
 31 32  1  0  0  0  0
 32 28  1  0  0  0  0
 33 28  1  0  0  0  0
 34 31  1  0  0  0  0
 35 39  1  0  0  0  0
 35 34  1  0  0  0  0
 36 38  1  0  0  0  0
 38 35  1  0  0  0  0
 38 37  1  0  0  0  0
 40 39  1  0  0  0  0
 40 42  1  0  0  0  0
 41 40  2  0  0  0  0
 42 43  1  0  0  0  0
 42 44  1  0  0  0  0
 43 44  1  0  0  0  0
 46 45  2  0  0  0  0
 47 46  1  0  0  0  0
 48 47  1  0  0  0  0
 49 60  1  0  0  0  0
 50 57  1  0  0  0  0
 50 58  1  0  0  0  0
 52 56  1  0  0  0  0
 52 49  1  0  0  0  0
 53 52  2  0  0  0  0
 55 63  1  0  0  0  0
 56 59  1  0  0  0  0
 57 61  1  0  0  0  0
 57 60  1  0  0  0  0
 58 59  1  0  0  0  0
 58 54  2  0  0  0  0
 59 48  1  0  0  0  0
 60 55  1  0  0  0  0
 61 51  1  0  0  0  0
 61 55  1  0  0  0  0
 63 62  1  0  0  0  0
 64 50  1  0  0  0  0
 65 66  1  0  0  0  0
 65 67  1  0  0  0  0
 66 67  1  0  0  0  0
 66 64  1  0  0  0  0
 69 68  1  0  0  0  0
 69 67  1  0  0  0  0
M  END
>  <MODEL>
5

>  <REMARK>
 VINA RESULT:      -4.7      2.129      8.814
  Name = 
  21 active torsions:
  status: ('A' for Active; 'I' for Inactive)
    1  A    between atoms: C_2  and  C_52
    2  A    between atoms: N_3  and  C_42
    3  A    between atoms: C_5  and  C_35
    4  A    between atoms: C_5  and  C_42
    5  A    between atoms: C_6  and  C_33
    6  A    between atoms: C_6  and  N_59
    7  A    between atoms: C_7  and  N_24
    8  A    between atoms: C_7  and  C_43
    9  A    between atoms: C_9  and  C_22
   10  A    between atoms: C_13  and  C_21
   11  A    between atoms: C_15  and  C_16
   12  A    between atoms: C_15  and  C_62
   13  A    between atoms: C_16  and  C_52
   14  A    between atoms: C_17  and  C_21
   15  A    between atoms: C_18  and  C_63
   16  A    between atoms: C_19  and  O_45
   17  A    between atoms: C_20  and  O_45
   18  A    between atoms: C_33  and  C_43
   19  A    between atoms: C_42  and  C_50
   20  A    between atoms: C_46  and  C_67
   21  A    between atoms: O_64  and  C_69
                            x       y       z     vdW  Elec       q    Type
                         _______ _______ _______ _____ _____    ______ ____

>  <TORSDO>
F 21

$$$$
=
 OpenBabel11062418403D

 69 76  0  0  1  0  0  0  0  0999 V2000
  194.2350  176.6120  143.8880 C   0  0  0  0  0  2  0  0  0  0  0  0
  194.8810  175.3550  143.2730 C   0  0  2  0  0  0  0  0  0  0  0  0
  194.9670  174.7800  145.8400 C   0  0  1  0  0  3  0  0  0  0  0  0
  195.5290  174.5300  144.4300 C   0  0  1  0  0  3  0  0  0  0  0  0
  195.7390  173.1740  144.1740 O   0  0  0  0  0  1  0  0  0  0  0  0
  194.8810  176.2800  146.1590 C   0  0  0  0  0  2  0  0  0  0  0  0
  195.0480  177.1360  144.9820 N   0  0  0  0  0  2  0  0  0  0  0  0
  192.5400  174.8560  146.4740 O   0  0  0  0  0  1  0  0  0  0  0  0
  193.5360  172.8750  145.9070 O   0  0  0  0  0  0  0  0  0  0  0  0
  193.6440  174.1170  146.0700 C   0  0  0  0  0  0  0  0  0  0  0  0
  196.9870  175.0410  141.7790 C   0  0  0  0  0  0  0  0  0  0  0  0
  195.9470  175.8230  142.3830 N   0  0  0  0  0  2  0  0  0  0  0  0
  197.9370  175.6350  141.2010 O   0  0  0  0  0  0  0  0  0  0  0  0
  196.9970  173.5460  141.8660 C   0  0  0  0  0  2  0  0  0  0  0  0
  196.1790  171.0200  139.1330 C   0  0  0  0  0  3  0  0  0  0  0  0
  196.8360  172.8920  140.5290 C   0  0  0  0  0  0  0  0  0  0  0  0
  196.3350  171.5850  140.4020 C   0  0  0  0  0  0  0  0  0  0  0  0
  195.9790  170.8440  141.5260 O   0  0  0  0  0  1  0  0  0  0  0  0
  197.2020  173.6090  139.3840 C   0  0  0  0  0  3  0  0  0  0  0  0
  197.0700  173.0390  138.1150 C   0  0  0  0  0  0  0  0  0  0  0  0
  196.5390  171.7460  137.9940 C   0  0  0  0  0  3  0  0  0  0  0  0
  197.4460  173.8530  136.9160 C   0  0  0  0  0  2  0  0  0  0  0  0
  196.7420  175.2090  136.8850 C   0  0  1  0  0  3  0  0  0  0  0  0
  197.6320  176.1730  136.4080 O   0  0  0  0  0  1  0  0  0  0  0  0
  195.2360  176.5350  135.3640 C   0  0  0  0  0  1  0  0  0  0  0  0
  195.4330  175.1990  136.0660 C   0  0  0  0  0  0  0  0  0  0  0  0
  195.5180  174.1180  134.9890 C   0  0  0  0  0  1  0  0  0  0  0  0
  194.2350  174.9540  137.0200 C   0  0  1  0  0  0  0  0  0  0  0  0
  191.6750  174.0110  138.4600 O   0  0  0  0  0  1  0  0  0  0  0  0
  192.8280  174.8680  136.4630 C   0  0  2  0  0  3  0  0  0  0  0  0
  192.0660  173.7550  137.1430 C   0  0  1  0  0  0  0  0  0  0  0  0
  193.5560  173.6020  136.9580 C   0  0  2  0  0  3  0  0  0  0  0  0
  194.3040  175.4810  138.3140 O   0  0  0  0  0  1  0  0  0  0  0  0
  191.1980  172.8460  136.2870 C   0  0  0  0  0  2  0  0  0  0  0  0
  191.2360  171.4050  136.7980 C   0  0  1  0  0  3  0  0  0  0  0  0
  193.0330  170.9450  135.2570 O   0  0  0  0  0  1  0  0  0  0  0  0
  190.8500  170.2190  134.6160 C   0  0  0  0  0  1  0  0  0  0  0  0
  191.8250  170.4530  135.7570 C   0  0  2  0  0  3  0  0  0  0  0  0
  192.0050  171.3260  138.0330 N   0  0  0  0  0  2  0  0  0  0  0  0
  191.8440  170.2470  138.9570 C   0  0  0  0  0  0  0  0  0  0  0  0
  190.9960  169.3400  138.7360 O   0  0  0  0  0  0  0  0  0  0  0  0
  192.6260  170.2410  140.2330 C   0  0  0  0  0  3  0  0  0  0  0  0
  192.4940  168.8910  140.9160 C   0  0  0  0  0  2  0  0  0  0  0  0
  191.6890  170.0690  141.4180 C   0  0  0  0  0  2  0  0  0  0  0  0
  193.6160  173.3170  142.6350 C   0  0  0  0  0  2  0  0  0  0  0  0
  193.7990  174.6310  142.4580 C   0  0  0  0  0  0  0  0  0  0  0  0
  192.7530  175.3560  141.6580 C   0  0  0  0  0  2  0  0  0  0  0  0
  192.0300  176.3960  142.4970 C   0  0  0  0  0  2  0  0  0  0  0  0
  189.4430  174.2760  144.9410 C   0  0  0  0  0  2  0  0  0  0  0  0
  188.1540  176.6130  142.7040 C   0  0  2  0  0  3  0  0  0  0  0  0
  187.0330  177.9980  144.9910 O   0  0  0  0  0  1  0  0  0  0  0  0
  189.8090  173.8250  143.5460 C   0  0  0  0  0  0  0  0  0  0  0  0
  189.6340  172.5450  143.2580 C   0  0  0  0  0  2  0  0  0  0  0  0
  189.9070  178.2230  142.4980 O   0  0  0  0  0  0  0  0  0  0  0  0
  188.0830  176.1220  146.1350 C   0  0  2  0  0  3  0  0  0  0  0  0
  190.3430  174.6580  142.5410 O   0  0  0  0  0  0  0  0  0  0  0  0
  187.7720  175.9000  144.0250 C   0  0  1  0  0  3  0  0  0  0  0  0
  189.6040  177.0050  142.6060 C   0  0  0  0  0  0  0  0  0  0  0  0
  190.6420  176.0030  142.7000 N   0  0  0  0  0  0  0  0  0  0  0  0
  188.9500  175.7070  144.9620 C   0  0  2  0  0  3  0  0  0  0  0  0
  187.0040  176.6040  145.1470 C   0  0  2  0  0  3  0  0  0  0  0  0
  190.1040  177.5440  146.3420 C   0  0  0  0  0  1  0  0  0  0  0  0
  188.7520  177.2320  146.9410 C   0  0  0  0  0  2  0  0  0  0  0  0
  187.2950  177.6680  142.3510 O   0  0  0  0  0  0  0  0  0  0  0  0
  186.8330  177.6620  140.0910 O   0  0  0  0  0  0  0  0  0  0  0  0
  186.4430  177.1730  141.3540 C   0  0  2  0  0  3  0  0  0  0  0  0
  185.7380  178.3020  140.7070 C   0  0  2  0  0  3  0  0  0  0  0  0
  183.5420  178.2910  141.0080 C   0  0  0  0  0  1  0  0  0  0  0  0
  184.5460  177.8390  140.1460 O   0  0  0  0  0  0  0  0  0  0  0  0
  1  7  1  0  0  0  0
  2 12  1  6  0  0  0
  2  1  1  0  0  0  0
  2  4  1  0  0  0  0
  3 10  1  6  0  0  0
  3  6  1  0  0  0  0
  4  5  1  6  0  0  0
  4  3  1  0  0  0  0
  7  6  1  0  0  0  0
  9 10  2  0  0  0  0
 10  8  1  0  0  0  0
 11 14  1  0  0  0  0
 11 12  1  0  0  0  0
 13 11  2  0  0  0  0
 15 17  1  0  0  0  0
 16 14  1  0  0  0  0
 17 16  2  0  0  0  0
 17 18  1  0  0  0  0
 19 16  1  0  0  0  0
 20 19  2  0  0  0  0
 21 20  1  0  0  0  0
 21 15  2  0  0  0  0
 22 20  1  0  0  0  0
 23 24  1  6  0  0  0
 23 22  1  0  0  0  0
 25 26  1  0  0  0  0
 26 23  1  0  0  0  0
 26 28  1  0  0  0  0
 27 26  1  0  0  0  0
 28 33  1  0  0  0  0
 30 32  1  0  0  0  0
 30 28  1  0  0  0  0
 30 31  1  0  0  0  0
 31 29  1  0  0  0  0
 32 28  1  0  0  0  0
 32 31  1  0  0  0  0
 34 35  1  0  0  0  0
 34 31  1  0  0  0  0
 35 39  1  0  0  0  0
 36 38  1  0  0  0  0
 37 38  1  0  0  0  0
 38 35  1  0  0  0  0
 39 40  1  0  0  0  0
 40 42  1  0  0  0  0
 41 40  2  0  0  0  0
 42 43  1  0  0  0  0
 42 44  1  0  0  0  0
 43 44  1  0  0  0  0
 46 45  2  0  0  0  0
 46  2  1  0  0  0  0
 47 46  1  0  0  0  0
 47 48  1  0  0  0  0
 48 59  1  0  0  0  0
 49 60  1  0  0  0  0
 50 57  1  0  0  0  0
 51 61  1  0  0  0  0
 52 49  1  0  0  0  0
 53 52  2  0  0  0  0
 54 58  2  0  0  0  0
 55 63  1  0  0  0  0
 56 59  1  0  0  0  0
 56 52  1  0  0  0  0
 57 60  1  0  0  0  0
 57 61  1  0  0  0  0
 58 59  1  0  0  0  0
 58 50  1  0  0  0  0
 60 55  1  0  0  0  0
 61 55  1  0  0  0  0
 62 63  1  0  0  0  0
 64 50  1  0  0  0  0
 65 67  1  0  0  0  0
 65 66  1  0  0  0  0
 66 64  1  0  0  0  0
 67 66  1  0  0  0  0
 69 67  1  0  0  0  0
 69 68  1  0  0  0  0
M  END
>  <MODEL>
6

>  <REMARK>
 VINA RESULT:      -4.2      1.920      3.465
  Name = 
  21 active torsions:
  status: ('A' for Active; 'I' for Inactive)
    1  A    between atoms: C_2  and  C_52
    2  A    between atoms: N_3  and  C_42
    3  A    between atoms: C_5  and  C_35
    4  A    between atoms: C_5  and  C_42
    5  A    between atoms: C_6  and  C_33
    6  A    between atoms: C_6  and  N_59
    7  A    between atoms: C_7  and  N_24
    8  A    between atoms: C_7  and  C_43
    9  A    between atoms: C_9  and  C_22
   10  A    between atoms: C_13  and  C_21
   11  A    between atoms: C_15  and  C_16
   12  A    between atoms: C_15  and  C_62
   13  A    between atoms: C_16  and  C_52
   14  A    between atoms: C_17  and  C_21
   15  A    between atoms: C_18  and  C_63
   16  A    between atoms: C_19  and  O_45
   17  A    between atoms: C_20  and  O_45
   18  A    between atoms: C_33  and  C_43
   19  A    between atoms: C_42  and  C_50
   20  A    between atoms: C_46  and  C_67
   21  A    between atoms: O_64  and  C_69
                            x       y       z     vdW  Elec       q    Type
                         _______ _______ _______ _____ _____    ______ ____

>  <TORSDO>
F 21

$$$$
=
 OpenBabel11062418403D

 69 76  0  0  1  0  0  0  0  0999 V2000
  194.1490  174.3850  144.6650 C   0  0  0  0  0  2  0  0  0  0  0  0
  194.6940  175.2770  143.5320 C   0  0  2  0  0  0  0  0  0  0  0  0
  196.9240  174.3810  144.6070 C   0  0  1  0  0  3  0  0  0  0  0  0
  196.2290  175.4600  143.7580 C   0  0  1  0  0  3  0  0  0  0  0  0
  196.9760  175.8150  142.6340 O   0  0  0  0  0  1  0  0  0  0  0  0
  196.1620  174.1090  145.9130 C   0  0  0  0  0  2  0  0  0  0  0  0
  194.8130  174.6810  145.9310 N   0  0  0  0  0  2  0  0  0  0  0  0
  196.5450  171.9250  144.2590 O   0  0  0  0  0  1  0  0  0  0  0  0
  197.9250  173.1030  142.8630 O   0  0  0  0  0  0  0  0  0  0  0  0
  197.1570  173.1060  143.8590 C   0  0  0  0  0  0  0  0  0  0  0  0
  192.6400  176.8530  143.7830 C   0  0  0  0  0  0  0  0  0  0  0  0
  194.0450  176.5820  143.6760 N   0  0  0  0  0  2  0  0  0  0  0  0
  192.2420  178.0460  143.7020 O   0  0  0  0  0  0  0  0  0  0  0  0
  191.6380  175.7500  143.9350 C   0  0  0  0  0  2  0  0  0  0  0  0
  189.5930  175.7770  147.1490 C   0  0  0  0  0  3  0  0  0  0  0  0
  190.5900  176.0640  144.9560 C   0  0  0  0  0  0  0  0  0  0  0  0
  190.5760  175.4380  146.2150 C   0  0  0  0  0  0  0  0  0  0  0  0
  191.5380  174.4900  146.5530 O   0  0  0  0  0  1  0  0  0  0  0  0
  189.6020  177.0020  144.6370 C   0  0  0  0  0  3  0  0  0  0  0  0
  188.6030  177.3250  145.5600 C   0  0  0  0  0  0  0  0  0  0  0  0
  188.6140  176.7220  146.8260 C   0  0  0  0  0  3  0  0  0  0  0  0
  187.5830  178.3550  145.1860 C   0  0  0  0  0  2  0  0  0  0  0  0
  186.4330  178.4320  146.1910 C   0  0  1  0  0  3  0  0  0  0  0  0
  186.2400  179.7650  146.5610 O   0  0  0  0  0  1  0  0  0  0  0  0
  185.1780  176.2820  145.8090 C   0  0  0  0  0  1  0  0  0  0  0  0
  185.1240  177.7970  145.6720 C   0  0  0  0  0  0  0  0  0  0  0  0
  183.9510  178.2970  146.5150 C   0  0  0  0  0  1  0  0  0  0  0  0
  184.9400  178.1580  144.1760 C   0  0  1  0  0  0  0  0  0  0  0  0
  185.1270  178.5100  141.1170 O   0  0  0  0  0  1  0  0  0  0  0  0
  186.1220  178.6460  143.3620 C   0  0  2  0  0  3  0  0  0  0  0  0
  186.1030  178.0190  141.9880 C   0  0  1  0  0  0  0  0  0  0  0  0
  185.5540  177.2280  143.1500 C   0  0  2  0  0  3  0  0  0  0  0  0
  183.7120  178.6930  143.7730 O   0  0  0  0  0  1  0  0  0  0  0  0
  187.4130  177.5140  141.4060 C   0  0  0  0  0  2  0  0  0  0  0  0
  187.3160  176.0350  141.0280 C   0  0  1  0  0  3  0  0  0  0  0  0
  187.9470  174.9810  138.9530 O   0  0  0  0  0  1  0  0  0  0  0  0
  187.0330  177.1830  138.8110 C   0  0  0  0  0  1  0  0  0  0  0  0
  187.0240  175.8510  139.5400 C   0  0  2  0  0  3  0  0  0  0  0  0
  188.5480  175.3410  141.3820 N   0  0  0  0  0  2  0  0  0  0  0  0
  188.5480  173.9900  141.8500 C   0  0  0  0  0  0  0  0  0  0  0  0
  187.4610  173.3680  142.0020 O   0  0  0  0  0  0  0  0  0  0  0  0
  189.8370  173.3410  142.2440 C   0  0  0  0  0  3  0  0  0  0  0  0
  189.6610  171.8340  142.3120 C   0  0  0  0  0  2  0  0  0  0  0  0
  189.6840  172.6470  143.5870 C   0  0  0  0  0  2  0  0  0  0  0  0
  193.9360  173.3400  142.1780 C   0  0  0  0  0  2  0  0  0  0  0  0
  194.2850  174.6320  142.1990 C   0  0  0  0  0  0  0  0  0  0  0  0
  194.0010  175.4280  140.9570 C   0  0  0  0  0  2  0  0  0  0  0  0
  195.1760  175.3960  139.9930 C   0  0  0  0  0  2  0  0  0  0  0  0
  193.8610  175.1140  136.0750 C   0  0  0  0  0  2  0  0  0  0  0  0
  195.5900  172.4470  137.4960 C   0  0  2  0  0  3  0  0  0  0  0  0
  197.5600  172.7670  135.3930 O   0  0  0  0  0  1  0  0  0  0  0  0
  193.0520  174.6180  137.2510 C   0  0  0  0  0  0  0  0  0  0  0  0
  191.7480  174.4720  137.0710 C   0  0  0  0  0  2  0  0  0  0  0  0
  197.0240  173.4920  139.0960 O   0  0  0  0  0  0  0  0  0  0  0  0
  196.0030  174.5270  134.7550 C   0  0  2  0  0  3  0  0  0  0  0  0
  193.5750  174.3220  138.5260 O   0  0  0  0  0  0  0  0  0  0  0  0
  195.2570  173.0370  136.1030 C   0  0  1  0  0  3  0  0  0  0  0  0
  195.8870  173.4770  138.5530 C   0  0  0  0  0  0  0  0  0  0  0  0
  194.9030  174.4790  138.8950 N   0  0  0  0  0  0  0  0  0  0  0  0
  195.2670  174.5540  136.0790 C   0  0  2  0  0  3  0  0  0  0  0  0
  196.2560  173.0190  134.9430 C   0  0  2  0  0  3  0  0  0  0  0  0
  197.4070  175.9740  136.1990 C   0  0  0  0  0  1  0  0  0  0  0  0
  197.2570  175.3970  134.8100 C   0  0  0  0  0  2  0  0  0  0  0  0
  196.5510  171.4210  137.4710 O   0  0  0  0  0  0  0  0  0  0  0  0
  196.7610  169.2650  138.2640 O   0  0  0  0  0  0  0  0  0  0  0  0
  196.2270  170.5450  138.5160 C   0  0  2  0  0  3  0  0  0  0  0  0
  195.3900  169.4430  137.9900 C   0  0  2  0  0  3  0  0  0  0  0  0
  193.6250  168.1670  138.4000 C   0  0  0  0  0  1  0  0  0  0  0  0
  194.6290  168.9080  139.0320 O   0  0  0  0  0  0  0  0  0  0  0  0
  1  7  1  0  0  0  0
  2 46  1  6  0  0  0
  2 12  1  0  0  0  0
  2  4  1  0  0  0  0
  2  1  1  0  0  0  0
  3 10  1  6  0  0  0
  3  6  1  0  0  0  0
  4  5  1  6  0  0  0
  4  3  1  0  0  0  0
  6  7  1  0  0  0  0
  9 10  2  0  0  0  0
 10  8  1  0  0  0  0
 11 14  1  0  0  0  0
 12 11  1  0  0  0  0
 13 11  2  0  0  0  0
 14 16  1  0  0  0  0
 16 17  1  0  0  0  0
 17 18  1  0  0  0  0
 17 15  2  0  0  0  0
 19 16  2  0  0  0  0
 19 20  1  0  0  0  0
 20 21  2  0  0  0  0
 21 15  1  0  0  0  0
 22 20  1  0  0  0  0
 22 23  1  0  0  0  0
 23 24  1  6  0  0  0
 26 25  1  0  0  0  0
 26 23  1  0  0  0  0
 26 27  1  0  0  0  0
 28 26  1  0  0  0  0
 29 31  1  0  0  0  0
 30 28  1  0  0  0  0
 31 32  1  0  0  0  0
 31 30  1  0  0  0  0
 32 30  1  0  0  0  0
 32 28  1  0  0  0  0
 33 28  1  0  0  0  0
 34 31  1  0  0  0  0
 35 39  1  0  0  0  0
 35 34  1  0  0  0  0
 36 38  1  0  0  0  0
 37 38  1  0  0  0  0
 38 35  1  0  0  0  0
 39 40  1  0  0  0  0
 40 41  2  0  0  0  0
 40 42  1  0  0  0  0
 42 43  1  0  0  0  0
 42 44  1  0  0  0  0
 43 44  1  0  0  0  0
 45 46  2  0  0  0  0
 47 46  1  0  0  0  0
 48 47  1  0  0  0  0
 49 60  1  0  0  0  0
 49 52  1  0  0  0  0
 50 58  1  0  0  0  0
 52 56  1  0  0  0  0
 53 52  2  0  0  0  0
 55 63  1  0  0  0  0
 55 61  1  0  0  0  0
 55 60  1  0  0  0  0
 56 59  1  0  0  0  0
 57 50  1  0  0  0  0
 58 59  1  0  0  0  0
 58 54  2  0  0  0  0
 59 48  1  0  0  0  0
 60 57  1  0  0  0  0
 61 51  1  0  0  0  0
 61 57  1  0  0  0  0
 63 62  1  0  0  0  0
 64 50  1  0  0  0  0
 64 66  1  0  0  0  0
 65 66  1  0  0  0  0
 67 65  1  0  0  0  0
 67 66  1  0  0  0  0
 67 69  1  0  0  0  0
 68 69  1  0  0  0  0
M  END
>  <MODEL>
7

>  <REMARK>
 VINA RESULT:      -4.2      2.339      9.711
  Name = 
  21 active torsions:
  status: ('A' for Active; 'I' for Inactive)
    1  A    between atoms: C_2  and  C_52
    2  A    between atoms: N_3  and  C_42
    3  A    between atoms: C_5  and  C_35
    4  A    between atoms: C_5  and  C_42
    5  A    between atoms: C_6  and  C_33
    6  A    between atoms: C_6  and  N_59
    7  A    between atoms: C_7  and  N_24
    8  A    between atoms: C_7  and  C_43
    9  A    between atoms: C_9  and  C_22
   10  A    between atoms: C_13  and  C_21
   11  A    between atoms: C_15  and  C_16
   12  A    between atoms: C_15  and  C_62
   13  A    between atoms: C_16  and  C_52
   14  A    between atoms: C_17  and  C_21
   15  A    between atoms: C_18  and  C_63
   16  A    between atoms: C_19  and  O_45
   17  A    between atoms: C_20  and  O_45
   18  A    between atoms: C_33  and  C_43
   19  A    between atoms: C_42  and  C_50
   20  A    between atoms: C_46  and  C_67
   21  A    between atoms: O_64  and  C_69
                            x       y       z     vdW  Elec       q    Type
                         _______ _______ _______ _____ _____    ______ ____

>  <TORSDO>
F 21

$$$$
=
 OpenBabel11062418403D

 69 76  0  0  1  0  0  0  0  0999 V2000
  194.3090  174.1370  144.6260 C   0  0  0  0  0  2  0  0  0  0  0  0
  194.9120  174.8570  143.4030 C   0  0  2  0  0  0  0  0  0  0  0  0
  197.0830  174.1200  144.6950 C   0  0  1  0  0  3  0  0  0  0  0  0
  196.4360  175.0670  143.6690 C   0  0  1  0  0  3  0  0  0  0  0  0
  197.2360  175.2570  142.5410 O   0  0  0  0  0  1  0  0  0  0  0  0
  196.2620  174.0390  145.9900 C   0  0  0  0  0  2  0  0  0  0  0  0
  194.9190  174.6110  145.8650 N   0  0  0  0  0  2  0  0  0  0  0  0
  197.6930  171.7040  144.9890 O   0  0  0  0  0  1  0  0  0  0  0  0
  197.2430  172.5490  142.9100 O   0  0  0  0  0  0  0  0  0  0  0  0
  197.3390  172.7500  144.1480 C   0  0  0  0  0  0  0  0  0  0  0  0
  192.9070  176.4960  143.6460 C   0  0  0  0  0  0  0  0  0  0  0  0
  194.2680  176.1710  143.3290 N   0  0  0  0  0  2  0  0  0  0  0  0
  192.4660  177.6360  143.3380 O   0  0  0  0  0  0  0  0  0  0  0  0
  191.9880  175.4980  144.2820 C   0  0  0  0  0  2  0  0  0  0  0  0
  190.1550  176.6780  147.4060 C   0  0  0  0  0  3  0  0  0  0  0  0
  190.9880  176.1380  145.1930 C   0  0  0  0  0  0  0  0  0  0  0  0
  191.0980  176.0460  146.5920 C   0  0  0  0  0  0  0  0  0  0  0  0
  192.1440  175.3410  147.1810 O   0  0  0  0  0  1  0  0  0  0  0  0
  189.9170  176.8400  144.6260 C   0  0  0  0  0  3  0  0  0  0  0  0
  188.9590  177.4520  145.4380 C   0  0  0  0  0  0  0  0  0  0  0  0
  189.0930  177.3840  146.8330 C   0  0  0  0  0  3  0  0  0  0  0  0
  187.8470  178.2160  144.7890 C   0  0  0  0  0  2  0  0  0  0  0  0
  186.6460  178.4020  145.7160 C   0  0  1  0  0  3  0  0  0  0  0  0
  186.3640  179.7650  145.8290 O   0  0  0  0  0  1  0  0  0  0  0  0
  185.4930  176.1620  145.7440 C   0  0  0  0  0  1  0  0  0  0  0  0
  185.4000  177.6050  145.2700 C   0  0  0  0  0  0  0  0  0  0  0  0
  184.1530  178.2210  145.9040 C   0  0  0  0  0  1  0  0  0  0  0  0
  185.3130  177.6190  143.7220 C   0  0  1  0  0  0  0  0  0  0  0  0
  185.7120  177.3010  140.6800 O   0  0  0  0  0  1  0  0  0  0  0  0
  186.5330  177.9790  142.8970 C   0  0  2  0  0  3  0  0  0  0  0  0
  186.6390  177.0660  141.6980 C   0  0  1  0  0  0  0  0  0  0  0  0
  186.0360  176.5210  142.9700 C   0  0  2  0  0  3  0  0  0  0  0  0
  184.0990  177.9870  143.1330 O   0  0  0  0  0  1  0  0  0  0  0  0
  188.0070  176.5160  141.3290 C   0  0  0  0  0  2  0  0  0  0  0  0
  187.9130  175.0590  140.8730 C   0  0  1  0  0  3  0  0  0  0  0  0
  187.4550  175.6920  138.5910 O   0  0  0  0  0  1  0  0  0  0  0  0
  188.1960  173.4520  138.9620 C   0  0  0  0  0  1  0  0  0  0  0  0
  188.2810  174.9040  139.3980 C   0  0  2  0  0  3  0  0  0  0  0  0
  188.7750  174.2160  141.6920 N   0  0  0  0  0  2  0  0  0  0  0  0
  188.3210  172.9780  142.2420 C   0  0  0  0  0  0  0  0  0  0  0  0
  187.1340  172.5940  142.0560 O   0  0  0  0  0  0  0  0  0  0  0  0
  189.2340  172.1740  143.1140 C   0  0  0  0  0  3  0  0  0  0  0  0
  190.6820  172.5010  142.7910 C   0  0  0  0  0  2  0  0  0  0  0  0
  190.0640  171.2240  142.2670 C   0  0  0  0  0  2  0  0  0  0  0  0
  194.0820  172.7870  142.3140 C   0  0  0  0  0  2  0  0  0  0  0  0
  194.5560  174.0290  142.1590 C   0  0  0  0  0  0  0  0  0  0  0  0
  194.4640  174.6190  140.7800 C   0  0  0  0  0  2  0  0  0  0  0  0
  193.3280  174.0000  139.9830 C   0  0  0  0  0  2  0  0  0  0  0  0
  193.8100  170.4380  137.9240 C   0  0  0  0  0  2  0  0  0  0  0  0
  194.1200  173.4560  136.2160 C   0  0  2  0  0  3  0  0  0  0  0  0
  191.9360  172.5790  134.5240 O   0  0  0  0  0  1  0  0  0  0  0  0
  194.9660  171.1940  138.5370 C   0  0  0  0  0  0  0  0  0  0  0  0
  196.0760  170.5150  138.7780 C   0  0  0  0  0  2  0  0  0  0  0  0
  192.6850  174.9370  137.4230 O   0  0  0  0  0  0  0  0  0  0  0  0
  192.1290  170.6300  135.9720 C   0  0  2  0  0  3  0  0  0  0  0  0
  194.9420  172.5590  138.8920 O   0  0  0  0  0  0  0  0  0  0  0  0
  193.8060  171.9650  135.9410 C   0  0  1  0  0  3  0  0  0  0  0  0
  193.5180  173.9940  137.4870 C   0  0  0  0  0  0  0  0  0  0  0  0
  193.8410  173.3930  138.7620 N   0  0  0  0  0  0  0  0  0  0  0  0
  192.9680  171.3200  137.0280 C   0  0  2  0  0  3  0  0  0  0  0  0
  192.7780  171.5210  134.8950 C   0  0  2  0  0  3  0  0  0  0  0  0
  190.0800  169.8190  137.1100 C   0  0  0  0  0  1  0  0  0  0  0  0
  190.6420  170.8880  136.2010 C   0  0  0  0  0  2  0  0  0  0  0  0
  193.8880  174.3050  135.1200 O   0  0  0  0  0  0  0  0  0  0  0  0
  196.1600  174.2450  135.5160 O   0  0  0  0  0  0  0  0  0  0  0  0
  195.1480  174.6980  134.6460 C   0  0  2  0  0  3  0  0  0  0  0  0
  195.7840  175.5980  135.6350 C   0  0  2  0  0  3  0  0  0  0  0  0
  197.8010  175.5600  134.7170 C   0  0  0  0  0  1  0  0  0  0  0  0
  196.7200  176.4060  134.9860 O   0  0  0  0  0  0  0  0  0  0  0  0
  1  7  1  0  0  0  0
  2 46  1  6  0  0  0
  2  4  1  0  0  0  0
  2  1  1  0  0  0  0
  3 10  1  6  0  0  0
  3  6  1  0  0  0  0
  4  5  1  6  0  0  0
  4  3  1  0  0  0  0
  7  6  1  0  0  0  0
  9 10  2  0  0  0  0
 10  8  1  0  0  0  0
 11 14  1  0  0  0  0
 12  2  1  0  0  0  0
 12 11  1  0  0  0  0
 13 11  2  0  0  0  0
 14 16  1  0  0  0  0
 16 17  1  0  0  0  0
 17 18  1  0  0  0  0
 17 15  2  0  0  0  0
 19 16  2  0  0  0  0
 19 20  1  0  0  0  0
 20 21  2  0  0  0  0
 21 15  1  0  0  0  0
 22 20  1  0  0  0  0
 22 23  1  0  0  0  0
 23 24  1  6  0  0  0
 26 23  1  0  0  0  0
 26 25  1  0  0  0  0
 26 27  1  0  0  0  0
 28 26  1  0  0  0  0
 29 31  1  0  0  0  0
 30 32  1  0  0  0  0
 30 28  1  0  0  0  0
 31 30  1  0  0  0  0
 31 32  1  0  0  0  0
 32 28  1  0  0  0  0
 33 28  1  0  0  0  0
 34 31  1  0  0  0  0
 35 34  1  0  0  0  0
 35 39  1  0  0  0  0
 36 38  1  0  0  0  0
 37 38  1  0  0  0  0
 38 35  1  0  0  0  0
 39 40  1  0  0  0  0
 40 42  1  0  0  0  0
 41 40  2  0  0  0  0
 43 42  1  0  0  0  0
 44 43  1  0  0  0  0
 44 42  1  0  0  0  0
 46 45  2  0  0  0  0
 47 46  1  0  0  0  0
 48 47  1  0  0  0  0
 49 52  1  0  0  0  0
 50 58  1  0  0  0  0
 51 61  1  0  0  0  0
 52 53  2  0  0  0  0
 52 56  1  0  0  0  0
 54 58  2  0  0  0  0
 55 63  1  0  0  0  0
 55 60  1  0  0  0  0
 57 50  1  0  0  0  0
 57 60  1  0  0  0  0
 58 59  1  0  0  0  0
 59 56  1  0  0  0  0
 59 48  1  0  0  0  0
 60 49  1  0  0  0  0
 61 57  1  0  0  0  0
 61 55  1  0  0  0  0
 63 62  1  0  0  0  0
 64 50  1  0  0  0  0
 65 67  1  0  0  0  0
 66 64  1  0  0  0  0
 66 65  1  0  0  0  0
 66 67  1  0  0  0  0
 68 69  1  0  0  0  0
 69 67  1  0  0  0  0
M  END
>  <MODEL>
8

>  <REMARK>
 VINA RESULT:      -3.7      2.240      9.249
  Name = 
  21 active torsions:
  status: ('A' for Active; 'I' for Inactive)
    1  A    between atoms: C_2  and  C_52
    2  A    between atoms: N_3  and  C_42
    3  A    between atoms: C_5  and  C_35
    4  A    between atoms: C_5  and  C_42
    5  A    between atoms: C_6  and  C_33
    6  A    between atoms: C_6  and  N_59
    7  A    between atoms: C_7  and  N_24
    8  A    between atoms: C_7  and  C_43
    9  A    between atoms: C_9  and  C_22
   10  A    between atoms: C_13  and  C_21
   11  A    between atoms: C_15  and  C_16
   12  A    between atoms: C_15  and  C_62
   13  A    between atoms: C_16  and  C_52
   14  A    between atoms: C_17  and  C_21
   15  A    between atoms: C_18  and  C_63
   16  A    between atoms: C_19  and  O_45
   17  A    between atoms: C_20  and  O_45
   18  A    between atoms: C_33  and  C_43
   19  A    between atoms: C_42  and  C_50
   20  A    between atoms: C_46  and  C_67
   21  A    between atoms: O_64  and  C_69
                            x       y       z     vdW  Elec       q    Type
                         _______ _______ _______ _____ _____    ______ ____

>  <TORSDO>
F 21

$$$$
=
 OpenBabel11062418403D

 69 76  0  0  1  0  0  0  0  0999 V2000
  192.1600  175.5790  143.2340 C   0  0  0  0  0  2  0  0  0  0  0  0
  193.5400  175.8870  143.8480 C   0  0  2  0  0  0  0  0  0  0  0  0
  191.9270  176.6730  145.7740 C   0  0  1  0  0  3  0  0  0  0  0  0
  193.3170  176.7650  145.1210 C   0  0  1  0  0  3  0  0  0  0  0  0
  194.3490  176.7550  146.0610 O   0  0  0  0  0  1  0  0  0  0  0  0
  190.8020  176.8330  144.7410 C   0  0  0  0  0  2  0  0  0  0  0  0
  191.2650  176.7260  143.3550 N   0  0  0  0  0  2  0  0  0  0  0  0
  190.5490  174.7020  146.4900 O   0  0  0  0  0  0  0  0  0  0  0  0
  192.6550  175.0190  147.3280 O   0  0  0  0  0  1  0  0  0  0  0  0
  191.7350  175.4190  146.5700 C   0  0  0  0  0  0  0  0  0  0  0  0
  195.1630  176.2050  141.8400 C   0  0  0  0  0  0  0  0  0  0  0  0
  194.2720  176.6820  142.8590 N   0  0  0  0  0  2  0  0  0  0  0  0
  195.8610  177.0390  141.2030 O   0  0  0  0  0  0  0  0  0  0  0  0
  195.3210  174.7430  141.5570 C   0  0  0  0  0  2  0  0  0  0  0  0
  194.2490  174.2700  137.9320 C   0  0  0  0  0  3  0  0  0  0  0  0
  194.5720  174.3110  140.3360 C   0  0  0  0  0  0  0  0  0  0  0  0
  194.9630  174.7150  139.0480 C   0  0  0  0  0  0  0  0  0  0  0  0
  196.0650  175.5460  138.8650 O   0  0  0  0  0  1  0  0  0  0  0  0
  193.4510  173.4870  140.4940 C   0  0  0  0  0  3  0  0  0  0  0  0
  192.7200  173.0600  139.3820 C   0  0  0  0  0  0  0  0  0  0  0  0
  193.1360  173.4400  138.0970 C   0  0  0  0  0  3  0  0  0  0  0  0
  191.5450  172.1560  139.5950 C   0  0  0  0  0  2  0  0  0  0  0  0
  190.2110  172.8830  139.4260 C   0  0  1  0  0  3  0  0  0  0  0  0
  189.4750  172.2540  138.4200 O   0  0  0  0  0  1  0  0  0  0  0  0
  188.0450  172.3050  140.5760 C   0  0  0  0  0  1  0  0  0  0  0  0
  189.3990  172.9830  140.7370 C   0  0  0  0  0  0  0  0  0  0  0  0
  190.1500  172.2580  141.8530 C   0  0  0  0  0  1  0  0  0  0  0  0
  189.1730  174.4770  141.0840 C   0  0  1  0  0  0  0  0  0  0  0  0
  188.1470  177.2260  142.0350 O   0  0  0  0  0  1  0  0  0  0  0  0
  187.8390  175.1320  140.7830 C   0  0  2  0  0  3  0  0  0  0  0  0
  187.4310  176.0320  141.9260 C   0  0  1  0  0  0  0  0  0  0  0  0
  188.2390  174.7950  142.2340 C   0  0  2  0  0  3  0  0  0  0  0  0
  190.2650  175.3460  141.0010 O   0  0  0  0  0  1  0  0  0  0  0  0
  185.9820  176.0040  142.3840 C   0  0  0  0  0  2  0  0  0  0  0  0
  185.5900  177.3200  143.0570 C   0  0  1  0  0  3  0  0  0  0  0  0
  184.8840  178.7990  141.2870 O   0  0  0  0  0  1  0  0  0  0  0  0
  183.5970  178.8320  143.2990 C   0  0  0  0  0  1  0  0  0  0  0  0
  184.4250  177.9980  142.3370 C   0  0  2  0  0  3  0  0  0  0  0  0
  185.2440  177.0910  144.4540 N   0  0  0  0  0  2  0  0  0  0  0  0
  186.1960  177.2570  145.5070 C   0  0  0  0  0  0  0  0  0  0  0  0
  187.3870  177.5800  145.2450 O   0  0  0  0  0  0  0  0  0  0  0  0
  185.8000  176.9620  146.9190 C   0  0  0  0  0  3  0  0  0  0  0  0
  184.3160  177.2260  147.1090 C   0  0  0  0  0  2  0  0  0  0  0  0
  185.3290  178.2330  147.6060 C   0  0  0  0  0  2  0  0  0  0  0  0
  195.3030  174.4970  144.9050 C   0  0  0  0  0  2  0  0  0  0  0  0
  194.2540  174.5460  144.0750 C   0  0  0  0  0  0  0  0  0  0  0  0
  193.6900  173.2300  143.6210 C   0  0  0  0  0  2  0  0  0  0  0  0
  193.7500  172.1870  144.7240 C   0  0  0  0  0  2  0  0  0  0  0  0
  193.4710  169.4870  141.5940 C   0  0  0  0  0  2  0  0  0  0  0  0
  196.2130  169.3470  143.7350 C   0  0  2  0  0  3  0  0  0  0  0  0
  197.8900  169.8050  141.4150 O   0  0  0  0  0  1  0  0  0  0  0  0
  192.9530  169.1910  142.9820 C   0  0  0  0  0  0  0  0  0  0  0  0
  192.0410  168.2390  143.0990 C   0  0  0  0  0  2  0  0  0  0  0  0
  196.4780  171.6070  144.4620 O   0  0  0  0  0  0  0  0  0  0  0  0
  195.7080  169.7830  140.3340 C   0  0  2  0  0  3  0  0  0  0  0  0
  193.3510  169.8660  144.1550 O   0  0  0  0  0  0  0  0  0  0  0  0
  195.8080  168.9320  142.2990 C   0  0  1  0  0  3  0  0  0  0  0  0
  195.6730  170.6820  144.1720 C   0  0  0  0  0  0  0  0  0  0  0  0
  194.2480  170.9230  144.1970 N   0  0  0  0  0  0  0  0  0  0  0  0
  194.9130  169.9470  141.6140 C   0  0  2  0  0  3  0  0  0  0  0  0
  196.7800  169.0020  141.1180 C   0  0  2  0  0  3  0  0  0  0  0  0
  196.2520  171.0790  138.2910 C   0  0  0  0  0  1  0  0  0  0  0  0
  196.1680  171.1360  139.8000 C   0  0  0  0  0  2  0  0  0  0  0  0
  197.5870  169.2170  144.0050 O   0  0  0  0  0  0  0  0  0  0  0  0
  196.4340  168.1830  145.7150 O   0  0  0  0  0  0  0  0  0  0  0  0
  197.6970  168.3720  145.1180 C   0  0  2  0  0  3  0  0  0  0  0  0
  197.2950  169.1110  146.3360 C   0  0  2  0  0  3  0  0  0  0  0  0
  197.1080  168.9150  148.5360 C   0  0  0  0  0  1  0  0  0  0  0  0
  197.8970  168.5220  147.4500 O   0  0  0  0  0  0  0  0  0  0  0  0
  1  7  1  0  0  0  0
  1  2  1  0  0  0  0
  2 12  1  6  0  0  0
  2 46  1  0  0  0  0
  2  4  1  0  0  0  0
  3 10  1  6  0  0  0
  4  3  1  0  0  0  0
  4  5  1  1  0  0  0
  6  3  1  0  0  0  0
  7  6  1  0  0  0  0
  8 10  2  0  0  0  0
 10  9  1  0  0  0  0
 11 12  1  0  0  0  0
 13 11  2  0  0  0  0
 14 11  1  0  0  0  0
 15 21  2  0  0  0  0
 15 17  1  0  0  0  0
 16 19  1  0  0  0  0
 16 14  1  0  0  0  0
 17 16  2  0  0  0  0
 18 17  1  0  0  0  0
 20 22  1  0  0  0  0
 20 19  2  0  0  0  0
 21 20  1  0  0  0  0
 23 24  1  6  0  0  0
 23 22  1  0  0  0  0
 23 26  1  0  0  0  0
 25 26  1  0  0  0  0
 26 28  1  0  0  0  0
 26 27  1  0  0  0  0
 28 32  1  0  0  0  0
 30 28  1  0  0  0  0
 30 31  1  0  0  0  0
 30 32  1  0  0  0  0
 31 29  1  0  0  0  0
 31 32  1  0  0  0  0
 31 34  1  0  0  0  0
 33 28  1  0  0  0  0
 34 35  1  0  0  0  0
 35 39  1  0  0  0  0
 36 38  1  0  0  0  0
 38 35  1  0  0  0  0
 38 37  1  0  0  0  0
 39 40  1  0  0  0  0
 40 42  1  0  0  0  0
 41 40  2  0  0  0  0
 42 43  1  0  0  0  0
 42 44  1  0  0  0  0
 43 44  1  0  0  0  0
 46 45  2  0  0  0  0
 47 46  1  0  0  0  0
 47 48  1  0  0  0  0
 49 60  1  0  0  0  0
 49 52  1  0  0  0  0
 50 64  1  0  0  0  0
 50 58  1  0  0  0  0
 52 53  2  0  0  0  0
 52 56  1  0  0  0  0
 55 61  1  0  0  0  0
 55 60  1  0  0  0  0
 56 59  1  0  0  0  0
 57 50  1  0  0  0  0
 58 59  1  0  0  0  0
 58 54  2  0  0  0  0
 59 48  1  0  0  0  0
 60 57  1  0  0  0  0
 61 51  1  0  0  0  0
 61 57  1  0  0  0  0
 62 63  1  0  0  0  0
 63 55  1  0  0  0  0
 64 66  1  0  0  0  0
 65 67  1  0  0  0  0
 66 65  1  0  0  0  0
 66 67  1  0  0  0  0
 67 69  1  0  0  0  0
 69 68  1  0  0  0  0
M  END
>  <MODEL>
9

>  <REMARK>
 VINA RESULT:      -3.7      2.589      8.852
  Name = 
  21 active torsions:
  status: ('A' for Active; 'I' for Inactive)
    1  A    between atoms: C_2  and  C_52
    2  A    between atoms: N_3  and  C_42
    3  A    between atoms: C_5  and  C_35
    4  A    between atoms: C_5  and  C_42
    5  A    between atoms: C_6  and  C_33
    6  A    between atoms: C_6  and  N_59
    7  A    between atoms: C_7  and  N_24
    8  A    between atoms: C_7  and  C_43
    9  A    between atoms: C_9  and  C_22
   10  A    between atoms: C_13  and  C_21
   11  A    between atoms: C_15  and  C_16
   12  A    between atoms: C_15  and  C_62
   13  A    between atoms: C_16  and  C_52
   14  A    between atoms: C_17  and  C_21
   15  A    between atoms: C_18  and  C_63
   16  A    between atoms: C_19  and  O_45
   17  A    between atoms: C_20  and  O_45
   18  A    between atoms: C_33  and  C_43
   19  A    between atoms: C_42  and  C_50
   20  A    between atoms: C_46  and  C_67
   21  A    between atoms: O_64  and  C_69
                            x       y       z     vdW  Elec       q    Type
                         _______ _______ _______ _____ _____    ______ ____

>  <TORSDO>
F 21

$$$$
