=
 OpenBabel11062421233D

 31 33  0  0  1  0  0  0  0  0999 V2000
  191.1170  176.3380  146.6580 C   0  0  2  0  0  3  0  0  0  0  0  0
  190.6550  176.7640  143.8090 C   0  0  1  0  0  3  0  0  0  0  0  0
  191.7700  175.8700  144.2420 C   0  0  0  0  0  0  0  0  0  0  0  0
  192.2960  175.0760  143.4780 O   0  0  0  0  0  0  0  0  0  0  0  0
  189.9960  177.2420  146.1060 C   0  0  0  0  0  2  0  0  0  0  0  0
  190.0590  176.4810  142.5870 O   0  0  0  0  0  0  0  0  0  0  0  0
  188.8470  177.2020  142.7100 C   0  0  2  0  0  3  0  0  0  0  0  0
  188.4290  177.2550  144.1400 N   0  0  0  0  0  0  0  0  0  0  0  0
  191.5900  176.8130  148.0210 C   0  0  0  0  0  1  0  0  0  0  0  0
  192.2820  176.0610  145.6550 C   0  0  1  0  0  3  0  0  0  0  0  0
  189.5550  176.6290  144.7880 C   0  0  1  0  0  3  0  0  0  0  0  0
  187.5210  177.7420  140.7800 O   0  0  0  0  0  1  0  0  0  0  0  0
  187.7850  176.7260  141.7030 C   0  0  1  0  0  3  0  0  0  0  0  0
  188.2440  175.4710  140.9680 C   0  0  1  0  0  3  0  0  0  0  0  0
  187.8060  174.3350  141.6480 O   0  0  0  0  0  1  0  0  0  0  0  0
  187.7560  175.4560  139.6740 F   0  0  0  0  0  0  0  0  0  0  0  0
  193.4010  177.1090  145.6950 C   0  0  0  0  0  2  0  0  0  0  0  0
  194.7090  176.4870  145.8580 N   0  0  0  0  0  0  0  0  0  0  0  0
  195.4960  174.2650  145.5670 C   0  0  0  0  0  2  0  0  0  0  0  0
  194.4770  175.1130  146.2760 C   0  0  0  0  0  2  0  0  0  0  0  0
  195.2960  176.4220  144.5820 N   0  0  0  0  0  2  0  0  0  0  0  0
  196.0910  175.2030  144.5530 C   0  0  2  0  0  3  0  0  0  0  0  0
  196.0250  174.6310  143.2840 O   0  0  0  0  0  1  0  0  0  0  0  0
  187.2920  176.3820  144.4200 C   0  0  0  0  0  2  0  0  0  0  0  0
  186.1150  177.2150  144.9020 C   0  0  0  0  0  2  0  0  0  0  0  0
  184.6760  176.3130  146.5840 F   0  0  0  0  0  0  0  0  0  0  0  0
  186.8890  176.3090  146.9390 F   0  0  0  0  0  0  0  0  0  0  0  0
  185.8440  177.0340  146.3980 C   0  0  0  0  0  0  0  0  0  0  0  0
  185.6580  179.4430  146.2520 O   0  0  0  0  0  1  0  0  0  0  0  0
  185.7480  178.3710  147.1420 C   0  0  0  0  0  3  0  0  0  0  0  0
  186.8450  178.5500  147.9870 O   0  0  0  0  0  1  0  0  0  0  0  0
  1  9  1  1  0  0  0
  2  6  1  6  0  0  0
  2  3  1  0  0  0  0
  2 11  1  0  0  0  0
  3 10  1  0  0  0  0
  4  3  2  0  0  0  0
  5  1  1  0  0  0  0
  6  7  1  0  0  0  0
  7 13  1  6  0  0  0
  7  8  1  0  0  0  0
  8 24  1  0  0  0  0
  8 11  1  0  0  0  0
 10 17  1  6  0  0  0
 10  1  1  0  0  0  0
 11  5  1  1  0  0  0
 13 12  1  6  0  0  0
 14 16  1  6  0  0  0
 14 15  1  0  0  0  0
 14 13  1  0  0  0  0
 17 18  1  0  0  0  0
 18 20  1  0  0  0  0
 19 20  1  0  0  0  0
 21 18  1  0  0  0  0
 22 23  1  6  0  0  0
 22 21  1  0  0  0  0
 22 19  1  0  0  0  0
 24 25  1  0  0  0  0
 25 28  1  0  0  0  0
 28 26  1  0  0  0  0
 28 27  1  0  0  0  0
 28 30  1  0  0  0  0
 29 30  1  0  0  0  0
 30 31  1  0  0  0  0
M  END
>  <MODEL>
1

>  <REMARK>
 VINA RESULT:      -6.9      0.000      0.000
  Name = 
  8 active torsions:
  status: ('A' for Active; 'I' for Inactive)
    1  A    between atoms: N_1  and  C_23
    2  A    between atoms: C_14  and  C_28
    3  A    between atoms: C_18  and  C_31
    4  A    between atoms: C_19  and  C_28
    5  A    between atoms: N_20  and  C_30
    6  A    between atoms: C_23  and  C_26
    7  A    between atoms: C_25  and  C_30
    8  A    between atoms: C_25  and  C_31
                            x       y       z     vdW  Elec       q    Type
                         _______ _______ _______ _____ _____    ______ ____

>  <TORSDO>
F 8

$$$$
=
 OpenBabel11062421233D

 31 33  0  0  1  0  0  0  0  0999 V2000
  191.2750  176.4290  143.7940 C   0  0  2  0  0  3  0  0  0  0  0  0
  189.1640  176.1100  145.7830 C   0  0  1  0  0  3  0  0  0  0  0  0
  190.5750  176.2920  146.2380 C   0  0  0  0  0  0  0  0  0  0  0  0
  190.8470  176.6180  147.3820 O   0  0  0  0  0  0  0  0  0  0  0  0
  189.7890  176.2330  143.4300 C   0  0  0  0  0  2  0  0  0  0  0  0
  188.1650  176.5780  146.6250 O   0  0  0  0  0  0  0  0  0  0  0  0
  187.0690  176.6360  145.7300 C   0  0  2  0  0  3  0  0  0  0  0  0
  187.5530  176.9220  144.3500 N   0  0  0  0  0  0  0  0  0  0  0  0
  192.1870  175.8760  142.7120 C   0  0  0  0  0  1  0  0  0  0  0  0
  191.6580  175.9600  145.2340 C   0  0  1  0  0  3  0  0  0  0  0  0
  188.9820  176.8890  144.5380 C   0  0  1  0  0  3  0  0  0  0  0  0
  184.7950  176.7610  146.5000 O   0  0  0  0  0  1  0  0  0  0  0  0
  185.9350  177.5330  146.2590 C   0  0  1  0  0  3  0  0  0  0  0  0
  186.3510  178.2490  147.5400 C   0  0  1  0  0  3  0  0  0  0  0  0
  185.8350  179.5450  147.5490 O   0  0  0  0  0  1  0  0  0  0  0  0
  185.9010  177.5610  148.6530 F   0  0  0  0  0  0  0  0  0  0  0  0
  192.0540  174.4800  145.3220 C   0  0  0  0  0  2  0  0  0  0  0  0
  193.3080  174.3050  146.0420 N   0  0  0  0  0  0  0  0  0  0  0  0
  195.4160  173.3980  145.4320 C   0  0  0  0  0  2  0  0  0  0  0  0
  193.9420  173.1100  145.5070 C   0  0  0  0  0  2  0  0  0  0  0  0
  194.1380  175.3870  145.6950 N   0  0  0  0  0  2  0  0  0  0  0  0
  195.5000  174.8780  145.6860 C   0  0  2  0  0  3  0  0  0  0  0  0
  196.2220  175.4920  144.6650 O   0  0  0  0  0  1  0  0  0  0  0  0
  187.2540  178.2880  143.9280 C   0  0  0  0  0  2  0  0  0  0  0  0
  186.8960  178.2990  142.4500 C   0  0  0  0  0  2  0  0  0  0  0  0
  184.8550  177.0810  142.7090 F   0  0  0  0  0  0  0  0  0  0  0  0
  184.8150  179.3130  142.9070 F   0  0  0  0  0  0  0  0  0  0  0  0
  185.3840  178.2620  142.2140 C   0  0  0  0  0  0  0  0  0  0  0  0
  183.6540  178.1940  140.5210 O   0  0  0  0  0  1  0  0  0  0  0  0
  185.0180  178.4080  140.7320 C   0  0  0  0  0  3  0  0  0  0  0  0
  185.7610  177.5240  139.9470 O   0  0  0  0  0  1  0  0  0  0  0  0
  1  9  1  6  0  0  0
  1 10  1  0  0  0  0
  2  3  1  1  0  0  0
  2  6  1  0  0  0  0
  3  4  2  0  0  0  0
  5  1  1  0  0  0  0
  7 13  1  1  0  0  0
  7  6  1  0  0  0  0
  8 11  1  0  0  0  0
  8  7  1  0  0  0  0
 10 17  1  6  0  0  0
 10  3  1  0  0  0  0
 11  5  1  6  0  0  0
 11  2  1  0  0  0  0
 13 12  1  1  0  0  0
 13 14  1  0  0  0  0
 14 15  1  6  0  0  0
 14 16  1  0  0  0  0
 17 18  1  0  0  0  0
 19 20  1  0  0  0  0
 19 22  1  0  0  0  0
 20 18  1  0  0  0  0
 21 18  1  0  0  0  0
 22 23  1  6  0  0  0
 22 21  1  0  0  0  0
 24  8  1  0  0  0  0
 25 24  1  0  0  0  0
 28 25  1  0  0  0  0
 28 26  1  0  0  0  0
 28 27  1  0  0  0  0
 29 30  1  0  0  0  0
 30 28  1  0  0  0  0
 31 30  1  0  0  0  0
M  END
>  <MODEL>
2

>  <REMARK>
 VINA RESULT:      -6.8      2.243      4.541
  Name = 
  8 active torsions:
  status: ('A' for Active; 'I' for Inactive)
    1  A    between atoms: N_1  and  C_23
    2  A    between atoms: C_14  and  C_28
    3  A    between atoms: C_18  and  C_31
    4  A    between atoms: C_19  and  C_28
    5  A    between atoms: N_20  and  C_30
    6  A    between atoms: C_23  and  C_26
    7  A    between atoms: C_25  and  C_30
    8  A    between atoms: C_25  and  C_31
                            x       y       z     vdW  Elec       q    Type
                         _______ _______ _______ _____ _____    ______ ____

>  <TORSDO>
F 8

$$$$
=
 OpenBabel11062421233D

 31 33  0  0  1  0  0  0  0  0999 V2000
  186.3360  178.7640  144.6180 C   0  0  2  0  0  3  0  0  0  0  0  0
  187.8370  176.6620  143.2610 C   0  0  1  0  0  3  0  0  0  0  0  0
  187.1900  177.7370  142.4510 C   0  0  0  0  0  0  0  0  0  0  0  0
  187.5090  177.9520  141.2920 O   0  0  0  0  0  0  0  0  0  0  0  0
  187.0390  177.6090  145.3600 C   0  0  0  0  0  2  0  0  0  0  0  0
  188.9920  176.0910  142.7440 O   0  0  0  0  0  0  0  0  0  0  0  0
  189.5290  175.4810  143.9040 C   0  0  2  0  0  3  0  0  0  0  0  0
  189.1480  176.2630  145.1140 N   0  0  0  0  0  0  0  0  0  0  0  0
  185.1210  179.2570  145.3840 C   0  0  0  0  0  1  0  0  0  0  0  0
  186.0510  178.4870  143.1070 C   0  0  1  0  0  3  0  0  0  0  0  0
  188.2710  177.2560  144.5450 C   0  0  1  0  0  3  0  0  0  0  0  0
  191.1940  173.7630  143.6710 O   0  0  0  0  0  1  0  0  0  0  0  0
  191.0230  175.1480  143.7450 C   0  0  1  0  0  3  0  0  0  0  0  0
  191.6050  175.8050  142.4970 C   0  0  1  0  0  3  0  0  0  0  0  0
  192.6790  176.6220  142.8470 O   0  0  0  0  0  1  0  0  0  0  0  0
  192.0250  174.8460  141.5910 F   0  0  0  0  0  0  0  0  0  0  0  0
  184.7110  177.7880  142.8440 C   0  0  0  0  0  2  0  0  0  0  0  0
  183.8600  178.5790  141.9640 N   0  0  0  0  0  0  0  0  0  0  0  0
  182.3770  178.0090  140.1990 C   0  0  0  0  0  2  0  0  0  0  0  0
  183.7900  177.8740  140.6940 C   0  0  0  0  0  2  0  0  0  0  0  0
  182.5630  178.5500  142.5080 N   0  0  0  0  0  2  0  0  0  0  0  0
  181.6410  178.5730  141.3830 C   0  0  2  0  0  3  0  0  0  0  0  0
  180.5320  177.7790  141.6710 O   0  0  0  0  0  1  0  0  0  0  0  0
  190.2710  177.0150  145.6660 C   0  0  0  0  0  2  0  0  0  0  0  0
  190.2050  176.9900  147.1850 C   0  0  0  0  0  2  0  0  0  0  0  0
  191.9460  177.4540  148.7550 F   0  0  0  0  0  0  0  0  0  0  0  0
  191.2810  175.3320  148.4740 F   0  0  0  0  0  0  0  0  0  0  0  0
  191.5180  176.5270  147.8200 C   0  0  0  0  0  0  0  0  0  0  0  0
  192.9470  174.9420  146.6760 O   0  0  0  0  0  1  0  0  0  0  0  0
  192.6220  176.2960  146.7810 C   0  0  0  0  0  3  0  0  0  0  0  0
  193.7650  177.0320  147.0970 O   0  0  0  0  0  1  0  0  0  0  0  0
  1  5  1  0  0  0  0
  1  9  1  1  0  0  0
  2  3  1  6  0  0  0
  2 11  1  0  0  0  0
  3 10  1  0  0  0  0
  4  3  2  0  0  0  0
  6  2  1  0  0  0  0
  6  7  1  0  0  0  0
  7 13  1  6  0  0  0
  7  8  1  0  0  0  0
  8 24  1  0  0  0  0
 10 17  1  1  0  0  0
 10  1  1  0  0  0  0
 11  8  1  0  0  0  0
 11  5  1  1  0  0  0
 13 12  1  6  0  0  0
 14 16  1  6  0  0  0
 14 15  1  0  0  0  0
 14 13  1  0  0  0  0
 18 21  1  0  0  0  0
 18 17  1  0  0  0  0
 19 20  1  0  0  0  0
 19 22  1  0  0  0  0
 20 18  1  0  0  0  0
 22 23  1  1  0  0  0
 22 21  1  0  0  0  0
 24 25  1  0  0  0  0
 25 28  1  0  0  0  0
 28 27  1  0  0  0  0
 28 26  1  0  0  0  0
 29 30  1  0  0  0  0
 30 31  1  0  0  0  0
 30 28  1  0  0  0  0
M  END
>  <MODEL>
3

>  <REMARK>
 VINA RESULT:      -6.8      3.363      7.870
  Name = 
  8 active torsions:
  status: ('A' for Active; 'I' for Inactive)
    1  A    between atoms: N_1  and  C_23
    2  A    between atoms: C_14  and  C_28
    3  A    between atoms: C_18  and  C_31
    4  A    between atoms: C_19  and  C_28
    5  A    between atoms: N_20  and  C_30
    6  A    between atoms: C_23  and  C_26
    7  A    between atoms: C_25  and  C_30
    8  A    between atoms: C_25  and  C_31
                            x       y       z     vdW  Elec       q    Type
                         _______ _______ _______ _____ _____    ______ ____

>  <TORSDO>
F 8

$$$$
=
 OpenBabel11062421233D

 31 33  0  0  1  0  0  0  0  0999 V2000
  192.6140  175.6430  145.5010 C   0  0  2  0  0  3  0  0  0  0  0  0
  191.0270  176.7440  143.3140 C   0  0  1  0  0  3  0  0  0  0  0  0
  192.0150  175.6620  143.0260 C   0  0  0  0  0  0  0  0  0  0  0  0
  191.9750  175.0090  141.9950 O   0  0  0  0  0  0  0  0  0  0  0  0
  191.5700  176.7630  145.6900 C   0  0  0  0  0  2  0  0  0  0  0  0
  189.9060  176.8090  142.4970 O   0  0  0  0  0  0  0  0  0  0  0  0
  189.0470  177.6090  143.2880 C   0  0  2  0  0  3  0  0  0  0  0  0
  189.3290  177.3840  144.7350 N   0  0  0  0  0  0  0  0  0  0  0  0
  193.7290  175.7460  146.5270 C   0  0  0  0  0  1  0  0  0  0  0  0
  193.1280  175.4750  144.0350 C   0  0  1  0  0  3  0  0  0  0  0  0
  190.4760  176.5120  144.6670 C   0  0  1  0  0  3  0  0  0  0  0  0
  187.1330  178.7120  142.3410 O   0  0  0  0  0  1  0  0  0  0  0  0
  187.5760  177.4880  142.8510 C   0  0  1  0  0  3  0  0  0  0  0  0
  187.4020  176.4000  141.7970 C   0  0  1  0  0  3  0  0  0  0  0  0
  186.9650  175.2200  142.4000 O   0  0  0  0  0  1  0  0  0  0  0  0
  186.4920  176.7940  140.8320 F   0  0  0  0  0  0  0  0  0  0  0  0
  194.3330  176.3610  143.6920 C   0  0  0  0  0  2  0  0  0  0  0  0
  195.3760  175.6040  143.0130 N   0  0  0  0  0  0  0  0  0  0  0  0
  197.7470  175.7420  143.0200 C   0  0  0  0  0  2  0  0  0  0  0  0
  196.4820  176.5190  142.7800 C   0  0  0  0  0  2  0  0  0  0  0  0
  195.8430  174.6370  143.9220 N   0  0  0  0  0  2  0  0  0  0  0  0
  197.2620  174.4670  143.6540 C   0  0  2  0  0  3  0  0  0  0  0  0
  197.9410  174.2470  144.8510 O   0  0  0  0  0  1  0  0  0  0  0  0
  188.2880  176.5980  145.3890 C   0  0  0  0  0  2  0  0  0  0  0  0
  187.6860  177.3990  146.5330 C   0  0  0  0  0  2  0  0  0  0  0  0
  185.7230  176.3650  145.6440 F   0  0  0  0  0  0  0  0  0  0  0  0
  185.8810  176.6580  147.8610 F   0  0  0  0  0  0  0  0  0  0  0  0
  186.1680  177.2250  146.6340 C   0  0  0  0  0  0  0  0  0  0  0  0
  184.0400  178.3600  146.4270 O   0  0  0  0  0  1  0  0  0  0  0  0
  185.4180  178.5590  146.5320 C   0  0  0  0  0  3  0  0  0  0  0  0
  185.8710  179.3030  145.4410 O   0  0  0  0  0  1  0  0  0  0  0  0
  1  5  1  0  0  0  0
  1  9  1  1  0  0  0
  2  6  1  6  0  0  0
  2 11  1  0  0  0  0
  3  2  1  0  0  0  0
  3 10  1  0  0  0  0
  4  3  2  0  0  0  0
  6  7  1  0  0  0  0
  7 13  1  1  0  0  0
  7  8  1  0  0  0  0
  8 24  1  0  0  0  0
 10 17  1  6  0  0  0
 10  1  1  0  0  0  0
 11  8  1  0  0  0  0
 11  5  1  1  0  0  0
 13 12  1  6  0  0  0
 14 16  1  6  0  0  0
 14 15  1  0  0  0  0
 14 13  1  0  0  0  0
 18 17  1  0  0  0  0
 18 21  1  0  0  0  0
 19 22  1  0  0  0  0
 20 18  1  0  0  0  0
 20 19  1  0  0  0  0
 22 21  1  0  0  0  0
 22 23  1  1  0  0  0
 24 25  1  0  0  0  0
 25 28  1  0  0  0  0
 26 28  1  0  0  0  0
 28 27  1  0  0  0  0
 29 30  1  0  0  0  0
 30 28  1  0  0  0  0
 31 30  1  0  0  0  0
M  END
>  <MODEL>
4

>  <REMARK>
 VINA RESULT:      -6.7      1.593      1.995
  Name = 
  8 active torsions:
  status: ('A' for Active; 'I' for Inactive)
    1  A    between atoms: N_1  and  C_23
    2  A    between atoms: C_14  and  C_28
    3  A    between atoms: C_18  and  C_31
    4  A    between atoms: C_19  and  C_28
    5  A    between atoms: N_20  and  C_30
    6  A    between atoms: C_23  and  C_26
    7  A    between atoms: C_25  and  C_30
    8  A    between atoms: C_25  and  C_31
                            x       y       z     vdW  Elec       q    Type
                         _______ _______ _______ _____ _____    ______ ____

>  <TORSDO>
F 8

$$$$
=
 OpenBabel11062421233D

 31 33  0  0  1  0  0  0  0  0999 V2000
  190.9530  176.0140  147.0070 C   0  0  2  0  0  3  0  0  0  0  0  0
  190.7040  175.8940  144.1020 C   0  0  1  0  0  3  0  0  0  0  0  0
  191.4880  174.8400  144.8120 C   0  0  0  0  0  0  0  0  0  0  0  0
  191.7680  173.7760  144.2820 O   0  0  0  0  0  0  0  0  0  0  0  0
  190.1680  177.0520  146.1790 C   0  0  0  0  0  2  0  0  0  0  0  0
  190.0770  175.5240  142.9200 O   0  0  0  0  0  0  0  0  0  0  0  0
  189.1350  176.5720  142.7800 C   0  0  2  0  0  3  0  0  0  0  0  0
  188.7200  177.0670  144.1230 N   0  0  0  0  0  0  0  0  0  0  0  0
  191.5170  176.6300  148.2760 C   0  0  0  0  0  1  0  0  0  0  0  0
  192.0020  175.1920  146.1920 C   0  0  1  0  0  3  0  0  0  0  0  0
  189.5920  176.3080  144.9860 C   0  0  1  0  0  3  0  0  0  0  0  0
  187.7570  177.2760  140.9400 O   0  0  0  0  0  1  0  0  0  0  0  0
  188.0010  176.2050  141.8050 C   0  0  1  0  0  3  0  0  0  0  0  0
  188.3500  174.9600  140.9970 C   0  0  1  0  0  3  0  0  0  0  0  0
  187.7640  173.8360  141.5780 O   0  0  0  0  0  1  0  0  0  0  0  0
  187.9140  175.0880  139.6890 F   0  0  0  0  0  0  0  0  0  0  0  0
  193.3840  175.8540  146.1100 C   0  0  0  0  0  2  0  0  0  0  0  0
  194.1670  175.3200  145.0040 N   0  0  0  0  0  0  0  0  0  0  0  0
  196.3610  175.7580  144.2070 C   0  0  0  0  0  2  0  0  0  0  0  0
  195.0380  176.3890  144.5430 C   0  0  0  0  0  2  0  0  0  0  0  0
  195.0050  174.3220  145.5340 N   0  0  0  0  0  2  0  0  0  0  0  0
  196.2400  174.3670  144.7670 C   0  0  2  0  0  3  0  0  0  0  0  0
  197.3210  174.1000  145.6040 O   0  0  0  0  0  1  0  0  0  0  0  0
  187.3680  176.6460  144.4790 C   0  0  0  0  0  2  0  0  0  0  0  0
  186.6530  177.7800  145.1970 C   0  0  0  0  0  2  0  0  0  0  0  0
  185.1090  176.2100  146.1260 F   0  0  0  0  0  0  0  0  0  0  0  0
  186.8330  176.9020  147.3800 F   0  0  0  0  0  0  0  0  0  0  0  0
  185.9010  177.3020  146.4410 C   0  0  0  0  0  0  0  0  0  0  0  0
  184.0660  178.8560  146.1620 O   0  0  0  0  0  1  0  0  0  0  0  0
  185.0340  178.4040  147.0610 C   0  0  0  0  0  3  0  0  0  0  0  0
  185.8210  179.4760  147.4860 O   0  0  0  0  0  1  0  0  0  0  0  0
  1  9  1  1  0  0  0
  2  6  1  6  0  0  0
  2  3  1  0  0  0  0
  2 11  1  0  0  0  0
  3 10  1  0  0  0  0
  4  3  2  0  0  0  0
  5  1  1  0  0  0  0
  7 13  1  1  0  0  0
  7  6  1  0  0  0  0
  7  8  1  0  0  0  0
  8 24  1  0  0  0  0
  8 11  1  0  0  0  0
 10 17  1  6  0  0  0
 10  1  1  0  0  0  0
 11  5  1  1  0  0  0
 13 12  1  6  0  0  0
 14 16  1  6  0  0  0
 14 15  1  0  0  0  0
 14 13  1  0  0  0  0
 18 21  1  0  0  0  0
 18 17  1  0  0  0  0
 19 20  1  0  0  0  0
 19 22  1  0  0  0  0
 20 18  1  0  0  0  0
 22 21  1  0  0  0  0
 22 23  1  1  0  0  0
 24 25  1  0  0  0  0
 25 28  1  0  0  0  0
 26 28  1  0  0  0  0
 28 30  1  0  0  0  0
 28 27  1  0  0  0  0
 29 30  1  0  0  0  0
 30 31  1  0  0  0  0
M  END
>  <MODEL>
5

>  <REMARK>
 VINA RESULT:      -6.6      1.080      1.196
  Name = 
  8 active torsions:
  status: ('A' for Active; 'I' for Inactive)
    1  A    between atoms: N_1  and  C_23
    2  A    between atoms: C_14  and  C_28
    3  A    between atoms: C_18  and  C_31
    4  A    between atoms: C_19  and  C_28
    5  A    between atoms: N_20  and  C_30
    6  A    between atoms: C_23  and  C_26
    7  A    between atoms: C_25  and  C_30
    8  A    between atoms: C_25  and  C_31
                            x       y       z     vdW  Elec       q    Type
                         _______ _______ _______ _____ _____    ______ ____

>  <TORSDO>
F 8

$$$$
=
 OpenBabel11062421233D

 31 33  0  0  1  0  0  0  0  0999 V2000
  191.0170  175.9300  146.1330 C   0  0  2  0  0  3  0  0  0  0  0  0
  189.9270  176.8230  143.5780 C   0  0  1  0  0  3  0  0  0  0  0  0
  190.8180  175.6250  143.6130 C   0  0  0  0  0  0  0  0  0  0  0  0
  190.8650  174.8290  142.6890 O   0  0  0  0  0  0  0  0  0  0  0  0
  190.0910  177.1550  145.9880 C   0  0  0  0  0  2  0  0  0  0  0  0
  188.9620  176.8640  142.5810 O   0  0  0  0  0  0  0  0  0  0  0  0
  188.0870  177.8490  143.0980 C   0  0  2  0  0  3  0  0  0  0  0  0
  188.1130  177.8220  144.5880 N   0  0  0  0  0  0  0  0  0  0  0  0
  191.9630  176.0870  147.3110 C   0  0  0  0  0  1  0  0  0  0  0  0
  191.7310  175.4940  144.8130 C   0  0  1  0  0  3  0  0  0  0  0  0
  189.1480  176.8510  144.8360 C   0  0  1  0  0  3  0  0  0  0  0  0
  186.1100  179.0630  142.4690 O   0  0  0  0  0  1  0  0  0  0  0  0
  186.6990  177.7960  142.4350 C   0  0  1  0  0  3  0  0  0  0  0  0
  186.7940  177.3120  140.9920 C   0  0  1  0  0  3  0  0  0  0  0  0
  185.5910  177.5530  140.3290 O   0  0  0  0  0  1  0  0  0  0  0  0
  187.8280  177.9510  140.3290 F   0  0  0  0  0  0  0  0  0  0  0  0
  193.0680  176.2060  144.5650 C   0  0  0  0  0  2  0  0  0  0  0  0
  194.0720  175.2880  144.0440 N   0  0  0  0  0  0  0  0  0  0  0  0
  196.4460  175.2930  144.0750 C   0  0  0  0  0  2  0  0  0  0  0  0
  195.2320  176.0870  143.6820 C   0  0  0  0  0  2  0  0  0  0  0  0
  194.4720  174.4640  145.1110 N   0  0  0  0  0  2  0  0  0  0  0  0
  195.8820  174.1720  144.9040 C   0  0  2  0  0  3  0  0  0  0  0  0
  196.5350  174.1190  146.1340 O   0  0  0  0  0  1  0  0  0  0  0  0
  186.8990  177.2420  145.1550 C   0  0  0  0  0  2  0  0  0  0  0  0
  186.6610  177.8130  146.5440 C   0  0  0  0  0  2  0  0  0  0  0  0
  185.9440  179.8180  147.6290 F   0  0  0  0  0  0  0  0  0  0  0  0
  185.9660  179.7500  145.3890 F   0  0  0  0  0  0  0  0  0  0  0  0
  185.7090  179.0120  146.5280 C   0  0  0  0  0  0  0  0  0  0  0  0
  184.0840  177.2500  146.8710 O   0  0  0  0  0  1  0  0  0  0  0  0
  184.2350  178.5890  146.5060 C   0  0  0  0  0  3  0  0  0  0  0  0
  183.6760  178.7990  145.2440 O   0  0  0  0  0  1  0  0  0  0  0  0
  1  9  1  1  0  0  0
  2  6  1  6  0  0  0
  2  3  1  0  0  0  0
  2 11  1  0  0  0  0
  3 10  1  0  0  0  0
  4  3  2  0  0  0  0
  5  1  1  0  0  0  0
  6  7  1  0  0  0  0
  7 13  1  1  0  0  0
  7  8  1  0  0  0  0
  8 11  1  0  0  0  0
  8 24  1  0  0  0  0
 10 17  1  6  0  0  0
 10  1  1  0  0  0  0
 11  5  1  1  0  0  0
 13 12  1  6  0  0  0
 14 16  1  6  0  0  0
 14 13  1  0  0  0  0
 15 14  1  0  0  0  0
 18 17  1  0  0  0  0
 18 21  1  0  0  0  0
 19 22  1  0  0  0  0
 20 18  1  0  0  0  0
 20 19  1  0  0  0  0
 22 21  1  0  0  0  0
 22 23  1  1  0  0  0
 24 25  1  0  0  0  0
 27 28  1  0  0  0  0
 28 25  1  0  0  0  0
 28 26  1  0  0  0  0
 30 28  1  0  0  0  0
 30 29  1  0  0  0  0
 31 30  1  0  0  0  0
M  END
>  <MODEL>
6

>  <REMARK>
 VINA RESULT:      -6.6      1.881      2.206
  Name = 
  8 active torsions:
  status: ('A' for Active; 'I' for Inactive)
    1  A    between atoms: N_1  and  C_23
    2  A    between atoms: C_14  and  C_28
    3  A    between atoms: C_18  and  C_31
    4  A    between atoms: C_19  and  C_28
    5  A    between atoms: N_20  and  C_30
    6  A    between atoms: C_23  and  C_26
    7  A    between atoms: C_25  and  C_30
    8  A    between atoms: C_25  and  C_31
                            x       y       z     vdW  Elec       q    Type
                         _______ _______ _______ _____ _____    ______ ____

>  <TORSDO>
F 8

$$$$
=
 OpenBabel11062421233D

 31 33  0  0  1  0  0  0  0  0999 V2000
  186.1820  178.8330  143.4530 C   0  0  2  0  0  3  0  0  0  0  0  0
  186.7650  176.3330  142.0670 C   0  0  1  0  0  3  0  0  0  0  0  0
  186.0770  177.4340  141.3290 C   0  0  0  0  0  0  0  0  0  0  0  0
  186.0220  177.4580  140.1090 O   0  0  0  0  0  0  0  0  0  0  0  0
  186.8860  177.6360  144.1230 C   0  0  0  0  0  2  0  0  0  0  0  0
  187.5660  175.4790  141.3210 O   0  0  0  0  0  0  0  0  0  0  0  0
  188.3480  174.8880  142.3430 C   0  0  2  0  0  3  0  0  0  0  0  0
  188.5320  175.8520  143.4650 N   0  0  0  0  0  0  0  0  0  0  0  0
  185.3950  179.6500  144.4640 C   0  0  0  0  0  1  0  0  0  0  0  0
  185.3670  178.4730  142.1700 C   0  0  1  0  0  3  0  0  0  0  0  0
  187.6970  176.9470  143.0380 C   0  0  1  0  0  3  0  0  0  0  0  0
  189.9230  173.0820  142.5300 O   0  0  0  0  0  1  0  0  0  0  0  0
  189.6240  174.2300  141.7900 C   0  0  1  0  0  3  0  0  0  0  0  0
  189.4620  173.8640  140.3180 C   0  0  1  0  0  3  0  0  0  0  0  0
  190.7100  173.6000  139.7540 O   0  0  0  0  0  1  0  0  0  0  0  0
  188.6440  172.7570  140.1760 F   0  0  0  0  0  0  0  0  0  0  0  0
  183.9170  178.0540  142.4520 C   0  0  0  0  0  2  0  0  0  0  0  0
  182.9730  178.8390  141.6680 N   0  0  0  0  0  0  0  0  0  0  0  0
  181.0170  178.2760  140.4450 C   0  0  0  0  0  2  0  0  0  0  0  0
  182.4810  177.9760  140.6050 C   0  0  0  0  0  2  0  0  0  0  0  0
  181.8740  179.1140  142.5000 N   0  0  0  0  0  2  0  0  0  0  0  0
  180.6980  179.1280  141.6440 C   0  0  2  0  0  3  0  0  0  0  0  0
  179.6120  178.5880  142.3310 O   0  0  0  0  0  1  0  0  0  0  0  0
  189.8850  176.3980  143.5130 C   0  0  0  0  0  2  0  0  0  0  0  0
  190.6360  175.7980  144.6910 C   0  0  0  0  0  2  0  0  0  0  0  0
  191.8270  176.8770  146.4600 F   0  0  0  0  0  0  0  0  0  0  0  0
  190.0420  177.9030  145.5760 F   0  0  0  0  0  0  0  0  0  0  0  0
  190.5590  176.6750  145.9430 C   0  0  0  0  0  0  0  0  0  0  0  0
  189.6110  174.6810  146.9360 O   0  0  0  0  0  1  0  0  0  0  0  0
  189.6520  176.0740  147.0240 C   0  0  0  0  0  3  0  0  0  0  0  0
  188.3580  176.5900  146.9320 O   0  0  0  0  0  1  0  0  0  0  0  0
  1  5  1  0  0  0  0
  1  9  1  1  0  0  0
  2  6  1  6  0  0  0
  2 11  1  0  0  0  0
  3  2  1  0  0  0  0
  3 10  1  0  0  0  0
  4  3  2  0  0  0  0
  6  7  1  0  0  0  0
  7 13  1  6  0  0  0
  7  8  1  0  0  0  0
  8 24  1  0  0  0  0
 10 17  1  1  0  0  0
 10  1  1  0  0  0  0
 11  8  1  0  0  0  0
 11  5  1  1  0  0  0
 13 12  1  1  0  0  0
 14 15  1  1  0  0  0
 14 13  1  0  0  0  0
 16 14  1  0  0  0  0
 18 17  1  0  0  0  0
 18 21  1  0  0  0  0
 19 20  1  0  0  0  0
 19 22  1  0  0  0  0
 20 18  1  0  0  0  0
 22 23  1  1  0  0  0
 22 21  1  0  0  0  0
 24 25  1  0  0  0  0
 25 28  1  0  0  0  0
 27 28  1  0  0  0  0
 28 26  1  0  0  0  0
 28 30  1  0  0  0  0
 29 30  1  0  0  0  0
 31 30  1  0  0  0  0
M  END
>  <MODEL>
7

>  <REMARK>
 VINA RESULT:      -6.4      3.671      8.049
  Name = 
  8 active torsions:
  status: ('A' for Active; 'I' for Inactive)
    1  A    between atoms: N_1  and  C_23
    2  A    between atoms: C_14  and  C_28
    3  A    between atoms: C_18  and  C_31
    4  A    between atoms: C_19  and  C_28
    5  A    between atoms: N_20  and  C_30
    6  A    between atoms: C_23  and  C_26
    7  A    between atoms: C_25  and  C_30
    8  A    between atoms: C_25  and  C_31
                            x       y       z     vdW  Elec       q    Type
                         _______ _______ _______ _____ _____    ______ ____

>  <TORSDO>
F 8

$$$$
=
 OpenBabel11062421233D

 31 33  0  0  1  0  0  0  0  0999 V2000
  187.9090  176.2550  142.2660 C   0  0  2  0  0  3  0  0  0  0  0  0
  189.4190  177.3890  144.4900 C   0  0  1  0  0  3  0  0  0  0  0  0
  187.9290  177.4810  144.4970 C   0  0  0  0  0  0  0  0  0  0  0  0
  187.3020  177.7290  145.5160 O   0  0  0  0  0  0  0  0  0  0  0  0
  189.4490  176.2140  142.3550 C   0  0  0  0  0  2  0  0  0  0  0  0
  190.0540  177.3310  145.7240 O   0  0  0  0  0  0  0  0  0  0  0  0
  191.3240  176.8330  145.3470 C   0  0  2  0  0  3  0  0  0  0  0  0
  191.1930  175.9580  144.1470 N   0  0  0  0  0  0  0  0  0  0  0  0
  187.4380  176.2740  140.8230 C   0  0  0  0  0  1  0  0  0  0  0  0
  187.2360  177.3460  143.1580 C   0  0  1  0  0  3  0  0  0  0  0  0
  189.7950  176.1190  143.8310 C   0  0  1  0  0  3  0  0  0  0  0  0
  193.3520  176.8510  146.6370 O   0  0  0  0  0  1  0  0  0  0  0  0
  192.0950  176.2460  146.5420 C   0  0  1  0  0  3  0  0  0  0  0  0
  191.3290  176.4480  147.8450 C   0  0  1  0  0  3  0  0  0  0  0  0
  190.9820  175.2110  148.3890 O   0  0  0  0  0  1  0  0  0  0  0  0
  192.0910  177.1590  148.7560 F   0  0  0  0  0  0  0  0  0  0  0  0
  187.0960  178.7120  142.4720 C   0  0  0  0  0  2  0  0  0  0  0  0
  185.7350  179.2200  142.5680 N   0  0  0  0  0  0  0  0  0  0  0  0
  183.6990  178.2720  143.3390 C   0  0  0  0  0  2  0  0  0  0  0  0
  184.8430  178.0860  142.3820 C   0  0  0  0  0  2  0  0  0  0  0  0
  185.5500  179.6600  143.8910 N   0  0  0  0  0  2  0  0  0  0  0  0
  184.1590  179.3970  144.2250 C   0  0  2  0  0  3  0  0  0  0  0  0
  184.0630  179.0140  145.5620 O   0  0  0  0  0  1  0  0  0  0  0  0
  191.3520  174.5430  144.4710 C   0  0  0  0  0  2  0  0  0  0  0  0
  189.9910  173.9290  144.7570 C   0  0  0  0  0  2  0  0  0  0  0  0
  191.3010  171.9330  144.6530 F   0  0  0  0  0  0  0  0  0  0  0  0
  189.3300  171.8770  145.7180 F   0  0  0  0  0  0  0  0  0  0  0  0
  189.9990  172.4030  144.6290 C   0  0  0  0  0  0  0  0  0  0  0  0
  190.2170  171.4040  142.4350 O   0  0  0  0  0  1  0  0  0  0  0  0
  189.3000  171.9190  143.3540 C   0  0  0  0  0  3  0  0  0  0  0  0
  188.5700  172.9510  142.7630 O   0  0  0  0  0  1  0  0  0  0  0  0
  1  9  1  6  0  0  0
  1  5  1  0  0  0  0
  1 10  1  0  0  0  0
  2  3  1  1  0  0  0
  2  6  1  0  0  0  0
  3  4  2  0  0  0  0
  7  6  1  0  0  0  0
  7 13  1  1  0  0  0
  8 24  1  0  0  0  0
  8  7  1  0  0  0  0
 10 17  1  6  0  0  0
 10  3  1  0  0  0  0
 11  5  1  6  0  0  0
 11  8  1  0  0  0  0
 11  2  1  0  0  0  0
 13 12  1  1  0  0  0
 13 14  1  0  0  0  0
 14 15  1  1  0  0  0
 14 16  1  0  0  0  0
 17 18  1  0  0  0  0
 18 21  1  0  0  0  0
 19 22  1  0  0  0  0
 20 18  1  0  0  0  0
 20 19  1  0  0  0  0
 21 22  1  0  0  0  0
 22 23  1  1  0  0  0
 24 25  1  0  0  0  0
 28 26  1  0  0  0  0
 28 25  1  0  0  0  0
 28 27  1  0  0  0  0
 29 30  1  0  0  0  0
 30 28  1  0  0  0  0
 31 30  1  0  0  0  0
M  END
>  <MODEL>
8

>  <REMARK>
 VINA RESULT:      -6.4      3.265      7.707
  Name = 
  8 active torsions:
  status: ('A' for Active; 'I' for Inactive)
    1  A    between atoms: N_1  and  C_23
    2  A    between atoms: C_14  and  C_28
    3  A    between atoms: C_18  and  C_31
    4  A    between atoms: C_19  and  C_28
    5  A    between atoms: N_20  and  C_30
    6  A    between atoms: C_23  and  C_26
    7  A    between atoms: C_25  and  C_30
    8  A    between atoms: C_25  and  C_31
                            x       y       z     vdW  Elec       q    Type
                         _______ _______ _______ _____ _____    ______ ____

>  <TORSDO>
F 8

$$$$
=
 OpenBabel11062421233D

 31 33  0  0  1  0  0  0  0  0999 V2000
  190.1860  176.3020  145.4790 C   0  0  2  0  0  3  0  0  0  0  0  0
  189.2210  176.9890  142.8130 C   0  0  1  0  0  3  0  0  0  0  0  0
  190.2100  175.8800  142.9680 C   0  0  0  0  0  0  0  0  0  0  0  0
  190.4000  175.0560  142.0880 O   0  0  0  0  0  0  0  0  0  0  0  0
  189.1680  177.4280  145.2100 C   0  0  0  0  0  2  0  0  0  0  0  0
  188.3370  176.9000  141.7460 O   0  0  0  0  0  0  0  0  0  0  0  0
  187.3390  177.8190  142.1510 C   0  0  2  0  0  3  0  0  0  0  0  0
  187.2520  177.8540  143.6380 N   0  0  0  0  0  0  0  0  0  0  0  0
  191.0190  176.5920  146.7150 C   0  0  0  0  0  1  0  0  0  0  0  0
  191.0360  175.8830  144.2370 C   0  0  1  0  0  3  0  0  0  0  0  0
  188.3480  176.9930  144.0070 C   0  0  1  0  0  3  0  0  0  0  0  0
  185.2700  178.7920  141.4110 O   0  0  0  0  0  1  0  0  0  0  0  0
  186.0170  177.6110  141.3920 C   0  0  1  0  0  3  0  0  0  0  0  0
  186.2700  177.1870  139.9480 C   0  0  1  0  0  3  0  0  0  0  0  0
  185.0770  177.2220  139.2260 O   0  0  0  0  0  1  0  0  0  0  0  0
  187.2010  178.0190  139.3510 F   0  0  0  0  0  0  0  0  0  0  0  0
  192.3190  176.7050  144.0550 C   0  0  0  0  0  2  0  0  0  0  0  0
  193.4460  175.8590  143.6860 N   0  0  0  0  0  0  0  0  0  0  0  0
  195.2020  176.0960  142.1060 C   0  0  0  0  0  2  0  0  0  0  0  0
  193.7090  176.0920  142.2750 C   0  0  0  0  0  2  0  0  0  0  0  0
  194.5680  176.3400  144.3850 N   0  0  0  0  0  2  0  0  0  0  0  0
  195.7180  176.1310  143.5180 C   0  0  2  0  0  3  0  0  0  0  0  0
  196.6140  177.1880  143.6670 O   0  0  0  0  0  1  0  0  0  0  0  0
  186.0540  177.1860  144.1410 C   0  0  0  0  0  2  0  0  0  0  0  0
  185.1480  178.2030  144.8170 C   0  0  0  0  0  2  0  0  0  0  0  0
  183.7250  178.4880  146.7160 F   0  0  0  0  0  0  0  0  0  0  0  0
  184.7070  176.5000  146.3900 F   0  0  0  0  0  0  0  0  0  0  0  0
  184.8860  177.8660  146.2870 C   0  0  0  0  0  0  0  0  0  0  0  0
  186.1900  177.3830  148.2690 O   0  0  0  0  0  1  0  0  0  0  0  0
  186.0520  178.2690  147.1970 C   0  0  0  0  0  3  0  0  0  0  0  0
  185.8820  179.5680  147.6790 O   0  0  0  0  0  1  0  0  0  0  0  0
  1  9  1  1  0  0  0
  2  6  1  6  0  0  0
  2  3  1  0  0  0  0
  2 11  1  0  0  0  0
  3 10  1  0  0  0  0
  4  3  2  0  0  0  0
  5  1  1  0  0  0  0
  6  7  1  0  0  0  0
  7 13  1  6  0  0  0
  7  8  1  0  0  0  0
  8 11  1  0  0  0  0
  8 24  1  0  0  0  0
 10 17  1  6  0  0  0
 10  1  1  0  0  0  0
 11  5  1  1  0  0  0
 13 12  1  6  0  0  0
 14 15  1  6  0  0  0
 14 13  1  0  0  0  0
 16 14  1  0  0  0  0
 18 17  1  0  0  0  0
 18 21  1  0  0  0  0
 19 20  1  0  0  0  0
 19 22  1  0  0  0  0
 20 18  1  0  0  0  0
 22 23  1  6  0  0  0
 22 21  1  0  0  0  0
 24 25  1  0  0  0  0
 25 28  1  0  0  0  0
 28 27  1  0  0  0  0
 28 26  1  0  0  0  0
 28 30  1  0  0  0  0
 30 31  1  0  0  0  0
 30 29  1  0  0  0  0
M  END
>  <MODEL>
9

>  <REMARK>
 VINA RESULT:      -6.4      1.709      2.278
  Name = 
  8 active torsions:
  status: ('A' for Active; 'I' for Inactive)
    1  A    between atoms: N_1  and  C_23
    2  A    between atoms: C_14  and  C_28
    3  A    between atoms: C_18  and  C_31
    4  A    between atoms: C_19  and  C_28
    5  A    between atoms: N_20  and  C_30
    6  A    between atoms: C_23  and  C_26
    7  A    between atoms: C_25  and  C_30
    8  A    between atoms: C_25  and  C_31
                            x       y       z     vdW  Elec       q    Type
                         _______ _______ _______ _____ _____    ______ ____

>  <TORSDO>
F 8

$$$$
