=
 OpenBabel11062422413D

 44 46  0  0  1  0  0  0  0  0999 V2000
  193.0270  173.6880  143.6550 O   0  0  0  0  0  0  0  0  0  0  0  0
  189.3750  176.4470  142.2550 C   0  0  1  0  0  3  0  0  0  0  0  0
  187.9620  176.2770  141.8150 N   0  0  1  0  0  0  0  0  0  0  0  0
  188.8250  174.1210  142.2630 C   0  0  1  0  0  3  0  0  0  0  0  0
  188.7570  173.0350  143.1440 O   0  0  0  0  0  0  0  0  0  0  0  0
  189.5850  177.4410  143.4030 C   0  0  0  0  0  1  0  0  0  0  0  0
  187.5690  174.9390  142.2690 C   0  0  0  0  0  2  0  0  0  0  0  0
  191.0850  172.4320  143.2740 C   0  0  0  0  0  3  0  0  0  0  0  0
  191.7690  173.5670  143.0590 C   0  0  0  0  0  0  0  0  0  0  0  0
  189.7300  172.1330  142.6810 C   0  0  0  0  0  2  0  0  0  0  0  0
  189.8600  175.0980  142.7370 C   0  0  1  0  0  3  0  0  0  0  0  0
  191.2180  174.6790  142.2030 C   0  0  0  0  0  2  0  0  0  0  0  0
  183.3950  178.9530  143.4270 O   0  0  0  0  0  0  0  0  0  0  0  0
  185.4390  177.9390  144.1660 C   0  0  2  0  0  3  0  0  0  0  0  0
  184.4500  178.3400  143.1010 C   0  0  0  0  0  0  0  0  0  0  0  0
  184.7400  178.0670  141.6780 C   0  0  0  0  0  0  0  0  0  0  0  0
  183.7200  178.3400  140.6300 C   0  0  0  0  0  1  0  0  0  0  0  0
  185.9080  177.5290  141.3180 C   0  0  0  0  0  3  0  0  0  0  0  0
  187.0120  177.2860  142.3200 C   0  0  1  0  0  3  0  0  0  0  0  0
  186.3800  176.8500  143.6480 C   0  0  0  0  0  2  0  0  0  0  0  0
  185.7310  176.7580  146.0150 C   0  0  0  0  0  1  0  0  0  0  0  0
  184.7710  177.4740  145.3020 O   0  0  0  0  0  0  0  0  0  0  0  0
  193.9980  172.6410  143.6720 C   0  0  2  0  0  3  0  0  0  0  0  0
  194.3320  172.2660  145.1040 C   0  0  0  0  0  2  0  0  0  0  0  0
  194.4640  170.7640  145.2290 C   0  0  0  0  0  2  0  0  0  0  0  0
  195.7460  170.4240  145.9550 C   0  0  0  0  0  2  0  0  0  0  0  0
  196.6270  171.6490  146.0300 C   0  0  0  0  0  1  0  0  0  0  0  0
  195.2830  172.9990  142.9100 C   0  0  1  0  0  3  0  0  0  0  0  0
  196.7060  171.4020  142.3340 C   0  0  0  0  0  1  0  0  0  0  0  0
  195.5290  172.0310  141.9300 O   0  0  0  0  0  0  0  0  0  0  0  0
  195.2890  174.4130  142.2930 C   0  0  1  0  0  3  0  0  0  0  0  0
  196.3810  175.2940  142.8420 C   0  0  0  0  0  0  0  0  0  0  0  0
  196.1250  176.2690  143.8610 N   0  0  0  0  0  2  0  0  0  0  0  0
  197.5520  175.1590  142.3990 O   0  0  0  0  0  0  0  0  0  0  0  0
  194.4790  175.9540  145.6610 C   0  0  0  0  0  0  0  0  0  0  0  0
  195.2920  175.2400  146.3110 O   0  0  0  0  0  0  0  0  0  0  0  0
  194.8430  176.4710  144.3860 N   0  0  0  0  0  2  0  0  0  0  0  0
  193.1620  176.3360  146.2470 C   0  0  1  0  0  3  0  0  0  0  0  0
  192.2600  176.9710  145.2000 C   0  0  0  0  0  1  0  0  0  0  0  0
  192.4960  175.1130  146.8600 C   0  0  0  0  0  2  0  0  0  0  0  0
  191.5120  176.6480  148.3930 O   0  0  0  0  0  1  0  0  0  0  0  0
  191.2630  175.4980  147.6520 C   0  0  0  0  0  2  0  0  0  0  0  0
  195.4030  174.3410  140.7710 C   0  0  0  0  0  2  0  0  0  0  0  0
  194.7310  175.5380  140.1290 C   0  0  0  0  0  1  0  0  0  0  0  0
  1 23  1  0  0  0  0
  2 11  1  0  0  0  0
  2  6  1  1  0  0  0
  3  2  1  0  0  0  0
  3  7  1  1  0  0  0
  3 19  1  0  0  0  0
  4  7  1  1  0  0  0
  4 11  1  0  0  0  0
  4  5  1  0  0  0  0
  9  8  2  0  0  0  0
  9  1  1  0  0  0  0
 10  5  1  0  0  0  0
 10  8  1  0  0  0  0
 11 12  1  6  0  0  0
 12  9  1  0  0  0  0
 14 22  1  1  0  0  0
 15 13  2  0  0  0  0
 15 14  1  0  0  0  0
 16 15  1  0  0  0  0
 17 16  1  0  0  0  0
 18 16  2  0  0  0  0
 19 18  1  6  0  0  0
 19 20  1  0  0  0  0
 20 14  1  0  0  0  0
 22 21  1  0  0  0  0
 23 24  1  1  0  0  0
 24 25  1  0  0  0  0
 25 26  1  0  0  0  0
 26 27  1  0  0  0  0
 28 30  1  6  0  0  0
 28 23  1  0  0  0  0
 30 29  1  0  0  0  0
 31 43  1  6  0  0  0
 31 32  1  0  0  0  0
 31 28  1  0  0  0  0
 32 33  1  0  0  0  0
 33 37  1  0  0  0  0
 34 32  2  0  0  0  0
 35 38  1  0  0  0  0
 35 36  2  0  0  0  0
 37 35  1  0  0  0  0
 38 39  1  6  0  0  0
 38 40  1  0  0  0  0
 40 42  1  0  0  0  0
 42 41  1  0  0  0  0
 44 43  1  0  0  0  0
M  END
>  <MODEL>
1

>  <REMARK>
 VINA RESULT:      -6.4      0.000      0.000
  Name = 
  16 active torsions:
  status: ('A' for Active; 'I' for Inactive)
    1  A    between atoms: C_1  and  C_8
    2  A    between atoms: C_1  and  C_25
    3  A    between atoms: C_2  and  C_10
    4  A    between atoms: C_3  and  C_20
    5  A    between atoms: C_3  and  C_22
    6  A    between atoms: C_3  and  O_38
    7  A    between atoms: C_5  and  C_22
    8  A    between atoms: N_7  and  C_43
    9  A    between atoms: C_10  and  C_11
   10  A    between atoms: C_11  and  C_27
   11  A    between atoms: C_15  and  O_30
   12  A    between atoms: O_16  and  C_20
   13  A    between atoms: O_16  and  C_35
   14  A    between atoms: C_20  and  C_25
   15  A    between atoms: C_22  and  C_24
   16  A    between atoms: N_33  and  N_34
                            x       y       z     vdW  Elec       q    Type
                         _______ _______ _______ _____ _____    ______ ____

>  <TORSDO>
F 16

$$$$
=
 OpenBabel11062422413D

 44 46  0  0  1  0  0  0  0  0999 V2000
  194.7430  173.2690  145.6090 O   0  0  0  0  0  0  0  0  0  0  0  0
  190.2660  174.9450  145.8640 C   0  0  1  0  0  3  0  0  0  0  0  0
  189.5720  176.2630  145.8280 N   0  0  1  0  0  0  0  0  0  0  0  0
  191.8900  176.6810  145.6120 C   0  0  1  0  0  3  0  0  0  0  0  0
  192.8870  177.1010  144.7230 O   0  0  0  0  0  0  0  0  0  0  0  0
  189.7370  173.9030  144.8710 C   0  0  0  0  0  1  0  0  0  0  0  0
  190.5340  177.1960  145.2320 C   0  0  0  0  0  2  0  0  0  0  0  0
  194.6670  175.5930  145.3180 C   0  0  0  0  0  3  0  0  0  0  0  0
  194.0680  174.4810  145.7730 C   0  0  0  0  0  0  0  0  0  0  0  0
  194.0870  176.9810  145.4420 C   0  0  0  0  0  2  0  0  0  0  0  0
  191.7180  175.1940  145.5190 C   0  0  1  0  0  3  0  0  0  0  0  0
  192.7180  174.5220  146.4430 C   0  0  0  0  0  2  0  0  0  0  0  0
  184.6970  177.7470  143.6730 O   0  0  0  0  0  0  0  0  0  0  0  0
  187.0110  177.3330  143.1920 C   0  0  2  0  0  3  0  0  0  0  0  0
  185.8280  177.4130  144.1240 C   0  0  0  0  0  0  0  0  0  0  0  0
  185.9790  177.0470  145.5480 C   0  0  0  0  0  0  0  0  0  0  0  0
  184.8570  177.2420  146.5040 C   0  0  0  0  0  1  0  0  0  0  0  0
  187.1430  176.5770  146.0040 C   0  0  0  0  0  3  0  0  0  0  0  0
  188.3020  176.2930  145.0790 C   0  0  1  0  0  3  0  0  0  0  0  0
  188.3230  177.3630  143.9790 C   0  0  0  0  0  2  0  0  0  0  0  0
  187.8510  178.0100  141.2600 C   0  0  0  0  0  1  0  0  0  0  0  0
  186.9890  178.3960  142.2850 O   0  0  0  0  0  0  0  0  0  0  0  0
  194.6380  172.4590  144.4380 C   0  0  2  0  0  3  0  0  0  0  0  0
  195.2340  171.0870  144.7010 C   0  0  0  0  0  2  0  0  0  0  0  0
  194.8290  170.6010  146.0760 C   0  0  0  0  0  2  0  0  0  0  0  0
  195.3680  169.2070  146.3010 C   0  0  0  0  0  2  0  0  0  0  0  0
  194.7720  168.6290  147.5620 C   0  0  0  0  0  1  0  0  0  0  0  0
  195.3040  173.0910  143.2060 C   0  0  1  0  0  3  0  0  0  0  0  0
  197.5110  173.2600  143.1280 C   0  0  0  0  0  1  0  0  0  0  0  0
  196.4620  172.3760  142.8830 O   0  0  0  0  0  0  0  0  0  0  0  0
  194.3820  173.2200  141.9750 C   0  0  1  0  0  3  0  0  0  0  0  0
  193.9650  174.6400  141.6940 C   0  0  0  0  0  0  0  0  0  0  0  0
  192.5890  175.0080  141.5400 N   0  0  0  0  0  2  0  0  0  0  0  0
  194.8540  175.5280  141.6030 O   0  0  0  0  0  0  0  0  0  0  0  0
  191.0810  173.3920  140.4610 C   0  0  0  0  0  0  0  0  0  0  0  0
  191.5360  173.6920  139.3220 O   0  0  0  0  0  0  0  0  0  0  0  0
  191.5580  174.0640  141.6210 N   0  0  0  0  0  2  0  0  0  0  0  0
  190.1020  172.2780  140.6210 C   0  0  1  0  0  3  0  0  0  0  0  0
  190.3220  171.5410  141.9330 C   0  0  0  0  0  1  0  0  0  0  0  0
  188.6840  172.8240  140.5420 C   0  0  0  0  0  2  0  0  0  0  0  0
  188.2220  174.0010  138.5230 O   0  0  0  0  0  1  0  0  0  0  0  0
  188.1450  172.7510  139.1270 C   0  0  0  0  0  2  0  0  0  0  0  0
  195.0450  172.6230  140.7360 C   0  0  0  0  0  2  0  0  0  0  0  0
  194.2810  171.4030  140.2580 C   0  0  0  0  0  1  0  0  0  0  0  0
  1  9  1  0  0  0  0
  2  6  1  6  0  0  0
  3  7  1  6  0  0  0
  3  2  1  0  0  0  0
  4  7  1  6  0  0  0
  5 10  1  0  0  0  0
  5  4  1  0  0  0  0
  8 10  1  0  0  0  0
  8  9  2  0  0  0  0
  9 12  1  0  0  0  0
 11  4  1  0  0  0  0
 11  2  1  0  0  0  0
 11 12  1  1  0  0  0
 13 15  2  0  0  0  0
 14 22  1  6  0  0  0
 14 20  1  0  0  0  0
 14 15  1  0  0  0  0
 15 16  1  0  0  0  0
 16 18  2  0  0  0  0
 16 17  1  0  0  0  0
 19 20  1  6  0  0  0
 19  3  1  0  0  0  0
 19 18  1  0  0  0  0
 21 22  1  0  0  0  0
 23 24  1  1  0  0  0
 23  1  1  0  0  0  0
 24 25  1  0  0  0  0
 25 26  1  0  0  0  0
 26 27  1  0  0  0  0
 28 30  1  6  0  0  0
 28 23  1  0  0  0  0
 30 29  1  0  0  0  0
 31 43  1  6  0  0  0
 31 28  1  0  0  0  0
 32 31  1  0  0  0  0
 33 37  1  0  0  0  0
 33 32  1  0  0  0  0
 34 32  2  0  0  0  0
 35 38  1  0  0  0  0
 35 37  1  0  0  0  0
 36 35  2  0  0  0  0
 38 39  1  1  0  0  0
 40 38  1  0  0  0  0
 41 42  1  0  0  0  0
 42 40  1  0  0  0  0
 44 43  1  0  0  0  0
M  END
>  <MODEL>
2

>  <REMARK>
 VINA RESULT:      -6.2      2.310      4.764
  Name = 
  16 active torsions:
  status: ('A' for Active; 'I' for Inactive)
    1  A    between atoms: C_1  and  C_8
    2  A    between atoms: C_1  and  C_25
    3  A    between atoms: C_2  and  C_10
    4  A    between atoms: C_3  and  C_20
    5  A    between atoms: C_3  and  C_22
    6  A    between atoms: C_3  and  O_38
    7  A    between atoms: C_5  and  C_22
    8  A    between atoms: N_7  and  C_43
    9  A    between atoms: C_10  and  C_11
   10  A    between atoms: C_11  and  C_27
   11  A    between atoms: C_15  and  O_30
   12  A    between atoms: O_16  and  C_20
   13  A    between atoms: O_16  and  C_35
   14  A    between atoms: C_20  and  C_25
   15  A    between atoms: C_22  and  C_24
   16  A    between atoms: N_33  and  N_34
                            x       y       z     vdW  Elec       q    Type
                         _______ _______ _______ _____ _____    ______ ____

>  <TORSDO>
F 16

$$$$
=
 OpenBabel11062422413D

 44 46  0  0  1  0  0  0  0  0999 V2000
  193.8190  174.3870  143.2190 O   0  0  0  0  0  0  0  0  0  0  0  0
  189.6860  176.7330  142.6510 C   0  0  1  0  0  3  0  0  0  0  0  0
  188.2310  176.4180  142.5930 N   0  0  1  0  0  0  0  0  0  0  0  0
  189.3810  174.3780  142.9170 C   0  0  1  0  0  3  0  0  0  0  0  0
  189.6400  173.3570  143.8410 O   0  0  0  0  0  0  0  0  0  0  0  0
  190.0770  177.8220  143.6570 C   0  0  0  0  0  1  0  0  0  0  0  0
  188.0940  175.0900  143.2000 C   0  0  0  0  0  2  0  0  0  0  0  0
  191.9730  172.9550  143.4070 C   0  0  0  0  0  3  0  0  0  0  0  0
  192.4710  174.1210  142.9670 C   0  0  0  0  0  0  0  0  0  0  0  0
  190.5490  172.5040  143.1930 C   0  0  0  0  0  2  0  0  0  0  0  0
  190.4030  175.4660  143.0630 C   0  0  1  0  0  3  0  0  0  0  0  0
  191.6200  175.1190  142.2240 C   0  0  0  0  0  2  0  0  0  0  0  0
  183.9280  178.8660  145.0650 O   0  0  0  0  0  0  0  0  0  0  0  0
  186.1330  177.9800  145.3890 C   0  0  2  0  0  3  0  0  0  0  0  0
  184.9310  178.3070  144.5400 C   0  0  0  0  0  0  0  0  0  0  0  0
  184.9480  178.0240  143.0890 C   0  0  0  0  0  0  0  0  0  0  0  0
  183.7260  178.2210  142.2640 C   0  0  0  0  0  1  0  0  0  0  0  0
  186.0510  177.5450  142.5080 C   0  0  0  0  0  3  0  0  0  0  0  0
  187.3430  177.3820  143.2710 C   0  0  1  0  0  3  0  0  0  0  0  0
  187.0140  176.9350  144.7020 C   0  0  0  0  0  2  0  0  0  0  0  0
  186.8050  176.7340  147.0900 C   0  0  0  0  0  1  0  0  0  0  0  0
  185.7320  177.5000  146.6380 O   0  0  0  0  0  0  0  0  0  0  0  0
  194.3720  174.4950  144.5300 C   0  0  2  0  0  3  0  0  0  0  0  0
  193.6730  175.6020  145.2990 C   0  0  0  0  0  2  0  0  0  0  0  0
  192.9130  175.0210  146.4710 C   0  0  0  0  0  2  0  0  0  0  0  0
  191.8720  176.0090  146.9430 C   0  0  0  0  0  2  0  0  0  0  0  0
  190.4960  175.5200  146.5580 C   0  0  0  0  0  1  0  0  0  0  0  0
  195.8890  174.7360  144.5270 C   0  0  1  0  0  3  0  0  0  0  0  0
  195.5620  172.6890  145.3070 C   0  0  0  0  0  1  0  0  0  0  0  0
  196.5300  173.6850  145.1910 O   0  0  0  0  0  0  0  0  0  0  0  0
  196.5010  174.9500  143.1270 C   0  0  1  0  0  3  0  0  0  0  0  0
  196.5370  176.3970  142.7100 C   0  0  0  0  0  0  0  0  0  0  0  0
  195.9770  176.8410  141.4680 N   0  0  0  0  0  2  0  0  0  0  0  0
  197.0630  177.2390  143.4840 O   0  0  0  0  0  0  0  0  0  0  0  0
  196.1270  175.3980  139.4820 C   0  0  0  0  0  0  0  0  0  0  0  0
  197.3190  175.7620  139.2800 O   0  0  0  0  0  0  0  0  0  0  0  0
  195.3850  175.9500  140.5640 N   0  0  0  0  0  2  0  0  0  0  0  0
  195.5040  174.3290  138.6480 C   0  0  1  0  0  3  0  0  0  0  0  0
  196.1340  172.9750  138.9350 C   0  0  0  0  0  1  0  0  0  0  0  0
  194.0040  174.2890  138.9000 C   0  0  0  0  0  2  0  0  0  0  0  0
  193.8480  175.4650  136.8340 O   0  0  0  0  0  1  0  0  0  0  0  0
  193.2260  174.4980  137.6160 C   0  0  0  0  0  2  0  0  0  0  0  0
  197.9070  174.3590  143.0530 C   0  0  0  0  0  2  0  0  0  0  0  0
  197.9410  173.1810  142.0990 C   0  0  0  0  0  1  0  0  0  0  0  0
  1 23  1  0  0  0  0
  2 11  1  0  0  0  0
  2  6  1  1  0  0  0
  3  2  1  0  0  0  0
  3  7  1  1  0  0  0
  3 19  1  0  0  0  0
  4 11  1  0  0  0  0
  4  7  1  1  0  0  0
  4  5  1  0  0  0  0
  9  1  1  0  0  0  0
  9  8  2  0  0  0  0
 10  8  1  0  0  0  0
 10  5  1  0  0  0  0
 11 12  1  6  0  0  0
 12  9  1  0  0  0  0
 14 22  1  1  0  0  0
 15 13  2  0  0  0  0
 15 14  1  0  0  0  0
 16 15  1  0  0  0  0
 17 16  1  0  0  0  0
 18 16  2  0  0  0  0
 19 18  1  6  0  0  0
 19 20  1  0  0  0  0
 20 14  1  0  0  0  0
 22 21  1  0  0  0  0
 23 24  1  6  0  0  0
 24 25  1  0  0  0  0
 25 26  1  0  0  0  0
 27 26  1  0  0  0  0
 28 23  1  0  0  0  0
 28 30  1  6  0  0  0
 30 29  1  0  0  0  0
 31 43  1  1  0  0  0
 31 28  1  0  0  0  0
 32 31  1  0  0  0  0
 32 34  2  0  0  0  0
 33 32  1  0  0  0  0
 35 37  1  0  0  0  0
 36 35  2  0  0  0  0
 37 33  1  0  0  0  0
 38 40  1  0  0  0  0
 38 39  1  1  0  0  0
 38 35  1  0  0  0  0
 41 42  1  0  0  0  0
 42 40  1  0  0  0  0
 44 43  1  0  0  0  0
M  END
>  <MODEL>
3

>  <REMARK>
 VINA RESULT:      -6.2      1.853      4.285
  Name = 
  16 active torsions:
  status: ('A' for Active; 'I' for Inactive)
    1  A    between atoms: C_1  and  C_8
    2  A    between atoms: C_1  and  C_25
    3  A    between atoms: C_2  and  C_10
    4  A    between atoms: C_3  and  C_20
    5  A    between atoms: C_3  and  C_22
    6  A    between atoms: C_3  and  O_38
    7  A    between atoms: C_5  and  C_22
    8  A    between atoms: N_7  and  C_43
    9  A    between atoms: C_10  and  C_11
   10  A    between atoms: C_11  and  C_27
   11  A    between atoms: C_15  and  O_30
   12  A    between atoms: O_16  and  C_20
   13  A    between atoms: O_16  and  C_35
   14  A    between atoms: C_20  and  C_25
   15  A    between atoms: C_22  and  C_24
   16  A    between atoms: N_33  and  N_34
                            x       y       z     vdW  Elec       q    Type
                         _______ _______ _______ _____ _____    ______ ____

>  <TORSDO>
F 16

$$$$
=
 OpenBabel11062422413D

 44 46  0  0  1  0  0  0  0  0999 V2000
  194.4140  175.4730  144.2610 O   0  0  0  0  0  0  0  0  0  0  0  0
  189.7590  176.5060  143.8370 C   0  0  1  0  0  3  0  0  0  0  0  0
  188.5460  176.5310  144.7010 N   0  0  1  0  0  0  0  0  0  0  0  0
  190.3560  175.8250  146.0480 C   0  0  1  0  0  3  0  0  0  0  0  0
  191.2010  176.2030  147.1000 O   0  0  0  0  0  0  0  0  0  0  0  0
  190.0380  177.8030  143.0680 C   0  0  0  0  0  1  0  0  0  0  0  0
  189.0470  176.5540  146.0790 C   0  0  0  0  0  2  0  0  0  0  0  0
  193.2980  175.3180  146.3160 C   0  0  0  0  0  3  0  0  0  0  0  0
  193.2220  175.3290  144.9760 C   0  0  0  0  0  0  0  0  0  0  0  0
  192.1120  175.1420  147.2320 C   0  0  0  0  0  2  0  0  0  0  0  0
  190.9480  176.2580  144.7400 C   0  0  1  0  0  3  0  0  0  0  0  0
  191.9070  175.1870  144.2520 C   0  0  0  0  0  2  0  0  0  0  0  0
  184.0600  179.6540  143.8460 O   0  0  0  0  0  0  0  0  0  0  0  0
  185.7760  179.0750  145.4180 C   0  0  2  0  0  3  0  0  0  0  0  0
  185.0860  178.9590  144.0820 C   0  0  0  0  0  0  0  0  0  0  0  0
  185.6420  178.0770  143.0340 C   0  0  0  0  0  0  0  0  0  0  0  0
  184.9040  177.8540  141.7620 C   0  0  0  0  0  1  0  0  0  0  0  0
  186.7940  177.4320  143.2350 C   0  0  0  0  0  3  0  0  0  0  0  0
  187.6260  177.6610  144.4740 C   0  0  1  0  0  3  0  0  0  0  0  0
  186.6820  177.8670  145.6660 C   0  0  0  0  0  2  0  0  0  0  0  0
  184.4790  177.8510  146.7280 C   0  0  0  0  0  1  0  0  0  0  0  0
  184.8350  179.1690  146.4460 O   0  0  0  0  0  0  0  0  0  0  0  0
  195.6400  174.8450  144.6350 C   0  0  2  0  0  3  0  0  0  0  0  0
  196.8010  175.5000  143.9080 C   0  0  0  0  0  2  0  0  0  0  0  0
  196.3160  176.7100  143.1400 C   0  0  0  0  0  2  0  0  0  0  0  0
  196.4340  176.4510  141.6550 C   0  0  0  0  0  2  0  0  0  0  0  0
  195.0650  176.5000  141.0200 C   0  0  0  0  0  1  0  0  0  0  0  0
  195.6470  173.3310  144.3760 C   0  0  1  0  0  3  0  0  0  0  0  0
  196.8800  172.4710  146.0020 C   0  0  0  0  0  1  0  0  0  0  0  0
  195.5590  172.6490  145.5940 O   0  0  0  0  0  0  0  0  0  0  0  0
  194.5560  172.8440  143.3980 C   0  0  1  0  0  3  0  0  0  0  0  0
  195.0020  172.8550  141.9600 C   0  0  0  0  0  0  0  0  0  0  0  0
  194.0760  173.0380  140.8820 N   0  0  0  0  0  2  0  0  0  0  0  0
  196.2260  172.7100  141.7020 O   0  0  0  0  0  0  0  0  0  0  0  0
  191.7510  172.3440  140.4780 C   0  0  0  0  0  0  0  0  0  0  0  0
  192.1310  171.4720  139.6480 O   0  0  0  0  0  0  0  0  0  0  0  0
  192.7020  173.1960  141.1060 N   0  0  0  0  0  2  0  0  0  0  0  0
  190.3170  172.4420  140.8770 C   0  0  1  0  0  3  0  0  0  0  0  0
  190.0230  171.5620  142.0820 C   0  0  0  0  0  1  0  0  0  0  0  0
  189.9630  173.8920  141.1710 C   0  0  0  0  0  2  0  0  0  0  0  0
  188.2630  175.5180  140.7940 O   0  0  0  0  0  1  0  0  0  0  0  0
  188.4870  174.1540  140.9460 C   0  0  0  0  0  2  0  0  0  0  0  0
  194.0730  171.4450  143.7770 C   0  0  0  0  0  2  0  0  0  0  0  0
  192.6670  171.5010  144.3420 C   0  0  0  0  0  1  0  0  0  0  0  0
  1 23  1  0  0  0  0
  1  9  1  0  0  0  0
  2  6  1  1  0  0  0
  2  3  1  0  0  0  0
  2 11  1  0  0  0  0
  3  7  1  1  0  0  0
  4  7  1  1  0  0  0
  4  5  1  0  0  0  0
  5 10  1  0  0  0  0
  8 10  1  0  0  0  0
  9  8  2  0  0  0  0
 11 12  1  6  0  0  0
 11  4  1  0  0  0  0
 12  9  1  0  0  0  0
 13 15  2  0  0  0  0
 14 20  1  0  0  0  0
 14 22  1  1  0  0  0
 15 14  1  0  0  0  0
 16 18  2  0  0  0  0
 16 15  1  0  0  0  0
 17 16  1  0  0  0  0
 19 18  1  6  0  0  0
 19  3  1  0  0  0  0
 19 20  1  0  0  0  0
 22 21  1  0  0  0  0
 23 24  1  6  0  0  0
 25 24  1  0  0  0  0
 26 25  1  0  0  0  0
 27 26  1  0  0  0  0
 28 23  1  0  0  0  0
 28 30  1  1  0  0  0
 30 29  1  0  0  0  0
 31 43  1  1  0  0  0
 31 28  1  0  0  0  0
 32 31  1  0  0  0  0
 33 37  1  0  0  0  0
 33 32  1  0  0  0  0
 34 32  2  0  0  0  0
 35 38  1  0  0  0  0
 35 37  1  0  0  0  0
 36 35  2  0  0  0  0
 38 40  1  0  0  0  0
 38 39  1  1  0  0  0
 41 42  1  0  0  0  0
 42 40  1  0  0  0  0
 43 44  1  0  0  0  0
M  END
>  <MODEL>
4

>  <REMARK>
 VINA RESULT:      -6.2      2.046      4.551
  Name = 
  16 active torsions:
  status: ('A' for Active; 'I' for Inactive)
    1  A    between atoms: C_1  and  C_8
    2  A    between atoms: C_1  and  C_25
    3  A    between atoms: C_2  and  C_10
    4  A    between atoms: C_3  and  C_20
    5  A    between atoms: C_3  and  C_22
    6  A    between atoms: C_3  and  O_38
    7  A    between atoms: C_5  and  C_22
    8  A    between atoms: N_7  and  C_43
    9  A    between atoms: C_10  and  C_11
   10  A    between atoms: C_11  and  C_27
   11  A    between atoms: C_15  and  O_30
   12  A    between atoms: O_16  and  C_20
   13  A    between atoms: O_16  and  C_35
   14  A    between atoms: C_20  and  C_25
   15  A    between atoms: C_22  and  C_24
   16  A    between atoms: N_33  and  N_34
                            x       y       z     vdW  Elec       q    Type
                         _______ _______ _______ _____ _____    ______ ____

>  <TORSDO>
F 16

$$$$
=
 OpenBabel11062422413D

 44 46  0  0  1  0  0  0  0  0999 V2000
  194.7480  173.3590  145.4710 O   0  0  0  0  0  0  0  0  0  0  0  0
  190.2450  174.9470  145.8140 C   0  0  1  0  0  3  0  0  0  0  0  0
  189.5280  176.2530  145.8260 N   0  0  1  0  0  0  0  0  0  0  0  0
  191.8360  176.7180  145.6050 C   0  0  1  0  0  3  0  0  0  0  0  0
  192.8180  177.1840  144.7220 O   0  0  0  0  0  0  0  0  0  0  0  0
  189.7260  173.9270  144.7930 C   0  0  0  0  0  1  0  0  0  0  0  0
  190.4680  177.2210  145.2530 C   0  0  0  0  0  2  0  0  0  0  0  0
  194.6290  175.6900  145.2540 C   0  0  0  0  0  3  0  0  0  0  0  0
  194.0530  174.5530  145.6790 C   0  0  0  0  0  0  0  0  0  0  0  0
  194.0260  177.0620  145.4280 C   0  0  0  0  0  2  0  0  0  0  0  0
  191.6900  175.2320  145.4660 C   0  0  1  0  0  3  0  0  0  0  0  0
  192.7090  174.5490  146.3610 C   0  0  0  0  0  2  0  0  0  0  0  0
  184.6810  177.7790  143.6360 O   0  0  0  0  0  0  0  0  0  0  0  0
  186.9740  177.2610  143.1580 C   0  0  2  0  0  3  0  0  0  0  0  0
  185.8050  177.4320  144.0950 C   0  0  0  0  0  0  0  0  0  0  0  0
  185.9590  177.1410  145.5360 C   0  0  0  0  0  0  0  0  0  0  0  0
  184.8550  177.4270  146.4900 C   0  0  0  0  0  1  0  0  0  0  0  0
  187.1130  176.6570  146.0070 C   0  0  0  0  0  3  0  0  0  0  0  0
  188.2510  176.2840  145.0880 C   0  0  1  0  0  3  0  0  0  0  0  0
  188.2950  177.2890  143.9290 C   0  0  0  0  0  2  0  0  0  0  0  0
  187.2340  177.6180  140.9900 C   0  0  0  0  0  1  0  0  0  0  0  0
  186.9770  178.2720  142.1940 O   0  0  0  0  0  0  0  0  0  0  0  0
  195.0000  172.8060  144.1790 C   0  0  2  0  0  3  0  0  0  0  0  0
  193.6940  172.6320  143.4250 C   0  0  0  0  0  2  0  0  0  0  0  0
  193.8160  173.2200  142.0350 C   0  0  0  0  0  2  0  0  0  0  0  0
  193.3140  174.6460  142.0410 C   0  0  0  0  0  2  0  0  0  0  0  0
  191.8070  174.6550  141.9460 C   0  0  0  0  0  1  0  0  0  0  0  0
  195.7560  171.4700  144.2320 C   0  0  1  0  0  3  0  0  0  0  0  0
  197.9410  171.6120  144.5630 C   0  0  0  0  0  1  0  0  0  0  0  0
  196.7260  171.5220  145.2390 O   0  0  0  0  0  0  0  0  0  0  0  0
  194.8530  170.2300  144.4090 C   0  0  1  0  0  3  0  0  0  0  0  0
  195.1360  169.1440  143.4040 C   0  0  0  0  0  0  0  0  0  0  0  0
  194.2000  168.8070  142.3730 N   0  0  0  0  0  2  0  0  0  0  0  0
  196.2310  168.5260  143.4670 O   0  0  0  0  0  0  0  0  0  0  0  0
  192.5140  169.9670  141.0080 C   0  0  0  0  0  0  0  0  0  0  0  0
  193.2630  169.9110  139.9930 O   0  0  0  0  0  0  0  0  0  0  0  0
  192.9630  169.4520  142.2570 N   0  0  0  0  0  2  0  0  0  0  0  0
  191.1230  170.4950  140.9000 C   0  0  1  0  0  3  0  0  0  0  0  0
  190.5620  170.8410  142.2710 C   0  0  0  0  0  1  0  0  0  0  0  0
  191.1030  171.7120  139.9880 C   0  0  0  0  0  2  0  0  0  0  0  0
  189.9830  170.1090  138.6260 O   0  0  0  0  0  1  0  0  0  0  0  0
  190.2350  171.4700  138.7690 C   0  0  0  0  0  2  0  0  0  0  0  0
  194.9770  169.6660  145.8230 C   0  0  0  0  0  2  0  0  0  0  0  0
  193.9970  168.5280  146.0300 C   0  0  0  0  0  1  0  0  0  0  0  0
  1  9  1  0  0  0  0
  2  6  1  6  0  0  0
  2  3  1  0  0  0  0
  3  7  1  6  0  0  0
  4  7  1  6  0  0  0
  5 10  1  0  0  0  0
  5  4  1  0  0  0  0
  8 10  1  0  0  0  0
  8  9  2  0  0  0  0
  9 12  1  0  0  0  0
 11  4  1  0  0  0  0
 11  2  1  0  0  0  0
 11 12  1  1  0  0  0
 13 15  2  0  0  0  0
 14 22  1  6  0  0  0
 14 20  1  0  0  0  0
 14 15  1  0  0  0  0
 15 16  1  0  0  0  0
 16 18  2  0  0  0  0
 16 17  1  0  0  0  0
 19 20  1  6  0  0  0
 19  3  1  0  0  0  0
 19 18  1  0  0  0  0
 21 22  1  0  0  0  0
 23 24  1  1  0  0  0
 23 28  1  0  0  0  0
 23  1  1  0  0  0  0
 25 26  1  0  0  0  0
 25 24  1  0  0  0  0
 27 26  1  0  0  0  0
 28 31  1  0  0  0  0
 28 30  1  1  0  0  0
 29 30  1  0  0  0  0
 31 43  1  1  0  0  0
 32 34  2  0  0  0  0
 32 31  1  0  0  0  0
 33 32  1  0  0  0  0
 35 37  1  0  0  0  0
 36 35  2  0  0  0  0
 37 33  1  0  0  0  0
 38 35  1  0  0  0  0
 38 39  1  1  0  0  0
 40 38  1  0  0  0  0
 41 42  1  0  0  0  0
 42 40  1  0  0  0  0
 43 44  1  0  0  0  0
M  END
>  <MODEL>
5

>  <REMARK>
 VINA RESULT:      -6.1      2.856      5.735
  Name = 
  16 active torsions:
  status: ('A' for Active; 'I' for Inactive)
    1  A    between atoms: C_1  and  C_8
    2  A    between atoms: C_1  and  C_25
    3  A    between atoms: C_2  and  C_10
    4  A    between atoms: C_3  and  C_20
    5  A    between atoms: C_3  and  C_22
    6  A    between atoms: C_3  and  O_38
    7  A    between atoms: C_5  and  C_22
    8  A    between atoms: N_7  and  C_43
    9  A    between atoms: C_10  and  C_11
   10  A    between atoms: C_11  and  C_27
   11  A    between atoms: C_15  and  O_30
   12  A    between atoms: O_16  and  C_20
   13  A    between atoms: O_16  and  C_35
   14  A    between atoms: C_20  and  C_25
   15  A    between atoms: C_22  and  C_24
   16  A    between atoms: N_33  and  N_34
                            x       y       z     vdW  Elec       q    Type
                         _______ _______ _______ _____ _____    ______ ____

>  <TORSDO>
F 16

$$$$
=
 OpenBabel11062422413D

 44 46  0  0  1  0  0  0  0  0999 V2000
  187.7570  177.8240  144.4000 O   0  0  0  0  0  0  0  0  0  0  0  0
  188.6990  174.3240  141.2730 C   0  0  1  0  0  3  0  0  0  0  0  0
  188.3500  173.9680  139.8690 N   0  0  1  0  0  0  0  0  0  0  0  0
  187.2560  176.0030  140.3730 C   0  0  1  0  0  3  0  0  0  0  0  0
  187.2400  177.3770  140.1050 O   0  0  0  0  0  0  0  0  0  0  0  0
  190.1990  174.3420  141.5870 C   0  0  0  0  0  1  0  0  0  0  0  0
  187.8700  175.2110  139.2580 C   0  0  0  0  0  2  0  0  0  0  0  0
  186.7950  178.2480  142.3050 C   0  0  0  0  0  3  0  0  0  0  0  0
  187.3090  177.3520  143.1630 C   0  0  0  0  0  0  0  0  0  0  0  0
  186.2420  177.8990  140.9450 C   0  0  0  0  0  2  0  0  0  0  0  0
  188.1720  175.7200  141.5250 C   0  0  1  0  0  3  0  0  0  0  0  0
  187.4020  175.8860  142.8230 C   0  0  0  0  0  2  0  0  0  0  0  0
  191.3020  171.3040  136.0220 O   0  0  0  0  0  0  0  0  0  0  0  0
  190.6970  173.4570  136.8880 C   0  0  2  0  0  3  0  0  0  0  0  0
  190.6430  171.9500  136.8820 C   0  0  0  0  0  0  0  0  0  0  0  0
  189.8660  171.2320  137.9150 C   0  0  0  0  0  0  0  0  0  0  0  0
  189.6990  169.7560  137.8470 C   0  0  0  0  0  1  0  0  0  0  0  0
  189.2660  171.9070  138.9000 C   0  0  0  0  0  3  0  0  0  0  0  0
  189.4470  173.3960  139.0660 C   0  0  1  0  0  3  0  0  0  0  0  0
  189.5200  174.0390  137.6740 C   0  0  0  0  0  2  0  0  0  0  0  0
  189.3280  174.2240  135.3270 C   0  0  0  0  0  1  0  0  0  0  0  0
  190.6710  173.9510  135.5810 O   0  0  0  0  0  0  0  0  0  0  0  0
  188.1150  176.9710  145.4880 C   0  0  2  0  0  3  0  0  0  0  0  0
  187.0910  177.0940  146.6020 C   0  0  0  0  0  2  0  0  0  0  0  0
  185.7080  176.7820  146.0720 C   0  0  0  0  0  2  0  0  0  0  0  0
  184.7260  177.8150  146.5740 C   0  0  0  0  0  2  0  0  0  0  0  0
  184.7070  178.9980  145.6350 C   0  0  0  0  0  1  0  0  0  0  0  0
  189.5220  177.2530  146.0370 C   0  0  1  0  0  3  0  0  0  0  0  0
  190.8420  177.3120  147.8140 C   0  0  0  0  0  1  0  0  0  0  0  0
  189.5520  176.9750  147.4080 O   0  0  0  0  0  0  0  0  0  0  0  0
  190.6560  176.5050  145.3050 C   0  0  1  0  0  3  0  0  0  0  0  0
  190.4680  175.0110  145.2900 C   0  0  0  0  0  0  0  0  0  0  0  0
  191.5300  174.1110  145.6290 N   0  0  0  0  0  2  0  0  0  0  0  0
  189.3400  174.5430  144.9820 O   0  0  0  0  0  0  0  0  0  0  0  0
  193.8560  174.6180  145.0090 C   0  0  0  0  0  0  0  0  0  0  0  0
  193.6660  174.1750  143.8420 O   0  0  0  0  0  0  0  0  0  0  0  0
  192.8080  174.5710  145.9710 N   0  0  0  0  0  2  0  0  0  0  0  0
  195.1460  175.2710  145.3760 C   0  0  1  0  0  3  0  0  0  0  0  0
  196.2130  174.2340  145.6910 C   0  0  0  0  0  1  0  0  0  0  0  0
  195.6000  176.1840  144.2480 C   0  0  0  0  0  2  0  0  0  0  0  0
  196.8860  175.8710  142.2670 O   0  0  0  0  0  1  0  0  0  0  0  0
  196.9080  175.7080  143.6480 C   0  0  0  0  0  2  0  0  0  0  0  0
  190.8100  177.0180  143.8740 C   0  0  0  0  0  2  0  0  0  0  0  0
  191.2030  178.4830  143.8730 C   0  0  0  0  0  1  0  0  0  0  0  0
  1 23  1  0  0  0  0
  2 11  1  0  0  0  0
  2  6  1  6  0  0  0
  3  7  1  6  0  0  0
  3  2  1  0  0  0  0
  4  7  1  6  0  0  0
  4 11  1  0  0  0  0
  5  4  1  0  0  0  0
  5 10  1  0  0  0  0
  8  9  2  0  0  0  0
  9  1  1  0  0  0  0
 10  8  1  0  0  0  0
 11 12  1  1  0  0  0
 12  9  1  0  0  0  0
 13 15  2  0  0  0  0
 14 22  1  6  0  0  0
 14 20  1  0  0  0  0
 15 14  1  0  0  0  0
 15 16  1  0  0  0  0
 16 18  2  0  0  0  0
 17 16  1  0  0  0  0
 18 19  1  0  0  0  0
 19 20  1  6  0  0  0
 19  3  1  0  0  0  0
 21 22  1  0  0  0  0
 23 28  1  0  0  0  0
 23 24  1  1  0  0  0
 25 26  1  0  0  0  0
 25 24  1  0  0  0  0
 27 26  1  0  0  0  0
 28 30  1  1  0  0  0
 30 29  1  0  0  0  0
 31 43  1  6  0  0  0
 31 28  1  0  0  0  0
 32 31  1  0  0  0  0
 32 33  1  0  0  0  0
 33 37  1  0  0  0  0
 34 32  2  0  0  0  0
 35 38  1  0  0  0  0
 35 37  1  0  0  0  0
 36 35  2  0  0  0  0
 38 39  1  6  0  0  0
 40 38  1  0  0  0  0
 41 42  1  0  0  0  0
 42 40  1  0  0  0  0
 44 43  1  0  0  0  0
M  END
>  <MODEL>
6

>  <REMARK>
 VINA RESULT:      -6.1      3.343      7.682
  Name = 
  16 active torsions:
  status: ('A' for Active; 'I' for Inactive)
    1  A    between atoms: C_1  and  C_8
    2  A    between atoms: C_1  and  C_25
    3  A    between atoms: C_2  and  C_10
    4  A    between atoms: C_3  and  C_20
    5  A    between atoms: C_3  and  C_22
    6  A    between atoms: C_3  and  O_38
    7  A    between atoms: C_5  and  C_22
    8  A    between atoms: N_7  and  C_43
    9  A    between atoms: C_10  and  C_11
   10  A    between atoms: C_11  and  C_27
   11  A    between atoms: C_15  and  O_30
   12  A    between atoms: O_16  and  C_20
   13  A    between atoms: O_16  and  C_35
   14  A    between atoms: C_20  and  C_25
   15  A    between atoms: C_22  and  C_24
   16  A    between atoms: N_33  and  N_34
                            x       y       z     vdW  Elec       q    Type
                         _______ _______ _______ _____ _____    ______ ____

>  <TORSDO>
F 16

$$$$
=
 OpenBabel11062422413D

 44 46  0  0  1  0  0  0  0  0999 V2000
  194.4540  175.8420  144.8640 O   0  0  0  0  0  0  0  0  0  0  0  0
  189.8010  176.6340  144.0720 C   0  0  1  0  0  3  0  0  0  0  0  0
  188.5200  176.5670  144.8300 N   0  0  1  0  0  0  0  0  0  0  0  0
  190.2480  175.9190  146.3080 C   0  0  1  0  0  3  0  0  0  0  0  0
  190.9790  176.3100  147.4370 O   0  0  0  0  0  0  0  0  0  0  0  0
  190.0690  177.9670  143.3640 C   0  0  0  0  0  1  0  0  0  0  0  0
  188.9020  176.5750  146.2460 C   0  0  0  0  0  2  0  0  0  0  0  0
  193.1810  175.5640  146.8120 C   0  0  0  0  0  3  0  0  0  0  0  0
  193.2170  175.6110  145.4710 C   0  0  0  0  0  0  0  0  0  0  0  0
  191.9350  175.2960  147.6190 C   0  0  0  0  0  2  0  0  0  0  0  0
  190.9210  176.4230  145.0670 C   0  0  1  0  0  3  0  0  0  0  0  0
  191.9780  175.4210  144.6340 C   0  0  0  0  0  2  0  0  0  0  0  0
  183.9360  179.4760  143.7640 O   0  0  0  0  0  0  0  0  0  0  0  0
  185.6110  178.9870  145.4090 C   0  0  2  0  0  3  0  0  0  0  0  0
  184.9820  178.8300  144.0480 C   0  0  0  0  0  0  0  0  0  0  0  0
  185.6200  177.9660  143.0310 C   0  0  0  0  0  0  0  0  0  0  0  0
  184.9470  177.7000  141.7320 C   0  0  0  0  0  1  0  0  0  0  0  0
  186.7910  177.3760  143.2860 C   0  0  0  0  0  3  0  0  0  0  0  0
  187.5600  177.6520  144.5550 C   0  0  1  0  0  3  0  0  0  0  0  0
  186.5590  177.8240  145.7060 C   0  0  0  0  0  2  0  0  0  0  0  0
  184.4480  177.7250  146.8080 C   0  0  0  0  0  1  0  0  0  0  0  0
  184.6240  179.0460  146.3970 O   0  0  0  0  0  0  0  0  0  0  0  0
  195.2250  174.8210  144.2290 C   0  0  2  0  0  3  0  0  0  0  0  0
  196.2110  174.2250  145.2160 C   0  0  0  0  0  2  0  0  0  0  0  0
  195.6810  172.9120  145.7500 C   0  0  0  0  0  2  0  0  0  0  0  0
  195.0730  172.1120  144.6210 C   0  0  0  0  0  2  0  0  0  0  0  0
  193.6980  171.6330  145.0210 C   0  0  0  0  0  1  0  0  0  0  0  0
  195.9690  175.3170  142.9800 C   0  0  1  0  0  3  0  0  0  0  0  0
  197.1860  177.1610  143.1400 C   0  0  0  0  0  1  0  0  0  0  0  0
  197.2370  175.7830  143.3460 O   0  0  0  0  0  0  0  0  0  0  0  0
  196.0780  174.2780  141.8440 C   0  0  1  0  0  3  0  0  0  0  0  0
  195.6880  174.8290  140.4970 C   0  0  0  0  0  0  0  0  0  0  0  0
  194.5760  174.3080  139.7600 N   0  0  0  0  0  2  0  0  0  0  0  0
  196.3540  175.7830  140.0150 O   0  0  0  0  0  0  0  0  0  0  0  0
  192.6070  173.4740  140.9760 C   0  0  0  0  0  0  0  0  0  0  0  0
  192.2600  174.6520  141.2690 O   0  0  0  0  0  0  0  0  0  0  0  0
  193.8040  173.2430  140.2410 N   0  0  0  0  0  2  0  0  0  0  0  0
  191.7350  172.3140  141.3210 C   0  0  1  0  0  3  0  0  0  0  0  0
  192.5550  171.0460  141.4960 C   0  0  0  0  0  1  0  0  0  0  0  0
  190.9440  172.6220  142.5830 C   0  0  0  0  0  2  0  0  0  0  0  0
  188.9570  173.8200  142.0450 O   0  0  0  0  0  1  0  0  0  0  0  0
  189.4520  172.5510  142.3280 C   0  0  0  0  0  2  0  0  0  0  0  0
  197.4890  173.6970  141.7730 C   0  0  0  0  0  2  0  0  0  0  0  0
  197.4930  172.4020  140.9850 C   0  0  0  0  0  1  0  0  0  0  0  0
  1  9  1  0  0  0  0
  2  6  1  1  0  0  0
  2  3  1  0  0  0  0
  2 11  1  0  0  0  0
  3  7  1  1  0  0  0
  4  7  1  1  0  0  0
  4  5  1  0  0  0  0
  5 10  1  0  0  0  0
  8 10  1  0  0  0  0
  9  8  2  0  0  0  0
 11 12  1  6  0  0  0
 11  4  1  0  0  0  0
 12  9  1  0  0  0  0
 13 15  2  0  0  0  0
 14 20  1  0  0  0  0
 14 22  1  1  0  0  0
 15 14  1  0  0  0  0
 16 18  2  0  0  0  0
 16 15  1  0  0  0  0
 17 16  1  0  0  0  0
 19 18  1  6  0  0  0
 19  3  1  0  0  0  0
 19 20  1  0  0  0  0
 22 21  1  0  0  0  0
 23  1  1  0  0  0  0
 23 24  1  1  0  0  0
 24 25  1  0  0  0  0
 26 27  1  0  0  0  0
 26 25  1  0  0  0  0
 28 30  1  1  0  0  0
 28 23  1  0  0  0  0
 29 30  1  0  0  0  0
 31 43  1  6  0  0  0
 31 28  1  0  0  0  0
 32 31  1  0  0  0  0
 33 37  1  0  0  0  0
 33 32  1  0  0  0  0
 34 32  2  0  0  0  0
 35 36  2  0  0  0  0
 35 38  1  0  0  0  0
 37 35  1  0  0  0  0
 38 39  1  1  0  0  0
 38 40  1  0  0  0  0
 41 42  1  0  0  0  0
 42 40  1  0  0  0  0
 44 43  1  0  0  0  0
M  END
>  <MODEL>
7

>  <REMARK>
 VINA RESULT:      -6.0      1.945      3.954
  Name = 
  16 active torsions:
  status: ('A' for Active; 'I' for Inactive)
    1  A    between atoms: C_1  and  C_8
    2  A    between atoms: C_1  and  C_25
    3  A    between atoms: C_2  and  C_10
    4  A    between atoms: C_3  and  C_20
    5  A    between atoms: C_3  and  C_22
    6  A    between atoms: C_3  and  O_38
    7  A    between atoms: C_5  and  C_22
    8  A    between atoms: N_7  and  C_43
    9  A    between atoms: C_10  and  C_11
   10  A    between atoms: C_11  and  C_27
   11  A    between atoms: C_15  and  O_30
   12  A    between atoms: O_16  and  C_20
   13  A    between atoms: O_16  and  C_35
   14  A    between atoms: C_20  and  C_25
   15  A    between atoms: C_22  and  C_24
   16  A    between atoms: N_33  and  N_34
                            x       y       z     vdW  Elec       q    Type
                         _______ _______ _______ _____ _____    ______ ____

>  <TORSDO>
F 16

$$$$
=
 OpenBabel11062422413D

 44 46  0  0  1  0  0  0  0  0999 V2000
  194.2520  173.0780  145.7640 O   0  0  0  0  0  0  0  0  0  0  0  0
  190.2030  175.5330  146.4600 C   0  0  1  0  0  3  0  0  0  0  0  0
  189.6330  176.8600  146.0920 N   0  0  1  0  0  0  0  0  0  0  0  0
  191.8020  176.7400  145.1570 C   0  0  1  0  0  3  0  0  0  0  0  0
  192.5130  176.6310  143.9560 O   0  0  0  0  0  0  0  0  0  0  0  0
  189.3210  174.3270  146.1170 C   0  0  0  0  0  1  0  0  0  0  0  0
  190.4380  177.3310  144.9610 C   0  0  0  0  0  2  0  0  0  0  0  0
  194.2690  175.1250  144.6230 C   0  0  0  0  0  3  0  0  0  0  0  0
  193.7530  174.3730  145.6080 C   0  0  0  0  0  0  0  0  0  0  0  0
  193.8620  176.5500  144.3400 C   0  0  0  0  0  2  0  0  0  0  0  0
  191.4980  175.3730  145.6950 C   0  0  1  0  0  3  0  0  0  0  0  0
  192.6750  174.8940  146.5250 C   0  0  0  0  0  2  0  0  0  0  0  0
  184.4350  178.3630  144.9360 O   0  0  0  0  0  0  0  0  0  0  0  0
  186.4740  177.4910  144.0230 C   0  0  2  0  0  3  0  0  0  0  0  0
  185.6260  178.0100  145.1570 C   0  0  0  0  0  0  0  0  0  0  0  0
  186.1700  178.0510  146.5310 C   0  0  0  0  0  0  0  0  0  0  0  0
  185.3940  178.6770  147.6350 C   0  0  0  0  0  1  0  0  0  0  0  0
  187.3870  177.5660  146.7900 C   0  0  0  0  0  3  0  0  0  0  0  0
  188.2020  176.8600  145.7330 C   0  0  1  0  0  3  0  0  0  0  0  0
  187.9590  177.5520  144.3850 C   0  0  0  0  0  2  0  0  0  0  0  0
  187.4800  178.2740  142.2140 C   0  0  0  0  0  1  0  0  0  0  0  0
  186.2480  178.2390  142.8640 O   0  0  0  0  0  0  0  0  0  0  0  0
  193.8170  171.9640  144.9850 C   0  0  2  0  0  3  0  0  0  0  0  0
  194.8550  170.8580  145.0350 C   0  0  0  0  0  2  0  0  0  0  0  0
  194.3650  169.7270  145.9130 C   0  0  0  0  0  2  0  0  0  0  0  0
  195.4680  169.2990  146.8540 C   0  0  0  0  0  2  0  0  0  0  0  0
  196.7480  170.0170  146.4960 C   0  0  0  0  0  1  0  0  0  0  0  0
  193.5140  172.3320  143.5240 C   0  0  1  0  0  3  0  0  0  0  0  0
  194.8510  172.8850  141.8470 C   0  0  0  0  0  1  0  0  0  0  0  0
  194.5250  171.8300  142.6970 O   0  0  0  0  0  0  0  0  0  0  0  0
  192.1260  171.8790  143.0240 C   0  0  1  0  0  3  0  0  0  0  0  0
  192.1420  170.5130  142.3880 C   0  0  0  0  0  0  0  0  0  0  0  0
  191.9510  170.3320  140.9800 N   0  0  0  0  0  2  0  0  0  0  0  0
  192.3420  169.5060  143.1170 O   0  0  0  0  0  0  0  0  0  0  0  0
  190.7780  171.3170  139.0550 C   0  0  0  0  0  0  0  0  0  0  0  0
  190.1900  170.2240  138.8250 O   0  0  0  0  0  0  0  0  0  0  0  0
  191.7160  171.4130  140.1210 N   0  0  0  0  0  2  0  0  0  0  0  0
  190.4410  172.5430  138.2750 C   0  0  1  0  0  3  0  0  0  0  0  0
  189.3140  172.2720  137.2910 C   0  0  0  0  0  1  0  0  0  0  0  0
  190.0670  173.6710  139.2250 C   0  0  0  0  0  2  0  0  0  0  0  0
  188.2120  173.0380  140.5800 O   0  0  0  0  0  1  0  0  0  0  0  0
  188.5670  173.7390  139.4320 C   0  0  0  0  0  2  0  0  0  0  0  0
  191.1040  171.9060  144.1590 C   0  0  0  0  0  2  0  0  0  0  0  0
  189.6930  171.9160  143.6050 C   0  0  0  0  0  1  0  0  0  0  0  0
  2  6  1  6  0  0  0
  3  7  1  6  0  0  0
  3  2  1  0  0  0  0
  4  7  1  6  0  0  0
  4 11  1  0  0  0  0
  5 10  1  0  0  0  0
  5  4  1  0  0  0  0
  8  9  2  0  0  0  0
  9  1  1  0  0  0  0
  9 12  1  0  0  0  0
 10  8  1  0  0  0  0
 11  2  1  0  0  0  0
 11 12  1  1  0  0  0
 13 15  2  0  0  0  0
 14 22  1  6  0  0  0
 14 20  1  0  0  0  0
 14 15  1  0  0  0  0
 15 16  1  0  0  0  0
 16 18  2  0  0  0  0
 16 17  1  0  0  0  0
 19 20  1  6  0  0  0
 19  3  1  0  0  0  0
 19 18  1  0  0  0  0
 21 22  1  0  0  0  0
 23 24  1  6  0  0  0
 23  1  1  0  0  0  0
 24 25  1  0  0  0  0
 25 26  1  0  0  0  0
 27 26  1  0  0  0  0
 28 30  1  6  0  0  0
 28 23  1  0  0  0  0
 29 30  1  0  0  0  0
 31 28  1  0  0  0  0
 31 43  1  1  0  0  0
 32 31  1  0  0  0  0
 32 34  2  0  0  0  0
 33 32  1  0  0  0  0
 35 37  1  0  0  0  0
 36 35  2  0  0  0  0
 37 33  1  0  0  0  0
 38 39  1  6  0  0  0
 38 35  1  0  0  0  0
 38 40  1  0  0  0  0
 40 42  1  0  0  0  0
 42 41  1  0  0  0  0
 44 43  1  0  0  0  0
M  END
>  <MODEL>
8

>  <REMARK>
 VINA RESULT:      -6.0      2.785      5.518
  Name = 
  16 active torsions:
  status: ('A' for Active; 'I' for Inactive)
    1  A    between atoms: C_1  and  C_8
    2  A    between atoms: C_1  and  C_25
    3  A    between atoms: C_2  and  C_10
    4  A    between atoms: C_3  and  C_20
    5  A    between atoms: C_3  and  C_22
    6  A    between atoms: C_3  and  O_38
    7  A    between atoms: C_5  and  C_22
    8  A    between atoms: N_7  and  C_43
    9  A    between atoms: C_10  and  C_11
   10  A    between atoms: C_11  and  C_27
   11  A    between atoms: C_15  and  O_30
   12  A    between atoms: O_16  and  C_20
   13  A    between atoms: O_16  and  C_35
   14  A    between atoms: C_20  and  C_25
   15  A    between atoms: C_22  and  C_24
   16  A    between atoms: N_33  and  N_34
                            x       y       z     vdW  Elec       q    Type
                         _______ _______ _______ _____ _____    ______ ____

>  <TORSDO>
F 16

$$$$
=
 OpenBabel11062422413D

 44 46  0  0  1  0  0  0  0  0999 V2000
  194.0250  173.3800  143.6990 O   0  0  0  0  0  0  0  0  0  0  0  0
  189.7390  174.9270  145.1630 C   0  0  1  0  0  3  0  0  0  0  0  0
  189.1400  176.1750  145.7150 N   0  0  1  0  0  0  0  0  0  0  0  0
  191.4390  176.5960  145.3570 C   0  0  1  0  0  3  0  0  0  0  0  0
  192.3510  177.3000  144.5620 O   0  0  0  0  0  0  0  0  0  0  0  0
  189.0250  174.3490  143.9360 C   0  0  0  0  0  1  0  0  0  0  0  0
  190.0870  177.2440  145.3840 C   0  0  0  0  0  2  0  0  0  0  0  0
  194.0790  175.6430  144.3060 C   0  0  0  0  0  3  0  0  0  0  0  0
  193.4610  174.4540  144.3920 C   0  0  0  0  0  0  0  0  0  0  0  0
  193.6170  176.8920  145.0150 C   0  0  0  0  0  2  0  0  0  0  0  0
  191.1540  175.2580  144.7420 C   0  0  1  0  0  3  0  0  0  0  0  0
  192.2060  174.2660  145.2060 C   0  0  0  0  0  2  0  0  0  0  0  0
  184.4470  178.8000  144.4120 O   0  0  0  0  0  0  0  0  0  0  0  0
  186.4570  177.8270  143.5390 C   0  0  2  0  0  3  0  0  0  0  0  0
  185.5280  178.2010  144.6660 C   0  0  0  0  0  0  0  0  0  0  0  0
  185.8550  177.8180  146.0560 C   0  0  0  0  0  0  0  0  0  0  0  0
  185.0160  178.2890  147.1900 C   0  0  0  0  0  1  0  0  0  0  0  0
  186.9370  177.0780  146.3150 C   0  0  0  0  0  3  0  0  0  0  0  0
  187.7950  176.5120  145.2100 C   0  0  1  0  0  3  0  0  0  0  0  0
  187.8630  177.5370  144.0690 C   0  0  0  0  0  2  0  0  0  0  0  0
  186.6330  178.2100  141.3670 C   0  0  0  0  0  1  0  0  0  0  0  0
  186.5200  178.8560  142.5970 O   0  0  0  0  0  0  0  0  0  0  0  0
  194.4320  172.1620  144.3250 C   0  0  2  0  0  3  0  0  0  0  0  0
  195.9450  172.0450  144.2960 C   0  0  0  0  0  2  0  0  0  0  0  0
  196.4880  172.0030  145.7080 C   0  0  0  0  0  2  0  0  0  0  0  0
  196.8570  173.4000  146.1520 C   0  0  0  0  0  2  0  0  0  0  0  0
  197.4730  174.1540  144.9970 C   0  0  0  0  0  1  0  0  0  0  0  0
  193.7980  170.9160  143.6880 C   0  0  1  0  0  3  0  0  0  0  0  0
  193.7670  169.0840  144.9320 C   0  0  0  0  0  1  0  0  0  0  0  0
  193.0380  170.2380  144.6470 O   0  0  0  0  0  0  0  0  0  0  0  0
  192.9550  171.2000  142.4260 C   0  0  1  0  0  3  0  0  0  0  0  0
  193.1720  170.1890  141.3300 C   0  0  0  0  0  0  0  0  0  0  0  0
  193.8680  170.5220  140.1230 N   0  0  0  0  0  2  0  0  0  0  0  0
  192.7390  169.0180  141.4890 O   0  0  0  0  0  0  0  0  0  0  0  0
  193.6120  172.7650  139.1470 C   0  0  0  0  0  0  0  0  0  0  0  0
  192.5080  172.4400  138.6300 O   0  0  0  0  0  0  0  0  0  0  0  0
  194.3650  171.8100  139.8860 N   0  0  0  0  0  2  0  0  0  0  0  0
  194.1080  174.1700  139.0660 C   0  0  1  0  0  3  0  0  0  0  0  0
  193.4630  174.9110  137.9050 C   0  0  0  0  0  1  0  0  0  0  0  0
  193.8370  174.8880  140.3790 C   0  0  0  0  0  2  0  0  0  0  0  0
  196.0010  174.8310  141.3750 O   0  0  0  0  0  1  0  0  0  0  0  0
  195.0470  175.6830  140.8300 C   0  0  0  0  0  2  0  0  0  0  0  0
  191.4690  171.2730  142.7720 C   0  0  0  0  0  2  0  0  0  0  0  0
  190.6940  171.9410  141.6530 C   0  0  0  0  0  1  0  0  0  0  0  0
  1 23  1  0  0  0  0
  1  9  1  0  0  0  0
  2  6  1  6  0  0  0
  2  3  1  0  0  0  0
  3  7  1  6  0  0  0
  4  7  1  6  0  0  0
  5 10  1  0  0  0  0
  5  4  1  0  0  0  0
  8  9  2  0  0  0  0
  8 10  1  0  0  0  0
  9 12  1  0  0  0  0
 11  2  1  0  0  0  0
 11 12  1  1  0  0  0
 11  4  1  0  0  0  0
 13 15  2  0  0  0  0
 14 22  1  6  0  0  0
 14 20  1  0  0  0  0
 14 15  1  0  0  0  0
 15 16  1  0  0  0  0
 16 18  2  0  0  0  0
 16 17  1  0  0  0  0
 19 20  1  6  0  0  0
 19  3  1  0  0  0  0
 19 18  1  0  0  0  0
 21 22  1  0  0  0  0
 23 24  1  6  0  0  0
 24 25  1  0  0  0  0
 25 26  1  0  0  0  0
 27 26  1  0  0  0  0
 28 23  1  0  0  0  0
 28 30  1  1  0  0  0
 30 29  1  0  0  0  0
 31 43  1  1  0  0  0
 31 28  1  0  0  0  0
 32 34  2  0  0  0  0
 32 31  1  0  0  0  0
 33 32  1  0  0  0  0
 35 37  1  0  0  0  0
 36 35  2  0  0  0  0
 37 33  1  0  0  0  0
 38 39  1  6  0  0  0
 38 35  1  0  0  0  0
 38 40  1  0  0  0  0
 40 42  1  0  0  0  0
 42 41  1  0  0  0  0
 44 43  1  0  0  0  0
M  END
>  <MODEL>
9

>  <REMARK>
 VINA RESULT:      -5.9      2.600      5.031
  Name = 
  16 active torsions:
  status: ('A' for Active; 'I' for Inactive)
    1  A    between atoms: C_1  and  C_8
    2  A    between atoms: C_1  and  C_25
    3  A    between atoms: C_2  and  C_10
    4  A    between atoms: C_3  and  C_20
    5  A    between atoms: C_3  and  C_22
    6  A    between atoms: C_3  and  O_38
    7  A    between atoms: C_5  and  C_22
    8  A    between atoms: N_7  and  C_43
    9  A    between atoms: C_10  and  C_11
   10  A    between atoms: C_11  and  C_27
   11  A    between atoms: C_15  and  O_30
   12  A    between atoms: O_16  and  C_20
   13  A    between atoms: O_16  and  C_35
   14  A    between atoms: C_20  and  C_25
   15  A    between atoms: C_22  and  C_24
   16  A    between atoms: N_33  and  N_34
                            x       y       z     vdW  Elec       q    Type
                         _______ _______ _______ _____ _____    ______ ____

>  <TORSDO>
F 16

$$$$
