=
 OpenBabel11062422283D

 36 39  0  0  1  0  0  0  0  0999 V2000
  188.3030  175.9470  144.2040 C   0  0  0  0  0  0  0  0  0  0  0  0
  187.2290  176.7410  144.6710 C   0  0  0  0  0  0  0  0  0  0  0  0
  187.5140  176.2250  141.9190 C   0  0  0  0  0  3  0  0  0  0  0  0
  186.3230  177.2720  143.7370 C   0  0  0  0  0  3  0  0  0  0  0  0
  188.4300  175.6950  142.8290 C   0  0  0  0  0  3  0  0  0  0  0  0
  186.4550  177.0120  142.3680 C   0  0  0  0  0  0  0  0  0  0  0  0
  187.0220  177.0330  146.1130 C   0  0  0  0  0  0  0  0  0  0  0  0
  187.2070  176.1400  146.9850 O   0  0  0  0  0  0  0  0  0  0  0  0
  186.6100  178.3980  146.5750 C   0  0  0  0  0  2  0  0  0  0  0  0
  185.3870  178.3210  147.4750 C   0  0  0  0  0  2  0  0  0  0  0  0
  184.1300  178.1350  146.6480 C   0  0  0  0  0  2  0  0  0  0  0  0
  184.0770  179.1130  145.6560 O   0  0  0  0  0  1  0  0  0  0  0  0
  189.2480  175.4420  145.1070 O   0  0  0  0  0  0  0  0  0  0  0  0
  190.4620  176.1130  145.4310 C   0  0  0  0  0  2  0  0  0  0  0  0
  191.3860  175.2000  146.2220 C   0  0  1  0  0  3  0  0  0  0  0  0
  193.6620  176.2720  146.0860 C   0  0  0  0  0  2  0  0  0  0  0  0
  193.3300  173.8490  145.6950 O   0  0  0  0  0  0  0  0  0  0  0  0
  192.0370  174.2050  145.2570 C   0  0  0  0  0  2  0  0  0  0  0  0
  194.2050  174.9510  145.5030 C   0  0  1  0  0  3  0  0  0  0  0  0
  192.4430  176.0230  146.9700 C   0  0  0  0  0  2  0  0  0  0  0  0
  195.5290  176.2380  143.8610 N   0  0  0  0  0  2  0  0  0  0  0  0
  196.8750  175.7170  143.6840 C   0  0  0  0  0  2  0  0  0  0  0  0
  195.3600  173.5720  143.3910 S   0  0  0  0  0  0  0  0  0  0  0  0
  196.7910  174.4960  142.8070 C   0  0  0  0  0  2  0  0  0  0  0  0
  194.6130  175.1110  144.0330 C   0  0  1  0  0  3  0  0  0  0  0  0
  185.5550  177.6540  141.3580 C   0  0  0  0  0  2  0  0  0  0  0  0
  181.9170  178.6770  141.9550 N   0  0  0  0  0  2  0  0  0  0  0  0
  184.3400  178.1840  141.9660 N   0  0  0  0  0  2  0  0  0  0  0  0
  183.0920  178.2210  141.2710 C   0  0  0  0  0  0  0  0  0  0  0  0
  183.0310  177.8240  140.0760 O   0  0  0  0  0  0  0  0  0  0  0  0
  180.2800  179.9320  140.5760 C   0  0  0  0  0  3  0  0  0  0  0  0
  180.6080  178.8370  141.3880 C   0  0  0  0  0  0  0  0  0  0  0  0
  178.9910  180.0410  140.0510 C   0  0  0  0  0  3  0  0  0  0  0  0
  179.6310  177.8750  141.6560 C   0  0  0  0  0  3  0  0  0  0  0  0
  178.0600  179.0890  140.3280 N   0  0  0  0  0  0  0  0  0  0  0  0
  178.3510  178.0190  141.1140 C   0  0  0  0  0  3  0  0  0  0  0  0
  1  2  1  0  0  0  0
  1 13  1  0  0  0  0
  2  7  1  0  0  0  0
  3  6  2  0  0  0  0
  3  5  1  0  0  0  0
  4  2  2  0  0  0  0
  5  1  2  0  0  0  0
  6  4  1  0  0  0  0
  7  9  1  0  0  0  0
  7  8  2  0  0  0  0
  9 10  1  0  0  0  0
 11 10  1  0  0  0  0
 12 11  1  0  0  0  0
 13 14  1  0  0  0  0
 15 14  1  6  0  0  0
 15 20  1  0  0  0  0
 16 20  1  0  0  0  0
 18 17  1  0  0  0  0
 18 15  1  0  0  0  0
 19 17  1  0  0  0  0
 19 16  1  6  0  0  0
 21 25  1  0  0  0  0
 22 21  1  0  0  0  0
 24 23  1  0  0  0  0
 24 22  1  0  0  0  0
 25 23  1  1  0  0  0
 25 19  1  0  0  0  0
 26 28  1  0  0  0  0
 26  6  1  0  0  0  0
 29 27  1  0  0  0  0
 29 28  1  0  0  0  0
 30 29  2  0  0  0  0
 31 32  1  0  0  0  0
 32 34  2  0  0  0  0
 32 27  1  0  0  0  0
 33 35  1  0  0  0  0
 33 31  2  0  0  0  0
 35 36  2  0  0  0  0
 36 34  1  0  0  0  0
M  END
>  <MODEL>
1

>  <REMARK>
 VINA RESULT:      -7.4      0.000      0.000
  Name = 
  11 active torsions:
  status: ('A' for Active; 'I' for Inactive)
    1  A    between atoms: N_1  and  C_18
    2  A    between atoms: C_2  and  C_23
    3  A    between atoms: C_4  and  C_13
    4  A    between atoms: C_4  and  C_35
    5  A    between atoms: C_7  and  O_12
    6  A    between atoms: C_8  and  C_9
    7  A    between atoms: C_9  and  O_12
    8  A    between atoms: N_11  and  C_27
    9  A    between atoms: C_23  and  C_35
   10  A    between atoms: C_27  and  C_34
   11  A    between atoms: C_28  and  C_33
                            x       y       z     vdW  Elec       q    Type
                         _______ _______ _______ _____ _____    ______ ____

>  <TORSDO>
F 11

$$$$
=
 OpenBabel11062422283D

 36 39  0  0  1  0  0  0  0  0999 V2000
  188.9960  177.6090  144.0520 C   0  0  0  0  0  0  0  0  0  0  0  0
  187.7090  177.2250  144.4960 C   0  0  0  0  0  0  0  0  0  0  0  0
  188.1120  177.9750  141.8140 C   0  0  0  0  0  3  0  0  0  0  0  0
  186.6430  177.2390  143.5800 C   0  0  0  0  0  3  0  0  0  0  0  0
  189.1830  177.9770  142.7090 C   0  0  0  0  0  3  0  0  0  0  0  0
  186.8390  177.6030  142.2430 C   0  0  0  0  0  0  0  0  0  0  0  0
  187.4430  176.8050  145.8960 C   0  0  0  0  0  0  0  0  0  0  0  0
  188.3920  176.5380  146.6810 O   0  0  0  0  0  0  0  0  0  0  0  0
  186.0420  176.7090  146.4210 C   0  0  0  0  0  2  0  0  0  0  0  0
  185.7800  177.7810  147.4680 C   0  0  0  0  0  2  0  0  0  0  0  0
  184.8730  178.8590  146.9090 C   0  0  0  0  0  2  0  0  0  0  0  0
  184.0840  178.3220  145.8920 O   0  0  0  0  0  1  0  0  0  0  0  0
  190.0690  177.6490  144.9530 O   0  0  0  0  0  0  0  0  0  0  0  0
  191.3170  177.0050  144.7170 C   0  0  0  0  0  2  0  0  0  0  0  0
  191.1500  175.4940  144.7200 C   0  0  1  0  0  3  0  0  0  0  0  0
  192.9820  174.6230  146.2160 C   0  0  0  0  0  2  0  0  0  0  0  0
  192.5070  173.6150  144.0040 O   0  0  0  0  0  0  0  0  0  0  0  0
  192.0530  174.8980  143.6350 C   0  0  0  0  0  2  0  0  0  0  0  0
  193.4650  173.7430  145.0450 C   0  0  1  0  0  3  0  0  0  0  0  0
  191.4880  174.9190  146.1020 C   0  0  0  0  0  2  0  0  0  0  0  0
  195.6150  174.8350  145.5780 N   0  0  0  0  0  2  0  0  0  0  0  0
  196.6380  173.8960  146.0110 C   0  0  0  0  0  2  0  0  0  0  0  0
  195.7470  172.8180  143.7680 S   0  0  0  0  0  0  0  0  0  0  0  0
  197.1800  173.2000  144.7920 C   0  0  0  0  0  2  0  0  0  0  0  0
  194.8270  174.2080  144.5170 C   0  0  1  0  0  3  0  0  0  0  0  0
  185.6940  177.7170  141.2850 C   0  0  0  0  0  2  0  0  0  0  0  0
  182.0410  178.6070  141.9950 N   0  0  0  0  0  2  0  0  0  0  0  0
  184.4760  178.1760  141.9430 N   0  0  0  0  0  2  0  0  0  0  0  0
  183.2160  178.2260  141.2680 C   0  0  0  0  0  0  0  0  0  0  0  0
  183.1480  177.9050  140.0510 O   0  0  0  0  0  0  0  0  0  0  0  0
  179.7030  177.8320  141.6880 C   0  0  0  0  0  3  0  0  0  0  0  0
  180.7200  178.7700  141.4560 C   0  0  0  0  0  0  0  0  0  0  0  0
  178.4360  178.0370  141.1390 C   0  0  0  0  0  3  0  0  0  0  0  0
  180.4410  179.8940  140.6740 C   0  0  0  0  0  3  0  0  0  0  0  0
  178.1930  179.1410  140.3820 N   0  0  0  0  0  0  0  0  0  0  0  0
  179.1610  180.0640  140.1400 C   0  0  0  0  0  3  0  0  0  0  0  0
  1  2  1  0  0  0  0
  1 13  1  0  0  0  0
  2  7  1  0  0  0  0
  3  6  2  0  0  0  0
  3  5  1  0  0  0  0
  4  2  2  0  0  0  0
  5  1  2  0  0  0  0
  6  4  1  0  0  0  0
  7  9  1  0  0  0  0
  7  8  2  0  0  0  0
  9 10  1  0  0  0  0
 11 10  1  0  0  0  0
 12 11  1  0  0  0  0
 14 13  1  0  0  0  0
 15 14  1  1  0  0  0
 15 20  1  0  0  0  0
 17 19  1  0  0  0  0
 18 17  1  0  0  0  0
 18 15  1  0  0  0  0
 19 16  1  1  0  0  0
 20 16  1  0  0  0  0
 21 22  1  0  0  0  0
 23 24  1  0  0  0  0
 24 22  1  0  0  0  0
 25 23  1  1  0  0  0
 25 19  1  0  0  0  0
 25 21  1  0  0  0  0
 26 28  1  0  0  0  0
 26  6  1  0  0  0  0
 29 28  1  0  0  0  0
 29 27  1  0  0  0  0
 30 29  2  0  0  0  0
 32 31  1  0  0  0  0
 32 27  1  0  0  0  0
 33 31  2  0  0  0  0
 34 32  2  0  0  0  0
 35 33  1  0  0  0  0
 36 35  2  0  0  0  0
 36 34  1  0  0  0  0
M  END
>  <MODEL>
2

>  <REMARK>
 VINA RESULT:      -7.4      1.279      1.586
  Name = 
  11 active torsions:
  status: ('A' for Active; 'I' for Inactive)
    1  A    between atoms: N_1  and  C_18
    2  A    between atoms: C_2  and  C_23
    3  A    between atoms: C_4  and  C_13
    4  A    between atoms: C_4  and  C_35
    5  A    between atoms: C_7  and  O_12
    6  A    between atoms: C_8  and  C_9
    7  A    between atoms: C_9  and  O_12
    8  A    between atoms: N_11  and  C_27
    9  A    between atoms: C_23  and  C_35
   10  A    between atoms: C_27  and  C_34
   11  A    between atoms: C_28  and  C_33
                            x       y       z     vdW  Elec       q    Type
                         _______ _______ _______ _____ _____    ______ ____

>  <TORSDO>
F 11

$$$$
=
 OpenBabel11062422283D

 36 39  0  0  1  0  0  0  0  0999 V2000
  188.2870  176.8780  144.2140 C   0  0  0  0  0  0  0  0  0  0  0  0
  188.5180  176.5810  142.8510 C   0  0  0  0  0  0  0  0  0  0  0  0
  186.1480  177.8820  143.6310 C   0  0  0  0  0  3  0  0  0  0  0  0
  187.5410  176.9350  141.9040 C   0  0  0  0  0  3  0  0  0  0  0  0
  187.1010  177.5310  144.5880 C   0  0  0  0  0  3  0  0  0  0  0  0
  186.3640  177.5900  142.2850 C   0  0  0  0  0  0  0  0  0  0  0  0
  189.7580  175.9100  142.3810 C   0  0  0  0  0  0  0  0  0  0  0  0
  190.8910  176.4090  142.6180 O   0  0  0  0  0  0  0  0  0  0  0  0
  189.6990  174.6120  141.6330 C   0  0  0  0  0  2  0  0  0  0  0  0
  189.1330  173.5060  142.5110 C   0  0  0  0  0  2  0  0  0  0  0  0
  187.8700  172.9350  141.8980 C   0  0  0  0  0  2  0  0  0  0  0  0
  188.0290  172.8280  140.5170 O   0  0  0  0  0  1  0  0  0  0  0  0
  189.2210  176.4960  145.1860 O   0  0  0  0  0  0  0  0  0  0  0  0
  188.8610  175.9410  146.4470 C   0  0  0  0  0  2  0  0  0  0  0  0
  189.8880  174.9140  146.8950 C   0  0  1  0  0  3  0  0  0  0  0  0
  192.0150  176.2130  147.2670 C   0  0  0  0  0  2  0  0  0  0  0  0
  191.9860  174.0810  146.0060 O   0  0  0  0  0  0  0  0  0  0  0  0
  190.6610  174.4230  145.6660 C   0  0  0  0  0  2  0  0  0  0  0  0
  192.7190  175.2700  146.2700 C   0  0  1  0  0  3  0  0  0  0  0  0
  190.8340  175.5190  147.9400 C   0  0  0  0  0  2  0  0  0  0  0  0
  193.9470  177.1650  145.2690 N   0  0  0  0  0  2  0  0  0  0  0  0
  195.3230  176.8360  144.9330 C   0  0  0  0  0  2  0  0  0  0  0  0
  193.9490  174.8740  143.8150 S   0  0  0  0  0  0  0  0  0  0  0  0
  195.3150  176.0390  143.6570 C   0  0  0  0  0  2  0  0  0  0  0  0
  193.1070  176.0030  144.9800 C   0  0  1  0  0  3  0  0  0  0  0  0
  185.2750  177.8810  141.3010 C   0  0  0  0  0  2  0  0  0  0  0  0
  181.5880  178.5990  142.0320 N   0  0  0  0  0  2  0  0  0  0  0  0
  184.0420  178.3010  141.9580 N   0  0  0  0  0  2  0  0  0  0  0  0
  182.7730  178.2520  141.3030 C   0  0  0  0  0  0  0  0  0  0  0  0
  182.7050  177.8750  140.1020 O   0  0  0  0  0  0  0  0  0  0  0  0
  179.3060  177.6620  141.7630 C   0  0  0  0  0  3  0  0  0  0  0  0
  180.2530  178.6650  141.5090 C   0  0  0  0  0  0  0  0  0  0  0  0
  178.0210  177.7740  141.2280 C   0  0  0  0  0  3  0  0  0  0  0  0
  179.8880  179.7600  140.7210 C   0  0  0  0  0  3  0  0  0  0  0  0
  177.6930  178.8520  140.4640 N   0  0  0  0  0  0  0  0  0  0  0  0
  178.5930  179.8360  140.2020 C   0  0  0  0  0  3  0  0  0  0  0  0
  1  5  1  0  0  0  0
  1 13  1  0  0  0  0
  2  1  2  0  0  0  0
  3  5  2  0  0  0  0
  4  6  2  0  0  0  0
  4  2  1  0  0  0  0
  6  3  1  0  0  0  0
  7  8  2  0  0  0  0
  7  2  1  0  0  0  0
  9  7  1  0  0  0  0
  9 10  1  0  0  0  0
 11 10  1  0  0  0  0
 12 11  1  0  0  0  0
 13 14  1  0  0  0  0
 15 14  1  6  0  0  0
 15 20  1  0  0  0  0
 16 20  1  0  0  0  0
 17 19  1  0  0  0  0
 18 17  1  0  0  0  0
 18 15  1  0  0  0  0
 19 16  1  1  0  0  0
 22 21  1  0  0  0  0
 24 23  1  0  0  0  0
 24 22  1  0  0  0  0
 25 23  1  6  0  0  0
 25 21  1  0  0  0  0
 25 19  1  0  0  0  0
 26 28  1  0  0  0  0
 26  6  1  0  0  0  0
 29 28  1  0  0  0  0
 29 27  1  0  0  0  0
 30 29  2  0  0  0  0
 32 31  1  0  0  0  0
 32 27  1  0  0  0  0
 33 31  2  0  0  0  0
 34 32  2  0  0  0  0
 35 33  1  0  0  0  0
 36 35  2  0  0  0  0
 36 34  1  0  0  0  0
M  END
>  <MODEL>
3

>  <REMARK>
 VINA RESULT:      -7.1      1.760      3.368
  Name = 
  11 active torsions:
  status: ('A' for Active; 'I' for Inactive)
    1  A    between atoms: N_1  and  C_18
    2  A    between atoms: C_2  and  C_23
    3  A    between atoms: C_4  and  C_13
    4  A    between atoms: C_4  and  C_35
    5  A    between atoms: C_7  and  O_12
    6  A    between atoms: C_8  and  C_9
    7  A    between atoms: C_9  and  O_12
    8  A    between atoms: N_11  and  C_27
    9  A    between atoms: C_23  and  C_35
   10  A    between atoms: C_27  and  C_34
   11  A    between atoms: C_28  and  C_33
                            x       y       z     vdW  Elec       q    Type
                         _______ _______ _______ _____ _____    ______ ____

>  <TORSDO>
F 11

$$$$
=
 OpenBabel11062422283D

 36 39  0  0  1  0  0  0  0  0999 V2000
  195.4120  175.2920  144.9060 C   0  0  0  0  0  0  0  0  0  0  0  0
  194.7440  174.1570  145.4220 C   0  0  0  0  0  0  0  0  0  0  0  0
  193.6740  176.7280  145.8230 C   0  0  0  0  0  3  0  0  0  0  0  0
  193.5530  174.3410  146.1440 C   0  0  0  0  0  3  0  0  0  0  0  0
  194.8630  176.5690  145.1100 C   0  0  0  0  0  3  0  0  0  0  0  0
  193.0110  175.6160  146.3390 C   0  0  0  0  0  0  0  0  0  0  0  0
  195.2560  172.7750  145.2280 C   0  0  0  0  0  0  0  0  0  0  0  0
  194.6720  171.9750  144.4490 O   0  0  0  0  0  0  0  0  0  0  0  0
  196.4920  172.3020  145.9320 C   0  0  0  0  0  2  0  0  0  0  0  0
  197.4160  171.5670  144.9740 C   0  0  0  0  0  2  0  0  0  0  0  0
  197.6030  170.1290  145.4140 C   0  0  0  0  0  2  0  0  0  0  0  0
  196.8290  169.8850  146.5490 O   0  0  0  0  0  1  0  0  0  0  0  0
  196.6260  175.1450  144.2220 O   0  0  0  0  0  0  0  0  0  0  0  0
  197.1620  176.1350  143.3500 C   0  0  0  0  0  2  0  0  0  0  0  0
  196.9310  175.7530  141.8970 C   0  0  1  0  0  3  0  0  0  0  0  0
  194.5090  176.2810  141.4440 C   0  0  0  0  0  2  0  0  0  0  0  0
  195.5350  174.1370  140.7460 O   0  0  0  0  0  0  0  0  0  0  0  0
  196.4020  174.3170  141.8450 C   0  0  0  0  0  2  0  0  0  0  0  0
  194.3140  174.8150  141.0030 C   0  0  1  0  0  3  0  0  0  0  0  0
  195.9530  176.7300  141.2330 C   0  0  0  0  0  2  0  0  0  0  0  0
  192.4830  174.9420  142.6560 N   0  0  0  0  0  2  0  0  0  0  0  0
  191.1680  174.7560  142.0630 C   0  0  0  0  0  2  0  0  0  0  0  0
  192.5360  172.6900  141.1440 S   0  0  0  0  0  0  0  0  0  0  0  0
  190.9730  173.2850  141.8120 C   0  0  0  0  0  2  0  0  0  0  0  0
  193.4250  174.0450  141.9870 C   0  0  1  0  0  3  0  0  0  0  0  0
  191.7980  175.8320  147.1900 C   0  0  0  0  0  2  0  0  0  0  0  0
  188.3240  176.2760  145.6480 N   0  0  0  0  0  2  0  0  0  0  0  0
  190.5630  175.5970  146.4490 N   0  0  0  0  0  2  0  0  0  0  0  0
  189.4760  176.5260  146.4640 C   0  0  0  0  0  0  0  0  0  0  0  0
  189.5550  177.5680  147.1690 O   0  0  0  0  0  0  0  0  0  0  0  0
  186.0280  176.8050  146.4280 C   0  0  0  0  0  3  0  0  0  0  0  0
  187.1270  177.0670  145.5970 C   0  0  0  0  0  0  0  0  0  0  0  0
  184.8870  177.6040  146.3360 C   0  0  0  0  0  3  0  0  0  0  0  0
  187.0540  178.1270  144.6890 C   0  0  0  0  0  3  0  0  0  0  0  0
  184.8440  178.6300  145.4430 N   0  0  0  0  0  0  0  0  0  0  0  0
  185.8950  178.9040  144.6260 C   0  0  0  0  0  3  0  0  0  0  0  0
  1  5  2  0  0  0  0
  1  2  1  0  0  0  0
  2  4  2  0  0  0  0
  3  6  2  0  0  0  0
  4  6  1  0  0  0  0
  5  3  1  0  0  0  0
  6 26  1  0  0  0  0
  7  2  1  0  0  0  0
  7  9  1  0  0  0  0
  8  7  2  0  0  0  0
 10 11  1  0  0  0  0
 10  9  1  0  0  0  0
 11 12  1  0  0  0  0
 13  1  1  0  0  0  0
 14 13  1  0  0  0  0
 15 14  1  1  0  0  0
 17 19  1  0  0  0  0
 17 18  1  0  0  0  0
 18 15  1  0  0  0  0
 19 16  1  1  0  0  0
 19 25  1  0  0  0  0
 20 16  1  0  0  0  0
 20 15  1  0  0  0  0
 22 21  1  0  0  0  0
 23 24  1  0  0  0  0
 24 22  1  0  0  0  0
 25 23  1  6  0  0  0
 25 21  1  0  0  0  0
 27 29  1  0  0  0  0
 28 29  1  0  0  0  0
 28 26  1  0  0  0  0
 29 30  2  0  0  0  0
 32 27  1  0  0  0  0
 32 31  2  0  0  0  0
 33 31  1  0  0  0  0
 34 32  1  0  0  0  0
 35 33  2  0  0  0  0
 36 34  2  0  0  0  0
 36 35  1  0  0  0  0
M  END
>  <MODEL>
4

>  <REMARK>
 VINA RESULT:      -7.1      4.230      8.397
  Name = 
  11 active torsions:
  status: ('A' for Active; 'I' for Inactive)
    1  A    between atoms: N_1  and  C_18
    2  A    between atoms: C_2  and  C_23
    3  A    between atoms: C_4  and  C_13
    4  A    between atoms: C_4  and  C_35
    5  A    between atoms: C_7  and  O_12
    6  A    between atoms: C_8  and  C_9
    7  A    between atoms: C_9  and  O_12
    8  A    between atoms: N_11  and  C_27
    9  A    between atoms: C_23  and  C_35
   10  A    between atoms: C_27  and  C_34
   11  A    between atoms: C_28  and  C_33
                            x       y       z     vdW  Elec       q    Type
                         _______ _______ _______ _____ _____    ______ ____

>  <TORSDO>
F 11

$$$$
=
 OpenBabel11062422283D

 36 39  0  0  1  0  0  0  0  0999 V2000
  192.7740  173.5040  144.9840 C   0  0  0  0  0  0  0  0  0  0  0  0
  192.1690  174.7340  145.3310 C   0  0  0  0  0  0  0  0  0  0  0  0
  191.5060  173.4680  142.9070 C   0  0  0  0  0  3  0  0  0  0  0  0
  191.2480  175.3120  144.4410 C   0  0  0  0  0  3  0  0  0  0  0  0
  192.4300  172.8810  143.7730 C   0  0  0  0  0  3  0  0  0  0  0  0
  190.9080  174.6830  143.2380 C   0  0  0  0  0  0  0  0  0  0  0  0
  192.4710  175.4390  146.6050 C   0  0  0  0  0  0  0  0  0  0  0  0
  193.5560  176.0620  146.7550 O   0  0  0  0  0  0  0  0  0  0  0  0
  191.4870  175.4470  147.7350 C   0  0  0  0  0  2  0  0  0  0  0  0
  191.0730  176.8690  148.0840 C   0  0  0  0  0  2  0  0  0  0  0  0
  189.9760  177.3470  147.1550 C   0  0  0  0  0  2  0  0  0  0  0  0
  189.0310  176.3340  146.9910 O   0  0  0  0  0  1  0  0  0  0  0  0
  193.7310  172.9260  145.8300 O   0  0  0  0  0  0  0  0  0  0  0  0
  194.5890  171.8610  145.4330 C   0  0  0  0  0  2  0  0  0  0  0  0
  196.0480  172.2540  145.6090 C   0  0  1  0  0  3  0  0  0  0  0  0
  196.2160  174.6110  144.7340 C   0  0  0  0  0  2  0  0  0  0  0  0
  197.8550  172.8630  144.1100 O   0  0  0  0  0  0  0  0  0  0  0  0
  196.7980  171.9500  144.3080 C   0  0  0  0  0  2  0  0  0  0  0  0
  197.3160  174.1310  143.7650 C   0  0  1  0  0  3  0  0  0  0  0  0
  196.1640  173.7370  145.9840 C   0  0  0  0  0  2  0  0  0  0  0  0
  195.4570  174.6410  142.2210 N   0  0  0  0  0  2  0  0  0  0  0  0
  195.4620  176.0210  141.7620 C   0  0  0  0  0  2  0  0  0  0  0  0
  197.9390  175.2260  141.2940 S   0  0  0  0  0  0  0  0  0  0  0  0
  196.5160  176.1550  140.6960 C   0  0  0  0  0  2  0  0  0  0  0  0
  196.8410  174.1750  142.3080 C   0  0  1  0  0  3  0  0  0  0  0  0
  190.0050  175.3370  142.2390 C   0  0  0  0  0  2  0  0  0  0  0  0
  186.4850  176.1200  143.5190 N   0  0  0  0  0  2  0  0  0  0  0  0
  188.6000  175.2150  142.6100 N   0  0  0  0  0  2  0  0  0  0  0  0
  187.8870  176.2720  143.2560 C   0  0  0  0  0  0  0  0  0  0  0  0
  188.4890  177.3370  143.5600 O   0  0  0  0  0  0  0  0  0  0  0  0
  184.9260  178.0510  143.5380 C   0  0  0  0  0  3  0  0  0  0  0  0
  185.6410  177.0520  144.2130 C   0  0  0  0  0  0  0  0  0  0  0  0
  184.1210  178.9330  144.2610 C   0  0  0  0  0  3  0  0  0  0  0  0
  185.5330  176.9610  145.6030 C   0  0  0  0  0  3  0  0  0  0  0  0
  184.0340  178.8220  145.6150 N   0  0  0  0  0  0  0  0  0  0  0  0
  184.7180  177.8630  146.2930 C   0  0  0  0  0  3  0  0  0  0  0  0
  1  2  1  0  0  0  0
  1 13  1  0  0  0  0
  2  7  1  0  0  0  0
  3  6  2  0  0  0  0
  3  5  1  0  0  0  0
  4  2  2  0  0  0  0
  5  1  2  0  0  0  0
  6  4  1  0  0  0  0
  7  8  2  0  0  0  0
  7  9  1  0  0  0  0
  9 10  1  0  0  0  0
 11 10  1  0  0  0  0
 12 11  1  0  0  0  0
 14 13  1  0  0  0  0
 15 14  1  6  0  0  0
 15 20  1  0  0  0  0
 16 20  1  0  0  0  0
 17 18  1  0  0  0  0
 18 15  1  0  0  0  0
 19 17  1  0  0  0  0
 19 16  1  1  0  0  0
 21 25  1  0  0  0  0
 22 21  1  0  0  0  0
 24 23  1  0  0  0  0
 24 22  1  0  0  0  0
 25 23  1  6  0  0  0
 25 19  1  0  0  0  0
 26 28  1  0  0  0  0
 26  6  1  0  0  0  0
 27 32  1  0  0  0  0
 28 29  1  0  0  0  0
 29 27  1  0  0  0  0
 29 30  2  0  0  0  0
 31 32  2  0  0  0  0
 31 33  1  0  0  0  0
 32 34  1  0  0  0  0
 33 35  2  0  0  0  0
 34 36  2  0  0  0  0
 35 36  1  0  0  0  0
M  END
>  <MODEL>
5

>  <REMARK>
 VINA RESULT:      -7.0      3.367      5.413
  Name = 
  11 active torsions:
  status: ('A' for Active; 'I' for Inactive)
    1  A    between atoms: N_1  and  C_18
    2  A    between atoms: C_2  and  C_23
    3  A    between atoms: C_4  and  C_13
    4  A    between atoms: C_4  and  C_35
    5  A    between atoms: C_7  and  O_12
    6  A    between atoms: C_8  and  C_9
    7  A    between atoms: C_9  and  O_12
    8  A    between atoms: N_11  and  C_27
    9  A    between atoms: C_23  and  C_35
   10  A    between atoms: C_27  and  C_34
   11  A    between atoms: C_28  and  C_33
                            x       y       z     vdW  Elec       q    Type
                         _______ _______ _______ _____ _____    ______ ____

>  <TORSDO>
F 11

$$$$
=
 OpenBabel11062422283D

 36 39  0  0  1  0  0  0  0  0999 V2000
  191.5410  172.7440  144.3810 C   0  0  0  0  0  0  0  0  0  0  0  0
  192.4470  173.6120  145.0340 C   0  0  0  0  0  0  0  0  0  0  0  0
  189.7110  173.6720  145.6870 C   0  0  0  0  0  3  0  0  0  0  0  0
  191.9520  174.5070  145.9980 C   0  0  0  0  0  3  0  0  0  0  0  0
  190.1790  172.7820  144.7200 C   0  0  0  0  0  3  0  0  0  0  0  0
  190.5940  174.5350  146.3330 C   0  0  0  0  0  0  0  0  0  0  0  0
  193.9030  173.6130  144.7390 C   0  0  0  0  0  0  0  0  0  0  0  0
  194.7290  173.1450  145.5690 O   0  0  0  0  0  0  0  0  0  0  0  0
  194.4290  174.1470  143.4410 C   0  0  0  0  0  2  0  0  0  0  0  0
  194.1970  175.6460  143.3370 C   0  0  0  0  0  2  0  0  0  0  0  0
  195.2300  176.4020  144.1500 C   0  0  0  0  0  2  0  0  0  0  0  0
  194.6850  176.7500  145.3850 O   0  0  0  0  0  1  0  0  0  0  0  0
  191.9980  171.8730  143.3820 O   0  0  0  0  0  0  0  0  0  0  0  0
  191.1550  170.9480  142.7010 C   0  0  0  0  0  2  0  0  0  0  0  0
  190.8420  171.4400  141.2970 C   0  0  1  0  0  3  0  0  0  0  0  0
  191.4240  173.8920  141.3020 C   0  0  0  0  0  2  0  0  0  0  0  0
  189.2990  173.0520  140.3460 O   0  0  0  0  0  0  0  0  0  0  0  0
  189.4170  172.0020  141.2800 C   0  0  0  0  0  2  0  0  0  0  0  0
  189.9830  174.1940  140.8420 C   0  0  1  0  0  3  0  0  0  0  0  0
  191.8620  172.4980  140.8580 C   0  0  0  0  0  2  0  0  0  0  0  0
  190.0580  175.7280  142.7770 N   0  0  0  0  0  2  0  0  0  0  0  0
  189.8880  177.1230  142.4020 C   0  0  0  0  0  2  0  0  0  0  0  0
  187.8530  175.9320  141.2090 S   0  0  0  0  0  0  0  0  0  0  0  0
  188.4250  177.3630  142.1420 C   0  0  0  0  0  2  0  0  0  0  0  0
  189.1830  174.9120  141.9360 C   0  0  1  0  0  3  0  0  0  0  0  0
  190.0420  175.5510  147.2850 C   0  0  0  0  0  2  0  0  0  0  0  0
  186.4280  176.4280  146.3830 N   0  0  0  0  0  2  0  0  0  0  0  0
  188.5840  175.5890  147.2580 N   0  0  0  0  0  2  0  0  0  0  0  0
  187.8590  176.4980  146.4250 C   0  0  0  0  0  0  0  0  0  0  0  0
  188.4870  177.3290  145.7150 O   0  0  0  0  0  0  0  0  0  0  0  0
  184.6900  178.1970  146.3050 C   0  0  0  0  0  3  0  0  0  0  0  0
  185.5520  177.3020  145.6550 C   0  0  0  0  0  0  0  0  0  0  0  0
  183.8560  179.0250  145.5500 C   0  0  0  0  0  3  0  0  0  0  0  0
  185.5560  177.2570  144.2590 C   0  0  0  0  0  3  0  0  0  0  0  0
  183.8820  178.9600  144.1910 N   0  0  0  0  0  0  0  0  0  0  0  0
  184.7070  178.1010  143.5370 C   0  0  0  0  0  3  0  0  0  0  0  0
  1  5  2  0  0  0  0
  1  2  1  0  0  0  0
  2  4  2  0  0  0  0
  3  6  2  0  0  0  0
  4  6  1  0  0  0  0
  5  3  1  0  0  0  0
  6 26  1  0  0  0  0
  7  2  1  0  0  0  0
  7  8  2  0  0  0  0
  9  7  1  0  0  0  0
 10  9  1  0  0  0  0
 10 11  1  0  0  0  0
 11 12  1  0  0  0  0
 13  1  1  0  0  0  0
 14 13  1  0  0  0  0
 15 14  1  1  0  0  0
 17 19  1  0  0  0  0
 17 18  1  0  0  0  0
 18 15  1  0  0  0  0
 19 16  1  1  0  0  0
 19 25  1  0  0  0  0
 20 15  1  0  0  0  0
 20 16  1  0  0  0  0
 22 21  1  0  0  0  0
 23 24  1  0  0  0  0
 24 22  1  0  0  0  0
 25 23  1  6  0  0  0
 25 21  1  0  0  0  0
 27 29  1  0  0  0  0
 28 26  1  0  0  0  0
 29 28  1  0  0  0  0
 30 29  2  0  0  0  0
 32 31  1  0  0  0  0
 32 27  1  0  0  0  0
 33 31  2  0  0  0  0
 34 32  2  0  0  0  0
 35 33  1  0  0  0  0
 36 35  2  0  0  0  0
 36 34  1  0  0  0  0
M  END
>  <MODEL>
6

>  <REMARK>
 VINA RESULT:      -6.8      3.729      7.213
  Name = 
  11 active torsions:
  status: ('A' for Active; 'I' for Inactive)
    1  A    between atoms: N_1  and  C_18
    2  A    between atoms: C_2  and  C_23
    3  A    between atoms: C_4  and  C_13
    4  A    between atoms: C_4  and  C_35
    5  A    between atoms: C_7  and  O_12
    6  A    between atoms: C_8  and  C_9
    7  A    between atoms: C_9  and  O_12
    8  A    between atoms: N_11  and  C_27
    9  A    between atoms: C_23  and  C_35
   10  A    between atoms: C_27  and  C_34
   11  A    between atoms: C_28  and  C_33
                            x       y       z     vdW  Elec       q    Type
                         _______ _______ _______ _____ _____    ______ ____

>  <TORSDO>
F 11

$$$$
=
 OpenBabel11062422283D

 36 39  0  0  1  0  0  0  0  0999 V2000
  192.7080  173.3310  145.1740 C   0  0  0  0  0  0  0  0  0  0  0  0
  191.3560  173.5860  144.8460 C   0  0  0  0  0  0  0  0  0  0  0  0
  192.7640  175.3630  146.5120 C   0  0  0  0  0  3  0  0  0  0  0  0
  190.7330  174.7290  145.3750 C   0  0  0  0  0  3  0  0  0  0  0  0
  193.3990  174.2290  146.0040 C   0  0  0  0  0  3  0  0  0  0  0  0
  191.4310  175.6210  146.1980 C   0  0  0  0  0  0  0  0  0  0  0  0
  190.5700  172.6900  143.9580 C   0  0  0  0  0  0  0  0  0  0  0  0
  189.8710  171.7570  144.4400 O   0  0  0  0  0  0  0  0  0  0  0  0
  190.5660  172.8820  142.4720 C   0  0  0  0  0  2  0  0  0  0  0  0
  189.3030  172.3040  141.8530 C   0  0  0  0  0  2  0  0  0  0  0  0
  188.2470  173.3800  141.6970 C   0  0  0  0  0  2  0  0  0  0  0  0
  188.5890  174.2180  140.6360 O   0  0  0  0  0  1  0  0  0  0  0  0
  193.3420  172.1750  144.6990 O   0  0  0  0  0  0  0  0  0  0  0  0
  194.1910  171.3590  145.5000 C   0  0  0  0  0  2  0  0  0  0  0  0
  195.5730  171.2480  144.8780 C   0  0  1  0  0  3  0  0  0  0  0  0
  196.6310  173.5150  145.1910 C   0  0  0  0  0  2  0  0  0  0  0  0
  196.7140  172.3180  143.0230 O   0  0  0  0  0  0  0  0  0  0  0  0
  195.4980  171.7260  143.4250 C   0  0  0  0  0  2  0  0  0  0  0  0
  196.8500  173.5790  143.6650 C   0  0  1  0  0  3  0  0  0  0  0  0
  196.5910  172.0700  145.6810 C   0  0  0  0  0  2  0  0  0  0  0  0
  195.9620  175.8790  143.8110 N   0  0  0  0  0  2  0  0  0  0  0  0
  196.8140  176.8590  143.1580 C   0  0  0  0  0  2  0  0  0  0  0  0
  196.5160  174.9980  141.3050 S   0  0  0  0  0  0  0  0  0  0  0  0
  196.5880  176.7600  141.6730 C   0  0  0  0  0  2  0  0  0  0  0  0
  195.9690  174.6520  143.0140 C   0  0  1  0  0  3  0  0  0  0  0  0
  190.7500  176.7860  146.8460 C   0  0  0  0  0  2  0  0  0  0  0  0
  187.0280  176.9230  145.9680 N   0  0  0  0  0  2  0  0  0  0  0  0
  189.3010  176.6170  146.8910 N   0  0  0  0  0  2  0  0  0  0  0  0
  188.4340  177.1970  145.9140 C   0  0  0  0  0  0  0  0  0  0  0  0
  188.9180  177.9170  145.0000 O   0  0  0  0  0  0  0  0  0  0  0  0
  185.8320  177.0210  143.7960 C   0  0  0  0  0  3  0  0  0  0  0  0
  186.0180  177.4750  145.1100 C   0  0  0  0  0  0  0  0  0  0  0  0
  184.8360  177.5940  143.0020 C   0  0  0  0  0  3  0  0  0  0  0  0
  185.2000  178.4980  145.5970 C   0  0  0  0  0  3  0  0  0  0  0  0
  184.0540  178.5880  143.5020 N   0  0  0  0  0  0  0  0  0  0  0  0
  184.2150  179.0470  144.7720 C   0  0  0  0  0  3  0  0  0  0  0  0
  1  5  1  0  0  0  0
  2  1  2  0  0  0  0
  2  4  1  0  0  0  0
  4  6  2  0  0  0  0
  5  3  2  0  0  0  0
  6  3  1  0  0  0  0
  6 26  1  0  0  0  0
  7  8  2  0  0  0  0
  7  2  1  0  0  0  0
  9  7  1  0  0  0  0
 10  9  1  0  0  0  0
 11 10  1  0  0  0  0
 12 11  1  0  0  0  0
 13  1  1  0  0  0  0
 13 14  1  0  0  0  0
 15 14  1  1  0  0  0
 15 20  1  0  0  0  0
 16 20  1  0  0  0  0
 17 18  1  0  0  0  0
 17 19  1  0  0  0  0
 18 15  1  0  0  0  0
 19 16  1  1  0  0  0
 22 21  1  0  0  0  0
 23 24  1  0  0  0  0
 24 22  1  0  0  0  0
 25 23  1  6  0  0  0
 25 19  1  0  0  0  0
 25 21  1  0  0  0  0
 26 28  1  0  0  0  0
 29 27  1  0  0  0  0
 29 28  1  0  0  0  0
 30 29  2  0  0  0  0
 31 32  1  0  0  0  0
 32 34  2  0  0  0  0
 32 27  1  0  0  0  0
 33 35  1  0  0  0  0
 33 31  2  0  0  0  0
 35 36  2  0  0  0  0
 36 34  1  0  0  0  0
M  END
>  <MODEL>
7

>  <REMARK>
 VINA RESULT:      -6.8      3.280      6.087
  Name = 
  11 active torsions:
  status: ('A' for Active; 'I' for Inactive)
    1  A    between atoms: N_1  and  C_18
    2  A    between atoms: C_2  and  C_23
    3  A    between atoms: C_4  and  C_13
    4  A    between atoms: C_4  and  C_35
    5  A    between atoms: C_7  and  O_12
    6  A    between atoms: C_8  and  C_9
    7  A    between atoms: C_9  and  O_12
    8  A    between atoms: N_11  and  C_27
    9  A    between atoms: C_23  and  C_35
   10  A    between atoms: C_27  and  C_34
   11  A    between atoms: C_28  and  C_33
                            x       y       z     vdW  Elec       q    Type
                         _______ _______ _______ _____ _____    ______ ____

>  <TORSDO>
F 11

$$$$
=
 OpenBabel11062422283D

 36 39  0  0  1  0  0  0  0  0999 V2000
  193.2370  173.1470  144.6950 C   0  0  0  0  0  0  0  0  0  0  0  0
  192.7960  173.6740  143.4590 C   0  0  0  0  0  0  0  0  0  0  0  0
  192.7870  175.2850  145.7660 C   0  0  0  0  0  3  0  0  0  0  0  0
  192.3440  175.0040  143.4120 C   0  0  0  0  0  3  0  0  0  0  0  0
  193.2310  173.9630  145.8370 C   0  0  0  0  0  3  0  0  0  0  0  0
  192.3460  175.8130  144.5540 C   0  0  0  0  0  0  0  0  0  0  0  0
  192.7930  172.8740  142.2070 C   0  0  0  0  0  0  0  0  0  0  0  0
  193.5900  173.1430  141.2680 O   0  0  0  0  0  0  0  0  0  0  0  0
  191.8610  171.7130  142.0330 C   0  0  0  0  0  2  0  0  0  0  0  0
  190.4120  172.1770  142.0210 C   0  0  0  0  0  2  0  0  0  0  0  0
  190.1070  172.9330  140.7430 C   0  0  0  0  0  2  0  0  0  0  0  0
  189.9110  172.0260  139.7020 O   0  0  0  0  0  1  0  0  0  0  0  0
  193.6490  171.8100  144.7830 O   0  0  0  0  0  0  0  0  0  0  0  0
  194.5120  171.3190  145.8040 C   0  0  0  0  0  2  0  0  0  0  0  0
  195.9520  171.2800  145.3190 C   0  0  1  0  0  3  0  0  0  0  0  0
  196.7710  173.6590  145.4610 C   0  0  0  0  0  2  0  0  0  0  0  0
  197.1650  172.2550  143.4580 O   0  0  0  0  0  0  0  0  0  0  0  0
  195.9730  171.5930  143.8190 C   0  0  0  0  0  2  0  0  0  0  0  0
  197.1280  173.5830  143.9620 C   0  0  1  0  0  3  0  0  0  0  0  0
  196.8120  172.2760  146.1060 C   0  0  0  0  0  2  0  0  0  0  0  0
  196.0030  175.7750  143.7870 N   0  0  0  0  0  2  0  0  0  0  0  0
  196.8210  176.7820  143.1290 C   0  0  0  0  0  2  0  0  0  0  0  0
  196.9190  174.7430  141.4510 S   0  0  0  0  0  0  0  0  0  0  0  0
  196.7730  176.5280  141.6470 C   0  0  0  0  0  2  0  0  0  0  0  0
  196.2230  174.4910  143.1210 C   0  0  1  0  0  3  0  0  0  0  0  0
  191.7750  177.1970  144.5360 C   0  0  0  0  0  2  0  0  0  0  0  0
  187.9760  177.5710  144.2690 N   0  0  0  0  0  2  0  0  0  0  0  0
  190.4110  177.2190  144.0190 N   0  0  0  0  0  2  0  0  0  0  0  0
  189.2820  177.4800  144.8550 C   0  0  0  0  0  0  0  0  0  0  0  0
  189.4490  177.6570  146.0920 O   0  0  0  0  0  0  0  0  0  0  0  0
  186.2350  176.8000  145.8610 C   0  0  0  0  0  3  0  0  0  0  0  0
  186.7380  177.7600  144.9700 C   0  0  0  0  0  0  0  0  0  0  0  0
  185.0240  177.0330  146.5150 C   0  0  0  0  0  3  0  0  0  0  0  0
  186.0110  178.9340  144.7560 C   0  0  0  0  0  3  0  0  0  0  0  0
  184.3370  178.1850  146.2880 N   0  0  0  0  0  0  0  0  0  0  0  0
  184.8020  179.1300  145.4290 C   0  0  0  0  0  3  0  0  0  0  0  0
  1 13  1  0  0  0  0
  1  5  1  0  0  0  0
  2  1  2  0  0  0  0
  3  5  2  0  0  0  0
  4  2  1  0  0  0  0
  4  6  2  0  0  0  0
  6  3  1  0  0  0  0
  7  2  1  0  0  0  0
  8  7  2  0  0  0  0
  9  7  1  0  0  0  0
 10  9  1  0  0  0  0
 11 10  1  0  0  0  0
 12 11  1  0  0  0  0
 13 14  1  0  0  0  0
 15 14  1  1  0  0  0
 15 20  1  0  0  0  0
 16 20  1  0  0  0  0
 17 18  1  0  0  0  0
 17 19  1  0  0  0  0
 18 15  1  0  0  0  0
 19 16  1  1  0  0  0
 22 21  1  0  0  0  0
 23 24  1  0  0  0  0
 24 22  1  0  0  0  0
 25 23  1  6  0  0  0
 25 21  1  0  0  0  0
 25 19  1  0  0  0  0
 26  6  1  0  0  0  0
 27 29  1  0  0  0  0
 27 32  1  0  0  0  0
 28 26  1  0  0  0  0
 28 29  1  0  0  0  0
 29 30  2  0  0  0  0
 31 33  1  0  0  0  0
 32 31  2  0  0  0  0
 34 32  1  0  0  0  0
 34 36  2  0  0  0  0
 35 33  2  0  0  0  0
 36 35  1  0  0  0  0
M  END
>  <MODEL>
8

>  <REMARK>
 VINA RESULT:      -6.8      4.076      6.849
  Name = 
  11 active torsions:
  status: ('A' for Active; 'I' for Inactive)
    1  A    between atoms: N_1  and  C_18
    2  A    between atoms: C_2  and  C_23
    3  A    between atoms: C_4  and  C_13
    4  A    between atoms: C_4  and  C_35
    5  A    between atoms: C_7  and  O_12
    6  A    between atoms: C_8  and  C_9
    7  A    between atoms: C_9  and  O_12
    8  A    between atoms: N_11  and  C_27
    9  A    between atoms: C_23  and  C_35
   10  A    between atoms: C_27  and  C_34
   11  A    between atoms: C_28  and  C_33
                            x       y       z     vdW  Elec       q    Type
                         _______ _______ _______ _____ _____    ______ ____

>  <TORSDO>
F 11

$$$$
=
 OpenBabel11062422283D

 36 39  0  0  1  0  0  0  0  0999 V2000
  193.2380  174.3760  142.9180 C   0  0  0  0  0  0  0  0  0  0  0  0
  192.6400  173.1090  142.7260 C   0  0  0  0  0  0  0  0  0  0  0  0
  191.2510  175.4500  142.0120 C   0  0  0  0  0  3  0  0  0  0  0  0
  191.3430  173.0460  142.1890 C   0  0  0  0  0  3  0  0  0  0  0  0
  192.5350  175.5350  142.5530 C   0  0  0  0  0  3  0  0  0  0  0  0
  190.6500  174.2060  141.8240 C   0  0  0  0  0  0  0  0  0  0  0  0
  193.3330  171.8410  143.0710 C   0  0  0  0  0  0  0  0  0  0  0  0
  194.2050  171.3530  142.3020 O   0  0  0  0  0  0  0  0  0  0  0  0
  193.0330  171.1190  144.3500 C   0  0  0  0  0  2  0  0  0  0  0  0
  194.2850  170.9830  145.2030 C   0  0  0  0  0  2  0  0  0  0  0  0
  194.5530  169.5270  145.5270 C   0  0  0  0  0  2  0  0  0  0  0  0
  194.9140  169.4070  146.8690 O   0  0  0  0  0  1  0  0  0  0  0  0
  194.5120  174.4740  143.4950 O   0  0  0  0  0  0  0  0  0  0  0  0
  195.1150  175.7100  143.8640 C   0  0  0  0  0  2  0  0  0  0  0  0
  195.0220  175.9260  145.3650 C   0  0  1  0  0  3  0  0  0  0  0  0
  193.1430  174.4350  146.1400 C   0  0  0  0  0  2  0  0  0  0  0  0
  193.3330  176.7930  146.8760 O   0  0  0  0  0  0  0  0  0  0  0  0
  193.9810  177.0140  145.6420 C   0  0  0  0  0  2  0  0  0  0  0  0
  192.4620  175.6790  146.7490 C   0  0  1  0  0  3  0  0  0  0  0  0
  194.6580  174.6150  146.0750 C   0  0  0  0  0  2  0  0  0  0  0  0
  190.4940  174.8370  145.5140 N   0  0  0  0  0  2  0  0  0  0  0  0
  189.3530  174.5750  146.3760 C   0  0  0  0  0  2  0  0  0  0  0  0
  190.0580  177.0310  147.0510 S   0  0  0  0  0  0  0  0  0  0  0  0
  188.7050  175.8920  146.7090 C   0  0  0  0  0  2  0  0  0  0  0  0
  191.1750  176.0390  145.9980 C   0  0  1  0  0  3  0  0  0  0  0  0
  189.2330  174.1550  141.3440 C   0  0  0  0  0  2  0  0  0  0  0  0
  186.6780  176.0350  143.4850 N   0  0  0  0  0  2  0  0  0  0  0  0
  188.2870  174.5020  142.3990 N   0  0  0  0  0  2  0  0  0  0  0  0
  187.6620  175.7860  142.4720 C   0  0  0  0  0  0  0  0  0  0  0  0
  187.9600  176.6740  141.6290 O   0  0  0  0  0  0  0  0  0  0  0  0
  184.8180  177.6270  143.0820 C   0  0  0  0  0  3  0  0  0  0  0  0
  186.0090  177.2800  143.7360 C   0  0  0  0  0  0  0  0  0  0  0  0
  184.2080  178.8520  143.3610 C   0  0  0  0  0  3  0  0  0  0  0  0
  186.5630  178.1730  144.6570 C   0  0  0  0  0  3  0  0  0  0  0  0
  184.7700  179.7020  144.2630 N   0  0  0  0  0  0  0  0  0  0  0  0
  185.9240  179.3900  144.9100 C   0  0  0  0  0  3  0  0  0  0  0  0
  1 13  1  0  0  0  0
  2  1  1  0  0  0  0
  2  7  1  0  0  0  0
  3  5  1  0  0  0  0
  4  2  2  0  0  0  0
  5  1  2  0  0  0  0
  6  3  2  0  0  0  0
  6  4  1  0  0  0  0
  7  9  1  0  0  0  0
  8  7  2  0  0  0  0
  9 10  1  0  0  0  0
 10 11  1  0  0  0  0
 11 12  1  0  0  0  0
 13 14  1  0  0  0  0
 15 14  1  6  0  0  0
 15 18  1  0  0  0  0
 15 20  1  0  0  0  0
 18 17  1  0  0  0  0
 19 16  1  6  0  0  0
 19 17  1  0  0  0  0
 20 16  1  0  0  0  0
 21 22  1  0  0  0  0
 22 24  1  0  0  0  0
 24 23  1  0  0  0  0
 25 21  1  1  0  0  0
 25 19  1  0  0  0  0
 25 23  1  0  0  0  0
 26  6  1  0  0  0  0
 26 28  1  0  0  0  0
 27 32  1  0  0  0  0
 28 29  1  0  0  0  0
 29 27  1  0  0  0  0
 30 29  2  0  0  0  0
 31 33  2  0  0  0  0
 31 32  1  0  0  0  0
 32 34  2  0  0  0  0
 33 35  1  0  0  0  0
 34 36  1  0  0  0  0
 35 36  2  0  0  0  0
M  END
>  <MODEL>
9

>  <REMARK>
 VINA RESULT:      -6.7      3.673      7.035
  Name = 
  11 active torsions:
  status: ('A' for Active; 'I' for Inactive)
    1  A    between atoms: N_1  and  C_18
    2  A    between atoms: C_2  and  C_23
    3  A    between atoms: C_4  and  C_13
    4  A    between atoms: C_4  and  C_35
    5  A    between atoms: C_7  and  O_12
    6  A    between atoms: C_8  and  C_9
    7  A    between atoms: C_9  and  O_12
    8  A    between atoms: N_11  and  C_27
    9  A    between atoms: C_23  and  C_35
   10  A    between atoms: C_27  and  C_34
   11  A    between atoms: C_28  and  C_33
                            x       y       z     vdW  Elec       q    Type
                         _______ _______ _______ _____ _____    ______ ____

>  <TORSDO>
F 11

$$$$
