=
 OpenBabel11072408473D

 36 39  0  0  1  0  0  0  0  0999 V2000
  188.9800  174.8950  147.3910 C   0  0  0  0  0  3  0  0  0  0  0  0
  190.8400  176.2910  146.7330 C   0  0  0  0  0  0  0  0  0  0  0  0
  189.9450  177.0870  145.9860 C   0  0  0  0  0  0  0  0  0  0  0  0
  188.1370  175.6770  146.6690 N   0  0  0  0  0  0  0  0  0  0  0  0
  190.3430  175.1900  147.4350 C   0  0  0  0  0  3  0  0  0  0  0  0
  190.3770  178.1600  145.2760 F   0  0  0  0  0  0  0  0  0  0  0  0
  188.5820  176.7580  145.9750 C   0  0  0  0  0  0  0  0  0  0  0  0
  192.2150  176.5440  146.8120 O   0  0  0  0  0  0  0  0  0  0  0  0
  193.1930  175.9260  145.9850 C   0  0  0  0  0  2  0  0  0  0  0  0
  193.4170  176.7570  144.7330 C   0  0  0  0  0  2  0  0  0  0  0  0
  191.2150  172.1310  140.5300 C   0  0  0  0  0  0  0  0  0  0  0  0
  191.0890  171.7110  141.8310 C   0  0  0  0  0  0  0  0  0  0  0  0
  191.1020  172.6430  142.9950 C   0  0  0  0  0  2  0  0  0  0  0  0
  190.8350  170.0590  141.8380 S   0  0  0  0  0  0  0  0  0  0  0  0
  192.9420  176.0260  143.5260 C   0  0  0  0  0  0  0  0  0  0  0  0
  190.8910  169.8530  140.1610 C   0  0  0  0  0  3  0  0  0  0  0  0
  191.1010  171.1070  139.5830 C   0  0  0  0  0  3  0  0  0  0  0  0
  191.3670  173.5830  140.2160 C   0  0  0  0  0  2  0  0  0  0  0  0
  191.7750  173.9430  142.6220 C   0  0  0  0  0  0  0  0  0  0  0  0
  193.0890  176.5480  142.3900 O   0  0  0  0  0  0  0  0  0  0  0  0
  191.8920  174.3200  141.3750 N   0  0  0  0  0  0  0  0  0  0  0  0
  192.2970  174.7560  143.6810 N   0  0  0  0  0  2  0  0  0  0  0  0
  187.6140  177.5660  145.1760 C   0  0  0  0  0  2  0  0  0  0  0  0
  186.6360  176.6590  144.4410 C   0  0  1  0  0  3  0  0  0  0  0  0
  185.2500  177.4700  142.9120 C   0  0  0  0  0  0  0  0  0  0  0  0
  185.3900  177.3720  144.1920 N   0  0  0  0  0  0  0  0  0  0  0  0
  186.3040  176.8780  142.1660 N   0  0  0  0  0  0  0  0  0  0  0  0
  187.1150  176.4060  143.0510 C   0  0  0  0  0  0  0  0  0  0  0  0
  184.1010  178.1310  142.2890 C   0  0  0  0  0  0  0  0  0  0  0  0
  183.9150  178.0620  140.9150 O   0  0  0  0  0  0  0  0  0  0  0  0
  183.2760  178.7650  142.9980 O   0  0  0  0  0  1  0  0  0  0  0  0
  189.3630  176.5510  142.3020 O   0  0  0  0  0  1  0  0  0  0  0  0
  188.3650  175.6620  142.7080 C   0  0  2  0  0  3  0  0  0  0  0  0
  188.1070  174.6410  141.6470 C   0  0  0  0  0  0  0  0  0  0  0  0
  188.2600  174.9830  140.3110 O   0  0  0  0  0  0  0  0  0  0  0  0
  187.7930  173.4610  141.9580 O   0  0  0  0  0  1  0  0  0  0  0  0
  1  5  1  0  0  0  0
  2  8  1  0  0  0  0
  2  5  2  0  0  0  0
  3  2  1  0  0  0  0
  4  1  2  0  0  0  0
  6  3  1  0  0  0  0
  7  3  2  0  0  0  0
  7  4  1  0  0  0  0
  9  8  1  0  0  0  0
 10  9  1  0  0  0  0
 11 12  2  0  0  0  0
 12 14  1  0  0  0  0
 12 13  1  0  0  0  0
 15 22  1  0  0  0  0
 15 10  1  0  0  0  0
 16 14  1  0  0  0  0
 17 16  2  0  0  0  0
 17 11  1  0  0  0  0
 18 11  1  0  0  0  0
 18 21  1  0  0  0  0
 19 13  1  0  0  0  0
 19 22  1  0  0  0  0
 20 15  2  0  0  0  0
 21 19  2  0  0  0  0
 23  7  1  0  0  0  0
 24 23  1  1  0  0  0
 25 26  2  0  0  0  0
 26 24  1  0  0  0  0
 27 25  1  0  0  0  0
 27 28  2  0  0  0  0
 28 24  1  0  0  0  0
 29 25  1  0  0  0  0
 29 31  1  0  0  0  0
 30 29  2  0  0  0  0
 33 32  1  6  0  0  0
 33 28  1  0  0  0  0
 34 36  1  0  0  0  0
 34 33  1  0  0  0  0
 35 34  2  0  0  0  0
M  END
>  <MODEL>
1

>  <REMARK>
 VINA RESULT:      -6.9      0.000      0.000
  Name = 
  9 active torsions:
  status: ('A' for Active; 'I' for Inactive)
    1  A    between atoms: C_5  and  C_18
    2  A    between atoms: C_6  and  C_26
    3  A    between atoms: O_7  and  C_14
    4  A    between atoms: O_7  and  C_29
    5  A    between atoms: C_8  and  C_23
    6  A    between atoms: C_9  and  C_31
    7  A    between atoms: C_18  and  C_35
    8  A    between atoms: C_23  and  C_29
    9  A    between atoms: C_31  and  C_32
                            x       y       z     vdW  Elec       q    Type
                         _______ _______ _______ _____ _____    ______ ____

>  <TORSDO>
F 9

$$$$
=
 OpenBabel11072408473D

 36 39  0  0  1  0  0  0  0  0999 V2000
  185.6900  177.9610  140.1240 C   0  0  0  0  0  3  0  0  0  0  0  0
  185.3340  177.5940  142.4850 C   0  0  0  0  0  0  0  0  0  0  0  0
  186.5750  176.9250  142.5420 C   0  0  0  0  0  0  0  0  0  0  0  0
  186.8820  177.3150  140.2020 N   0  0  0  0  0  0  0  0  0  0  0  0
  184.8990  178.1100  141.2620 C   0  0  0  0  0  3  0  0  0  0  0  0
  187.0390  176.3940  143.7020 F   0  0  0  0  0  0  0  0  0  0  0  0
  187.3410  176.8020  141.3740 C   0  0  0  0  0  0  0  0  0  0  0  0
  184.5030  177.7740  143.5980 O   0  0  0  0  0  0  0  0  0  0  0  0
  184.5430  178.9090  144.4530 C   0  0  0  0  0  2  0  0  0  0  0  0
  184.4090  178.4750  145.9020 C   0  0  0  0  0  2  0  0  0  0  0  0
  190.2290  175.3750  146.5630 C   0  0  0  0  0  0  0  0  0  0  0  0
  190.4040  176.6490  146.0820 C   0  0  0  0  0  0  0  0  0  0  0  0
  189.3730  177.7200  146.2090 C   0  0  0  0  0  2  0  0  0  0  0  0
  191.9480  176.7770  145.4530 S   0  0  0  0  0  0  0  0  0  0  0  0
  185.4910  177.5180  146.2650 C   0  0  0  0  0  0  0  0  0  0  0  0
  192.4170  175.1870  145.7830 C   0  0  0  0  0  3  0  0  0  0  0  0
  191.3460  174.5460  146.4100 C   0  0  0  0  0  3  0  0  0  0  0  0
  188.9640  174.9990  147.2630 C   0  0  0  0  0  2  0  0  0  0  0  0
  188.0070  177.1120  146.4230 C   0  0  0  0  0  0  0  0  0  0  0  0
  185.1870  176.3900  146.7340 O   0  0  0  0  0  0  0  0  0  0  0  0
  187.8630  175.8920  146.8750 N   0  0  0  0  0  0  0  0  0  0  0  0
  186.8600  177.9110  146.1050 N   0  0  0  0  0  2  0  0  0  0  0  0
  188.6470  176.0780  141.3980 C   0  0  0  0  0  2  0  0  0  0  0  0
  188.4360  174.5860  141.1800 C   0  0  1  0  0  3  0  0  0  0  0  0
  189.2360  173.5660  139.3810 C   0  0  0  0  0  0  0  0  0  0  0  0
  188.2520  174.3130  139.7610 N   0  0  0  0  0  0  0  0  0  0  0  0
  190.1570  173.2500  140.4140 N   0  0  0  0  0  0  0  0  0  0  0  0
  189.6980  173.8420  141.4640 C   0  0  0  0  0  0  0  0  0  0  0  0
  189.3810  173.0890  138.0030 C   0  0  0  0  0  0  0  0  0  0  0  0
  189.9890  171.8670  137.7480 O   0  0  0  0  0  1  0  0  0  0  0  0
  188.9540  173.7850  137.0450 O   0  0  0  0  0  0  0  0  0  0  0  0
  191.7260  173.9280  142.6940 O   0  0  0  0  0  1  0  0  0  0  0  0
  190.3450  173.7530  142.8080 C   0  0  2  0  0  3  0  0  0  0  0  0
  190.0330  172.4490  143.4680 C   0  0  0  0  0  0  0  0  0  0  0  0
  188.8290  171.8140  143.2010 O   0  0  0  0  0  0  0  0  0  0  0  0
  190.8720  171.9020  144.2340 O   0  0  0  0  0  1  0  0  0  0  0  0
  1  4  2  0  0  0  0
  1  5  1  0  0  0  0
  2  3  1  0  0  0  0
  2  8  1  0  0  0  0
  3  6  1  0  0  0  0
  4  7  1  0  0  0  0
  5  2  2  0  0  0  0
  7 23  1  0  0  0  0
  7  3  2  0  0  0  0
  8  9  1  0  0  0  0
  9 10  1  0  0  0  0
 10 15  1  0  0  0  0
 11 18  1  0  0  0  0
 12 13  1  0  0  0  0
 12 11  2  0  0  0  0
 13 19  1  0  0  0  0
 14 16  1  0  0  0  0
 14 12  1  0  0  0  0
 15 20  2  0  0  0  0
 16 17  2  0  0  0  0
 17 11  1  0  0  0  0
 19 21  2  0  0  0  0
 21 18  1  0  0  0  0
 22 15  1  0  0  0  0
 22 19  1  0  0  0  0
 24 23  1  6  0  0  0
 24 28  1  0  0  0  0
 25 26  2  0  0  0  0
 25 27  1  0  0  0  0
 26 24  1  0  0  0  0
 27 28  2  0  0  0  0
 28 33  1  0  0  0  0
 29 25  1  0  0  0  0
 30 29  1  0  0  0  0
 31 29  2  0  0  0  0
 33 32  1  6  0  0  0
 33 34  1  0  0  0  0
 34 36  1  0  0  0  0
 35 34  2  0  0  0  0
M  END
>  <MODEL>
2

>  <REMARK>
 VINA RESULT:      -6.7      2.688      6.829
  Name = 
  9 active torsions:
  status: ('A' for Active; 'I' for Inactive)
    1  A    between atoms: C_5  and  C_18
    2  A    between atoms: C_6  and  C_26
    3  A    between atoms: O_7  and  C_14
    4  A    between atoms: O_7  and  C_29
    5  A    between atoms: C_8  and  C_23
    6  A    between atoms: C_9  and  C_31
    7  A    between atoms: C_18  and  C_35
    8  A    between atoms: C_23  and  C_29
    9  A    between atoms: C_31  and  C_32
                            x       y       z     vdW  Elec       q    Type
                         _______ _______ _______ _____ _____    ______ ____

>  <TORSDO>
F 9

$$$$
=
 OpenBabel11072408473D

 36 39  0  0  1  0  0  0  0  0999 V2000
  186.7390  177.6890  140.2880 C   0  0  0  0  0  3  0  0  0  0  0  0
  185.7140  177.5360  142.4710 C   0  0  0  0  0  0  0  0  0  0  0  0
  186.3940  176.3170  142.6770 C   0  0  0  0  0  0  0  0  0  0  0  0
  187.3850  176.5150  140.5090 N   0  0  0  0  0  0  0  0  0  0  0  0
  185.8940  178.2170  141.2650 C   0  0  0  0  0  3  0  0  0  0  0  0
  186.2450  175.6090  143.8260 F   0  0  0  0  0  0  0  0  0  0  0  0
  187.2380  175.8250  141.6700 C   0  0  0  0  0  0  0  0  0  0  0  0
  184.8580  178.1110  143.4190 O   0  0  0  0  0  0  0  0  0  0  0  0
  185.2970  178.8420  144.5560 C   0  0  0  0  0  2  0  0  0  0  0  0
  185.1110  178.0100  145.8130 C   0  0  0  0  0  2  0  0  0  0  0  0
  191.4570  176.1780  146.3590 C   0  0  0  0  0  0  0  0  0  0  0  0
  191.2460  176.8740  145.1940 C   0  0  0  0  0  0  0  0  0  0  0  0
  190.0650  177.7570  144.9720 C   0  0  0  0  0  2  0  0  0  0  0  0
  192.5490  176.6240  144.1770 S   0  0  0  0  0  0  0  0  0  0  0  0
  186.4260  177.5240  146.3180 C   0  0  0  0  0  0  0  0  0  0  0  0
  193.4080  175.6060  145.2190 C   0  0  0  0  0  3  0  0  0  0  0  0
  192.6620  175.4690  146.3920 C   0  0  0  0  0  3  0  0  0  0  0  0
  190.4880  176.2870  147.4900 C   0  0  0  0  0  2  0  0  0  0  0  0
  188.9410  177.3790  145.9080 C   0  0  0  0  0  0  0  0  0  0  0  0
  186.4800  176.9300  147.4270 O   0  0  0  0  0  0  0  0  0  0  0  0
  189.1640  176.7080  147.0090 N   0  0  0  0  0  0  0  0  0  0  0  0
  187.6100  177.7690  145.5490 N   0  0  0  0  0  2  0  0  0  0  0  0
  187.9520  174.5260  141.8490 C   0  0  0  0  0  2  0  0  0  0  0  0
  189.4220  174.6680  141.4750 C   0  0  1  0  0  3  0  0  0  0  0  0
  190.9610  173.3370  142.3570 C   0  0  0  0  0  0  0  0  0  0  0  0
  190.2570  174.3850  142.6350 N   0  0  0  0  0  0  0  0  0  0  0  0
  190.7210  172.8030  141.0640 N   0  0  0  0  0  0  0  0  0  0  0  0
  189.8240  173.5720  140.5460 C   0  0  0  0  0  0  0  0  0  0  0  0
  191.9230  172.7580  143.2980 C   0  0  0  0  0  0  0  0  0  0  0  0
  193.2090  172.4430  142.8770 O   0  0  0  0  0  0  0  0  0  0  0  0
  191.5880  172.5430  144.4920 O   0  0  0  0  0  1  0  0  0  0  0  0
  188.3640  172.3500  139.1290 O   0  0  0  0  0  1  0  0  0  0  0  0
  189.2880  173.3960  139.1620 C   0  0  2  0  0  3  0  0  0  0  0  0
  190.3940  173.1530  138.1860 C   0  0  0  0  0  0  0  0  0  0  0  0
  190.3310  172.0580  137.3350 O   0  0  0  0  0  0  0  0  0  0  0  0
  191.3610  173.9550  138.1020 O   0  0  0  0  0  1  0  0  0  0  0  0
  1  4  2  0  0  0  0
  1  5  1  0  0  0  0
  2  3  1  0  0  0  0
  2  8  1  0  0  0  0
  3  6  1  0  0  0  0
  4  7  1  0  0  0  0
  5  2  2  0  0  0  0
  7 23  1  0  0  0  0
  7  3  2  0  0  0  0
  8  9  1  0  0  0  0
  9 10  1  0  0  0  0
 10 15  1  0  0  0  0
 11 17  1  0  0  0  0
 11 18  1  0  0  0  0
 12 11  2  0  0  0  0
 13 12  1  0  0  0  0
 13 19  1  0  0  0  0
 14 12  1  0  0  0  0
 14 16  1  0  0  0  0
 15 20  2  0  0  0  0
 16 17  2  0  0  0  0
 19 21  2  0  0  0  0
 21 18  1  0  0  0  0
 22 19  1  0  0  0  0
 22 15  1  0  0  0  0
 24 23  1  1  0  0  0
 24 26  1  0  0  0  0
 25 26  2  0  0  0  0
 25 29  1  0  0  0  0
 27 25  1  0  0  0  0
 28 27  2  0  0  0  0
 28 24  1  0  0  0  0
 29 31  1  0  0  0  0
 30 29  2  0  0  0  0
 33 32  1  1  0  0  0
 33 28  1  0  0  0  0
 34 33  1  0  0  0  0
 35 34  2  0  0  0  0
 36 34  1  0  0  0  0
M  END
>  <MODEL>
3

>  <REMARK>
 VINA RESULT:      -6.6      2.745      6.912
  Name = 
  9 active torsions:
  status: ('A' for Active; 'I' for Inactive)
    1  A    between atoms: C_5  and  C_18
    2  A    between atoms: C_6  and  C_26
    3  A    between atoms: O_7  and  C_14
    4  A    between atoms: O_7  and  C_29
    5  A    between atoms: C_8  and  C_23
    6  A    between atoms: C_9  and  C_31
    7  A    between atoms: C_18  and  C_35
    8  A    between atoms: C_23  and  C_29
    9  A    between atoms: C_31  and  C_32
                            x       y       z     vdW  Elec       q    Type
                         _______ _______ _______ _____ _____    ______ ____

>  <TORSDO>
F 9

$$$$
=
 OpenBabel11072408473D

 36 39  0  0  1  0  0  0  0  0999 V2000
  192.5750  176.3860  143.2960 C   0  0  0  0  0  3  0  0  0  0  0  0
  191.9410  174.4870  144.6480 C   0  0  0  0  0  0  0  0  0  0  0  0
  190.9770  175.2960  145.2870 C   0  0  0  0  0  0  0  0  0  0  0  0
  191.6390  177.1450  143.9210 N   0  0  0  0  0  0  0  0  0  0  0  0
  192.7390  175.0470  143.6480 C   0  0  0  0  0  3  0  0  0  0  0  0
  190.1830  174.8060  146.2730 F   0  0  0  0  0  0  0  0  0  0  0  0
  190.8410  176.6370  144.8970 C   0  0  0  0  0  0  0  0  0  0  0  0
  192.1440  173.1370  144.9630 O   0  0  0  0  0  0  0  0  0  0  0  0
  191.7140  172.0520  144.1520 C   0  0  0  0  0  2  0  0  0  0  0  0
  190.2000  171.9490  144.1790 C   0  0  0  0  0  2  0  0  0  0  0  0
  189.3780  173.6010  137.8140 C   0  0  0  0  0  0  0  0  0  0  0  0
  190.7110  173.4830  138.1220 C   0  0  0  0  0  0  0  0  0  0  0  0
  191.2120  172.7420  139.3150 C   0  0  0  0  0  2  0  0  0  0  0  0
  191.6070  174.2070  136.9100 S   0  0  0  0  0  0  0  0  0  0  0  0
  189.6320  172.2140  142.8280 C   0  0  0  0  0  0  0  0  0  0  0  0
  190.2900  174.6950  135.9690 C   0  0  0  0  0  3  0  0  0  0  0  0
  189.1240  174.2700  136.6120 C   0  0  0  0  0  3  0  0  0  0  0  0
  188.3430  172.9670  138.6840 C   0  0  0  0  0  2  0  0  0  0  0  0
  190.1230  172.6250  140.3570 C   0  0  0  0  0  0  0  0  0  0  0  0
  188.3820  172.2590  142.6810 O   0  0  0  0  0  0  0  0  0  0  0  0
  188.8590  172.7490  140.0420 N   0  0  0  0  0  0  0  0  0  0  0  0
  190.5170  172.3800  141.7130 N   0  0  0  0  0  2  0  0  0  0  0  0
  189.8470  177.5240  145.5700 C   0  0  0  0  0  2  0  0  0  0  0  0
  188.4380  176.9710  145.4060 C   0  0  1  0  0  3  0  0  0  0  0  0
  186.6700  178.1180  146.0950 C   0  0  0  0  0  0  0  0  0  0  0  0
  187.6160  177.3620  146.5440 N   0  0  0  0  0  0  0  0  0  0  0  0
  186.7120  178.3300  144.6910 N   0  0  0  0  0  0  0  0  0  0  0  0
  187.7410  177.6660  144.2850 C   0  0  0  0  0  0  0  0  0  0  0  0
  185.6440  178.7020  146.9630 C   0  0  0  0  0  0  0  0  0  0  0  0
  185.9770  179.7080  147.8600 O   0  0  0  0  0  1  0  0  0  0  0  0
  184.4550  178.2930  146.8980 O   0  0  0  0  0  0  0  0  0  0  0  0
  187.2970  178.3480  142.0550 O   0  0  0  0  0  1  0  0  0  0  0  0
  188.1510  177.5810  142.8500 C   0  0  2  0  0  3  0  0  0  0  0  0
  188.1720  176.1620  142.3810 C   0  0  0  0  0  0  0  0  0  0  0  0
  187.0020  175.4150  142.3960 O   0  0  0  0  0  1  0  0  0  0  0  0
  189.2330  175.6510  141.9330 O   0  0  0  0  0  0  0  0  0  0  0  0
  1  5  2  0  0  0  0
  1  4  1  0  0  0  0
  2  8  1  0  0  0  0
  2  3  2  0  0  0  0
  3  6  1  0  0  0  0
  4  7  2  0  0  0  0
  5  2  1  0  0  0  0
  7  3  1  0  0  0  0
  7 23  1  0  0  0  0
  9 10  1  0  0  0  0
  9  8  1  0  0  0  0
 11 12  2  0  0  0  0
 11 18  1  0  0  0  0
 12 13  1  0  0  0  0
 13 19  1  0  0  0  0
 14 12  1  0  0  0  0
 15 10  1  0  0  0  0
 16 17  2  0  0  0  0
 16 14  1  0  0  0  0
 17 11  1  0  0  0  0
 18 21  1  0  0  0  0
 19 22  1  0  0  0  0
 20 15  2  0  0  0  0
 21 19  2  0  0  0  0
 22 15  1  0  0  0  0
 24 23  1  1  0  0  0
 24 26  1  0  0  0  0
 25 26  2  0  0  0  0
 25 29  1  0  0  0  0
 27 25  1  0  0  0  0
 28 27  2  0  0  0  0
 28 24  1  0  0  0  0
 29 30  1  0  0  0  0
 31 29  2  0  0  0  0
 33 32  1  6  0  0  0
 33 28  1  0  0  0  0
 34 35  1  0  0  0  0
 34 33  1  0  0  0  0
 36 34  2  0  0  0  0
M  END
>  <MODEL>
4

>  <REMARK>
 VINA RESULT:      -6.5      2.719      4.109
  Name = 
  9 active torsions:
  status: ('A' for Active; 'I' for Inactive)
    1  A    between atoms: C_5  and  C_18
    2  A    between atoms: C_6  and  C_26
    3  A    between atoms: O_7  and  C_14
    4  A    between atoms: O_7  and  C_29
    5  A    between atoms: C_8  and  C_23
    6  A    between atoms: C_9  and  C_31
    7  A    between atoms: C_18  and  C_35
    8  A    between atoms: C_23  and  C_29
    9  A    between atoms: C_31  and  C_32
                            x       y       z     vdW  Elec       q    Type
                         _______ _______ _______ _____ _____    ______ ____

>  <TORSDO>
F 9

$$$$
=
 OpenBabel11072408473D

 36 39  0  0  1  0  0  0  0  0999 V2000
  191.2570  172.0940  144.1340 C   0  0  0  0  0  3  0  0  0  0  0  0
  192.6560  174.0640  144.1180 C   0  0  0  0  0  0  0  0  0  0  0  0
  192.1040  174.4150  142.8680 C   0  0  0  0  0  0  0  0  0  0  0  0
  190.7370  172.4520  142.9320 N   0  0  0  0  0  0  0  0  0  0  0  0
  192.2220  172.8930  144.7450 C   0  0  0  0  0  3  0  0  0  0  0  0
  192.4980  175.5350  142.2100 F   0  0  0  0  0  0  0  0  0  0  0  0
  191.1310  173.5850  142.2910 C   0  0  0  0  0  0  0  0  0  0  0  0
  193.6250  174.8320  144.7760 O   0  0  0  0  0  0  0  0  0  0  0  0
  193.6180  175.1090  146.1710 C   0  0  0  0  0  2  0  0  0  0  0  0
  193.0250  176.4840  146.4260 C   0  0  0  0  0  2  0  0  0  0  0  0
  186.4500  177.3110  146.3180 C   0  0  0  0  0  0  0  0  0  0  0  0
  187.0370  177.9060  145.2290 C   0  0  0  0  0  0  0  0  0  0  0  0
  188.4060  177.5620  144.7480 C   0  0  0  0  0  2  0  0  0  0  0  0
  185.9370  178.9580  144.5360 S   0  0  0  0  0  0  0  0  0  0  0  0
  191.5620  176.3830  146.6870 C   0  0  0  0  0  0  0  0  0  0  0  0
  184.6850  178.6700  145.6340 C   0  0  0  0  0  3  0  0  0  0  0  0
  185.1340  177.7210  146.5560 C   0  0  0  0  0  3  0  0  0  0  0  0
  187.1770  176.2550  147.0850 C   0  0  0  0  0  2  0  0  0  0  0  0
  189.2090  176.9250  145.8570 C   0  0  0  0  0  0  0  0  0  0  0  0
  191.1590  175.7720  147.7120 O   0  0  0  0  0  0  0  0  0  0  0  0
  188.6290  176.3700  146.8910 N   0  0  0  0  0  0  0  0  0  0  0  0
  190.6380  176.9540  145.7520 N   0  0  0  0  0  2  0  0  0  0  0  0
  190.5460  173.9170  140.9590 C   0  0  0  0  0  2  0  0  0  0  0  0
  189.0250  173.9500  141.0350 C   0  0  1  0  0  3  0  0  0  0  0  0
  187.9120  175.8620  140.8840 C   0  0  0  0  0  0  0  0  0  0  0  0
  188.5900  175.1560  141.7270 N   0  0  0  0  0  0  0  0  0  0  0  0
  187.7990  175.2760  139.5950 N   0  0  0  0  0  0  0  0  0  0  0  0
  188.4470  174.1640  139.6760 C   0  0  0  0  0  0  0  0  0  0  0  0
  187.3120  177.1520  141.2330 C   0  0  0  0  0  0  0  0  0  0  0  0
  185.9360  177.2650  141.3800 O   0  0  0  0  0  0  0  0  0  0  0  0
  188.0420  178.1630  141.4020 O   0  0  0  0  0  1  0  0  0  0  0  0
  189.0170  171.9590  139.0090 O   0  0  0  0  0  1  0  0  0  0  0  0
  188.5640  173.1950  138.5440 C   0  0  2  0  0  3  0  0  0  0  0  0
  189.4700  173.7210  137.4790 C   0  0  0  0  0  0  0  0  0  0  0  0
  188.9410  174.4480  136.4220 O   0  0  0  0  0  0  0  0  0  0  0  0
  190.7160  173.5440  137.5530 O   0  0  0  0  0  1  0  0  0  0  0  0
  1  5  1  0  0  0  0
  2  5  2  0  0  0  0
  2  8  1  0  0  0  0
  3  2  1  0  0  0  0
  4  1  2  0  0  0  0
  6  3  1  0  0  0  0
  7  3  2  0  0  0  0
  7  4  1  0  0  0  0
  8  9  1  0  0  0  0
  9 10  1  0  0  0  0
 10 15  1  0  0  0  0
 11 17  1  0  0  0  0
 11 18  1  0  0  0  0
 12 11  2  0  0  0  0
 13 12  1  0  0  0  0
 13 19  1  0  0  0  0
 14 12  1  0  0  0  0
 14 16  1  0  0  0  0
 15 20  2  0  0  0  0
 16 17  2  0  0  0  0
 19 21  2  0  0  0  0
 21 18  1  0  0  0  0
 22 19  1  0  0  0  0
 22 15  1  0  0  0  0
 23  7  1  0  0  0  0
 24 23  1  6  0  0  0
 24 26  1  0  0  0  0
 25 29  1  0  0  0  0
 25 26  2  0  0  0  0
 27 28  2  0  0  0  0
 27 25  1  0  0  0  0
 28 24  1  0  0  0  0
 29 30  2  0  0  0  0
 29 31  1  0  0  0  0
 33 32  1  1  0  0  0
 33 28  1  0  0  0  0
 34 36  1  0  0  0  0
 34 33  1  0  0  0  0
 35 34  2  0  0  0  0
M  END
>  <MODEL>
5

>  <REMARK>
 VINA RESULT:      -6.4      2.975      5.847
  Name = 
  9 active torsions:
  status: ('A' for Active; 'I' for Inactive)
    1  A    between atoms: C_5  and  C_18
    2  A    between atoms: C_6  and  C_26
    3  A    between atoms: O_7  and  C_14
    4  A    between atoms: O_7  and  C_29
    5  A    between atoms: C_8  and  C_23
    6  A    between atoms: C_9  and  C_31
    7  A    between atoms: C_18  and  C_35
    8  A    between atoms: C_23  and  C_29
    9  A    between atoms: C_31  and  C_32
                            x       y       z     vdW  Elec       q    Type
                         _______ _______ _______ _____ _____    ______ ____

>  <TORSDO>
F 9

$$$$
=
 OpenBabel11072408473D

 36 39  0  0  1  0  0  0  0  0999 V2000
  188.9830  175.0510  147.2610 C   0  0  0  0  0  3  0  0  0  0  0  0
  191.0640  176.1990  146.8250 C   0  0  0  0  0  0  0  0  0  0  0  0
  190.4330  176.8880  145.7670 C   0  0  0  0  0  0  0  0  0  0  0  0
  188.3950  175.7270  146.2400 N   0  0  0  0  0  0  0  0  0  0  0  0
  190.3240  175.2770  147.5700 C   0  0  0  0  0  3  0  0  0  0  0  0
  191.1090  177.7850  145.0050 F   0  0  0  0  0  0  0  0  0  0  0  0
  189.0810  176.6340  145.4950 C   0  0  0  0  0  0  0  0  0  0  0  0
  192.4060  176.3910  147.1780 O   0  0  0  0  0  0  0  0  0  0  0  0
  193.5030  175.7660  146.5250 C   0  0  0  0  0  2  0  0  0  0  0  0
  194.4830  176.8160  146.0320 C   0  0  0  0  0  2  0  0  0  0  0  0
  194.6890  174.6380  139.7760 C   0  0  0  0  0  0  0  0  0  0  0  0
  193.4630  174.3880  140.3420 C   0  0  0  0  0  0  0  0  0  0  0  0
  192.9630  175.0980  141.5550 C   0  0  0  0  0  2  0  0  0  0  0  0
  192.6560  173.2680  139.3990 S   0  0  0  0  0  0  0  0  0  0  0  0
  194.8650  176.5530  144.6170 C   0  0  0  0  0  0  0  0  0  0  0  0
  193.8780  173.0790  138.2450 C   0  0  0  0  0  3  0  0  0  0  0  0
  194.9350  173.9200  138.6010 C   0  0  0  0  0  3  0  0  0  0  0  0
  195.5960  175.6690  140.3640 C   0  0  0  0  0  2  0  0  0  0  0  0
  194.1160  175.6810  142.3370 C   0  0  0  0  0  0  0  0  0  0  0  0
  196.0170  176.8690  144.2190 O   0  0  0  0  0  0  0  0  0  0  0  0
  195.2790  175.9030  141.7800 N   0  0  0  0  0  0  0  0  0  0  0  0
  193.9040  175.9770  143.7240 N   0  0  0  0  0  2  0  0  0  0  0  0
  188.3920  177.3280  144.3670 C   0  0  0  0  0  2  0  0  0  0  0  0
  187.1720  176.5360  143.9150 C   0  0  1  0  0  3  0  0  0  0  0  0
  185.3530  177.5620  143.1700 C   0  0  0  0  0  0  0  0  0  0  0  0
  185.9560  177.2550  144.2710 N   0  0  0  0  0  0  0  0  0  0  0  0
  186.0260  177.1240  141.9980 N   0  0  0  0  0  0  0  0  0  0  0  0
  187.0870  176.5280  142.4260 C   0  0  0  0  0  0  0  0  0  0  0  0
  184.0840  178.2940  143.1390 C   0  0  0  0  0  0  0  0  0  0  0  0
  183.6880  179.0510  144.2340 O   0  0  0  0  0  1  0  0  0  0  0  0
  183.3480  178.2400  142.1200 O   0  0  0  0  0  0  0  0  0  0  0  0
  187.6220  175.8780  140.2070 O   0  0  0  0  0  1  0  0  0  0  0  0
  188.0860  175.8770  141.5240 C   0  0  2  0  0  3  0  0  0  0  0  0
  188.3870  174.4850  141.9740 C   0  0  0  0  0  0  0  0  0  0  0  0
  189.6680  174.1610  142.3990 O   0  0  0  0  0  1  0  0  0  0  0  0
  187.4790  173.6120  142.0080 O   0  0  0  0  0  0  0  0  0  0  0  0
  1  5  1  0  0  0  0
  2  8  1  0  0  0  0
  2  5  2  0  0  0  0
  3  2  1  0  0  0  0
  4  1  2  0  0  0  0
  6  3  1  0  0  0  0
  7  3  2  0  0  0  0
  7  4  1  0  0  0  0
  9  8  1  0  0  0  0
 10  9  1  0  0  0  0
 11 12  2  0  0  0  0
 11 18  1  0  0  0  0
 12 13  1  0  0  0  0
 13 19  1  0  0  0  0
 14 12  1  0  0  0  0
 15 10  1  0  0  0  0
 16 17  2  0  0  0  0
 16 14  1  0  0  0  0
 17 11  1  0  0  0  0
 18 21  1  0  0  0  0
 19 22  1  0  0  0  0
 20 15  2  0  0  0  0
 21 19  2  0  0  0  0
 22 15  1  0  0  0  0
 23  7  1  0  0  0  0
 24 26  1  0  0  0  0
 24 23  1  6  0  0  0
 25 26  2  0  0  0  0
 27 28  2  0  0  0  0
 27 25  1  0  0  0  0
 28 24  1  0  0  0  0
 29 25  1  0  0  0  0
 29 30  1  0  0  0  0
 31 29  2  0  0  0  0
 33 32  1  6  0  0  0
 33 34  1  0  0  0  0
 33 28  1  0  0  0  0
 34 36  2  0  0  0  0
 34 35  1  0  0  0  0
M  END
>  <MODEL>
6

>  <REMARK>
 VINA RESULT:      -6.4      2.062      2.454
  Name = 
  9 active torsions:
  status: ('A' for Active; 'I' for Inactive)
    1  A    between atoms: C_5  and  C_18
    2  A    between atoms: C_6  and  C_26
    3  A    between atoms: O_7  and  C_14
    4  A    between atoms: O_7  and  C_29
    5  A    between atoms: C_8  and  C_23
    6  A    between atoms: C_9  and  C_31
    7  A    between atoms: C_18  and  C_35
    8  A    between atoms: C_23  and  C_29
    9  A    between atoms: C_31  and  C_32
                            x       y       z     vdW  Elec       q    Type
                         _______ _______ _______ _____ _____    ______ ____

>  <TORSDO>
F 9

$$$$
=
 OpenBabel11072408473D

 36 39  0  0  1  0  0  0  0  0999 V2000
  190.0780  175.0670  147.5390 C   0  0  0  0  0  3  0  0  0  0  0  0
  191.9240  176.3320  146.6280 C   0  0  0  0  0  0  0  0  0  0  0  0
  191.0390  176.8950  145.6840 C   0  0  0  0  0  0  0  0  0  0  0  0
  189.2440  175.6230  146.6230 N   0  0  0  0  0  0  0  0  0  0  0  0
  191.4290  175.4130  147.5560 C   0  0  0  0  0  3  0  0  0  0  0  0
  191.4700  177.7840  144.7530 F   0  0  0  0  0  0  0  0  0  0  0  0
  189.6870  176.5230  145.7060 C   0  0  0  0  0  0  0  0  0  0  0  0
  193.2870  176.6470  146.6900 O   0  0  0  0  0  0  0  0  0  0  0  0
  194.3160  175.8790  146.0790 C   0  0  0  0  0  2  0  0  0  0  0  0
  194.9400  176.6590  144.9360 C   0  0  0  0  0  2  0  0  0  0  0  0
  191.9900  173.1690  140.1360 C   0  0  0  0  0  0  0  0  0  0  0  0
  191.2700  173.1030  141.3040 C   0  0  0  0  0  0  0  0  0  0  0  0
  191.4300  174.0810  142.4190 C   0  0  0  0  0  2  0  0  0  0  0  0
  190.1770  171.8430  141.1890 S   0  0  0  0  0  0  0  0  0  0  0  0
  194.5390  176.0790  143.6240 C   0  0  0  0  0  0  0  0  0  0  0  0
  190.6190  171.3540  139.6320 C   0  0  0  0  0  3  0  0  0  0  0  0
  191.6350  172.2030  139.1890 C   0  0  0  0  0  3  0  0  0  0  0  0
  192.9870  174.2610  139.9250 C   0  0  0  0  0  2  0  0  0  0  0  0
  192.7730  174.7670  142.3290 C   0  0  0  0  0  0  0  0  0  0  0  0
  195.2800  176.2490  142.6210 O   0  0  0  0  0  0  0  0  0  0  0  0
  193.4460  174.8110  141.2080 N   0  0  0  0  0  0  0  0  0  0  0  0
  193.3000  175.3660  143.5200 N   0  0  0  0  0  2  0  0  0  0  0  0
  188.7310  177.0830  144.7050 C   0  0  0  0  0  2  0  0  0  0  0  0
  187.3640  176.4260  144.8440 C   0  0  1  0  0  3  0  0  0  0  0  0
  185.5660  177.6200  145.3520 C   0  0  0  0  0  0  0  0  0  0  0  0
  186.6050  177.0820  145.9010 N   0  0  0  0  0  0  0  0  0  0  0  0
  185.4810  177.4190  143.9490 N   0  0  0  0  0  0  0  0  0  0  0  0
  186.5260  176.7260  143.6470 C   0  0  0  0  0  0  0  0  0  0  0  0
  184.5660  178.3700  146.1170 C   0  0  0  0  0  0  0  0  0  0  0  0
  183.5010  178.9780  145.4660 O   0  0  0  0  0  0  0  0  0  0  0  0
  184.6690  178.4650  147.3680 O   0  0  0  0  0  1  0  0  0  0  0  0
  187.8940  175.3530  142.2780 O   0  0  0  0  0  1  0  0  0  0  0  0
  186.8280  176.2540  142.2610 C   0  0  2  0  0  3  0  0  0  0  0  0
  187.1260  177.4050  141.3550 C   0  0  0  0  0  0  0  0  0  0  0  0
  186.1670  177.8330  140.4490 O   0  0  0  0  0  0  0  0  0  0  0  0
  188.2270  178.0140  141.4360 O   0  0  0  0  0  1  0  0  0  0  0  0
  1  5  1  0  0  0  0
  2  8  1  0  0  0  0
  2  5  2  0  0  0  0
  3  7  2  0  0  0  0
  3  2  1  0  0  0  0
  4  1  2  0  0  0  0
  6  3  1  0  0  0  0
  7  4  1  0  0  0  0
  9  8  1  0  0  0  0
 10  9  1  0  0  0  0
 11 12  2  0  0  0  0
 12 13  1  0  0  0  0
 14 12  1  0  0  0  0
 15 10  1  0  0  0  0
 16 14  1  0  0  0  0
 17 16  2  0  0  0  0
 17 11  1  0  0  0  0
 18 11  1  0  0  0  0
 18 21  1  0  0  0  0
 19 13  1  0  0  0  0
 19 22  1  0  0  0  0
 20 15  2  0  0  0  0
 21 19  2  0  0  0  0
 22 15  1  0  0  0  0
 23  7  1  0  0  0  0
 24 23  1  6  0  0  0
 24 26  1  0  0  0  0
 25 26  2  0  0  0  0
 25 29  1  0  0  0  0
 27 25  1  0  0  0  0
 28 27  2  0  0  0  0
 28 24  1  0  0  0  0
 29 31  1  0  0  0  0
 30 29  2  0  0  0  0
 33 32  1  1  0  0  0
 33 28  1  0  0  0  0
 34 36  1  0  0  0  0
 34 33  1  0  0  0  0
 35 34  2  0  0  0  0
M  END
>  <MODEL>
7

>  <REMARK>
 VINA RESULT:      -6.4      1.685      2.174
  Name = 
  9 active torsions:
  status: ('A' for Active; 'I' for Inactive)
    1  A    between atoms: C_5  and  C_18
    2  A    between atoms: C_6  and  C_26
    3  A    between atoms: O_7  and  C_14
    4  A    between atoms: O_7  and  C_29
    5  A    between atoms: C_8  and  C_23
    6  A    between atoms: C_9  and  C_31
    7  A    between atoms: C_18  and  C_35
    8  A    between atoms: C_23  and  C_29
    9  A    between atoms: C_31  and  C_32
                            x       y       z     vdW  Elec       q    Type
                         _______ _______ _______ _____ _____    ______ ____

>  <TORSDO>
F 9

$$$$
=
 OpenBabel11072408473D

 36 39  0  0  1  0  0  0  0  0999 V2000
  183.8530  178.8200  143.2310 C   0  0  0  0  0  3  0  0  0  0  0  0
  184.6100  177.9620  141.1030 C   0  0  0  0  0  0  0  0  0  0  0  0
  183.2670  177.9160  140.6720 C   0  0  0  0  0  0  0  0  0  0  0  0
  182.5680  178.7700  142.7950 N   0  0  0  0  0  0  0  0  0  0  0  0
  184.8930  178.4170  142.3930 C   0  0  0  0  0  3  0  0  0  0  0  0
  182.9360  177.4700  139.4340 F   0  0  0  0  0  0  0  0  0  0  0  0
  182.2530  178.3350  141.5460 C   0  0  0  0  0  0  0  0  0  0  0  0
  185.6910  177.5720  140.3010 O   0  0  0  0  0  0  0  0  0  0  0  0
  187.0390  177.5090  140.7480 C   0  0  0  0  0  2  0  0  0  0  0  0
  187.5940  176.1120  140.5340 C   0  0  0  0  0  2  0  0  0  0  0  0
  190.2710  175.5790  146.5740 C   0  0  0  0  0  0  0  0  0  0  0  0
  189.6370  176.7880  146.4230 C   0  0  0  0  0  0  0  0  0  0  0  0
  188.6120  177.0480  145.3710 C   0  0  0  0  0  2  0  0  0  0  0  0
  190.1430  177.8130  147.6430 S   0  0  0  0  0  0  0  0  0  0  0  0
  188.2260  175.6030  141.7840 C   0  0  0  0  0  0  0  0  0  0  0  0
  191.1970  176.7180  148.3840 C   0  0  0  0  0  3  0  0  0  0  0  0
  191.1410  175.5200  147.6670 C   0  0  0  0  0  3  0  0  0  0  0  0
  189.9440  174.4370  145.6680 C   0  0  0  0  0  2  0  0  0  0  0  0
  188.7580  176.0600  144.2380 C   0  0  0  0  0  0  0  0  0  0  0  0
  188.7400  174.4530  141.7910 O   0  0  0  0  0  0  0  0  0  0  0  0
  189.3730  174.9170  144.4020 N   0  0  0  0  0  0  0  0  0  0  0  0
  188.2080  176.4160  142.9630 N   0  0  0  0  0  2  0  0  0  0  0  0
  180.8210  178.2760  141.1280 C   0  0  0  0  0  2  0  0  0  0  0  0
  180.1150  179.5860  141.4500 C   0  0  1  0  0  3  0  0  0  0  0  0
  179.1540  180.7900  139.8550 C   0  0  0  0  0  0  0  0  0  0  0  0
  180.3140  180.5360  140.3620 N   0  0  0  0  0  0  0  0  0  0  0  0
  178.0820  180.1010  140.4810 N   0  0  0  0  0  0  0  0  0  0  0  0
  178.6360  179.3960  141.4100 C   0  0  0  0  0  0  0  0  0  0  0  0
  178.9650  181.7130  138.7320 C   0  0  0  0  0  0  0  0  0  0  0  0
  179.5500  182.9720  138.7570 O   0  0  0  0  0  1  0  0  0  0  0  0
  178.2720  181.3670  137.7400 O   0  0  0  0  0  0  0  0  0  0  0  0
  178.4400  178.5680  143.6250 O   0  0  0  0  0  1  0  0  0  0  0  0
  177.8680  178.5270  142.3520 C   0  0  2  0  0  3  0  0  0  0  0  0
  177.8020  177.1200  141.8510 C   0  0  0  0  0  0  0  0  0  0  0  0
  177.8160  176.0670  142.7540 O   0  0  0  0  0  1  0  0  0  0  0  0
  177.6930  176.8840  140.6180 O   0  0  0  0  0  0  0  0  0  0  0  0
  2  5  1  0  0  0  0
  3  2  2  0  0  0  0
  3  7  1  0  0  0  0
  4  1  1  0  0  0  0
  5  1  2  0  0  0  0
  6  3  1  0  0  0  0
  7  4  2  0  0  0  0
  8  9  1  0  0  0  0
  8  2  1  0  0  0  0
 10  9  1  0  0  0  0
 10 15  1  0  0  0  0
 11 17  1  0  0  0  0
 12 11  2  0  0  0  0
 12 14  1  0  0  0  0
 13 12  1  0  0  0  0
 14 16  1  0  0  0  0
 15 20  2  0  0  0  0
 15 22  1  0  0  0  0
 17 16  2  0  0  0  0
 18 11  1  0  0  0  0
 19 21  2  0  0  0  0
 19 13  1  0  0  0  0
 21 18  1  0  0  0  0
 22 19  1  0  0  0  0
 23  7  1  0  0  0  0
 24 23  1  6  0  0  0
 25 26  2  0  0  0  0
 25 27  1  0  0  0  0
 26 24  1  0  0  0  0
 27 28  2  0  0  0  0
 28 24  1  0  0  0  0
 28 33  1  0  0  0  0
 29 30  1  0  0  0  0
 29 25  1  0  0  0  0
 31 29  2  0  0  0  0
 33 32  1  1  0  0  0
 34 33  1  0  0  0  0
 34 35  1  0  0  0  0
 36 34  2  0  0  0  0
M  END
>  <MODEL>
8

>  <REMARK>
 VINA RESULT:      -6.3      4.735      8.138
  Name = 
  9 active torsions:
  status: ('A' for Active; 'I' for Inactive)
    1  A    between atoms: C_5  and  C_18
    2  A    between atoms: C_6  and  C_26
    3  A    between atoms: O_7  and  C_14
    4  A    between atoms: O_7  and  C_29
    5  A    between atoms: C_8  and  C_23
    6  A    between atoms: C_9  and  C_31
    7  A    between atoms: C_18  and  C_35
    8  A    between atoms: C_23  and  C_29
    9  A    between atoms: C_31  and  C_32
                            x       y       z     vdW  Elec       q    Type
                         _______ _______ _______ _____ _____    ______ ____

>  <TORSDO>
F 9

$$$$
=
 OpenBabel11072408473D

 36 39  0  0  1  0  0  0  0  0999 V2000
  188.8160  175.4620  146.8920 C   0  0  0  0  0  3  0  0  0  0  0  0
  188.4140  177.3010  145.3770 C   0  0  0  0  0  0  0  0  0  0  0  0
  189.7870  177.2990  145.0510 C   0  0  0  0  0  0  0  0  0  0  0  0
  190.1330  175.4760  146.5610 N   0  0  0  0  0  0  0  0  0  0  0  0
  187.9370  176.3730  146.3060 C   0  0  0  0  0  3  0  0  0  0  0  0
  190.3040  178.1880  144.1640 F   0  0  0  0  0  0  0  0  0  0  0  0
  190.6340  176.3620  145.6600 C   0  0  0  0  0  0  0  0  0  0  0  0
  187.4900  178.1920  144.8160 O   0  0  0  0  0  0  0  0  0  0  0  0
  186.6290  177.8740  143.7300 C   0  0  0  0  0  2  0  0  0  0  0  0
  187.2810  178.2670  142.4160 C   0  0  0  0  0  2  0  0  0  0  0  0
  189.7640  172.8330  139.5460 C   0  0  0  0  0  0  0  0  0  0  0  0
  190.4470  173.1350  140.6980 C   0  0  0  0  0  0  0  0  0  0  0  0
  189.8990  174.0200  141.7660 C   0  0  0  0  0  2  0  0  0  0  0  0
  191.8870  172.2850  140.7060 S   0  0  0  0  0  0  0  0  0  0  0  0
  187.4950  177.0680  141.5590 C   0  0  0  0  0  0  0  0  0  0  0  0
  191.6580  171.5170  139.2170 C   0  0  0  0  0  3  0  0  0  0  0  0
  190.4220  171.9260  138.7100 C   0  0  0  0  0  3  0  0  0  0  0  0
  188.3970  173.3880  139.3120 C   0  0  0  0  0  2  0  0  0  0  0  0
  188.8150  174.9120  141.2060 C   0  0  0  0  0  0  0  0  0  0  0  0
  186.7660  176.8950  140.5460 O   0  0  0  0  0  0  0  0  0  0  0  0
  188.1820  174.6090  140.1020 N   0  0  0  0  0  0  0  0  0  0  0  0
  188.5030  176.1150  141.9190 N   0  0  0  0  0  2  0  0  0  0  0  0
  192.0950  176.3510  145.3540 C   0  0  0  0  0  2  0  0  0  0  0  0
  192.3690  175.5540  144.0850 C   0  0  1  0  0  3  0  0  0  0  0  0
  194.2290  175.8650  142.9170 C   0  0  0  0  0  0  0  0  0  0  0  0
  193.0650  176.3900  143.1160 N   0  0  0  0  0  0  0  0  0  0  0  0
  194.4680  174.6840  143.6680 N   0  0  0  0  0  0  0  0  0  0  0  0
  193.3900  174.4990  144.3520 C   0  0  0  0  0  0  0  0  0  0  0  0
  195.2100  176.4410  141.9940 C   0  0  0  0  0  0  0  0  0  0  0  0
  196.4750  176.7890  142.4490 O   0  0  0  0  0  1  0  0  0  0  0  0
  194.9110  176.6210  140.7850 O   0  0  0  0  0  0  0  0  0  0  0  0
  194.4090  172.9170  145.7980 O   0  0  0  0  0  1  0  0  0  0  0  0
  193.1870  173.3370  145.2700 C   0  0  2  0  0  3  0  0  0  0  0  0
  192.5040  172.2090  144.5660 C   0  0  0  0  0  0  0  0  0  0  0  0
  193.2550  171.1580  144.0600 O   0  0  0  0  0  0  0  0  0  0  0  0
  191.2480  172.1850  144.4630 O   0  0  0  0  0  1  0  0  0  0  0  0
  2  5  1  0  0  0  0
  3  2  2  0  0  0  0
  3  7  1  0  0  0  0
  4  1  1  0  0  0  0
  5  1  2  0  0  0  0
  6  3  1  0  0  0  0
  7  4  2  0  0  0  0
  8  2  1  0  0  0  0
  9  8  1  0  0  0  0
 10  9  1  0  0  0  0
 11 12  2  0  0  0  0
 12 14  1  0  0  0  0
 12 13  1  0  0  0  0
 15 22  1  0  0  0  0
 15 10  1  0  0  0  0
 16 14  1  0  0  0  0
 17 16  2  0  0  0  0
 17 11  1  0  0  0  0
 18 11  1  0  0  0  0
 18 21  1  0  0  0  0
 19 13  1  0  0  0  0
 19 22  1  0  0  0  0
 20 15  2  0  0  0  0
 21 19  2  0  0  0  0
 23  7  1  0  0  0  0
 24 28  1  0  0  0  0
 24 23  1  1  0  0  0
 25 26  2  0  0  0  0
 25 27  1  0  0  0  0
 26 24  1  0  0  0  0
 27 28  2  0  0  0  0
 28 33  1  0  0  0  0
 29 30  1  0  0  0  0
 29 25  1  0  0  0  0
 31 29  2  0  0  0  0
 33 32  1  6  0  0  0
 34 33  1  0  0  0  0
 35 34  2  0  0  0  0
 36 34  1  0  0  0  0
M  END
>  <MODEL>
9

>  <REMARK>
 VINA RESULT:      -6.3      2.386      5.915
  Name = 
  9 active torsions:
  status: ('A' for Active; 'I' for Inactive)
    1  A    between atoms: C_5  and  C_18
    2  A    between atoms: C_6  and  C_26
    3  A    between atoms: O_7  and  C_14
    4  A    between atoms: O_7  and  C_29
    5  A    between atoms: C_8  and  C_23
    6  A    between atoms: C_9  and  C_31
    7  A    between atoms: C_18  and  C_35
    8  A    between atoms: C_23  and  C_29
    9  A    between atoms: C_31  and  C_32
                            x       y       z     vdW  Elec       q    Type
                         _______ _______ _______ _____ _____    ______ ____

>  <TORSDO>
F 9

$$$$
