=
 OpenBabel11062420173D

 25 30  0  0  1  0  0  0  0  0999 V2000
  184.0640  179.1930  144.2500 O   0  0  0  0  0  0  0  0  0  0  0  0
  185.2280  178.7500  144.0610 C   0  0  0  0  0  0  0  0  0  0  0  0
  190.9930  176.5650  144.7610 C   0  0  1  0  0  0  0  0  0  0  0  0
  186.6030  177.4860  145.6440 C   0  0  2  0  0  0  0  0  0  0  0  0
  185.2750  178.5400  147.2720 C   0  0  0  0  0  2  0  0  0  0  0  0
  191.3560  175.2420  144.0340 C   0  0  2  0  0  3  0  0  0  0  0  0
  187.0800  176.4020  144.6950 C   0  0  1  0  0  3  0  0  0  0  0  0
  187.5540  176.8640  143.3330 C   0  0  0  0  0  0  0  0  0  0  0  0
  191.5630  177.7640  142.7360 O   0  0  0  0  0  1  0  0  0  0  0  0
  185.7280  179.5590  146.3120 N   0  0  0  0  0  2  0  0  0  0  0  0
  189.0080  176.7140  143.0490 C   0  0  2  0  0  3  0  0  0  0  0  0
  191.1250  177.9180  144.0550 C   0  0  1  0  0  3  0  0  0  0  0  0
  185.5370  178.1330  142.8060 N   0  0  0  0  0  2  0  0  0  0  0  0
  189.3740  175.2460  142.8620 C   0  0  0  0  0  2  0  0  0  0  0  0
  186.8190  177.5870  142.4830 C   0  0  0  0  0  3  0  0  0  0  0  0
  189.7460  177.2840  144.2750 C   0  0  2  0  0  0  0  0  0  0  0  0
  191.2100  176.6390  146.1400 O   0  0  0  0  0  1  0  0  0  0  0  0
  186.2760  178.8650  145.1470 C   0  0  2  0  0  3  0  0  0  0  0  0
  188.0380  176.9940  145.7720 C   0  0  1  0  0  3  0  0  0  0  0  0
  190.7720  175.1160  142.7490 O   0  0  0  0  0  0  0  0  0  0  0  0
  188.9690  177.9350  145.2600 O   0  0  0  0  0  0  0  0  0  0  0  0
  184.6860  176.3750  146.4790 O   0  0  0  0  0  1  0  0  0  0  0  0
  185.7760  177.1660  146.8470 C   0  0  1  0  0  3  0  0  0  0  0  0
  191.0990  174.0000  144.8850 C   0  0  0  0  0  2  0  0  0  0  0  0
  192.2490  173.2140  144.9470 O   0  0  0  0  0  1  0  0  0  0  0  0
  2  1  2  0  0  0  0
  2 18  1  0  0  0  0
  3 17  1  1  0  0  0
  4 19  1  0  0  0  0
  4 23  1  0  0  0  0
  6  3  1  0  0  0  0
  6 24  1  0  0  0  0
  7  4  1  0  0  0  0
  7 19  1  0  0  0  0
  8  7  1  0  0  0  0
  9 12  1  0  0  0  0
 10  5  1  0  0  0  0
 11  8  1  0  0  0  0
 11 16  1  0  0  0  0
 12 16  1  0  0  0  0
 12  3  1  0  0  0  0
 13  2  1  0  0  0  0
 14 11  1  0  0  0  0
 15 13  1  0  0  0  0
 15  8  2  0  0  0  0
 16  3  1  0  0  0  0
 16 21  1  0  0  0  0
 18  4  1  0  0  0  0
 18 10  1  0  0  0  0
 20 14  1  0  0  0  0
 20  6  1  0  0  0  0
 21 19  1  0  0  0  0
 22 23  1  0  0  0  0
 23  5  1  0  0  0  0
 24 25  1  0  0  0  0
M  END
>  <MODEL>
1

>  <REMARK>
 VINA RESULT:      -7.2      0.000      0.000
  Name = 
  1 active torsions:
  status: ('A' for Active; 'I' for Inactive)
    1  A    between atoms: C_6  and  C_18
                            x       y       z     vdW  Elec       q    Type
                         _______ _______ _______ _____ _____    ______ ____

>  <TORSDO>
F 1

$$$$
=
 OpenBabel11062420173D

 25 30  0  0  1  0  0  0  0  0999 V2000
  184.0620  178.1150  145.9790 O   0  0  0  0  0  0  0  0  0  0  0  0
  185.1660  177.5360  145.7940 C   0  0  0  0  0  0  0  0  0  0  0  0
  190.3380  175.1460  143.3380 C   0  0  1  0  0  0  0  0  0  0  0  0
  186.7120  177.8670  143.9250 C   0  0  2  0  0  0  0  0  0  0  0  0
  184.7920  178.5840  142.7740 C   0  0  0  0  0  2  0  0  0  0  0  0
  191.6930  175.5430  143.9840 C   0  0  2  0  0  3  0  0  0  0  0  0
  187.9980  177.9640  144.7250 C   0  0  1  0  0  3  0  0  0  0  0  0
  188.1880  176.9310  145.8170 C   0  0  0  0  0  0  0  0  0  0  0  0
  190.1490  173.3700  144.9740 O   0  0  0  0  0  1  0  0  0  0  0  0
  184.4770  177.3200  143.4600 N   0  0  0  0  0  2  0  0  0  0  0  0
  189.2700  175.9310  145.6050 C   0  0  2  0  0  3  0  0  0  0  0  0
  189.5250  173.9620  143.8720 C   0  0  1  0  0  3  0  0  0  0  0  0
  186.0460  177.3550  146.9090 N   0  0  0  0  0  2  0  0  0  0  0  0
  190.6420  176.5800  145.7510 C   0  0  0  0  0  2  0  0  0  0  0  0
  187.3260  176.7230  146.8170 C   0  0  0  0  0  3  0  0  0  0  0  0
  189.0920  175.4040  144.1690 C   0  0  2  0  0  0  0  0  0  0  0  0
  190.1790  175.3510  141.9650 O   0  0  0  0  0  1  0  0  0  0  0  0
  185.5520  177.0480  144.4140 C   0  0  2  0  0  3  0  0  0  0  0  0
  187.9690  177.2240  143.3540 C   0  0  1  0  0  3  0  0  0  0  0  0
  191.6450  175.6560  145.3950 O   0  0  0  0  0  0  0  0  0  0  0  0
  187.9370  175.8100  143.4620 O   0  0  0  0  0  0  0  0  0  0  0  0
  186.1910  180.1760  143.8550 O   0  0  0  0  0  1  0  0  0  0  0  0
  186.2200  179.0070  143.0930 C   0  0  1  0  0  3  0  0  0  0  0  0
  192.3190  176.7840  143.3490 C   0  0  0  0  0  2  0  0  0  0  0  0
  193.3450  176.4130  142.4810 O   0  0  0  0  0  1  0  0  0  0  0  0
  2  1  2  0  0  0  0
  2 13  1  0  0  0  0
  3 17  1  6  0  0  0
  3 12  1  0  0  0  0
  3  6  1  0  0  0  0
  3 16  1  0  0  0  0
  4 18  1  0  0  0  0
  4  7  1  0  0  0  0
  5 23  1  0  0  0  0
  5 10  1  0  0  0  0
  6 20  1  0  0  0  0
  7  8  1  0  0  0  0
  8 15  2  0  0  0  0
 10 18  1  0  0  0  0
 11 14  1  0  0  0  0
 11  8  1  0  0  0  0
 12 16  1  0  0  0  0
 12  9  1  0  0  0  0
 15 13  1  0  0  0  0
 16 11  1  0  0  0  0
 18  2  1  0  0  0  0
 19 21  1  0  0  0  0
 19  4  1  0  0  0  0
 19  7  1  0  0  0  0
 20 14  1  0  0  0  0
 21 16  1  0  0  0  0
 23 22  1  0  0  0  0
 23  4  1  0  0  0  0
 24  6  1  0  0  0  0
 25 24  1  0  0  0  0
M  END
>  <MODEL>
2

>  <REMARK>
 VINA RESULT:      -6.9      1.640      3.371
  Name = 
  1 active torsions:
  status: ('A' for Active; 'I' for Inactive)
    1  A    between atoms: C_6  and  C_18
                            x       y       z     vdW  Elec       q    Type
                         _______ _______ _______ _____ _____    ______ ____

>  <TORSDO>
F 1

$$$$
=
 OpenBabel11062420173D

 25 30  0  0  1  0  0  0  0  0999 V2000
  184.9980  178.4830  142.8570 O   0  0  0  0  0  0  0  0  0  0  0  0
  185.8310  177.9620  143.6460 C   0  0  0  0  0  0  0  0  0  0  0  0
  190.5900  174.8620  146.1430 C   0  0  1  0  0  0  0  0  0  0  0  0
  188.1070  177.2290  143.1220 C   0  0  2  0  0  0  0  0  0  0  0  0
  187.2870  177.0470  140.9260 C   0  0  0  0  0  2  0  0  0  0  0  0
  191.5130  175.6290  147.1290 C   0  0  2  0  0  3  0  0  0  0  0  0
  188.8090  177.8370  144.3210 C   0  0  1  0  0  3  0  0  0  0  0  0
  188.1370  177.6390  145.6640 C   0  0  0  0  0  0  0  0  0  0  0  0
  189.1250  174.3540  148.0030 O   0  0  0  0  0  1  0  0  0  0  0  0
  186.3270  176.3990  141.8350 N   0  0  0  0  0  2  0  0  0  0  0  0
  188.8420  176.7580  146.6360 C   0  0  2  0  0  3  0  0  0  0  0  0
  189.3160  174.1660  146.6310 C   0  0  1  0  0  3  0  0  0  0  0  0
  185.9650  178.5050  144.9650 N   0  0  0  0  0  2  0  0  0  0  0  0
  190.0930  177.4410  147.1770 C   0  0  0  0  0  2  0  0  0  0  0  0
  186.8820  178.0030  145.9410 C   0  0  0  0  0  3  0  0  0  0  0  0
  189.2360  175.4890  145.8580 C   0  0  2  0  0  0  0  0  0  0  0  0
  191.1820  174.2260  145.0480 O   0  0  0  0  0  1  0  0  0  0  0  0
  186.6740  176.7860  143.2020 C   0  0  2  0  0  3  0  0  0  0  0  0
  189.2330  176.4400  143.7760 C   0  0  1  0  0  3  0  0  0  0  0  0
  190.8230  176.5350  147.9720 O   0  0  0  0  0  0  0  0  0  0  0  0
  188.7410  175.3510  144.5400 O   0  0  0  0  0  0  0  0  0  0  0  0
  188.3830  179.0410  141.6220 O   0  0  0  0  0  1  0  0  0  0  0  0
  188.4350  177.6500  141.7250 C   0  0  1  0  0  3  0  0  0  0  0  0
  192.6980  176.3040  146.4390 C   0  0  0  0  0  2  0  0  0  0  0  0
  193.8240  175.4860  146.5130 O   0  0  0  0  0  1  0  0  0  0  0  0
  1  2  2  0  0  0  0
  2 13  1  0  0  0  0
  3 17  1  6  0  0  0
  3 12  1  0  0  0  0
  3  6  1  0  0  0  0
  4 18  1  0  0  0  0
  4 19  1  0  0  0  0
  4  7  1  0  0  0  0
  5 23  1  0  0  0  0
  5 10  1  0  0  0  0
  6 20  1  0  0  0  0
  7  8  1  0  0  0  0
  8 15  2  0  0  0  0
  8 11  1  0  0  0  0
 10 18  1  0  0  0  0
 11 14  1  0  0  0  0
 12  9  1  0  0  0  0
 13 15  1  0  0  0  0
 14 20  1  0  0  0  0
 16  3  1  0  0  0  0
 16 12  1  0  0  0  0
 16 11  1  0  0  0  0
 18  2  1  0  0  0  0
 19  7  1  0  0  0  0
 19 21  1  0  0  0  0
 21 16  1  0  0  0  0
 22 23  1  0  0  0  0
 23  4  1  0  0  0  0
 24 25  1  0  0  0  0
 24  6  1  0  0  0  0
M  END
>  <MODEL>
3

>  <REMARK>
 VINA RESULT:      -6.7      2.021      4.007
  Name = 
  1 active torsions:
  status: ('A' for Active; 'I' for Inactive)
    1  A    between atoms: C_6  and  C_18
                            x       y       z     vdW  Elec       q    Type
                         _______ _______ _______ _____ _____    ______ ____

>  <TORSDO>
F 1

$$$$
=
 OpenBabel11062420173D

 25 30  0  0  1  0  0  0  0  0999 V2000
  193.3890  176.3420  146.1800 O   0  0  0  0  0  0  0  0  0  0  0  0
  192.4530  176.3620  145.3370 C   0  0  0  0  0  0  0  0  0  0  0  0
  186.9670  175.9600  142.4650 C   0  0  1  0  0  0  0  0  0  0  0  0
  190.0510  176.4910  145.7970 C   0  0  2  0  0  0  0  0  0  0  0  0
  190.6420  175.5570  147.8720 C   0  0  0  0  0  2  0  0  0  0  0  0
  186.4620  177.2110  141.6970 C   0  0  2  0  0  3  0  0  0  0  0  0
  189.6950  177.5570  144.7780 C   0  0  1  0  0  3  0  0  0  0  0  0
  190.2910  177.3900  143.3960 C   0  0  0  0  0  0  0  0  0  0  0  0
  188.1910  175.3100  140.4790 O   0  0  0  0  0  1  0  0  0  0  0  0
  191.3070  174.7850  146.8100 N   0  0  0  0  0  2  0  0  0  0  0  0
  189.3390  177.0750  142.2950 C   0  0  2  0  0  3  0  0  0  0  0  0
  187.8850  174.9360  141.7910 C   0  0  1  0  0  3  0  0  0  0  0  0
  192.5970  177.1720  144.1640 N   0  0  0  0  0  2  0  0  0  0  0  0
  188.4800  178.2900  141.9590 C   0  0  0  0  0  2  0  0  0  0  0  0
  191.5990  177.2810  143.1450 C   0  0  0  0  0  3  0  0  0  0  0  0
  188.4460  175.9330  142.8140 C   0  0  2  0  0  0  0  0  0  0  0  0
  186.1280  175.3990  143.4310 O   0  0  0  0  0  1  0  0  0  0  0  0
  191.1980  175.5480  145.5670 C   0  0  2  0  0  3  0  0  0  0  0  0
  188.7340  176.3600  145.0440 C   0  0  1  0  0  3  0  0  0  0  0  0
  187.4870  177.9260  141.0280 O   0  0  0  0  0  0  0  0  0  0  0  0
  188.7900  175.3460  144.0530 O   0  0  0  0  0  0  0  0  0  0  0  0
  190.4450  177.9180  147.6450 O   0  0  0  0  0  1  0  0  0  0  0  0
  189.8570  176.7120  147.2630 C   0  0  1  0  0  3  0  0  0  0  0  0
  185.6090  178.1410  142.5590 C   0  0  0  0  0  2  0  0  0  0  0  0
  184.2590  177.9660  142.2610 O   0  0  0  0  0  1  0  0  0  0  0  0
  2 18  1  0  0  0  0
  2  1  2  0  0  0  0
  3 16  1  0  0  0  0
  3 17  1  1  0  0  0
  4 23  1  0  0  0  0
  6  3  1  0  0  0  0
  6 24  1  0  0  0  0
  7 19  1  0  0  0  0
  7  4  1  0  0  0  0
  8  7  1  0  0  0  0
  9 12  1  0  0  0  0
 10  5  1  0  0  0  0
 11 16  1  0  0  0  0
 11  8  1  0  0  0  0
 12  3  1  0  0  0  0
 12 16  1  0  0  0  0
 13  2  1  0  0  0  0
 14 11  1  0  0  0  0
 15  8  2  0  0  0  0
 15 13  1  0  0  0  0
 16 21  1  0  0  0  0
 18  4  1  0  0  0  0
 18 10  1  0  0  0  0
 19  4  1  0  0  0  0
 20  6  1  0  0  0  0
 20 14  1  0  0  0  0
 21 19  1  0  0  0  0
 23 22  1  0  0  0  0
 23  5  1  0  0  0  0
 25 24  1  0  0  0  0
M  END
>  <MODEL>
4

>  <REMARK>
 VINA RESULT:      -6.6      3.095      5.573
  Name = 
  1 active torsions:
  status: ('A' for Active; 'I' for Inactive)
    1  A    between atoms: C_6  and  C_18
                            x       y       z     vdW  Elec       q    Type
                         _______ _______ _______ _____ _____    ______ ____

>  <TORSDO>
F 1

$$$$
=
 OpenBabel11062420173D

 25 30  0  0  1  0  0  0  0  0999 V2000
  186.4710  177.5770  144.9350 O   0  0  0  0  0  0  0  0  0  0  0  0
  187.6420  177.1110  144.9470 C   0  0  0  0  0  0  0  0  0  0  0  0
  193.0390  174.4310  143.4670 C   0  0  1  0  0  0  0  0  0  0  0  0
  189.0730  176.6590  143.0130 C   0  0  2  0  0  0  0  0  0  0  0  0
  187.0390  176.4990  141.8460 C   0  0  0  0  0  2  0  0  0  0  0  0
  194.3390  175.2440  143.7120 C   0  0  2  0  0  3  0  0  0  0  0  0
  190.3520  177.2810  143.5430 C   0  0  1  0  0  3  0  0  0  0  0  0
  190.7190  176.9430  144.9730 C   0  0  0  0  0  0  0  0  0  0  0  0
  193.1530  173.6730  145.7640 O   0  0  0  0  0  1  0  0  0  0  0  0
  186.9300  175.7050  143.0810 N   0  0  0  0  0  2  0  0  0  0  0  0
  191.9290  176.0970  145.1670 C   0  0  2  0  0  3  0  0  0  0  0  0
  192.4210  173.5760  144.5770 C   0  0  1  0  0  3  0  0  0  0  0  0
  188.5690  177.6000  145.9240 N   0  0  0  0  0  2  0  0  0  0  0  0
  193.1960  176.8850  144.8530 C   0  0  0  0  0  2  0  0  0  0  0  0
  189.9240  177.1530  146.0260 C   0  0  0  0  0  3  0  0  0  0  0  0
  191.7910  174.9190  144.1840 C   0  0  2  0  0  0  0  0  0  0  0  0
  192.8150  173.9200  142.1860 O   0  0  0  0  0  1  0  0  0  0  0  0
  188.0580  176.0590  143.9420 C   0  0  2  0  0  3  0  0  0  0  0  0
  190.3940  175.9680  142.7050 C   0  0  1  0  0  3  0  0  0  0  0  0
  194.3120  176.0260  144.8930 O   0  0  0  0  0  0  0  0  0  0  0  0
  190.5710  174.7940  143.4820 O   0  0  0  0  0  0  0  0  0  0  0  0
  188.2210  178.5630  141.8920 O   0  0  0  0  0  1  0  0  0  0  0  0
  188.3980  177.1830  141.7860 C   0  0  1  0  0  3  0  0  0  0  0  0
  194.7600  176.0790  142.5030 C   0  0  0  0  0  2  0  0  0  0  0  0
  196.0540  176.5660  142.6840 O   0  0  0  0  0  1  0  0  0  0  0  0
  1  2  2  0  0  0  0
  2 13  1  0  0  0  0
  3 17  1  6  0  0  0
  3  6  1  0  0  0  0
  3 16  1  0  0  0  0
  3 12  1  0  0  0  0
  4  7  1  0  0  0  0
  4 18  1  0  0  0  0
  5 10  1  0  0  0  0
  6 20  1  0  0  0  0
  7  8  1  0  0  0  0
  8 11  1  0  0  0  0
  8 15  2  0  0  0  0
 10 18  1  0  0  0  0
 12  9  1  0  0  0  0
 13 15  1  0  0  0  0
 14 20  1  0  0  0  0
 14 11  1  0  0  0  0
 16 12  1  0  0  0  0
 16 11  1  0  0  0  0
 18  2  1  0  0  0  0
 19  4  1  0  0  0  0
 19 21  1  0  0  0  0
 19  7  1  0  0  0  0
 21 16  1  0  0  0  0
 23  5  1  0  0  0  0
 23 22  1  0  0  0  0
 23  4  1  0  0  0  0
 24 25  1  0  0  0  0
 24  6  1  0  0  0  0
M  END
>  <MODEL>
5

>  <REMARK>
 VINA RESULT:      -6.3      2.263      4.419
  Name = 
  1 active torsions:
  status: ('A' for Active; 'I' for Inactive)
    1  A    between atoms: C_6  and  C_18
                            x       y       z     vdW  Elec       q    Type
                         _______ _______ _______ _____ _____    ______ ____

>  <TORSDO>
F 1

$$$$
=
 OpenBabel11062420173D

 25 30  0  0  1  0  0  0  0  0999 V2000
  188.1470  176.0340  146.6830 O   0  0  0  0  0  0  0  0  0  0  0  0
  189.3260  175.6470  146.4640 C   0  0  0  0  0  0  0  0  0  0  0  0
  194.7140  174.0410  143.8390 C   0  0  1  0  0  0  0  0  0  0  0  0
  190.6940  176.1170  144.4880 C   0  0  2  0  0  0  0  0  0  0  0  0
  188.6210  176.4080  143.4180 C   0  0  0  0  0  2  0  0  0  0  0  0
  196.0070  174.7110  144.3770 C   0  0  2  0  0  3  0  0  0  0  0  0
  191.9800  176.4920  145.2020 C   0  0  1  0  0  3  0  0  0  0  0  0
  192.4050  175.5840  146.3380 C   0  0  0  0  0  0  0  0  0  0  0  0
  194.9270  172.3730  145.5820 O   0  0  0  0  0  1  0  0  0  0  0  0
  188.5720  175.1570  144.1920 N   0  0  0  0  0  2  0  0  0  0  0  0
  193.6370  174.7770  146.1180 C   0  0  2  0  0  3  0  0  0  0  0  0
  194.1530  172.7720  144.4880 C   0  0  1  0  0  3  0  0  0  0  0  0
  190.2790  175.6980  147.5320 N   0  0  0  0  0  2  0  0  0  0  0  0
  194.8760  175.6640  146.1430 C   0  0  0  0  0  2  0  0  0  0  0  0
  191.6450  175.2950  147.3980 C   0  0  0  0  0  3  0  0  0  0  0  0
  193.4850  174.1320  144.7280 C   0  0  2  0  0  0  0  0  0  0  0  0
  194.4520  174.1220  142.4690 O   0  0  0  0  0  1  0  0  0  0  0  0
  189.7240  175.1430  145.0940 C   0  0  2  0  0  3  0  0  0  0  0  0
  192.0150  175.6690  143.8800 C   0  0  1  0  0  3  0  0  0  0  0  0
  196.0090  174.9080  145.7810 O   0  0  0  0  0  0  0  0  0  0  0  0
  192.2420  174.2810  144.0710 O   0  0  0  0  0  0  0  0  0  0  0  0
  189.7660  178.2900  144.3190 O   0  0  0  0  0  1  0  0  0  0  0  0
  189.9650  177.0950  143.6240 C   0  0  1  0  0  3  0  0  0  0  0  0
  196.3680  175.9980  143.6360 C   0  0  0  0  0  2  0  0  0  0  0  0
  197.6620  175.9080  143.1230 O   0  0  0  0  0  1  0  0  0  0  0  0
  2  1  2  0  0  0  0
  2 13  1  0  0  0  0
  3 17  1  6  0  0  0
  3  6  1  0  0  0  0
  3 12  1  0  0  0  0
  3 16  1  0  0  0  0
  4 18  1  0  0  0  0
  4  7  1  0  0  0  0
  5 23  1  0  0  0  0
  5 10  1  0  0  0  0
  6 20  1  0  0  0  0
  7  8  1  0  0  0  0
  8 15  2  0  0  0  0
 10 18  1  0  0  0  0
 11 14  1  0  0  0  0
 11  8  1  0  0  0  0
 12 16  1  0  0  0  0
 12  9  1  0  0  0  0
 15 13  1  0  0  0  0
 16 11  1  0  0  0  0
 18  2  1  0  0  0  0
 19 21  1  0  0  0  0
 19  4  1  0  0  0  0
 19  7  1  0  0  0  0
 20 14  1  0  0  0  0
 21 16  1  0  0  0  0
 23 22  1  0  0  0  0
 23  4  1  0  0  0  0
 24  6  1  0  0  0  0
 25 24  1  0  0  0  0
M  END
>  <MODEL>
6

>  <REMARK>
 VINA RESULT:      -6.2      3.296      5.696
  Name = 
  1 active torsions:
  status: ('A' for Active; 'I' for Inactive)
    1  A    between atoms: C_6  and  C_18
                            x       y       z     vdW  Elec       q    Type
                         _______ _______ _______ _____ _____    ______ ____

>  <TORSDO>
F 1

$$$$
=
 OpenBabel11062420173D

 25 30  0  0  1  0  0  0  0  0999 V2000
  196.8340  173.5540  144.4880 O   0  0  0  0  0  0  0  0  0  0  0  0
  195.7650  174.2130  144.5960 C   0  0  0  0  0  0  0  0  0  0  0  0
  189.8580  176.1090  144.4780 C   0  0  1  0  0  0  0  0  0  0  0  0
  193.4830  173.3290  144.6550 C   0  0  2  0  0  0  0  0  0  0  0  0
  194.4140  171.5060  143.5010 C   0  0  0  0  0  2  0  0  0  0  0  0
  189.2430  176.6330  145.8030 C   0  0  2  0  0  3  0  0  0  0  0  0
  192.9680  174.1450  145.8260 C   0  0  1  0  0  3  0  0  0  0  0  0
  193.3110  175.6200  145.8190 C   0  0  0  0  0  0  0  0  0  0  0  0
  190.7090  178.3380  144.0620 O   0  0  0  0  0  1  0  0  0  0  0  0
  194.8740  172.7470  142.8570 N   0  0  0  0  0  2  0  0  0  0  0  0
  192.1780  176.5660  145.6220 C   0  0  2  0  0  3  0  0  0  0  0  0
  190.6310  177.0430  143.5420 C   0  0  1  0  0  3  0  0  0  0  0  0
  195.7130  175.2960  145.5330 N   0  0  0  0  0  2  0  0  0  0  0  0
  191.2890  176.6090  146.8600 C   0  0  0  0  0  2  0  0  0  0  0  0
  194.5540  176.1060  145.7480 C   0  0  0  0  0  3  0  0  0  0  0  0
  191.3750  176.0290  144.4220 C   0  0  2  0  0  0  0  0  0  0  0  0
  189.1930  175.0800  143.8060 O   0  0  0  0  0  1  0  0  0  0  0  0
  194.5590  173.8600  143.7530 C   0  0  2  0  0  3  0  0  0  0  0  0
  192.0530  173.8500  144.6000 C   0  0  1  0  0  3  0  0  0  0  0  0
  190.1440  177.3870  146.5960 O   0  0  0  0  0  0  0  0  0  0  0  0
  191.9230  174.9420  143.7030 O   0  0  0  0  0  0  0  0  0  0  0  0
  194.2110  171.4310  145.8700 O   0  0  0  0  0  1  0  0  0  0  0  0
  193.5500  171.8370  144.7100 C   0  0  1  0  0  3  0  0  0  0  0  0
  188.5650  175.5370  146.6250 C   0  0  0  0  0  2  0  0  0  0  0  0
  187.4070  176.0330  147.2220 O   0  0  0  0  0  1  0  0  0  0  0  0
  1  2  2  0  0  0  0
  2 13  1  0  0  0  0
  3 17  1  6  0  0  0
  3  6  1  0  0  0  0
  4 23  1  0  0  0  0
  4  7  1  0  0  0  0
  5 23  1  0  0  0  0
  6 20  1  0  0  0  0
  6 24  1  0  0  0  0
  8  7  1  0  0  0  0
 10  5  1  0  0  0  0
 10 18  1  0  0  0  0
 11  8  1  0  0  0  0
 11 14  1  0  0  0  0
 12  9  1  0  0  0  0
 12 16  1  0  0  0  0
 12  3  1  0  0  0  0
 13 15  1  0  0  0  0
 15  8  2  0  0  0  0
 16  3  1  0  0  0  0
 16 11  1  0  0  0  0
 18  2  1  0  0  0  0
 18  4  1  0  0  0  0
 19  4  1  0  0  0  0
 19  7  1  0  0  0  0
 20 14  1  0  0  0  0
 21 16  1  0  0  0  0
 21 19  1  0  0  0  0
 23 22  1  0  0  0  0
 24 25  1  0  0  0  0
M  END
>  <MODEL>
7

>  <REMARK>
 VINA RESULT:      -6.1      4.029      7.604
  Name = 
  1 active torsions:
  status: ('A' for Active; 'I' for Inactive)
    1  A    between atoms: C_6  and  C_18
                            x       y       z     vdW  Elec       q    Type
                         _______ _______ _______ _____ _____    ______ ____

>  <TORSDO>
F 1

$$$$
=
 OpenBabel11062420173D

 25 30  0  0  1  0  0  0  0  0999 V2000
  191.1160  171.0910  140.8320 O   0  0  0  0  0  0  0  0  0  0  0  0
  191.0750  171.9210  141.7800 C   0  0  0  0  0  0  0  0  0  0  0  0
  190.2160  176.9590  145.2980 C   0  0  1  0  0  0  0  0  0  0  0  0
  189.6400  173.8960  141.9540 C   0  0  2  0  0  0  0  0  0  0  0  0
  189.5970  173.7770  139.6060 C   0  0  0  0  0  2  0  0  0  0  0  0
  189.4280  176.7860  146.6250 C   0  0  2  0  0  3  0  0  0  0  0  0
  189.1790  173.7010  143.3860 C   0  0  1  0  0  3  0  0  0  0  0  0
  190.2520  173.3350  144.3920 C   0  0  0  0  0  0  0  0  0  0  0  0
  192.2310  176.3260  146.4830 O   0  0  0  0  0  1  0  0  0  0  0  0
  190.9940  173.6470  140.0530 N   0  0  0  0  0  2  0  0  0  0  0  0
  190.5760  174.3610  145.4210 C   0  0  2  0  0  3  0  0  0  0  0  0
  191.7280  176.7240  145.2410 C   0  0  1  0  0  3  0  0  0  0  0  0
  191.1130  171.4330  143.1260 N   0  0  0  0  0  2  0  0  0  0  0  0
  189.4410  174.4910  146.4300 C   0  0  0  0  0  2  0  0  0  0  0  0
  191.0620  172.2790  144.2790 C   0  0  0  0  0  3  0  0  0  0  0  0
  190.7550  175.6890  144.6620 C   0  0  2  0  0  0  0  0  0  0  0  0
  189.7720  177.9250  144.3910 O   0  0  0  0  0  1  0  0  0  0  0  0
  190.9820  173.4040  141.4950 C   0  0  2  0  0  3  0  0  0  0  0  0
  189.4900  175.1260  142.8390 C   0  0  1  0  0  3  0  0  0  0  0  0
  189.7010  175.5700  147.3000 O   0  0  0  0  0  0  0  0  0  0  0  0
  190.7480  175.6400  143.2490 O   0  0  0  0  0  0  0  0  0  0  0  0
  187.8690  172.7490  140.8780 O   0  0  0  0  0  1  0  0  0  0  0  0
  188.6740  173.8870  140.8130 C   0  0  1  0  0  3  0  0  0  0  0  0
  187.9240  177.0060  146.4630 C   0  0  0  0  0  2  0  0  0  0  0  0
  187.4790  177.9640  147.3720 O   0  0  0  0  0  1  0  0  0  0  0  0
  1  2  2  0  0  0  0
  2 13  1  0  0  0  0
  3 17  1  6  0  0  0
  3  6  1  0  0  0  0
  4 19  1  0  0  0  0
  4  7  1  0  0  0  0
  5 10  1  0  0  0  0
  5 23  1  0  0  0  0
  6 20  1  0  0  0  0
  7  8  1  0  0  0  0
  8 11  1  0  0  0  0
 10 18  1  0  0  0  0
 11 14  1  0  0  0  0
 12  3  1  0  0  0  0
 12  9  1  0  0  0  0
 13 15  1  0  0  0  0
 14 20  1  0  0  0  0
 15  8  2  0  0  0  0
 16 12  1  0  0  0  0
 16  3  1  0  0  0  0
 16 11  1  0  0  0  0
 18  2  1  0  0  0  0
 18  4  1  0  0  0  0
 19 21  1  0  0  0  0
 19  7  1  0  0  0  0
 21 16  1  0  0  0  0
 23 22  1  0  0  0  0
 23  4  1  0  0  0  0
 24  6  1  0  0  0  0
 24 25  1  0  0  0  0
M  END
>  <MODEL>
8

>  <REMARK>
 VINA RESULT:      -6.1      3.402      6.257
  Name = 
  1 active torsions:
  status: ('A' for Active; 'I' for Inactive)
    1  A    between atoms: C_6  and  C_18
                            x       y       z     vdW  Elec       q    Type
                         _______ _______ _______ _____ _____    ______ ____

>  <TORSDO>
F 1

$$$$
=
 OpenBabel11062420173D

 25 30  0  0  1  0  0  0  0  0999 V2000
  196.5410  174.5150  145.1830 O   0  0  0  0  0  0  0  0  0  0  0  0
  195.3240  174.8400  145.1330 C   0  0  0  0  0  0  0  0  0  0  0  0
  189.8410  177.3080  143.6040 C   0  0  1  0  0  0  0  0  0  0  0  0
  194.1060  175.7150  143.1980 C   0  0  2  0  0  0  0  0  0  0  0  0
  196.2310  176.4160  142.4780 C   0  0  0  0  0  2  0  0  0  0  0  0
  188.6480  176.3370  143.3880 C   0  0  2  0  0  3  0  0  0  0  0  0
  192.8700  174.8420  143.3100 C   0  0  1  0  0  3  0  0  0  0  0  0
  192.2770  174.6950  144.6960 C   0  0  0  0  0  0  0  0  0  0  0  0
  189.3240  177.3210  145.9700 O   0  0  0  0  0  1  0  0  0  0  0  0
  196.0660  176.8070  143.8880 N   0  0  0  0  0  2  0  0  0  0  0  0
  190.9450  175.3220  144.9190 C   0  0  2  0  0  3  0  0  0  0  0  0
  190.1830  177.8430  144.9980 C   0  0  1  0  0  3  0  0  0  0  0  0
  194.3570  173.9920  145.7630 N   0  0  0  0  0  2  0  0  0  0  0  0
  189.8540  174.5460  144.1900 C   0  0  0  0  0  2  0  0  0  0  0  0
  192.9500  174.2540  145.7630 C   0  0  0  0  0  3  0  0  0  0  0  0
  191.0410  176.7490  144.3490 C   0  0  2  0  0  0  0  0  0  0  0  0
  190.1540  178.2020  142.5760 O   0  0  0  0  0  1  0  0  0  0  0  0
  194.8980  176.1020  144.4140 C   0  0  2  0  0  3  0  0  0  0  0  0
  192.7520  176.3360  142.8850 C   0  0  1  0  0  3  0  0  0  0  0  0
  188.6310  175.2410  144.2860 O   0  0  0  0  0  0  0  0  0  0  0  0
  192.3120  177.1980  143.9240 O   0  0  0  0  0  0  0  0  0  0  0  0
  195.3570  174.3300  141.7390 O   0  0  0  0  0  1  0  0  0  0  0  0
  195.0010  175.6540  142.0020 C   0  0  1  0  0  3  0  0  0  0  0  0
  188.5090  175.8700  141.9400 C   0  0  0  0  0  2  0  0  0  0  0  0
  187.4620  176.5490  141.3170 O   0  0  0  0  0  1  0  0  0  0  0  0
  2  1  2  0  0  0  0
  2 13  1  0  0  0  0
  3 17  1  6  0  0  0
  3 16  1  0  0  0  0
  3 12  1  0  0  0  0
  4  7  1  0  0  0  0
  4 18  1  0  0  0  0
  5 10  1  0  0  0  0
  6  3  1  0  0  0  0
  6 20  1  0  0  0  0
  7  8  1  0  0  0  0
  8 11  1  0  0  0  0
  8 15  2  0  0  0  0
 10 18  1  0  0  0  0
 12  9  1  0  0  0  0
 14 20  1  0  0  0  0
 14 11  1  0  0  0  0
 15 13  1  0  0  0  0
 16 11  1  0  0  0  0
 16 12  1  0  0  0  0
 18  2  1  0  0  0  0
 19  4  1  0  0  0  0
 19  7  1  0  0  0  0
 19 21  1  0  0  0  0
 21 16  1  0  0  0  0
 22 23  1  0  0  0  0
 23  5  1  0  0  0  0
 23  4  1  0  0  0  0
 24  6  1  0  0  0  0
 25 24  1  0  0  0  0
M  END
>  <MODEL>
9

>  <REMARK>
 VINA RESULT:      -6.1      4.041      7.405
  Name = 
  1 active torsions:
  status: ('A' for Active; 'I' for Inactive)
    1  A    between atoms: C_6  and  C_18
                            x       y       z     vdW  Elec       q    Type
                         _______ _______ _______ _____ _____    ______ ____

>  <TORSDO>
F 1

$$$$
