=
 OpenBabel11062420483D

 45 48  0  0  1  0  0  0  0  0999 V2000
  193.1730  173.3360  143.1410 O   0  0  0  0  0  0  0  0  0  0  0  0
  194.0210  176.0980  145.4800 O   0  0  0  0  0  1  0  0  0  0  0  0
  192.4040  175.5100  143.8370 C   0  0  2  0  0  3  0  0  0  0  0  0
  192.4300  174.4650  142.7160 C   0  0  2  0  0  3  0  0  0  0  0  0
  194.8820  175.1990  143.4000 C   0  0  2  0  0  3  0  0  0  0  0  0
  190.2700  175.2200  141.9660 O   0  0  0  0  0  0  0  0  0  0  0  0
  191.4170  176.6340  143.5490 C   0  0  0  0  0  2  0  0  0  0  0  0
  190.9860  174.0780  142.3840 C   0  0  1  0  0  3  0  0  0  0  0  0
  193.8050  176.0580  144.1000 C   0  0  2  0  0  3  0  0  0  0  0  0
  190.0780  176.0270  143.1030 C   0  0  1  0  0  3  0  0  0  0  0  0
  194.5230  173.6840  143.4940 C   0  0  2  0  0  3  0  0  0  0  0  0
  196.2850  171.7560  143.6800 C   0  0  1  0  0  3  0  0  0  0  0  0
  194.8010  169.6800  141.0840 N   0  0  0  0  0  1  0  0  0  0  0  0
  194.9160  171.9580  141.7470 N   0  0  0  0  0  0  0  0  0  0  0  0
  195.2360  170.7270  141.9450 C   0  0  0  0  0  0  0  0  0  0  0  0
  196.0320  170.5110  143.0490 O   0  0  0  0  0  0  0  0  0  0  0  0
  195.5440  172.7800  142.7790 C   0  0  1  0  0  3  0  0  0  0  0  0
  196.8170  172.5230  146.0450 C   0  0  0  0  0  1  0  0  0  0  0  0
  195.8840  171.7090  145.1610 C   0  0  0  0  0  2  0  0  0  0  0  0
  196.6370  176.9770  143.5610 C   0  0  0  0  0  2  0  0  0  0  0  0
  196.7300  175.7670  141.5130 O   0  0  0  0  0  1  0  0  0  0  0  0
  197.3030  175.8590  142.7870 C   0  0  2  0  0  3  0  0  0  0  0  0
  196.2960  175.5390  143.8990 C   0  0  2  0  0  3  0  0  0  0  0  0
  189.0390  177.1190  142.8360 C   0  0  1  0  0  3  0  0  0  0  0  0
  187.8280  176.6140  142.0570 C   0  0  0  0  0  1  0  0  0  0  0  0
  188.6550  177.9130  144.0890 C   0  0  0  0  0  2  0  0  0  0  0  0
  188.1620  177.0500  145.2520 C   0  0  2  0  0  3  0  0  0  0  0  0
  186.1520  176.7920  146.5130 O   0  0  0  0  0  0  0  0  0  0  0  0
  186.7760  177.4660  145.6470 C   0  0  0  0  0  0  0  0  0  0  0  0
  184.9360  178.4900  144.3790 C   0  0  0  0  0  1  0  0  0  0  0  0
  186.1910  178.5770  145.0390 O   0  0  0  0  0  0  0  0  0  0  0  0
  189.0510  177.2020  146.3520 O   0  0  0  0  0  0  0  0  0  0  0  0
  189.7750  176.1340  146.8930 C   0  0  0  0  0  0  0  0  0  0  0  0
  189.3150  174.7410  146.6530 C   0  0  0  0  0  1  0  0  0  0  0  0
  190.8020  176.3380  147.5950 O   0  0  0  0  0  0  0  0  0  0  0  0
  190.9090  172.9530  141.3390 C   0  0  1  0  0  3  0  0  0  0  0  0
  190.1720  171.7490  141.9450 C   0  0  2  0  0  3  0  0  0  0  0  0
  189.1130  172.1360  142.9450 C   0  0  0  0  0  0  0  0  0  0  0  0
  189.3180  171.9570  144.3080 O   0  0  0  0  0  1  0  0  0  0  0  0
  188.0350  172.6530  142.5450 O   0  0  0  0  0  0  0  0  0  0  0  0
  191.0750  170.8400  142.5170 O   0  0  0  0  0  0  0  0  0  0  0  0
  190.9890  169.6940  141.7180 C   0  0  0  0  0  1  0  0  0  0  0  0
  190.2800  173.4020  140.0080 C   0  0  0  0  0  2  0  0  0  0  0  0
  188.1910  172.6590  139.0120 N   0  0  0  0  0  1  0  0  0  0  0  0
  189.5400  172.2490  139.3600 C   0  0  0  0  0  2  0  0  0  0  0  0
  3  7  1  6  0  0  0
  3  9  1  0  0  0  0
  4  1  1  1  0  0  0
  4  3  1  0  0  0  0
  5 11  1  0  0  0  0
  5 23  1  1  0  0  0
  5  9  1  0  0  0  0
  6  8  1  0  0  0  0
  6 10  1  0  0  0  0
  8 36  1  6  0  0  0
  8  4  1  0  0  0  0
  9  2  1  1  0  0  0
 10 24  1  6  0  0  0
 10  7  1  0  0  0  0
 11  1  1  6  0  0  0
 12 19  1  1  0  0  0
 13 15  1  0  0  0  0
 14 15  2  0  0  0  0
 15 16  1  0  0  0  0
 16 12  1  0  0  0  0
 17 14  1  6  0  0  0
 17 11  1  0  0  0  0
 17 12  1  0  0  0  0
 19 18  1  0  0  0  0
 22 21  1  6  0  0  0
 22 20  1  0  0  0  0
 22 23  1  0  0  0  0
 23 20  1  1  0  0  0
 24 25  1  1  0  0  0
 24 26  1  0  0  0  0
 27 26  1  6  0  0  0
 27 29  1  0  0  0  0
 27 32  1  0  0  0  0
 29 28  2  0  0  0  0
 30 31  1  0  0  0  0
 31 29  1  0  0  0  0
 32 33  1  0  0  0  0
 33 35  2  0  0  0  0
 34 33  1  0  0  0  0
 36 43  1  6  0  0  0
 36 37  1  0  0  0  0
 37 41  1  1  0  0  0
 37 38  1  0  0  0  0
 38 39  1  0  0  0  0
 40 38  2  0  0  0  0
 42 41  1  0  0  0  0
 44 45  1  0  0  0  0
 45 43  1  0  0  0  0
M  END
>  <MODEL>
1

>  <REMARK>
 VINA RESULT:      -5.9      0.000      0.000
  Name = 
  16 active torsions:
  status: ('A' for Active; 'I' for Inactive)
    1  A    between atoms: C_3  and  C_23
    2  A    between atoms: C_6  and  C_28
    3  A    between atoms: C_6  and  O_33
    4  A    between atoms: C_6  and  C_36
    5  A    between atoms: O_9  and  C_23
    6  A    between atoms: C_12  and  C_30
    7  A    between atoms: C_15  and  C_28
    8  A    between atoms: C_15  and  C_41
    9  A    between atoms: C_17  and  C_35
   10  A    between atoms: C_21  and  C_26
   11  A    between atoms: C_22  and  O_33
   12  A    between atoms: C_23  and  C_42
   13  A    between atoms: C_26  and  C_42
   14  A    between atoms: C_32  and  C_42
   15  A    between atoms: C_36  and  O_37
   16  A    between atoms: C_44  and  C_45
                            x       y       z     vdW  Elec       q    Type
                         _______ _______ _______ _____ _____    ______ ____

>  <TORSDO>
F 16

$$$$
=
 OpenBabel11062420483D

 45 48  0  0  1  0  0  0  0  0999 V2000
  192.9560  173.3850  143.1900 O   0  0  0  0  0  0  0  0  0  0  0  0
  193.6290  176.0210  145.7230 O   0  0  0  0  0  1  0  0  0  0  0  0
  192.0780  175.4750  144.0040 C   0  0  2  0  0  3  0  0  0  0  0  0
  192.1760  174.5070  142.8190 C   0  0  2  0  0  3  0  0  0  0  0  0
  194.5770  175.2970  143.6120 C   0  0  2  0  0  3  0  0  0  0  0  0
  190.0020  175.2200  142.0630 O   0  0  0  0  0  0  0  0  0  0  0  0
  191.0500  176.5740  143.7630 C   0  0  0  0  0  2  0  0  0  0  0  0
  190.7570  174.0840  142.4260 C   0  0  1  0  0  3  0  0  0  0  0  0
  193.4470  176.0630  144.3380 C   0  0  2  0  0  3  0  0  0  0  0  0
  189.7500  175.9420  143.2440 C   0  0  1  0  0  3  0  0  0  0  0  0
  194.2810  173.7650  143.5990 C   0  0  2  0  0  3  0  0  0  0  0  0
  196.2190  172.0080  143.7350 C   0  0  1  0  0  3  0  0  0  0  0  0
  194.8460  169.7840  141.2010 N   0  0  0  0  0  1  0  0  0  0  0  0
  194.7730  172.0680  141.8490 N   0  0  0  0  0  0  0  0  0  0  0  0
  195.2110  170.8740  142.0420 C   0  0  0  0  0  0  0  0  0  0  0  0
  196.0600  170.7400  143.1190 O   0  0  0  0  0  0  0  0  0  0  0  0
  195.3570  172.9530  142.8550 C   0  0  1  0  0  3  0  0  0  0  0  0
  196.8710  172.6880  146.0970 C   0  0  0  0  0  1  0  0  0  0  0  0
  195.8730  171.9370  145.2290 C   0  0  0  0  0  2  0  0  0  0  0  0
  196.2210  177.1460  143.9930 C   0  0  0  0  0  2  0  0  0  0  0  0
  196.4070  176.1710  141.8280 O   0  0  0  0  0  1  0  0  0  0  0  0
  196.9610  176.1580  143.1150 C   0  0  2  0  0  3  0  0  0  0  0  0
  195.9630  175.6620  144.1690 C   0  0  2  0  0  3  0  0  0  0  0  0
  188.6710  177.0050  143.0200 C   0  0  1  0  0  3  0  0  0  0  0  0
  189.1380  178.1550  142.1360 C   0  0  0  0  0  1  0  0  0  0  0  0
  187.3240  176.4200  142.5790 C   0  0  0  0  0  2  0  0  0  0  0  0
  186.1530  176.7840  143.4940 C   0  0  2  0  0  3  0  0  0  0  0  0
  184.1950  178.1450  143.3850 O   0  0  0  0  0  0  0  0  0  0  0  0
  185.2440  177.7550  142.8010 C   0  0  0  0  0  0  0  0  0  0  0  0
  184.5920  178.2160  140.4760 C   0  0  0  0  0  1  0  0  0  0  0  0
  185.5600  178.1960  141.5150 O   0  0  0  0  0  0  0  0  0  0  0  0
  186.6610  177.3600  144.6910 O   0  0  0  0  0  0  0  0  0  0  0  0
  186.4290  176.8050  145.9550 C   0  0  0  0  0  0  0  0  0  0  0  0
  185.0690  176.8820  146.5500 C   0  0  0  0  0  1  0  0  0  0  0  0
  187.3620  176.2590  146.6030 O   0  0  0  0  0  0  0  0  0  0  0  0
  190.7530  173.0270  141.3080 C   0  0  1  0  0  3  0  0  0  0  0  0
  190.0390  171.7620  141.8100 C   0  0  2  0  0  3  0  0  0  0  0  0
  188.9030  172.0520  142.7580 C   0  0  0  0  0  0  0  0  0  0  0  0
  187.6950  172.5570  142.2930 O   0  0  0  0  0  0  0  0  0  0  0  0
  189.0400  171.8100  143.9880 O   0  0  0  0  0  1  0  0  0  0  0  0
  190.9480  170.8690  142.3970 O   0  0  0  0  0  0  0  0  0  0  0  0
  191.1500  169.8750  141.4320 C   0  0  0  0  0  1  0  0  0  0  0  0
  190.1530  173.5410  139.9880 C   0  0  0  0  0  2  0  0  0  0  0  0
  188.1850  172.7450  138.8040 N   0  0  0  0  0  1  0  0  0  0  0  0
  189.5340  172.3970  139.2100 C   0  0  0  0  0  2  0  0  0  0  0  0
  3  7  1  6  0  0  0
  3  9  1  0  0  0  0
  4  1  1  1  0  0  0
  4  3  1  0  0  0  0
  5 23  1  1  0  0  0
  5  9  1  0  0  0  0
  6  8  1  0  0  0  0
  6 10  1  0  0  0  0
  8 36  1  6  0  0  0
  8  4  1  0  0  0  0
  9  2  1  1  0  0  0
 10 24  1  6  0  0  0
 10  7  1  0  0  0  0
 11  1  1  6  0  0  0
 11  5  1  0  0  0  0
 12 19  1  1  0  0  0
 13 15  1  0  0  0  0
 14 15  2  0  0  0  0
 15 16  1  0  0  0  0
 16 12  1  0  0  0  0
 17 14  1  6  0  0  0
 17 11  1  0  0  0  0
 17 12  1  0  0  0  0
 19 18  1  0  0  0  0
 22 21  1  6  0  0  0
 22 20  1  0  0  0  0
 22 23  1  0  0  0  0
 23 20  1  1  0  0  0
 24 25  1  6  0  0  0
 26 24  1  0  0  0  0
 27 26  1  6  0  0  0
 27 32  1  0  0  0  0
 29 28  2  0  0  0  0
 29 27  1  0  0  0  0
 30 31  1  0  0  0  0
 31 29  1  0  0  0  0
 32 33  1  0  0  0  0
 33 34  1  0  0  0  0
 33 35  2  0  0  0  0
 36 43  1  6  0  0  0
 36 37  1  0  0  0  0
 37 41  1  1  0  0  0
 37 38  1  0  0  0  0
 38 40  1  0  0  0  0
 39 38  2  0  0  0  0
 42 41  1  0  0  0  0
 44 45  1  0  0  0  0
 45 43  1  0  0  0  0
M  END
>  <MODEL>
2

>  <REMARK>
 VINA RESULT:      -5.9      1.133      1.782
  Name = 
  16 active torsions:
  status: ('A' for Active; 'I' for Inactive)
    1  A    between atoms: C_3  and  C_23
    2  A    between atoms: C_6  and  C_28
    3  A    between atoms: C_6  and  O_33
    4  A    between atoms: C_6  and  C_36
    5  A    between atoms: O_9  and  C_23
    6  A    between atoms: C_12  and  C_30
    7  A    between atoms: C_15  and  C_28
    8  A    between atoms: C_15  and  C_41
    9  A    between atoms: C_17  and  C_35
   10  A    between atoms: C_21  and  C_26
   11  A    between atoms: C_22  and  O_33
   12  A    between atoms: C_23  and  C_42
   13  A    between atoms: C_26  and  C_42
   14  A    between atoms: C_32  and  C_42
   15  A    between atoms: C_36  and  O_37
   16  A    between atoms: C_44  and  C_45
                            x       y       z     vdW  Elec       q    Type
                         _______ _______ _______ _____ _____    ______ ____

>  <TORSDO>
F 16

$$$$
=
 OpenBabel11062420483D

 45 48  0  0  1  0  0  0  0  0999 V2000
  192.5430  174.4860  141.6260 O   0  0  0  0  0  0  0  0  0  0  0  0
  189.1630  174.7400  140.1020 O   0  0  0  0  0  1  0  0  0  0  0  0
  190.2230  174.7210  142.2310 C   0  0  2  0  0  3  0  0  0  0  0  0
  191.6130  174.2450  142.6680 C   0  0  2  0  0  3  0  0  0  0  0  0
  190.8310  173.0180  140.4540 C   0  0  2  0  0  3  0  0  0  0  0  0
  191.0620  174.7490  144.9580 O   0  0  0  0  0  0  0  0  0  0  0  0
  189.2310  174.7290  143.3870 C   0  0  0  0  0  2  0  0  0  0  0  0
  192.0040  175.0050  143.9390 C   0  0  1  0  0  3  0  0  0  0  0  0
  189.7060  173.8840  141.0630 C   0  0  2  0  0  3  0  0  0  0  0  0
  189.8750  175.4160  144.6000 C   0  0  1  0  0  3  0  0  0  0  0  0
  192.1730  173.8110  140.4120 C   0  0  2  0  0  3  0  0  0  0  0  0
  193.9840  173.5240  138.5420 C   0  0  1  0  0  3  0  0  0  0  0  0
  196.8050  173.2720  140.8290 N   0  0  0  0  0  1  0  0  0  0  0  0
  194.4590  172.9050  140.7880 N   0  0  0  0  0  0  0  0  0  0  0  0
  195.5350  173.2690  140.1850 C   0  0  0  0  0  0  0  0  0  0  0  0
  195.3580  173.6480  138.8720 O   0  0  0  0  0  0  0  0  0  0  0  0
  193.3430  172.9830  139.8480 C   0  0  1  0  0  3  0  0  0  0  0  0
  192.4380  174.6360  136.8580 C   0  0  0  0  0  1  0  0  0  0  0  0
  193.4340  174.8460  137.9880 C   0  0  0  0  0  2  0  0  0  0  0  0
  189.1130  171.6550  139.2470 C   0  0  0  0  0  2  0  0  0  0  0  0
  190.7830  170.3210  140.2960 O   0  0  0  0  0  1  0  0  0  0  0  0
  190.4010  170.8800  139.0700 C   0  0  2  0  0  3  0  0  0  0  0  0
  190.4180  172.4130  139.1020 C   0  0  2  0  0  3  0  0  0  0  0  0
  188.9020  175.4810  145.7800 C   0  0  1  0  0  3  0  0  0  0  0  0
  189.2730  174.5320  146.9140 C   0  0  0  0  0  1  0  0  0  0  0  0
  188.6250  176.9100  146.2620 C   0  0  0  0  0  2  0  0  0  0  0  0
  187.3240  177.5110  145.7250 C   0  0  2  0  0  3  0  0  0  0  0  0
  186.3130  176.8150  147.7720 O   0  0  0  0  0  0  0  0  0  0  0  0
  186.3340  177.6670  146.8400 C   0  0  0  0  0  0  0  0  0  0  0  0
  184.1670  178.6330  146.1970 C   0  0  0  0  0  1  0  0  0  0  0  0
  185.4390  178.7370  146.8220 O   0  0  0  0  0  0  0  0  0  0  0  0
  186.7970  176.6530  144.7200 O   0  0  0  0  0  0  0  0  0  0  0  0
  186.4400  177.1110  143.4470 C   0  0  0  0  0  0  0  0  0  0  0  0
  186.3720  178.5720  143.1860 C   0  0  0  0  0  1  0  0  0  0  0  0
  186.1560  176.3010  142.5240 O   0  0  0  0  0  0  0  0  0  0  0  0
  193.4330  174.6720  144.4000 C   0  0  1  0  0  3  0  0  0  0  0  0
  194.2690  175.9610  144.4290 C   0  0  2  0  0  3  0  0  0  0  0  0
  195.3860  175.9730  143.4170 C   0  0  0  0  0  0  0  0  0  0  0  0
  196.6740  175.5890  143.7690 O   0  0  0  0  0  1  0  0  0  0  0  0
  195.1460  176.3120  142.2270 O   0  0  0  0  0  0  0  0  0  0  0  0
  194.7730  176.2080  145.7150 O   0  0  0  0  0  0  0  0  0  0  0  0
  194.6230  177.5870  145.9030 C   0  0  0  0  0  1  0  0  0  0  0  0
  193.4800  173.9270  145.7450 C   0  0  0  0  0  2  0  0  0  0  0  0
  193.2820  171.7090  144.7680 N   0  0  0  0  0  1  0  0  0  0  0  0
  194.1310  172.5690  145.5730 C   0  0  0  0  0  2  0  0  0  0  0  0
  3  4  1  0  0  0  0
  3  7  1  1  0  0  0
  4  1  1  6  0  0  0
  4  8  1  0  0  0  0
  5 23  1  6  0  0  0
  5  9  1  0  0  0  0
  7 10  1  0  0  0  0
  8 36  1  1  0  0  0
  8  6  1  0  0  0  0
  9  2  1  6  0  0  0
  9  3  1  0  0  0  0
 10  6  1  0  0  0  0
 10 24  1  1  0  0  0
 11  5  1  0  0  0  0
 11  1  1  1  0  0  0
 12 19  1  1  0  0  0
 12 16  1  0  0  0  0
 12 17  1  0  0  0  0
 15 14  2  0  0  0  0
 15 13  1  0  0  0  0
 16 15  1  0  0  0  0
 17 11  1  0  0  0  0
 17 14  1  1  0  0  0
 18 19  1  0  0  0  0
 22 23  1  0  0  0  0
 22 20  1  0  0  0  0
 22 21  1  1  0  0  0
 23 20  1  1  0  0  0
 24 26  1  0  0  0  0
 24 25  1  1  0  0  0
 27 26  1  1  0  0  0
 27 29  1  0  0  0  0
 29 28  2  0  0  0  0
 30 31  1  0  0  0  0
 31 29  1  0  0  0  0
 32 27  1  0  0  0  0
 33 32  1  0  0  0  0
 34 33  1  0  0  0  0
 35 33  2  0  0  0  0
 36 37  1  0  0  0  0
 36 43  1  1  0  0  0
 37 38  1  6  0  0  0
 37 41  1  0  0  0  0
 38 39  1  0  0  0  0
 40 38  2  0  0  0  0
 41 42  1  0  0  0  0
 44 45  1  0  0  0  0
 45 43  1  0  0  0  0
M  END
>  <MODEL>
3

>  <REMARK>
 VINA RESULT:      -5.7      2.339      5.773
  Name = 
  16 active torsions:
  status: ('A' for Active; 'I' for Inactive)
    1  A    between atoms: C_3  and  C_23
    2  A    between atoms: C_6  and  C_28
    3  A    between atoms: C_6  and  O_33
    4  A    between atoms: C_6  and  C_36
    5  A    between atoms: O_9  and  C_23
    6  A    between atoms: C_12  and  C_30
    7  A    between atoms: C_15  and  C_28
    8  A    between atoms: C_15  and  C_41
    9  A    between atoms: C_17  and  C_35
   10  A    between atoms: C_21  and  C_26
   11  A    between atoms: C_22  and  O_33
   12  A    between atoms: C_23  and  C_42
   13  A    between atoms: C_26  and  C_42
   14  A    between atoms: C_32  and  C_42
   15  A    between atoms: C_36  and  O_37
   16  A    between atoms: C_44  and  C_45
                            x       y       z     vdW  Elec       q    Type
                         _______ _______ _______ _____ _____    ______ ____

>  <TORSDO>
F 16

$$$$
=
 OpenBabel11062420483D

 45 48  0  0  1  0  0  0  0  0999 V2000
  193.4190  173.3110  143.1550 O   0  0  0  0  0  0  0  0  0  0  0  0
  194.5890  175.9190  145.5300 O   0  0  0  0  0  1  0  0  0  0  0  0
  192.7640  175.4340  144.0840 C   0  0  2  0  0  3  0  0  0  0  0  0
  192.6330  174.4630  142.9050 C   0  0  2  0  0  3  0  0  0  0  0  0
  195.1590  175.1570  143.3010 C   0  0  2  0  0  3  0  0  0  0  0  0
  190.3970  175.2600  142.5000 O   0  0  0  0  0  0  0  0  0  0  0  0
  191.7540  176.5720  144.0030 C   0  0  0  0  0  2  0  0  0  0  0  0
  191.1550  174.0950  142.7460 C   0  0  1  0  0  3  0  0  0  0  0  0
  194.1910  175.9670  144.1910 C   0  0  2  0  0  3  0  0  0  0  0  0
  190.3640  175.9920  143.7020 C   0  0  1  0  0  3  0  0  0  0  0  0
  194.8060  173.6380  143.3450 C   0  0  2  0  0  3  0  0  0  0  0  0
  196.7320  171.8710  143.1830 C   0  0  1  0  0  3  0  0  0  0  0  0
  194.8930  169.5490  141.0670 N   0  0  0  0  0  1  0  0  0  0  0  0
  194.9480  171.8600  141.6120 N   0  0  0  0  0  0  0  0  0  0  0  0
  195.4150  170.6720  141.7700 C   0  0  0  0  0  0  0  0  0  0  0  0
  196.4560  170.5780  142.6680 O   0  0  0  0  0  0  0  0  0  0  0  0
  195.7170  172.7830  142.4440 C   0  0  1  0  0  3  0  0  0  0  0  0
  195.9220  170.6770  145.2770 C   0  0  0  0  0  1  0  0  0  0  0  0
  196.6820  171.8690  144.7170 C   0  0  0  0  0  2  0  0  0  0  0  0
  196.9280  176.9280  143.3510 C   0  0  0  0  0  2  0  0  0  0  0  0
  196.7360  175.8710  141.2270 O   0  0  0  0  0  1  0  0  0  0  0  0
  197.4780  175.8730  142.4140 C   0  0  2  0  0  3  0  0  0  0  0  0
  196.6300  175.4670  143.6270 C   0  0  2  0  0  3  0  0  0  0  0  0
  189.3060  177.0970  143.6460 C   0  0  1  0  0  3  0  0  0  0  0  0
  189.3260  177.8790  142.3370 C   0  0  0  0  0  1  0  0  0  0  0  0
  187.9030  176.6150  144.0330 C   0  0  0  0  0  2  0  0  0  0  0  0
  187.3540  177.2460  145.3130 C   0  0  2  0  0  3  0  0  0  0  0  0
  188.8280  177.6610  147.1450 O   0  0  0  0  0  0  0  0  0  0  0  0
  188.1690  176.8030  146.4920 C   0  0  0  0  0  0  0  0  0  0  0  0
  189.4140  174.8130  147.2220 C   0  0  0  0  0  1  0  0  0  0  0  0
  188.2050  175.4520  146.8360 O   0  0  0  0  0  0  0  0  0  0  0  0
  185.9980  176.8510  145.4810 O   0  0  0  0  0  0  0  0  0  0  0  0
  184.9320  177.7540  145.3980 C   0  0  0  0  0  0  0  0  0  0  0  0
  184.3450  178.3130  146.6440 C   0  0  0  0  0  1  0  0  0  0  0  0
  184.4500  178.0850  144.2810 O   0  0  0  0  0  0  0  0  0  0  0  0
  190.9320  173.0390  141.6510 C   0  0  1  0  0  3  0  0  0  0  0  0
  190.3470  171.7680  142.2850 C   0  0  2  0  0  3  0  0  0  0  0  0
  189.2720  172.0470  143.3040 C   0  0  0  0  0  0  0  0  0  0  0  0
  189.5590  172.0530  144.6640 O   0  0  0  0  0  1  0  0  0  0  0  0
  188.0990  172.3040  142.9190 O   0  0  0  0  0  0  0  0  0  0  0  0
  191.3570  170.9730  142.8480 O   0  0  0  0  0  0  0  0  0  0  0  0
  191.3810  169.8130  142.0650 C   0  0  0  0  0  1  0  0  0  0  0  0
  190.0690  173.5480  140.4820 C   0  0  0  0  0  2  0  0  0  0  0  0
  188.2050  172.6970  139.1750 N   0  0  0  0  0  1  0  0  0  0  0  0
  189.5290  172.3820  139.6790 C   0  0  0  0  0  2  0  0  0  0  0  0
  3  7  1  6  0  0  0
  3  9  1  0  0  0  0
  4  1  1  1  0  0  0
  4  3  1  0  0  0  0
  5 11  1  0  0  0  0
  5 23  1  1  0  0  0
  5  9  1  0  0  0  0
  6  8  1  0  0  0  0
  6 10  1  0  0  0  0
  8 36  1  6  0  0  0
  8  4  1  0  0  0  0
  9  2  1  1  0  0  0
 10 24  1  6  0  0  0
 10  7  1  0  0  0  0
 11  1  1  6  0  0  0
 12 19  1  1  0  0  0
 13 15  1  0  0  0  0
 14 15  2  0  0  0  0
 15 16  1  0  0  0  0
 16 12  1  0  0  0  0
 17 14  1  1  0  0  0
 17 12  1  0  0  0  0
 17 11  1  0  0  0  0
 19 18  1  0  0  0  0
 22 21  1  6  0  0  0
 22 20  1  0  0  0  0
 22 23  1  0  0  0  0
 23 20  1  1  0  0  0
 24 25  1  6  0  0  0
 24 26  1  0  0  0  0
 27 26  1  6  0  0  0
 27 32  1  0  0  0  0
 27 29  1  0  0  0  0
 29 31  1  0  0  0  0
 29 28  2  0  0  0  0
 31 30  1  0  0  0  0
 33 32  1  0  0  0  0
 33 34  1  0  0  0  0
 35 33  2  0  0  0  0
 36 43  1  6  0  0  0
 36 37  1  0  0  0  0
 37 41  1  1  0  0  0
 37 38  1  0  0  0  0
 38 39  1  0  0  0  0
 40 38  2  0  0  0  0
 42 41  1  0  0  0  0
 44 45  1  0  0  0  0
 45 43  1  0  0  0  0
M  END
>  <MODEL>
4

>  <REMARK>
 VINA RESULT:      -5.7      0.828      2.208
  Name = 
  16 active torsions:
  status: ('A' for Active; 'I' for Inactive)
    1  A    between atoms: C_3  and  C_23
    2  A    between atoms: C_6  and  C_28
    3  A    between atoms: C_6  and  O_33
    4  A    between atoms: C_6  and  C_36
    5  A    between atoms: O_9  and  C_23
    6  A    between atoms: C_12  and  C_30
    7  A    between atoms: C_15  and  C_28
    8  A    between atoms: C_15  and  C_41
    9  A    between atoms: C_17  and  C_35
   10  A    between atoms: C_21  and  C_26
   11  A    between atoms: C_22  and  O_33
   12  A    between atoms: C_23  and  C_42
   13  A    between atoms: C_26  and  C_42
   14  A    between atoms: C_32  and  C_42
   15  A    between atoms: C_36  and  O_37
   16  A    between atoms: C_44  and  C_45
                            x       y       z     vdW  Elec       q    Type
                         _______ _______ _______ _____ _____    ______ ____

>  <TORSDO>
F 16

$$$$
=
 OpenBabel11062420483D

 45 48  0  0  1  0  0  0  0  0999 V2000
  192.9110  174.1470  141.5140 O   0  0  0  0  0  0  0  0  0  0  0  0
  189.6240  174.1500  139.7790 O   0  0  0  0  0  1  0  0  0  0  0  0
  190.5510  174.3320  141.9610 C   0  0  2  0  0  3  0  0  0  0  0  0
  191.9280  173.9470  142.5150 C   0  0  2  0  0  3  0  0  0  0  0  0
  191.3290  172.5270  140.3590 C   0  0  2  0  0  3  0  0  0  0  0  0
  191.2180  174.5960  144.7230 O   0  0  0  0  0  0  0  0  0  0  0  0
  189.4900  174.3850  143.0530 C   0  0  0  0  0  2  0  0  0  0  0  0
  192.2120  174.8130  143.7450 C   0  0  1  0  0  3  0  0  0  0  0  0
  190.1370  173.3900  140.8330 C   0  0  2  0  0  3  0  0  0  0  0  0
  190.0330  175.1860  144.2460 C   0  0  1  0  0  3  0  0  0  0  0  0
  192.6420  173.3700  140.3350 C   0  0  2  0  0  3  0  0  0  0  0  0
  194.4130  172.8410  138.4800 C   0  0  1  0  0  3  0  0  0  0  0  0
  197.3150  173.3800  140.6100 N   0  0  0  0  0  1  0  0  0  0  0  0
  195.0200  172.7920  140.7780 N   0  0  0  0  0  0  0  0  0  0  0  0
  196.0330  173.1110  140.0520 C   0  0  0  0  0  0  0  0  0  0  0  0
  195.7760  173.1670  138.6990 O   0  0  0  0  0  0  0  0  0  0  0  0
  193.8730  172.5510  139.9060 C   0  0  1  0  0  3  0  0  0  0  0  0
  194.4630  175.2660  137.7180 C   0  0  0  0  0  1  0  0  0  0  0  0
  193.7100  173.9460  137.6780 C   0  0  0  0  0  2  0  0  0  0  0  0
  189.8150  170.9060  139.2000 C   0  0  0  0  0  2  0  0  0  0  0  0
  191.6090  169.8410  140.3470 O   0  0  0  0  0  1  0  0  0  0  0  0
  191.1910  170.2840  139.0860 C   0  0  2  0  0  3  0  0  0  0  0  0
  191.0220  171.8080  139.0350 C   0  0  2  0  0  3  0  0  0  0  0  0
  188.9870  175.2980  145.3580 C   0  0  1  0  0  3  0  0  0  0  0  0
  189.3860  174.5600  146.6310 C   0  0  0  0  0  1  0  0  0  0  0  0
  188.5290  176.7380  145.6190 C   0  0  0  0  0  2  0  0  0  0  0  0
  187.0780  177.0150  145.2240 C   0  0  2  0  0  3  0  0  0  0  0  0
  186.1860  176.1170  143.2010 O   0  0  0  0  0  0  0  0  0  0  0  0
  186.9380  176.9820  143.7310 C   0  0  0  0  0  0  0  0  0  0  0  0
  188.1310  177.5470  141.6580 C   0  0  0  0  0  1  0  0  0  0  0  0
  187.6550  177.8890  142.9520 O   0  0  0  0  0  0  0  0  0  0  0  0
  186.6970  178.2930  145.7220 O   0  0  0  0  0  0  0  0  0  0  0  0
  185.4270  178.8400  145.5080 C   0  0  0  0  0  0  0  0  0  0  0  0
  184.2590  178.2930  146.2470 C   0  0  0  0  0  1  0  0  0  0  0  0
  185.2570  179.7770  144.6820 O   0  0  0  0  0  0  0  0  0  0  0  0
  193.6210  174.5750  144.3140 C   0  0  1  0  0  3  0  0  0  0  0  0
  194.3880  175.9060  144.3410 C   0  0  2  0  0  3  0  0  0  0  0  0
  195.5080  175.9720  143.3340 C   0  0  0  0  0  0  0  0  0  0  0  0
  196.8090  175.6340  143.6880 O   0  0  0  0  0  1  0  0  0  0  0  0
  195.2600  176.3140  142.1460 O   0  0  0  0  0  0  0  0  0  0  0  0
  194.8720  176.1830  145.6280 O   0  0  0  0  0  0  0  0  0  0  0  0
  194.6380  177.5500  145.8150 C   0  0  0  0  0  1  0  0  0  0  0  0
  193.6120  173.8870  145.6900 C   0  0  0  0  0  2  0  0  0  0  0  0
  195.5410  172.4070  145.6740 N   0  0  0  0  0  1  0  0  0  0  0  0
  194.0940  172.4550  145.5670 C   0  0  0  0  0  2  0  0  0  0  0  0
  3  4  1  0  0  0  0
  3  7  1  1  0  0  0
  4  1  1  6  0  0  0
  4  8  1  0  0  0  0
  5 23  1  6  0  0  0
  5  9  1  0  0  0  0
  7 10  1  0  0  0  0
  8 36  1  1  0  0  0
  8  6  1  0  0  0  0
  9  2  1  6  0  0  0
  9  3  1  0  0  0  0
 10  6  1  0  0  0  0
 10 24  1  1  0  0  0
 11  5  1  0  0  0  0
 11  1  1  1  0  0  0
 12 19  1  1  0  0  0
 12 16  1  0  0  0  0
 12 17  1  0  0  0  0
 15 13  1  0  0  0  0
 15 14  2  0  0  0  0
 16 15  1  0  0  0  0
 17 11  1  0  0  0  0
 17 14  1  1  0  0  0
 19 18  1  0  0  0  0
 22 20  1  0  0  0  0
 22 21  1  1  0  0  0
 23 22  1  0  0  0  0
 23 20  1  1  0  0  0
 24 26  1  0  0  0  0
 24 25  1  1  0  0  0
 27 26  1  6  0  0  0
 27 32  1  0  0  0  0
 28 29  2  0  0  0  0
 29 27  1  0  0  0  0
 30 31  1  0  0  0  0
 31 29  1  0  0  0  0
 33 32  1  0  0  0  0
 33 34  1  0  0  0  0
 35 33  2  0  0  0  0
 36 37  1  0  0  0  0
 36 43  1  1  0  0  0
 37 38  1  6  0  0  0
 37 41  1  0  0  0  0
 38 39  1  0  0  0  0
 40 38  2  0  0  0  0
 41 42  1  0  0  0  0
 45 44  1  0  0  0  0
 45 43  1  0  0  0  0
M  END
>  <MODEL>
5

>  <REMARK>
 VINA RESULT:      -5.5      2.309      5.834
  Name = 
  16 active torsions:
  status: ('A' for Active; 'I' for Inactive)
    1  A    between atoms: C_3  and  C_23
    2  A    between atoms: C_6  and  C_28
    3  A    between atoms: C_6  and  O_33
    4  A    between atoms: C_6  and  C_36
    5  A    between atoms: O_9  and  C_23
    6  A    between atoms: C_12  and  C_30
    7  A    between atoms: C_15  and  C_28
    8  A    between atoms: C_15  and  C_41
    9  A    between atoms: C_17  and  C_35
   10  A    between atoms: C_21  and  C_26
   11  A    between atoms: C_22  and  O_33
   12  A    between atoms: C_23  and  C_42
   13  A    between atoms: C_26  and  C_42
   14  A    between atoms: C_32  and  C_42
   15  A    between atoms: C_36  and  O_37
   16  A    between atoms: C_44  and  C_45
                            x       y       z     vdW  Elec       q    Type
                         _______ _______ _______ _____ _____    ______ ____

>  <TORSDO>
F 16

$$$$
=
 OpenBabel11062420483D

 45 48  0  0  1  0  0  0  0  0999 V2000
  190.0250  175.2210  144.3010 O   0  0  0  0  0  0  0  0  0  0  0  0
  187.0610  174.0560  142.3840 O   0  0  0  0  0  1  0  0  0  0  0  0
  189.4380  173.9940  142.3130 C   0  0  2  0  0  3  0  0  0  0  0  0
  190.4970  174.8490  143.0180 C   0  0  2  0  0  3  0  0  0  0  0  0
  188.2030  176.1550  142.7960 C   0  0  2  0  0  3  0  0  0  0  0  0
  192.2320  173.6700  141.8340 O   0  0  0  0  0  0  0  0  0  0  0  0
  189.9760  173.3490  141.0420 C   0  0  0  0  0  2  0  0  0  0  0  0
  191.7860  174.0280  143.1250 C   0  0  1  0  0  3  0  0  0  0  0  0
  188.1810  174.8130  142.0290 C   0  0  2  0  0  3  0  0  0  0  0  0
  191.3370  172.7030  141.3420 C   0  0  1  0  0  3  0  0  0  0  0  0
  188.7950  175.9610  144.2260 C   0  0  2  0  0  3  0  0  0  0  0  0
  187.7130  177.5320  146.0200 C   0  0  1  0  0  3  0  0  0  0  0  0
  190.6830  177.7630  148.1120 N   0  0  0  0  0  1  0  0  0  0  0  0
  190.0760  177.3340  145.8560 N   0  0  0  0  0  0  0  0  0  0  0  0
  189.7310  177.6080  147.0640 C   0  0  0  0  0  0  0  0  0  0  0  0
  188.3730  177.7410  147.2580 O   0  0  0  0  0  0  0  0  0  0  0  0
  188.8760  177.2740  145.0250 C   0  0  1  0  0  3  0  0  0  0  0  0
  185.2320  176.9910  146.1430 C   0  0  0  0  0  1  0  0  0  0  0  0
  186.6470  176.4350  146.1480 C   0  0  0  0  0  2  0  0  0  0  0  0
  186.4010  177.1120  141.3440 C   0  0  0  0  0  2  0  0  0  0  0  0
  188.1300  178.6760  141.8290 O   0  0  0  0  0  1  0  0  0  0  0  0
  186.8450  178.2720  142.2100 C   0  0  2  0  0  3  0  0  0  0  0  0
  186.8290  176.8460  142.7750 C   0  0  2  0  0  3  0  0  0  0  0  0
  191.9040  172.0090  140.1000 C   0  0  1  0  0  3  0  0  0  0  0  0
  193.2480  171.3350  140.3530 C   0  0  0  0  0  1  0  0  0  0  0  0
  190.8950  171.0880  139.4040 C   0  0  0  0  0  2  0  0  0  0  0  0
  190.6130  171.4550  137.9460 C   0  0  2  0  0  3  0  0  0  0  0  0
  191.0860  169.4000  136.8280 O   0  0  0  0  0  0  0  0  0  0  0  0
  191.4360  170.5960  137.0330 C   0  0  0  0  0  0  0  0  0  0  0  0
  192.6580  171.3680  135.0450 C   0  0  0  0  0  1  0  0  0  0  0  0
  192.5850  171.1230  136.4420 O   0  0  0  0  0  0  0  0  0  0  0  0
  190.9300  172.8270  137.7440 O   0  0  0  0  0  0  0  0  0  0  0  0
  190.0110  173.7480  137.2290 C   0  0  0  0  0  0  0  0  0  0  0  0
  188.6060  173.7320  137.7160 C   0  0  0  0  0  1  0  0  0  0  0  0
  190.3520  174.5770  136.3430 O   0  0  0  0  0  0  0  0  0  0  0  0
  192.8820  174.7640  143.9130 C   0  0  1  0  0  3  0  0  0  0  0  0
  193.0820  174.0700  145.2690 C   0  0  2  0  0  3  0  0  0  0  0  0
  192.9700  175.0080  146.4440 C   0  0  0  0  0  0  0  0  0  0  0  0
  193.9010  176.0200  146.6430 O   0  0  0  0  0  0  0  0  0  0  0  0
  192.0040  174.8900  147.2460 O   0  0  0  0  0  1  0  0  0  0  0  0
  194.3040  173.3820  145.3090 O   0  0  0  0  0  0  0  0  0  0  0  0
  193.9550  172.0290  145.3850 C   0  0  0  0  0  1  0  0  0  0  0  0
  194.2030  174.8990  143.1360 C   0  0  0  0  0  2  0  0  0  0  0  0
  196.0830  176.2450  143.8870 N   0  0  0  0  0  1  0  0  0  0  0  0
  194.7620  176.3000  143.2880 C   0  0  0  0  0  2  0  0  0  0  0  0
  3  7  1  6  0  0  0
  3  4  1  0  0  0  0
  4  8  1  0  0  0  0
  4  1  1  1  0  0  0
  5 23  1  1  0  0  0
  5 11  1  0  0  0  0
  6  8  1  0  0  0  0
  7 10  1  0  0  0  0
  8 36  1  6  0  0  0
  9  3  1  0  0  0  0
  9  2  1  1  0  0  0
  9  5  1  0  0  0  0
 10 24  1  6  0  0  0
 10  6  1  0  0  0  0
 11  1  1  6  0  0  0
 11 17  1  0  0  0  0
 12 19  1  1  0  0  0
 12 16  1  0  0  0  0
 14 15  2  0  0  0  0
 15 16  1  0  0  0  0
 15 13  1  0  0  0  0
 17 14  1  1  0  0  0
 17 12  1  0  0  0  0
 18 19  1  0  0  0  0
 20 22  1  0  0  0  0
 22 21  1  6  0  0  0
 22 23  1  0  0  0  0
 23 20  1  6  0  0  0
 24 25  1  1  0  0  0
 26 24  1  0  0  0  0
 27 26  1  1  0  0  0
 28 29  2  0  0  0  0
 29 27  1  0  0  0  0
 30 31  1  0  0  0  0
 31 29  1  0  0  0  0
 32 27  1  0  0  0  0
 33 34  1  0  0  0  0
 33 32  1  0  0  0  0
 35 33  2  0  0  0  0
 36 43  1  6  0  0  0
 36 37  1  0  0  0  0
 37 41  1  6  0  0  0
 37 38  1  0  0  0  0
 38 39  2  0  0  0  0
 38 40  1  0  0  0  0
 41 42  1  0  0  0  0
 43 45  1  0  0  0  0
 45 44  1  0  0  0  0
M  END
>  <MODEL>
6

>  <REMARK>
 VINA RESULT:      -5.1      3.236      8.553
  Name = 
  16 active torsions:
  status: ('A' for Active; 'I' for Inactive)
    1  A    between atoms: C_3  and  C_23
    2  A    between atoms: C_6  and  C_28
    3  A    between atoms: C_6  and  O_33
    4  A    between atoms: C_6  and  C_36
    5  A    between atoms: O_9  and  C_23
    6  A    between atoms: C_12  and  C_30
    7  A    between atoms: C_15  and  C_28
    8  A    between atoms: C_15  and  C_41
    9  A    between atoms: C_17  and  C_35
   10  A    between atoms: C_21  and  C_26
   11  A    between atoms: C_22  and  O_33
   12  A    between atoms: C_23  and  C_42
   13  A    between atoms: C_26  and  C_42
   14  A    between atoms: C_32  and  C_42
   15  A    between atoms: C_36  and  O_37
   16  A    between atoms: C_44  and  C_45
                            x       y       z     vdW  Elec       q    Type
                         _______ _______ _______ _____ _____    ______ ____

>  <TORSDO>
F 16

$$$$
=
 OpenBabel11062420483D

 45 48  0  0  1  0  0  0  0  0999 V2000
  192.9260  172.8130  142.4980 O   0  0  0  0  0  0  0  0  0  0  0  0
  191.4900  172.4680  139.0880 O   0  0  0  0  0  1  0  0  0  0  0  0
  191.0210  173.4850  141.1860 C   0  0  2  0  0  3  0  0  0  0  0  0
  191.5700  173.2120  142.5910 C   0  0  2  0  0  3  0  0  0  0  0  0
  191.7800  171.0700  141.0470 C   0  0  2  0  0  3  0  0  0  0  0  0
  190.0710  174.8670  143.4950 O   0  0  0  0  0  0  0  0  0  0  0  0
  189.6550  174.1590  141.2260 C   0  0  0  0  0  2  0  0  0  0  0  0
  191.4300  174.4920  143.4200 C   0  0  1  0  0  3  0  0  0  0  0  0
  190.9800  172.2010  140.3610 C   0  0  2  0  0  3  0  0  0  0  0  0
  189.7000  175.3300  142.2190 C   0  0  1  0  0  3  0  0  0  0  0  0
  193.0840  171.6330  141.6930 C   0  0  2  0  0  3  0  0  0  0  0  0
  195.3580  170.3530  141.9160 C   0  0  1  0  0  3  0  0  0  0  0  0
  195.7900  171.0350  145.4660 N   0  0  0  0  0  1  0  0  0  0  0  0
  194.0630  170.8610  143.8440 N   0  0  0  0  0  0  0  0  0  0  0  0
  195.3130  170.8120  144.1430 C   0  0  0  0  0  0  0  0  0  0  0  0
  196.1460  170.5230  143.0830 O   0  0  0  0  0  0  0  0  0  0  0  0
  193.9050  170.5550  142.4240 C   0  0  1  0  0  3  0  0  0  0  0  0
  195.9630  170.5630  139.4560 C   0  0  0  0  0  1  0  0  0  0  0  0
  195.8400  171.2800  140.7910 C   0  0  0  0  0  2  0  0  0  0  0  0
  190.6910  169.3870  139.5470 C   0  0  0  0  0  2  0  0  0  0  0  0
  190.7720  168.6870  141.8210 O   0  0  0  0  0  1  0  0  0  0  0  0
  191.4150  168.5550  140.5850 C   0  0  2  0  0  3  0  0  0  0  0  0
  192.0140  169.8810  140.0990 C   0  0  2  0  0  3  0  0  0  0  0  0
  188.3570  176.0640  142.2680 C   0  0  1  0  0  3  0  0  0  0  0  0
  187.1800  175.1390  142.5550 C   0  0  0  0  0  1  0  0  0  0  0  0
  188.3750  177.3060  143.1670 C   0  0  0  0  0  2  0  0  0  0  0  0
  187.1710  177.4190  144.1030 C   0  0  2  0  0  3  0  0  0  0  0  0
  186.2680  178.9100  142.4730 O   0  0  0  0  0  0  0  0  0  0  0  0
  186.3070  178.5730  143.6890 C   0  0  0  0  0  0  0  0  0  0  0  0
  184.1730  179.1010  144.7890 C   0  0  0  0  0  1  0  0  0  0  0  0
  185.5770  179.2680  144.6540 O   0  0  0  0  0  0  0  0  0  0  0  0
  187.6350  177.6090  145.4350 O   0  0  0  0  0  0  0  0  0  0  0  0
  187.2800  176.7580  146.4870 C   0  0  0  0  0  0  0  0  0  0  0  0
  185.9780  176.9510  147.1790 C   0  0  0  0  0  1  0  0  0  0  0  0
  188.0570  175.8420  146.8700 O   0  0  0  0  0  0  0  0  0  0  0  0
  192.0510  174.3510  144.8200 C   0  0  1  0  0  3  0  0  0  0  0  0
  193.2710  175.2790  144.9290 C   0  0  2  0  0  3  0  0  0  0  0  0
  193.3030  176.3510  143.8700 C   0  0  0  0  0  0  0  0  0  0  0  0
  192.5040  177.4830  143.9730 O   0  0  0  0  0  1  0  0  0  0  0  0
  194.0850  176.2340  142.8870 O   0  0  0  0  0  0  0  0  0  0  0  0
  194.4660  174.5450  144.9160 O   0  0  0  0  0  0  0  0  0  0  0  0
  195.1520  174.9540  146.0660 C   0  0  0  0  0  1  0  0  0  0  0  0
  191.0440  174.5900  145.9580 C   0  0  0  0  0  2  0  0  0  0  0  0
  191.1780  175.3740  148.2560 N   0  0  0  0  0  1  0  0  0  0  0  0
  191.5440  175.6800  146.8840 C   0  0  0  0  0  2  0  0  0  0  0  0
  3  7  1  1  0  0  0
  3  4  1  0  0  0  0
  4  1  1  6  0  0  0
  4  8  1  0  0  0  0
  5 23  1  6  0  0  0
  5 11  1  0  0  0  0
  7 10  1  0  0  0  0
  8  6  1  0  0  0  0
  8 36  1  1  0  0  0
  9  2  1  6  0  0  0
  9  5  1  0  0  0  0
  9  3  1  0  0  0  0
 10 24  1  1  0  0  0
 10  6  1  0  0  0  0
 11 17  1  0  0  0  0
 11  1  1  1  0  0  0
 12 19  1  6  0  0  0
 12 17  1  0  0  0  0
 12 16  1  0  0  0  0
 14 15  2  0  0  0  0
 15 13  1  0  0  0  0
 16 15  1  0  0  0  0
 17 14  1  1  0  0  0
 18 19  1  0  0  0  0
 20 22  1  0  0  0  0
 22 21  1  1  0  0  0
 23 20  1  6  0  0  0
 23 22  1  0  0  0  0
 24 25  1  1  0  0  0
 24 26  1  0  0  0  0
 27 26  1  6  0  0  0
 27 32  1  0  0  0  0
 28 29  2  0  0  0  0
 29 27  1  0  0  0  0
 29 31  1  0  0  0  0
 31 30  1  0  0  0  0
 32 33  1  0  0  0  0
 33 35  2  0  0  0  0
 33 34  1  0  0  0  0
 36 37  1  0  0  0  0
 36 43  1  1  0  0  0
 37 38  1  6  0  0  0
 38 39  1  0  0  0  0
 40 38  2  0  0  0  0
 41 37  1  0  0  0  0
 41 42  1  0  0  0  0
 43 45  1  0  0  0  0
 45 44  1  0  0  0  0
M  END
>  <MODEL>
7

>  <REMARK>
 VINA RESULT:      -5.0      2.307      5.147
  Name = 
  16 active torsions:
  status: ('A' for Active; 'I' for Inactive)
    1  A    between atoms: C_3  and  C_23
    2  A    between atoms: C_6  and  C_28
    3  A    between atoms: C_6  and  O_33
    4  A    between atoms: C_6  and  C_36
    5  A    between atoms: O_9  and  C_23
    6  A    between atoms: C_12  and  C_30
    7  A    between atoms: C_15  and  C_28
    8  A    between atoms: C_15  and  C_41
    9  A    between atoms: C_17  and  C_35
   10  A    between atoms: C_21  and  C_26
   11  A    between atoms: C_22  and  O_33
   12  A    between atoms: C_23  and  C_42
   13  A    between atoms: C_26  and  C_42
   14  A    between atoms: C_32  and  C_42
   15  A    between atoms: C_36  and  O_37
   16  A    between atoms: C_44  and  C_45
                            x       y       z     vdW  Elec       q    Type
                         _______ _______ _______ _____ _____    ______ ____

>  <TORSDO>
F 16

$$$$
=
 OpenBabel11062420483D

 45 48  0  0  1  0  0  0  0  0999 V2000
  190.4470  174.5140  143.8390 O   0  0  0  0  0  0  0  0  0  0  0  0
  187.0520  174.0930  142.3860 O   0  0  0  0  0  1  0  0  0  0  0  0
  189.3230  173.5360  141.9470 C   0  0  2  0  0  3  0  0  0  0  0  0
  190.6330  174.1140  142.4930 C   0  0  2  0  0  3  0  0  0  0  0  0
  188.6660  175.8820  142.6490 C   0  0  2  0  0  3  0  0  0  0  0  0
  191.8800  172.6570  141.0360 O   0  0  0  0  0  0  0  0  0  0  0  0
  189.5160  172.8550  140.5970 C   0  0  0  0  0  2  0  0  0  0  0  0
  191.7170  173.0370  142.3850 C   0  0  1  0  0  3  0  0  0  0  0  0
  188.2440  174.6140  141.8730 C   0  0  2  0  0  3  0  0  0  0  0  0
  190.7340  171.9240  140.6720 C   0  0  1  0  0  3  0  0  0  0  0  0
  189.4070  175.4990  143.9670 C   0  0  2  0  0  3  0  0  0  0  0  0
  189.0770  177.0540  146.0490 C   0  0  1  0  0  3  0  0  0  0  0  0
  192.4950  176.7380  147.2600 N   0  0  0  0  0  1  0  0  0  0  0  0
  191.2590  176.5650  145.2400 N   0  0  0  0  0  0  0  0  0  0  0  0
  191.2880  176.7870  146.5060 C   0  0  0  0  0  0  0  0  0  0  0  0
  190.0640  177.0800  147.0670 O   0  0  0  0  0  0  0  0  0  0  0  0
  189.8860  176.7250  144.7650 C   0  0  1  0  0  3  0  0  0  0  0  0
  186.5890  176.7980  146.5030 C   0  0  0  0  0  1  0  0  0  0  0  0
  187.9350  176.0970  146.4190 C   0  0  0  0  0  2  0  0  0  0  0  0
  186.8730  177.2100  141.5130 C   0  0  0  0  0  2  0  0  0  0  0  0
  188.9480  178.3710  141.6390 O   0  0  0  0  0  1  0  0  0  0  0  0
  187.6970  178.2430  142.2540 C   0  0  2  0  0  3  0  0  0  0  0  0
  187.4860  176.8470  142.8520 C   0  0  2  0  0  3  0  0  0  0  0  0
  190.9490  171.1880  139.3470 C   0  0  1  0  0  3  0  0  0  0  0  0
  191.6740  169.8560  139.5130 C   0  0  0  0  0  1  0  0  0  0  0  0
  189.6760  171.0750  138.5010 C   0  0  0  0  0  2  0  0  0  0  0  0
  189.7520  171.7970  137.1550 C   0  0  2  0  0  3  0  0  0  0  0  0
  190.8080  170.0130  135.9730 O   0  0  0  0  0  0  0  0  0  0  0  0
  190.8640  171.2230  136.3280 C   0  0  0  0  0  0  0  0  0  0  0  0
  192.1330  172.5060  134.6590 C   0  0  0  0  0  1  0  0  0  0  0  0
  191.9510  172.0270  135.9840 O   0  0  0  0  0  0  0  0  0  0  0  0
  189.9780  173.1830  137.3840 O   0  0  0  0  0  0  0  0  0  0  0  0
  189.0780  174.1730  136.9740 C   0  0  0  0  0  0  0  0  0  0  0  0
  187.9430  174.5440  137.8590 C   0  0  0  0  0  1  0  0  0  0  0  0
  189.2050  174.7410  135.8560 O   0  0  0  0  0  0  0  0  0  0  0  0
  193.0490  173.4870  143.0070 C   0  0  1  0  0  3  0  0  0  0  0  0
  193.6660  172.3140  143.7860 C   0  0  2  0  0  3  0  0  0  0  0  0
  194.0880  172.6830  145.1860 C   0  0  0  0  0  0  0  0  0  0  0  0
  193.4690  173.7220  145.8700 O   0  0  0  0  0  1  0  0  0  0  0  0
  194.9990  172.0230  145.7560 O   0  0  0  0  0  0  0  0  0  0  0  0
  194.7420  171.7510  143.0850 O   0  0  0  0  0  0  0  0  0  0  0  0
  194.3240  170.4540  142.7650 C   0  0  0  0  0  1  0  0  0  0  0  0
  194.0320  174.0730  141.9790 C   0  0  0  0  0  2  0  0  0  0  0  0
  193.4540  176.3950  142.4060 N   0  0  0  0  0  1  0  0  0  0  0  0
  194.5340  175.4260  142.4420 C   0  0  0  0  0  2  0  0  0  0  0  0
  3  7  1  6  0  0  0
  3  4  1  0  0  0  0
  4  1  1  1  0  0  0
  5 23  1  1  0  0  0
  5 11  1  0  0  0  0
  6  8  1  0  0  0  0
  7 10  1  0  0  0  0
  8  4  1  0  0  0  0
  8 36  1  6  0  0  0
  9  3  1  0  0  0  0
  9  2  1  1  0  0  0
  9  5  1  0  0  0  0
 10 24  1  6  0  0  0
 10  6  1  0  0  0  0
 11  1  1  6  0  0  0
 11 17  1  0  0  0  0
 12 19  1  1  0  0  0
 12 16  1  0  0  0  0
 14 15  2  0  0  0  0
 15 16  1  0  0  0  0
 15 13  1  0  0  0  0
 17 14  1  1  0  0  0
 17 12  1  0  0  0  0
 19 18  1  0  0  0  0
 20 22  1  0  0  0  0
 22 21  1  6  0  0  0
 22 23  1  0  0  0  0
 23 20  1  6  0  0  0
 24 25  1  1  0  0  0
 26 24  1  0  0  0  0
 27 32  1  0  0  0  0
 27 26  1  1  0  0  0
 28 29  2  0  0  0  0
 29 27  1  0  0  0  0
 30 31  1  0  0  0  0
 31 29  1  0  0  0  0
 33 32  1  0  0  0  0
 33 34  1  0  0  0  0
 35 33  2  0  0  0  0
 36 43  1  6  0  0  0
 36 37  1  0  0  0  0
 37 41  1  6  0  0  0
 37 38  1  0  0  0  0
 38 40  2  0  0  0  0
 38 39  1  0  0  0  0
 42 41  1  0  0  0  0
 43 45  1  0  0  0  0
 44 45  1  0  0  0  0
M  END
>  <MODEL>
8

>  <REMARK>
 VINA RESULT:      -5.0      3.154      8.047
  Name = 
  16 active torsions:
  status: ('A' for Active; 'I' for Inactive)
    1  A    between atoms: C_3  and  C_23
    2  A    between atoms: C_6  and  C_28
    3  A    between atoms: C_6  and  O_33
    4  A    between atoms: C_6  and  C_36
    5  A    between atoms: O_9  and  C_23
    6  A    between atoms: C_12  and  C_30
    7  A    between atoms: C_15  and  C_28
    8  A    between atoms: C_15  and  C_41
    9  A    between atoms: C_17  and  C_35
   10  A    between atoms: C_21  and  C_26
   11  A    between atoms: C_22  and  O_33
   12  A    between atoms: C_23  and  C_42
   13  A    between atoms: C_26  and  C_42
   14  A    between atoms: C_32  and  C_42
   15  A    between atoms: C_36  and  O_37
   16  A    between atoms: C_44  and  C_45
                            x       y       z     vdW  Elec       q    Type
                         _______ _______ _______ _____ _____    ______ ____

>  <TORSDO>
F 16

$$$$
=
 OpenBabel11062420483D

 45 48  0  0  1  0  0  0  0  0999 V2000
  193.6490  173.2160  143.5900 O   0  0  0  0  0  0  0  0  0  0  0  0
  194.5280  176.2040  145.6170 O   0  0  0  0  0  1  0  0  0  0  0  0
  192.7890  175.3750  144.2210 C   0  0  2  0  0  3  0  0  0  0  0  0
  192.7730  174.2510  143.1790 C   0  0  2  0  0  3  0  0  0  0  0  0
  195.2190  175.2130  143.5160 C   0  0  2  0  0  3  0  0  0  0  0  0
  190.4880  174.7860  142.6410 O   0  0  0  0  0  0  0  0  0  0  0  0
  191.6870  176.3980  143.9770 C   0  0  0  0  0  2  0  0  0  0  0  0
  191.3370  173.7360  143.0480 C   0  0  1  0  0  3  0  0  0  0  0  0
  194.1610  176.0430  144.2780 C   0  0  2  0  0  3  0  0  0  0  0  0
  190.3610  175.6630  143.7350 C   0  0  1  0  0  3  0  0  0  0  0  0
  194.9970  173.6870  143.7550 C   0  0  2  0  0  3  0  0  0  0  0  0
  197.1080  172.1400  143.8470 C   0  0  1  0  0  3  0  0  0  0  0  0
  195.5480  169.3260  142.1440 N   0  0  0  0  0  1  0  0  0  0  0  0
  195.3440  171.6860  142.3190 N   0  0  0  0  0  0  0  0  0  0  0  0
  195.9380  170.5960  142.6560 C   0  0  0  0  0  0  0  0  0  0  0  0
  196.9800  170.7600  143.5440 O   0  0  0  0  0  0  0  0  0  0  0  0
  196.0010  172.8070  142.9870 C   0  0  1  0  0  3  0  0  0  0  0  0
  196.7660  171.0990  146.1410 C   0  0  0  0  0  1  0  0  0  0  0  0
  197.0520  172.3740  145.3630 C   0  0  0  0  0  2  0  0  0  0  0  0
  196.8100  177.1420  143.4050 C   0  0  0  0  0  2  0  0  0  0  0  0
  196.7520  175.8720  141.3920 O   0  0  0  0  0  1  0  0  0  0  0  0
  197.4720  176.0590  142.5780 C   0  0  2  0  0  3  0  0  0  0  0  0
  196.6480  175.6930  143.8190 C   0  0  2  0  0  3  0  0  0  0  0  0
  189.2120  176.6520  143.5190 C   0  0  1  0  0  3  0  0  0  0  0  0
  187.9760  176.0070  142.9000 C   0  0  0  0  0  1  0  0  0  0  0  0
  188.8910  177.4920  144.7610 C   0  0  0  0  0  2  0  0  0  0  0  0
  188.1500  176.7280  145.8590 C   0  0  2  0  0  3  0  0  0  0  0  0
  186.9230  178.0940  147.3840 O   0  0  0  0  0  0  0  0  0  0  0  0
  186.9270  177.4880  146.2760 C   0  0  0  0  0  0  0  0  0  0  0  0
  184.5570  178.0130  145.8850 C   0  0  0  0  0  1  0  0  0  0  0  0
  185.8060  177.4990  145.4450 O   0  0  0  0  0  0  0  0  0  0  0  0
  189.0200  176.5550  146.9720 O   0  0  0  0  0  0  0  0  0  0  0  0
  189.6250  175.3300  147.2750 C   0  0  0  0  0  0  0  0  0  0  0  0
  191.0810  175.2850  147.5720 C   0  0  0  0  0  1  0  0  0  0  0  0
  188.9560  174.2620  147.2810 O   0  0  0  0  0  0  0  0  0  0  0  0
  191.2340  172.5310  142.0990 C   0  0  1  0  0  3  0  0  0  0  0  0
  191.6560  172.9620  140.6860 C   0  0  2  0  0  3  0  0  0  0  0  0
  190.5900  172.7290  139.6460 C   0  0  0  0  0  0  0  0  0  0  0  0
  189.8880  173.7920  139.0900 O   0  0  0  0  0  0  0  0  0  0  0  0
  190.3470  171.5550  139.2530 O   0  0  0  0  0  1  0  0  0  0  0  0
  192.8530  172.3400  140.3040 O   0  0  0  0  0  0  0  0  0  0  0  0
  193.5620  173.3210  139.6020 C   0  0  0  0  0  1  0  0  0  0  0  0
  192.0240  171.3040  142.5860 C   0  0  0  0  0  2  0  0  0  0  0  0
  192.0900  168.8750  142.5100 N   0  0  0  0  0  1  0  0  0  0  0  0
  191.2350  170.0350  142.3330 C   0  0  0  0  0  2  0  0  0  0  0  0
  3  7  1  6  0  0  0
  3  9  1  0  0  0  0
  4  1  1  1  0  0  0
  4  3  1  0  0  0  0
  5 11  1  0  0  0  0
  5 23  1  1  0  0  0
  5  9  1  0  0  0  0
  6  8  1  0  0  0  0
  6 10  1  0  0  0  0
  8 36  1  6  0  0  0
  8  4  1  0  0  0  0
  9  2  1  1  0  0  0
 10 24  1  6  0  0  0
 10  7  1  0  0  0  0
 11  1  1  6  0  0  0
 12 19  1  1  0  0  0
 13 15  1  0  0  0  0
 14 15  2  0  0  0  0
 15 16  1  0  0  0  0
 16 12  1  0  0  0  0
 17 14  1  1  0  0  0
 17 11  1  0  0  0  0
 17 12  1  0  0  0  0
 19 18  1  0  0  0  0
 22 21  1  6  0  0  0
 22 20  1  0  0  0  0
 22 23  1  0  0  0  0
 23 20  1  1  0  0  0
 24 25  1  1  0  0  0
 24 26  1  0  0  0  0
 27 26  1  6  0  0  0
 27 29  1  0  0  0  0
 27 32  1  0  0  0  0
 29 28  2  0  0  0  0
 31 30  1  0  0  0  0
 31 29  1  0  0  0  0
 32 33  1  0  0  0  0
 33 35  2  0  0  0  0
 33 34  1  0  0  0  0
 36 43  1  1  0  0  0
 37 38  1  6  0  0  0
 37 36  1  0  0  0  0
 39 38  2  0  0  0  0
 40 38  1  0  0  0  0
 41 37  1  0  0  0  0
 42 41  1  0  0  0  0
 45 44  1  0  0  0  0
 45 43  1  0  0  0  0
M  END
>  <MODEL>
9

>  <REMARK>
 VINA RESULT:      -5.0      1.588      2.178
  Name = 
  16 active torsions:
  status: ('A' for Active; 'I' for Inactive)
    1  A    between atoms: C_3  and  C_23
    2  A    between atoms: C_6  and  C_28
    3  A    between atoms: C_6  and  O_33
    4  A    between atoms: C_6  and  C_36
    5  A    between atoms: O_9  and  C_23
    6  A    between atoms: C_12  and  C_30
    7  A    between atoms: C_15  and  C_28
    8  A    between atoms: C_15  and  C_41
    9  A    between atoms: C_17  and  C_35
   10  A    between atoms: C_21  and  C_26
   11  A    between atoms: C_22  and  O_33
   12  A    between atoms: C_23  and  C_42
   13  A    between atoms: C_26  and  C_42
   14  A    between atoms: C_32  and  C_42
   15  A    between atoms: C_36  and  O_37
   16  A    between atoms: C_44  and  C_45
                            x       y       z     vdW  Elec       q    Type
                         _______ _______ _______ _____ _____    ______ ____

>  <TORSDO>
F 16

$$$$
