=
 OpenBabel11072408553D

 45 48  0  0  1  0  0  0  0  0999 V2000
  193.3580  174.6070  144.1570 N   0  0  0  0  0  0  0  0  0  0  0  0
  194.8730  174.7740  146.1010 C   0  0  0  0  0  2  0  0  0  0  0  0
  191.1960  175.5150  144.0770 N   0  0  0  0  0  2  0  0  0  0  0  0
  194.7410  174.4460  144.6140 C   0  0  1  0  0  3  0  0  0  0  0  0
  194.2510  176.1370  146.3740 C   0  0  1  0  0  3  0  0  0  0  0  0
  192.4830  175.4070  144.6940 C   0  0  0  0  0  0  0  0  0  0  0  0
  191.9520  175.5520  147.1180 C   0  0  0  0  0  1  0  0  0  0  0  0
  194.9360  177.1340  145.6760 O   0  0  0  0  0  1  0  0  0  0  0  0
  192.7720  176.1460  145.9850 C   0  0  1  0  0  3  0  0  0  0  0  0
  194.1190  172.1660  143.7370 C   0  0  1  0  0  3  0  0  0  0  0  0
  194.9370  171.1570  145.7770 N   0  0  0  0  0  2  0  0  0  0  0  0
  194.0030  171.0720  144.7240 C   0  0  0  0  0  0  0  0  0  0  0  0
  195.2470  173.0350  144.3080 C   0  0  2  0  0  3  0  0  0  0  0  0
  197.2010  171.9470  145.4240 C   0  0  0  0  0  1  0  0  0  0  0  0
  193.1470  170.1500  144.6540 O   0  0  0  0  0  0  0  0  0  0  0  0
  195.7470  172.3460  145.5920 C   0  0  2  0  0  3  0  0  0  0  0  0
  194.5480  171.6240  142.3820 C   0  0  0  0  0  2  0  0  0  0  0  0
  191.6900  171.3870  140.7750 N   0  0  0  0  0  0  0  0  0  0  0  0
  192.0010  170.7750  138.4890 C   0  0  0  0  0  2  0  0  0  0  0  0
  190.1850  170.6850  138.6710 S   0  0  0  0  0  0  0  0  0  0  0  0
  192.3320  172.4000  141.5930 C   0  0  0  0  0  2  0  0  0  0  0  0
  192.6040  170.7100  139.8900 C   0  0  1  0  0  3  0  0  0  0  0  0
  193.8980  171.4950  139.9680 C   0  0  0  0  0  2  0  0  0  0  0  0
  189.3850  172.7370  140.6460 S   0  0  0  0  0  0  0  0  0  0  0  0
  193.8100  172.3240  141.2500 C   0  0  2  0  0  3  0  0  0  0  0  0
  190.3720  171.4940  140.2490 C   0  0  0  0  0  0  0  0  0  0  0  0
  190.1810  176.4790  144.4950 C   0  0  1  0  0  3  0  0  0  0  0  0
  190.5070  178.7650  143.8540 O   0  0  0  0  0  0  0  0  0  0  0  0
  190.0750  177.6230  143.5320 C   0  0  0  0  0  0  0  0  0  0  0  0
  189.5520  177.3930  142.2590 O   0  0  0  0  0  0  0  0  0  0  0  0
  188.5220  178.2040  141.7150 C   0  0  0  0  0  2  0  0  0  0  0  0
  187.3480  176.0080  141.5700 O   0  0  0  0  0  1  0  0  0  0  0  0
  186.6390  177.7950  140.3180 O   0  0  0  0  0  0  0  0  0  0  0  0
  187.4420  177.3370  141.1730 C   0  0  0  0  0  0  0  0  0  0  0  0
  188.8320  175.7910  144.6960 C   0  0  0  0  0  2  0  0  0  0  0  0
  187.7780  176.7390  145.2700 C   0  0  0  0  0  2  0  0  0  0  0  0
  188.2710  175.4760  147.2530 O   0  0  0  0  0  1  0  0  0  0  0  0
  187.7100  176.6680  146.7950 C   0  0  2  0  0  3  0  0  0  0  0  0
  186.2830  176.7970  147.3100 C   0  0  0  0  0  2  0  0  0  0  0  0
  185.8490  178.1820  147.2410 N   0  0  0  0  0  2  0  0  0  0  0  0
  184.4680  178.1610  146.7900 C   0  0  0  0  0  2  0  0  0  0  0  0
  184.3710  178.7340  145.3830 C   0  0  2  0  0  3  0  0  0  0  0  0
  184.4380  177.7110  144.4320 O   0  0  0  0  0  1  0  0  0  0  0  0
  185.8960  179.8070  143.6760 C   0  0  0  0  0  1  0  0  0  0  0  0
  185.4680  179.7670  145.1360 C   0  0  0  0  0  2  0  0  0  0  0  0
  1  4  1  0  0  0  0
  1  6  2  0  0  0  0
  2  5  1  0  0  0  0
  3 27  1  0  0  0  0
  3  6  1  0  0  0  0
  4  2  1  1  0  0  0
  5  8  1  6  0  0  0
  6  9  1  0  0  0  0
  9  5  1  0  0  0  0
  9  7  1  1  0  0  0
 10 17  1  6  0  0  0
 10 13  1  0  0  0  0
 10 12  1  0  0  0  0
 12 11  1  0  0  0  0
 13  4  1  1  0  0  0
 13 16  1  0  0  0  0
 15 12  2  0  0  0  0
 16 14  1  6  0  0  0
 16 11  1  0  0  0  0
 18 21  1  0  0  0  0
 19 20  1  0  0  0  0
 20 26  1  0  0  0  0
 22 19  1  6  0  0  0
 22 23  1  0  0  0  0
 22 18  1  0  0  0  0
 23 25  1  0  0  0  0
 25 21  1  0  0  0  0
 25 17  1  1  0  0  0
 26 24  2  0  0  0  0
 26 18  1  0  0  0  0
 27 35  1  6  0  0  0
 29 28  2  0  0  0  0
 29 27  1  0  0  0  0
 30 29  1  0  0  0  0
 31 30  1  0  0  0  0
 33 34  2  0  0  0  0
 34 32  1  0  0  0  0
 34 31  1  0  0  0  0
 35 36  1  0  0  0  0
 36 38  1  0  0  0  0
 38 37  1  6  0  0  0
 38 39  1  0  0  0  0
 40 39  1  0  0  0  0
 41 40  1  0  0  0  0
 42 43  1  6  0  0  0
 42 41  1  0  0  0  0
 44 45  1  0  0  0  0
 45 42  1  0  0  0  0
M  END
>  <MODEL>
1

>  <REMARK>
 VINA RESULT:      -6.5      0.000      0.000
  Name = 
  16 active torsions:
  status: ('A' for Active; 'I' for Inactive)
    1  A    between atoms: C_1  and  C_9
    2  A    between atoms: C_2  and  C_19
    3  A    between atoms: C_2  and  C_38
    4  A    between atoms: C_6  and  C_28
    5  A    between atoms: C_6  and  N_41
    6  A    between atoms: C_9  and  C_32
    7  A    between atoms: N_12  and  C_43
    8  A    between atoms: C_14  and  C_37
    9  A    between atoms: C_15  and  C_28
   10  A    between atoms: C_15  and  C_35
   11  A    between atoms: O_17  and  C_39
   12  A    between atoms: O_17  and  C_40
   13  A    between atoms: C_34  and  C_40
   14  A    between atoms: C_35  and  C_43
   15  A    between atoms: C_38  and  N_41
   16  A    between atoms: C_39  and  C_43
                            x       y       z     vdW  Elec       q    Type
                         _______ _______ _______ _____ _____    ______ ____

>  <TORSDO>
F 16

$$$$
=
 OpenBabel11072408553D

 45 48  0  0  1  0  0  0  0  0999 V2000
  191.1100  174.4160  142.7560 N   0  0  0  0  0  0  0  0  0  0  0  0
  191.2110  172.5870  144.4140 C   0  0  0  0  0  2  0  0  0  0  0  0
  192.0710  174.3240  140.6180 N   0  0  0  0  0  2  0  0  0  0  0  0
  190.5490  173.9040  144.0100 C   0  0  1  0  0  3  0  0  0  0  0  0
  191.1680  171.6200  143.2390 C   0  0  1  0  0  3  0  0  0  0  0  0
  191.6460  173.6820  141.8250 C   0  0  0  0  0  0  0  0  0  0  0  0
  193.3920  171.9480  142.1770 C   0  0  0  0  0  1  0  0  0  0  0  0
  189.8470  171.3220  142.9000 O   0  0  0  0  0  1  0  0  0  0  0  0
  191.9010  172.2020  142.0300 C   0  0  1  0  0  3  0  0  0  0  0  0
  189.8110  176.1820  144.7990 C   0  0  1  0  0  3  0  0  0  0  0  0
  192.1230  176.8630  144.9980 N   0  0  0  0  0  2  0  0  0  0  0  0
  190.8020  177.2750  144.7250 C   0  0  0  0  0  0  0  0  0  0  0  0
  190.6700  174.9510  145.1190 C   0  0  2  0  0  3  0  0  0  0  0  0
  192.6220  175.1740  146.6640 C   0  0  0  0  0  1  0  0  0  0  0  0
  190.5140  178.4670  144.4340 O   0  0  0  0  0  0  0  0  0  0  0  0
  192.1260  175.4350  145.2550 C   0  0  2  0  0  3  0  0  0  0  0  0
  188.8360  176.4170  145.9430 C   0  0  0  0  0  2  0  0  0  0  0  0
  186.3700  177.9830  144.4360 N   0  0  0  0  0  0  0  0  0  0  0  0
  184.5150  178.3370  145.8960 C   0  0  0  0  0  2  0  0  0  0  0  0
  184.0330  179.2960  144.4170 S   0  0  0  0  0  0  0  0  0  0  0  0
  187.1600  176.7980  144.1590 C   0  0  0  0  0  2  0  0  0  0  0  0
  186.0250  178.1220  145.8280 C   0  0  1  0  0  3  0  0  0  0  0  0
  186.4220  176.8100  146.4760 C   0  0  0  0  0  2  0  0  0  0  0  0
  185.1550  177.9150  142.0540 S   0  0  0  0  0  0  0  0  0  0  0  0
  187.4030  176.1450  145.5090 C   0  0  2  0  0  3  0  0  0  0  0  0
  185.3880  178.5200  143.5570 C   0  0  0  0  0  0  0  0  0  0  0  0
  192.5550  173.5970  139.4470 C   0  0  1  0  0  3  0  0  0  0  0  0
  191.3780  174.1230  137.4260 O   0  0  0  0  0  0  0  0  0  0  0  0
  191.4640  173.3780  138.4420 C   0  0  0  0  0  0  0  0  0  0  0  0
  190.5900  172.3040  138.6130 O   0  0  0  0  0  0  0  0  0  0  0  0
  189.2120  172.4020  138.2860 C   0  0  0  0  0  2  0  0  0  0  0  0
  188.0740  174.5630  138.7910 O   0  0  0  0  0  0  0  0  0  0  0  0
  188.4400  173.0220  140.4500 O   0  0  0  0  0  1  0  0  0  0  0  0
  188.5420  173.3320  139.2340 C   0  0  0  0  0  0  0  0  0  0  0  0
  193.7530  174.3110  138.8240 C   0  0  0  0  0  2  0  0  0  0  0  0
  194.5250  175.1470  139.8460 C   0  0  0  0  0  2  0  0  0  0  0  0
  196.1690  173.6050  140.6770 O   0  0  0  0  0  1  0  0  0  0  0  0
  196.0020  174.7580  139.9090 C   0  0  2  0  0  3  0  0  0  0  0  0
  196.8650  175.8800  140.4690 C   0  0  0  0  0  2  0  0  0  0  0  0
  196.0690  176.7430  141.3250 N   0  0  0  0  0  2  0  0  0  0  0  0
  196.5660  176.5570  142.6780 C   0  0  0  0  0  2  0  0  0  0  0  0
  195.4220  176.1700  143.6050 C   0  0  2  0  0  3  0  0  0  0  0  0
  195.4380  176.9620  144.7580 O   0  0  0  0  0  1  0  0  0  0  0  0
  196.2130  174.4620  145.2920 C   0  0  0  0  0  1  0  0  0  0  0  0
  195.4920  174.6900  143.9720 C   0  0  0  0  0  2  0  0  0  0  0  0
  1  4  1  0  0  0  0
  3  6  1  0  0  0  0
  4  2  1  1  0  0  0
  5  8  1  6  0  0  0
  5  2  1  0  0  0  0
  6  9  1  0  0  0  0
  6  1  2  0  0  0  0
  9  7  1  1  0  0  0
  9  5  1  0  0  0  0
 10 13  1  0  0  0  0
 10 17  1  1  0  0  0
 11 16  1  0  0  0  0
 12 10  1  0  0  0  0
 12 11  1  0  0  0  0
 13  4  1  6  0  0  0
 13 16  1  0  0  0  0
 15 12  2  0  0  0  0
 16 14  1  1  0  0  0
 18 22  1  0  0  0  0
 20 19  1  0  0  0  0
 21 18  1  0  0  0  0
 21 25  1  0  0  0  0
 22 19  1  6  0  0  0
 22 23  1  0  0  0  0
 24 26  2  0  0  0  0
 25 17  1  1  0  0  0
 25 23  1  0  0  0  0
 26 20  1  0  0  0  0
 26 18  1  0  0  0  0
 27 35  1  6  0  0  0
 27  3  1  0  0  0  0
 28 29  2  0  0  0  0
 29 30  1  0  0  0  0
 29 27  1  0  0  0  0
 31 30  1  0  0  0  0
 31 34  1  0  0  0  0
 32 34  2  0  0  0  0
 34 33  1  0  0  0  0
 35 36  1  0  0  0  0
 36 38  1  0  0  0  0
 38 39  1  0  0  0  0
 38 37  1  1  0  0  0
 39 40  1  0  0  0  0
 40 41  1  0  0  0  0
 41 42  1  0  0  0  0
 42 45  1  0  0  0  0
 42 43  1  1  0  0  0
 45 44  1  0  0  0  0
M  END
>  <MODEL>
2

>  <REMARK>
 VINA RESULT:      -6.4      3.206      8.385
  Name = 
  16 active torsions:
  status: ('A' for Active; 'I' for Inactive)
    1  A    between atoms: C_1  and  C_9
    2  A    between atoms: C_2  and  C_19
    3  A    between atoms: C_2  and  C_38
    4  A    between atoms: C_6  and  C_28
    5  A    between atoms: C_6  and  N_41
    6  A    between atoms: C_9  and  C_32
    7  A    between atoms: N_12  and  C_43
    8  A    between atoms: C_14  and  C_37
    9  A    between atoms: C_15  and  C_28
   10  A    between atoms: C_15  and  C_35
   11  A    between atoms: O_17  and  C_39
   12  A    between atoms: O_17  and  C_40
   13  A    between atoms: C_34  and  C_40
   14  A    between atoms: C_35  and  C_43
   15  A    between atoms: C_38  and  N_41
   16  A    between atoms: C_39  and  C_43
                            x       y       z     vdW  Elec       q    Type
                         _______ _______ _______ _____ _____    ______ ____

>  <TORSDO>
F 16

$$$$
=
 OpenBabel11072408553D

 45 48  0  0  1  0  0  0  0  0999 V2000
  193.0120  174.6440  145.3040 N   0  0  0  0  0  0  0  0  0  0  0  0
  192.8950  177.0830  144.9330 C   0  0  0  0  0  2  0  0  0  0  0  0
  194.7930  173.2810  144.6170 N   0  0  0  0  0  2  0  0  0  0  0  0
  192.3250  175.8810  145.6850 C   0  0  1  0  0  3  0  0  0  0  0  0
  194.4100  177.1050  145.0890 C   0  0  1  0  0  3  0  0  0  0  0  0
  194.2340  174.5750  144.8640 C   0  0  0  0  0  0  0  0  0  0  0  0
  195.1910  175.9520  143.0290 C   0  0  0  0  0  1  0  0  0  0  0  0
  194.7590  177.2640  146.4320 O   0  0  0  0  0  1  0  0  0  0  0  0
  195.0310  175.8220  144.5350 C   0  0  1  0  0  3  0  0  0  0  0  0
  190.0560  175.9260  146.7820 C   0  0  1  0  0  3  0  0  0  0  0  0
  189.5780  173.7320  145.8840 N   0  0  0  0  0  2  0  0  0  0  0  0
  189.3610  174.6320  146.9470 C   0  0  0  0  0  0  0  0  0  0  0  0
  190.8180  175.7480  145.4620 C   0  0  2  0  0  3  0  0  0  0  0  0
  189.7600  174.4800  143.5850 C   0  0  0  0  0  1  0  0  0  0  0  0
  188.6490  174.3390  147.9450 O   0  0  0  0  0  0  0  0  0  0  0  0
  190.4690  174.3490  144.9200 C   0  0  2  0  0  3  0  0  0  0  0  0
  189.0520  177.0590  146.6270 C   0  0  0  0  0  2  0  0  0  0  0  0
  186.6810  178.3780  144.7720 N   0  0  0  0  0  0  0  0  0  0  0  0
  184.5320  178.1630  145.7880 C   0  0  0  0  0  2  0  0  0  0  0  0
  184.1780  179.2410  144.3550 S   0  0  0  0  0  0  0  0  0  0  0  0
  187.7400  177.4100  144.5550 C   0  0  0  0  0  2  0  0  0  0  0  0
  186.0340  178.2330  146.0510 C   0  0  1  0  0  3  0  0  0  0  0  0
  186.5530  176.9280  146.6220 C   0  0  0  0  0  2  0  0  0  0  0  0
  186.0280  178.4680  142.1800 S   0  0  0  0  0  0  0  0  0  0  0  0
  187.8290  176.6080  145.8420 C   0  0  2  0  0  3  0  0  0  0  0  0
  185.8120  178.8620  143.7540 C   0  0  0  0  0  0  0  0  0  0  0  0
  196.1930  173.0620  144.2600 C   0  0  1  0  0  3  0  0  0  0  0  0
  197.0720  172.8680  146.4810 O   0  0  0  0  0  0  0  0  0  0  0  0
  196.9340  172.3380  145.3440 C   0  0  0  0  0  0  0  0  0  0  0  0
  197.4100  171.0500  145.0960 O   0  0  0  0  0  0  0  0  0  0  0  0
  197.1790  169.9810  146.0010 C   0  0  0  0  0  2  0  0  0  0  0  0
  195.1940  169.2900  144.6580 O   0  0  0  0  0  0  0  0  0  0  0  0
  195.0570  169.4540  146.9430 O   0  0  0  0  0  1  0  0  0  0  0  0
  195.7600  169.5460  145.9020 C   0  0  0  0  0  0  0  0  0  0  0  0
  196.3020  172.3300  142.9240 C   0  0  0  0  0  2  0  0  0  0  0  0
  194.9420  171.8590  142.4080 C   0  0  0  0  0  2  0  0  0  0  0  0
  195.5810  173.3880  140.6690 O   0  0  0  0  0  1  0  0  0  0  0  0
  194.5790  172.5060  141.0710 C   0  0  2  0  0  3  0  0  0  0  0  0
  193.2440  173.2370  141.1350 C   0  0  0  0  0  2  0  0  0  0  0  0
  192.2700  172.5750  140.2830 N   0  0  0  0  0  2  0  0  0  0  0  0
  191.1210  173.4620  140.2030 C   0  0  0  0  0  2  0  0  0  0  0  0
  189.8340  172.6570  140.3140 C   0  0  2  0  0  3  0  0  0  0  0  0
  189.8780  171.5430  139.4700 O   0  0  0  0  0  1  0  0  0  0  0  0
  188.3480  173.5960  138.4970 C   0  0  0  0  0  1  0  0  0  0  0  0
  188.6180  173.5230  139.9920 C   0  0  0  0  0  2  0  0  0  0  0  0
  1  4  1  0  0  0  0
  2  5  1  0  0  0  0
  3  6  1  0  0  0  0
  4  2  1  6  0  0  0
  5  8  1  1  0  0  0
  6  1  2  0  0  0  0
  9  7  1  6  0  0  0
  9  6  1  0  0  0  0
  9  5  1  0  0  0  0
 10 17  1  6  0  0  0
 10 12  1  0  0  0  0
 11 12  1  0  0  0  0
 12 15  2  0  0  0  0
 13  4  1  1  0  0  0
 13 10  1  0  0  0  0
 16 14  1  6  0  0  0
 16 13  1  0  0  0  0
 16 11  1  0  0  0  0
 18 22  1  0  0  0  0
 20 19  1  0  0  0  0
 21 18  1  0  0  0  0
 21 25  1  0  0  0  0
 22 19  1  6  0  0  0
 22 23  1  0  0  0  0
 24 26  2  0  0  0  0
 25 23  1  0  0  0  0
 25 17  1  1  0  0  0
 26 20  1  0  0  0  0
 26 18  1  0  0  0  0
 27 35  1  6  0  0  0
 27  3  1  0  0  0  0
 27 29  1  0  0  0  0
 29 28  2  0  0  0  0
 30 29  1  0  0  0  0
 30 31  1  0  0  0  0
 32 34  2  0  0  0  0
 34 31  1  0  0  0  0
 34 33  1  0  0  0  0
 36 35  1  0  0  0  0
 38 37  1  1  0  0  0
 38 39  1  0  0  0  0
 38 36  1  0  0  0  0
 40 39  1  0  0  0  0
 41 40  1  0  0  0  0
 41 42  1  0  0  0  0
 42 43  1  6  0  0  0
 44 45  1  0  0  0  0
 45 42  1  0  0  0  0
M  END
>  <MODEL>
3

>  <REMARK>
 VINA RESULT:      -6.3      3.140      8.591
  Name = 
  16 active torsions:
  status: ('A' for Active; 'I' for Inactive)
    1  A    between atoms: C_1  and  C_9
    2  A    between atoms: C_2  and  C_19
    3  A    between atoms: C_2  and  C_38
    4  A    between atoms: C_6  and  C_28
    5  A    between atoms: C_6  and  N_41
    6  A    between atoms: C_9  and  C_32
    7  A    between atoms: N_12  and  C_43
    8  A    between atoms: C_14  and  C_37
    9  A    between atoms: C_15  and  C_28
   10  A    between atoms: C_15  and  C_35
   11  A    between atoms: O_17  and  C_39
   12  A    between atoms: O_17  and  C_40
   13  A    between atoms: C_34  and  C_40
   14  A    between atoms: C_35  and  C_43
   15  A    between atoms: C_38  and  N_41
   16  A    between atoms: C_39  and  C_43
                            x       y       z     vdW  Elec       q    Type
                         _______ _______ _______ _____ _____    ______ ____

>  <TORSDO>
F 16

$$$$
=
 OpenBabel11072408553D

 45 48  0  0  1  0  0  0  0  0999 V2000
  190.0640  173.6600  143.0950 N   0  0  0  0  0  0  0  0  0  0  0  0
  189.1240  174.8350  141.1370 C   0  0  0  0  0  2  0  0  0  0  0  0
  190.3820  174.6390  145.2040 N   0  0  0  0  0  2  0  0  0  0  0  0
  189.4930  173.4880  141.7570 C   0  0  1  0  0  3  0  0  0  0  0  0
  188.2630  175.6220  142.1160 C   0  0  1  0  0  3  0  0  0  0  0  0
  189.8130  174.6580  143.8910 C   0  0  0  0  0  0  0  0  0  0  0  0
  189.9250  177.0640  143.2730 C   0  0  0  0  0  1  0  0  0  0  0  0
  187.0650  174.9470  142.3640 O   0  0  0  0  0  1  0  0  0  0  0  0
  189.0120  175.8590  143.4270 C   0  0  1  0  0  3  0  0  0  0  0  0
  191.8440  173.3570  140.8570 C   0  0  1  0  0  3  0  0  0  0  0  0
  190.9800  173.3340  138.5980 N   0  0  0  0  0  2  0  0  0  0  0  0
  192.0450  173.7200  139.4390 C   0  0  0  0  0  0  0  0  0  0  0  0
  190.4550  172.7070  140.8590 C   0  0  2  0  0  3  0  0  0  0  0  0
  189.7600  171.2670  138.9380 C   0  0  0  0  0  1  0  0  0  0  0  0
  193.0600  174.3280  139.0050 O   0  0  0  0  0  0  0  0  0  0  0  0
  189.9540  172.6980  139.4030 C   0  0  2  0  0  3  0  0  0  0  0  0
  192.8740  172.3280  141.3000 C   0  0  0  0  0  2  0  0  0  0  0  0
  195.2670  171.3520  143.3300 N   0  0  0  0  0  0  0  0  0  0  0  0
  194.7580  171.8460  145.6100 C   0  0  0  0  0  2  0  0  0  0  0  0
  196.2730  170.8360  145.7610 S   0  0  0  0  0  0  0  0  0  0  0  0
  195.2010  172.1720  142.1340 C   0  0  0  0  0  2  0  0  0  0  0  0
  194.1640  171.5730  144.2300 C   0  0  1  0  0  3  0  0  0  0  0  0
  193.4410  172.7930  143.6930 C   0  0  0  0  0  2  0  0  0  0  0  0
  197.9410  171.3690  143.3770 S   0  0  0  0  0  0  0  0  0  0  0  0
  193.8980  172.9450  142.2410 C   0  0  2  0  0  3  0  0  0  0  0  0
  196.4730  170.9960  143.9970 C   0  0  0  0  0  0  0  0  0  0  0  0
  190.0630  175.6220  146.2360 C   0  0  1  0  0  3  0  0  0  0  0  0
  188.8360  174.3450  147.8500 O   0  0  0  0  0  0  0  0  0  0  0  0
  188.8130  175.2590  146.9790 C   0  0  0  0  0  0  0  0  0  0  0  0
  187.6460  175.9860  146.7400 O   0  0  0  0  0  0  0  0  0  0  0  0
  187.6150  177.4020  146.8350 C   0  0  0  0  0  2  0  0  0  0  0  0
  185.8750  179.0420  147.5460 O   0  0  0  0  0  1  0  0  0  0  0  0
  185.2940  177.1640  146.3620 O   0  0  0  0  0  0  0  0  0  0  0  0
  186.2020  177.8640  146.8830 C   0  0  0  0  0  0  0  0  0  0  0  0
  191.2430  175.8110  147.1860 C   0  0  0  0  0  2  0  0  0  0  0  0
  192.5160  175.1370  146.6720 C   0  0  0  0  0  2  0  0  0  0  0  0
  193.1480  176.9140  145.1830 O   0  0  0  0  0  1  0  0  0  0  0  0
  193.5830  176.1550  146.2690 C   0  0  2  0  0  3  0  0  0  0  0  0
  194.9100  175.4880  145.9320 C   0  0  0  0  0  2  0  0  0  0  0  0
  195.4500  176.0410  144.7020 N   0  0  0  0  0  2  0  0  0  0  0  0
  196.3800  175.0550  144.1780 C   0  0  0  0  0  2  0  0  0  0  0  0
  197.4100  175.7330  143.2840 C   0  0  2  0  0  3  0  0  0  0  0  0
  197.1890  177.1130  143.2420 O   0  0  0  0  0  1  0  0  0  0  0  0
  196.2240  175.6840  141.0520 C   0  0  0  0  0  1  0  0  0  0  0  0
  197.3840  175.1440  141.8760 C   0  0  0  0  0  2  0  0  0  0  0  0
  1  6  2  0  0  0  0
  2  5  1  0  0  0  0
  3 27  1  0  0  0  0
  4  2  1  6  0  0  0
  4  1  1  0  0  0  0
  5  8  1  1  0  0  0
  5  9  1  0  0  0  0
  6  3  1  0  0  0  0
  9  7  1  6  0  0  0
  9  6  1  0  0  0  0
 10 13  1  0  0  0  0
 10 17  1  6  0  0  0
 11 16  1  0  0  0  0
 11 12  1  0  0  0  0
 12 10  1  0  0  0  0
 13  4  1  1  0  0  0
 15 12  2  0  0  0  0
 16 14  1  6  0  0  0
 16 13  1  0  0  0  0
 18 26  1  0  0  0  0
 18 22  1  0  0  0  0
 19 20  1  0  0  0  0
 21 25  1  0  0  0  0
 21 18  1  0  0  0  0
 22 23  1  6  0  0  0
 22 19  1  0  0  0  0
 24 26  2  0  0  0  0
 25 17  1  6  0  0  0
 25 23  1  0  0  0  0
 26 20  1  0  0  0  0
 27 29  1  0  0  0  0
 27 35  1  1  0  0  0
 29 28  2  0  0  0  0
 30 31  1  0  0  0  0
 30 29  1  0  0  0  0
 31 34  1  0  0  0  0
 33 34  2  0  0  0  0
 34 32  1  0  0  0  0
 36 35  1  0  0  0  0
 38 37  1  6  0  0  0
 38 36  1  0  0  0  0
 39 38  1  0  0  0  0
 40 39  1  0  0  0  0
 41 40  1  0  0  0  0
 42 43  1  6  0  0  0
 42 41  1  0  0  0  0
 44 45  1  0  0  0  0
 45 42  1  0  0  0  0
M  END
>  <MODEL>
4

>  <REMARK>
 VINA RESULT:      -6.2      2.986      7.234
  Name = 
  16 active torsions:
  status: ('A' for Active; 'I' for Inactive)
    1  A    between atoms: C_1  and  C_9
    2  A    between atoms: C_2  and  C_19
    3  A    between atoms: C_2  and  C_38
    4  A    between atoms: C_6  and  C_28
    5  A    between atoms: C_6  and  N_41
    6  A    between atoms: C_9  and  C_32
    7  A    between atoms: N_12  and  C_43
    8  A    between atoms: C_14  and  C_37
    9  A    between atoms: C_15  and  C_28
   10  A    between atoms: C_15  and  C_35
   11  A    between atoms: O_17  and  C_39
   12  A    between atoms: O_17  and  C_40
   13  A    between atoms: C_34  and  C_40
   14  A    between atoms: C_35  and  C_43
   15  A    between atoms: C_38  and  N_41
   16  A    between atoms: C_39  and  C_43
                            x       y       z     vdW  Elec       q    Type
                         _______ _______ _______ _____ _____    ______ ____

>  <TORSDO>
F 16

$$$$
=
 OpenBabel11072408553D

 45 48  0  0  1  0  0  0  0  0999 V2000
  192.7410  174.4700  142.3950 N   0  0  0  0  0  0  0  0  0  0  0  0
  193.2630  172.3530  143.5560 C   0  0  0  0  0  2  0  0  0  0  0  0
  190.6630  175.5550  142.4820 N   0  0  0  0  0  2  0  0  0  0  0  0
  193.8190  173.5750  142.8260 C   0  0  1  0  0  3  0  0  0  0  0  0
  192.3160  172.8110  144.6570 C   0  0  1  0  0  3  0  0  0  0  0  0
  191.5790  174.5700  142.9710 C   0  0  0  0  0  0  0  0  0  0  0  0
  190.0890  172.6700  143.5600 C   0  0  0  0  0  1  0  0  0  0  0  0
  193.0020  173.5710  145.6060 O   0  0  0  0  0  1  0  0  0  0  0  0
  191.1570  173.6200  144.0750 C   0  0  1  0  0  3  0  0  0  0  0  0
  194.0990  171.9340  140.9330 C   0  0  1  0  0  3  0  0  0  0  0  0
  196.3250  171.4090  141.7170 N   0  0  0  0  0  2  0  0  0  0  0  0
  195.1700  170.9260  141.0670 C   0  0  0  0  0  0  0  0  0  0  0  0
  194.6860  173.1660  141.6340 C   0  0  2  0  0  3  0  0  0  0  0  0
  197.1220  173.6760  141.4010 C   0  0  0  0  0  1  0  0  0  0  0  0
  195.0730  169.7380  140.6580 O   0  0  0  0  0  0  0  0  0  0  0  0
  196.1070  172.7910  142.0980 C   0  0  2  0  0  3  0  0  0  0  0  0
  193.8540  172.2670  139.4690 C   0  0  0  0  0  2  0  0  0  0  0  0
  190.9860  173.3680  138.3000 N   0  0  0  0  0  0  0  0  0  0  0  0
  189.1840  172.9330  139.8040 C   0  0  0  0  0  2  0  0  0  0  0  0
  188.3890  173.9870  138.5410 S   0  0  0  0  0  0  0  0  0  0  0  0
  192.0430  172.5110  137.7960 C   0  0  0  0  0  2  0  0  0  0  0  0
  190.6920  173.1470  139.6930 C   0  0  1  0  0  3  0  0  0  0  0  0
  191.4530  171.8930  140.0730 C   0  0  0  0  0  2  0  0  0  0  0  0
  189.7060  173.4230  135.9520 S   0  0  0  0  0  0  0  0  0  0  0  0
  192.5210  171.7070  138.9930 C   0  0  2  0  0  3  0  0  0  0  0  0
  189.8520  173.7760  137.5440 C   0  0  0  0  0  0  0  0  0  0  0  0
  189.3900  175.8630  143.1290 C   0  0  1  0  0  3  0  0  0  0  0  0
  189.5710  178.2500  143.0070 O   0  0  0  0  0  0  0  0  0  0  0  0
  189.3950  177.2340  143.7360 C   0  0  0  0  0  0  0  0  0  0  0  0
  189.1390  177.3720  145.1010 O   0  0  0  0  0  0  0  0  0  0  0  0
  189.4670  176.3520  146.0310 C   0  0  0  0  0  2  0  0  0  0  0  0
  191.9480  176.5790  145.9080 O   0  0  0  0  0  0  0  0  0  0  0  0
  190.8400  176.9430  147.8840 O   0  0  0  0  0  1  0  0  0  0  0  0
  190.7810  176.6570  146.6590 C   0  0  0  0  0  0  0  0  0  0  0  0
  188.2300  175.6900  142.1510 C   0  0  0  0  0  2  0  0  0  0  0  0
  186.8940  176.1260  142.7530 C   0  0  0  0  0  2  0  0  0  0  0  0
  186.9920  177.7560  140.9910 O   0  0  0  0  0  1  0  0  0  0  0  0
  186.1170  177.0520  141.8180 C   0  0  2  0  0  3  0  0  0  0  0  0
  185.2360  178.0290  142.5850 C   0  0  0  0  0  2  0  0  0  0  0  0
  186.0210  179.1680  143.0300 N   0  0  0  0  0  2  0  0  0  0  0  0
  185.3580  179.6910  144.2120 C   0  0  0  0  0  2  0  0  0  0  0  0
  184.9900  178.5500  145.1510 C   0  0  2  0  0  3  0  0  0  0  0  0
  183.7560  178.7970  145.7610 O   0  0  0  0  0  1  0  0  0  0  0  0
  185.7770  177.1400  147.0960 C   0  0  0  0  0  1  0  0  0  0  0  0
  186.0740  178.3370  146.2040 C   0  0  0  0  0  2  0  0  0  0  0  0
  1  4  1  0  0  0  0
  1  6  2  0  0  0  0
  2  5  1  0  0  0  0
  3  6  1  0  0  0  0
  3 27  1  0  0  0  0
  4  2  1  6  0  0  0
  5  8  1  1  0  0  0
  6  9  1  0  0  0  0
  9  7  1  6  0  0  0
  9  5  1  0  0  0  0
 10 17  1  6  0  0  0
 10 12  1  0  0  0  0
 10 13  1  0  0  0  0
 11 16  1  0  0  0  0
 12 11  1  0  0  0  0
 13 16  1  0  0  0  0
 13  4  1  1  0  0  0
 15 12  2  0  0  0  0
 16 14  1  6  0  0  0
 18 22  1  0  0  0  0
 20 19  1  0  0  0  0
 21 18  1  0  0  0  0
 21 25  1  0  0  0  0
 22 19  1  6  0  0  0
 22 23  1  0  0  0  0
 24 26  2  0  0  0  0
 25 17  1  1  0  0  0
 25 23  1  0  0  0  0
 26 18  1  0  0  0  0
 26 20  1  0  0  0  0
 27 35  1  6  0  0  0
 27 29  1  0  0  0  0
 28 29  2  0  0  0  0
 29 30  1  0  0  0  0
 30 31  1  0  0  0  0
 31 34  1  0  0  0  0
 32 34  2  0  0  0  0
 34 33  1  0  0  0  0
 35 36  1  0  0  0  0
 38 37  1  1  0  0  0
 38 39  1  0  0  0  0
 38 36  1  0  0  0  0
 39 40  1  0  0  0  0
 40 41  1  0  0  0  0
 41 42  1  0  0  0  0
 42 43  1  1  0  0  0
 42 45  1  0  0  0  0
 45 44  1  0  0  0  0
M  END
>  <MODEL>
5

>  <REMARK>
 VINA RESULT:      -6.0      2.312      3.902
  Name = 
  16 active torsions:
  status: ('A' for Active; 'I' for Inactive)
    1  A    between atoms: C_1  and  C_9
    2  A    between atoms: C_2  and  C_19
    3  A    between atoms: C_2  and  C_38
    4  A    between atoms: C_6  and  C_28
    5  A    between atoms: C_6  and  N_41
    6  A    between atoms: C_9  and  C_32
    7  A    between atoms: N_12  and  C_43
    8  A    between atoms: C_14  and  C_37
    9  A    between atoms: C_15  and  C_28
   10  A    between atoms: C_15  and  C_35
   11  A    between atoms: O_17  and  C_39
   12  A    between atoms: O_17  and  C_40
   13  A    between atoms: C_34  and  C_40
   14  A    between atoms: C_35  and  C_43
   15  A    between atoms: C_38  and  N_41
   16  A    between atoms: C_39  and  C_43
                            x       y       z     vdW  Elec       q    Type
                         _______ _______ _______ _____ _____    ______ ____

>  <TORSDO>
F 16

$$$$
=
 OpenBabel11072408553D

 45 48  0  0  1  0  0  0  0  0999 V2000
  190.4250  173.7270  143.1400 N   0  0  0  0  0  0  0  0  0  0  0  0
  189.3130  174.6490  141.1370 C   0  0  0  0  0  2  0  0  0  0  0  0
  190.6170  174.8540  145.1890 N   0  0  0  0  0  2  0  0  0  0  0  0
  189.8740  173.4040  141.8210 C   0  0  1  0  0  3  0  0  0  0  0  0
  188.3570  175.3590  142.0860 C   0  0  1  0  0  3  0  0  0  0  0  0
  190.0410  174.7220  143.8850 C   0  0  0  0  0  0  0  0  0  0  0  0
  189.8070  177.0820  143.1400 C   0  0  0  0  0  1  0  0  0  0  0  0
  187.2690  174.5370  142.3870 O   0  0  0  0  0  1  0  0  0  0  0  0
  189.0750  175.7710  143.3710 C   0  0  1  0  0  3  0  0  0  0  0  0
  190.7980  173.1590  139.4890 C   0  0  1  0  0  3  0  0  0  0  0  0
  190.5000  170.7630  139.6210 N   0  0  0  0  0  2  0  0  0  0  0  0
  190.5130  171.8940  138.7790 C   0  0  0  0  0  0  0  0  0  0  0  0
  190.9300  172.7180  140.9520 C   0  0  2  0  0  3  0  0  0  0  0  0
  192.0240  170.5360  141.4920 C   0  0  0  0  0  1  0  0  0  0  0  0
  190.2880  171.8180  137.5420 O   0  0  0  0  0  0  0  0  0  0  0  0
  190.7520  171.1880  140.9840 C   0  0  2  0  0  3  0  0  0  0  0  0
  192.1230  173.7480  139.0270 C   0  0  0  0  0  2  0  0  0  0  0  0
  195.1100  174.9030  139.7630 N   0  0  0  0  0  0  0  0  0  0  0  0
  196.8050  173.2510  139.4560 C   0  0  0  0  0  2  0  0  0  0  0  0
  197.7860  174.7550  139.7950 S   0  0  0  0  0  0  0  0  0  0  0  0
  193.8300  174.8480  140.4450 C   0  0  0  0  0  2  0  0  0  0  0  0
  195.4120  173.7030  139.0260 C   0  0  1  0  0  3  0  0  0  0  0  0
  194.3570  172.6970  139.4400 C   0  0  0  0  0  2  0  0  0  0  0  0
  196.2170  176.4440  141.6490 S   0  0  0  0  0  0  0  0  0  0  0  0
  193.2180  173.5130  140.0560 C   0  0  2  0  0  3  0  0  0  0  0  0
  196.2670  175.5540  140.2760 C   0  0  0  0  0  0  0  0  0  0  0  0
  190.1700  175.8370  146.1720 C   0  0  1  0  0  3  0  0  0  0  0  0
  188.9420  174.4130  147.6580 O   0  0  0  0  0  0  0  0  0  0  0  0
  188.9160  175.3960  146.8660 C   0  0  0  0  0  0  0  0  0  0  0  0
  187.7420  176.1250  146.6740 O   0  0  0  0  0  0  0  0  0  0  0  0
  187.7250  177.5430  146.7250 C   0  0  0  0  0  2  0  0  0  0  0  0
  185.8330  179.0080  146.0210 O   0  0  0  0  0  0  0  0  0  0  0  0
  185.5900  177.5530  147.7780 O   0  0  0  0  0  1  0  0  0  0  0  0
  186.3220  178.0180  146.8650 C   0  0  0  0  0  0  0  0  0  0  0  0
  191.2820  176.1480  147.1710 C   0  0  0  0  0  2  0  0  0  0  0  0
  192.5740  175.3940  146.8540 C   0  0  0  0  0  2  0  0  0  0  0  0
  193.2620  177.1660  145.3850 O   0  0  0  0  0  1  0  0  0  0  0  0
  193.6970  176.3350  146.4180 C   0  0  2  0  0  3  0  0  0  0  0  0
  194.9410  175.5750  145.9780 C   0  0  0  0  0  2  0  0  0  0  0  0
  194.5920  174.2120  145.6160 N   0  0  0  0  0  2  0  0  0  0  0  0
  194.5580  174.1660  144.1630 C   0  0  0  0  0  2  0  0  0  0  0  0
  193.9220  172.8630  143.6980 C   0  0  2  0  0  3  0  0  0  0  0  0
  193.1220  172.3200  144.7090 O   0  0  0  0  0  1  0  0  0  0  0  0
  196.3010  172.5400  142.9060 C   0  0  0  0  0  1  0  0  0  0  0  0
  194.9880  171.8590  143.2640 C   0  0  0  0  0  2  0  0  0  0  0  0
  1  6  2  0  0  0  0
  2  5  1  0  0  0  0
  3 27  1  0  0  0  0
  4  2  1  6  0  0  0
  4  1  1  0  0  0  0
  5  8  1  1  0  0  0
  5  9  1  0  0  0  0
  6  3  1  0  0  0  0
  9  7  1  6  0  0  0
  9  6  1  0  0  0  0
 10 17  1  6  0  0  0
 10 13  1  0  0  0  0
 11 16  1  0  0  0  0
 12 10  1  0  0  0  0
 12 11  1  0  0  0  0
 13 16  1  0  0  0  0
 13  4  1  1  0  0  0
 15 12  2  0  0  0  0
 16 14  1  6  0  0  0
 18 26  1  0  0  0  0
 18 21  1  0  0  0  0
 19 20  1  0  0  0  0
 20 26  1  0  0  0  0
 22 23  1  1  0  0  0
 22 19  1  0  0  0  0
 22 18  1  0  0  0  0
 23 25  1  0  0  0  0
 25 17  1  6  0  0  0
 25 21  1  0  0  0  0
 26 24  2  0  0  0  0
 27 29  1  0  0  0  0
 27 35  1  1  0  0  0
 29 28  2  0  0  0  0
 30 31  1  0  0  0  0
 30 29  1  0  0  0  0
 31 34  1  0  0  0  0
 32 34  2  0  0  0  0
 34 33  1  0  0  0  0
 36 35  1  0  0  0  0
 38 37  1  6  0  0  0
 38 36  1  0  0  0  0
 39 38  1  0  0  0  0
 40 39  1  0  0  0  0
 41 40  1  0  0  0  0
 42 41  1  0  0  0  0
 42 43  1  1  0  0  0
 44 45  1  0  0  0  0
 45 42  1  0  0  0  0
M  END
>  <MODEL>
6

>  <REMARK>
 VINA RESULT:      -6.0      2.831      6.804
  Name = 
  16 active torsions:
  status: ('A' for Active; 'I' for Inactive)
    1  A    between atoms: C_1  and  C_9
    2  A    between atoms: C_2  and  C_19
    3  A    between atoms: C_2  and  C_38
    4  A    between atoms: C_6  and  C_28
    5  A    between atoms: C_6  and  N_41
    6  A    between atoms: C_9  and  C_32
    7  A    between atoms: N_12  and  C_43
    8  A    between atoms: C_14  and  C_37
    9  A    between atoms: C_15  and  C_28
   10  A    between atoms: C_15  and  C_35
   11  A    between atoms: O_17  and  C_39
   12  A    between atoms: O_17  and  C_40
   13  A    between atoms: C_34  and  C_40
   14  A    between atoms: C_35  and  C_43
   15  A    between atoms: C_38  and  N_41
   16  A    between atoms: C_39  and  C_43
                            x       y       z     vdW  Elec       q    Type
                         _______ _______ _______ _____ _____    ______ ____

>  <TORSDO>
F 16

$$$$
=
 OpenBabel11072408553D

 45 48  0  0  1  0  0  0  0  0999 V2000
  191.8850  175.9360  144.0740 N   0  0  0  0  0  0  0  0  0  0  0  0
  193.0250  174.3630  145.5990 C   0  0  0  0  0  2  0  0  0  0  0  0
  189.5600  176.0460  143.7750 N   0  0  0  0  0  2  0  0  0  0  0  0
  193.1480  175.6270  144.7490 C   0  0  1  0  0  3  0  0  0  0  0  0
  191.8120  174.4850  146.5120 C   0  0  1  0  0  3  0  0  0  0  0  0
  190.7060  175.5930  144.5040 C   0  0  0  0  0  0  0  0  0  0  0  0
  190.0380  173.3100  145.2260 C   0  0  0  0  0  1  0  0  0  0  0  0
  191.9720  175.5540  147.3960 O   0  0  0  0  0  1  0  0  0  0  0  0
  190.5340  174.6670  145.6930 C   0  0  1  0  0  3  0  0  0  0  0  0
  194.3070  174.1050  143.1080 C   0  0  1  0  0  3  0  0  0  0  0  0
  196.4150  174.5050  144.2230 N   0  0  0  0  0  2  0  0  0  0  0  0
  195.6360  173.5850  143.4920 C   0  0  0  0  0  0  0  0  0  0  0  0
  194.2850  175.5050  143.7320 C   0  0  2  0  0  3  0  0  0  0  0  0
  196.3700  176.8830  143.7540 C   0  0  0  0  0  1  0  0  0  0  0  0
  196.0450  172.4260  143.2120 O   0  0  0  0  0  0  0  0  0  0  0  0
  195.6500  175.7220  144.4130 C   0  0  2  0  0  3  0  0  0  0  0  0
  194.1970  174.2340  141.5960 C   0  0  0  0  0  2  0  0  0  0  0  0
  191.3350  173.7030  140.0690 N   0  0  0  0  0  0  0  0  0  0  0  0
  189.8600  172.3600  141.3820 C   0  0  0  0  0  2  0  0  0  0  0  0
  188.7870  172.8710  139.9930 S   0  0  0  0  0  0  0  0  0  0  0  0
  192.7340  173.5330  139.7230 C   0  0  0  0  0  2  0  0  0  0  0  0
  191.0380  173.3310  141.4290 C   0  0  1  0  0  3  0  0  0  0  0  0
  192.2900  172.6500  141.9460 C   0  0  0  0  0  2  0  0  0  0  0  0
  190.4980  173.1310  137.5940 S   0  0  0  0  0  0  0  0  0  0  0  0
  193.4160  173.0710  141.0000 C   0  0  2  0  0  3  0  0  0  0  0  0
  190.2510  173.4750  139.1750 C   0  0  0  0  0  0  0  0  0  0  0  0
  188.1860  175.8510  144.2310 C   0  0  1  0  0  3  0  0  0  0  0  0
  188.6490  177.2870  146.0930 O   0  0  0  0  0  0  0  0  0  0  0  0
  187.7960  176.8650  145.2630 C   0  0  0  0  0  0  0  0  0  0  0  0
  186.4990  177.3810  145.2520 O   0  0  0  0  0  0  0  0  0  0  0  0
  186.2450  178.7700  145.3920 C   0  0  0  0  0  2  0  0  0  0  0  0
  185.9290  179.7300  147.6720 O   0  0  0  0  0  1  0  0  0  0  0  0
  184.2640  178.5000  146.6840 O   0  0  0  0  0  0  0  0  0  0  0  0
  185.4160  179.0020  146.6050 C   0  0  0  0  0  0  0  0  0  0  0  0
  187.2190  175.8550  143.0490 C   0  0  0  0  0  2  0  0  0  0  0  0
  187.9340  176.0720  141.7150 C   0  0  0  0  0  2  0  0  0  0  0  0
  187.7420  178.4230  142.1740 O   0  0  0  0  0  1  0  0  0  0  0  0
  187.6910  177.4730  141.1530 C   0  0  2  0  0  3  0  0  0  0  0  0
  186.3580  177.5720  140.4240 C   0  0  0  0  0  2  0  0  0  0  0  0
  185.3810  178.2510  141.2570 N   0  0  0  0  0  2  0  0  0  0  0  0
  184.2540  178.5700  140.3960 C   0  0  0  0  0  2  0  0  0  0  0  0
  182.9850  178.7020  141.2270 C   0  0  2  0  0  3  0  0  0  0  0  0
  183.2160  178.2910  142.5430 O   0  0  0  0  0  1  0  0  0  0  0  0
  180.5040  178.6150  140.7470 C   0  0  0  0  0  1  0  0  0  0  0  0
  181.8420  177.9010  140.6090 C   0  0  0  0  0  2  0  0  0  0  0  0
  1  6  2  0  0  0  0
  1  4  1  0  0  0  0
  2  5  1  0  0  0  0
  3 27  1  0  0  0  0
  3  6  1  0  0  0  0
  4  2  1  6  0  0  0
  5  8  1  1  0  0  0
  6  9  1  0  0  0  0
  9  7  1  6  0  0  0
  9  5  1  0  0  0  0
 10 17  1  6  0  0  0
 10 12  1  0  0  0  0
 10 13  1  0  0  0  0
 11 16  1  0  0  0  0
 12 11  1  0  0  0  0
 13 16  1  0  0  0  0
 13  4  1  1  0  0  0
 15 12  2  0  0  0  0
 16 14  1  6  0  0  0
 18 22  1  0  0  0  0
 20 19  1  0  0  0  0
 21 18  1  0  0  0  0
 21 25  1  0  0  0  0
 22 19  1  6  0  0  0
 22 23  1  0  0  0  0
 24 26  2  0  0  0  0
 25 17  1  1  0  0  0
 25 23  1  0  0  0  0
 26 20  1  0  0  0  0
 26 18  1  0  0  0  0
 27 35  1  6  0  0  0
 27 29  1  0  0  0  0
 29 28  2  0  0  0  0
 30 29  1  0  0  0  0
 30 31  1  0  0  0  0
 31 34  1  0  0  0  0
 34 33  2  0  0  0  0
 34 32  1  0  0  0  0
 36 35  1  0  0  0  0
 38 36  1  0  0  0  0
 38 37  1  1  0  0  0
 39 38  1  0  0  0  0
 39 40  1  0  0  0  0
 41 42  1  0  0  0  0
 41 40  1  0  0  0  0
 42 43  1  1  0  0  0
 45 44  1  0  0  0  0
 45 42  1  0  0  0  0
M  END
>  <MODEL>
7

>  <REMARK>
 VINA RESULT:      -5.9      2.570      4.061
  Name = 
  16 active torsions:
  status: ('A' for Active; 'I' for Inactive)
    1  A    between atoms: C_1  and  C_9
    2  A    between atoms: C_2  and  C_19
    3  A    between atoms: C_2  and  C_38
    4  A    between atoms: C_6  and  C_28
    5  A    between atoms: C_6  and  N_41
    6  A    between atoms: C_9  and  C_32
    7  A    between atoms: N_12  and  C_43
    8  A    between atoms: C_14  and  C_37
    9  A    between atoms: C_15  and  C_28
   10  A    between atoms: C_15  and  C_35
   11  A    between atoms: O_17  and  C_39
   12  A    between atoms: O_17  and  C_40
   13  A    between atoms: C_34  and  C_40
   14  A    between atoms: C_35  and  C_43
   15  A    between atoms: C_38  and  N_41
   16  A    between atoms: C_39  and  C_43
                            x       y       z     vdW  Elec       q    Type
                         _______ _______ _______ _____ _____    ______ ____

>  <TORSDO>
F 16

$$$$
=
 OpenBabel11072408553D

 45 48  0  0  1  0  0  0  0  0999 V2000
  192.8910  175.6800  143.5630 N   0  0  0  0  0  0  0  0  0  0  0  0
  193.2150  173.3970  142.6790 C   0  0  0  0  0  2  0  0  0  0  0  0
  190.8300  176.5490  144.2730 N   0  0  0  0  0  2  0  0  0  0  0  0
  193.8840  174.6550  143.2310 C   0  0  1  0  0  3  0  0  0  0  0  0
  192.1130  172.9520  143.6320 C   0  0  1  0  0  3  0  0  0  0  0  0
  191.6550  175.4430  143.8910 C   0  0  0  0  0  0  0  0  0  0  0  0
  190.0800  173.9830  142.6380 C   0  0  0  0  0  1  0  0  0  0  0  0
  192.6500  172.6130  144.8750 O   0  0  0  0  0  1  0  0  0  0  0  0
  191.0620  174.0500  143.7960 C   0  0  1  0  0  3  0  0  0  0  0  0
  195.0970  174.2660  141.0560 C   0  0  1  0  0  3  0  0  0  0  0  0
  197.2170  174.4980  142.1970 N   0  0  0  0  0  2  0  0  0  0  0  0
  196.5210  173.8780  141.1380 C   0  0  0  0  0  0  0  0  0  0  0  0
  194.9210  175.2090  142.2530 C   0  0  2  0  0  3  0  0  0  0  0  0
  196.7640  176.7820  142.8680 C   0  0  0  0  0  1  0  0  0  0  0  0
  197.0740  173.0630  140.3530 O   0  0  0  0  0  0  0  0  0  0  0  0
  196.2960  175.3410  142.9350 C   0  0  2  0  0  3  0  0  0  0  0  0
  194.8220  175.0360  139.7730 C   0  0  0  0  0  2  0  0  0  0  0  0
  192.1520  174.3010  138.0040 N   0  0  0  0  0  0  0  0  0  0  0  0
  191.3960  172.0740  138.4140 C   0  0  0  0  0  2  0  0  0  0  0  0
  190.0530  172.7540  137.3790 S   0  0  0  0  0  0  0  0  0  0  0  0
  193.4720  174.8260  137.7070 C   0  0  0  0  0  2  0  0  0  0  0  0
  192.1670  173.2560  138.9960 C   0  0  1  0  0  3  0  0  0  0  0  0
  193.6290  172.9110  139.1990 C   0  0  0  0  0  2  0  0  0  0  0  0
  191.2670  174.7020  135.5120 S   0  0  0  0  0  0  0  0  0  0  0  0
  194.4200  174.0980  138.6440 C   0  0  2  0  0  3  0  0  0  0  0  0
  191.1110  174.1490  137.0450 C   0  0  0  0  0  0  0  0  0  0  0  0
  189.4750  176.4010  144.7980 C   0  0  1  0  0  3  0  0  0  0  0  0
  188.8260  175.3980  146.8750 O   0  0  0  0  0  0  0  0  0  0  0  0
  189.4670  176.3180  146.2940 C   0  0  0  0  0  0  0  0  0  0  0  0
  190.2260  177.2300  147.0290 O   0  0  0  0  0  0  0  0  0  0  0  0
  191.1730  176.8050  147.9970 C   0  0  0  0  0  2  0  0  0  0  0  0
  192.3370  174.7440  147.2110 O   0  0  0  0  0  1  0  0  0  0  0  0
  193.2710  176.8130  146.8740 O   0  0  0  0  0  0  0  0  0  0  0  0
  192.3100  176.1300  147.3160 C   0  0  0  0  0  0  0  0  0  0  0  0
  188.5750  177.5280  144.2960 C   0  0  0  0  0  2  0  0  0  0  0  0
  188.2000  177.3590  142.8220 C   0  0  0  0  0  2  0  0  0  0  0  0
  187.0880  175.3670  142.0700 O   0  0  0  0  0  1  0  0  0  0  0  0
  186.8750  176.6180  142.6470 C   0  0  2  0  0  3  0  0  0  0  0  0
  185.8840  177.4120  141.8060 C   0  0  0  0  0  2  0  0  0  0  0  0
  185.5220  178.6430  142.4870 N   0  0  0  0  0  2  0  0  0  0  0  0
  184.4850  178.2960  143.4440 C   0  0  0  0  0  2  0  0  0  0  0  0
  184.4520  179.3200  144.5710 C   0  0  2  0  0  3  0  0  0  0  0  0
  185.5710  180.1560  144.5050 O   0  0  0  0  0  1  0  0  0  0  0  0
  185.1990  177.3530  145.9720 C   0  0  0  0  0  1  0  0  0  0  0  0
  184.3770  178.6330  145.9320 C   0  0  0  0  0  2  0  0  0  0  0  0
  1  6  2  0  0  0  0
  2  5  1  0  0  0  0
  3 27  1  0  0  0  0
  4  2  1  6  0  0  0
  4  1  1  0  0  0  0
  5  9  1  0  0  0  0
  5  8  1  1  0  0  0
  6  3  1  0  0  0  0
  9  7  1  6  0  0  0
  9  6  1  0  0  0  0
 10 17  1  6  0  0  0
 10 12  1  0  0  0  0
 10 13  1  0  0  0  0
 11 16  1  0  0  0  0
 12 11  1  0  0  0  0
 13 16  1  0  0  0  0
 13  4  1  1  0  0  0
 15 12  2  0  0  0  0
 16 14  1  6  0  0  0
 18 22  1  0  0  0  0
 20 19  1  0  0  0  0
 21 18  1  0  0  0  0
 21 25  1  0  0  0  0
 22 19  1  6  0  0  0
 22 23  1  0  0  0  0
 24 26  2  0  0  0  0
 25 23  1  0  0  0  0
 25 17  1  1  0  0  0
 26 20  1  0  0  0  0
 26 18  1  0  0  0  0
 27 35  1  1  0  0  0
 27 29  1  0  0  0  0
 29 28  2  0  0  0  0
 29 30  1  0  0  0  0
 30 31  1  0  0  0  0
 32 34  1  0  0  0  0
 33 34  2  0  0  0  0
 34 31  1  0  0  0  0
 36 35  1  0  0  0  0
 38 37  1  6  0  0  0
 38 36  1  0  0  0  0
 39 40  1  0  0  0  0
 39 38  1  0  0  0  0
 40 41  1  0  0  0  0
 41 42  1  0  0  0  0
 42 43  1  1  0  0  0
 42 45  1  0  0  0  0
 45 44  1  0  0  0  0
M  END
>  <MODEL>
8

>  <REMARK>
 VINA RESULT:      -5.9      2.700      4.403
  Name = 
  16 active torsions:
  status: ('A' for Active; 'I' for Inactive)
    1  A    between atoms: C_1  and  C_9
    2  A    between atoms: C_2  and  C_19
    3  A    between atoms: C_2  and  C_38
    4  A    between atoms: C_6  and  C_28
    5  A    between atoms: C_6  and  N_41
    6  A    between atoms: C_9  and  C_32
    7  A    between atoms: N_12  and  C_43
    8  A    between atoms: C_14  and  C_37
    9  A    between atoms: C_15  and  C_28
   10  A    between atoms: C_15  and  C_35
   11  A    between atoms: O_17  and  C_39
   12  A    between atoms: O_17  and  C_40
   13  A    between atoms: C_34  and  C_40
   14  A    between atoms: C_35  and  C_43
   15  A    between atoms: C_38  and  N_41
   16  A    between atoms: C_39  and  C_43
                            x       y       z     vdW  Elec       q    Type
                         _______ _______ _______ _____ _____    ______ ____

>  <TORSDO>
F 16

$$$$
=
 OpenBabel11072408553D

 45 48  0  0  1  0  0  0  0  0999 V2000
  192.2190  174.2140  140.7290 N   0  0  0  0  0  0  0  0  0  0  0  0
  191.7990  171.8620  141.3550 C   0  0  0  0  0  2  0  0  0  0  0  0
  194.3420  175.1140  140.2970 N   0  0  0  0  0  2  0  0  0  0  0  0
  191.1920  173.1780  140.8680 C   0  0  1  0  0  3  0  0  0  0  0  0
  192.9810  171.4930  140.4680 C   0  0  1  0  0  3  0  0  0  0  0  0
  193.4780  173.9900  140.4940 C   0  0  0  0  0  0  0  0  0  0  0  0
  194.9200  172.3930  141.7370 C   0  0  0  0  0  1  0  0  0  0  0  0
  192.5580  171.2840  139.1540 O   0  0  0  0  0  1  0  0  0  0  0  0
  194.0500  172.5860  140.5080 C   0  0  1  0  0  3  0  0  0  0  0  0
  190.6530  174.3110  143.0550 C   0  0  1  0  0  3  0  0  0  0  0  0
  189.3080  172.4110  143.7090 N   0  0  0  0  0  2  0  0  0  0  0  0
  190.1440  173.4590  144.1490 C   0  0  0  0  0  0  0  0  0  0  0  0
  190.0730  173.6520  141.7970 C   0  0  2  0  0  3  0  0  0  0  0  0
  187.7670  172.6890  141.8590 C   0  0  0  0  0  1  0  0  0  0  0  0
  190.4290  173.6290  145.3640 O   0  0  0  0  0  0  0  0  0  0  0  0
  189.2110  172.4630  142.2630 C   0  0  2  0  0  3  0  0  0  0  0  0
  190.1030  175.7240  143.1740 C   0  0  0  0  0  2  0  0  0  0  0  0
  187.5580  177.7780  142.8530 N   0  0  0  0  0  0  0  0  0  0  0  0
  186.5380  178.2690  144.9540 C   0  0  0  0  0  2  0  0  0  0  0  0
  185.6800  179.4250  143.8280 S   0  0  0  0  0  0  0  0  0  0  0  0
  187.9470  176.5180  142.2470 C   0  0  0  0  0  2  0  0  0  0  0  0
  187.8300  177.8360  144.2660 C   0  0  1  0  0  3  0  0  0  0  0  0
  188.2170  176.4250  144.6620 C   0  0  0  0  0  2  0  0  0  0  0  0
  185.4980  178.1170  141.1810 S   0  0  0  0  0  0  0  0  0  0  0  0
  188.5930  175.7130  143.3610 C   0  0  2  0  0  3  0  0  0  0  0  0
  186.4160  178.5370  142.4690 C   0  0  0  0  0  0  0  0  0  0  0  0
  195.7380  174.9960  139.8860 C   0  0  1  0  0  3  0  0  0  0  0  0
  197.0410  175.2710  137.8940 O   0  0  0  0  0  0  0  0  0  0  0  0
  195.8930  175.1380  138.4020 C   0  0  0  0  0  0  0  0  0  0  0  0
  194.7600  175.0570  137.5910 O   0  0  0  0  0  0  0  0  0  0  0  0
  194.6920  175.7140  136.3350 C   0  0  0  0  0  2  0  0  0  0  0  0
  193.1280  177.5270  135.6350 O   0  0  0  0  0  0  0  0  0  0  0  0
  192.3200  175.5340  136.4340 O   0  0  0  0  0  1  0  0  0  0  0  0
  193.3160  176.2400  136.1250 C   0  0  0  0  0  0  0  0  0  0  0  0
  196.6100  176.0000  140.6370 C   0  0  0  0  0  2  0  0  0  0  0  0
  195.8170  176.7920  141.6780 C   0  0  0  0  0  2  0  0  0  0  0  0
  197.6070  176.0850  143.1170 O   0  0  0  0  0  1  0  0  0  0  0  0
  196.2680  176.4790  143.1050 C   0  0  2  0  0  3  0  0  0  0  0  0
  195.4090  175.4020  143.7520 C   0  0  0  0  0  2  0  0  0  0  0  0
  194.0770  175.9180  144.0200 N   0  0  0  0  0  2  0  0  0  0  0  0
  193.6530  175.3330  145.2810 C   0  0  0  0  0  2  0  0  0  0  0  0
  193.0890  176.4140  146.1930 C   0  0  2  0  0  3  0  0  0  0  0  0
  194.1190  177.0560  146.8860 O   0  0  0  0  0  1  0  0  0  0  0  0
  190.8450  176.7200  147.3170 C   0  0  0  0  0  1  0  0  0  0  0  0
  192.0710  175.8300  147.1690 C   0  0  0  0  0  2  0  0  0  0  0  0
  1  4  1  0  0  0  0
  3  6  1  0  0  0  0
  4  2  1  1  0  0  0
  5  8  1  6  0  0  0
  5  9  1  0  0  0  0
  5  2  1  0  0  0  0
  6  9  1  0  0  0  0
  6  1  2  0  0  0  0
  9  7  1  1  0  0  0
 10 17  1  1  0  0  0
 10 12  1  0  0  0  0
 11 12  1  0  0  0  0
 12 15  2  0  0  0  0
 13  4  1  6  0  0  0
 13 16  1  0  0  0  0
 13 10  1  0  0  0  0
 16 14  1  1  0  0  0
 16 11  1  0  0  0  0
 18 22  1  0  0  0  0
 20 19  1  0  0  0  0
 21 18  1  0  0  0  0
 21 25  1  0  0  0  0
 22 23  1  1  0  0  0
 22 19  1  0  0  0  0
 24 26  2  0  0  0  0
 25 17  1  6  0  0  0
 25 23  1  0  0  0  0
 26 18  1  0  0  0  0
 26 20  1  0  0  0  0
 27  3  1  0  0  0  0
 27 35  1  1  0  0  0
 28 29  2  0  0  0  0
 29 27  1  0  0  0  0
 30 29  1  0  0  0  0
 31 30  1  0  0  0  0
 32 34  2  0  0  0  0
 34 31  1  0  0  0  0
 34 33  1  0  0  0  0
 35 36  1  0  0  0  0
 36 38  1  0  0  0  0
 38 37  1  6  0  0  0
 38 39  1  0  0  0  0
 39 40  1  0  0  0  0
 40 41  1  0  0  0  0
 41 42  1  0  0  0  0
 42 43  1  1  0  0  0
 42 45  1  0  0  0  0
 45 44  1  0  0  0  0
M  END
>  <MODEL>
9

>  <REMARK>
 VINA RESULT:      -5.9      3.873      7.886
  Name = 
  16 active torsions:
  status: ('A' for Active; 'I' for Inactive)
    1  A    between atoms: C_1  and  C_9
    2  A    between atoms: C_2  and  C_19
    3  A    between atoms: C_2  and  C_38
    4  A    between atoms: C_6  and  C_28
    5  A    between atoms: C_6  and  N_41
    6  A    between atoms: C_9  and  C_32
    7  A    between atoms: N_12  and  C_43
    8  A    between atoms: C_14  and  C_37
    9  A    between atoms: C_15  and  C_28
   10  A    between atoms: C_15  and  C_35
   11  A    between atoms: O_17  and  C_39
   12  A    between atoms: O_17  and  C_40
   13  A    between atoms: C_34  and  C_40
   14  A    between atoms: C_35  and  C_43
   15  A    between atoms: C_38  and  N_41
   16  A    between atoms: C_39  and  C_43
                            x       y       z     vdW  Elec       q    Type
                         _______ _______ _______ _____ _____    ______ ____

>  <TORSDO>
F 16

$$$$
