=
 OpenBabel11062419313D

 40 45  0  0  1  0  0  0  0  0999 V2000
  190.8810  174.5230  144.3130 N   0  0  0  0  0  0  0  0  0  0  0  0
  190.3580  174.6700  142.1790 C   0  0  0  0  0  3  0  0  0  0  0  0
  189.5320  175.5420  142.8650 C   0  0  0  0  0  0  0  0  0  0  0  0
  189.8810  175.4160  144.1990 C   0  0  0  0  0  0  0  0  0  0  0  0
  191.1450  174.0710  143.0940 N   0  0  0  0  0  0  0  0  0  0  0  0
  186.9520  177.1710  140.7960 C   0  0  0  0  0  2  0  0  0  0  0  0
  187.2440  178.2180  141.8760 C   0  0  2  0  0  3  0  0  0  0  0  0
  187.7970  176.0900  141.1470 O   0  0  0  0  0  0  0  0  0  0  0  0
  188.2720  177.6120  142.7110 N   0  0  0  0  0  0  0  0  0  0  0  0
  188.5340  176.4350  142.2600 C   0  0  0  0  0  0  0  0  0  0  0  0
  184.6860  179.5750  143.9980 C   0  0  0  0  0  3  0  0  0  0  0  0
  183.9380  178.5410  143.2220 C   0  0  0  0  0  2  0  0  0  0  0  0
  184.8730  177.8430  142.4200 O   0  0  0  0  0  0  0  0  0  0  0  0
  186.0450  178.4840  142.6620 N   0  0  0  0  0  0  0  0  0  0  0  0
  185.9330  179.5110  143.6260 C   0  0  0  0  0  3  0  0  0  0  0  0
  191.8110  171.6980  143.2060 C   0  0  2  0  0  3  0  0  0  0  0  0
  191.6550  172.0990  141.7520 C   0  0  0  0  0  2  0  0  0  0  0  0
  192.1890  173.1050  142.7590 C   0  0  1  0  0  3  0  0  0  0  0  0
  193.0790  170.8820  143.3710 C   0  0  0  0  0  2  0  0  0  0  0  0
  193.0870  170.2540  144.6800 N   0  0  0  0  0  2  0  0  0  0  0  0
  194.3780  170.5390  145.2840 C   0  0  0  0  0  2  0  0  0  0  0  0
  195.8690  172.5420  145.6690 C   0  0  0  0  0  0  0  0  0  0  0  0
  194.6210  171.9720  145.2560 N   0  0  0  0  0  2  0  0  0  0  0  0
  196.8350  171.7880  145.9730 O   0  0  0  0  0  0  0  0  0  0  0  0
  196.0430  173.9630  145.7560 N   0  0  0  0  0  2  0  0  0  0  0  0
  192.3110  177.8940  144.3620 F   0  0  0  0  0  0  0  0  0  0  0  0
  195.0840  174.9800  145.4300 C   0  0  0  0  0  0  0  0  0  0  0  0
  193.2140  176.9450  144.7100 C   0  0  0  0  0  0  0  0  0  0  0  0
  193.9450  176.2810  143.7210 C   0  0  0  0  0  3  0  0  0  0  0  0
  194.3430  175.6500  146.4170 C   0  0  0  0  0  3  0  0  0  0  0  0
  194.8760  175.3020  144.0820 C   0  0  0  0  0  3  0  0  0  0  0  0
  193.4110  176.6310  146.0590 C   0  0  0  0  0  3  0  0  0  0  0  0
  189.3410  176.2030  145.3470 C   0  0  0  0  0  2  0  0  0  0  0  0
  187.9830  175.8460  145.5890 O   0  0  0  0  0  0  0  0  0  0  0  0
  186.5470  178.5280  147.7230 C   0  0  0  0  0  3  0  0  0  0  0  0
  187.4870  177.7000  147.1060 C   0  0  0  0  0  3  0  0  0  0  0  0
  187.0700  176.6960  146.2180 C   0  0  0  0  0  0  0  0  0  0  0  0
  185.7050  176.5310  145.9590 C   0  0  0  0  0  3  0  0  0  0  0  0
  184.7640  177.3600  146.5780 C   0  0  0  0  0  3  0  0  0  0  0  0
  185.1860  178.3580  147.4610 C   0  0  0  0  0  3  0  0  0  0  0  0
  2  3  2  0  0  0  0
  2  5  1  0  0  0  0
  3  4  1  0  0  0  0
  4  1  2  0  0  0  0
  4 33  1  0  0  0  0
  5  1  1  0  0  0  0
  6  8  1  0  0  0  0
  7  6  1  6  0  0  0
  7 14  1  0  0  0  0
  7  9  1  0  0  0  0
  8 10  1  0  0  0  0
 10  9  2  0  0  0  0
 10  3  1  0  0  0  0
 12 11  1  0  0  0  0
 13 14  1  0  0  0  0
 13 12  1  0  0  0  0
 14 15  1  0  0  0  0
 15 11  2  0  0  0  0
 16 19  1  6  0  0  0
 17 16  1  0  0  0  0
 18 17  1  6  0  0  0
 18  5  1  0  0  0  0
 18 16  1  0  0  0  0
 19 20  1  0  0  0  0
 20 21  1  0  0  0  0
 22 25  1  0  0  0  0
 22 24  2  0  0  0  0
 23 21  1  0  0  0  0
 23 22  1  0  0  0  0
 26 28  1  0  0  0  0
 27 25  1  0  0  0  0
 27 30  1  0  0  0  0
 28 32  1  0  0  0  0
 29 31  1  0  0  0  0
 29 28  2  0  0  0  0
 31 27  2  0  0  0  0
 32 30  2  0  0  0  0
 33 34  1  0  0  0  0
 34 37  1  0  0  0  0
 36 35  2  0  0  0  0
 37 36  1  0  0  0  0
 38 37  2  0  0  0  0
 38 39  1  0  0  0  0
 39 40  2  0  0  0  0
 40 35  1  0  0  0  0
M  END
>  <MODEL>
1

>  <REMARK>
 VINA RESULT:      -7.6      0.000      0.000
  Name = 
  11 active torsions:
  status: ('A' for Active; 'I' for Inactive)
    1  A    between atoms: C_7  and  N_19
    2  A    between atoms: C_8  and  N_38
    3  A    between atoms: N_15  and  C_23
    4  A    between atoms: O_16  and  C_28
    5  A    between atoms: O_16  and  C_39
    6  A    between atoms: C_17  and  C_29
    7  A    between atoms: C_18  and  C_30
    8  A    between atoms: C_23  and  N_32
    9  A    between atoms: C_24  and  C_39
   10  A    between atoms: C_29  and  N_32
   11  A    between atoms: N_31  and  C_35
                            x       y       z     vdW  Elec       q    Type
                         _______ _______ _______ _____ _____    ______ ____

>  <TORSDO>
F 11

$$$$
=
 OpenBabel11062419313D

 40 45  0  0  1  0  0  0  0  0999 V2000
  191.7010  176.3990  146.2460 N   0  0  0  0  0  0  0  0  0  0  0  0
  191.5070  175.4910  144.2490 C   0  0  0  0  0  3  0  0  0  0  0  0
  190.3410  176.1920  144.4970 C   0  0  0  0  0  0  0  0  0  0  0  0
  190.4950  176.7390  145.7600 C   0  0  0  0  0  0  0  0  0  0  0  0
  192.2910  175.6360  145.3350 N   0  0  0  0  0  0  0  0  0  0  0  0
  187.5220  175.7350  142.1650 C   0  0  0  0  0  2  0  0  0  0  0  0
  187.6660  177.2580  142.2420 C   0  0  2  0  0  3  0  0  0  0  0  0
  188.5230  175.2640  143.0500 O   0  0  0  0  0  0  0  0  0  0  0  0
  188.7830  177.4800  143.1510 N   0  0  0  0  0  0  0  0  0  0  0  0
  189.2130  176.3390  143.5670 C   0  0  0  0  0  0  0  0  0  0  0  0
  185.1480  179.4040  143.6360 C   0  0  0  0  0  3  0  0  0  0  0  0
  184.3320  178.3120  143.0270 C   0  0  0  0  0  2  0  0  0  0  0  0
  185.2240  177.3270  142.5390 O   0  0  0  0  0  0  0  0  0  0  0  0
  186.4500  177.8570  142.7800 N   0  0  0  0  0  0  0  0  0  0  0  0
  186.4020  179.0950  143.4570 C   0  0  0  0  0  3  0  0  0  0  0  0
  194.6370  175.8480  144.5990 C   0  0  2  0  0  3  0  0  0  0  0  0
  194.5650  176.0870  146.0950 C   0  0  0  0  0  2  0  0  0  0  0  0
  193.6360  175.0740  145.4460 C   0  0  1  0  0  3  0  0  0  0  0  0
  195.8150  174.9440  144.2890 C   0  0  0  0  0  2  0  0  0  0  0  0
  195.8160  174.6130  142.8740 N   0  0  0  0  0  2  0  0  0  0  0  0
  195.9220  173.1670  142.7740 C   0  0  0  0  0  2  0  0  0  0  0  0
  194.5500  171.4380  144.0040 C   0  0  0  0  0  0  0  0  0  0  0  0
  194.6460  172.5620  143.1210 N   0  0  0  0  0  2  0  0  0  0  0  0
  195.5830  171.0100  144.5920 O   0  0  0  0  0  0  0  0  0  0  0  0
  193.2980  170.7770  144.2320 N   0  0  0  0  0  2  0  0  0  0  0  0
  188.2860  172.2150  142.2000 F   0  0  0  0  0  0  0  0  0  0  0  0
  192.0180  171.1250  143.6860 C   0  0  0  0  0  0  0  0  0  0  0  0
  189.5010  171.8600  142.6840 C   0  0  0  0  0  0  0  0  0  0  0  0
  189.8740  172.2360  143.9770 C   0  0  0  0  0  3  0  0  0  0  0  0
  191.6350  170.7550  142.3870 C   0  0  0  0  0  3  0  0  0  0  0  0
  191.1290  171.8690  144.4740 C   0  0  0  0  0  3  0  0  0  0  0  0
  190.3790  171.1190  141.8860 C   0  0  0  0  0  3  0  0  0  0  0  0
  189.5480  177.6540  146.4630 C   0  0  0  0  0  2  0  0  0  0  0  0
  188.4680  176.9100  147.0190 O   0  0  0  0  0  0  0  0  0  0  0  0
  184.8140  177.0680  146.3640 C   0  0  0  0  0  3  0  0  0  0  0  0
  186.1280  176.5960  146.3800 C   0  0  0  0  0  3  0  0  0  0  0  0
  187.1420  177.3490  146.9920 C   0  0  0  0  0  0  0  0  0  0  0  0
  186.8250  178.5770  147.5840 C   0  0  0  0  0  3  0  0  0  0  0  0
  185.5090  179.0500  147.5660 C   0  0  0  0  0  3  0  0  0  0  0  0
  184.5040  178.2940  146.9560 C   0  0  0  0  0  3  0  0  0  0  0  0
  2  3  2  0  0  0  0
  2  5  1  0  0  0  0
  3  4  1  0  0  0  0
  4  1  2  0  0  0  0
  4 33  1  0  0  0  0
  5  1  1  0  0  0  0
  6  8  1  0  0  0  0
  7  6  1  1  0  0  0
  7 14  1  0  0  0  0
  7  9  1  0  0  0  0
  8 10  1  0  0  0  0
  9 10  2  0  0  0  0
 10  3  1  0  0  0  0
 12 11  1  0  0  0  0
 13 14  1  0  0  0  0
 13 12  1  0  0  0  0
 14 15  1  0  0  0  0
 15 11  2  0  0  0  0
 16 19  1  1  0  0  0
 16 18  1  0  0  0  0
 16 17  1  0  0  0  0
 18  5  1  6  0  0  0
 18 17  1  0  0  0  0
 20 19  1  0  0  0  0
 21 20  1  0  0  0  0
 21 23  1  0  0  0  0
 22 25  1  0  0  0  0
 22 24  2  0  0  0  0
 23 22  1  0  0  0  0
 26 28  1  0  0  0  0
 27 25  1  0  0  0  0
 27 31  1  0  0  0  0
 28 29  1  0  0  0  0
 29 31  2  0  0  0  0
 30 27  2  0  0  0  0
 32 30  1  0  0  0  0
 32 28  2  0  0  0  0
 33 34  1  0  0  0  0
 35 36  2  0  0  0  0
 35 40  1  0  0  0  0
 36 37  1  0  0  0  0
 37 34  1  0  0  0  0
 37 38  2  0  0  0  0
 39 38  1  0  0  0  0
 40 39  2  0  0  0  0
M  END
>  <MODEL>
2

>  <REMARK>
 VINA RESULT:      -7.5      1.871      3.722
  Name = 
  11 active torsions:
  status: ('A' for Active; 'I' for Inactive)
    1  A    between atoms: C_7  and  N_19
    2  A    between atoms: C_8  and  N_38
    3  A    between atoms: N_15  and  C_23
    4  A    between atoms: O_16  and  C_28
    5  A    between atoms: O_16  and  C_39
    6  A    between atoms: C_17  and  C_29
    7  A    between atoms: C_18  and  C_30
    8  A    between atoms: C_23  and  N_32
    9  A    between atoms: C_24  and  C_39
   10  A    between atoms: C_29  and  N_32
   11  A    between atoms: N_31  and  C_35
                            x       y       z     vdW  Elec       q    Type
                         _______ _______ _______ _____ _____    ______ ____

>  <TORSDO>
F 11

$$$$
=
 OpenBabel11062419313D

 40 45  0  0  1  0  0  0  0  0999 V2000
  191.3860  175.3750  146.4520 N   0  0  0  0  0  0  0  0  0  0  0  0
  191.5440  175.4790  144.2580 C   0  0  0  0  0  3  0  0  0  0  0  0
  190.2080  175.6290  144.5810 C   0  0  0  0  0  0  0  0  0  0  0  0
  190.1460  175.5480  145.9620 C   0  0  0  0  0  0  0  0  0  0  0  0
  192.2140  175.3190  145.4150 N   0  0  0  0  0  0  0  0  0  0  0  0
  187.4070  175.4030  142.1940 C   0  0  0  0  0  2  0  0  0  0  0  0
  187.6790  176.9090  142.2700 C   0  0  2  0  0  3  0  0  0  0  0  0
  188.3470  174.8520  143.0990 O   0  0  0  0  0  0  0  0  0  0  0  0
  188.7930  177.0380  143.2000 N   0  0  0  0  0  0  0  0  0  0  0  0
  189.1150  175.8670  143.6280 C   0  0  0  0  0  0  0  0  0  0  0  0
  185.3050  179.2860  143.5360 C   0  0  0  0  0  3  0  0  0  0  0  0
  184.4210  178.1930  143.0330 C   0  0  0  0  0  2  0  0  0  0  0  0
  185.2510  177.1280  142.6090 O   0  0  0  0  0  0  0  0  0  0  0  0
  186.5070  177.6110  142.7820 N   0  0  0  0  0  0  0  0  0  0  0  0
  186.5380  178.9000  143.3580 C   0  0  0  0  0  3  0  0  0  0  0  0
  194.3840  176.4190  145.0070 C   0  0  2  0  0  3  0  0  0  0  0  0
  194.2270  176.1730  146.4950 C   0  0  0  0  0  2  0  0  0  0  0  0
  193.6650  175.1700  145.5010 C   0  0  1  0  0  3  0  0  0  0  0  0
  195.7880  176.0350  144.5780 C   0  0  0  0  0  2  0  0  0  0  0  0
  196.0640  176.5890  143.2640 N   0  0  0  0  0  2  0  0  0  0  0  0
  197.1580  175.8190  142.6960 C   0  0  0  0  0  2  0  0  0  0  0  0
  196.5590  173.4650  142.0010 C   0  0  0  0  0  0  0  0  0  0  0  0
  196.9680  174.4100  142.9980 N   0  0  0  0  0  2  0  0  0  0  0  0
  196.4550  173.8280  140.7950 O   0  0  0  0  0  0  0  0  0  0  0  0
  196.2520  172.1070  142.3460 N   0  0  0  0  0  2  0  0  0  0  0  0
  196.6980  169.7200  147.3880 F   0  0  0  0  0  0  0  0  0  0  0  0
  196.3340  171.4990  143.6430 C   0  0  0  0  0  0  0  0  0  0  0  0
  196.5790  170.2990  146.1690 C   0  0  0  0  0  0  0  0  0  0  0  0
  197.6540  170.2720  145.2760 C   0  0  0  0  0  3  0  0  0  0  0  0
  195.2610  171.5240  144.5480 C   0  0  0  0  0  3  0  0  0  0  0  0
  197.5300  170.8710  144.0180 C   0  0  0  0  0  3  0  0  0  0  0  0
  195.3810  170.9250  145.8070 C   0  0  0  0  0  3  0  0  0  0  0  0
  188.9360  175.7290  146.8180 C   0  0  0  0  0  2  0  0  0  0  0  0
  188.5270  177.0930  146.8050 O   0  0  0  0  0  0  0  0  0  0  0  0
  185.4550  179.0630  147.5070 C   0  0  0  0  0  3  0  0  0  0  0  0
  186.8030  178.7000  147.4600 C   0  0  0  0  0  3  0  0  0  0  0  0
  187.1880  177.4890  146.8630 C   0  0  0  0  0  0  0  0  0  0  0  0
  186.2100  176.6500  146.3180 C   0  0  0  0  0  3  0  0  0  0  0  0
  184.8610  177.0130  146.3670 C   0  0  0  0  0  3  0  0  0  0  0  0
  184.4840  178.2210  146.9620 C   0  0  0  0  0  3  0  0  0  0  0  0
  2  3  2  0  0  0  0
  2  5  1  0  0  0  0
  3  4  1  0  0  0  0
  4  1  2  0  0  0  0
  4 33  1  0  0  0  0
  5  1  1  0  0  0  0
  6  8  1  0  0  0  0
  7  6  1  1  0  0  0
  7 14  1  0  0  0  0
  7  9  1  0  0  0  0
  8 10  1  0  0  0  0
  9 10  2  0  0  0  0
 10  3  1  0  0  0  0
 12 11  1  0  0  0  0
 13 14  1  0  0  0  0
 13 12  1  0  0  0  0
 14 15  1  0  0  0  0
 15 11  2  0  0  0  0
 16 19  1  1  0  0  0
 16 18  1  0  0  0  0
 16 17  1  0  0  0  0
 18  5  1  6  0  0  0
 18 17  1  0  0  0  0
 20 19  1  0  0  0  0
 21 23  1  0  0  0  0
 21 20  1  0  0  0  0
 22 25  1  0  0  0  0
 22 23  1  0  0  0  0
 24 22  2  0  0  0  0
 25 27  1  0  0  0  0
 27 31  2  0  0  0  0
 27 30  1  0  0  0  0
 28 26  1  0  0  0  0
 29 28  2  0  0  0  0
 30 32  2  0  0  0  0
 31 29  1  0  0  0  0
 32 28  1  0  0  0  0
 34 33  1  0  0  0  0
 34 37  1  0  0  0  0
 36 35  1  0  0  0  0
 37 36  2  0  0  0  0
 38 39  2  0  0  0  0
 38 37  1  0  0  0  0
 39 40  1  0  0  0  0
 40 35  2  0  0  0  0
M  END
>  <MODEL>
3

>  <REMARK>
 VINA RESULT:      -7.5      2.572      4.070
  Name = 
  11 active torsions:
  status: ('A' for Active; 'I' for Inactive)
    1  A    between atoms: C_7  and  N_19
    2  A    between atoms: C_8  and  N_38
    3  A    between atoms: N_15  and  C_23
    4  A    between atoms: O_16  and  C_28
    5  A    between atoms: O_16  and  C_39
    6  A    between atoms: C_17  and  C_29
    7  A    between atoms: C_18  and  C_30
    8  A    between atoms: C_23  and  N_32
    9  A    between atoms: C_24  and  C_39
   10  A    between atoms: C_29  and  N_32
   11  A    between atoms: N_31  and  C_35
                            x       y       z     vdW  Elec       q    Type
                         _______ _______ _______ _____ _____    ______ ____

>  <TORSDO>
F 11

$$$$
=
 OpenBabel11062419313D

 40 45  0  0  1  0  0  0  0  0999 V2000
  188.5810  175.4800  146.3030 N   0  0  0  0  0  0  0  0  0  0  0  0
  189.9230  177.1800  146.7040 C   0  0  0  0  0  3  0  0  0  0  0  0
  190.7000  176.1530  146.2000 C   0  0  0  0  0  0  0  0  0  0  0  0
  189.8280  175.1020  145.9700 C   0  0  0  0  0  0  0  0  0  0  0  0
  188.6560  176.7240  146.7580 N   0  0  0  0  0  0  0  0  0  0  0  0
  194.3700  175.7990  146.1780 C   0  0  0  0  0  2  0  0  0  0  0  0
  194.1100  176.7940  145.0420 C   0  0  2  0  0  3  0  0  0  0  0  0
  193.0710  175.4890  146.6500 O   0  0  0  0  0  0  0  0  0  0  0  0
  192.6630  176.9690  145.0270 N   0  0  0  0  0  0  0  0  0  0  0  0
  192.1440  176.2190  145.9360 C   0  0  0  0  0  0  0  0  0  0  0  0
  195.9830  175.5510  142.2430 C   0  0  0  0  0  3  0  0  0  0  0  0
  194.6220  174.9930  141.9870 C   0  0  0  0  0  2  0  0  0  0  0  0
  193.7490  175.5140  142.9720 O   0  0  0  0  0  0  0  0  0  0  0  0
  194.5670  176.2450  143.7710 N   0  0  0  0  0  0  0  0  0  0  0  0
  195.9040  176.2830  143.3190 C   0  0  0  0  0  3  0  0  0  0  0  0
  186.5480  177.8000  146.0570 C   0  0  2  0  0  3  0  0  0  0  0  0
  186.2380  176.7240  147.0800 C   0  0  0  0  0  2  0  0  0  0  0  0
  187.5200  177.5310  147.1990 C   0  0  1  0  0  3  0  0  0  0  0  0
  185.7490  179.0480  146.3800 C   0  0  0  0  0  2  0  0  0  0  0  0
  184.3330  178.7260  146.4050 N   0  0  0  0  0  2  0  0  0  0  0  0
  183.8050  179.0120  145.0820 C   0  0  0  0  0  2  0  0  0  0  0  0
  184.3000  178.1430  142.7610 C   0  0  0  0  0  0  0  0  0  0  0  0
  184.7310  178.5200  144.0740 N   0  0  0  0  0  2  0  0  0  0  0  0
  183.1000  178.3340  142.4140 O   0  0  0  0  0  0  0  0  0  0  0  0
  185.2050  177.5410  141.8260 N   0  0  0  0  0  2  0  0  0  0  0  0
  190.6730  176.6070  142.5700 F   0  0  0  0  0  0  0  0  0  0  0  0
  186.6010  177.2690  142.0170 C   0  0  0  0  0  0  0  0  0  0  0  0
  189.3470  176.8220  142.3900 C   0  0  0  0  0  0  0  0  0  0  0  0
  188.8880  178.0950  142.0410 C   0  0  0  0  0  3  0  0  0  0  0  0
  187.0720  175.9940  142.3720 C   0  0  0  0  0  3  0  0  0  0  0  0
  187.5200  178.3160  141.8560 C   0  0  0  0  0  3  0  0  0  0  0  0
  188.4410  175.7700  142.5560 C   0  0  0  0  0  3  0  0  0  0  0  0
  190.1550  173.7830  145.3510 C   0  0  0  0  0  2  0  0  0  0  0  0
  190.9190  173.9750  144.1650 O   0  0  0  0  0  0  0  0  0  0  0  0
  191.0340  172.6780  140.6840 C   0  0  0  0  0  3  0  0  0  0  0  0
  191.1140  173.5630  141.7610 C   0  0  0  0  0  3  0  0  0  0  0  0
  190.8540  173.1150  143.0660 C   0  0  0  0  0  0  0  0  0  0  0  0
  190.5120  171.7740  143.2760 C   0  0  0  0  0  3  0  0  0  0  0  0
  190.4300  170.8890  142.1970 C   0  0  0  0  0  3  0  0  0  0  0  0
  190.6910  171.3420  140.9010 C   0  0  0  0  0  3  0  0  0  0  0  0
  1  5  1  0  0  0  0
  2  5  1  0  0  0  0
  3  2  2  0  0  0  0
  4  3  1  0  0  0  0
  4  1  2  0  0  0  0
  6  8  1  0  0  0  0
  7 14  1  6  0  0  0
  7  6  1  0  0  0  0
  9  7  1  0  0  0  0
  9 10  2  0  0  0  0
 10  3  1  0  0  0  0
 10  8  1  0  0  0  0
 11 15  2  0  0  0  0
 12 11  1  0  0  0  0
 12 13  1  0  0  0  0
 13 14  1  0  0  0  0
 15 14  1  0  0  0  0
 16 19  1  1  0  0  0
 16 17  1  0  0  0  0
 16 18  1  0  0  0  0
 17 18  1  0  0  0  0
 18  5  1  6  0  0  0
 19 20  1  0  0  0  0
 21 20  1  0  0  0  0
 22 23  1  0  0  0  0
 23 21  1  0  0  0  0
 24 22  2  0  0  0  0
 25 27  1  0  0  0  0
 25 22  1  0  0  0  0
 27 30  1  0  0  0  0
 28 32  1  0  0  0  0
 28 26  1  0  0  0  0
 29 28  2  0  0  0  0
 30 32  2  0  0  0  0
 31 27  2  0  0  0  0
 31 29  1  0  0  0  0
 33  4  1  0  0  0  0
 34 33  1  0  0  0  0
 35 40  2  0  0  0  0
 35 36  1  0  0  0  0
 36 37  2  0  0  0  0
 37 38  1  0  0  0  0
 37 34  1  0  0  0  0
 39 38  2  0  0  0  0
 40 39  1  0  0  0  0
M  END
>  <MODEL>
4

>  <REMARK>
 VINA RESULT:      -7.4      2.589      8.775
  Name = 
  11 active torsions:
  status: ('A' for Active; 'I' for Inactive)
    1  A    between atoms: C_7  and  N_19
    2  A    between atoms: C_8  and  N_38
    3  A    between atoms: N_15  and  C_23
    4  A    between atoms: O_16  and  C_28
    5  A    between atoms: O_16  and  C_39
    6  A    between atoms: C_17  and  C_29
    7  A    between atoms: C_18  and  C_30
    8  A    between atoms: C_23  and  N_32
    9  A    between atoms: C_24  and  C_39
   10  A    between atoms: C_29  and  N_32
   11  A    between atoms: N_31  and  C_35
                            x       y       z     vdW  Elec       q    Type
                         _______ _______ _______ _____ _____    ______ ____

>  <TORSDO>
F 11

$$$$
=
 OpenBabel11062419313D

 40 45  0  0  1  0  0  0  0  0999 V2000
  190.2520  175.6340  141.9990 N   0  0  0  0  0  0  0  0  0  0  0  0
  188.1390  175.3030  141.4750 C   0  0  0  0  0  3  0  0  0  0  0  0
  188.2110  176.5080  142.1480 C   0  0  0  0  0  0  0  0  0  0  0  0
  189.5470  176.6780  142.4690 C   0  0  0  0  0  0  0  0  0  0  0  0
  189.3910  174.8080  141.4180 N   0  0  0  0  0  0  0  0  0  0  0  0
  184.9910  178.3000  142.2570 C   0  0  0  0  0  2  0  0  0  0  0  0
  185.8730  179.1120  143.2110 C   0  0  2  0  0  3  0  0  0  0  0  0
  185.8420  177.2510  141.8320 O   0  0  0  0  0  0  0  0  0  0  0  0
  187.1640  178.4380  143.1860 N   0  0  0  0  0  0  0  0  0  0  0  0
  187.0840  177.4140  142.4090 C   0  0  0  0  0  0  0  0  0  0  0  0
  183.8860  178.6520  146.1660 C   0  0  0  0  0  3  0  0  0  0  0  0
  185.2330  178.9550  146.7340 C   0  0  0  0  0  2  0  0  0  0  0  0
  186.0940  179.2760  145.6570 O   0  0  0  0  0  0  0  0  0  0  0  0
  185.3170  179.0910  144.5590 N   0  0  0  0  0  0  0  0  0  0  0  0
  183.9850  178.7360  144.8690 C   0  0  0  0  0  3  0  0  0  0  0  0
  189.6330  172.3680  141.6890 C   0  0  2  0  0  3  0  0  0  0  0  0
  188.5280  172.6460  140.6890 C   0  0  0  0  0  2  0  0  0  0  0  0
  189.7420  173.5590  140.7460 C   0  0  1  0  0  3  0  0  0  0  0  0
  190.5160  171.2500  141.1660 C   0  0  0  0  0  2  0  0  0  0  0  0
  191.7080  171.1450  141.9900 N   0  0  0  0  0  2  0  0  0  0  0  0
  191.3310  171.5270  143.3400 C   0  0  0  0  0  2  0  0  0  0  0  0
  193.4450  171.7120  144.7110 C   0  0  0  0  0  0  0  0  0  0  0  0
  192.3990  172.3120  143.9380 N   0  0  0  0  0  2  0  0  0  0  0  0
  193.5190  170.4550  144.8020 O   0  0  0  0  0  0  0  0  0  0  0  0
  194.4140  172.5150  145.3990 N   0  0  0  0  0  2  0  0  0  0  0  0
  194.7580  178.1000  145.5060 F   0  0  0  0  0  0  0  0  0  0  0  0
  194.5180  173.9460  145.3980 C   0  0  0  0  0  0  0  0  0  0  0  0
  194.6790  176.7480  145.4710 C   0  0  0  0  0  0  0  0  0  0  0  0
  193.8690  176.0710  146.3860 C   0  0  0  0  0  3  0  0  0  0  0  0
  195.3330  174.6350  144.4850 C   0  0  0  0  0  3  0  0  0  0  0  0
  193.7900  174.6760  146.3480 C   0  0  0  0  0  3  0  0  0  0  0  0
  195.4130  176.0320  144.5190 C   0  0  0  0  0  3  0  0  0  0  0  0
  190.1670  177.8640  143.1320 C   0  0  0  0  0  2  0  0  0  0  0  0
  190.7170  177.4890  144.3910 O   0  0  0  0  0  0  0  0  0  0  0  0
  189.6660  174.6230  146.5100 C   0  0  0  0  0  3  0  0  0  0  0  0
  190.3800  175.3750  145.5740 C   0  0  0  0  0  3  0  0  0  0  0  0
  190.0290  176.7110  145.3250 C   0  0  0  0  0  0  0  0  0  0  0  0
  188.9560  177.2810  146.0210 C   0  0  0  0  0  3  0  0  0  0  0  0
  188.2410  176.5260  146.9550 C   0  0  0  0  0  3  0  0  0  0  0  0
  188.5970  175.1960  147.2000 C   0  0  0  0  0  3  0  0  0  0  0  0
  1  4  2  0  0  0  0
  2  3  2  0  0  0  0
  3 10  1  0  0  0  0
  3  4  1  0  0  0  0
  4 33  1  0  0  0  0
  5  2  1  0  0  0  0
  5  1  1  0  0  0  0
  7  6  1  6  0  0  0
  7 14  1  0  0  0  0
  8  6  1  0  0  0  0
  8 10  1  0  0  0  0
  9  7  1  0  0  0  0
 10  9  2  0  0  0  0
 11 12  1  0  0  0  0
 13 12  1  0  0  0  0
 14 15  1  0  0  0  0
 14 13  1  0  0  0  0
 15 11  2  0  0  0  0
 16 19  1  6  0  0  0
 17 16  1  0  0  0  0
 18 17  1  6  0  0  0
 18  5  1  0  0  0  0
 18 16  1  0  0  0  0
 19 20  1  0  0  0  0
 20 21  1  0  0  0  0
 21 23  1  0  0  0  0
 22 24  2  0  0  0  0
 22 25  1  0  0  0  0
 23 22  1  0  0  0  0
 27 25  1  0  0  0  0
 27 31  1  0  0  0  0
 28 26  1  0  0  0  0
 28 29  1  0  0  0  0
 30 32  1  0  0  0  0
 30 27  2  0  0  0  0
 31 29  2  0  0  0  0
 32 28  2  0  0  0  0
 33 34  1  0  0  0  0
 34 37  1  0  0  0  0
 35 40  1  0  0  0  0
 36 35  2  0  0  0  0
 37 36  1  0  0  0  0
 37 38  2  0  0  0  0
 38 39  1  0  0  0  0
 39 40  2  0  0  0  0
M  END
>  <MODEL>
5

>  <REMARK>
 VINA RESULT:      -7.4      1.895      2.950
  Name = 
  11 active torsions:
  status: ('A' for Active; 'I' for Inactive)
    1  A    between atoms: C_7  and  N_19
    2  A    between atoms: C_8  and  N_38
    3  A    between atoms: N_15  and  C_23
    4  A    between atoms: O_16  and  C_28
    5  A    between atoms: O_16  and  C_39
    6  A    between atoms: C_17  and  C_29
    7  A    between atoms: C_18  and  C_30
    8  A    between atoms: C_23  and  N_32
    9  A    between atoms: C_24  and  C_39
   10  A    between atoms: C_29  and  N_32
   11  A    between atoms: N_31  and  C_35
                            x       y       z     vdW  Elec       q    Type
                         _______ _______ _______ _____ _____    ______ ____

>  <TORSDO>
F 11

$$$$
=
 OpenBabel11062419313D

 40 45  0  0  1  0  0  0  0  0999 V2000
  191.9140  176.6730  145.0310 N   0  0  0  0  0  0  0  0  0  0  0  0
  191.0000  176.1340  146.9600 C   0  0  0  0  0  3  0  0  0  0  0  0
  190.1400  177.0150  146.3310 C   0  0  0  0  0  0  0  0  0  0  0  0
  190.7500  177.3390  145.1310 C   0  0  0  0  0  0  0  0  0  0  0  0
  192.0590  175.9660  146.1440 N   0  0  0  0  0  0  0  0  0  0  0  0
  187.3270  178.6280  148.0850 C   0  0  0  0  0  2  0  0  0  0  0  0
  186.6320  177.6030  147.1830 C   0  0  2  0  0  3  0  0  0  0  0  0
  188.6990  178.4660  147.7730 O   0  0  0  0  0  0  0  0  0  0  0  0
  187.7180  176.9330  146.4780 N   0  0  0  0  0  0  0  0  0  0  0  0
  188.8360  177.4570  146.8440 C   0  0  0  0  0  0  0  0  0  0  0  0
  183.8760  179.0410  145.3880 C   0  0  0  0  0  3  0  0  0  0  0  0
  185.0470  179.7430  144.7840 C   0  0  0  0  0  2  0  0  0  0  0  0
  186.2210  179.1720  145.3320 O   0  0  0  0  0  0  0  0  0  0  0  0
  185.7510  178.2740  146.2340 N   0  0  0  0  0  0  0  0  0  0  0  0
  184.3420  178.1820  146.2510 C   0  0  0  0  0  3  0  0  0  0  0  0
  194.0010  174.7830  145.1890 C   0  0  2  0  0  3  0  0  0  0  0  0
  194.4910  175.7960  146.2050 C   0  0  0  0  0  2  0  0  0  0  0  0
  193.1760  175.0710  146.4360 C   0  0  1  0  0  3  0  0  0  0  0  0
  194.7420  173.4740  145.3860 C   0  0  0  0  0  2  0  0  0  0  0  0
  194.4540  172.5800  144.2780 N   0  0  0  0  0  2  0  0  0  0  0  0
  193.4050  171.6760  144.7180 C   0  0  0  0  0  2  0  0  0  0  0  0
  191.8670  170.5650  143.0480 C   0  0  0  0  0  0  0  0  0  0  0  0
  192.2980  171.7220  143.7760 N   0  0  0  0  0  2  0  0  0  0  0  0
  192.3830  169.4390  143.2940 O   0  0  0  0  0  0  0  0  0  0  0  0
  190.8600  170.6600  142.0310 N   0  0  0  0  0  2  0  0  0  0  0  0
  188.1100  175.2340  140.3460 F   0  0  0  0  0  0  0  0  0  0  0  0
  190.1390  171.8330  141.6270 C   0  0  0  0  0  0  0  0  0  0  0  0
  188.7710  174.1270  140.7640 C   0  0  0  0  0  0  0  0  0  0  0  0
  189.8930  173.6780  140.0620 C   0  0  0  0  0  3  0  0  0  0  0  0
  189.0080  172.2900  142.3240 C   0  0  0  0  0  3  0  0  0  0  0  0
  190.5730  172.5340  140.4940 C   0  0  0  0  0  3  0  0  0  0  0  0
  188.3260  173.4350  141.8950 C   0  0  0  0  0  3  0  0  0  0  0  0
  190.1920  178.1970  144.0430 C   0  0  0  0  0  2  0  0  0  0  0  0
  189.5940  177.3850  143.0370 O   0  0  0  0  0  0  0  0  0  0  0  0
  186.0080  176.4170  143.1370 C   0  0  0  0  0  3  0  0  0  0  0  0
  187.3770  176.4200  143.4090 C   0  0  0  0  0  3  0  0  0  0  0  0
  188.2190  177.3590  142.7920 C   0  0  0  0  0  0  0  0  0  0  0  0
  187.6730  178.2910  141.9020 C   0  0  0  0  0  3  0  0  0  0  0  0
  186.3020  178.2860  141.6290 C   0  0  0  0  0  3  0  0  0  0  0  0
  185.4690  177.3480  142.2470 C   0  0  0  0  0  3  0  0  0  0  0  0
  1  4  2  0  0  0  0
  1  5  1  0  0  0  0
  3 10  1  0  0  0  0
  3  2  2  0  0  0  0
  4  3  1  0  0  0  0
  5  2  1  0  0  0  0
  7 14  1  6  0  0  0
  7  6  1  0  0  0  0
  8  6  1  0  0  0  0
  9 10  2  0  0  0  0
  9  7  1  0  0  0  0
 10  8  1  0  0  0  0
 11 15  2  0  0  0  0
 12 13  1  0  0  0  0
 12 11  1  0  0  0  0
 13 14  1  0  0  0  0
 14 15  1  0  0  0  0
 16 19  1  1  0  0  0
 16 17  1  0  0  0  0
 16 18  1  0  0  0  0
 17 18  1  0  0  0  0
 18  5  1  6  0  0  0
 20 21  1  0  0  0  0
 20 19  1  0  0  0  0
 22 24  2  0  0  0  0
 22 23  1  0  0  0  0
 23 21  1  0  0  0  0
 25 22  1  0  0  0  0
 26 28  1  0  0  0  0
 27 25  1  0  0  0  0
 27 30  1  0  0  0  0
 28 32  1  0  0  0  0
 29 31  1  0  0  0  0
 29 28  2  0  0  0  0
 31 27  2  0  0  0  0
 32 30  2  0  0  0  0
 33  4  1  0  0  0  0
 34 33  1  0  0  0  0
 35 36  1  0  0  0  0
 37 34  1  0  0  0  0
 37 36  2  0  0  0  0
 38 37  1  0  0  0  0
 39 38  2  0  0  0  0
 39 40  1  0  0  0  0
 40 35  2  0  0  0  0
M  END
>  <MODEL>
6

>  <REMARK>
 VINA RESULT:      -7.2      2.465      4.929
  Name = 
  11 active torsions:
  status: ('A' for Active; 'I' for Inactive)
    1  A    between atoms: C_7  and  N_19
    2  A    between atoms: C_8  and  N_38
    3  A    between atoms: N_15  and  C_23
    4  A    between atoms: O_16  and  C_28
    5  A    between atoms: O_16  and  C_39
    6  A    between atoms: C_17  and  C_29
    7  A    between atoms: C_18  and  C_30
    8  A    between atoms: C_23  and  N_32
    9  A    between atoms: C_24  and  C_39
   10  A    between atoms: C_29  and  N_32
   11  A    between atoms: N_31  and  C_35
                            x       y       z     vdW  Elec       q    Type
                         _______ _______ _______ _____ _____    ______ ____

>  <TORSDO>
F 11

$$$$
=
 OpenBabel11062419313D

 40 45  0  0  1  0  0  0  0  0999 V2000
  190.2690  173.8110  142.6800 N   0  0  0  0  0  0  0  0  0  0  0  0
  190.6380  175.8710  143.3660 C   0  0  0  0  0  3  0  0  0  0  0  0
  191.8250  175.1740  143.5030 C   0  0  0  0  0  0  0  0  0  0  0  0
  191.5530  173.8860  143.0740 C   0  0  0  0  0  0  0  0  0  0  0  0
  189.7280  175.0070  142.8770 N   0  0  0  0  0  0  0  0  0  0  0  0
  194.5500  176.9430  145.2450 C   0  0  0  0  0  2  0  0  0  0  0  0
  195.2760  176.2270  144.1010 C   0  0  2  0  0  3  0  0  0  0  0  0
  193.2010  176.5450  145.0810 O   0  0  0  0  0  0  0  0  0  0  0  0
  194.2240  175.5220  143.3790 N   0  0  0  0  0  0  0  0  0  0  0  0
  193.1000  175.7330  143.9710 C   0  0  0  0  0  0  0  0  0  0  0  0
  197.0410  173.6580  145.8820 C   0  0  0  0  0  3  0  0  0  0  0  0
  197.9000  173.8550  144.6770 C   0  0  0  0  0  2  0  0  0  0  0  0
  197.3670  174.9400  143.9400 O   0  0  0  0  0  0  0  0  0  0  0  0
  196.2490  175.2790  144.6310 N   0  0  0  0  0  0  0  0  0  0  0  0
  196.0670  174.5210  145.8080 C   0  0  0  0  0  3  0  0  0  0  0  0
  188.2980  176.6130  141.6670 C   0  0  2  0  0  3  0  0  0  0  0  0
  188.1220  175.2370  141.0550 C   0  0  0  0  0  2  0  0  0  0  0  0
  188.3510  175.3740  142.5520 C   0  0  1  0  0  3  0  0  0  0  0  0
  186.9400  177.2700  141.8300 C   0  0  0  0  0  2  0  0  0  0  0  0
  187.1130  178.6390  142.2850 N   0  0  0  0  0  2  0  0  0  0  0  0
  186.2610  178.8130  143.4490 C   0  0  0  0  0  2  0  0  0  0  0  0
  186.3810  178.3620  145.9330 C   0  0  0  0  0  0  0  0  0  0  0  0
  186.8770  178.1750  144.6020 N   0  0  0  0  0  2  0  0  0  0  0  0
  185.3160  179.0140  146.1220 O   0  0  0  0  0  0  0  0  0  0  0  0
  187.0780  177.8290  147.0670 N   0  0  0  0  0  2  0  0  0  0  0  0
  191.6940  174.6640  146.9930 F   0  0  0  0  0  0  0  0  0  0  0  0
  188.2790  177.0420  147.0600 C   0  0  0  0  0  0  0  0  0  0  0  0
  190.5820  175.4390  147.0150 C   0  0  0  0  0  0  0  0  0  0  0  0
  189.3260  174.8630  146.8090 C   0  0  0  0  0  3  0  0  0  0  0  0
  189.5460  177.6130  147.2630 C   0  0  0  0  0  3  0  0  0  0  0  0
  188.1800  175.6630  146.8310 C   0  0  0  0  0  3  0  0  0  0  0  0
  190.6950  176.8150  147.2420 C   0  0  0  0  0  3  0  0  0  0  0  0
  192.5240  172.7590  142.9460 C   0  0  0  0  0  2  0  0  0  0  0  0
  192.1700  171.7040  143.8360 O   0  0  0  0  0  0  0  0  0  0  0  0
  194.0290  168.6740  144.9190 C   0  0  0  0  0  3  0  0  0  0  0  0
  193.0780  169.4780  144.2860 C   0  0  0  0  0  3  0  0  0  0  0  0
  193.1100  170.8720  144.4480 C   0  0  0  0  0  0  0  0  0  0  0  0
  194.1020  171.4480  145.2490 C   0  0  0  0  0  3  0  0  0  0  0  0
  195.0530  170.6430  145.8830 C   0  0  0  0  0  3  0  0  0  0  0  0
  195.0160  169.2550  145.7170 C   0  0  0  0  0  3  0  0  0  0  0  0
  1  5  1  0  0  0  0
  1  4  2  0  0  0  0
  2  3  2  0  0  0  0
  3 10  1  0  0  0  0
  4  3  1  0  0  0  0
  5  2  1  0  0  0  0
  7 14  1  1  0  0  0
  7  6  1  0  0  0  0
  8  6  1  0  0  0  0
  9 10  2  0  0  0  0
  9  7  1  0  0  0  0
 10  8  1  0  0  0  0
 12 11  1  0  0  0  0
 13 14  1  0  0  0  0
 13 12  1  0  0  0  0
 14 15  1  0  0  0  0
 15 11  2  0  0  0  0
 16 19  1  1  0  0  0
 16 18  1  0  0  0  0
 17 16  1  0  0  0  0
 18 17  1  6  0  0  0
 18  5  1  0  0  0  0
 19 20  1  0  0  0  0
 20 21  1  0  0  0  0
 21 23  1  0  0  0  0
 22 24  2  0  0  0  0
 22 25  1  0  0  0  0
 23 22  1  0  0  0  0
 26 28  1  0  0  0  0
 27 25  1  0  0  0  0
 27 30  1  0  0  0  0
 28 32  1  0  0  0  0
 29 31  1  0  0  0  0
 29 28  2  0  0  0  0
 31 27  2  0  0  0  0
 32 30  2  0  0  0  0
 33  4  1  0  0  0  0
 33 34  1  0  0  0  0
 34 37  1  0  0  0  0
 35 40  1  0  0  0  0
 36 37  1  0  0  0  0
 36 35  2  0  0  0  0
 37 38  2  0  0  0  0
 38 39  1  0  0  0  0
 40 39  2  0  0  0  0
M  END
>  <MODEL>
7

>  <REMARK>
 VINA RESULT:      -7.1      2.313      8.763
  Name = 
  11 active torsions:
  status: ('A' for Active; 'I' for Inactive)
    1  A    between atoms: C_7  and  N_19
    2  A    between atoms: C_8  and  N_38
    3  A    between atoms: N_15  and  C_23
    4  A    between atoms: O_16  and  C_28
    5  A    between atoms: O_16  and  C_39
    6  A    between atoms: C_17  and  C_29
    7  A    between atoms: C_18  and  C_30
    8  A    between atoms: C_23  and  N_32
    9  A    between atoms: C_24  and  C_39
   10  A    between atoms: C_29  and  N_32
   11  A    between atoms: N_31  and  C_35
                            x       y       z     vdW  Elec       q    Type
                         _______ _______ _______ _____ _____    ______ ____

>  <TORSDO>
F 11

$$$$
=
 OpenBabel11062419313D

 40 45  0  0  1  0  0  0  0  0999 V2000
  189.4790  174.6400  141.2340 N   0  0  0  0  0  0  0  0  0  0  0  0
  190.8240  174.7480  142.9750 C   0  0  0  0  0  3  0  0  0  0  0  0
  189.6760  175.4460  143.3000 C   0  0  0  0  0  0  0  0  0  0  0  0
  188.8610  175.3660  142.1830 C   0  0  0  0  0  0  0  0  0  0  0  0
  190.6640  174.2900  141.7180 N   0  0  0  0  0  0  0  0  0  0  0  0
  189.5770  177.5770  146.3060 C   0  0  0  0  0  2  0  0  0  0  0  0
  188.5240  176.5050  146.6060 C   0  0  2  0  0  3  0  0  0  0  0  0
  190.0410  177.2330  145.0130 O   0  0  0  0  0  0  0  0  0  0  0  0
  188.5420  175.6320  145.4390 N   0  0  0  0  0  0  0  0  0  0  0  0
  189.3980  176.0880  144.5920 C   0  0  0  0  0  0  0  0  0  0  0  0
  185.0200  177.2790  146.7010 C   0  0  0  0  0  3  0  0  0  0  0  0
  185.5950  178.3020  147.6220 C   0  0  0  0  0  2  0  0  0  0  0  0
  187.0050  178.1770  147.5800 O   0  0  0  0  0  0  0  0  0  0  0  0
  187.2080  177.1140  146.7620 N   0  0  0  0  0  0  0  0  0  0  0  0
  186.0150  176.5890  146.2190 C   0  0  0  0  0  3  0  0  0  0  0  0
  193.0650  173.9810  141.2410 C   0  0  2  0  0  3  0  0  0  0  0  0
  192.5630  172.7910  142.0340 C   0  0  0  0  0  2  0  0  0  0  0  0
  191.6490  173.4640  141.0230 C   0  0  1  0  0  3  0  0  0  0  0  0
  193.9430  173.4940  140.1030 C   0  0  0  0  0  2  0  0  0  0  0  0
  195.3370  173.7570  140.4160 N   0  0  0  0  0  2  0  0  0  0  0  0
  195.4420  175.1670  140.7520 C   0  0  0  0  0  2  0  0  0  0  0  0
  196.3960  175.5900  143.0540 C   0  0  0  0  0  0  0  0  0  0  0  0
  195.2830  175.3370  142.1880 N   0  0  0  0  0  2  0  0  0  0  0  0
  197.5450  175.7770  142.5640 O   0  0  0  0  0  0  0  0  0  0  0  0
  196.2350  175.6260  144.4790 N   0  0  0  0  0  2  0  0  0  0  0  0
  191.4840  175.1330  147.3960 F   0  0  0  0  0  0  0  0  0  0  0  0
  195.0170  175.4670  145.2210 C   0  0  0  0  0  0  0  0  0  0  0  0
  192.6350  175.2410  146.6880 C   0  0  0  0  0  0  0  0  0  0  0  0
  193.3530  176.4400  146.7030 C   0  0  0  0  0  3  0  0  0  0  0  0
  194.2870  174.2680  145.2090 C   0  0  0  0  0  3  0  0  0  0  0  0
  194.5400  176.5500  145.9720 C   0  0  0  0  0  3  0  0  0  0  0  0
  193.0990  174.1530  145.9410 C   0  0  0  0  0  3  0  0  0  0  0  0
  187.4690  175.8890  142.0480 C   0  0  0  0  0  2  0  0  0  0  0  0
  187.4590  177.3030  142.2210 O   0  0  0  0  0  0  0  0  0  0  0  0
  185.4710  179.7780  144.1530 C   0  0  0  0  0  3  0  0  0  0  0  0
  186.5710  179.1110  143.6090 C   0  0  0  0  0  3  0  0  0  0  0  0
  186.3810  177.9970  142.7760 C   0  0  0  0  0  0  0  0  0  0  0  0
  185.0810  177.5610  142.4980 C   0  0  0  0  0  3  0  0  0  0  0  0
  183.9800  178.2280  143.0440 C   0  0  0  0  0  3  0  0  0  0  0  0
  184.1770  179.3380  143.8720 C   0  0  0  0  0  3  0  0  0  0  0  0
  1  5  1  0  0  0  0
  1  4  2  0  0  0  0
  2  3  2  0  0  0  0
  3 10  1  0  0  0  0
  4  3  1  0  0  0  0
  5  2  1  0  0  0  0
  7  6  1  6  0  0  0
  7 14  1  0  0  0  0
  8  6  1  0  0  0  0
  9  7  1  0  0  0  0
 10  8  1  0  0  0  0
 10  9  2  0  0  0  0
 11 12  1  0  0  0  0
 13 12  1  0  0  0  0
 14 13  1  0  0  0  0
 15 11  2  0  0  0  0
 15 14  1  0  0  0  0
 16 19  1  6  0  0  0
 16 17  1  0  0  0  0
 18 16  1  0  0  0  0
 18  5  1  1  0  0  0
 18 17  1  0  0  0  0
 19 20  1  0  0  0  0
 20 21  1  0  0  0  0
 21 23  1  0  0  0  0
 22 25  1  0  0  0  0
 23 22  1  0  0  0  0
 24 22  2  0  0  0  0
 25 27  1  0  0  0  0
 27 31  1  0  0  0  0
 28 29  1  0  0  0  0
 28 26  1  0  0  0  0
 30 27  2  0  0  0  0
 30 32  1  0  0  0  0
 31 29  2  0  0  0  0
 32 28  2  0  0  0  0
 33  4  1  0  0  0  0
 33 34  1  0  0  0  0
 34 37  1  0  0  0  0
 36 35  2  0  0  0  0
 37 36  1  0  0  0  0
 38 37  2  0  0  0  0
 38 39  1  0  0  0  0
 39 40  2  0  0  0  0
 40 35  1  0  0  0  0
M  END
>  <MODEL>
8

>  <REMARK>
 VINA RESULT:      -7.1      2.295      3.778
  Name = 
  11 active torsions:
  status: ('A' for Active; 'I' for Inactive)
    1  A    between atoms: C_7  and  N_19
    2  A    between atoms: C_8  and  N_38
    3  A    between atoms: N_15  and  C_23
    4  A    between atoms: O_16  and  C_28
    5  A    between atoms: O_16  and  C_39
    6  A    between atoms: C_17  and  C_29
    7  A    between atoms: C_18  and  C_30
    8  A    between atoms: C_23  and  N_32
    9  A    between atoms: C_24  and  C_39
   10  A    between atoms: C_29  and  N_32
   11  A    between atoms: N_31  and  C_35
                            x       y       z     vdW  Elec       q    Type
                         _______ _______ _______ _____ _____    ______ ____

>  <TORSDO>
F 11

$$$$
=
 OpenBabel11062419313D

 40 45  0  0  1  0  0  0  0  0999 V2000
  189.4330  174.0810  142.0550 N   0  0  0  0  0  0  0  0  0  0  0  0
  190.5340  174.4190  143.9320 C   0  0  0  0  0  3  0  0  0  0  0  0
  189.4120  175.2270  143.9630 C   0  0  0  0  0  0  0  0  0  0  0  0
  188.7530  174.9970  142.7670 C   0  0  0  0  0  0  0  0  0  0  0  0
  190.5090  173.7560  142.7600 N   0  0  0  0  0  0  0  0  0  0  0  0
  189.0100  177.9140  146.4550 C   0  0  0  0  0  2  0  0  0  0  0  0
  187.9750  176.8740  146.8960 C   0  0  2  0  0  3  0  0  0  0  0  0
  189.5840  177.3390  145.2950 O   0  0  0  0  0  0  0  0  0  0  0  0
  188.1120  175.7850  145.9360 N   0  0  0  0  0  0  0  0  0  0  0  0
  189.0140  176.1030  145.0740 C   0  0  0  0  0  0  0  0  0  0  0  0
  184.4540  177.4840  146.5530 C   0  0  0  0  0  3  0  0  0  0  0  0
  184.9050  178.6650  147.3470 C   0  0  0  0  0  2  0  0  0  0  0  0
  186.3150  178.6030  147.4510 O   0  0  0  0  0  0  0  0  0  0  0  0
  186.6310  177.4360  146.8350 N   0  0  0  0  0  0  0  0  0  0  0  0
  185.5140  176.7760  146.2790 C   0  0  0  0  0  3  0  0  0  0  0  0
  191.4160  171.5070  143.2180 C   0  0  2  0  0  3  0  0  0  0  0  0
  190.8190  171.5240  141.8240 C   0  0  0  0  0  2  0  0  0  0  0  0
  191.5090  172.7660  142.3660 C   0  0  1  0  0  3  0  0  0  0  0  0
  192.7550  170.7950  143.1840 C   0  0  0  0  0  2  0  0  0  0  0  0
  192.8880  169.9530  144.3610 N   0  0  0  0  0  2  0  0  0  0  0  0
  194.2140  170.1890  144.9080 C   0  0  0  0  0  2  0  0  0  0  0  0
  195.7290  172.1520  145.3920 C   0  0  0  0  0  0  0  0  0  0  0  0
  194.4860  171.6170  144.9220 N   0  0  0  0  0  2  0  0  0  0  0  0
  196.6690  171.3720  145.7110 O   0  0  0  0  0  0  0  0  0  0  0  0
  195.9290  173.5670  145.5180 N   0  0  0  0  0  2  0  0  0  0  0  0
  192.3290  177.6050  144.0860 F   0  0  0  0  0  0  0  0  0  0  0  0
  195.0020  174.6100  145.1820 C   0  0  0  0  0  0  0  0  0  0  0  0
  193.1990  176.6300  144.4430 C   0  0  0  0  0  0  0  0  0  0  0  0
  193.9660  175.9870  143.4670 C   0  0  0  0  0  3  0  0  0  0  0  0
  194.2250  175.2590  146.1550 C   0  0  0  0  0  3  0  0  0  0  0  0
  194.8630  174.9810  143.8380 C   0  0  0  0  0  3  0  0  0  0  0  0
  193.3270  176.2680  145.7880 C   0  0  0  0  0  3  0  0  0  0  0  0
  187.4390  175.5650  142.3430 C   0  0  0  0  0  2  0  0  0  0  0  0
  187.4910  176.9880  142.3660 O   0  0  0  0  0  0  0  0  0  0  0  0
  184.0520  178.2910  142.8990 C   0  0  0  0  0  3  0  0  0  0  0  0
  185.0940  177.4690  142.4670 C   0  0  0  0  0  3  0  0  0  0  0  0
  186.4240  177.7860  142.7880 C   0  0  0  0  0  0  0  0  0  0  0  0
  186.6940  178.9330  143.5420 C   0  0  0  0  0  3  0  0  0  0  0  0
  185.6490  179.7570  143.9730 C   0  0  0  0  0  3  0  0  0  0  0  0
  184.3280  179.4350  143.6500 C   0  0  0  0  0  3  0  0  0  0  0  0
  1  5  1  0  0  0  0
  1  4  2  0  0  0  0
  2  3  2  0  0  0  0
  3 10  1  0  0  0  0
  4  3  1  0  0  0  0
  5  2  1  0  0  0  0
  7  6  1  6  0  0  0
  8  6  1  0  0  0  0
  9  7  1  0  0  0  0
 10  8  1  0  0  0  0
 10  9  2  0  0  0  0
 11 12  1  0  0  0  0
 12 13  1  0  0  0  0
 14  7  1  0  0  0  0
 14 13  1  0  0  0  0
 15 11  2  0  0  0  0
 15 14  1  0  0  0  0
 16 19  1  6  0  0  0
 17 16  1  0  0  0  0
 18 17  1  6  0  0  0
 18  5  1  0  0  0  0
 18 16  1  0  0  0  0
 19 20  1  0  0  0  0
 20 21  1  0  0  0  0
 21 23  1  0  0  0  0
 22 25  1  0  0  0  0
 22 24  2  0  0  0  0
 23 22  1  0  0  0  0
 26 28  1  0  0  0  0
 27 25  1  0  0  0  0
 27 30  1  0  0  0  0
 28 32  1  0  0  0  0
 29 31  1  0  0  0  0
 29 28  2  0  0  0  0
 31 27  2  0  0  0  0
 32 30  2  0  0  0  0
 33 34  1  0  0  0  0
 33  4  1  0  0  0  0
 34 37  1  0  0  0  0
 35 40  1  0  0  0  0
 36 37  1  0  0  0  0
 36 35  2  0  0  0  0
 37 38  2  0  0  0  0
 38 39  1  0  0  0  0
 40 39  2  0  0  0  0
M  END
>  <MODEL>
9

>  <REMARK>
 VINA RESULT:      -7.1      1.387      2.988
  Name = 
  11 active torsions:
  status: ('A' for Active; 'I' for Inactive)
    1  A    between atoms: C_7  and  N_19
    2  A    between atoms: C_8  and  N_38
    3  A    between atoms: N_15  and  C_23
    4  A    between atoms: O_16  and  C_28
    5  A    between atoms: O_16  and  C_39
    6  A    between atoms: C_17  and  C_29
    7  A    between atoms: C_18  and  C_30
    8  A    between atoms: C_23  and  N_32
    9  A    between atoms: C_24  and  C_39
   10  A    between atoms: C_29  and  N_32
   11  A    between atoms: N_31  and  C_35
                            x       y       z     vdW  Elec       q    Type
                         _______ _______ _______ _____ _____    ______ ____

>  <TORSDO>
F 11

$$$$
