=
 OpenBabel11062421043D

 38 41  0  0  1  0  0  0  0  0999 V2000
  192.6060  172.6260  143.4530 O   0  0  0  0  0  0  0  0  0  0  0  0
  188.4540  173.2250  142.1120 C   0  0  0  0  0  2  0  0  0  0  0  0
  189.8750  172.4520  140.2750 O   0  0  0  0  0  0  0  0  0  0  0  0
  189.2540  172.0640  141.4780 C   0  0  1  0  0  3  0  0  0  0  0  0
  190.4020  174.8010  141.5110 C   0  0  0  0  0  2  0  0  0  0  0  0
  188.8960  174.6560  141.7520 C   0  0  1  0  0  3  0  0  0  0  0  0
  192.0610  173.6760  143.0180 C   0  0  0  0  0  0  0  0  0  0  0  0
  191.1060  173.6000  141.9500 N   0  0  0  0  0  0  0  0  0  0  0  0
  190.7280  172.2960  141.3930 C   0  0  2  0  0  3  0  0  0  0  0  0
  188.1510  175.1340  140.5950 N   0  0  0  0  0  2  0  0  0  0  0  0
  186.8940  176.7610  139.5140 O   0  0  0  0  0  0  0  0  0  0  0  0
  187.5330  176.4240  140.5440 C   0  0  0  0  0  0  0  0  0  0  0  0
  187.6110  177.3690  141.7020 C   0  0  0  0  0  2  0  0  0  0  0  0
  185.2050  177.6780  141.8800 O   0  0  0  0  0  0  0  0  0  0  0  0
  185.6830  178.5840  142.8530 C   0  0  2  0  0  3  0  0  0  0  0  0
  186.1280  176.0740  143.4600 C   0  0  0  0  0  1  0  0  0  0  0  0
  186.3650  177.2930  142.5740 C   0  0  2  0  0  0  0  0  0  0  0  0
  184.7630  178.5540  144.0660 C   0  0  2  0  0  3  0  0  0  0  0  0
  183.5260  179.1000  143.7210 O   0  0  0  0  0  1  0  0  0  0  0  0
  185.3830  179.3530  145.2000 C   0  0  0  0  0  2  0  0  0  0  0  0
  184.5830  177.4040  146.5350 O   0  0  0  0  0  0  0  0  0  0  0  0
  185.4230  179.2620  147.5820 O   0  0  0  0  0  1  0  0  0  0  0  0
  185.1470  178.6730  146.5040 C   0  0  0  0  0  0  0  0  0  0  0  0
  192.3680  175.0000  143.6670 C   0  0  1  0  0  3  0  0  0  0  0  0
  190.7180  176.9220  147.4620 C   0  0  0  0  0  2  0  0  0  0  0  0
  191.9130  175.1570  146.1710 C   0  0  0  0  0  2  0  0  0  0  0  0
  191.3560  175.3690  144.7600 C   0  0  1  0  0  3  0  0  0  0  0  0
  190.8160  176.7800  144.5400 C   0  0  0  0  0  2  0  0  0  0  0  0
  189.7040  177.5710  146.6130 N   0  0  0  0  0  0  0  0  0  0  0  0
  188.4360  177.4900  147.3160 C   0  0  0  0  0  1  0  0  0  0  0  0
  190.8660  175.4150  147.2470 C   0  0  0  0  0  2  0  0  0  0  0  0
  189.5070  176.9430  145.3010 C   0  0  0  0  0  2  0  0  0  0  0  0
  194.4290  176.3670  143.9980 C   0  0  0  0  0  3  0  0  0  0  0  0
  193.8190  175.1810  144.0340 C   0  0  0  0  0  3  0  0  0  0  0  0
  195.8650  176.4800  144.3750 C   0  0  0  0  0  2  0  0  0  0  0  0
  197.6640  175.4050  143.2460 O   0  0  0  0  0  1  0  0  0  0  0  0
  196.7190  176.2340  143.1830 C   0  0  0  0  0  0  0  0  0  0  0  0
  196.4530  176.8930  141.9890 O   0  0  0  0  0  0  0  0  0  0  0  0
  3  4  1  0  0  0  0
  4  2  1  1  0  0  0
  5  6  1  0  0  0  0
  5  8  1  0  0  0  0
  6 10  1  6  0  0  0
  6  2  1  0  0  0  0
  7  1  2  0  0  0  0
  7 24  1  0  0  0  0
  8  7  1  0  0  0  0
  9  3  1  6  0  0  0
  9  4  1  0  0  0  0
  9  8  1  0  0  0  0
 11 12  2  0  0  0  0
 12 10  1  0  0  0  0
 12 13  1  0  0  0  0
 13 17  1  0  0  0  0
 14 17  1  0  0  0  0
 14 15  1  0  0  0  0
 15 18  1  1  0  0  0
 17 15  1  0  0  0  0
 17 16  1  1  0  0  0
 18 19  1  6  0  0  0
 18 20  1  0  0  0  0
 20 23  1  0  0  0  0
 23 21  2  0  0  0  0
 23 22  1  0  0  0  0
 24 34  1  1  0  0  0
 26 31  1  0  0  0  0
 27 24  1  6  0  0  0
 27 26  1  0  0  0  0
 28 27  1  0  0  0  0
 28 32  1  0  0  0  0
 29 30  1  0  0  0  0
 29 25  1  0  0  0  0
 31 25  1  0  0  0  0
 32 29  1  0  0  0  0
 33 34  2  0  0  0  0
 33 35  1  0  0  0  0
 37 36  1  0  0  0  0
 37 35  1  0  0  0  0
 38 37  2  0  0  0  0
M  END
>  <MODEL>
1

>  <REMARK>
 VINA RESULT:      -6.7      0.000      0.000
  Name = 
  11 active torsions:
  status: ('A' for Active; 'I' for Inactive)
    1  A    between atoms: C_3  and  C_25
    2  A    between atoms: C_3  and  C_34
    3  A    between atoms: C_6  and  C_15
    4  A    between atoms: N_7  and  C_28
    5  A    between atoms: C_9  and  C_14
    6  A    between atoms: C_9  and  C_36
    7  A    between atoms: C_10  and  C_27
    8  A    between atoms: C_12  and  C_27
    9  A    between atoms: C_15  and  C_24
   10  A    between atoms: C_15  and  C_29
   11  A    between atoms: C_32  and  C_36
                            x       y       z     vdW  Elec       q    Type
                         _______ _______ _______ _____ _____    ______ ____

>  <TORSDO>
F 11

$$$$
=
 OpenBabel11062421043D

 38 41  0  0  1  0  0  0  0  0999 V2000
  192.3530  171.8850  143.9460 O   0  0  0  0  0  0  0  0  0  0  0  0
  188.8250  174.4400  143.2920 C   0  0  0  0  0  2  0  0  0  0  0  0
  189.5730  173.4100  141.2020 O   0  0  0  0  0  0  0  0  0  0  0  0
  188.9520  173.1560  142.4400 C   0  0  1  0  0  3  0  0  0  0  0  0
  191.2150  175.0720  142.5650 C   0  0  0  0  0  2  0  0  0  0  0  0
  189.8350  175.5680  143.0090 C   0  0  1  0  0  3  0  0  0  0  0  0
  192.3080  173.1210  143.6990 C   0  0  0  0  0  0  0  0  0  0  0  0
  191.3330  173.6340  142.7800 N   0  0  0  0  0  0  0  0  0  0  0  0
  190.3570  172.7290  142.1620 C   0  0  2  0  0  3  0  0  0  0  0  0
  189.2900  176.4940  142.0260 N   0  0  0  0  0  2  0  0  0  0  0  0
  188.0390  178.3710  141.4710 O   0  0  0  0  0  0  0  0  0  0  0  0
  188.4860  177.6230  142.3790 C   0  0  0  0  0  0  0  0  0  0  0  0
  188.1450  177.9180  143.8070 C   0  0  0  0  0  2  0  0  0  0  0  0
  185.9640  178.9930  143.7340 O   0  0  0  0  0  0  0  0  0  0  0  0
  186.0960  178.7050  145.1110 C   0  0  2  0  0  3  0  0  0  0  0  0
  185.8870  176.5640  143.6150 C   0  0  0  0  0  1  0  0  0  0  0  0
  186.6480  177.8090  144.0610 C   0  0  2  0  0  0  0  0  0  0  0  0
  184.7500  178.2610  145.6650 C   0  0  2  0  0  3  0  0  0  0  0  0
  183.7370  179.0330  145.0920 O   0  0  0  0  0  1  0  0  0  0  0  0
  184.7360  178.4300  147.1760 C   0  0  0  0  0  2  0  0  0  0  0  0
  186.8890  178.8050  148.3760 O   0  0  0  0  0  1  0  0  0  0  0  0
  186.3000  176.7030  147.6780 O   0  0  0  0  0  0  0  0  0  0  0  0
  186.0070  177.9240  147.7650 C   0  0  0  0  0  0  0  0  0  0  0  0
  193.2380  174.0600  144.4190 C   0  0  1  0  0  3  0  0  0  0  0  0
  197.2730  175.7880  143.1730 C   0  0  0  0  0  2  0  0  0  0  0  0
  194.9440  175.9190  144.0500 C   0  0  0  0  0  2  0  0  0  0  0  0
  194.3300  174.6270  143.5020 C   0  0  1  0  0  3  0  0  0  0  0  0
  195.3740  173.5610  143.1830 C   0  0  0  0  0  2  0  0  0  0  0  0
  197.4040  174.6450  142.2530 N   0  0  0  0  0  0  0  0  0  0  0  0
  197.9410  175.1530  141.0040 C   0  0  0  0  0  1  0  0  0  0  0  0
  195.9420  176.5370  143.0800 C   0  0  0  0  0  2  0  0  0  0  0  0
  196.1430  173.9660  141.9320 C   0  0  0  0  0  2  0  0  0  0  0  0
  192.3610  174.8830  146.6050 C   0  0  0  0  0  3  0  0  0  0  0  0
  192.5360  175.0670  145.2960 C   0  0  0  0  0  3  0  0  0  0  0  0
  191.6610  175.9170  147.4170 C   0  0  0  0  0  2  0  0  0  0  0  0
  189.5440  176.9410  147.0470 O   0  0  0  0  0  1  0  0  0  0  0  0
  190.2010  175.8710  147.1390 C   0  0  0  0  0  0  0  0  0  0  0  0
  189.5670  174.6490  146.9470 O   0  0  0  0  0  0  0  0  0  0  0  0
  3  4  1  0  0  0  0
  4  2  1  1  0  0  0
  5  8  1  0  0  0  0
  5  6  1  0  0  0  0
  6 10  1  6  0  0  0
  6  2  1  0  0  0  0
  7  1  2  0  0  0  0
  7 24  1  0  0  0  0
  8  7  1  0  0  0  0
  9  3  1  6  0  0  0
  9  4  1  0  0  0  0
  9  8  1  0  0  0  0
 10 12  1  0  0  0  0
 11 12  2  0  0  0  0
 12 13  1  0  0  0  0
 13 17  1  0  0  0  0
 14 17  1  0  0  0  0
 14 15  1  0  0  0  0
 15 18  1  6  0  0  0
 17 16  1  6  0  0  0
 17 15  1  0  0  0  0
 18 19  1  6  0  0  0
 18 20  1  0  0  0  0
 20 23  1  0  0  0  0
 22 23  2  0  0  0  0
 23 21  1  0  0  0  0
 24 34  1  6  0  0  0
 27 26  1  0  0  0  0
 27 24  1  1  0  0  0
 28 27  1  0  0  0  0
 29 25  1  0  0  0  0
 30 29  1  0  0  0  0
 31 25  1  0  0  0  0
 31 26  1  0  0  0  0
 32 29  1  0  0  0  0
 32 28  1  0  0  0  0
 33 35  1  0  0  0  0
 34 33  2  0  0  0  0
 36 37  1  0  0  0  0
 37 35  1  0  0  0  0
 38 37  2  0  0  0  0
M  END
>  <MODEL>
2

>  <REMARK>
 VINA RESULT:      -6.5      2.243      4.588
  Name = 
  11 active torsions:
  status: ('A' for Active; 'I' for Inactive)
    1  A    between atoms: C_3  and  C_25
    2  A    between atoms: C_3  and  C_34
    3  A    between atoms: C_6  and  C_15
    4  A    between atoms: N_7  and  C_28
    5  A    between atoms: C_9  and  C_14
    6  A    between atoms: C_9  and  C_36
    7  A    between atoms: C_10  and  C_27
    8  A    between atoms: C_12  and  C_27
    9  A    between atoms: C_15  and  C_24
   10  A    between atoms: C_15  and  C_29
   11  A    between atoms: C_32  and  C_36
                            x       y       z     vdW  Elec       q    Type
                         _______ _______ _______ _____ _____    ______ ____

>  <TORSDO>
F 11

$$$$
=
 OpenBabel11062421043D

 38 41  0  0  1  0  0  0  0  0999 V2000
  190.9160  175.9920  147.7500 O   0  0  0  0  0  0  0  0  0  0  0  0
  194.3280  174.9890  145.1510 C   0  0  0  0  0  2  0  0  0  0  0  0
  194.5850  177.2170  146.1310 O   0  0  0  0  0  0  0  0  0  0  0  0
  194.6090  175.8380  146.4120 C   0  0  1  0  0  3  0  0  0  0  0  0
  192.4820  176.6730  144.5180 C   0  0  0  0  0  2  0  0  0  0  0  0
  193.5210  175.6610  144.0240 C   0  0  1  0  0  3  0  0  0  0  0  0
  191.0410  176.1700  146.5080 C   0  0  0  0  0  0  0  0  0  0  0  0
  192.3100  176.5600  145.9630 N   0  0  0  0  0  0  0  0  0  0  0  0
  193.4740  176.7090  146.8440 C   0  0  2  0  0  3  0  0  0  0  0  0
  194.4230  176.2890  143.0680 N   0  0  0  0  0  2  0  0  0  0  0  0
  195.4060  176.4010  140.9660 O   0  0  0  0  0  0  0  0  0  0  0  0
  194.5970  175.8120  141.7300 C   0  0  0  0  0  0  0  0  0  0  0  0
  193.8550  174.6120  141.2300 C   0  0  0  0  0  2  0  0  0  0  0  0
  194.0120  172.1930  141.0290 O   0  0  0  0  0  0  0  0  0  0  0  0
  193.5420  172.3410  142.3530 C   0  0  2  0  0  3  0  0  0  0  0  0
  195.9760  173.2460  142.0050 C   0  0  0  0  0  1  0  0  0  0  0  0
  194.4770  173.3170  141.7340 C   0  0  2  0  0  0  0  0  0  0  0  0
  194.2180  171.3100  143.2460 C   0  0  2  0  0  3  0  0  0  0  0  0
  193.9280  170.0290  142.7740 O   0  0  0  0  0  1  0  0  0  0  0  0
  193.7170  171.4600  144.6730 C   0  0  0  0  0  2  0  0  0  0  0  0
  195.8980  171.8930  145.8030 O   0  0  0  0  0  0  0  0  0  0  0  0
  194.6970  170.0020  146.2840 O   0  0  0  0  0  1  0  0  0  0  0  0
  194.7840  171.0800  145.6400 C   0  0  0  0  0  0  0  0  0  0  0  0
  189.8730  175.9080  145.5960 C   0  0  1  0  0  3  0  0  0  0  0  0
  189.0250  172.0010  143.3980 C   0  0  0  0  0  2  0  0  0  0  0  0
  189.7750  173.3730  145.3380 C   0  0  0  0  0  2  0  0  0  0  0  0
  190.1070  174.7100  144.6670 C   0  0  1  0  0  3  0  0  0  0  0  0
  189.3790  174.9050  143.3400 C   0  0  0  0  0  2  0  0  0  0  0  0
  189.2480  172.7360  142.1410 N   0  0  0  0  0  0  0  0  0  0  0  0
  190.0300  171.8780  141.2710 C   0  0  0  0  0  1  0  0  0  0  0  0
  190.1200  172.1840  144.4510 C   0  0  0  0  0  2  0  0  0  0  0  0
  189.9930  173.9920  142.2870 C   0  0  0  0  0  2  0  0  0  0  0  0
  187.5590  176.7820  145.9290 C   0  0  0  0  0  3  0  0  0  0  0  0
  188.5330  175.9450  146.2880 C   0  0  0  0  0  3  0  0  0  0  0  0
  186.2570  176.7670  146.6520 C   0  0  0  0  0  2  0  0  0  0  0  0
  185.3050  177.4120  144.5670 O   0  0  0  0  0  0  0  0  0  0  0  0
  185.2140  177.4270  145.8230 C   0  0  0  0  0  0  0  0  0  0  0  0
  184.1220  178.0330  146.4320 O   0  0  0  0  0  1  0  0  0  0  0  0
  3  4  1  0  0  0  0
  4  2  1  6  0  0  0
  4  9  1  0  0  0  0
  5  8  1  0  0  0  0
  6 10  1  6  0  0  0
  6  5  1  0  0  0  0
  6  2  1  0  0  0  0
  7  1  2  0  0  0  0
  8  7  1  0  0  0  0
  8  9  1  0  0  0  0
  9  3  1  6  0  0  0
 11 12  2  0  0  0  0
 12 10  1  0  0  0  0
 13 12  1  0  0  0  0
 13 17  1  0  0  0  0
 14 17  1  0  0  0  0
 14 15  1  0  0  0  0
 15 18  1  1  0  0  0
 17 16  1  1  0  0  0
 17 15  1  0  0  0  0
 18 19  1  6  0  0  0
 18 20  1  0  0  0  0
 20 23  1  0  0  0  0
 23 21  2  0  0  0  0
 23 22  1  0  0  0  0
 24 34  1  1  0  0  0
 24  7  1  0  0  0  0
 25 31  1  0  0  0  0
 27 26  1  0  0  0  0
 27 24  1  1  0  0  0
 28 27  1  0  0  0  0
 29 32  1  0  0  0  0
 29 25  1  0  0  0  0
 30 29  1  0  0  0  0
 31 26  1  0  0  0  0
 32 28  1  0  0  0  0
 33 34  2  0  0  0  0
 33 35  1  0  0  0  0
 36 37  2  0  0  0  0
 37 38  1  0  0  0  0
 37 35  1  0  0  0  0
M  END
>  <MODEL>
3

>  <REMARK>
 VINA RESULT:      -6.5      2.712      8.613
  Name = 
  11 active torsions:
  status: ('A' for Active; 'I' for Inactive)
    1  A    between atoms: C_3  and  C_25
    2  A    between atoms: C_3  and  C_34
    3  A    between atoms: C_6  and  C_15
    4  A    between atoms: N_7  and  C_28
    5  A    between atoms: C_9  and  C_14
    6  A    between atoms: C_9  and  C_36
    7  A    between atoms: C_10  and  C_27
    8  A    between atoms: C_12  and  C_27
    9  A    between atoms: C_15  and  C_24
   10  A    between atoms: C_15  and  C_29
   11  A    between atoms: C_32  and  C_36
                            x       y       z     vdW  Elec       q    Type
                         _______ _______ _______ _____ _____    ______ ____

>  <TORSDO>
F 11

$$$$
=
 OpenBabel11062421043D

 38 41  0  0  1  0  0  0  0  0999 V2000
  188.1710  175.6970  146.2760 O   0  0  0  0  0  0  0  0  0  0  0  0
  192.5100  174.9610  146.0970 C   0  0  0  0  0  2  0  0  0  0  0  0
  191.9810  176.7690  147.6600 O   0  0  0  0  0  0  0  0  0  0  0  0
  191.9050  175.3780  147.4580 C   0  0  1  0  0  3  0  0  0  0  0  0
  191.3520  177.0060  145.0390 C   0  0  0  0  0  2  0  0  0  0  0  0
  192.5300  176.0290  144.9870 C   0  0  1  0  0  3  0  0  0  0  0  0
  189.0230  176.1900  145.4880 C   0  0  0  0  0  0  0  0  0  0  0  0
  190.3330  176.5250  145.9680 N   0  0  0  0  0  0  0  0  0  0  0  0
  190.6980  176.2530  147.3630 C   0  0  2  0  0  3  0  0  0  0  0  0
  193.7920  176.7570  145.0160 N   0  0  0  0  0  2  0  0  0  0  0  0
  196.0300  176.9760  144.4340 O   0  0  0  0  0  0  0  0  0  0  0  0
  194.9730  176.2980  144.3520 C   0  0  0  0  0  0  0  0  0  0  0  0
  194.9830  175.0140  143.5820 C   0  0  0  0  0  2  0  0  0  0  0  0
  196.4270  173.0570  143.5790 O   0  0  0  0  0  0  0  0  0  0  0  0
  195.1990  172.5080  144.0140 C   0  0  2  0  0  3  0  0  0  0  0  0
  196.2610  174.1750  145.7340 C   0  0  0  0  0  1  0  0  0  0  0  0
  195.6210  173.8860  144.3800 C   0  0  2  0  0  0  0  0  0  0  0  0
  195.4670  171.4670  145.0920 C   0  0  2  0  0  3  0  0  0  0  0  0
  196.5200  170.6440  144.6890 O   0  0  0  0  0  1  0  0  0  0  0  0
  194.2170  170.6330  145.3210 C   0  0  0  0  0  2  0  0  0  0  0  0
  194.5190  168.1670  145.0990 O   0  0  0  0  0  0  0  0  0  0  0  0
  194.9000  169.2070  147.1050 O   0  0  0  0  0  1  0  0  0  0  0  0
  194.5770  169.3050  145.8920 C   0  0  0  0  0  0  0  0  0  0  0  0
  188.6820  176.3650  144.0330 C   0  0  1  0  0  3  0  0  0  0  0  0
  188.6250  173.5510  140.4420 C   0  0  0  0  0  2  0  0  0  0  0  0
  187.6160  174.7280  142.3930 C   0  0  0  0  0  2  0  0  0  0  0  0
  188.8550  175.0720  143.2260 C   0  0  1  0  0  3  0  0  0  0  0  0
  190.1350  175.1210  142.3960 C   0  0  0  0  0  2  0  0  0  0  0  0
  190.0660  173.3450  140.6650 N   0  0  0  0  0  0  0  0  0  0  0  0
  190.3320  171.9290  140.4880 C   0  0  0  0  0  1  0  0  0  0  0  0
  187.7520  173.3850  141.6880 C   0  0  0  0  0  2  0  0  0  0  0  0
  190.5390  173.7050  142.0060 C   0  0  0  0  0  2  0  0  0  0  0  0
  187.0410  178.1860  144.5040 C   0  0  0  0  0  3  0  0  0  0  0  0
  187.3970  177.1170  143.7900 C   0  0  0  0  0  3  0  0  0  0  0  0
  185.7590  178.8860  144.2130 C   0  0  0  0  0  2  0  0  0  0  0  0
  183.7110  179.0400  145.4160 O   0  0  0  0  0  0  0  0  0  0  0  0
  184.9690  179.0280  145.4640 C   0  0  0  0  0  0  0  0  0  0  0  0
  185.6170  179.1150  146.6900 O   0  0  0  0  0  1  0  0  0  0  0  0
  4  2  1  6  0  0  0
  4  3  1  0  0  0  0
  5  8  1  0  0  0  0
  6 10  1  1  0  0  0
  6  5  1  0  0  0  0
  6  2  1  0  0  0  0
  7  8  1  0  0  0  0
  7  1  2  0  0  0  0
  8  9  1  0  0  0  0
  9  4  1  0  0  0  0
  9  3  1  1  0  0  0
 12 11  2  0  0  0  0
 12 10  1  0  0  0  0
 13 12  1  0  0  0  0
 13 17  1  0  0  0  0
 14 15  1  0  0  0  0
 14 17  1  0  0  0  0
 15 17  1  0  0  0  0
 15 18  1  1  0  0  0
 17 16  1  1  0  0  0
 18 19  1  6  0  0  0
 18 20  1  0  0  0  0
 20 23  1  0  0  0  0
 21 23  2  0  0  0  0
 23 22  1  0  0  0  0
 24 34  1  1  0  0  0
 24  7  1  0  0  0  0
 25 29  1  0  0  0  0
 25 31  1  0  0  0  0
 26 27  1  0  0  0  0
 27 24  1  6  0  0  0
 28 27  1  0  0  0  0
 29 32  1  0  0  0  0
 30 29  1  0  0  0  0
 31 26  1  0  0  0  0
 32 28  1  0  0  0  0
 34 33  2  0  0  0  0
 35 33  1  0  0  0  0
 35 37  1  0  0  0  0
 36 37  2  0  0  0  0
 37 38  1  0  0  0  0
M  END
>  <MODEL>
4

>  <REMARK>
 VINA RESULT:      -6.4      2.773      9.317
  Name = 
  11 active torsions:
  status: ('A' for Active; 'I' for Inactive)
    1  A    between atoms: C_3  and  C_25
    2  A    between atoms: C_3  and  C_34
    3  A    between atoms: C_6  and  C_15
    4  A    between atoms: N_7  and  C_28
    5  A    between atoms: C_9  and  C_14
    6  A    between atoms: C_9  and  C_36
    7  A    between atoms: C_10  and  C_27
    8  A    between atoms: C_12  and  C_27
    9  A    between atoms: C_15  and  C_24
   10  A    between atoms: C_15  and  C_29
   11  A    between atoms: C_32  and  C_36
                            x       y       z     vdW  Elec       q    Type
                         _______ _______ _______ _____ _____    ______ ____

>  <TORSDO>
F 11

$$$$
=
 OpenBabel11062421043D

 38 41  0  0  1  0  0  0  0  0999 V2000
  191.7090  171.9400  142.5090 O   0  0  0  0  0  0  0  0  0  0  0  0
  187.8400  174.0400  142.3820 C   0  0  0  0  0  2  0  0  0  0  0  0
  188.2930  172.8880  140.2700 O   0  0  0  0  0  0  0  0  0  0  0  0
  187.9560  172.6980  141.6240 C   0  0  1  0  0  3  0  0  0  0  0  0
  189.9530  174.8390  141.1420 C   0  0  0  0  0  2  0  0  0  0  0  0
  188.6340  175.2320  141.8150 C   0  0  1  0  0  3  0  0  0  0  0  0
  191.4690  173.1340  142.1810 C   0  0  0  0  0  0  0  0  0  0  0  0
  190.2820  173.4490  141.4400 N   0  0  0  0  0  0  0  0  0  0  0  0
  189.3230  172.3910  141.1030 C   0  0  2  0  0  3  0  0  0  0  0  0
  187.8030  175.9940  140.8920 N   0  0  0  0  0  2  0  0  0  0  0  0
  186.5490  177.8760  140.3600 O   0  0  0  0  0  0  0  0  0  0  0  0
  187.2700  177.2850  141.2050 C   0  0  0  0  0  0  0  0  0  0  0  0
  187.5330  177.9340  142.5280 C   0  0  0  0  0  2  0  0  0  0  0  0
  185.5160  178.8920  143.4910 O   0  0  0  0  0  0  0  0  0  0  0  0
  186.3170  178.6970  144.6380 C   0  0  2  0  0  3  0  0  0  0  0  0
  185.5710  176.4590  143.4980 C   0  0  0  0  0  1  0  0  0  0  0  0
  186.3580  177.7650  143.4800 C   0  0  2  0  0  0  0  0  0  0  0  0
  185.4420  178.2220  145.7900 C   0  0  2  0  0  3  0  0  0  0  0  0
  184.3150  179.0400  145.8820 O   0  0  0  0  0  1  0  0  0  0  0  0
  186.2290  178.2780  147.0890 C   0  0  0  0  0  2  0  0  0  0  0  0
  187.3090  176.0450  146.8290 O   0  0  0  0  0  0  0  0  0  0  0  0
  188.5860  177.9270  147.1130 O   0  0  0  0  0  1  0  0  0  0  0  0
  187.4410  177.4170  146.9990 C   0  0  0  0  0  0  0  0  0  0  0  0
  192.4000  174.2320  142.6240 C   0  0  1  0  0  3  0  0  0  0  0  0
  193.0880  176.3330  146.6140 C   0  0  0  0  0  2  0  0  0  0  0  0
  193.6940  174.8000  144.7460 C   0  0  0  0  0  2  0  0  0  0  0  0
  192.3240  174.4960  144.1330 C   0  0  1  0  0  3  0  0  0  0  0  0
  191.2830  175.5690  144.4410 C   0  0  0  0  0  2  0  0  0  0  0  0
  191.6240  176.4110  146.7510 N   0  0  0  0  0  0  0  0  0  0  0  0
  191.3000  176.0910  148.1290 C   0  0  0  0  0  1  0  0  0  0  0  0
  193.6270  174.9460  146.2600 C   0  0  0  0  0  2  0  0  0  0  0  0
  190.8760  175.4730  145.9060 C   0  0  0  0  0  2  0  0  0  0  0  0
  194.3680  175.1200  141.3730 C   0  0  0  0  0  3  0  0  0  0  0  0
  193.7910  174.1260  142.0500 C   0  0  0  0  0  3  0  0  0  0  0  0
  195.7460  174.9530  140.8330 C   0  0  0  0  0  2  0  0  0  0  0  0
  196.6960  176.5620  142.3080 O   0  0  0  0  0  0  0  0  0  0  0  0
  196.7400  175.3910  141.8490 C   0  0  0  0  0  0  0  0  0  0  0  0
  197.6970  174.4990  142.3150 O   0  0  0  0  0  1  0  0  0  0  0  0
  3  4  1  0  0  0  0
  4  2  1  1  0  0  0
  5  8  1  0  0  0  0
  5  6  1  0  0  0  0
  6 10  1  6  0  0  0
  6  2  1  0  0  0  0
  7  1  2  0  0  0  0
  7 24  1  0  0  0  0
  8  7  1  0  0  0  0
  9  3  1  6  0  0  0
  9  8  1  0  0  0  0
  9  4  1  0  0  0  0
 10 12  1  0  0  0  0
 11 12  2  0  0  0  0
 12 13  1  0  0  0  0
 13 17  1  0  0  0  0
 14 15  1  0  0  0  0
 15 18  1  1  0  0  0
 17 14  1  0  0  0  0
 17 16  1  1  0  0  0
 17 15  1  0  0  0  0
 18 19  1  1  0  0  0
 18 20  1  0  0  0  0
 21 23  2  0  0  0  0
 23 20  1  0  0  0  0
 23 22  1  0  0  0  0
 24 34  1  1  0  0  0
 25 29  1  0  0  0  0
 26 31  1  0  0  0  0
 27 24  1  6  0  0  0
 27 28  1  0  0  0  0
 27 26  1  0  0  0  0
 28 32  1  0  0  0  0
 29 30  1  0  0  0  0
 31 25  1  0  0  0  0
 32 29  1  0  0  0  0
 33 34  2  0  0  0  0
 35 33  1  0  0  0  0
 35 37  1  0  0  0  0
 37 36  2  0  0  0  0
 37 38  1  0  0  0  0
M  END
>  <MODEL>
5

>  <REMARK>
 VINA RESULT:      -6.3      1.533      2.042
  Name = 
  11 active torsions:
  status: ('A' for Active; 'I' for Inactive)
    1  A    between atoms: C_3  and  C_25
    2  A    between atoms: C_3  and  C_34
    3  A    between atoms: C_6  and  C_15
    4  A    between atoms: N_7  and  C_28
    5  A    between atoms: C_9  and  C_14
    6  A    between atoms: C_9  and  C_36
    7  A    between atoms: C_10  and  C_27
    8  A    between atoms: C_12  and  C_27
    9  A    between atoms: C_15  and  C_24
   10  A    between atoms: C_15  and  C_29
   11  A    between atoms: C_32  and  C_36
                            x       y       z     vdW  Elec       q    Type
                         _______ _______ _______ _____ _____    ______ ____

>  <TORSDO>
F 11

$$$$
=
 OpenBabel11062421043D

 38 41  0  0  1  0  0  0  0  0999 V2000
  193.4570  172.3290  143.7020 O   0  0  0  0  0  0  0  0  0  0  0  0
  189.2130  172.9410  142.6980 C   0  0  0  0  0  2  0  0  0  0  0  0
  190.5000  172.2650  140.7290 O   0  0  0  0  0  0  0  0  0  0  0  0
  189.9740  171.8180  141.9550 C   0  0  1  0  0  3  0  0  0  0  0  0
  191.0990  174.5630  142.0270 C   0  0  0  0  0  2  0  0  0  0  0  0
  189.6160  174.3910  142.3710 C   0  0  1  0  0  3  0  0  0  0  0  0
  192.8730  173.3920  143.3560 C   0  0  0  0  0  0  0  0  0  0  0  0
  191.8420  173.3520  142.3590 N   0  0  0  0  0  0  0  0  0  0  0  0
  191.4350  172.0700  141.7720 C   0  0  2  0  0  3  0  0  0  0  0  0
  188.7830  174.9120  141.2950 N   0  0  0  0  0  2  0  0  0  0  0  0
  187.3800  176.5390  140.4120 O   0  0  0  0  0  0  0  0  0  0  0  0
  188.0920  176.1620  141.3790 C   0  0  0  0  0  0  0  0  0  0  0  0
  188.1790  177.0170  142.6040 C   0  0  0  0  0  2  0  0  0  0  0  0
  186.4900  178.7670  142.5570 O   0  0  0  0  0  0  0  0  0  0  0  0
  186.7840  178.6890  143.9370 C   0  0  2  0  0  3  0  0  0  0  0  0
  185.6130  176.5410  143.0000 C   0  0  0  0  0  1  0  0  0  0  0  0
  186.8050  177.4910  143.0570 C   0  0  2  0  0  0  0  0  0  0  0  0
  185.5000  178.8530  144.7370 C   0  0  2  0  0  3  0  0  0  0  0  0
  184.7640  179.9190  144.2160 O   0  0  0  0  0  1  0  0  0  0  0  0
  185.8340  179.1200  146.1950 C   0  0  0  0  0  2  0  0  0  0  0  0
  184.8340  176.8530  146.4810 O   0  0  0  0  0  0  0  0  0  0  0  0
  185.9240  177.8690  148.2220 O   0  0  0  0  0  1  0  0  0  0  0  0
  185.5490  177.9130  147.0210 C   0  0  0  0  0  0  0  0  0  0  0  0
  193.2170  174.6880  144.0390 C   0  0  1  0  0  3  0  0  0  0  0  0
  191.4020  176.7410  147.6880 C   0  0  0  0  0  2  0  0  0  0  0  0
  192.5980  174.9030  146.5040 C   0  0  0  0  0  2  0  0  0  0  0  0
  192.1510  175.1200  145.0550 C   0  0  1  0  0  3  0  0  0  0  0  0
  191.6940  176.5510  144.7820 C   0  0  0  0  0  2  0  0  0  0  0  0
  190.4810  177.4230  146.7630 N   0  0  0  0  0  0  0  0  0  0  0  0
  189.1650  177.4120  147.3770 C   0  0  0  0  0  1  0  0  0  0  0  0
  191.4930  175.2250  147.5010 C   0  0  0  0  0  2  0  0  0  0  0  0
  190.3450  176.7860  145.4480 C   0  0  0  0  0  2  0  0  0  0  0  0
  195.6880  174.5750  143.7110 C   0  0  0  0  0  3  0  0  0  0  0  0
  194.6450  174.7700  144.5190 C   0  0  0  0  0  3  0  0  0  0  0  0
  197.0750  174.6720  144.2460 C   0  0  0  0  0  2  0  0  0  0  0  0
  197.1830  173.4520  146.2870 O   0  0  0  0  0  1  0  0  0  0  0  0
  197.3910  173.4590  145.0460 C   0  0  0  0  0  0  0  0  0  0  0  0
  197.8860  172.3220  144.4190 O   0  0  0  0  0  0  0  0  0  0  0  0
  3  4  1  0  0  0  0
  4  2  1  1  0  0  0
  5  8  1  0  0  0  0
  5  6  1  0  0  0  0
  6 10  1  6  0  0  0
  6  2  1  0  0  0  0
  7  1  2  0  0  0  0
  7 24  1  0  0  0  0
  8  7  1  0  0  0  0
  9  3  1  6  0  0  0
  9  4  1  0  0  0  0
  9  8  1  0  0  0  0
 10 12  1  0  0  0  0
 11 12  2  0  0  0  0
 12 13  1  0  0  0  0
 13 17  1  0  0  0  0
 14 17  1  0  0  0  0
 14 15  1  0  0  0  0
 15 18  1  1  0  0  0
 17 16  1  1  0  0  0
 17 15  1  0  0  0  0
 18 19  1  6  0  0  0
 18 20  1  0  0  0  0
 20 23  1  0  0  0  0
 21 23  2  0  0  0  0
 23 22  1  0  0  0  0
 24 34  1  1  0  0  0
 26 31  1  0  0  0  0
 27 24  1  6  0  0  0
 27 26  1  0  0  0  0
 28 27  1  0  0  0  0
 28 32  1  0  0  0  0
 29 30  1  0  0  0  0
 29 25  1  0  0  0  0
 31 25  1  0  0  0  0
 32 29  1  0  0  0  0
 33 35  1  0  0  0  0
 33 34  2  0  0  0  0
 35 37  1  0  0  0  0
 37 36  1  0  0  0  0
 38 37  2  0  0  0  0
M  END
>  <MODEL>
6

>  <REMARK>
 VINA RESULT:      -6.2      1.484      1.607
  Name = 
  11 active torsions:
  status: ('A' for Active; 'I' for Inactive)
    1  A    between atoms: C_3  and  C_25
    2  A    between atoms: C_3  and  C_34
    3  A    between atoms: C_6  and  C_15
    4  A    between atoms: N_7  and  C_28
    5  A    between atoms: C_9  and  C_14
    6  A    between atoms: C_9  and  C_36
    7  A    between atoms: C_10  and  C_27
    8  A    between atoms: C_12  and  C_27
    9  A    between atoms: C_15  and  C_24
   10  A    between atoms: C_15  and  C_29
   11  A    between atoms: C_32  and  C_36
                            x       y       z     vdW  Elec       q    Type
                         _______ _______ _______ _____ _____    ______ ____

>  <TORSDO>
F 11

$$$$
=
 OpenBabel11062421043D

 38 41  0  0  1  0  0  0  0  0999 V2000
  187.7670  176.0920  140.7620 O   0  0  0  0  0  0  0  0  0  0  0  0
  191.2470  173.3970  140.5850 C   0  0  0  0  0  2  0  0  0  0  0  0
  189.2860  172.3830  139.5280 O   0  0  0  0  0  0  0  0  0  0  0  0
  190.2650  173.3850  139.3900 C   0  0  1  0  0  3  0  0  0  0  0  0
  189.2320  173.0450  142.1510 C   0  0  0  0  0  2  0  0  0  0  0  0
  190.7300  172.8270  141.9180 C   0  0  1  0  0  3  0  0  0  0  0  0
  188.1520  175.2430  141.6110 C   0  0  0  0  0  0  0  0  0  0  0  0
  188.6970  173.9890  141.1750 N   0  0  0  0  0  0  0  0  0  0  0  0
  188.8500  173.7110  139.7430 C   0  0  2  0  0  3  0  0  0  0  0  0
  191.0560  171.4100  142.0170 N   0  0  0  0  0  2  0  0  0  0  0  0
  192.0620  169.6230  143.1080 O   0  0  0  0  0  0  0  0  0  0  0  0
  191.8090  170.8560  143.1000 C   0  0  0  0  0  0  0  0  0  0  0  0
  192.3240  171.7190  144.2090 C   0  0  0  0  0  2  0  0  0  0  0  0
  194.4380  170.8380  145.0280 O   0  0  0  0  0  0  0  0  0  0  0  0
  194.4890  172.1750  145.4830 C   0  0  2  0  0  3  0  0  0  0  0  0
  194.5890  171.9590  142.8740 C   0  0  0  0  0  1  0  0  0  0  0  0
  193.8440  171.8030  144.1960 C   0  0  2  0  0  0  0  0  0  0  0  0
  195.9090  172.7030  145.3400 C   0  0  2  0  0  3  0  0  0  0  0  0
  196.7650  171.9540  146.1490 O   0  0  0  0  0  1  0  0  0  0  0  0
  195.9570  174.1650  145.7520 C   0  0  0  0  0  2  0  0  0  0  0  0
  195.3690  175.9140  144.0730 O   0  0  0  0  0  1  0  0  0  0  0  0
  197.4300  174.9120  144.0330 O   0  0  0  0  0  0  0  0  0  0  0  0
  196.3030  175.0220  144.5830 C   0  0  0  0  0  0  0  0  0  0  0  0
  188.0960  175.5760  143.0780 C   0  0  1  0  0  3  0  0  0  0  0  0
  191.9830  177.2070  144.8230 C   0  0  0  0  0  2  0  0  0  0  0  0
  190.4960  176.4330  142.9790 C   0  0  0  0  0  2  0  0  0  0  0  0
  189.4820  175.5700  143.7370 C   0  0  1  0  0  3  0  0  0  0  0  0
  189.3780  175.9350  145.2150 C   0  0  0  0  0  2  0  0  0  0  0  0
  191.6260  176.5290  146.0800 N   0  0  0  0  0  0  0  0  0  0  0  0
  192.8350  175.9150  146.5990 C   0  0  0  0  0  1  0  0  0  0  0  0
  191.8950  176.3300  143.5720 C   0  0  0  0  0  2  0  0  0  0  0  0
  190.6300  175.4610  145.9420 C   0  0  0  0  0  2  0  0  0  0  0  0
  185.9520  176.6370  143.7880 C   0  0  0  0  0  3  0  0  0  0  0  0
  187.2240  176.7620  143.4050 C   0  0  0  0  0  3  0  0  0  0  0  0
  185.1440  177.8490  144.0990 C   0  0  0  0  0  2  0  0  0  0  0  0
  185.0930  176.8760  146.2710 O   0  0  0  0  0  1  0  0  0  0  0  0
  184.7200  177.8180  145.5240 C   0  0  0  0  0  0  0  0  0  0  0  0
  183.9380  178.8440  146.0400 O   0  0  0  0  0  0  0  0  0  0  0  0
  1  7  2  0  0  0  0
  2  6  1  0  0  0  0
  4  3  1  0  0  0  0
  4  9  1  0  0  0  0
  4  2  1  1  0  0  0
  6 10  1  6  0  0  0
  6  5  1  0  0  0  0
  7 24  1  0  0  0  0
  8  7  1  0  0  0  0
  8  5  1  0  0  0  0
  9  3  1  1  0  0  0
  9  8  1  0  0  0  0
 10 12  1  0  0  0  0
 12 11  2  0  0  0  0
 12 13  1  0  0  0  0
 14 15  1  0  0  0  0
 15 18  1  6  0  0  0
 17 16  1  6  0  0  0
 17 13  1  0  0  0  0
 17 14  1  0  0  0  0
 17 15  1  0  0  0  0
 18 20  1  0  0  0  0
 18 19  1  1  0  0  0
 21 23  1  0  0  0  0
 22 23  2  0  0  0  0
 23 20  1  0  0  0  0
 24 34  1  6  0  0  0
 25 29  1  0  0  0  0
 26 31  1  0  0  0  0
 26 27  1  0  0  0  0
 27 24  1  6  0  0  0
 27 28  1  0  0  0  0
 28 32  1  0  0  0  0
 29 30  1  0  0  0  0
 31 25  1  0  0  0  0
 32 29  1  0  0  0  0
 33 35  1  0  0  0  0
 34 33  2  0  0  0  0
 35 37  1  0  0  0  0
 37 38  2  0  0  0  0
 37 36  1  0  0  0  0
M  END
>  <MODEL>
7

>  <REMARK>
 VINA RESULT:      -6.2      2.084      8.249
  Name = 
  11 active torsions:
  status: ('A' for Active; 'I' for Inactive)
    1  A    between atoms: C_3  and  C_25
    2  A    between atoms: C_3  and  C_34
    3  A    between atoms: C_6  and  C_15
    4  A    between atoms: N_7  and  C_28
    5  A    between atoms: C_9  and  C_14
    6  A    between atoms: C_9  and  C_36
    7  A    between atoms: C_10  and  C_27
    8  A    between atoms: C_12  and  C_27
    9  A    between atoms: C_15  and  C_24
   10  A    between atoms: C_15  and  C_29
   11  A    between atoms: C_32  and  C_36
                            x       y       z     vdW  Elec       q    Type
                         _______ _______ _______ _____ _____    ______ ____

>  <TORSDO>
F 11

$$$$
=
 OpenBabel11062421043D

 38 41  0  0  1  0  0  0  0  0999 V2000
  195.4220  172.7350  143.2840 O   0  0  0  0  0  0  0  0  0  0  0  0
  193.4010  176.4810  144.4170 C   0  0  0  0  0  2  0  0  0  0  0  0
  195.3060  176.0230  145.8840 O   0  0  0  0  0  0  0  0  0  0  0  0
  194.9370  176.4130  144.5820 C   0  0  1  0  0  3  0  0  0  0  0  0
  193.2310  174.2900  145.7620 C   0  0  0  0  0  2  0  0  0  0  0  0
  192.5580  175.6070  145.3640 C   0  0  1  0  0  3  0  0  0  0  0  0
  194.4460  172.9010  144.0640 C   0  0  0  0  0  0  0  0  0  0  0  0
  194.4040  174.0450  144.9280 N   0  0  0  0  0  0  0  0  0  0  0  0
  195.4730  175.0490  144.8720 C   0  0  2  0  0  3  0  0  0  0  0  0
  192.1900  176.3660  146.5520 N   0  0  0  0  0  2  0  0  0  0  0  0
  190.5980  177.1950  148.0270 O   0  0  0  0  0  0  0  0  0  0  0  0
  190.8380  176.5120  146.9980 C   0  0  0  0  0  0  0  0  0  0  0  0
  189.7020  175.8880  146.2490 C   0  0  0  0  0  2  0  0  0  0  0  0
  187.9190  177.5420  146.2280 O   0  0  0  0  0  0  0  0  0  0  0  0
  187.4750  176.6290  145.2470 C   0  0  2  0  0  3  0  0  0  0  0  0
  189.6510  177.9160  144.5600 C   0  0  0  0  0  1  0  0  0  0  0  0
  188.9170  176.9220  145.4550 C   0  0  2  0  0  0  0  0  0  0  0  0
  186.8420  177.3960  144.0940 C   0  0  2  0  0  3  0  0  0  0  0  0
  185.7990  178.1850  144.5810 O   0  0  0  0  0  1  0  0  0  0  0  0
  186.3110  176.4190  143.0570 C   0  0  0  0  0  2  0  0  0  0  0  0
  187.7170  174.5130  142.2740 O   0  0  0  0  0  1  0  0  0  0  0  0
  188.1410  176.6450  141.5460 O   0  0  0  0  0  0  0  0  0  0  0  0
  187.4300  175.8720  142.2400 C   0  0  0  0  0  0  0  0  0  0  0  0
  193.2970  171.9270  144.0400 C   0  0  1  0  0  3  0  0  0  0  0  0
  189.8750  171.8120  141.0250 C   0  0  0  0  0  2  0  0  0  0  0  0
  191.5080  170.8020  142.6140 C   0  0  0  0  0  2  0  0  0  0  0  0
  192.5910  171.8830  142.6780 C   0  0  1  0  0  3  0  0  0  0  0  0
  192.0750  173.2670  142.2930 C   0  0  0  0  0  2  0  0  0  0  0  0
  190.4270  173.0500  140.4500 N   0  0  0  0  0  0  0  0  0  0  0  0
  190.3590  172.9240  139.0050 C   0  0  0  0  0  1  0  0  0  0  0  0
  190.8930  170.6870  141.2250 C   0  0  0  0  0  2  0  0  0  0  0  0
  191.8300  173.3140  140.7910 C   0  0  0  0  0  2  0  0  0  0  0  0
  194.5490  170.4270  145.5920 C   0  0  0  0  0  3  0  0  0  0  0  0
  193.6160  170.5870  144.6530 C   0  0  0  0  0  3  0  0  0  0  0  0
  194.8140  169.0760  146.1590 C   0  0  0  0  0  2  0  0  0  0  0  0
  196.2820  168.4040  147.9100 O   0  0  0  0  0  1  0  0  0  0  0  0
  196.1300  169.0710  146.8530 C   0  0  0  0  0  0  0  0  0  0  0  0
  197.2010  169.7760  146.3170 O   0  0  0  0  0  0  0  0  0  0  0  0
  1  7  2  0  0  0  0
  2  6  1  0  0  0  0
  4  2  1  1  0  0  0
  4  9  1  0  0  0  0
  4  3  1  0  0  0  0
  6  5  1  0  0  0  0
  6 10  1  1  0  0  0
  7  8  1  0  0  0  0
  8  5  1  0  0  0  0
  9  8  1  0  0  0  0
  9  3  1  1  0  0  0
 10 12  1  0  0  0  0
 12 11  2  0  0  0  0
 13 12  1  0  0  0  0
 15 18  1  6  0  0  0
 15 17  1  0  0  0  0
 15 14  1  0  0  0  0
 17 16  1  6  0  0  0
 17 14  1  0  0  0  0
 17 13  1  0  0  0  0
 18 19  1  1  0  0  0
 20 18  1  0  0  0  0
 22 23  2  0  0  0  0
 23 21  1  0  0  0  0
 23 20  1  0  0  0  0
 24  7  1  0  0  0  0
 24 34  1  6  0  0  0
 25 31  1  0  0  0  0
 26 27  1  0  0  0  0
 27 24  1  1  0  0  0
 28 27  1  0  0  0  0
 29 32  1  0  0  0  0
 29 25  1  0  0  0  0
 30 29  1  0  0  0  0
 31 26  1  0  0  0  0
 32 28  1  0  0  0  0
 33 35  1  0  0  0  0
 34 33  2  0  0  0  0
 35 37  1  0  0  0  0
 37 36  1  0  0  0  0
 38 37  2  0  0  0  0
M  END
>  <MODEL>
8

>  <REMARK>
 VINA RESULT:      -6.2      3.197      6.209
  Name = 
  11 active torsions:
  status: ('A' for Active; 'I' for Inactive)
    1  A    between atoms: C_3  and  C_25
    2  A    between atoms: C_3  and  C_34
    3  A    between atoms: C_6  and  C_15
    4  A    between atoms: N_7  and  C_28
    5  A    between atoms: C_9  and  C_14
    6  A    between atoms: C_9  and  C_36
    7  A    between atoms: C_10  and  C_27
    8  A    between atoms: C_12  and  C_27
    9  A    between atoms: C_15  and  C_24
   10  A    between atoms: C_15  and  C_29
   11  A    between atoms: C_32  and  C_36
                            x       y       z     vdW  Elec       q    Type
                         _______ _______ _______ _____ _____    ______ ____

>  <TORSDO>
F 11

$$$$
=
 OpenBabel11062421043D

 38 41  0  0  1  0  0  0  0  0999 V2000
  195.7340  173.5650  144.1230 O   0  0  0  0  0  0  0  0  0  0  0  0
  192.8840  176.8270  144.9210 C   0  0  0  0  0  2  0  0  0  0  0  0
  194.3300  176.4220  146.8530 O   0  0  0  0  0  0  0  0  0  0  0  0
  194.2950  176.9360  145.5430 C   0  0  1  0  0  3  0  0  0  0  0  0
  192.6940  174.4690  145.9420 C   0  0  0  0  0  2  0  0  0  0  0  0
  191.9580  175.7300  145.4790 C   0  0  1  0  0  3  0  0  0  0  0  0
  194.5600  173.4940  144.5780 C   0  0  0  0  0  0  0  0  0  0  0  0
  194.0820  174.4940  145.4890 N   0  0  0  0  0  0  0  0  0  0  0  0
  194.9410  175.6260  145.8570 C   0  0  2  0  0  3  0  0  0  0  0  0
  191.1430  176.2650  146.5610 N   0  0  0  0  0  2  0  0  0  0  0  0
  189.4040  177.5980  147.3320 O   0  0  0  0  0  0  0  0  0  0  0  0
  190.0540  177.1680  146.3450 C   0  0  0  0  0  0  0  0  0  0  0  0
  189.6900  177.6310  144.9680 C   0  0  0  0  0  2  0  0  0  0  0  0
  188.8890  175.4720  144.1860 O   0  0  0  0  0  0  0  0  0  0  0  0
  188.7550  176.2660  143.0250 C   0  0  2  0  0  3  0  0  0  0  0  0
  187.1350  176.9700  144.9590 C   0  0  0  0  0  1  0  0  0  0  0  0
  188.5410  176.8190  144.3880 C   0  0  2  0  0  0  0  0  0  0  0  0
  187.4730  175.8840  142.2980 C   0  0  2  0  0  3  0  0  0  0  0  0
  187.4410  174.5010  142.1130 O   0  0  0  0  0  1  0  0  0  0  0  0
  187.4170  176.5870  140.9520 C   0  0  0  0  0  2  0  0  0  0  0  0
  186.4960  178.6660  141.9770 O   0  0  0  0  0  1  0  0  0  0  0  0
  185.4910  177.7330  140.1400 O   0  0  0  0  0  0  0  0  0  0  0  0
  186.4220  177.6950  140.9870 C   0  0  0  0  0  0  0  0  0  0  0  0
  193.6440  172.3930  144.1130 C   0  0  1  0  0  3  0  0  0  0  0  0
  191.4910  171.6870  140.1530 C   0  0  0  0  0  2  0  0  0  0  0  0
  193.4960  171.8660  141.6230 C   0  0  0  0  0  2  0  0  0  0  0  0
  192.9620  172.7190  142.7780 C   0  0  1  0  0  3  0  0  0  0  0  0
  191.4440  172.6490  142.9160 C   0  0  0  0  0  2  0  0  0  0  0  0
  190.4120  172.5500  140.6620 N   0  0  0  0  0  0  0  0  0  0  0  0
  189.9980  173.4130  139.5700 C   0  0  0  0  0  1  0  0  0  0  0  0
  192.8980  172.2740  140.2830 C   0  0  0  0  0  2  0  0  0  0  0  0
  190.7960  173.4240  141.7760 C   0  0  0  0  0  2  0  0  0  0  0  0
  193.7670  170.0860  145.0550 C   0  0  0  0  0  3  0  0  0  0  0  0
  194.2410  171.0120  144.2210 C   0  0  0  0  0  3  0  0  0  0  0  0
  194.4000  168.7390  145.1130 C   0  0  0  0  0  2  0  0  0  0  0  0
  196.3690  168.2200  146.3460 O   0  0  0  0  0  0  0  0  0  0  0  0
  195.1680  168.5980  146.3780 C   0  0  0  0  0  0  0  0  0  0  0  0
  194.5720  168.9140  147.5920 O   0  0  0  0  0  1  0  0  0  0  0  0
  1  7  2  0  0  0  0
  2  6  1  0  0  0  0
  4  2  1  6  0  0  0
  4  9  1  0  0  0  0
  4  3  1  0  0  0  0
  6  5  1  0  0  0  0
  6 10  1  1  0  0  0
  7  8  1  0  0  0  0
  8  9  1  0  0  0  0
  8  5  1  0  0  0  0
  9  3  1  1  0  0  0
 12 10  1  0  0  0  0
 12 11  2  0  0  0  0
 13 12  1  0  0  0  0
 14 17  1  0  0  0  0
 15 18  1  6  0  0  0
 15 14  1  0  0  0  0
 15 17  1  0  0  0  0
 17 16  1  1  0  0  0
 17 13  1  0  0  0  0
 18 19  1  6  0  0  0
 20 23  1  0  0  0  0
 20 18  1  0  0  0  0
 22 23  2  0  0  0  0
 23 21  1  0  0  0  0
 24 34  1  6  0  0  0
 24  7  1  0  0  0  0
 25 31  1  0  0  0  0
 25 29  1  0  0  0  0
 26 27  1  0  0  0  0
 27 28  1  0  0  0  0
 27 24  1  1  0  0  0
 29 32  1  0  0  0  0
 30 29  1  0  0  0  0
 31 26  1  0  0  0  0
 32 28  1  0  0  0  0
 33 35  1  0  0  0  0
 34 33  2  0  0  0  0
 35 37  1  0  0  0  0
 36 37  2  0  0  0  0
 37 38  1  0  0  0  0
M  END
>  <MODEL>
9

>  <REMARK>
 VINA RESULT:      -6.0      3.144      6.261
  Name = 
  11 active torsions:
  status: ('A' for Active; 'I' for Inactive)
    1  A    between atoms: C_3  and  C_25
    2  A    between atoms: C_3  and  C_34
    3  A    between atoms: C_6  and  C_15
    4  A    between atoms: N_7  and  C_28
    5  A    between atoms: C_9  and  C_14
    6  A    between atoms: C_9  and  C_36
    7  A    between atoms: C_10  and  C_27
    8  A    between atoms: C_12  and  C_27
    9  A    between atoms: C_15  and  C_24
   10  A    between atoms: C_15  and  C_29
   11  A    between atoms: C_32  and  C_36
                            x       y       z     vdW  Elec       q    Type
                         _______ _______ _______ _____ _____    ______ ____

>  <TORSDO>
F 11

$$$$
