=
 OpenBabel11062419393D

 42 43  0  0  1  0  0  0  0  0999 V2000
  191.8870  174.9570  145.2090 C   0  0  1  0  0  3  0  0  0  0  0  0
  190.1060  173.2550  142.5590 C   0  0  2  0  0  3  0  0  0  0  0  0
  189.7030  172.3450  143.7010 C   0  0  0  0  0  2  0  0  0  0  0  0
  190.4400  174.6020  143.1750 C   0  0  0  0  0  2  0  0  0  0  0  0
  190.4410  172.8750  144.9060 C   0  0  0  0  0  2  0  0  0  0  0  0
  190.5760  174.3730  144.6710 C   0  0  1  0  0  3  0  0  0  0  0  0
  187.8400  172.9940  141.8260 O   0  0  0  0  0  0  0  0  0  0  0  0
  189.0100  173.3780  141.5530 C   0  0  0  0  0  0  0  0  0  0  0  0
  189.2870  173.9370  140.2750 N   0  0  0  0  0  1  0  0  0  0  0  0
  192.6130  176.1310  147.1500 O   0  0  0  0  0  0  0  0  0  0  0  0
  191.6360  175.7570  146.4470 C   0  0  0  0  0  0  0  0  0  0  0  0
  190.3290  176.1000  146.7990 O   0  0  0  0  0  0  0  0  0  0  0  0
  189.7690  177.3780  146.5140 C   0  0  2  0  0  3  0  0  0  0  0  0
  189.5610  178.0700  147.7110 O   0  0  0  0  0  1  0  0  0  0  0  0
  185.9570  176.8700  145.6920 C   0  0  2  0  0  3  0  0  0  0  0  0
  187.1780  177.2260  146.5470 C   0  0  0  0  0  2  0  0  0  0  0  0
  188.4660  177.3880  144.4230 C   0  0  0  0  0  3  0  0  0  0  0  0
  185.9720  177.6900  144.4120 C   0  0  0  0  0  2  0  0  0  0  0  0
  188.4730  177.2380  145.7620 C   0  0  0  0  0  0  0  0  0  0  0  0
  187.2070  177.3090  143.6020 C   0  0  1  0  0  3  0  0  0  0  0  0
  186.3040  178.6670  141.8500 O   0  0  0  0  0  1  0  0  0  0  0  0
  188.5710  178.3440  141.7930 O   0  0  0  0  0  0  0  0  0  0  0  0
  187.3240  178.1420  142.3700 C   0  0  0  0  0  0  0  0  0  0  0  0
  184.4390  178.6480  146.5570 C   0  0  0  0  0  1  0  0  0  0  0  0
  184.6780  177.1530  146.4600 C   0  0  0  0  0  2  0  0  0  0  0  0
  192.9640  173.8830  145.4340 C   0  0  0  0  0  2  0  0  0  0  0  0
  194.3070  173.0560  143.5430 C   0  0  0  0  0  1  0  0  0  0  0  0
  194.2570  174.1100  144.6390 C   0  0  1  0  0  0  0  0  0  0  0  0
  194.2750  175.5220  144.0280 C   0  0  0  0  0  2  0  0  0  0  0  0
  196.6250  176.9560  143.3100 O   0  0  0  0  0  0  0  0  0  0  0  0
  196.0830  176.2570  142.4140 C   0  0  0  0  0  0  0  0  0  0  0  0
  195.0210  174.9420  139.9940 N   0  0  0  0  0  2  0  0  0  0  0  0
  196.6940  176.1940  141.1200 N   0  0  0  0  0  2  0  0  0  0  0  0
  196.1840  175.5120  139.9670 C   0  0  0  0  0  0  0  0  0  0  0  0
  194.8810  175.5350  142.7000 N   0  0  0  0  0  2  0  0  0  0  0  0
  196.9640  175.4750  138.8090 O   0  0  0  0  0  0  0  0  0  0  0  0
  197.0340  174.3290  137.9740 C   0  0  0  0  0  1  0  0  0  0  0  0
  195.4640  173.9100  145.5670 C   0  0  0  0  0  2  0  0  0  0  0  0
  196.6520  173.2240  144.8990 C   0  0  1  0  0  3  0  0  0  0  0  0
  197.7230  174.1130  144.8150 O   0  0  0  0  0  1  0  0  0  0  0  0
  197.5190  170.9900  145.1460 N   0  0  0  0  0  2  0  0  0  0  0  0
  197.0510  172.0400  145.7130 C   0  0  0  0  0  3  0  0  0  0  0  0
  1 26  1  1  0  0  0
  1 11  1  0  0  0  0
  2  8  1  6  0  0  0
  2  4  1  0  0  0  0
  2  3  1  0  0  0  0
  3  5  1  0  0  0  0
  4  6  1  0  0  0  0
  6  5  1  0  0  0  0
  6  1  1  6  0  0  0
  8  7  2  0  0  0  0
  9  8  1  0  0  0  0
 11 12  1  0  0  0  0
 11 10  2  0  0  0  0
 13 12  1  0  0  0  0
 13 14  1  1  0  0  0
 15 25  1  1  0  0  0
 15 16  1  0  0  0  0
 17 19  2  0  0  0  0
 18 15  1  0  0  0  0
 19 13  1  0  0  0  0
 19 16  1  0  0  0  0
 20 23  1  6  0  0  0
 20 18  1  0  0  0  0
 20 17  1  0  0  0  0
 21 23  1  0  0  0  0
 22 23  2  0  0  0  0
 25 24  1  0  0  0  0
 28 27  1  6  0  0  0
 28 26  1  0  0  0  0
 28 38  1  0  0  0  0
 29 28  1  0  0  0  0
 31 35  1  0  0  0  0
 31 30  2  0  0  0  0
 33 31  1  0  0  0  0
 34 32  2  0  0  0  0
 34 33  1  0  0  0  0
 35 29  1  0  0  0  0
 36 34  1  0  0  0  0
 37 36  1  0  0  0  0
 39 40  1  1  0  0  0
 39 38  1  0  0  0  0
 39 42  1  0  0  0  0
 41 42  2  0  0  0  0
M  END
>  <MODEL>
1

>  <REMARK>
 VINA RESULT:      -6.8      0.000      0.000
  Name = 
  16 active torsions:
  status: ('A' for Active; 'I' for Inactive)
    1  A    between atoms: O_2  and  C_18
    2  A    between atoms: C_3  and  C_4
    3  A    between atoms: C_3  and  C_42
    4  A    between atoms: C_4  and  C_9
    5  A    between atoms: C_5  and  C_31
    6  A    between atoms: C_9  and  C_20
    7  A    between atoms: C_9  and  C_21
    8  A    between atoms: C_10  and  C_20
    9  A    between atoms: C_10  and  C_40
   10  A    between atoms: C_10  and  C_41
   11  A    between atoms: O_12  and  C_28
   12  A    between atoms: O_12  and  C_40
   13  A    between atoms: C_21  and  N_24
   14  A    between atoms: C_23  and  C_25
   15  A    between atoms: C_28  and  C_33
   16  A    between atoms: C_37  and  C_38
                            x       y       z     vdW  Elec       q    Type
                         _______ _______ _______ _____ _____    ______ ____

>  <TORSDO>
F 16

$$$$
=
 OpenBabel11062419393D

 42 43  0  0  1  0  0  0  0  0999 V2000
  192.2030  175.3800  145.7330 C   0  0  1  0  0  3  0  0  0  0  0  0
  195.1000  173.2730  145.2210 C   0  0  2  0  0  3  0  0  0  0  0  0
  195.8140  174.4710  145.8090 C   0  0  0  0  0  2  0  0  0  0  0  0
  193.6690  173.3280  145.7270 C   0  0  0  0  0  2  0  0  0  0  0  0
  194.7360  175.5090  146.0160 C   0  0  0  0  0  2  0  0  0  0  0  0
  193.4660  174.7210  146.2990 C   0  0  1  0  0  3  0  0  0  0  0  0
  195.0810  170.9770  145.9030 O   0  0  0  0  0  0  0  0  0  0  0  0
  195.7650  171.9980  145.6210 C   0  0  0  0  0  0  0  0  0  0  0  0
  197.1840  171.9340  145.6820 N   0  0  0  0  0  1  0  0  0  0  0  0
  191.6220  175.5840  148.0340 O   0  0  0  0  0  0  0  0  0  0  0  0
  191.3040  175.8310  146.8390 C   0  0  0  0  0  0  0  0  0  0  0  0
  190.1370  176.5370  146.5410 O   0  0  0  0  0  0  0  0  0  0  0  0
  188.8520  175.9230  146.5340 C   0  0  2  0  0  3  0  0  0  0  0  0
  188.9630  174.6230  146.0330 O   0  0  0  0  0  1  0  0  0  0  0  0
  186.8570  177.3560  143.4620 C   0  0  2  0  0  3  0  0  0  0  0  0
  187.7020  176.3460  144.2450 C   0  0  0  0  0  2  0  0  0  0  0  0
  187.0230  177.5590  146.3100 C   0  0  0  0  0  3  0  0  0  0  0  0
  185.5960  177.6830  144.2460 C   0  0  0  0  0  2  0  0  0  0  0  0
  187.8840  176.7200  145.7010 C   0  0  0  0  0  0  0  0  0  0  0  0
  185.9940  178.3570  145.5560 C   0  0  1  0  0  3  0  0  0  0  0  0
  184.8930  178.6090  147.6660 O   0  0  0  0  0  1  0  0  0  0  0  0
  183.5790  178.9070  145.8130 O   0  0  0  0  0  0  0  0  0  0  0  0
  184.8010  178.6280  146.4090 C   0  0  0  0  0  0  0  0  0  0  0  0
  187.6800  176.7700  141.1820 C   0  0  0  0  0  1  0  0  0  0  0  0
  186.4770  176.7850  142.1070 C   0  0  0  0  0  2  0  0  0  0  0  0
  192.5220  176.5230  144.7550 C   0  0  0  0  0  2  0  0  0  0  0  0
  190.9230  177.1700  142.9970 C   0  0  0  0  0  1  0  0  0  0  0  0
  192.0970  176.2510  143.3060 C   0  0  1  0  0  0  0  0  0  0  0  0
  193.2620  176.5270  142.3390 C   0  0  0  0  0  2  0  0  0  0  0  0
  196.1060  176.5570  142.3340 O   0  0  0  0  0  0  0  0  0  0  0  0
  195.5430  175.4380  142.2010 C   0  0  0  0  0  0  0  0  0  0  0  0
  194.6430  172.6830  141.6470 N   0  0  0  0  0  2  0  0  0  0  0  0
  196.3550  174.2630  142.0980 N   0  0  0  0  0  2  0  0  0  0  0  0
  195.8950  172.9250  141.8720 C   0  0  0  0  0  0  0  0  0  0  0  0
  194.1150  175.3570  142.1640 N   0  0  0  0  0  2  0  0  0  0  0  0
  196.8240  171.8820  141.8970 O   0  0  0  0  0  0  0  0  0  0  0  0
  196.4600  170.5450  142.2070 C   0  0  0  0  0  1  0  0  0  0  0  0
  191.6250  174.7950  143.1790 C   0  0  0  0  0  2  0  0  0  0  0  0
  190.5370  174.5840  142.1320 C   0  0  1  0  0  3  0  0  0  0  0  0
  191.1040  174.0880  140.9580 O   0  0  0  0  0  1  0  0  0  0  0  0
  188.5120  173.2930  141.9580 N   0  0  0  0  0  2  0  0  0  0  0  0
  189.5400  173.6070  142.6550 C   0  0  0  0  0  3  0  0  0  0  0  0
  1 26  1  1  0  0  0
  1 11  1  0  0  0  0
  2  8  1  1  0  0  0
  2  4  1  0  0  0  0
  2  3  1  0  0  0  0
  3  5  1  0  0  0  0
  4  6  1  0  0  0  0
  5  6  1  0  0  0  0
  6  1  1  6  0  0  0
  8  9  1  0  0  0  0
  8  7  2  0  0  0  0
 11 10  2  0  0  0  0
 12 11  1  0  0  0  0
 13 14  1  6  0  0  0
 13 12  1  0  0  0  0
 15 25  1  6  0  0  0
 15 16  1  0  0  0  0
 15 18  1  0  0  0  0
 16 19  1  0  0  0  0
 18 20  1  0  0  0  0
 19 17  2  0  0  0  0
 19 13  1  0  0  0  0
 20 17  1  0  0  0  0
 20 23  1  1  0  0  0
 22 23  2  0  0  0  0
 23 21  1  0  0  0  0
 24 25  1  0  0  0  0
 28 27  1  6  0  0  0
 28 26  1  0  0  0  0
 29 28  1  0  0  0  0
 31 30  2  0  0  0  0
 32 34  2  0  0  0  0
 33 31  1  0  0  0  0
 34 36  1  0  0  0  0
 34 33  1  0  0  0  0
 35 31  1  0  0  0  0
 35 29  1  0  0  0  0
 36 37  1  0  0  0  0
 38 28  1  0  0  0  0
 39 40  1  6  0  0  0
 39 42  1  0  0  0  0
 39 38  1  0  0  0  0
 41 42  2  0  0  0  0
M  END
>  <MODEL>
2

>  <REMARK>
 VINA RESULT:      -6.6      2.085      4.891
  Name = 
  16 active torsions:
  status: ('A' for Active; 'I' for Inactive)
    1  A    between atoms: O_2  and  C_18
    2  A    between atoms: C_3  and  C_4
    3  A    between atoms: C_3  and  C_42
    4  A    between atoms: C_4  and  C_9
    5  A    between atoms: C_5  and  C_31
    6  A    between atoms: C_9  and  C_20
    7  A    between atoms: C_9  and  C_21
    8  A    between atoms: C_10  and  C_20
    9  A    between atoms: C_10  and  C_40
   10  A    between atoms: C_10  and  C_41
   11  A    between atoms: O_12  and  C_28
   12  A    between atoms: O_12  and  C_40
   13  A    between atoms: C_21  and  N_24
   14  A    between atoms: C_23  and  C_25
   15  A    between atoms: C_28  and  C_33
   16  A    between atoms: C_37  and  C_38
                            x       y       z     vdW  Elec       q    Type
                         _______ _______ _______ _____ _____    ______ ____

>  <TORSDO>
F 16

$$$$
=
 OpenBabel11062419393D

 42 43  0  0  1  0  0  0  0  0999 V2000
  190.6120  175.0710  145.3080 C   0  0  1  0  0  3  0  0  0  0  0  0
  194.0270  176.2370  145.0480 C   0  0  2  0  0  3  0  0  0  0  0  0
  193.9620  176.1130  146.5560 C   0  0  0  0  0  2  0  0  0  0  0  0
  192.9870  175.2830  144.4890 C   0  0  0  0  0  2  0  0  0  0  0  0
  192.5400  175.7010  146.8560 C   0  0  0  0  0  2  0  0  0  0  0  0
  192.0930  174.8860  145.6520 C   0  0  1  0  0  3  0  0  0  0  0  0
  196.0250  174.9180  144.9880 O   0  0  0  0  0  0  0  0  0  0  0  0
  195.3900  175.9100  144.5370 C   0  0  0  0  0  0  0  0  0  0  0  0
  195.9780  176.7230  143.5290 N   0  0  0  0  0  1  0  0  0  0  0  0
  189.1890  174.0490  146.9220 O   0  0  0  0  0  0  0  0  0  0  0  0
  189.8040  173.9250  145.8290 C   0  0  0  0  0  0  0  0  0  0  0  0
  189.7220  172.7420  145.0920 O   0  0  0  0  0  0  0  0  0  0  0  0
  189.8370  172.7150  143.6720 C   0  0  2  0  0  3  0  0  0  0  0  0
  188.8770  171.8450  143.1470 O   0  0  0  0  0  1  0  0  0  0  0  0
  193.1490  172.2510  141.6030 C   0  0  2  0  0  3  0  0  0  0  0  0
  191.8450  172.9260  142.0410 C   0  0  0  0  0  2  0  0  0  0  0  0
  191.9560  171.5310  144.1000 C   0  0  0  0  0  3  0  0  0  0  0  0
  194.0500  172.0470  142.8120 C   0  0  0  0  0  2  0  0  0  0  0  0
  191.2160  172.2780  143.2560 C   0  0  0  0  0  0  0  0  0  0  0  0
  193.3590  171.0920  143.7810 C   0  0  1  0  0  3  0  0  0  0  0  0
  194.4950  169.7670  145.4190 O   0  0  0  0  0  0  0  0  0  0  0  0
  194.5360  172.0320  145.7630 O   0  0  0  0  0  1  0  0  0  0  0  0
  194.1570  170.9170  145.0280 C   0  0  0  0  0  0  0  0  0  0  0  0
  193.4180  174.5550  140.6880 C   0  0  0  0  0  1  0  0  0  0  0  0
  193.8670  173.1100  140.5770 C   0  0  0  0  0  2  0  0  0  0  0  0
  190.0590  176.4230  145.7890 C   0  0  0  0  0  2  0  0  0  0  0  0
  190.3070  178.2910  144.2040 C   0  0  0  0  0  1  0  0  0  0  0  0
  189.3360  177.2310  144.7030 C   0  0  1  0  0  0  0  0  0  0  0  0
  188.9000  176.3150  143.5460 C   0  0  0  0  0  2  0  0  0  0  0  0
  188.2870  175.5750  140.8690 O   0  0  0  0  0  0  0  0  0  0  0  0
  187.5940  176.4910  141.3840 C   0  0  0  0  0  0  0  0  0  0  0  0
  185.9040  178.7960  142.1210 N   0  0  0  0  0  2  0  0  0  0  0  0
  186.5300  177.0690  140.6190 N   0  0  0  0  0  2  0  0  0  0  0  0
  185.6900  178.1610  141.0130 C   0  0  0  0  0  0  0  0  0  0  0  0
  187.8710  176.9330  142.7170 N   0  0  0  0  0  2  0  0  0  0  0  0
  184.6340  178.5320  140.1770 O   0  0  0  0  0  0  0  0  0  0  0  0
  183.2760  178.2860  140.5120 C   0  0  0  0  0  1  0  0  0  0  0  0
  188.1180  177.9350  145.3200 C   0  0  0  0  0  2  0  0  0  0  0  0
  187.6210  177.2950  146.6120 C   0  0  1  0  0  3  0  0  0  0  0  0
  187.6210  178.2410  147.6370 O   0  0  0  0  0  1  0  0  0  0  0  0
  185.7160  176.7820  145.2290 N   0  0  0  0  0  2  0  0  0  0  0  0
  186.2340  176.7890  146.4010 C   0  0  0  0  0  3  0  0  0  0  0  0
  1 26  1  1  0  0  0
  1 11  1  0  0  0  0
  2  8  1  6  0  0  0
  2  3  1  0  0  0  0
  3  5  1  0  0  0  0
  4  2  1  0  0  0  0
  4  6  1  0  0  0  0
  6  1  1  6  0  0  0
  6  5  1  0  0  0  0
  8  7  2  0  0  0  0
  9  8  1  0  0  0  0
 11 10  2  0  0  0  0
 12 11  1  0  0  0  0
 13 14  1  6  0  0  0
 13 12  1  0  0  0  0
 15 25  1  6  0  0  0
 15 16  1  0  0  0  0
 15 18  1  0  0  0  0
 16 19  1  0  0  0  0
 18 20  1  0  0  0  0
 19 13  1  0  0  0  0
 19 17  2  0  0  0  0
 20 17  1  0  0  0  0
 20 23  1  1  0  0  0
 23 21  2  0  0  0  0
 23 22  1  0  0  0  0
 25 24  1  0  0  0  0
 28 27  1  6  0  0  0
 28 38  1  0  0  0  0
 28 26  1  0  0  0  0
 29 28  1  0  0  0  0
 30 31  2  0  0  0  0
 31 35  1  0  0  0  0
 33 34  1  0  0  0  0
 33 31  1  0  0  0  0
 34 32  2  0  0  0  0
 35 29  1  0  0  0  0
 36 37  1  0  0  0  0
 36 34  1  0  0  0  0
 38 39  1  0  0  0  0
 39 40  1  1  0  0  0
 41 42  2  0  0  0  0
 42 39  1  0  0  0  0
M  END
>  <MODEL>
3

>  <REMARK>
 VINA RESULT:      -6.5      2.728      8.589
  Name = 
  16 active torsions:
  status: ('A' for Active; 'I' for Inactive)
    1  A    between atoms: O_2  and  C_18
    2  A    between atoms: C_3  and  C_4
    3  A    between atoms: C_3  and  C_42
    4  A    between atoms: C_4  and  C_9
    5  A    between atoms: C_5  and  C_31
    6  A    between atoms: C_9  and  C_20
    7  A    between atoms: C_9  and  C_21
    8  A    between atoms: C_10  and  C_20
    9  A    between atoms: C_10  and  C_40
   10  A    between atoms: C_10  and  C_41
   11  A    between atoms: O_12  and  C_28
   12  A    between atoms: O_12  and  C_40
   13  A    between atoms: C_21  and  N_24
   14  A    between atoms: C_23  and  C_25
   15  A    between atoms: C_28  and  C_33
   16  A    between atoms: C_37  and  C_38
                            x       y       z     vdW  Elec       q    Type
                         _______ _______ _______ _____ _____    ______ ____

>  <TORSDO>
F 16

$$$$
=
 OpenBabel11062419393D

 42 43  0  0  1  0  0  0  0  0999 V2000
  191.9860  174.8160  144.8420 C   0  0  1  0  0  3  0  0  0  0  0  0
  189.9670  173.4750  142.1550 C   0  0  2  0  0  3  0  0  0  0  0  0
  189.5110  172.5330  143.2500 C   0  0  0  0  0  2  0  0  0  0  0  0
  190.4500  174.7400  142.8440 C   0  0  0  0  0  2  0  0  0  0  0  0
  190.3340  172.9070  144.4590 C   0  0  0  0  0  2  0  0  0  0  0  0
  190.6090  174.3970  144.3160 C   0  0  1  0  0  3  0  0  0  0  0  0
  188.3100  174.9060  141.1820 O   0  0  0  0  0  0  0  0  0  0  0  0
  188.8580  173.7710  141.2010 C   0  0  0  0  0  0  0  0  0  0  0  0
  188.4180  172.7620  140.2990 N   0  0  0  0  0  1  0  0  0  0  0  0
  192.8580  176.5830  146.1790 O   0  0  0  0  0  0  0  0  0  0  0  0
  191.8500  175.8920  145.8710 C   0  0  0  0  0  0  0  0  0  0  0  0
  190.6090  176.1340  146.4640 O   0  0  0  0  0  0  0  0  0  0  0  0
  189.9420  177.3880  146.3580 C   0  0  2  0  0  3  0  0  0  0  0  0
  189.7560  177.9220  147.6360 O   0  0  0  0  0  1  0  0  0  0  0  0
  186.1080  176.8100  145.6980 C   0  0  2  0  0  3  0  0  0  0  0  0
  187.3580  177.1800  146.5030 C   0  0  0  0  0  2  0  0  0  0  0  0
  188.5470  177.3990  144.3270 C   0  0  0  0  0  3  0  0  0  0  0  0
  186.0500  177.6480  144.4300 C   0  0  0  0  0  2  0  0  0  0  0  0
  188.6170  177.2310  145.6620 C   0  0  0  0  0  0  0  0  0  0  0  0
  187.2550  177.3050  143.5610 C   0  0  1  0  0  3  0  0  0  0  0  0
  186.2540  178.7040  141.8960 O   0  0  0  0  0  1  0  0  0  0  0  0
  188.5080  178.3540  141.6820 O   0  0  0  0  0  0  0  0  0  0  0  0
  187.3000  178.1570  142.3380 C   0  0  0  0  0  0  0  0  0  0  0  0
  184.6450  178.5440  146.7320 C   0  0  0  0  0  1  0  0  0  0  0  0
  184.8590  177.0570  146.5260 C   0  0  0  0  0  2  0  0  0  0  0  0
  192.8030  173.6240  145.3680 C   0  0  0  0  0  2  0  0  0  0  0  0
  195.2580  173.7300  145.5220 C   0  0  0  0  0  1  0  0  0  0  0  0
  194.1050  173.3630  144.5990 C   0  0  1  0  0  0  0  0  0  0  0  0
  194.2010  171.8860  144.1810 C   0  0  0  0  0  2  0  0  0  0  0  0
  192.5000  169.6590  143.6920 O   0  0  0  0  0  0  0  0  0  0  0  0
  192.6300  170.4980  142.7610 C   0  0  0  0  0  0  0  0  0  0  0  0
  192.8290  172.0790  140.2770 N   0  0  0  0  0  2  0  0  0  0  0  0
  191.8950  170.3050  141.5470 N   0  0  0  0  0  2  0  0  0  0  0  0
  191.9720  171.1110  140.3650 C   0  0  0  0  0  0  0  0  0  0  0  0
  193.4960  171.6250  142.9310 N   0  0  0  0  0  2  0  0  0  0  0  0
  191.1070  170.8330  139.3040 O   0  0  0  0  0  0  0  0  0  0  0  0
  191.2570  171.4270  138.0230 C   0  0  0  0  0  1  0  0  0  0  0  0
  194.1570  174.2760  143.3650 C   0  0  0  0  0  2  0  0  0  0  0  0
  195.5710  174.5980  142.8900 C   0  0  1  0  0  3  0  0  0  0  0  0
  195.8170  173.9570  141.6760 O   0  0  0  0  0  1  0  0  0  0  0  0
  196.4050  176.7650  143.5280 N   0  0  0  0  0  2  0  0  0  0  0  0
  195.7010  176.0720  142.7110 C   0  0  0  0  0  3  0  0  0  0  0  0
  1 26  1  1  0  0  0
  1 11  1  0  0  0  0
  2  8  1  6  0  0  0
  2  4  1  0  0  0  0
  2  3  1  0  0  0  0
  3  5  1  0  0  0  0
  4  6  1  0  0  0  0
  6  5  1  0  0  0  0
  6  1  1  6  0  0  0
  7  8  2  0  0  0  0
  9  8  1  0  0  0  0
 11 10  2  0  0  0  0
 11 12  1  0  0  0  0
 13 12  1  0  0  0  0
 13 14  1  1  0  0  0
 15 16  1  0  0  0  0
 15 25  1  1  0  0  0
 17 19  2  0  0  0  0
 18 15  1  0  0  0  0
 19 13  1  0  0  0  0
 19 16  1  0  0  0  0
 20 23  1  6  0  0  0
 20 17  1  0  0  0  0
 20 18  1  0  0  0  0
 21 23  1  0  0  0  0
 22 23  2  0  0  0  0
 25 24  1  0  0  0  0
 28 26  1  0  0  0  0
 28 27  1  1  0  0  0
 29 28  1  0  0  0  0
 31 35  1  0  0  0  0
 31 30  2  0  0  0  0
 32 34  2  0  0  0  0
 33 31  1  0  0  0  0
 34 33  1  0  0  0  0
 35 29  1  0  0  0  0
 36 34  1  0  0  0  0
 37 36  1  0  0  0  0
 38 28  1  0  0  0  0
 39 40  1  6  0  0  0
 39 38  1  0  0  0  0
 42 39  1  0  0  0  0
 42 41  2  0  0  0  0
M  END
>  <MODEL>
4

>  <REMARK>
 VINA RESULT:      -6.5      2.117      3.309
  Name = 
  16 active torsions:
  status: ('A' for Active; 'I' for Inactive)
    1  A    between atoms: O_2  and  C_18
    2  A    between atoms: C_3  and  C_4
    3  A    between atoms: C_3  and  C_42
    4  A    between atoms: C_4  and  C_9
    5  A    between atoms: C_5  and  C_31
    6  A    between atoms: C_9  and  C_20
    7  A    between atoms: C_9  and  C_21
    8  A    between atoms: C_10  and  C_20
    9  A    between atoms: C_10  and  C_40
   10  A    between atoms: C_10  and  C_41
   11  A    between atoms: O_12  and  C_28
   12  A    between atoms: O_12  and  C_40
   13  A    between atoms: C_21  and  N_24
   14  A    between atoms: C_23  and  C_25
   15  A    between atoms: C_28  and  C_33
   16  A    between atoms: C_37  and  C_38
                            x       y       z     vdW  Elec       q    Type
                         _______ _______ _______ _____ _____    ______ ____

>  <TORSDO>
F 16

$$$$
=
 OpenBabel11062419393D

 42 43  0  0  1  0  0  0  0  0999 V2000
  191.5570  174.9620  145.0790 C   0  0  1  0  0  3  0  0  0  0  0  0
  190.1030  173.4140  142.1500 C   0  0  2  0  0  3  0  0  0  0  0  0
  189.7710  172.3260  143.1490 C   0  0  0  0  0  2  0  0  0  0  0  0
  190.2450  174.7020  142.9430 C   0  0  0  0  0  2  0  0  0  0  0  0
  190.3920  172.7810  144.4480 C   0  0  0  0  0  2  0  0  0  0  0  0
  190.3510  174.3020  144.4040 C   0  0  1  0  0  3  0  0  0  0  0  0
  188.7160  172.5430  140.4020 O   0  0  0  0  0  0  0  0  0  0  0  0
  189.0390  173.5350  141.1100 C   0  0  0  0  0  0  0  0  0  0  0  0
  188.3820  174.7810  140.9180 N   0  0  0  0  0  1  0  0  0  0  0  0
  192.1310  174.9680  147.3910 O   0  0  0  0  0  0  0  0  0  0  0  0
  191.2650  175.2460  146.5180 C   0  0  0  0  0  0  0  0  0  0  0  0
  190.0500  175.8330  146.8770 O   0  0  0  0  0  0  0  0  0  0  0  0
  189.6810  177.1440  146.4620 C   0  0  2  0  0  3  0  0  0  0  0  0
  189.5840  177.9740  147.5820 O   0  0  0  0  0  1  0  0  0  0  0  0
  185.8330  176.9960  145.6630 C   0  0  2  0  0  3  0  0  0  0  0  0
  187.0870  177.2420  146.5080 C   0  0  0  0  0  2  0  0  0  0  0  0
  188.3730  177.2550  144.3760 C   0  0  0  0  0  3  0  0  0  0  0  0
  185.9210  177.7950  144.3730 C   0  0  0  0  0  2  0  0  0  0  0  0
  188.3730  177.1210  145.7170 C   0  0  0  0  0  0  0  0  0  0  0  0
  187.1090  177.2880  143.5620 C   0  0  1  0  0  3  0  0  0  0  0  0
  188.4490  178.2640  141.8340 O   0  0  0  0  0  1  0  0  0  0  0  0
  186.1950  178.6510  141.6890 O   0  0  0  0  0  0  0  0  0  0  0  0
  187.2980  178.0910  142.3200 C   0  0  0  0  0  0  0  0  0  0  0  0
  184.1180  178.7780  145.9780 C   0  0  0  0  0  1  0  0  0  0  0  0
  184.5910  177.4100  146.4330 C   0  0  0  0  0  2  0  0  0  0  0  0
  192.8490  174.1450  144.9110 C   0  0  0  0  0  2  0  0  0  0  0  0
  193.6040  176.4060  144.2940 C   0  0  0  0  0  1  0  0  0  0  0  0
  194.0410  174.9510  144.3760 C   0  0  1  0  0  0  0  0  0  0  0  0
  195.2540  174.8070  145.3100 C   0  0  0  0  0  2  0  0  0  0  0  0
  197.8830  173.7950  144.9190 O   0  0  0  0  0  0  0  0  0  0  0  0
  197.0030  172.9760  145.2930 C   0  0  0  0  0  0  0  0  0  0  0  0
  195.2240  170.7120  145.9420 N   0  0  0  0  0  2  0  0  0  0  0  0
  197.3800  171.6150  145.5340 N   0  0  0  0  0  2  0  0  0  0  0  0
  196.5060  170.5380  145.8930 C   0  0  0  0  0  0  0  0  0  0  0  0
  195.6530  173.4140  145.4780 N   0  0  0  0  0  2  0  0  0  0  0  0
  197.0620  169.2910  146.1850 O   0  0  0  0  0  0  0  0  0  0  0  0
  196.9910  168.7100  147.4790 C   0  0  0  0  0  1  0  0  0  0  0  0
  194.3890  174.4640  142.9620 C   0  0  0  0  0  2  0  0  0  0  0  0
  194.0900  175.4790  141.8640 C   0  0  1  0  0  3  0  0  0  0  0  0
  195.2830  176.0180  141.3830 O   0  0  0  0  0  1  0  0  0  0  0  0
  193.9200  174.6630  139.6050 N   0  0  0  0  0  2  0  0  0  0  0  0
  193.3670  174.7970  140.7530 C   0  0  0  0  0  3  0  0  0  0  0  0
  1 26  1  1  0  0  0
  1 11  1  0  0  0  0
  2  8  1  6  0  0  0
  2  4  1  0  0  0  0
  2  3  1  0  0  0  0
  3  5  1  0  0  0  0
  4  6  1  0  0  0  0
  6  5  1  0  0  0  0
  6  1  1  6  0  0  0
  7  8  2  0  0  0  0
  9  8  1  0  0  0  0
 11 12  1  0  0  0  0
 11 10  2  0  0  0  0
 13 12  1  0  0  0  0
 13 14  1  1  0  0  0
 15 25  1  1  0  0  0
 15 16  1  0  0  0  0
 17 19  2  0  0  0  0
 18 15  1  0  0  0  0
 19 13  1  0  0  0  0
 19 16  1  0  0  0  0
 20 23  1  6  0  0  0
 20 18  1  0  0  0  0
 20 17  1  0  0  0  0
 21 23  1  0  0  0  0
 22 23  2  0  0  0  0
 24 25  1  0  0  0  0
 28 27  1  6  0  0  0
 28 26  1  0  0  0  0
 28 29  1  0  0  0  0
 29 35  1  0  0  0  0
 30 31  2  0  0  0  0
 31 35  1  0  0  0  0
 31 33  1  0  0  0  0
 33 34  1  0  0  0  0
 34 32  2  0  0  0  0
 34 36  1  0  0  0  0
 36 37  1  0  0  0  0
 38 28  1  0  0  0  0
 39 40  1  6  0  0  0
 39 38  1  0  0  0  0
 41 42  2  0  0  0  0
 42 39  1  0  0  0  0
M  END
>  <MODEL>
5

>  <REMARK>
 VINA RESULT:      -6.5      1.504      3.796
  Name = 
  16 active torsions:
  status: ('A' for Active; 'I' for Inactive)
    1  A    between atoms: O_2  and  C_18
    2  A    between atoms: C_3  and  C_4
    3  A    between atoms: C_3  and  C_42
    4  A    between atoms: C_4  and  C_9
    5  A    between atoms: C_5  and  C_31
    6  A    between atoms: C_9  and  C_20
    7  A    between atoms: C_9  and  C_21
    8  A    between atoms: C_10  and  C_20
    9  A    between atoms: C_10  and  C_40
   10  A    between atoms: C_10  and  C_41
   11  A    between atoms: O_12  and  C_28
   12  A    between atoms: O_12  and  C_40
   13  A    between atoms: C_21  and  N_24
   14  A    between atoms: C_23  and  C_25
   15  A    between atoms: C_28  and  C_33
   16  A    between atoms: C_37  and  C_38
                            x       y       z     vdW  Elec       q    Type
                         _______ _______ _______ _____ _____    ______ ____

>  <TORSDO>
F 16

$$$$
=
 OpenBabel11062419393D

 42 43  0  0  1  0  0  0  0  0999 V2000
  191.3450  174.6590  144.8740 C   0  0  1  0  0  3  0  0  0  0  0  0
  190.1840  172.6630  142.0880 C   0  0  2  0  0  3  0  0  0  0  0  0
  189.8150  171.7050  143.2010 C   0  0  0  0  0  2  0  0  0  0  0  0
  190.2150  174.0510  142.7030 C   0  0  0  0  0  2  0  0  0  0  0  0
  190.3140  172.3600  144.4660 C   0  0  0  0  0  2  0  0  0  0  0  0
  190.2210  173.8570  144.2100 C   0  0  1  0  0  3  0  0  0  0  0  0
  188.0280  173.0290  141.1100 O   0  0  0  0  0  0  0  0  0  0  0  0
  189.2020  172.5920  140.9660 C   0  0  0  0  0  0  0  0  0  0  0  0
  189.5960  172.0290  139.7210 N   0  0  0  0  0  1  0  0  0  0  0  0
  190.7910  174.9800  147.1680 O   0  0  0  0  0  0  0  0  0  0  0  0
  190.8110  175.4730  146.0080 C   0  0  0  0  0  0  0  0  0  0  0  0
  190.3620  176.7750  145.7770 O   0  0  0  0  0  0  0  0  0  0  0  0
  189.9430  177.2240  144.4920 C   0  0  2  0  0  3  0  0  0  0  0  0
  190.2850  178.5700  144.3380 O   0  0  0  0  0  1  0  0  0  0  0  0
  186.1160  176.7550  145.2680 C   0  0  2  0  0  3  0  0  0  0  0  0
  187.5670  177.1680  145.5370 C   0  0  0  0  0  2  0  0  0  0  0  0
  187.9340  177.0290  143.0780 C   0  0  0  0  0  3  0  0  0  0  0  0
  185.6260  177.4150  143.9890 C   0  0  0  0  0  2  0  0  0  0  0  0
  188.4590  177.0410  144.3200 C   0  0  0  0  0  0  0  0  0  0  0  0
  186.4580  176.8970  142.8200 C   0  0  1  0  0  3  0  0  0  0  0  0
  184.9080  178.0040  141.3700 O   0  0  0  0  0  1  0  0  0  0  0  0
  187.0280  177.7290  140.5440 O   0  0  0  0  0  0  0  0  0  0  0  0
  186.0790  177.5720  141.5450 C   0  0  0  0  0  0  0  0  0  0  0  0
  184.4980  178.4620  146.0960 C   0  0  0  0  0  1  0  0  0  0  0  0
  185.2280  177.1740  146.4270 C   0  0  0  0  0  2  0  0  0  0  0  0
  192.5220  173.7720  145.3140 C   0  0  0  0  0  2  0  0  0  0  0  0
  194.9770  173.5860  145.3780 C   0  0  0  0  0  1  0  0  0  0  0  0
  193.8020  173.9670  144.4890 C   0  0  1  0  0  0  0  0  0  0  0  0
  193.7740  173.0840  143.2290 C   0  0  0  0  0  2  0  0  0  0  0  0
  196.3420  172.3600  142.2440 O   0  0  0  0  0  0  0  0  0  0  0  0
  195.7340  173.2830  141.6400 C   0  0  0  0  0  0  0  0  0  0  0  0
  194.7680  175.6040  140.0950 N   0  0  0  0  0  2  0  0  0  0  0  0
  196.3450  173.8750  140.4870 N   0  0  0  0  0  2  0  0  0  0  0  0
  195.8370  174.9750  139.7230 C   0  0  0  0  0  0  0  0  0  0  0  0
  194.4520  173.7160  142.1030 N   0  0  0  0  0  2  0  0  0  0  0  0
  196.5180  175.3610  138.5660 O   0  0  0  0  0  0  0  0  0  0  0  0
  197.9350  175.4490  138.5110 C   0  0  0  0  0  1  0  0  0  0  0  0
  193.9380  175.4480  144.1060 C   0  0  0  0  0  2  0  0  0  0  0  0
  195.0820  176.1680  144.8110 C   0  0  1  0  0  3  0  0  0  0  0  0
  195.9540  176.7060  143.8650 O   0  0  0  0  0  1  0  0  0  0  0  0
  194.0730  177.0160  146.8270 N   0  0  0  0  0  2  0  0  0  0  0  0
  194.5220  177.2640  145.6530 C   0  0  0  0  0  3  0  0  0  0  0  0
  1 26  1  1  0  0  0
  1 11  1  0  0  0  0
  2  8  1  6  0  0  0
  2  4  1  0  0  0  0
  2  3  1  0  0  0  0
  3  5  1  0  0  0  0
  4  6  1  0  0  0  0
  6  5  1  0  0  0  0
  6  1  1  1  0  0  0
  8  7  2  0  0  0  0
  9  8  1  0  0  0  0
 11 10  2  0  0  0  0
 12 11  1  0  0  0  0
 13 14  1  1  0  0  0
 13 12  1  0  0  0  0
 15 16  1  0  0  0  0
 15 25  1  1  0  0  0
 17 19  2  0  0  0  0
 18 15  1  0  0  0  0
 19 13  1  0  0  0  0
 19 16  1  0  0  0  0
 20 23  1  6  0  0  0
 20 17  1  0  0  0  0
 20 18  1  0  0  0  0
 21 23  1  0  0  0  0
 22 23  2  0  0  0  0
 24 25  1  0  0  0  0
 28 26  1  0  0  0  0
 28 27  1  1  0  0  0
 29 28  1  0  0  0  0
 31 35  1  0  0  0  0
 31 30  2  0  0  0  0
 33 31  1  0  0  0  0
 34 32  2  0  0  0  0
 34 33  1  0  0  0  0
 35 29  1  0  0  0  0
 36 34  1  0  0  0  0
 37 36  1  0  0  0  0
 38 28  1  0  0  0  0
 38 39  1  0  0  0  0
 39 40  1  6  0  0  0
 39 42  1  0  0  0  0
 42 41  2  0  0  0  0
M  END
>  <MODEL>
6

>  <REMARK>
 VINA RESULT:      -6.5      1.603      2.289
  Name = 
  16 active torsions:
  status: ('A' for Active; 'I' for Inactive)
    1  A    between atoms: O_2  and  C_18
    2  A    between atoms: C_3  and  C_4
    3  A    between atoms: C_3  and  C_42
    4  A    between atoms: C_4  and  C_9
    5  A    between atoms: C_5  and  C_31
    6  A    between atoms: C_9  and  C_20
    7  A    between atoms: C_9  and  C_21
    8  A    between atoms: C_10  and  C_20
    9  A    between atoms: C_10  and  C_40
   10  A    between atoms: C_10  and  C_41
   11  A    between atoms: O_12  and  C_28
   12  A    between atoms: O_12  and  C_40
   13  A    between atoms: C_21  and  N_24
   14  A    between atoms: C_23  and  C_25
   15  A    between atoms: C_28  and  C_33
   16  A    between atoms: C_37  and  C_38
                            x       y       z     vdW  Elec       q    Type
                         _______ _______ _______ _____ _____    ______ ____

>  <TORSDO>
F 16

$$$$
=
 OpenBabel11062419393D

 42 43  0  0  1  0  0  0  0  0999 V2000
  188.1280  175.8550  142.5010 C   0  0  1  0  0  3  0  0  0  0  0  0
  186.4040  178.1140  144.7420 C   0  0  2  0  0  3  0  0  0  0  0  0
  185.2860  177.9190  143.7390 C   0  0  0  0  0  2  0  0  0  0  0  0
  187.2920  176.8860  144.6450 C   0  0  0  0  0  2  0  0  0  0  0  0
  185.8730  177.0420  142.6590 C   0  0  0  0  0  2  0  0  0  0  0  0
  186.9010  176.1680  143.3640 C   0  0  1  0  0  3  0  0  0  0  0  0
  184.6730  178.6450  146.3100 O   0  0  0  0  0  0  0  0  0  0  0  0
  185.8660  178.2840  146.1230 C   0  0  0  0  0  0  0  0  0  0  0  0
  186.7080  178.0330  147.2420 N   0  0  0  0  0  1  0  0  0  0  0  0
  188.5300  178.0860  141.7700 O   0  0  0  0  0  0  0  0  0  0  0  0
  188.9900  177.0680  142.3540 C   0  0  0  0  0  0  0  0  0  0  0  0
  190.2830  177.0690  142.8810 O   0  0  0  0  0  0  0  0  0  0  0  0
  190.7000  177.9890  143.8850 C   0  0  2  0  0  3  0  0  0  0  0  0
  191.5630  178.9320  143.3200 O   0  0  0  0  0  1  0  0  0  0  0  0
  191.3230  175.9530  147.1920 C   0  0  2  0  0  3  0  0  0  0  0  0
  190.5400  176.4570  145.9750 C   0  0  0  0  0  2  0  0  0  0  0  0
  192.7270  177.1480  145.0070 C   0  0  0  0  0  3  0  0  0  0  0  0
  192.6320  175.3280  146.7350 C   0  0  0  0  0  2  0  0  0  0  0  0
  191.3840  177.2700  145.0170 C   0  0  0  0  0  0  0  0  0  0  0  0
  193.4850  176.4070  146.0750 C   0  0  1  0  0  3  0  0  0  0  0  0
  195.3460  174.9030  146.1290 O   0  0  0  0  0  1  0  0  0  0  0  0
  195.2740  176.3390  144.3450 O   0  0  0  0  0  0  0  0  0  0  0  0
  194.7500  175.8370  145.5290 C   0  0  0  0  0  0  0  0  0  0  0  0
  189.1800  174.6790  147.2560 C   0  0  0  0  0  1  0  0  0  0  0  0
  190.5070  174.9210  147.9510 C   0  0  0  0  0  2  0  0  0  0  0  0
  188.9250  174.6490  143.0250 C   0  0  0  0  0  2  0  0  0  0  0  0
  187.4500  173.0580  141.8610 C   0  0  0  0  0  1  0  0  0  0  0  0
  188.9070  173.4290  142.0940 C   0  0  1  0  0  0  0  0  0  0  0  0
  189.5970  173.7560  140.7590 C   0  0  0  0  0  2  0  0  0  0  0  0
  191.7710  172.1510  139.8680 O   0  0  0  0  0  0  0  0  0  0  0  0
  192.0550  173.2380  140.4380 C   0  0  0  0  0  0  0  0  0  0  0  0
  193.1500  175.5580  141.8960 N   0  0  0  0  0  2  0  0  0  0  0  0
  193.4310  173.6140  140.5650 N   0  0  0  0  0  2  0  0  0  0  0  0
  193.9410  174.7710  141.2400 C   0  0  0  0  0  0  0  0  0  0  0  0
  191.0090  174.0770  140.9370 N   0  0  0  0  0  2  0  0  0  0  0  0
  195.3120  175.0330  141.1810 O   0  0  0  0  0  0  0  0  0  0  0  0
  196.2360  174.1260  140.5980 C   0  0  0  0  0  1  0  0  0  0  0  0
  189.6070  172.2510  142.7880 C   0  0  0  0  0  2  0  0  0  0  0  0
  190.1330  172.5750  144.1820 C   0  0  1  0  0  3  0  0  0  0  0  0
  189.3640  171.9160  145.1410 O   0  0  0  0  0  1  0  0  0  0  0  0
  192.0120  171.2450  143.4750 N   0  0  0  0  0  2  0  0  0  0  0  0
  191.5510  172.1250  144.2840 C   0  0  0  0  0  3  0  0  0  0  0  0
  1 26  1  1  0  0  0
  2  8  1  1  0  0  0
  3  2  1  0  0  0  0
  4  2  1  0  0  0  0
  5  6  1  0  0  0  0
  5  3  1  0  0  0  0
  6  1  1  6  0  0  0
  6  4  1  0  0  0  0
  8  7  2  0  0  0  0
  8  9  1  0  0  0  0
 10 11  2  0  0  0  0
 11  1  1  0  0  0  0
 11 12  1  0  0  0  0
 12 13  1  0  0  0  0
 13 14  1  6  0  0  0
 13 19  1  0  0  0  0
 15 25  1  6  0  0  0
 16 15  1  0  0  0  0
 17 19  2  0  0  0  0
 17 20  1  0  0  0  0
 18 15  1  0  0  0  0
 19 16  1  0  0  0  0
 20 23  1  6  0  0  0
 20 18  1  0  0  0  0
 22 23  2  0  0  0  0
 23 21  1  0  0  0  0
 24 25  1  0  0  0  0
 28 27  1  6  0  0  0
 28 38  1  0  0  0  0
 28 26  1  0  0  0  0
 29 35  1  0  0  0  0
 29 28  1  0  0  0  0
 30 31  2  0  0  0  0
 31 33  1  0  0  0  0
 31 35  1  0  0  0  0
 33 34  1  0  0  0  0
 34 32  2  0  0  0  0
 36 34  1  0  0  0  0
 37 36  1  0  0  0  0
 38 39  1  0  0  0  0
 39 42  1  0  0  0  0
 39 40  1  1  0  0  0
 41 42  2  0  0  0  0
M  END
>  <MODEL>
7

>  <REMARK>
 VINA RESULT:      -6.5      2.606      6.032
  Name = 
  16 active torsions:
  status: ('A' for Active; 'I' for Inactive)
    1  A    between atoms: O_2  and  C_18
    2  A    between atoms: C_3  and  C_4
    3  A    between atoms: C_3  and  C_42
    4  A    between atoms: C_4  and  C_9
    5  A    between atoms: C_5  and  C_31
    6  A    between atoms: C_9  and  C_20
    7  A    between atoms: C_9  and  C_21
    8  A    between atoms: C_10  and  C_20
    9  A    between atoms: C_10  and  C_40
   10  A    between atoms: C_10  and  C_41
   11  A    between atoms: O_12  and  C_28
   12  A    between atoms: O_12  and  C_40
   13  A    between atoms: C_21  and  N_24
   14  A    between atoms: C_23  and  C_25
   15  A    between atoms: C_28  and  C_33
   16  A    between atoms: C_37  and  C_38
                            x       y       z     vdW  Elec       q    Type
                         _______ _______ _______ _____ _____    ______ ____

>  <TORSDO>
F 16

$$$$
=
 OpenBabel11062419393D

 42 43  0  0  1  0  0  0  0  0999 V2000
  192.0920  174.3110  145.4800 C   0  0  1  0  0  3  0  0  0  0  0  0
  194.9700  172.2610  144.7000 C   0  0  2  0  0  3  0  0  0  0  0  0
  195.6030  173.6140  144.4510 C   0  0  0  0  0  2  0  0  0  0  0  0
  193.8240  172.4890  145.6710 C   0  0  0  0  0  2  0  0  0  0  0  0
  194.4900  174.6130  144.6580 C   0  0  0  0  0  2  0  0  0  0  0  0
  193.5730  173.9870  145.7000 C   0  0  1  0  0  3  0  0  0  0  0  0
  196.9440  171.6970  145.9340 O   0  0  0  0  0  0  0  0  0  0  0  0
  195.9620  171.2930  145.2530 C   0  0  0  0  0  0  0  0  0  0  0  0
  195.7970  169.9010  145.0130 N   0  0  0  0  0  1  0  0  0  0  0  0
  192.3940  175.7970  147.3160 O   0  0  0  0  0  0  0  0  0  0  0  0
  191.6710  175.4580  146.3410 C   0  0  0  0  0  0  0  0  0  0  0  0
  190.4970  176.1540  146.0450 O   0  0  0  0  0  0  0  0  0  0  0  0
  189.3110  176.0200  146.8220 C   0  0  2  0  0  3  0  0  0  0  0  0
  189.2210  174.7130  147.3070 O   0  0  0  0  0  1  0  0  0  0  0  0
  185.6130  176.8760  145.7920 C   0  0  2  0  0  3  0  0  0  0  0  0
  186.8260  176.7660  146.7210 C   0  0  0  0  0  2  0  0  0  0  0  0
  188.2230  176.5380  144.6720 C   0  0  0  0  0  3  0  0  0  0  0  0
  185.9870  177.6770  144.5550 C   0  0  0  0  0  2  0  0  0  0  0  0
  188.0940  176.3560  146.0020 C   0  0  0  0  0  0  0  0  0  0  0  0
  187.0660  176.9200  143.7880 C   0  0  1  0  0  3  0  0  0  0  0  0
  188.7620  177.9480  142.4470 O   0  0  0  0  0  1  0  0  0  0  0  0
  186.6160  178.1450  141.6680 O   0  0  0  0  0  0  0  0  0  0  0  0
  187.5370  177.6970  142.6060 C   0  0  0  0  0  0  0  0  0  0  0  0
  184.9660  178.7460  147.3080 C   0  0  0  0  0  1  0  0  0  0  0  0
  184.4620  177.5590  146.5090 C   0  0  0  0  0  2  0  0  0  0  0  0
  191.7550  174.5550  144.0000 C   0  0  0  0  0  2  0  0  0  0  0  0
  190.1000  172.8070  144.5190 C   0  0  0  0  0  1  0  0  0  0  0  0
  190.8360  173.4950  143.3780 C   0  0  1  0  0  0  0  0  0  0  0  0
  189.8340  174.1470  142.4100 C   0  0  0  0  0  2  0  0  0  0  0  0
  188.0970  173.0350  140.4510 O   0  0  0  0  0  0  0  0  0  0  0  0
  189.2510  173.3680  140.0720 C   0  0  0  0  0  0  0  0  0  0  0  0
  191.8950  173.7950  138.8330 N   0  0  0  0  0  2  0  0  0  0  0  0
  189.6000  173.2060  138.6930 N   0  0  0  0  0  2  0  0  0  0  0  0
  190.8800  173.4620  138.1010 C   0  0  0  0  0  0  0  0  0  0  0  0
  190.1850  173.9040  141.0150 N   0  0  0  0  0  2  0  0  0  0  0  0
  191.0150  173.3430  136.7160 O   0  0  0  0  0  0  0  0  0  0  0  0
  190.3860  174.2370  135.8100 C   0  0  0  0  0  1  0  0  0  0  0  0
  191.6890  172.4490  142.6460 C   0  0  0  0  0  2  0  0  0  0  0  0
  191.2280  171.0110  142.8600 C   0  0  1  0  0  3  0  0  0  0  0  0
  190.5530  170.5600  141.7250 O   0  0  0  0  0  1  0  0  0  0  0  0
  193.2580  169.9170  142.1670 N   0  0  0  0  0  2  0  0  0  0  0  0
  192.4190  170.1490  143.1070 C   0  0  0  0  0  3  0  0  0  0  0  0
  1 26  1  6  0  0  0
  1 11  1  0  0  0  0
  2  8  1  1  0  0  0
  2  4  1  0  0  0  0
  3  5  1  0  0  0  0
  3  2  1  0  0  0  0
  4  6  1  0  0  0  0
  5  6  1  0  0  0  0
  6  1  1  6  0  0  0
  8  7  2  0  0  0  0
  9  8  1  0  0  0  0
 11 10  2  0  0  0  0
 12 11  1  0  0  0  0
 12 13  1  0  0  0  0
 13 14  1  6  0  0  0
 15 25  1  1  0  0  0
 15 16  1  0  0  0  0
 17 19  2  0  0  0  0
 18 15  1  0  0  0  0
 19 16  1  0  0  0  0
 19 13  1  0  0  0  0
 20 23  1  6  0  0  0
 20 18  1  0  0  0  0
 20 17  1  0  0  0  0
 21 23  1  0  0  0  0
 22 23  2  0  0  0  0
 25 24  1  0  0  0  0
 28 26  1  0  0  0  0
 28 27  1  1  0  0  0
 29 28  1  0  0  0  0
 31 30  2  0  0  0  0
 31 35  1  0  0  0  0
 33 31  1  0  0  0  0
 34 33  1  0  0  0  0
 34 32  2  0  0  0  0
 35 29  1  0  0  0  0
 36 34  1  0  0  0  0
 37 36  1  0  0  0  0
 38 39  1  0  0  0  0
 38 28  1  0  0  0  0
 39 40  1  6  0  0  0
 39 42  1  0  0  0  0
 41 42  2  0  0  0  0
M  END
>  <MODEL>
8

>  <REMARK>
 VINA RESULT:      -6.3      2.548      4.989
  Name = 
  16 active torsions:
  status: ('A' for Active; 'I' for Inactive)
    1  A    between atoms: O_2  and  C_18
    2  A    between atoms: C_3  and  C_4
    3  A    between atoms: C_3  and  C_42
    4  A    between atoms: C_4  and  C_9
    5  A    between atoms: C_5  and  C_31
    6  A    between atoms: C_9  and  C_20
    7  A    between atoms: C_9  and  C_21
    8  A    between atoms: C_10  and  C_20
    9  A    between atoms: C_10  and  C_40
   10  A    between atoms: C_10  and  C_41
   11  A    between atoms: O_12  and  C_28
   12  A    between atoms: O_12  and  C_40
   13  A    between atoms: C_21  and  N_24
   14  A    between atoms: C_23  and  C_25
   15  A    between atoms: C_28  and  C_33
   16  A    between atoms: C_37  and  C_38
                            x       y       z     vdW  Elec       q    Type
                         _______ _______ _______ _____ _____    ______ ____

>  <TORSDO>
F 16

$$$$
=
 OpenBabel11062419393D

 42 43  0  0  1  0  0  0  0  0999 V2000
  192.1290  174.9500  145.8010 C   0  0  1  0  0  3  0  0  0  0  0  0
  195.5280  174.0220  144.9770 C   0  0  2  0  0  3  0  0  0  0  0  0
  195.7490  175.5120  145.1290 C   0  0  0  0  0  2  0  0  0  0  0  0
  194.3050  173.6770  145.8100 C   0  0  0  0  0  2  0  0  0  0  0  0
  194.3790  176.0870  145.4030 C   0  0  0  0  0  2  0  0  0  0  0  0
  193.6230  174.9930  146.1420 C   0  0  1  0  0  3  0  0  0  0  0  0
  197.2870  173.5190  146.5230 O   0  0  0  0  0  0  0  0  0  0  0  0
  196.7230  173.2500  145.4280 C   0  0  0  0  0  0  0  0  0  0  0  0
  197.2290  172.1980  144.6150 N   0  0  0  0  0  1  0  0  0  0  0  0
  191.7420  175.5680  148.0690 O   0  0  0  0  0  0  0  0  0  0  0  0
  191.3250  175.6030  146.8790 C   0  0  0  0  0  0  0  0  0  0  0  0
  190.1360  176.2610  146.5570 O   0  0  0  0  0  0  0  0  0  0  0  0
  188.8790  175.8820  147.1090 C   0  0  2  0  0  3  0  0  0  0  0  0
  188.8420  174.4940  147.2690 O   0  0  0  0  0  1  0  0  0  0  0  0
  185.4120  177.2790  145.8840 C   0  0  2  0  0  3  0  0  0  0  0  0
  186.5810  177.0630  146.8510 C   0  0  0  0  0  2  0  0  0  0  0  0
  187.9120  176.3160  144.8840 C   0  0  0  0  0  3  0  0  0  0  0  0
  185.9340  177.8310  144.5670 C   0  0  0  0  0  2  0  0  0  0  0  0
  187.7490  176.3330  146.2220 C   0  0  0  0  0  0  0  0  0  0  0  0
  186.8500  176.7920  143.9290 C   0  0  1  0  0  3  0  0  0  0  0  0
  188.5220  177.9890  142.7040 O   0  0  0  0  0  1  0  0  0  0  0  0
  186.8580  177.0340  141.4510 O   0  0  0  0  0  0  0  0  0  0  0  0
  187.4620  177.3090  142.6710 C   0  0  0  0  0  0  0  0  0  0  0  0
  183.7000  179.0210  145.3810 C   0  0  0  0  0  1  0  0  0  0  0  0
  184.4100  178.2530  146.4800 C   0  0  0  0  0  2  0  0  0  0  0  0
  191.8220  175.5490  144.4190 C   0  0  0  0  0  2  0  0  0  0  0  0
  191.0470  173.2420  144.0470 C   0  0  0  0  0  1  0  0  0  0  0  0
  191.5020  174.5090  143.3370 C   0  0  1  0  0  0  0  0  0  0  0  0
  190.3960  175.0250  142.4000 C   0  0  0  0  0  2  0  0  0  0  0  0
  187.8950  173.8390  141.7450 O   0  0  0  0  0  0  0  0  0  0  0  0
  188.8690  173.5810  140.9890 C   0  0  0  0  0  0  0  0  0  0  0  0
  190.9040  172.5500  139.1160 N   0  0  0  0  0  2  0  0  0  0  0  0
  188.6530  172.7520  139.8410 N   0  0  0  0  0  2  0  0  0  0  0  0
  189.6500  172.2980  138.9170 C   0  0  0  0  0  0  0  0  0  0  0  0
  190.1620  174.1200  141.2800 N   0  0  0  0  0  2  0  0  0  0  0  0
  189.2440  171.5720  137.7940 O   0  0  0  0  0  0  0  0  0  0  0  0
  189.7370  171.8470  136.4910 C   0  0  0  0  0  1  0  0  0  0  0  0
  192.7770  174.1930  142.5420 C   0  0  0  0  0  2  0  0  0  0  0  0
  193.1750  175.2820  141.5510 C   0  0  1  0  0  3  0  0  0  0  0  0
  194.1850  176.0730  142.0990 O   0  0  0  0  0  1  0  0  0  0  0  0
  194.6410  175.1610  139.6430 N   0  0  0  0  0  2  0  0  0  0  0  0
  193.6690  174.6420  140.2980 C   0  0  0  0  0  3  0  0  0  0  0  0
  1 26  1  6  0  0  0
  1 11  1  0  0  0  0
  2  3  1  0  0  0  0
  2  8  1  1  0  0  0
  2  4  1  0  0  0  0
  3  5  1  0  0  0  0
  4  6  1  0  0  0  0
  5  6  1  0  0  0  0
  6  1  1  6  0  0  0
  8  7  2  0  0  0  0
  9  8  1  0  0  0  0
 11 10  2  0  0  0  0
 12 11  1  0  0  0  0
 12 13  1  0  0  0  0
 13 14  1  6  0  0  0
 15 25  1  1  0  0  0
 15 16  1  0  0  0  0
 17 19  2  0  0  0  0
 18 15  1  0  0  0  0
 19 16  1  0  0  0  0
 19 13  1  0  0  0  0
 20 23  1  6  0  0  0
 20 18  1  0  0  0  0
 20 17  1  0  0  0  0
 22 23  2  0  0  0  0
 23 21  1  0  0  0  0
 24 25  1  0  0  0  0
 28 27  1  1  0  0  0
 28 26  1  0  0  0  0
 29 28  1  0  0  0  0
 31 35  1  0  0  0  0
 31 30  2  0  0  0  0
 33 31  1  0  0  0  0
 34 32  2  0  0  0  0
 34 33  1  0  0  0  0
 35 29  1  0  0  0  0
 36 34  1  0  0  0  0
 37 36  1  0  0  0  0
 38 28  1  0  0  0  0
 39 40  1  1  0  0  0
 39 38  1  0  0  0  0
 41 42  2  0  0  0  0
 42 39  1  0  0  0  0
M  END
>  <MODEL>
9

>  <REMARK>
 VINA RESULT:      -6.3      1.808      5.208
  Name = 
  16 active torsions:
  status: ('A' for Active; 'I' for Inactive)
    1  A    between atoms: O_2  and  C_18
    2  A    between atoms: C_3  and  C_4
    3  A    between atoms: C_3  and  C_42
    4  A    between atoms: C_4  and  C_9
    5  A    between atoms: C_5  and  C_31
    6  A    between atoms: C_9  and  C_20
    7  A    between atoms: C_9  and  C_21
    8  A    between atoms: C_10  and  C_20
    9  A    between atoms: C_10  and  C_40
   10  A    between atoms: C_10  and  C_41
   11  A    between atoms: O_12  and  C_28
   12  A    between atoms: O_12  and  C_40
   13  A    between atoms: C_21  and  N_24
   14  A    between atoms: C_23  and  C_25
   15  A    between atoms: C_28  and  C_33
   16  A    between atoms: C_37  and  C_38
                            x       y       z     vdW  Elec       q    Type
                         _______ _______ _______ _____ _____    ______ ____

>  <TORSDO>
F 16

$$$$
