=
 OpenBabel11062422383D

 44 48  0  0  1  0  0  0  0  0999 V2000
  192.6770  175.0710  143.2210 C   0  0  2  0  0  3  0  0  0  0  0  0
  193.4960  176.2440  143.7850 C   0  0  0  0  0  2  0  0  0  0  0  0
  192.7010  177.2230  144.6650 C   0  0  0  0  0  2  0  0  0  0  0  0
  190.9270  173.8890  140.9520 C   0  0  2  0  0  3  0  0  0  0  0  0
  192.7750  174.3070  145.6650 C   0  0  0  0  0  2  0  0  0  0  0  0
  191.8140  172.6310  141.2510 C   0  0  2  0  0  0  0  0  0  0  0  0
  190.2790  172.0440  143.0890 O   0  0  0  0  0  1  0  0  0  0  0  0
  191.6190  172.0680  142.6840 C   0  0  2  0  0  3  0  0  0  0  0  0
  191.5850  176.5750  145.4900 C   0  0  0  0  0  2  0  0  0  0  0  0
  192.5490  172.6090  143.7870 C   0  0  1  0  0  3  0  0  0  0  0  0
  191.5620  175.5700  142.3010 C   0  0  0  0  0  2  0  0  0  0  0  0
  192.0610  175.4470  146.4070 C   0  0  1  0  0  3  0  0  0  0  0  0
  190.5830  174.5870  142.1200 O   0  0  0  0  0  0  0  0  0  0  0  0
  193.1500  173.0180  141.1060 O   0  0  0  0  0  1  0  0  0  0  0  0
  192.1940  174.0310  144.2660 C   0  0  2  0  0  3  0  0  0  0  0  0
  190.9840  169.6510  139.3550 C   0  0  0  0  0  0  0  0  0  0  0  0
  192.0780  171.4680  139.0210 N   0  0  0  0  0  0  0  0  0  0  0  0
  191.5610  171.5080  140.2680 C   0  0  0  0  0  0  0  0  0  0  0  0
  190.8560  170.3440  140.5400 C   0  0  0  0  0  2  0  0  0  0  0  0
  191.7180  170.3280  138.4580 N   0  0  0  0  0  0  0  0  0  0  0  0
  190.4340  168.3640  139.1040 N   0  0  0  0  0  1  0  0  0  0  0  0
  188.5500  174.3670  140.4930 O   0  0  0  0  0  0  0  0  0  0  0  0
  189.6830  173.6480  140.0760 C   0  0  1  0  0  0  0  0  0  0  0  0
  187.7080  172.4400  139.6060 F   0  0  0  0  0  0  0  0  0  0  0  0
  189.8280  173.6980  138.6880 O   0  0  0  0  0  1  0  0  0  0  0  0
  188.4900  172.9600  140.6220 C   0  0  2  0  0  3  0  0  0  0  0  0
  192.5500  171.7020  144.8540 O   0  0  0  0  0  0  0  0  0  0  0  0
  193.5780  170.8030  144.5620 C   0  0  0  0  0  2  0  0  0  0  0  0
  194.5970  170.8410  145.6440 C   0  0  0  0  0  0  0  0  0  0  0  0
  195.3860  171.8170  145.7310 O   0  0  0  0  0  0  0  0  0  0  0  0
  194.7050  169.7790  146.5330 O   0  0  0  0  0  1  0  0  0  0  0  0
  190.8670  174.9020  147.1710 C   0  0  0  0  0  2  0  0  0  0  0  0
  189.6440  174.8420  146.2690 C   0  0  0  0  0  2  0  0  0  0  0  0
  188.5050  175.6520  146.8660 C   0  0  0  0  0  2  0  0  0  0  0  0
  187.5090  177.9080  141.1550 C   0  0  0  0  0  1  0  0  0  0  0  0
  188.2530  176.0400  144.4440 C   0  0  0  0  0  2  0  0  0  0  0  0
  186.3230  176.6100  145.9870 C   0  0  2  0  0  3  0  0  0  0  0  0
  187.8600  176.5630  145.8260 C   0  0  1  0  0  3  0  0  0  0  0  0
  188.1790  177.2130  142.2960 C   0  0  0  0  0  3  0  0  0  0  0  0
  185.6760  177.4430  144.8730 C   0  0  0  0  0  2  0  0  0  0  0  0
  187.5150  176.7720  143.3680 C   0  0  0  0  0  0  0  0  0  0  0  0
  186.0250  176.8900  143.4960 C   0  0  0  0  0  2  0  0  0  0  0  0
  185.8960  177.1400  147.3270 C   0  0  0  0  0  3  0  0  0  0  0  0
  185.7800  178.4480  147.5730 C   0  0  0  0  0  2  0  0  0  0  0  0
  1 11  1  1  0  0  0
  1  2  1  0  0  0  0
  1 15  1  0  0  0  0
  2  3  1  0  0  0  0
  3  9  1  0  0  0  0
  4  6  1  0  0  0  0
  4 13  1  1  0  0  0
  5 12  1  0  0  0  0
  6 14  1  6  0  0  0
  6  8  1  0  0  0  0
  8  7  1  1  0  0  0
  8 10  1  0  0  0  0
  9 12  1  0  0  0  0
 10 15  1  0  0  0  0
 10 27  1  1  0  0  0
 12 32  1  6  0  0  0
 13 11  1  0  0  0  0
 15  5  1  1  0  0  0
 16 19  1  0  0  0  0
 17 18  2  0  0  0  0
 18 19  1  0  0  0  0
 18  6  1  0  0  0  0
 20 17  1  0  0  0  0
 20 16  2  0  0  0  0
 21 16  1  0  0  0  0
 22 26  1  0  0  0  0
 23 25  1  6  0  0  0
 23 22  1  0  0  0  0
 23 26  1  0  0  0  0
 23  4  1  0  0  0  0
 26 24  1  6  0  0  0
 28 27  1  0  0  0  0
 28 29  1  0  0  0  0
 29 30  2  0  0  0  0
 29 31  1  0  0  0  0
 33 34  1  0  0  0  0
 33 32  1  0  0  0  0
 35 39  1  0  0  0  0
 36 38  1  0  0  0  0
 37 43  1  1  0  0  0
 38 37  1  0  0  0  0
 38 34  1  1  0  0  0
 39 41  2  0  0  0  0
 40 37  1  0  0  0  0
 41 42  1  0  0  0  0
 41 36  1  0  0  0  0
 42 40  1  0  0  0  0
 43 44  2  0  0  0  0
M  END
>  <MODEL>
1

>  <REMARK>
 VINA RESULT:      -7.7      0.000      0.000
  Name = 
  10 active torsions:
  status: ('A' for Active; 'I' for Inactive)
    1  A    between atoms: O_9  and  C_31
    2  A    between atoms: O_9  and  C_43
    3  A    between atoms: C_10  and  C_16
    4  A    between atoms: C_11  and  C_12
    5  A    between atoms: C_13  and  C_26
    6  A    between atoms: C_13  and  C_27
    7  A    between atoms: C_14  and  C_20
    8  A    between atoms: C_19  and  C_26
    9  A    between atoms: C_25  and  C_43
   10  A    between atoms: C_27  and  C_34
                            x       y       z     vdW  Elec       q    Type
                         _______ _______ _______ _____ _____    ______ ____

>  <TORSDO>
F 10

$$$$
=
 OpenBabel11062422383D

 44 48  0  0  1  0  0  0  0  0999 V2000
  190.1880  177.2270  143.0220 C   0  0  2  0  0  3  0  0  0  0  0  0
  191.7140  177.4160  143.0600 C   0  0  0  0  0  2  0  0  0  0  0  0
  192.3980  176.9010  144.3370 C   0  0  0  0  0  2  0  0  0  0  0  0
  187.3500  178.3280  143.6050 C   0  0  2  0  0  3  0  0  0  0  0  0
  190.8690  174.7760  142.7080 C   0  0  0  0  0  2  0  0  0  0  0  0
  187.0810  177.7090  142.1910 C   0  0  2  0  0  0  0  0  0  0  0  0
  186.7310  175.5190  143.2660 O   0  0  0  0  0  1  0  0  0  0  0  0
  187.2650  176.1690  142.1480 C   0  0  2  0  0  3  0  0  0  0  0  0
  191.7440  175.6610  144.9540 C   0  0  0  0  0  2  0  0  0  0  0  0
  188.6640  175.6350  141.7810 C   0  0  1  0  0  3  0  0  0  0  0  0
  189.5080  178.0120  144.1450 C   0  0  0  0  0  2  0  0  0  0  0  0
  191.6430  174.4690  143.9990 C   0  0  1  0  0  3  0  0  0  0  0  0
  188.2140  177.5350  144.3780 O   0  0  0  0  0  0  0  0  0  0  0  0
  187.9930  178.2880  141.3010 O   0  0  0  0  0  1  0  0  0  0  0  0
  189.7020  175.7580  142.9150 C   0  0  2  0  0  3  0  0  0  0  0  0
  183.5630  178.1250  141.4070 C   0  0  0  0  0  0  0  0  0  0  0  0
  185.4430  178.6430  140.5060 N   0  0  0  0  0  0  0  0  0  0  0  0
  185.6920  178.0290  141.6820 C   0  0  0  0  0  0  0  0  0  0  0  0
  184.5050  177.6580  142.2990 C   0  0  0  0  0  2  0  0  0  0  0  0
  184.1330  178.7070  140.3400 N   0  0  0  0  0  0  0  0  0  0  0  0
  182.1570  177.9950  141.5680 N   0  0  0  0  0  1  0  0  0  0  0  0
  186.2820  178.6300  145.8090 O   0  0  0  0  0  0  0  0  0  0  0  0
  186.1040  178.7250  144.4180 C   0  0  1  0  0  0  0  0  0  0  0  0
  184.0770  178.1430  145.4820 F   0  0  0  0  0  0  0  0  0  0  0  0
  185.4350  179.9040  144.0770 O   0  0  0  0  0  1  0  0  0  0  0  0
  185.3690  177.7230  145.2230 C   0  0  2  0  0  3  0  0  0  0  0  0
  188.5370  174.3080  141.3530 O   0  0  0  0  0  0  0  0  0  0  0  0
  188.4840  174.3820  139.9600 C   0  0  0  0  0  2  0  0  0  0  0  0
  189.4830  173.4500  139.3720 C   0  0  0  0  0  0  0  0  0  0  0  0
  189.8340  172.4210  140.0070 O   0  0  0  0  0  1  0  0  0  0  0  0
  190.0580  173.7350  138.1400 O   0  0  0  0  0  0  0  0  0  0  0  0
  190.9910  173.3100  144.7320 C   0  0  0  0  0  2  0  0  0  0  0  0
  191.7110  172.0100  144.4150 C   0  0  0  0  0  2  0  0  0  0  0  0
  193.1410  172.2870  143.9800 C   0  0  0  0  0  2  0  0  0  0  0  0
  196.3220  168.6260  147.8750 C   0  0  0  0  0  1  0  0  0  0  0  0
  194.3430  170.4630  145.1240 C   0  0  0  0  0  2  0  0  0  0  0  0
  195.4770  172.7180  144.8790 C   0  0  2  0  0  3  0  0  0  0  0  0
  194.1360  171.9780  145.0940 C   0  0  1  0  0  3  0  0  0  0  0  0
  195.2590  169.0900  146.9320 C   0  0  0  0  0  3  0  0  0  0  0  0
  196.5060  172.3190  145.9450 C   0  0  0  0  0  2  0  0  0  0  0  0
  195.4410  170.0950  146.0710 C   0  0  0  0  0  0  0  0  0  0  0  0
  196.7500  170.8150  145.9400 C   0  0  0  0  0  2  0  0  0  0  0  0
  195.3180  174.2130  144.8640 C   0  0  0  0  0  3  0  0  0  0  0  0
  195.1690  174.9250  145.9840 C   0  0  0  0  0  2  0  0  0  0  0  0
  1  2  1  1  0  0  0
  1 11  1  0  0  0  0
  2  3  1  0  0  0  0
  3  9  1  0  0  0  0
  4 13  1  1  0  0  0
  4 23  1  0  0  0  0
  5 12  1  0  0  0  0
  6 14  1  6  0  0  0
  6  4  1  0  0  0  0
  8  6  1  0  0  0  0
  8  7  1  1  0  0  0
 10 27  1  1  0  0  0
 10  8  1  0  0  0  0
 10 15  1  0  0  0  0
 11 13  1  0  0  0  0
 12 32  1  1  0  0  0
 12  9  1  0  0  0  0
 15  5  1  6  0  0  0
 15  1  1  0  0  0  0
 16 21  1  0  0  0  0
 16 19  1  0  0  0  0
 17 18  2  0  0  0  0
 18  6  1  0  0  0  0
 18 19  1  0  0  0  0
 20 17  1  0  0  0  0
 20 16  2  0  0  0  0
 23 25  1  6  0  0  0
 23 26  1  0  0  0  0
 23 22  1  0  0  0  0
 26 24  1  1  0  0  0
 26 22  1  0  0  0  0
 28 27  1  0  0  0  0
 29 28  1  0  0  0  0
 29 30  1  0  0  0  0
 31 29  2  0  0  0  0
 33 32  1  0  0  0  0
 34 33  1  0  0  0  0
 36 41  1  0  0  0  0
 37 43  1  1  0  0  0
 37 38  1  0  0  0  0
 37 40  1  0  0  0  0
 38 34  1  6  0  0  0
 38 36  1  0  0  0  0
 39 35  1  0  0  0  0
 41 39  2  0  0  0  0
 42 40  1  0  0  0  0
 42 41  1  0  0  0  0
 43 44  2  0  0  0  0
M  END
>  <MODEL>
2

>  <REMARK>
 VINA RESULT:      -7.5      4.135      8.189
  Name = 
  10 active torsions:
  status: ('A' for Active; 'I' for Inactive)
    1  A    between atoms: O_9  and  C_31
    2  A    between atoms: O_9  and  C_43
    3  A    between atoms: C_10  and  C_16
    4  A    between atoms: C_11  and  C_12
    5  A    between atoms: C_13  and  C_26
    6  A    between atoms: C_13  and  C_27
    7  A    between atoms: C_14  and  C_20
    8  A    between atoms: C_19  and  C_26
    9  A    between atoms: C_25  and  C_43
   10  A    between atoms: C_27  and  C_34
                            x       y       z     vdW  Elec       q    Type
                         _______ _______ _______ _____ _____    ______ ____

>  <TORSDO>
F 10

$$$$
=
 OpenBabel11062422383D

 44 48  0  0  1  0  0  0  0  0999 V2000
  192.5830  174.8140  146.1540 C   0  0  2  0  0  3  0  0  0  0  0  0
  191.7450  175.2920  147.3520 C   0  0  0  0  0  2  0  0  0  0  0  0
  190.8980  176.5480  147.0880 C   0  0  0  0  0  2  0  0  0  0  0  0
  195.2470  174.8740  144.5700 C   0  0  2  0  0  3  0  0  0  0  0  0
  190.2730  174.1270  145.2820 C   0  0  0  0  0  2  0  0  0  0  0  0
  194.9600  173.3350  144.5000 C   0  0  2  0  0  0  0  0  0  0  0  0
  193.4990  173.7410  142.5570 O   0  0  0  0  0  1  0  0  0  0  0  0
  193.6640  172.9840  143.7230 C   0  0  2  0  0  3  0  0  0  0  0  0
  190.3630  176.6660  145.6570 C   0  0  0  0  0  2  0  0  0  0  0  0
  192.3590  172.8820  144.5360 C   0  0  1  0  0  3  0  0  0  0  0  0
  193.6100  175.8700  145.7430 C   0  0  0  0  0  2  0  0  0  0  0  0
  189.5260  175.4680  145.2040 C   0  0  1  0  0  3  0  0  0  0  0  0
  194.0760  175.6390  144.4450 O   0  0  0  0  0  0  0  0  0  0  0  0
  194.8260  172.8740  145.8140 O   0  0  0  0  0  1  0  0  0  0  0  0
  191.7730  174.2440  144.9600 C   0  0  2  0  0  3  0  0  0  0  0  0
  197.3560  171.4640  142.5170 C   0  0  0  0  0  0  0  0  0  0  0  0
  197.1700  172.1050  144.5580 N   0  0  0  0  0  0  0  0  0  0  0  0
  196.1050  172.5700  143.8700 C   0  0  0  0  0  0  0  0  0  0  0  0
  196.1700  172.1680  142.5430 C   0  0  0  0  0  3  0  0  0  0  0  0
  197.9410  171.4310  143.7240 N   0  0  0  0  0  2  0  0  0  0  0  0
  197.8960  170.8270  141.3670 N   0  0  0  0  0  1  0  0  0  0  0  0
  196.1610  176.7410  143.2410 O   0  0  0  0  0  0  0  0  0  0  0  0
  196.3440  175.4020  143.6280 C   0  0  1  0  0  0  0  0  0  0  0  0
  197.1780  175.7620  141.4470 F   0  0  0  0  0  0  0  0  0  0  0  0
  197.6790  175.1520  143.9560 O   0  0  0  0  0  1  0  0  0  0  0  0
  196.0340  175.7640  142.2250 C   0  0  2  0  0  3  0  0  0  0  0  0
  191.4300  172.1390  143.7980 O   0  0  0  0  0  0  0  0  0  0  0  0
  192.0030  170.8730  143.6660 C   0  0  0  0  0  2  0  0  0  0  0  0
  191.5370  170.2420  142.4030 C   0  0  0  0  0  0  0  0  0  0  0  0
  190.3680  170.4550  141.9870 O   0  0  0  0  0  1  0  0  0  0  0  0
  192.3770  169.3860  141.7030 O   0  0  0  0  0  0  0  0  0  0  0  0
  189.0520  175.7150  143.7820 C   0  0  0  0  0  2  0  0  0  0  0  0
  189.4470  177.1100  143.3270 C   0  0  0  0  0  2  0  0  0  0  0  0
  188.3620  177.7080  142.4460 C   0  0  0  0  0  2  0  0  0  0  0  0
  184.6090  178.4300  147.3540 C   0  0  0  0  0  1  0  0  0  0  0  0
  187.2790  178.3170  144.5760 C   0  0  0  0  0  2  0  0  0  0  0  0
  186.0050  178.6520  142.4100 C   0  0  2  0  0  3  0  0  0  0  0  0
  187.0220  177.7700  143.1710 C   0  0  1  0  0  3  0  0  0  0  0  0
  185.8430  178.1660  146.5530 C   0  0  0  0  0  3  0  0  0  0  0  0
  184.6960  178.7940  143.1990 C   0  0  0  0  0  2  0  0  0  0  0  0
  185.9920  178.5770  145.2900 C   0  0  0  0  0  0  0  0  0  0  0  0
  184.9470  179.3870  144.5800 C   0  0  0  0  0  2  0  0  0  0  0  0
  185.7080  178.1350  141.0290 C   0  0  0  0  0  3  0  0  0  0  0  0
  184.5140  178.2900  140.4510 C   0  0  0  0  0  2  0  0  0  0  0  0
  1 11  1  6  0  0  0
  1  2  1  0  0  0  0
  3  2  1  0  0  0  0
  4 13  1  6  0  0  0
  6  4  1  0  0  0  0
  6 14  1  1  0  0  0
  8  7  1  6  0  0  0
  8  6  1  0  0  0  0
  8 10  1  0  0  0  0
  9  3  1  0  0  0  0
 10 27  1  6  0  0  0
 10 15  1  0  0  0  0
 12 32  1  6  0  0  0
 12  5  1  0  0  0  0
 12  9  1  0  0  0  0
 13 11  1  0  0  0  0
 15  5  1  1  0  0  0
 15  1  1  0  0  0  0
 16 19  2  0  0  0  0
 16 20  1  0  0  0  0
 18  6  1  0  0  0  0
 18 17  2  0  0  0  0
 19 18  1  0  0  0  0
 20 17  1  0  0  0  0
 21 16  1  0  0  0  0
 22 23  1  0  0  0  0
 23 25  1  1  0  0  0
 23  4  1  0  0  0  0
 26 24  1  6  0  0  0
 26 22  1  0  0  0  0
 26 23  1  0  0  0  0
 28 27  1  0  0  0  0
 29 28  1  0  0  0  0
 30 29  1  0  0  0  0
 31 29  2  0  0  0  0
 33 32  1  0  0  0  0
 34 33  1  0  0  0  0
 36 41  1  0  0  0  0
 37 43  1  6  0  0  0
 37 38  1  0  0  0  0
 37 40  1  0  0  0  0
 38 34  1  6  0  0  0
 38 36  1  0  0  0  0
 39 35  1  0  0  0  0
 40 42  1  0  0  0  0
 41 39  2  0  0  0  0
 42 41  1  0  0  0  0
 44 43  2  0  0  0  0
M  END
>  <MODEL>
3

>  <REMARK>
 VINA RESULT:      -7.5      3.288      5.361
  Name = 
  10 active torsions:
  status: ('A' for Active; 'I' for Inactive)
    1  A    between atoms: O_9  and  C_31
    2  A    between atoms: O_9  and  C_43
    3  A    between atoms: C_10  and  C_16
    4  A    between atoms: C_11  and  C_12
    5  A    between atoms: C_13  and  C_26
    6  A    between atoms: C_13  and  C_27
    7  A    between atoms: C_14  and  C_20
    8  A    between atoms: C_19  and  C_26
    9  A    between atoms: C_25  and  C_43
   10  A    between atoms: C_27  and  C_34
                            x       y       z     vdW  Elec       q    Type
                         _______ _______ _______ _____ _____    ______ ____

>  <TORSDO>
F 10

$$$$
=
 OpenBabel11062422383D

 44 48  0  0  1  0  0  0  0  0999 V2000
  192.1190  175.1120  146.8200 C   0  0  2  0  0  3  0  0  0  0  0  0
  191.5020  175.4630  148.1850 C   0  0  0  0  0  2  0  0  0  0  0  0
  191.0170  176.9150  148.3210 C   0  0  0  0  0  2  0  0  0  0  0  0
  194.6200  174.9050  145.0000 C   0  0  2  0  0  3  0  0  0  0  0  0
  189.6710  175.2770  146.0820 C   0  0  0  0  0  2  0  0  0  0  0  0
  193.9220  173.5590  144.6040 C   0  0  2  0  0  0  0  0  0  0  0  0
  192.5350  174.8040  142.9910 O   0  0  0  0  0  1  0  0  0  0  0  0
  192.5430  173.7570  143.9200 C   0  0  2  0  0  3  0  0  0  0  0  0
  190.4660  177.5270  147.0290 C   0  0  0  0  0  2  0  0  0  0  0  0
  191.3010  173.7810  144.8310 C   0  0  1  0  0  3  0  0  0  0  0  0
  193.3740  175.9450  146.5530 C   0  0  0  0  0  2  0  0  0  0  0  0
  189.3140  176.7360  146.4060 C   0  0  1  0  0  3  0  0  0  0  0  0
  193.6970  175.9460  145.1930 O   0  0  0  0  0  0  0  0  0  0  0  0
  193.7310  172.8260  145.7800 O   0  0  0  0  0  1  0  0  0  0  0  0
  191.1290  175.0910  145.6260 C   0  0  2  0  0  3  0  0  0  0  0  0
  195.6380  171.7420  141.9720 C   0  0  0  0  0  0  0  0  0  0  0  0
  195.6740  171.8000  144.1190 N   0  0  0  0  0  0  0  0  0  0  0  0
  194.7840  172.7180  143.6860 C   0  0  0  0  0  0  0  0  0  0  0  0
  194.7110  172.7100  142.2990 C   0  0  0  0  0  3  0  0  0  0  0  0
  196.2030  171.2050  143.0650 N   0  0  0  0  0  2  0  0  0  0  0  0
  195.9530  171.3360  140.6470 N   0  0  0  0  0  1  0  0  0  0  0  0
  195.8990  176.7600  143.9950 O   0  0  0  0  0  0  0  0  0  0  0  0
  195.7730  175.3640  144.0890 C   0  0  1  0  0  0  0  0  0  0  0  0
  196.5810  175.9880  141.9580 F   0  0  0  0  0  0  0  0  0  0  0  0
  197.0220  174.7560  144.2400 O   0  0  0  0  0  1  0  0  0  0  0  0
  195.5030  176.0790  142.8200 C   0  0  2  0  0  3  0  0  0  0  0  0
  190.1700  173.5110  144.0500 O   0  0  0  0  0  0  0  0  0  0  0  0
  190.1300  172.1200  143.9430 C   0  0  0  0  0  2  0  0  0  0  0  0
  189.7790  171.7360  142.5500 C   0  0  0  0  0  0  0  0  0  0  0  0
  190.5530  170.9960  141.8870 O   0  0  0  0  0  0  0  0  0  0  0  0
  188.6190  172.2270  141.9660 O   0  0  0  0  0  1  0  0  0  0  0  0
  188.8570  177.4500  145.1460 C   0  0  0  0  0  2  0  0  0  0  0  0
  187.3600  177.7110  145.1980 C   0  0  0  0  0  2  0  0  0  0  0  0
  186.5900  176.4540  144.8310 C   0  0  0  0  0  2  0  0  0  0  0  0
  182.4850  178.5520  140.6540 C   0  0  0  0  0  1  0  0  0  0  0  0
  184.9520  177.7290  143.4990 C   0  0  0  0  0  2  0  0  0  0  0  0
  187.0110  176.7960  142.3500 C   0  0  2  0  0  3  0  0  0  0  0  0
  185.9500  176.5700  143.4520 C   0  0  1  0  0  3  0  0  0  0  0  0
  183.1000  178.2050  141.9720 C   0  0  0  0  0  3  0  0  0  0  0  0
  186.3500  177.0180  140.9830 C   0  0  0  0  0  2  0  0  0  0  0  0
  184.4130  178.0240  142.1370 C   0  0  0  0  0  0  0  0  0  0  0  0
  185.3950  178.2050  141.0170 C   0  0  0  0  0  2  0  0  0  0  0  0
  187.9990  175.6660  142.2560 C   0  0  0  0  0  3  0  0  0  0  0  0
  189.2750  175.8610  141.9140 C   0  0  0  0  0  2  0  0  0  0  0  0
  1 11  1  6  0  0  0
  1  2  1  0  0  0  0
  2  3  1  0  0  0  0
  4 13  1  6  0  0  0
  5 12  1  0  0  0  0
  6  4  1  0  0  0  0
  6 14  1  1  0  0  0
  8  7  1  1  0  0  0
  8  6  1  0  0  0  0
  8 10  1  0  0  0  0
  9  3  1  0  0  0  0
 10 27  1  6  0  0  0
 10 15  1  0  0  0  0
 12 32  1  6  0  0  0
 12  9  1  0  0  0  0
 13 11  1  0  0  0  0
 15  5  1  1  0  0  0
 15  1  1  0  0  0  0
 16 19  2  0  0  0  0
 16 20  1  0  0  0  0
 18 17  2  0  0  0  0
 18  6  1  0  0  0  0
 19 18  1  0  0  0  0
 20 17  1  0  0  0  0
 21 16  1  0  0  0  0
 22 23  1  0  0  0  0
 23 25  1  1  0  0  0
 23  4  1  0  0  0  0
 26 24  1  6  0  0  0
 26 22  1  0  0  0  0
 26 23  1  0  0  0  0
 28 27  1  0  0  0  0
 29 28  1  0  0  0  0
 30 29  2  0  0  0  0
 31 29  1  0  0  0  0
 32 33  1  0  0  0  0
 34 33  1  0  0  0  0
 35 39  1  0  0  0  0
 37 43  1  6  0  0  0
 37 38  1  0  0  0  0
 38 36  1  0  0  0  0
 38 34  1  1  0  0  0
 39 41  2  0  0  0  0
 40 42  1  0  0  0  0
 40 37  1  0  0  0  0
 41 36  1  0  0  0  0
 42 41  1  0  0  0  0
 44 43  2  0  0  0  0
M  END
>  <MODEL>
4

>  <REMARK>
 VINA RESULT:      -7.4      3.004      5.221
  Name = 
  10 active torsions:
  status: ('A' for Active; 'I' for Inactive)
    1  A    between atoms: O_9  and  C_31
    2  A    between atoms: O_9  and  C_43
    3  A    between atoms: C_10  and  C_16
    4  A    between atoms: C_11  and  C_12
    5  A    between atoms: C_13  and  C_26
    6  A    between atoms: C_13  and  C_27
    7  A    between atoms: C_14  and  C_20
    8  A    between atoms: C_19  and  C_26
    9  A    between atoms: C_25  and  C_43
   10  A    between atoms: C_27  and  C_34
                            x       y       z     vdW  Elec       q    Type
                         _______ _______ _______ _____ _____    ______ ____

>  <TORSDO>
F 10

$$$$
=
 OpenBabel11062422383D

 44 48  0  0  1  0  0  0  0  0999 V2000
  193.3410  174.8250  143.1730 C   0  0  2  0  0  3  0  0  0  0  0  0
  194.2910  175.9230  143.6810 C   0  0  0  0  0  2  0  0  0  0  0  0
  193.6160  177.0260  144.5120 C   0  0  0  0  0  2  0  0  0  0  0  0
  191.4570  173.7420  140.9630 C   0  0  2  0  0  3  0  0  0  0  0  0
  193.3650  174.1720  145.6510 C   0  0  0  0  0  2  0  0  0  0  0  0
  192.1970  172.4080  141.3220 C   0  0  2  0  0  0  0  0  0  0  0  0
  190.6150  172.0870  143.1850 O   0  0  0  0  0  1  0  0  0  0  0  0
  191.9470  171.9390  142.7800 C   0  0  2  0  0  3  0  0  0  0  0  0
  192.4380  176.5500  145.3670 C   0  0  0  0  0  2  0  0  0  0  0  0
  192.9370  172.4230  143.8570 C   0  0  1  0  0  3  0  0  0  0  0  0
  192.2850  175.4020  142.2300 C   0  0  0  0  0  2  0  0  0  0  0  0
  192.7880  175.4200  146.3380 C   0  0  1  0  0  3  0  0  0  0  0  0
  191.2000  174.5300  142.0960 O   0  0  0  0  0  0  0  0  0  0  0  0
  193.5680  172.6340  141.1590 O   0  0  0  0  0  1  0  0  0  0  0  0
  192.7490  173.8980  144.2670 C   0  0  2  0  0  3  0  0  0  0  0  0
  191.0230  169.4550  139.5700 C   0  0  0  0  0  0  0  0  0  0  0  0
  192.3220  171.1140  139.1530 N   0  0  0  0  0  0  0  0  0  0  0  0
  191.8140  171.2750  140.3940 C   0  0  0  0  0  0  0  0  0  0  0  0
  190.9770  170.2170  140.7190 C   0  0  0  0  0  2  0  0  0  0  0  0
  191.8300  169.9980  138.6450 N   0  0  0  0  0  0  0  0  0  0  0  0
  190.3260  168.2310  139.3800 N   0  0  0  0  0  1  0  0  0  0  0  0
  189.1330  174.4340  140.5070 O   0  0  0  0  0  0  0  0  0  0  0  0
  190.1900  173.6020  140.0990 C   0  0  1  0  0  0  0  0  0  0  0  0
  188.1050  172.5780  139.6660 F   0  0  0  0  0  0  0  0  0  0  0  0
  190.3280  173.6100  138.7090 O   0  0  0  0  0  1  0  0  0  0  0  0
  188.9410  173.0420  140.6650 C   0  0  2  0  0  3  0  0  0  0  0  0
  192.8410  171.5740  144.9660 O   0  0  0  0  0  0  0  0  0  0  0  0
  193.7250  170.5270  144.6960 C   0  0  0  0  0  2  0  0  0  0  0  0
  194.7740  170.4740  145.7490 C   0  0  0  0  0  0  0  0  0  0  0  0
  194.7130  169.6010  146.6540 O   0  0  0  0  0  1  0  0  0  0  0  0
  195.7970  171.4130  145.7580 O   0  0  0  0  0  0  0  0  0  0  0  0
  191.5440  175.0510  147.1260 C   0  0  0  0  0  2  0  0  0  0  0  0
  190.3730  175.9250  146.7070 C   0  0  0  0  0  2  0  0  0  0  0  0
  189.4320  175.1520  145.7980 C   0  0  0  0  0  2  0  0  0  0  0  0
  183.9960  178.0650  146.6180 C   0  0  0  0  0  1  0  0  0  0  0  0
  187.4450  176.3430  146.6450 C   0  0  0  0  0  2  0  0  0  0  0  0
  188.6760  177.2810  144.6360 C   0  0  2  0  0  3  0  0  0  0  0  0
  188.2340  175.9990  145.3800 C   0  0  1  0  0  3  0  0  0  0  0  0
  185.1280  177.1120  146.8300 C   0  0  0  0  0  3  0  0  0  0  0  0
  187.4720  178.1770  144.3150 C   0  0  0  0  0  2  0  0  0  0  0  0
  186.3550  177.3200  146.3430 C   0  0  0  0  0  0  0  0  0  0  0  0
  186.7160  178.5610  145.5810 C   0  0  0  0  0  2  0  0  0  0  0  0
  189.4370  176.9850  143.3740 C   0  0  0  0  0  3  0  0  0  0  0  0
  189.3270  177.7440  142.2810 C   0  0  0  0  0  2  0  0  0  0  0  0
  1 11  1  1  0  0  0
  1  2  1  0  0  0  0
  1 15  1  0  0  0  0
  2  3  1  0  0  0  0
  3  9  1  0  0  0  0
  4  6  1  0  0  0  0
  4 13  1  1  0  0  0
  5 12  1  0  0  0  0
  6 14  1  6  0  0  0
  6  8  1  0  0  0  0
  8  7  1  1  0  0  0
  8 10  1  0  0  0  0
  9 12  1  0  0  0  0
 10 15  1  0  0  0  0
 10 27  1  1  0  0  0
 12 32  1  6  0  0  0
 13 11  1  0  0  0  0
 15  5  1  1  0  0  0
 16 19  1  0  0  0  0
 17 18  2  0  0  0  0
 18 19  1  0  0  0  0
 18  6  1  0  0  0  0
 20 17  1  0  0  0  0
 20 16  2  0  0  0  0
 21 16  1  0  0  0  0
 22 26  1  0  0  0  0
 23 25  1  6  0  0  0
 23 22  1  0  0  0  0
 23 26  1  0  0  0  0
 23  4  1  0  0  0  0
 26 24  1  6  0  0  0
 28 27  1  0  0  0  0
 28 29  1  0  0  0  0
 29 31  2  0  0  0  0
 29 30  1  0  0  0  0
 33 32  1  0  0  0  0
 34 33  1  0  0  0  0
 35 39  1  0  0  0  0
 37 43  1  6  0  0  0
 37 38  1  0  0  0  0
 38 34  1  1  0  0  0
 38 36  1  0  0  0  0
 40 37  1  0  0  0  0
 40 42  1  0  0  0  0
 41 36  1  0  0  0  0
 41 39  2  0  0  0  0
 42 41  1  0  0  0  0
 44 43  2  0  0  0  0
M  END
>  <MODEL>
5

>  <REMARK>
 VINA RESULT:      -7.3      0.873      2.141
  Name = 
  10 active torsions:
  status: ('A' for Active; 'I' for Inactive)
    1  A    between atoms: O_9  and  C_31
    2  A    between atoms: O_9  and  C_43
    3  A    between atoms: C_10  and  C_16
    4  A    between atoms: C_11  and  C_12
    5  A    between atoms: C_13  and  C_26
    6  A    between atoms: C_13  and  C_27
    7  A    between atoms: C_14  and  C_20
    8  A    between atoms: C_19  and  C_26
    9  A    between atoms: C_25  and  C_43
   10  A    between atoms: C_27  and  C_34
                            x       y       z     vdW  Elec       q    Type
                         _______ _______ _______ _____ _____    ______ ____

>  <TORSDO>
F 10

$$$$
=
 OpenBabel11062422383D

 44 48  0  0  1  0  0  0  0  0999 V2000
  191.0050  174.0060  145.1790 C   0  0  2  0  0  3  0  0  0  0  0  0
  189.6870  174.1010  145.9670 C   0  0  0  0  0  2  0  0  0  0  0  0
  189.0220  175.4860  145.9490 C   0  0  0  0  0  2  0  0  0  0  0  0
  194.0960  174.2190  145.1200 C   0  0  2  0  0  3  0  0  0  0  0  0
  189.3980  174.1650  143.1890 C   0  0  0  0  0  2  0  0  0  0  0  0
  193.9280  172.9200  144.2580 C   0  0  2  0  0  0  0  0  0  0  0  0
  193.5370  174.3390  142.2800 O   0  0  0  0  0  1  0  0  0  0  0  0
  193.1610  173.1580  142.9300 C   0  0  2  0  0  3  0  0  0  0  0  0
  189.2160  176.2700  144.6480 C   0  0  0  0  0  2  0  0  0  0  0  0
  191.6310  172.9730  142.9570 C   0  0  1  0  0  3  0  0  0  0  0  0
  192.0680  174.9320  145.7710 C   0  0  0  0  0  2  0  0  0  0  0  0
  188.7310  175.5330  143.3970 C   0  0  1  0  0  3  0  0  0  0  0  0
  193.0960  175.1680  144.8530 O   0  0  0  0  0  0  0  0  0  0  0  0
  193.2090  171.9990  145.0260 O   0  0  0  0  0  1  0  0  0  0  0  0
  190.8700  174.1280  143.6390 C   0  0  2  0  0  3  0  0  0  0  0  0
  196.9700  171.4890  142.8910 C   0  0  0  0  0  0  0  0  0  0  0  0
  196.0220  171.6150  144.8140 N   0  0  0  0  0  0  0  0  0  0  0  0
  195.2600  172.2830  143.9220 C   0  0  0  0  0  0  0  0  0  0  0  0
  195.8230  172.2170  142.6540 C   0  0  0  0  0  3  0  0  0  0  0  0
  197.0760  171.1320  144.1800 N   0  0  0  0  0  2  0  0  0  0  0  0
  197.9220  171.1310  141.8980 N   0  0  0  0  0  1  0  0  0  0  0  0
  195.4530  176.2730  144.9540 O   0  0  0  0  0  0  0  0  0  0  0  0
  195.4890  174.8750  145.0920 C   0  0  1  0  0  0  0  0  0  0  0  0
  197.3710  175.6440  143.8880 F   0  0  0  0  0  0  0  0  0  0  0  0
  196.4260  174.4880  146.0540 O   0  0  0  0  0  1  0  0  0  0  0  0
  195.9920  175.5430  143.8690 C   0  0  2  0  0  3  0  0  0  0  0  0
  191.1830  172.7760  141.6450 O   0  0  0  0  0  0  0  0  0  0  0  0
  191.5680  171.4740  141.3240 C   0  0  0  0  0  2  0  0  0  0  0  0
  191.3380  171.2270  139.8750 C   0  0  0  0  0  0  0  0  0  0  0  0
  190.7540  170.1780  139.5010 O   0  0  0  0  0  1  0  0  0  0  0  0
  191.8050  172.1360  138.9350 O   0  0  0  0  0  0  0  0  0  0  0  0
  188.9720  176.4180  142.1860 C   0  0  0  0  0  2  0  0  0  0  0  0
  187.6920  176.5690  141.3790 C   0  0  0  0  0  2  0  0  0  0  0  0
  187.0700  177.9350  141.6220 C   0  0  0  0  0  2  0  0  0  0  0  0
  184.9930  178.3940  147.4670 C   0  0  0  0  0  1  0  0  0  0  0  0
  186.6570  178.4790  143.9910 C   0  0  0  0  0  2  0  0  0  0  0  0
  184.7420  178.6540  142.3380 C   0  0  2  0  0  3  0  0  0  0  0  0
  186.0250  177.8850  142.7310 C   0  0  1  0  0  3  0  0  0  0  0  0
  185.9330  178.2320  146.3170 C   0  0  0  0  0  3  0  0  0  0  0  0
  183.7400  178.6880  143.5000 C   0  0  0  0  0  2  0  0  0  0  0  0
  185.6400  178.6310  145.0760 C   0  0  0  0  0  0  0  0  0  0  0  0
  184.3540  179.3270  144.7400 C   0  0  0  0  0  2  0  0  0  0  0  0
  184.0780  178.0860  141.1140 C   0  0  0  0  0  3  0  0  0  0  0  0
  182.7870  178.2950  140.8420 C   0  0  0  0  0  2  0  0  0  0  0  0
  1 11  1  1  0  0  0
  1  2  1  0  0  0  0
  3  2  1  0  0  0  0
  4 13  1  6  0  0  0
  5 12  1  0  0  0  0
  6 14  1  1  0  0  0
  6  4  1  0  0  0  0
  8  7  1  1  0  0  0
  8 10  1  0  0  0  0
  8  6  1  0  0  0  0
  9  3  1  0  0  0  0
 10 27  1  6  0  0  0
 10 15  1  0  0  0  0
 12 32  1  6  0  0  0
 12  9  1  0  0  0  0
 13 11  1  0  0  0  0
 15  5  1  1  0  0  0
 15  1  1  0  0  0  0
 16 20  1  0  0  0  0
 18  6  1  0  0  0  0
 18 17  2  0  0  0  0
 19 16  2  0  0  0  0
 19 18  1  0  0  0  0
 20 17  1  0  0  0  0
 21 16  1  0  0  0  0
 22 23  1  0  0  0  0
 23  4  1  0  0  0  0
 23 25  1  1  0  0  0
 26 24  1  1  0  0  0
 26 22  1  0  0  0  0
 26 23  1  0  0  0  0
 28 27  1  0  0  0  0
 29 28  1  0  0  0  0
 30 29  1  0  0  0  0
 31 29  2  0  0  0  0
 33 34  1  0  0  0  0
 33 32  1  0  0  0  0
 36 41  1  0  0  0  0
 37 43  1  6  0  0  0
 37 38  1  0  0  0  0
 37 40  1  0  0  0  0
 38 34  1  6  0  0  0
 38 36  1  0  0  0  0
 39 35  1  0  0  0  0
 40 42  1  0  0  0  0
 41 39  2  0  0  0  0
 42 41  1  0  0  0  0
 44 43  2  0  0  0  0
M  END
>  <MODEL>
6

>  <REMARK>
 VINA RESULT:      -7.1      3.240      5.765
  Name = 
  10 active torsions:
  status: ('A' for Active; 'I' for Inactive)
    1  A    between atoms: O_9  and  C_31
    2  A    between atoms: O_9  and  C_43
    3  A    between atoms: C_10  and  C_16
    4  A    between atoms: C_11  and  C_12
    5  A    between atoms: C_13  and  C_26
    6  A    between atoms: C_13  and  C_27
    7  A    between atoms: C_14  and  C_20
    8  A    between atoms: C_19  and  C_26
    9  A    between atoms: C_25  and  C_43
   10  A    between atoms: C_27  and  C_34
                            x       y       z     vdW  Elec       q    Type
                         _______ _______ _______ _____ _____    ______ ____

>  <TORSDO>
F 10

$$$$
=
 OpenBabel11062422383D

 44 48  0  0  1  0  0  0  0  0999 V2000
  191.6350  176.0540  142.9860 C   0  0  2  0  0  3  0  0  0  0  0  0
  191.3790  177.5610  142.8120 C   0  0  0  0  0  2  0  0  0  0  0  0
  190.0170  178.0490  143.3290 C   0  0  0  0  0  2  0  0  0  0  0  0
  191.4660  173.1730  141.8540 C   0  0  2  0  0  3  0  0  0  0  0  0
  191.8430  176.7470  145.4450 C   0  0  0  0  0  2  0  0  0  0  0  0
  192.9030  173.1040  142.4760 C   0  0  2  0  0  0  0  0  0  0  0  0
  191.8840  172.5800  144.6590 O   0  0  0  0  0  1  0  0  0  0  0  0
  192.9160  173.2760  144.0180 C   0  0  2  0  0  3  0  0  0  0  0  0
  189.4970  177.3020  144.5610 C   0  0  0  0  0  2  0  0  0  0  0  0
  193.0780  174.7070  144.5670 C   0  0  1  0  0  3  0  0  0  0  0  0
  190.6230  175.2290  142.1910 C   0  0  0  0  0  2  0  0  0  0  0  0
  190.4540  177.3260  145.7550 C   0  0  1  0  0  3  0  0  0  0  0  0
  190.5760  173.9100  142.6530 O   0  0  0  0  0  0  0  0  0  0  0  0
  193.6540  174.1390  141.9090 O   0  0  0  0  0  1  0  0  0  0  0  0
  191.8070  175.5730  144.4510 C   0  0  2  0  0  3  0  0  0  0  0  0
  194.6240  170.2040  141.1340 C   0  0  0  0  0  0  0  0  0  0  0  0
  193.6420  170.7350  142.9690 N   0  0  0  0  0  0  0  0  0  0  0  0
  193.6060  171.8040  142.1440 C   0  0  0  0  0  0  0  0  0  0  0  0
  194.2160  171.5060  140.9330 C   0  0  0  0  0  3  0  0  0  0  0  0
  194.2740  169.7540  142.3490 N   0  0  0  0  0  2  0  0  0  0  0  0
  195.3120  169.4130  140.1750 N   0  0  0  0  0  1  0  0  0  0  0  0
  189.4880  171.7000  141.8020 O   0  0  0  0  0  0  0  0  0  0  0  0
  190.8400  171.8290  141.4420 C   0  0  1  0  0  0  0  0  0  0  0  0
  190.3160  169.5760  141.9240 F   0  0  0  0  0  0  0  0  0  0  0  0
  191.0610  171.3630  140.1430 O   0  0  0  0  0  1  0  0  0  0  0  0
  190.4040  170.8470  142.4620 C   0  0  2  0  0  3  0  0  0  0  0  0
  193.5170  174.6280  145.8940 O   0  0  0  0  0  0  0  0  0  0  0  0
  194.8940  174.4160  145.8070 C   0  0  0  0  0  2  0  0  0  0  0  0
  195.5360  175.5720  145.1270 C   0  0  0  0  0  0  0  0  0  0  0  0
  196.4050  175.3750  144.2380 O   0  0  0  0  0  0  0  0  0  0  0  0
  195.2070  176.8680  145.5010 O   0  0  0  0  0  1  0  0  0  0  0  0
  189.8190  176.5640  146.9040 C   0  0  0  0  0  2  0  0  0  0  0  0
  188.6970  175.6730  146.3940 C   0  0  0  0  0  2  0  0  0  0  0  0
  187.3610  176.1260  146.9590 C   0  0  0  0  0  2  0  0  0  0  0  0
  184.4100  178.4030  141.9800 C   0  0  0  0  0  1  0  0  0  0  0  0
  185.9730  176.5250  144.9600 C   0  0  0  0  0  2  0  0  0  0  0  0
  185.7810  178.1140  146.9270 C   0  0  2  0  0  3  0  0  0  0  0  0
  186.7270  177.2140  146.0990 C   0  0  1  0  0  3  0  0  0  0  0  0
  185.2150  177.4830  142.8390 C   0  0  0  0  0  3  0  0  0  0  0  0
  185.0690  179.1380  146.0330 C   0  0  0  0  0  2  0  0  0  0  0  0
  185.1750  177.5150  144.1740 C   0  0  0  0  0  0  0  0  0  0  0  0
  184.2750  178.4480  144.9290 C   0  0  0  0  0  2  0  0  0  0  0  0
  186.4910  178.8270  148.0440 C   0  0  0  0  0  3  0  0  0  0  0  0
  186.4070  180.1490  148.2130 C   0  0  0  0  0  2  0  0  0  0  0  0
  1 11  1  1  0  0  0
  1 15  1  0  0  0  0
  2  1  1  0  0  0  0
  2  3  1  0  0  0  0
  3  9  1  0  0  0  0
  4  6  1  0  0  0  0
  4 13  1  1  0  0  0
  5 12  1  0  0  0  0
  6 14  1  6  0  0  0
  6  8  1  0  0  0  0
  8 10  1  0  0  0  0
  8  7  1  6  0  0  0
  9 12  1  0  0  0  0
 10 27  1  1  0  0  0
 11 13  1  0  0  0  0
 12 32  1  1  0  0  0
 15 10  1  0  0  0  0
 15  5  1  1  0  0  0
 16 20  1  0  0  0  0
 18  6  1  0  0  0  0
 18 17  2  0  0  0  0
 19 16  2  0  0  0  0
 19 18  1  0  0  0  0
 20 17  1  0  0  0  0
 21 16  1  0  0  0  0
 22 26  1  0  0  0  0
 23 25  1  6  0  0  0
 23 22  1  0  0  0  0
 23  4  1  0  0  0  0
 23 26  1  0  0  0  0
 26 24  1  6  0  0  0
 28 27  1  0  0  0  0
 29 31  1  0  0  0  0
 29 28  1  0  0  0  0
 30 29  2  0  0  0  0
 33 32  1  0  0  0  0
 33 34  1  0  0  0  0
 35 39  1  0  0  0  0
 36 38  1  0  0  0  0
 37 43  1  1  0  0  0
 38 37  1  0  0  0  0
 38 34  1  1  0  0  0
 39 41  2  0  0  0  0
 40 37  1  0  0  0  0
 41 42  1  0  0  0  0
 41 36  1  0  0  0  0
 42 40  1  0  0  0  0
 43 44  2  0  0  0  0
M  END
>  <MODEL>
7

>  <REMARK>
 VINA RESULT:      -6.9      2.297      3.044
  Name = 
  10 active torsions:
  status: ('A' for Active; 'I' for Inactive)
    1  A    between atoms: O_9  and  C_31
    2  A    between atoms: O_9  and  C_43
    3  A    between atoms: C_10  and  C_16
    4  A    between atoms: C_11  and  C_12
    5  A    between atoms: C_13  and  C_26
    6  A    between atoms: C_13  and  C_27
    7  A    between atoms: C_14  and  C_20
    8  A    between atoms: C_19  and  C_26
    9  A    between atoms: C_25  and  C_43
   10  A    between atoms: C_27  and  C_34
                            x       y       z     vdW  Elec       q    Type
                         _______ _______ _______ _____ _____    ______ ____

>  <TORSDO>
F 10

$$$$
=
 OpenBabel11062422383D

 44 48  0  0  1  0  0  0  0  0999 V2000
  190.7640  172.7890  142.8790 C   0  0  2  0  0  3  0  0  0  0  0  0
  189.6910  171.6870  142.8390 C   0  0  0  0  0  2  0  0  0  0  0  0
  188.2410  172.1950  142.8850 C   0  0  0  0  0  2  0  0  0  0  0  0
  192.6650  174.6000  144.5270 C   0  0  2  0  0  3  0  0  0  0  0  0
  189.9150  173.1910  140.4950 C   0  0  0  0  0  2  0  0  0  0  0  0
  193.6460  174.2150  143.3660 C   0  0  2  0  0  0  0  0  0  0  0  0
  192.6780  176.0300  142.0080 O   0  0  0  0  0  1  0  0  0  0  0  0
  193.1850  174.7250  141.9750 C   0  0  2  0  0  3  0  0  0  0  0  0
  188.0130  173.5380  142.1850 C   0  0  0  0  0  2  0  0  0  0  0  0
  192.3030  173.7820  141.1340 C   0  0  1  0  0  3  0  0  0  0  0  0
  190.6920  173.5800  144.1870 C   0  0  0  0  0  2  0  0  0  0  0  0
  188.4390  173.5560  140.7150 C   0  0  1  0  0  3  0  0  0  0  0  0
  191.3540  174.8060  144.0690 O   0  0  0  0  0  0  0  0  0  0  0  0
  193.7150  172.8180  143.3240 O   0  0  0  0  0  1  0  0  0  0  0  0
  190.8410  173.6900  141.6180 C   0  0  2  0  0  3  0  0  0  0  0  0
  196.9110  175.7930  143.4910 C   0  0  0  0  0  0  0  0  0  0  0  0
  195.9320  174.1360  144.4440 N   0  0  0  0  0  0  0  0  0  0  0  0
  195.0490  174.7270  143.6120 C   0  0  0  0  0  0  0  0  0  0  0  0
  195.6400  175.7990  142.9560 C   0  0  0  0  0  3  0  0  0  0  0  0
  197.0750  174.7960  144.3740 N   0  0  0  0  0  2  0  0  0  0  0  0
  197.9410  176.7090  143.1450 N   0  0  0  0  0  1  0  0  0  0  0  0
  194.1000  175.4010  146.3660 O   0  0  0  0  0  0  0  0  0  0  0  0
  193.1120  175.7610  145.4340 C   0  0  1  0  0  0  0  0  0  0  0  0
  192.8820  177.0170  147.4220 F   0  0  0  0  0  0  0  0  0  0  0  0
  193.4030  176.9930  144.8440 O   0  0  0  0  0  1  0  0  0  0  0  0
  192.8310  175.7420  146.8890 C   0  0  2  0  0  3  0  0  0  0  0  0
  192.3670  174.1870  139.7960 O   0  0  0  0  0  0  0  0  0  0  0  0
  193.3720  173.4000  139.2290 C   0  0  0  0  0  2  0  0  0  0  0  0
  194.0440  174.1550  138.1380 C   0  0  0  0  0  0  0  0  0  0  0  0
  194.4260  175.3380  138.3350 O   0  0  0  0  0  1  0  0  0  0  0  0
  194.2120  173.5700  136.8910 O   0  0  0  0  0  0  0  0  0  0  0  0
  188.1520  174.9320  140.1410 C   0  0  0  0  0  2  0  0  0  0  0  0
  188.0870  175.9670  141.2530 C   0  0  0  0  0  2  0  0  0  0  0  0
  186.9240  176.9180  141.0250 C   0  0  0  0  0  2  0  0  0  0  0  0
  185.9420  177.2050  147.1610 C   0  0  0  0  0  1  0  0  0  0  0  0
  187.0600  177.1930  143.4720 C   0  0  0  0  0  2  0  0  0  0  0  0
  185.1970  178.3580  142.2060 C   0  0  2  0  0  3  0  0  0  0  0  0
  186.0930  177.1000  142.2910 C   0  0  1  0  0  3  0  0  0  0  0  0
  186.5870  176.8780  145.8530 C   0  0  0  0  0  3  0  0  0  0  0  0
  184.4450  178.5910  143.5230 C   0  0  0  0  0  2  0  0  0  0  0  0
  186.3330  177.5520  144.7280 C   0  0  0  0  0  0  0  0  0  0  0  0
  185.4110  178.7360  144.6920 C   0  0  0  0  0  2  0  0  0  0  0  0
  184.2150  178.2950  141.0680 C   0  0  0  0  0  3  0  0  0  0  0  0
  182.8940  178.2930  141.2660 C   0  0  0  0  0  2  0  0  0  0  0  0
  1  2  1  6  0  0  0
  1 11  1  0  0  0  0
  2  3  1  0  0  0  0
  4 13  1  6  0  0  0
  4 23  1  0  0  0  0
  5 12  1  0  0  0  0
  6 14  1  6  0  0  0
  6 18  1  0  0  0  0
  6  4  1  0  0  0  0
  8  7  1  1  0  0  0
  8  6  1  0  0  0  0
  9  3  1  0  0  0  0
 10 27  1  6  0  0  0
 10 15  1  0  0  0  0
 10  8  1  0  0  0  0
 12 32  1  1  0  0  0
 12  9  1  0  0  0  0
 13 11  1  0  0  0  0
 15  5  1  6  0  0  0
 15  1  1  0  0  0  0
 16 20  1  0  0  0  0
 18 17  2  0  0  0  0
 19 16  2  0  0  0  0
 19 18  1  0  0  0  0
 20 17  1  0  0  0  0
 21 16  1  0  0  0  0
 22 26  1  0  0  0  0
 23 25  1  6  0  0  0
 23 22  1  0  0  0  0
 23 26  1  0  0  0  0
 26 24  1  1  0  0  0
 28 27  1  0  0  0  0
 29 30  1  0  0  0  0
 29 28  1  0  0  0  0
 31 29  2  0  0  0  0
 32 33  1  0  0  0  0
 34 33  1  0  0  0  0
 36 41  1  0  0  0  0
 37 43  1  6  0  0  0
 37 38  1  0  0  0  0
 37 40  1  0  0  0  0
 38 34  1  6  0  0  0
 38 36  1  0  0  0  0
 39 35  1  0  0  0  0
 40 42  1  0  0  0  0
 41 39  2  0  0  0  0
 42 41  1  0  0  0  0
 43 44  2  0  0  0  0
M  END
>  <MODEL>
8

>  <REMARK>
 VINA RESULT:      -6.9      3.422      6.298
  Name = 
  10 active torsions:
  status: ('A' for Active; 'I' for Inactive)
    1  A    between atoms: O_9  and  C_31
    2  A    between atoms: O_9  and  C_43
    3  A    between atoms: C_10  and  C_16
    4  A    between atoms: C_11  and  C_12
    5  A    between atoms: C_13  and  C_26
    6  A    between atoms: C_13  and  C_27
    7  A    between atoms: C_14  and  C_20
    8  A    between atoms: C_19  and  C_26
    9  A    between atoms: C_25  and  C_43
   10  A    between atoms: C_27  and  C_34
                            x       y       z     vdW  Elec       q    Type
                         _______ _______ _______ _____ _____    ______ ____

>  <TORSDO>
F 10

$$$$
=
 OpenBabel11062422383D

 44 48  0  0  1  0  0  0  0  0999 V2000
  189.4160  174.2870  142.6990 C   0  0  2  0  0  3  0  0  0  0  0  0
  189.8930  172.8850  142.2850 C   0  0  0  0  0  2  0  0  0  0  0  0
  190.8060  172.8520  141.0480 C   0  0  0  0  0  2  0  0  0  0  0  0
  187.3070  176.5510  142.5050 C   0  0  2  0  0  3  0  0  0  0  0  0
  191.8630  174.5030  143.4290 C   0  0  0  0  0  2  0  0  0  0  0  0
  187.5690  176.5980  144.0500 C   0  0  2  0  0  0  0  0  0  0  0  0
  189.5250  178.0360  143.6280 O   0  0  0  0  0  1  0  0  0  0  0  0
  189.0240  176.9940  144.4160 C   0  0  2  0  0  3  0  0  0  0  0  0
  191.7240  174.0690  140.9010 C   0  0  0  0  0  2  0  0  0  0  0  0
  190.0450  175.8520  144.5840 C   0  0  1  0  0  3  0  0  0  0  0  0
  188.5680  174.9280  141.5980 C   0  0  0  0  0  2  0  0  0  0  0  0
  192.6300  174.3170  142.1100 C   0  0  1  0  0  3  0  0  0  0  0  0
  188.4810  176.3130  141.7730 O   0  0  0  0  0  0  0  0  0  0  0  0
  187.3180  175.3180  144.5560 O   0  0  0  0  0  1  0  0  0  0  0  0
  190.5160  175.2280  143.2550 C   0  0  2  0  0  3  0  0  0  0  0  0
  184.9410  178.4370  145.7460 C   0  0  0  0  0  0  0  0  0  0  0  0
  186.8510  178.8800  144.8700 N   0  0  0  0  0  0  0  0  0  0  0  0
  186.6310  177.5520  144.7590 C   0  0  0  0  0  0  0  0  0  0  0  0
  185.3970  177.2160  145.2980 C   0  0  0  0  0  3  0  0  0  0  0  0
  185.8140  179.4220  145.4830 N   0  0  0  0  0  2  0  0  0  0  0  0
  183.6920  178.6500  146.3900 N   0  0  0  0  0  1  0  0  0  0  0  0
  185.1490  177.7000  142.1740 O   0  0  0  0  0  0  0  0  0  0  0  0
  186.5290  177.7410  141.9130 C   0  0  1  0  0  0  0  0  0  0  0  0
  185.3160  178.7200  140.1380 F   0  0  0  0  0  0  0  0  0  0  0  0
  187.0390  179.0280  142.1030 O   0  0  0  0  0  1  0  0  0  0  0  0
  185.5450  177.5410  140.8250 C   0  0  2  0  0  3  0  0  0  0  0  0
  191.1280  176.3290  145.3320 O   0  0  0  0  0  0  0  0  0  0  0  0
  190.5610  176.8540  146.4940 C   0  0  0  0  0  2  0  0  0  0  0  0
  191.2790  176.3260  147.6840 C   0  0  0  0  0  0  0  0  0  0  0  0
  191.5940  175.1090  147.7400 O   0  0  0  0  0  0  0  0  0  0  0  0
  191.5660  177.1670  148.7510 O   0  0  0  0  0  1  0  0  0  0  0  0
  193.4890  175.5380  141.8330 C   0  0  0  0  0  2  0  0  0  0  0  0
  194.8510  175.1180  141.3040 C   0  0  0  0  0  2  0  0  0  0  0  0
  195.9300  175.3890  142.3400 C   0  0  0  0  0  2  0  0  0  0  0  0
  196.6990  170.4730  146.0730 C   0  0  0  0  0  1  0  0  0  0  0  0
  196.7220  173.4030  143.5690 C   0  0  0  0  0  2  0  0  0  0  0  0
  195.8910  175.4080  144.8800 C   0  0  2  0  0  3  0  0  0  0  0  0
  195.7180  174.5570  143.6010 C   0  0  1  0  0  3  0  0  0  0  0  0
  196.6710  171.3080  144.8340 C   0  0  0  0  0  3  0  0  0  0  0  0
  195.7810  174.5410  146.1410 C   0  0  0  0  0  2  0  0  0  0  0  0
  196.7010  172.6430  144.8570 C   0  0  0  0  0  0  0  0  0  0  0  0
  196.8160  173.4230  146.1330 C   0  0  0  0  0  2  0  0  0  0  0  0
  194.9060  176.5420  144.9590 C   0  0  0  0  0  3  0  0  0  0  0  0
  194.5140  177.0660  146.1230 C   0  0  0  0  0  2  0  0  0  0  0  0
  1 11  1  6  0  0  0
  1 15  1  0  0  0  0
  2  1  1  0  0  0  0
  3  2  1  0  0  0  0
  4 13  1  6  0  0  0
  4  6  1  0  0  0  0
  6  8  1  0  0  0  0
  6 14  1  1  0  0  0
  6 18  1  0  0  0  0
  8  7  1  6  0  0  0
  8 10  1  0  0  0  0
  9  3  1  0  0  0  0
  9 12  1  0  0  0  0
 10 27  1  6  0  0  0
 11 13  1  0  0  0  0
 12 32  1  6  0  0  0
 12  5  1  0  0  0  0
 15  5  1  1  0  0  0
 15 10  1  0  0  0  0
 16 21  1  0  0  0  0
 17 20  1  0  0  0  0
 18 17  2  0  0  0  0
 18 19  1  0  0  0  0
 19 16  2  0  0  0  0
 20 16  1  0  0  0  0
 23 25  1  1  0  0  0
 23 22  1  0  0  0  0
 23  4  1  0  0  0  0
 26 24  1  6  0  0  0
 26 23  1  0  0  0  0
 26 22  1  0  0  0  0
 27 28  1  0  0  0  0
 28 29  1  0  0  0  0
 29 30  2  0  0  0  0
 29 31  1  0  0  0  0
 33 32  1  0  0  0  0
 33 34  1  0  0  0  0
 36 38  1  0  0  0  0
 36 41  1  0  0  0  0
 37 43  1  1  0  0  0
 37 40  1  0  0  0  0
 38 34  1  6  0  0  0
 38 37  1  0  0  0  0
 39 41  2  0  0  0  0
 39 35  1  0  0  0  0
 41 42  1  0  0  0  0
 42 40  1  0  0  0  0
 43 44  2  0  0  0  0
M  END
>  <MODEL>
9

>  <REMARK>
 VINA RESULT:      -6.8      4.244      7.942
  Name = 
  10 active torsions:
  status: ('A' for Active; 'I' for Inactive)
    1  A    between atoms: O_9  and  C_31
    2  A    between atoms: O_9  and  C_43
    3  A    between atoms: C_10  and  C_16
    4  A    between atoms: C_11  and  C_12
    5  A    between atoms: C_13  and  C_26
    6  A    between atoms: C_13  and  C_27
    7  A    between atoms: C_14  and  C_20
    8  A    between atoms: C_19  and  C_26
    9  A    between atoms: C_25  and  C_43
   10  A    between atoms: C_27  and  C_34
                            x       y       z     vdW  Elec       q    Type
                         _______ _______ _______ _____ _____    ______ ____

>  <TORSDO>
F 10

$$$$
