=
 OpenBabel11072409413D

 25 27  0  0  1  0  0  0  0  0999 V2000
  187.9830  177.0550  146.7340 C   0  0  0  0  0  2  0  0  0  0  0  0
  186.5510  177.0990  147.2410 C   0  0  2  0  0  3  0  0  0  0  0  0
  189.6140  173.8430  142.3400 C   0  0  0  0  0  2  0  0  0  0  0  0
  185.3140  177.4750  145.0220 C   0  0  0  0  0  2  0  0  0  0  0  0
  191.3630  174.9760  143.7260 C   0  0  0  0  0  3  0  0  0  0  0  0
  187.2840  176.1690  142.2510 C   0  0  2  0  0  3  0  0  0  0  0  0
  185.9070  178.2030  141.6400 C   0  0  0  0  0  2  0  0  0  0  0  0
  185.5550  176.5470  146.2110 C   0  0  0  0  0  2  0  0  0  0  0  0
  188.5350  175.6470  146.8710 C   0  0  0  0  0  2  0  0  0  0  0  0
  191.7650  175.6350  144.8920 C   0  0  0  0  0  3  0  0  0  0  0  0
  185.6700  179.6940  143.5080 O   0  0  0  0  0  1  0  0  0  0  0  0
  186.7210  177.0220  141.1040 C   0  0  0  0  0  2  0  0  0  0  0  0
  190.0470  174.5170  143.5980 C   0  0  0  0  0  0  0  0  0  0  0  0
  188.8620  174.8140  141.4430 C   0  0  2  0  0  3  0  0  0  0  0  0
  187.5120  174.8600  141.8100 O   0  0  0  0  0  0  0  0  0  0  0  0
  188.9680  174.3700  140.0650 N   0  0  0  0  0  1  0  0  0  0  0  0
  189.5330  175.3870  145.8000 C   0  0  0  0  0  0  0  0  0  0  0  0
  189.1330  174.7260  144.6350 C   0  0  0  0  0  3  0  0  0  0  0  0
  186.4420  177.4050  143.9930 C   0  0  1  0  0  3  0  0  0  0  0  0
  186.3760  176.1540  143.3260 O   0  0  0  0  0  0  0  0  0  0  0  0
  186.4130  178.6180  143.0170 C   0  0  1  0  0  3  0  0  0  0  0  0
  190.8490  175.8440  145.9280 C   0  0  0  0  0  3  0  0  0  0  0  0
  186.1770  178.4620  147.7310 C   0  0  0  0  0  0  0  0  0  0  0  0
  184.8890  178.9530  147.5490 O   0  0  0  0  0  0  0  0  0  0  0  0
  187.0290  179.1590  148.3400 O   0  0  0  0  0  1  0  0  0  0  0  0
  1  9  1  0  0  0  0
  1  2  1  0  0  0  0
  2 23  1  6  0  0  0
  3 13  1  0  0  0  0
  4  8  1  0  0  0  0
  5 10  1  0  0  0  0
  6 12  1  6  0  0  0
  6 20  1  0  0  0  0
  7 21  1  0  0  0  0
  8  2  1  0  0  0  0
 10 22  2  0  0  0  0
 12  7  1  0  0  0  0
 13  5  2  0  0  0  0
 13 18  1  0  0  0  0
 14 16  1  6  0  0  0
 14 15  1  0  0  0  0
 14  3  1  0  0  0  0
 15  6  1  0  0  0  0
 17 22  1  0  0  0  0
 17  9  1  0  0  0  0
 18 17  2  0  0  0  0
 19  4  1  1  0  0  0
 20 19  1  0  0  0  0
 21 11  1  1  0  0  0
 21 19  1  0  0  0  0
 23 25  1  0  0  0  0
 24 23  2  0  0  0  0
M  END
>  <MODEL>
1

>  <REMARK>
 VINA RESULT:      -8.4      0.000      0.000
  Name = 
  1 active torsions:
  status: ('A' for Active; 'I' for Inactive)
    1  A    between atoms: C_1  and  C_3
                            x       y       z     vdW  Elec       q    Type
                         _______ _______ _______ _____ _____    ______ ____

>  <TORSDO>
F 1

$$$$
=
 OpenBabel11072409413D

 25 27  0  0  1  0  0  0  0  0999 V2000
  189.4740  175.9410  145.9340 C   0  0  0  0  0  2  0  0  0  0  0  0
  190.9480  176.0160  145.5710 C   0  0  2  0  0  3  0  0  0  0  0  0
  185.4740  178.9660  143.2630 C   0  0  0  0  0  2  0  0  0  0  0  0
  190.7870  175.7140  143.0260 C   0  0  0  0  0  2  0  0  0  0  0  0
  184.8590  177.7150  145.3400 C   0  0  0  0  0  3  0  0  0  0  0  0
  187.5320  176.8290  141.8330 C   0  0  2  0  0  3  0  0  0  0  0  0
  188.4910  174.9030  140.4990 C   0  0  0  0  0  2  0  0  0  0  0  0
  191.1730  176.6330  144.1840 C   0  0  0  0  0  2  0  0  0  0  0  0
  188.9890  177.3030  146.3980 C   0  0  0  0  0  2  0  0  0  0  0  0
  185.2110  177.0390  146.5130 C   0  0  0  0  0  3  0  0  0  0  0  0
  189.8200  173.4560  141.8800 O   0  0  0  0  0  1  0  0  0  0  0  0
  187.4340  176.0100  140.5370 C   0  0  0  0  0  2  0  0  0  0  0  0
  185.8520  178.2740  144.5280 C   0  0  0  0  0  0  0  0  0  0  0  0
  185.6770  178.0470  142.0680 C   0  0  2  0  0  3  0  0  0  0  0  0
  187.0070  178.1110  141.6330 O   0  0  0  0  0  0  0  0  0  0  0  0
  184.8010  178.4660  140.9890 N   0  0  0  0  0  1  0  0  0  0  0  0
  187.5510  177.4720  146.0580 C   0  0  0  0  0  0  0  0  0  0  0  0
  187.1970  178.1490  144.8880 C   0  0  0  0  0  3  0  0  0  0  0  0
  189.2790  175.6830  142.7860 C   0  0  1  0  0  3  0  0  0  0  0  0
  188.8780  176.9280  142.2350 O   0  0  0  0  0  0  0  0  0  0  0  0
  188.8540  174.4650  141.9140 C   0  0  1  0  0  3  0  0  0  0  0  0
  186.5570  176.9140  146.8710 C   0  0  0  0  0  3  0  0  0  0  0  0
  191.6260  174.6920  145.7300 C   0  0  0  0  0  0  0  0  0  0  0  0
  190.9850  173.5160  145.3540 O   0  0  0  0  0  0  0  0  0  0  0  0
  192.7990  174.6450  146.1820 O   0  0  0  0  0  1  0  0  0  0  0  0
  1  9  1  0  0  0  0
  2 23  1  6  0  0  0
  2  1  1  0  0  0  0
  3 13  1  0  0  0  0
  4  8  1  0  0  0  0
  5 10  1  0  0  0  0
  6 12  1  6  0  0  0
  6 20  1  0  0  0  0
  7 12  1  0  0  0  0
  7 21  1  0  0  0  0
  8  2  1  0  0  0  0
 10 22  2  0  0  0  0
 13 18  1  0  0  0  0
 13  5  2  0  0  0  0
 14 16  1  6  0  0  0
 14  3  1  0  0  0  0
 15  6  1  0  0  0  0
 15 14  1  0  0  0  0
 17  9  1  0  0  0  0
 17 22  1  0  0  0  0
 18 17  2  0  0  0  0
 19  4  1  6  0  0  0
 20 19  1  0  0  0  0
 21 11  1  6  0  0  0
 21 19  1  0  0  0  0
 23 25  1  0  0  0  0
 24 23  2  0  0  0  0
M  END
>  <MODEL>
2

>  <REMARK>
 VINA RESULT:      -8.3      2.560      5.269
  Name = 
  1 active torsions:
  status: ('A' for Active; 'I' for Inactive)
    1  A    between atoms: C_1  and  C_3
                            x       y       z     vdW  Elec       q    Type
                         _______ _______ _______ _____ _____    ______ ____

>  <TORSDO>
F 1

$$$$
=
 OpenBabel11072409413D

 25 27  0  0  1  0  0  0  0  0999 V2000
  186.4270  176.6240  141.8060 C   0  0  0  0  0  2  0  0  0  0  0  0
  186.0610  178.0830  141.5880 C   0  0  2  0  0  3  0  0  0  0  0  0
  190.6680  174.9730  145.2070 C   0  0  0  0  0  2  0  0  0  0  0  0
  185.9490  178.8730  144.0290 C   0  0  0  0  0  2  0  0  0  0  0  0
  189.5660  173.2750  143.7360 C   0  0  0  0  0  3  0  0  0  0  0  0
  188.0730  176.7830  146.1230 C   0  0  2  0  0  3  0  0  0  0  0  0
  186.0130  177.6450  147.3160 C   0  0  0  0  0  2  0  0  0  0  0  0
  186.6460  178.9960  142.6750 C   0  0  0  0  0  2  0  0  0  0  0  0
  187.8480  176.3750  141.3300 C   0  0  0  0  0  2  0  0  0  0  0  0
  188.7570  172.9400  142.6450 C   0  0  0  0  0  3  0  0  0  0  0  0
  184.1600  177.8800  145.8070 O   0  0  0  0  0  1  0  0  0  0  0  0
  187.3890  176.9940  147.4820 C   0  0  0  0  0  2  0  0  0  0  0  0
  189.8310  174.6190  144.0250 C   0  0  0  0  0  0  0  0  0  0  0  0
  189.7910  175.3830  146.3810 C   0  0  2  0  0  3  0  0  0  0  0  0
  189.4630  176.7400  146.2840 O   0  0  0  0  0  0  0  0  0  0  0  0
  190.5130  175.1530  147.6190 N   0  0  0  0  0  1  0  0  0  0  0  0
  188.4690  175.2910  142.1370 C   0  0  0  0  0  0  0  0  0  0  0  0
  189.2790  175.6250  143.2260 C   0  0  0  0  0  3  0  0  0  0  0  0
  186.3980  177.6350  144.8040 C   0  0  1  0  0  3  0  0  0  0  0  0
  187.7310  177.8320  145.2480 O   0  0  0  0  0  0  0  0  0  0  0  0
  185.4150  177.2860  145.9600 C   0  0  1  0  0  3  0  0  0  0  0  0
  188.2060  173.9470  141.8480 C   0  0  0  0  0  3  0  0  0  0  0  0
  184.5850  178.2650  141.4150 C   0  0  0  0  0  0  0  0  0  0  0  0
  183.7050  177.9380  142.4410 O   0  0  0  0  0  1  0  0  0  0  0  0
  184.1400  178.7450  140.3420 O   0  0  0  0  0  0  0  0  0  0  0  0
  2 23  1  1  0  0  0
  2  1  1  0  0  0  0
  2  8  1  0  0  0  0
  3 14  1  0  0  0  0
  5 13  1  0  0  0  0
  6 15  1  0  0  0  0
  6 12  1  1  0  0  0
  7 12  1  0  0  0  0
  8  4  1  0  0  0  0
  9  1  1  0  0  0  0
  9 17  1  0  0  0  0
 10  5  2  0  0  0  0
 13  3  1  0  0  0  0
 14 16  1  1  0  0  0
 15 14  1  0  0  0  0
 17 18  1  0  0  0  0
 18 13  2  0  0  0  0
 19  4  1  1  0  0  0
 19 20  1  0  0  0  0
 19 21  1  0  0  0  0
 20  6  1  0  0  0  0
 21 11  1  6  0  0  0
 21  7  1  0  0  0  0
 22 17  2  0  0  0  0
 22 10  1  0  0  0  0
 23 24  1  0  0  0  0
 25 23  2  0  0  0  0
M  END
>  <MODEL>
3

>  <REMARK>
 VINA RESULT:      -8.1      2.295      4.797
  Name = 
  1 active torsions:
  status: ('A' for Active; 'I' for Inactive)
    1  A    between atoms: C_1  and  C_3
                            x       y       z     vdW  Elec       q    Type
                         _______ _______ _______ _____ _____    ______ ____

>  <TORSDO>
F 1

$$$$
=
 OpenBabel11072409413D

 25 27  0  0  1  0  0  0  0  0999 V2000
  189.2480  175.0490  142.1180 C   0  0  0  0  0  2  0  0  0  0  0  0
  189.8930  173.7470  142.5640 C   0  0  2  0  0  3  0  0  0  0  0  0
  185.1710  177.6600  145.0910 C   0  0  0  0  0  2  0  0  0  0  0  0
  190.4520  174.3490  144.9980 C   0  0  0  0  0  2  0  0  0  0  0  0
  185.7040  178.4820  142.7890 C   0  0  0  0  0  3  0  0  0  0  0  0
  188.1820  176.9280  146.2060 C   0  0  2  0  0  3  0  0  0  0  0  0
  190.5020  177.0740  147.2080 C   0  0  0  0  0  2  0  0  0  0  0  0
  189.6470  173.4580  144.0520 C   0  0  0  0  0  2  0  0  0  0  0  0
  187.7620  174.8350  141.8900 C   0  0  0  0  0  2  0  0  0  0  0  0
  186.2910  178.3070  141.5310 C   0  0  0  0  0  3  0  0  0  0  0  0
  192.1770  176.3340  145.6540 O   0  0  0  0  0  1  0  0  0  0  0  0
  189.0470  177.5360  147.3200 C   0  0  0  0  0  2  0  0  0  0  0  0
  185.7700  177.4580  143.7410 C   0  0  0  0  0  0  0  0  0  0  0  0
  186.2440  178.0290  146.1040 C   0  0  2  0  0  3  0  0  0  0  0  0
  186.8440  176.8700  146.6120 O   0  0  0  0  0  0  0  0  0  0  0  0
  185.6370  178.7690  147.1950 N   0  0  0  0  0  1  0  0  0  0  0  0
  187.0190  176.0890  142.1800 C   0  0  0  0  0  0  0  0  0  0  0  0
  186.4300  176.2640  143.4350 C   0  0  0  0  0  3  0  0  0  0  0  0
  189.8390  175.7400  145.1490 C   0  0  1  0  0  3  0  0  0  0  0  0
  188.6400  175.6320  145.8990 O   0  0  0  0  0  0  0  0  0  0  0  0
  190.8490  176.7560  145.7570 C   0  0  1  0  0  3  0  0  0  0  0  0
  186.9510  177.1130  141.2270 C   0  0  0  0  0  3  0  0  0  0  0  0
  191.3430  173.6920  142.1980 C   0  0  0  0  0  0  0  0  0  0  0  0
  192.0310  174.8490  141.8480 O   0  0  0  0  0  0  0  0  0  0  0  0
  191.9520  172.5920  142.2360 O   0  0  0  0  0  1  0  0  0  0  0  0
  1  2  1  0  0  0  0
  2 23  1  1  0  0  0
  2  8  1  0  0  0  0
  3 14  1  0  0  0  0
  5 13  1  0  0  0  0
  6 15  1  0  0  0  0
  6 12  1  1  0  0  0
  7 12  1  0  0  0  0
  8  4  1  0  0  0  0
  9  1  1  0  0  0  0
  9 17  1  0  0  0  0
 10  5  2  0  0  0  0
 13  3  1  0  0  0  0
 14 15  1  0  0  0  0
 14 16  1  1  0  0  0
 17 18  1  0  0  0  0
 18 13  2  0  0  0  0
 19  4  1  1  0  0  0
 19 21  1  0  0  0  0
 19 20  1  0  0  0  0
 20  6  1  0  0  0  0
 21 11  1  1  0  0  0
 21  7  1  0  0  0  0
 22 10  1  0  0  0  0
 22 17  2  0  0  0  0
 23 25  1  0  0  0  0
 24 23  2  0  0  0  0
M  END
>  <MODEL>
4

>  <REMARK>
 VINA RESULT:      -7.9      2.875      6.514
  Name = 
  1 active torsions:
  status: ('A' for Active; 'I' for Inactive)
    1  A    between atoms: C_1  and  C_3
                            x       y       z     vdW  Elec       q    Type
                         _______ _______ _______ _____ _____    ______ ____

>  <TORSDO>
F 1

$$$$
=
 OpenBabel11072409413D

 25 27  0  0  1  0  0  0  0  0999 V2000
  187.3010  177.6330  145.9770 C   0  0  0  0  0  2  0  0  0  0  0  0
  185.7940  177.5710  145.7970 C   0  0  2  0  0  3  0  0  0  0  0  0
  190.7540  173.3200  144.6500 C   0  0  0  0  0  2  0  0  0  0  0  0
  185.6780  176.7100  143.3800 C   0  0  0  0  0  2  0  0  0  0  0  0
  191.6880  175.2780  145.8980 C   0  0  0  0  0  3  0  0  0  0  0  0
  188.6910  174.8300  142.5740 C   0  0  2  0  0  3  0  0  0  0  0  0
  187.7160  176.0720  140.5950 C   0  0  0  0  0  2  0  0  0  0  0  0
  185.3680  176.4390  144.8520 C   0  0  0  0  0  2  0  0  0  0  0  0
  187.7450  176.5670  146.9640 C   0  0  0  0  0  2  0  0  0  0  0  0
  191.5190  176.4330  146.6690 C   0  0  0  0  0  3  0  0  0  0  0  0
  186.6550  178.1150  141.2790 O   0  0  0  0  0  1  0  0  0  0  0  0
  188.6940  174.9830  141.0450 C   0  0  0  0  0  2  0  0  0  0  0  0
  190.5720  174.5340  145.4980 C   0  0  0  0  0  0  0  0  0  0  0  0
  190.4760  173.6400  143.1890 C   0  0  2  0  0  3  0  0  0  0  0  0
  189.1040  173.5410  142.9290 O   0  0  0  0  0  0  0  0  0  0  0  0
  191.1910  172.6970  142.3500 N   0  0  0  0  0  1  0  0  0  0  0  0
  189.1190  176.1070  146.6300 C   0  0  0  0  0  0  0  0  0  0  0  0
  189.2890  174.9520  145.8620 C   0  0  0  0  0  3  0  0  0  0  0  0
  187.1480  176.4640  143.0410 C   0  0  1  0  0  3  0  0  0  0  0  0
  187.3980  175.0680  143.0760 O   0  0  0  0  0  0  0  0  0  0  0  0
  187.5490  177.1220  141.6880 C   0  0  1  0  0  3  0  0  0  0  0  0
  190.2350  176.8500  147.0320 C   0  0  0  0  0  3  0  0  0  0  0  0
  185.2280  178.8980  145.3980 C   0  0  0  0  0  0  0  0  0  0  0  0
  183.8770  179.1770  145.5770 O   0  0  0  0  0  1  0  0  0  0  0  0
  185.9880  179.7800  144.9220 O   0  0  0  0  0  0  0  0  0  0  0  0
  1  9  1  0  0  0  0
  2 23  1  6  0  0  0
  2  1  1  0  0  0  0
  3 13  1  0  0  0  0
  4  8  1  0  0  0  0
  5 10  1  0  0  0  0
  6 12  1  6  0  0  0
  6 15  1  0  0  0  0
  6 20  1  0  0  0  0
  7 12  1  0  0  0  0
  7 21  1  0  0  0  0
  8  2  1  0  0  0  0
 10 22  2  0  0  0  0
 13 18  1  0  0  0  0
 13  5  2  0  0  0  0
 14 16  1  6  0  0  0
 14  3  1  0  0  0  0
 15 14  1  0  0  0  0
 17  9  1  0  0  0  0
 17 22  1  0  0  0  0
 18 17  2  0  0  0  0
 19 20  1  0  0  0  0
 19  4  1  6  0  0  0
 21 11  1  6  0  0  0
 21 19  1  0  0  0  0
 23 24  1  0  0  0  0
 25 23  2  0  0  0  0
M  END
>  <MODEL>
5

>  <REMARK>
 VINA RESULT:      -7.8      1.646      2.240
  Name = 
  1 active torsions:
  status: ('A' for Active; 'I' for Inactive)
    1  A    between atoms: C_1  and  C_3
                            x       y       z     vdW  Elec       q    Type
                         _______ _______ _______ _____ _____    ______ ____

>  <TORSDO>
F 1

$$$$
=
 OpenBabel11072409413D

 25 27  0  0  1  0  0  0  0  0999 V2000
  189.5700  176.5140  145.1450 C   0  0  0  0  0  2  0  0  0  0  0  0
  190.7880  177.0190  144.3890 C   0  0  2  0  0  3  0  0  0  0  0  0
  184.5290  179.1320  144.9890 C   0  0  0  0  0  2  0  0  0  0  0  0
  189.7470  177.3690  142.0670 C   0  0  0  0  0  2  0  0  0  0  0  0
  184.8760  177.2710  146.6250 C   0  0  0  0  0  3  0  0  0  0  0  0
  186.1700  177.9800  142.3760 C   0  0  2  0  0  3  0  0  0  0  0  0
  186.8050  176.7470  140.2580 C   0  0  0  0  0  2  0  0  0  0  0  0
  190.4130  178.0140  143.2820 C   0  0  0  0  0  2  0  0  0  0  0  0
  189.1240  177.5570  146.1550 C   0  0  0  0  0  2  0  0  0  0  0  0
  185.7140  176.4100  147.3420 C   0  0  0  0  0  3  0  0  0  0  0  0
  188.7150  175.3330  140.6060 O   0  0  0  0  0  1  0  0  0  0  0  0
  185.7070  177.5310  140.9810 C   0  0  0  0  0  2  0  0  0  0  0  0
  185.4260  178.2370  145.7750 C   0  0  0  0  0  0  0  0  0  0  0  0
  184.3940  178.6320  143.5580 C   0  0  2  0  0  3  0  0  0  0  0  0
  185.4540  179.1130  142.7790 O   0  0  0  0  0  0  0  0  0  0  0  0
  183.1400  179.1080  143.0040 N   0  0  0  0  0  1  0  0  0  0  0  0
  187.6520  177.4740  146.3520 C   0  0  0  0  0  0  0  0  0  0  0  0
  186.8140  178.3350  145.6380 C   0  0  0  0  0  3  0  0  0  0  0  0
  188.2710  177.0570  142.3110 C   0  0  1  0  0  3  0  0  0  0  0  0
  187.5460  178.2760  142.3500 O   0  0  0  0  0  0  0  0  0  0  0  0
  187.7120  176.0480  141.2650 C   0  0  1  0  0  3  0  0  0  0  0  0
  187.1010  176.5090  147.2030 C   0  0  0  0  0  3  0  0  0  0  0  0
  191.6360  175.8920  143.8880 C   0  0  0  0  0  0  0  0  0  0  0  0
  192.8960  176.1360  143.3530 O   0  0  0  0  0  0  0  0  0  0  0  0
  191.2150  174.7100  143.9780 O   0  0  0  0  0  1  0  0  0  0  0  0
  1  9  1  0  0  0  0
  2 23  1  6  0  0  0
  2  1  1  0  0  0  0
  3 13  1  0  0  0  0
  4  8  1  0  0  0  0
  5 10  1  0  0  0  0
  6 12  1  6  0  0  0
  6 15  1  0  0  0  0
  7 12  1  0  0  0  0
  7 21  1  0  0  0  0
  8  2  1  0  0  0  0
  9 17  1  0  0  0  0
 13  5  2  0  0  0  0
 14 16  1  6  0  0  0
 14  3  1  0  0  0  0
 15 14  1  0  0  0  0
 17 22  1  0  0  0  0
 18 13  1  0  0  0  0
 18 17  2  0  0  0  0
 19  4  1  6  0  0  0
 19 20  1  0  0  0  0
 20  6  1  0  0  0  0
 21 11  1  6  0  0  0
 21 19  1  0  0  0  0
 22 10  2  0  0  0  0
 23 25  1  0  0  0  0
 24 23  2  0  0  0  0
M  END
>  <MODEL>
6

>  <REMARK>
 VINA RESULT:      -7.6      2.658      5.435
  Name = 
  1 active torsions:
  status: ('A' for Active; 'I' for Inactive)
    1  A    between atoms: C_1  and  C_3
                            x       y       z     vdW  Elec       q    Type
                         _______ _______ _______ _____ _____    ______ ____

>  <TORSDO>
F 1

$$$$
=
 OpenBabel11072409413D

 25 27  0  0  1  0  0  0  0  0999 V2000
  189.3310  174.4880  142.0050 C   0  0  0  0  0  2  0  0  0  0  0  0
  189.7940  173.0670  142.2770 C   0  0  2  0  0  3  0  0  0  0  0  0
  186.1460  177.4560  145.6560 C   0  0  0  0  0  2  0  0  0  0  0  0
  190.7380  173.3620  144.6470 C   0  0  0  0  0  2  0  0  0  0  0  0
  186.5280  178.3750  143.3600 C   0  0  0  0  0  3  0  0  0  0  0  0
  189.1020  176.1590  146.3090 C   0  0  2  0  0  3  0  0  0  0  0  0
  191.5170  175.8460  147.0000 C   0  0  0  0  0  2  0  0  0  0  0  0
  189.6850  172.6950  143.7630 C   0  0  0  0  0  2  0  0  0  0  0  0
  187.8130  174.5350  141.9630 C   0  0  0  0  0  2  0  0  0  0  0  0
  186.9200  178.2160  142.0270 C   0  0  0  0  0  3  0  0  0  0  0  0
  192.8410  174.9820  145.1920 O   0  0  0  0  0  1  0  0  0  0  0  0
  190.1860  176.5230  147.3350 C   0  0  0  0  0  2  0  0  0  0  0  0
  186.5340  177.2770  144.2280 C   0  0  0  0  0  0  0  0  0  0  0  0
  187.3810  177.5610  146.5380 C   0  0  2  0  0  3  0  0  0  0  0  0
  187.8330  176.2820  146.8860 O   0  0  0  0  0  0  0  0  0  0  0  0
  187.0450  178.2940  147.7450 N   0  0  0  0  0  1  0  0  0  0  0  0
  187.3340  175.8630  142.4290 C   0  0  0  0  0  0  0  0  0  0  0  0
  186.9400  176.0230  143.7610 C   0  0  0  0  0  3  0  0  0  0  0  0
  190.3930  174.8150  144.9670 C   0  0  1  0  0  3  0  0  0  0  0  0
  189.2920  174.8370  145.8630 O   0  0  0  0  0  0  0  0  0  0  0  0
  191.6270  175.6010  145.4990 C   0  0  1  0  0  3  0  0  0  0  0  0
  187.3260  176.9620  141.5620 C   0  0  0  0  0  3  0  0  0  0  0  0
  191.1580  172.8110  141.7180 C   0  0  0  0  0  0  0  0  0  0  0  0
  191.6690  171.5190  141.6540 O   0  0  0  0  0  1  0  0  0  0  0  0
  191.8380  173.7720  141.2740 O   0  0  0  0  0  0  0  0  0  0  0  0
  1  2  1  0  0  0  0
  2 23  1  1  0  0  0
  2  8  1  0  0  0  0
  3 14  1  0  0  0  0
  5 13  1  0  0  0  0
  6 15  1  0  0  0  0
  6 12  1  1  0  0  0
  7 12  1  0  0  0  0
  8  4  1  0  0  0  0
  9  1  1  0  0  0  0
  9 17  1  0  0  0  0
 10  5  2  0  0  0  0
 13  3  1  0  0  0  0
 14 15  1  0  0  0  0
 14 16  1  1  0  0  0
 17 18  1  0  0  0  0
 18 13  2  0  0  0  0
 19  4  1  1  0  0  0
 19 21  1  0  0  0  0
 19 20  1  0  0  0  0
 20  6  1  0  0  0  0
 21 11  1  1  0  0  0
 21  7  1  0  0  0  0
 22 10  1  0  0  0  0
 22 17  2  0  0  0  0
 24 23  1  0  0  0  0
 25 23  2  0  0  0  0
M  END
>  <MODEL>
7

>  <REMARK>
 VINA RESULT:      -7.5      2.971      6.773
  Name = 
  1 active torsions:
  status: ('A' for Active; 'I' for Inactive)
    1  A    between atoms: C_1  and  C_3
                            x       y       z     vdW  Elec       q    Type
                         _______ _______ _______ _____ _____    ______ ____

>  <TORSDO>
F 1

$$$$
=
 OpenBabel11072409413D

 25 27  0  0  1  0  0  0  0  0999 V2000
  193.5230  175.0490  146.0120 C   0  0  0  0  0  2  0  0  0  0  0  0
  194.7920  175.4970  145.3060 C   0  0  2  0  0  3  0  0  0  0  0  0
  188.3290  176.6460  144.3490 C   0  0  0  0  0  2  0  0  0  0  0  0
  194.1500  174.9660  142.8770 C   0  0  0  0  0  2  0  0  0  0  0  0
  188.5850  175.4380  146.5260 C   0  0  0  0  0  3  0  0  0  0  0  0
  190.5300  175.0510  142.4880 C   0  0  2  0  0  3  0  0  0  0  0  0
  191.6680  173.3640  140.9820 C   0  0  0  0  0  2  0  0  0  0  0  0
  194.5110  176.0430  143.8990 C   0  0  0  0  0  2  0  0  0  0  0  0
  192.7890  176.2580  146.5660 C   0  0  0  0  0  2  0  0  0  0  0  0
  189.3720  174.9770  147.5860 C   0  0  0  0  0  3  0  0  0  0  0  0
  193.6310  172.4480  142.0180 O   0  0  0  0  0  1  0  0  0  0  0  0
  190.3770  174.1390  141.2620 C   0  0  0  0  0  2  0  0  0  0  0  0
  189.1660  176.1830  145.4940 C   0  0  0  0  0  0  0  0  0  0  0  0
  188.5090  175.7280  143.1500 C   0  0  2  0  0  3  0  0  0  0  0  0
  189.6300  176.1200  142.4080 O   0  0  0  0  0  0  0  0  0  0  0  0
  187.3280  175.8060  142.3090 N   0  0  0  0  0  1  0  0  0  0  0  0
  191.3250  175.9990  146.5790 C   0  0  0  0  0  0  0  0  0  0  0  0
  190.5360  176.4610  145.5210 C   0  0  0  0  0  3  0  0  0  0  0  0
  192.6990  174.5050  143.0060 C   0  0  1  0  0  3  0  0  0  0  0  0
  191.8460  175.5450  142.5550 O   0  0  0  0  0  0  0  0  0  0  0  0
  192.4520  173.1540  142.2730 C   0  0  1  0  0  3  0  0  0  0  0  0
  190.7420  175.2540  147.6120 C   0  0  0  0  0  3  0  0  0  0  0  0
  195.8370  174.4260  145.3110 C   0  0  0  0  0  0  0  0  0  0  0  0
  195.5230  173.1310  145.7080 O   0  0  0  0  0  1  0  0  0  0  0  0
  197.0030  174.6940  144.9230 O   0  0  0  0  0  0  0  0  0  0  0  0
  1  9  1  0  0  0  0
  2 23  1  6  0  0  0
  2  1  1  0  0  0  0
  3 13  1  0  0  0  0
  4  8  1  0  0  0  0
  5 10  1  0  0  0  0
  6 12  1  6  0  0  0
  6 20  1  0  0  0  0
  7 12  1  0  0  0  0
  7 21  1  0  0  0  0
  8  2  1  0  0  0  0
  9 17  1  0  0  0  0
 10 22  2  0  0  0  0
 13 18  1  0  0  0  0
 13  5  2  0  0  0  0
 14 16  1  6  0  0  0
 14  3  1  0  0  0  0
 15  6  1  0  0  0  0
 15 14  1  0  0  0  0
 17 22  1  0  0  0  0
 18 17  2  0  0  0  0
 19  4  1  6  0  0  0
 20 19  1  0  0  0  0
 21 11  1  6  0  0  0
 21 19  1  0  0  0  0
 23 24  1  0  0  0  0
 25 23  2  0  0  0  0
M  END
>  <MODEL>
8

>  <REMARK>
 VINA RESULT:      -7.2      3.732      6.746
  Name = 
  1 active torsions:
  status: ('A' for Active; 'I' for Inactive)
    1  A    between atoms: C_1  and  C_3
                            x       y       z     vdW  Elec       q    Type
                         _______ _______ _______ _____ _____    ______ ____

>  <TORSDO>
F 1

$$$$
=
 OpenBabel11072409413D

 25 27  0  0  1  0  0  0  0  0999 V2000
  187.0870  175.6980  142.3850 C   0  0  0  0  0  2  0  0  0  0  0  0
  186.7550  177.1460  142.0650 C   0  0  2  0  0  3  0  0  0  0  0  0
  192.2720  173.9900  143.9630 C   0  0  0  0  0  2  0  0  0  0  0  0
  187.7620  178.2910  144.1320 C   0  0  0  0  0  2  0  0  0  0  0  0
  190.5370  172.2640  143.4360 C   0  0  0  0  0  3  0  0  0  0  0  0
  190.4480  176.2550  145.5100 C   0  0  2  0  0  3  0  0  0  0  0  0
  189.1680  177.5570  147.2630 C   0  0  0  0  0  2  0  0  0  0  0  0
  187.8090  178.1180  142.6150 C   0  0  0  0  0  2  0  0  0  0  0  0
  188.1430  175.1880  141.4190 C   0  0  0  0  0  2  0  0  0  0  0  0
  189.3160  171.8890  142.8660 C   0  0  0  0  0  3  0  0  0  0  0  0
  186.8620  177.8240  146.6460 O   0  0  0  0  0  1  0  0  0  0  0  0
  190.4360  176.7540  146.9630 C   0  0  0  0  0  2  0  0  0  0  0  0
  190.9840  173.5860  143.3270 C   0  0  0  0  0  0  0  0  0  0  0  0
  192.0170  174.6830  145.2930 C   0  0  2  0  0  3  0  0  0  0  0  0
  191.7650  176.0440  145.0840 O   0  0  0  0  0  0  0  0  0  0  0  0
  193.1890  174.5380  146.1380 N   0  0  0  0  0  1  0  0  0  0  0  0
  188.9840  174.1580  142.0860 C   0  0  0  0  0  0  0  0  0  0  0  0
  190.2050  174.5310  142.6540 C   0  0  0  0  0  3  0  0  0  0  0  0
  188.4240  177.1280  144.8710 C   0  0  1  0  0  3  0  0  0  0  0  0
  189.8270  177.2020  144.6740 O   0  0  0  0  0  0  0  0  0  0  0  0
  188.0200  177.0910  146.3740 C   0  0  1  0  0  3  0  0  0  0  0  0
  188.5380  172.8360  142.1940 C   0  0  0  0  0  3  0  0  0  0  0  0
  185.3650  177.5030  142.4900 C   0  0  0  0  0  0  0  0  0  0  0  0
  184.9020  177.1660  143.7570 O   0  0  0  0  0  1  0  0  0  0  0  0
  184.6190  178.1390  141.7030 O   0  0  0  0  0  0  0  0  0  0  0  0
  2  1  1  0  0  0  0
  2 23  1  1  0  0  0
  2  8  1  0  0  0  0
  3 14  1  0  0  0  0
  6 12  1  1  0  0  0
  8  4  1  0  0  0  0
  9 17  1  0  0  0  0
  9  1  1  0  0  0  0
 10  5  2  0  0  0  0
 12  7  1  0  0  0  0
 13  5  1  0  0  0  0
 13  3  1  0  0  0  0
 14 16  1  1  0  0  0
 15 14  1  0  0  0  0
 15  6  1  0  0  0  0
 17 22  2  0  0  0  0
 17 18  1  0  0  0  0
 18 13  2  0  0  0  0
 19  4  1  1  0  0  0
 19 21  1  0  0  0  0
 20 19  1  0  0  0  0
 20  6  1  0  0  0  0
 21 11  1  6  0  0  0
 21  7  1  0  0  0  0
 22 10  1  0  0  0  0
 23 24  1  0  0  0  0
 25 23  2  0  0  0  0
M  END
>  <MODEL>
9

>  <REMARK>
 VINA RESULT:      -7.1      2.436      4.769
  Name = 
  1 active torsions:
  status: ('A' for Active; 'I' for Inactive)
    1  A    between atoms: C_1  and  C_3
                            x       y       z     vdW  Elec       q    Type
                         _______ _______ _______ _____ _____    ______ ____

>  <TORSDO>
F 1

$$$$
