=
 OpenBabel11062419033D

 32 33  0  0  1  0  0  0  0  0999 V2000
  191.7360  175.3350  144.9590 C   0  0  2  0  0  3  0  0  0  0  0  0
  189.7370  177.2000  146.3440 C   0  0  0  0  0  3  0  0  0  0  0  0
  191.6200  176.5350  144.0390 C   0  0  0  0  0  2  0  0  0  0  0  0
  190.1850  176.8940  143.8710 C   0  0  0  0  0  0  0  0  0  0  0  0
  191.7570  175.7800  146.3430 N   0  0  0  0  0  2  0  0  0  0  0  0
  189.3920  177.2030  144.9060 C   0  0  0  0  0  3  0  0  0  0  0  0
  190.7660  176.6080  146.9640 C   0  0  0  0  0  3  0  0  0  0  0  0
  193.7070  174.0530  145.9060 C   0  0  0  0  0  2  0  0  0  0  0  0
  193.8610  175.2150  143.8350 O   0  0  0  0  0  0  0  0  0  0  0  0
  192.9750  174.4950  144.6530 C   0  0  2  0  0  3  0  0  0  0  0  0
  195.1560  174.1800  145.5440 C   0  0  2  0  0  3  0  0  0  0  0  0
  195.1400  174.7110  144.1260 C   0  0  2  0  0  3  0  0  0  0  0  0
  195.8120  172.8150  145.5710 C   0  0  0  0  0  1  0  0  0  0  0  0
  195.7290  177.0340  144.3840 O   0  0  0  0  0  1  0  0  0  0  0  0
  196.2040  175.7940  143.9480 C   0  0  2  0  0  3  0  0  0  0  0  0
  196.0130  176.7580  141.6470 O   0  0  0  0  0  1  0  0  0  0  0  0
  196.6430  175.8840  142.5250 C   0  0  0  0  0  0  0  0  0  0  0  0
  197.6270  175.1110  142.0910 C   0  0  0  0  0  2  0  0  0  0  0  0
  189.0220  175.2770  141.9480 S   0  0  0  0  0  1  0  0  0  0  0  0
  189.6480  176.9080  142.4700 C   0  0  1  0  0  3  0  0  0  0  0  0
  188.6490  178.0360  142.2030 C   0  0  0  0  0  2  0  0  0  0  0  0
  187.3470  177.5390  141.5760 C   0  0  0  0  0  2  0  0  0  0  0  0
  186.1130  178.2510  142.1300 C   0  0  1  0  0  3  0  0  0  0  0  0
  185.1620  178.5210  141.1360 O   0  0  0  0  0  0  0  0  0  0  0  0
  185.5800  177.7810  140.0290 C   0  0  0  0  0  1  0  0  0  0  0  0
  185.4900  177.5590  143.3480 C   0  0  1  0  0  3  0  0  0  0  0  0
  185.8570  176.2100  143.3260 O   0  0  0  0  0  1  0  0  0  0  0  0
  185.6380  179.7200  144.6170 C   0  0  0  0  0  1  0  0  0  0  0  0
  185.8800  178.2220  144.6830 C   0  0  1  0  0  3  0  0  0  0  0  0
  185.1260  177.6680  145.8530 C   0  0  0  0  0  0  0  0  0  0  0  0
  185.5880  176.6810  146.4820 O   0  0  0  0  0  1  0  0  0  0  0  0
  183.9200  178.2360  146.2490 O   0  0  0  0  0  0  0  0  0  0  0  0
  1  3  1  6  0  0  0
  1  5  1  0  0  0  0
  2  7  2  0  0  0  0
  4  3  1  0  0  0  0
  4  6  2  0  0  0  0
  5  7  1  0  0  0  0
  6  2  1  0  0  0  0
  9 12  1  0  0  0  0
  9 10  1  0  0  0  0
 10  1  1  0  0  0  0
 10  8  1  1  0  0  0
 11 13  1  6  0  0  0
 11  8  1  0  0  0  0
 12 15  1  1  0  0  0
 12 11  1  0  0  0  0
 15 14  1  6  0  0  0
 16 17  1  0  0  0  0
 17 15  1  0  0  0  0
 18 17  2  0  0  0  0
 20 19  1  1  0  0  0
 20  4  1  0  0  0  0
 21 20  1  0  0  0  0
 22 21  1  0  0  0  0
 23 22  1  6  0  0  0
 23 26  1  0  0  0  0
 24 23  1  0  0  0  0
 25 24  1  0  0  0  0
 26 27  1  1  0  0  0
 26 29  1  0  0  0  0
 29 28  1  6  0  0  0
 29 30  1  0  0  0  0
 30 32  2  0  0  0  0
 30 31  1  0  0  0  0
M  END
>  <MODEL>
1

>  <REMARK>
 VINA RESULT:      -6.7      0.000      0.000
  Name = 
  11 active torsions:
  status: ('A' for Active; 'I' for Inactive)
    1  A    between atoms: C_1  and  C_19
    2  A    between atoms: C_1  and  C_30
    3  A    between atoms: O_2  and  C_30
    4  A    between atoms: C_4  and  C_11
    5  A    between atoms: C_8  and  C_17
    6  A    between atoms: C_14  and  C_15
    7  A    between atoms: C_14  and  C_19
    8  A    between atoms: C_17  and  C_23
    9  A    between atoms: C_20  and  C_24
   10  A    between atoms: C_20  and  C_31
   11  A    between atoms: C_23  and  C_30
                            x       y       z     vdW  Elec       q    Type
                         _______ _______ _______ _____ _____    ______ ____

>  <TORSDO>
F 11

$$$$
=
 OpenBabel11062419033D

 32 33  0  0  1  0  0  0  0  0999 V2000
  189.2470  176.7910  146.2040 C   0  0  2  0  0  3  0  0  0  0  0  0
  191.8790  175.8670  147.4730 C   0  0  0  0  0  3  0  0  0  0  0  0
  189.1070  175.2870  146.3430 C   0  0  0  0  0  2  0  0  0  0  0  0
  190.3560  174.6270  145.8760 C   0  0  0  0  0  0  0  0  0  0  0  0
  189.8940  177.3340  147.3870 N   0  0  0  0  0  2  0  0  0  0  0  0
  191.5550  174.8900  146.4120 C   0  0  0  0  0  3  0  0  0  0  0  0
  191.1570  176.9070  147.9120 C   0  0  0  0  0  3  0  0  0  0  0  0
  186.7680  176.8050  146.7300 C   0  0  0  0  0  2  0  0  0  0  0  0
  187.5900  177.4920  144.6060 O   0  0  0  0  0  0  0  0  0  0  0  0
  187.9000  177.4750  145.9740 C   0  0  2  0  0  3  0  0  0  0  0  0
  185.6170  176.8480  145.7720 C   0  0  2  0  0  3  0  0  0  0  0  0
  186.1860  177.5090  144.5350 C   0  0  2  0  0  3  0  0  0  0  0  0
  184.5050  177.7030  146.3430 C   0  0  0  0  0  1  0  0  0  0  0  0
  186.7600  176.1930  142.5990 O   0  0  0  0  0  1  0  0  0  0  0  0
  185.6970  176.7980  143.2730 C   0  0  2  0  0  3  0  0  0  0  0  0
  183.6910  178.1600  142.6530 O   0  0  0  0  0  1  0  0  0  0  0  0
  184.9870  177.7470  142.3660 C   0  0  0  0  0  0  0  0  0  0  0  0
  185.5880  178.1820  141.2700 C   0  0  0  0  0  2  0  0  0  0  0  0
  189.5430  174.3640  143.2420 S   0  0  0  0  0  1  0  0  0  0  0  0
  190.2220  173.6260  144.7650 C   0  0  1  0  0  3  0  0  0  0  0  0
  191.4910  172.8120  144.5110 C   0  0  0  0  0  2  0  0  0  0  0  0
  192.2650  173.2870  143.2830 C   0  0  0  0  0  2  0  0  0  0  0  0
  193.7100  173.6740  143.6050 C   0  0  1  0  0  3  0  0  0  0  0  0
  194.6380  172.8180  143.0000 O   0  0  0  0  0  0  0  0  0  0  0  0
  194.6900  173.2270  141.6670 C   0  0  0  0  0  1  0  0  0  0  0  0
  194.0310  175.1500  143.3410 C   0  0  1  0  0  3  0  0  0  0  0  0
  192.8300  175.8630  143.2920 O   0  0  0  0  0  1  0  0  0  0  0  0
  195.0620  174.8670  145.6120 C   0  0  0  0  0  1  0  0  0  0  0  0
  194.9970  175.7520  144.3800 C   0  0  1  0  0  3  0  0  0  0  0  0
  196.3850  175.9370  143.8500 C   0  0  0  0  0  0  0  0  0  0  0  0
  196.7450  177.0640  143.4250 O   0  0  0  0  0  0  0  0  0  0  0  0
  197.2780  174.8710  143.8230 O   0  0  0  0  0  1  0  0  0  0  0  0
  1  3  1  1  0  0  0
  1  5  1  0  0  0  0
  2  7  2  0  0  0  0
  4  3  1  0  0  0  0
  4  6  2  0  0  0  0
  5  7  1  0  0  0  0
  6  2  1  0  0  0  0
  9 10  1  0  0  0  0
 10  1  1  0  0  0  0
 10  8  1  1  0  0  0
 11 13  1  1  0  0  0
 11  8  1  0  0  0  0
 12 15  1  6  0  0  0
 12  9  1  0  0  0  0
 12 11  1  0  0  0  0
 15 14  1  6  0  0  0
 17 16  1  0  0  0  0
 17 15  1  0  0  0  0
 18 17  2  0  0  0  0
 20 19  1  6  0  0  0
 20  4  1  0  0  0  0
 21 20  1  0  0  0  0
 22 21  1  0  0  0  0
 23 22  1  6  0  0  0
 24 23  1  0  0  0  0
 25 24  1  0  0  0  0
 26 27  1  1  0  0  0
 26 23  1  0  0  0  0
 26 29  1  0  0  0  0
 29 28  1  1  0  0  0
 30 29  1  0  0  0  0
 31 30  2  0  0  0  0
 32 30  1  0  0  0  0
M  END
>  <MODEL>
2

>  <REMARK>
 VINA RESULT:      -6.7      1.945      8.649
  Name = 
  11 active torsions:
  status: ('A' for Active; 'I' for Inactive)
    1  A    between atoms: C_1  and  C_19
    2  A    between atoms: C_1  and  C_30
    3  A    between atoms: O_2  and  C_30
    4  A    between atoms: C_4  and  C_11
    5  A    between atoms: C_8  and  C_17
    6  A    between atoms: C_14  and  C_15
    7  A    between atoms: C_14  and  C_19
    8  A    between atoms: C_17  and  C_23
    9  A    between atoms: C_20  and  C_24
   10  A    between atoms: C_20  and  C_31
   11  A    between atoms: C_23  and  C_30
                            x       y       z     vdW  Elec       q    Type
                         _______ _______ _______ _____ _____    ______ ____

>  <TORSDO>
F 11

$$$$
=
 OpenBabel11062419033D

 32 33  0  0  1  0  0  0  0  0999 V2000
  191.9670  176.3620  145.3060 C   0  0  2  0  0  3  0  0  0  0  0  0
  189.1240  176.2360  146.4430 C   0  0  0  0  0  3  0  0  0  0  0  0
  191.1890  177.4090  144.5310 C   0  0  0  0  0  2  0  0  0  0  0  0
  189.8810  176.8420  144.1040 C   0  0  0  0  0  0  0  0  0  0  0  0
  191.5740  176.3960  146.7050 N   0  0  0  0  0  2  0  0  0  0  0  0
  188.9870  176.3550  144.9750 C   0  0  0  0  0  3  0  0  0  0  0  0
  190.2320  176.2760  147.1940 C   0  0  0  0  0  3  0  0  0  0  0  0
  193.9860  176.2390  143.7790 C   0  0  0  0  0  2  0  0  0  0  0  0
  194.1530  175.7440  146.1000 O   0  0  0  0  0  0  0  0  0  0  0  0
  193.4770  176.5530  145.1730 C   0  0  2  0  0  3  0  0  0  0  0  0
  195.2880  175.5360  144.0180 C   0  0  2  0  0  3  0  0  0  0  0  0
  195.4070  175.4750  145.5260 C   0  0  2  0  0  3  0  0  0  0  0  0
  196.4260  176.3560  143.4470 C   0  0  0  0  0  1  0  0  0  0  0  0
  197.2990  173.9970  145.7350 O   0  0  0  0  0  1  0  0  0  0  0  0
  195.9260  174.1070  145.9680 C   0  0  2  0  0  3  0  0  0  0  0  0
  193.8510  172.7780  145.5320 O   0  0  0  0  0  1  0  0  0  0  0  0
  195.1960  173.0080  145.2700 C   0  0  0  0  0  0  0  0  0  0  0  0
  195.8410  172.2340  144.4110 C   0  0  0  0  0  2  0  0  0  0  0  0
  189.0320  175.2130  142.0330 S   0  0  0  0  0  1  0  0  0  0  0  0
  189.5870  176.8420  142.6330 C   0  0  1  0  0  3  0  0  0  0  0  0
  188.6670  177.9790  142.1870 C   0  0  0  0  0  2  0  0  0  0  0  0
  187.3770  177.4790  141.5390 C   0  0  0  0  0  2  0  0  0  0  0  0
  186.1320  178.1970  142.0630 C   0  0  1  0  0  3  0  0  0  0  0  0
  185.1900  178.4350  141.0550 O   0  0  0  0  0  0  0  0  0  0  0  0
  185.6720  177.7430  139.9420 C   0  0  0  0  0  1  0  0  0  0  0  0
  185.5030  177.5310  143.2930 C   0  0  1  0  0  3  0  0  0  0  0  0
  185.8910  176.1880  143.3160 O   0  0  0  0  0  1  0  0  0  0  0  0
  185.6580  179.7400  144.4770 C   0  0  0  0  0  1  0  0  0  0  0  0
  185.8620  178.2410  144.6130 C   0  0  1  0  0  3  0  0  0  0  0  0
  185.0560  177.7530  145.7760 C   0  0  0  0  0  0  0  0  0  0  0  0
  185.4650  176.7730  146.4510 O   0  0  0  0  0  1  0  0  0  0  0  0
  183.8590  178.3730  146.1160 O   0  0  0  0  0  0  0  0  0  0  0  0
  1  3  1  6  0  0  0
  1  5  1  0  0  0  0
  2  7  2  0  0  0  0
  4  3  1  0  0  0  0
  4  6  2  0  0  0  0
  5  7  1  0  0  0  0
  6  2  1  0  0  0  0
  8 11  1  0  0  0  0
 10  8  1  6  0  0  0
 10  1  1  0  0  0  0
 10  9  1  0  0  0  0
 11 13  1  6  0  0  0
 11 12  1  0  0  0  0
 12 15  1  6  0  0  0
 12  9  1  0  0  0  0
 15 14  1  6  0  0  0
 17 16  1  0  0  0  0
 17 15  1  0  0  0  0
 18 17  2  0  0  0  0
 20 19  1  1  0  0  0
 20  4  1  0  0  0  0
 21 20  1  0  0  0  0
 22 21  1  0  0  0  0
 23 22  1  6  0  0  0
 23 26  1  0  0  0  0
 24 23  1  0  0  0  0
 25 24  1  0  0  0  0
 26 27  1  1  0  0  0
 26 29  1  0  0  0  0
 29 28  1  6  0  0  0
 29 30  1  0  0  0  0
 30 32  2  0  0  0  0
 30 31  1  0  0  0  0
M  END
>  <MODEL>
3

>  <REMARK>
 VINA RESULT:      -6.6      1.368      2.097
  Name = 
  11 active torsions:
  status: ('A' for Active; 'I' for Inactive)
    1  A    between atoms: C_1  and  C_19
    2  A    between atoms: C_1  and  C_30
    3  A    between atoms: O_2  and  C_30
    4  A    between atoms: C_4  and  C_11
    5  A    between atoms: C_8  and  C_17
    6  A    between atoms: C_14  and  C_15
    7  A    between atoms: C_14  and  C_19
    8  A    between atoms: C_17  and  C_23
    9  A    between atoms: C_20  and  C_24
   10  A    between atoms: C_20  and  C_31
   11  A    between atoms: C_23  and  C_30
                            x       y       z     vdW  Elec       q    Type
                         _______ _______ _______ _____ _____    ______ ____

>  <TORSDO>
F 11

$$$$
=
 OpenBabel11062419033D

 32 33  0  0  1  0  0  0  0  0999 V2000
  191.6040  174.0280  143.4410 C   0  0  2  0  0  3  0  0  0  0  0  0
  190.6370  171.2480  142.5890 C   0  0  0  0  0  3  0  0  0  0  0  0
  190.1060  174.1750  143.2590 C   0  0  0  0  0  2  0  0  0  0  0  0
  189.6930  173.5190  141.9880 C   0  0  0  0  0  0  0  0  0  0  0  0
  191.8970  172.7570  144.0830 N   0  0  0  0  0  2  0  0  0  0  0  0
  189.9230  172.2230  141.7370 C   0  0  0  0  0  3  0  0  0  0  0  0
  191.4690  171.4720  143.6140 C   0  0  0  0  0  3  0  0  0  0  0  0
  193.3830  174.7510  145.0950 C   0  0  0  0  0  2  0  0  0  0  0  0
  191.2230  175.7480  145.0800 O   0  0  0  0  0  0  0  0  0  0  0  0
  192.2000  175.1800  144.2480 C   0  0  2  0  0  3  0  0  0  0  0  0
  193.2050  175.5070  146.3770 C   0  0  2  0  0  3  0  0  0  0  0  0
  191.9220  176.2840  146.1750 C   0  0  2  0  0  3  0  0  0  0  0  0
  194.3600  176.4670  146.5700 C   0  0  0  0  0  1  0  0  0  0  0  0
  191.4000  175.1400  148.2300 O   0  0  0  0  0  1  0  0  0  0  0  0
  191.0660  176.2430  147.4400 C   0  0  2  0  0  3  0  0  0  0  0  0
  188.9460  177.3760  146.7430 O   0  0  0  0  0  1  0  0  0  0  0  0
  189.6120  176.2110  147.1020 C   0  0  0  0  0  0  0  0  0  0  0  0
  188.9490  175.0660  147.1630 C   0  0  0  0  0  2  0  0  0  0  0  0
  188.6620  173.4900  139.4190 S   0  0  0  0  0  1  0  0  0  0  0  0
  188.9860  174.3760  140.9790 C   0  0  1  0  0  3  0  0  0  0  0  0
  187.7430  175.0780  141.5270 C   0  0  0  0  0  2  0  0  0  0  0  0
  187.5800  176.5000  140.9920 C   0  0  0  0  0  2  0  0  0  0  0  0
  187.7860  177.5670  142.0680 C   0  0  1  0  0  3  0  0  0  0  0  0
  188.9360  178.3350  141.8430 O   0  0  0  0  0  0  0  0  0  0  0  0
  189.8630  177.8780  142.7810 C   0  0  0  0  0  1  0  0  0  0  0  0
  186.5520  178.4400  142.3220 C   0  0  1  0  0  3  0  0  0  0  0  0
  185.6940  178.3230  141.2250 O   0  0  0  0  0  1  0  0  0  0  0  0
  186.5550  176.9700  144.3580 C   0  0  0  0  0  1  0  0  0  0  0  0
  185.8280  178.0920  143.6370 C   0  0  1  0  0  3  0  0  0  0  0  0
  185.7120  179.2600  144.5670 C   0  0  0  0  0  0  0  0  0  0  0  0
  185.4920  180.4080  144.1020 O   0  0  0  0  0  0  0  0  0  0  0  0
  185.8450  179.0850  145.9400 O   0  0  0  0  0  1  0  0  0  0  0  0
  1  3  1  1  0  0  0
  1  5  1  0  0  0  0
  1 10  1  0  0  0  0
  2  7  2  0  0  0  0
  4  3  1  0  0  0  0
  6  4  2  0  0  0  0
  6  2  1  0  0  0  0
  7  5  1  0  0  0  0
  8 11  1  0  0  0  0
  9 12  1  0  0  0  0
 10  9  1  0  0  0  0
 10  8  1  1  0  0  0
 11 13  1  6  0  0  0
 12 11  1  0  0  0  0
 12 15  1  1  0  0  0
 15 14  1  6  0  0  0
 16 17  1  0  0  0  0
 17 18  2  0  0  0  0
 17 15  1  0  0  0  0
 20 19  1  6  0  0  0
 20 21  1  0  0  0  0
 20  4  1  0  0  0  0
 22 21  1  0  0  0  0
 23 22  1  6  0  0  0
 23 26  1  0  0  0  0
 24 23  1  0  0  0  0
 24 25  1  0  0  0  0
 26 27  1  6  0  0  0
 26 29  1  0  0  0  0
 29 28  1  1  0  0  0
 29 30  1  0  0  0  0
 30 32  1  0  0  0  0
 31 30  2  0  0  0  0
M  END
>  <MODEL>
4

>  <REMARK>
 VINA RESULT:      -6.5      2.625      4.557
  Name = 
  11 active torsions:
  status: ('A' for Active; 'I' for Inactive)
    1  A    between atoms: C_1  and  C_19
    2  A    between atoms: C_1  and  C_30
    3  A    between atoms: O_2  and  C_30
    4  A    between atoms: C_4  and  C_11
    5  A    between atoms: C_8  and  C_17
    6  A    between atoms: C_14  and  C_15
    7  A    between atoms: C_14  and  C_19
    8  A    between atoms: C_17  and  C_23
    9  A    between atoms: C_20  and  C_24
   10  A    between atoms: C_20  and  C_31
   11  A    between atoms: C_23  and  C_30
                            x       y       z     vdW  Elec       q    Type
                         _______ _______ _______ _____ _____    ______ ____

>  <TORSDO>
F 11

$$$$
=
 OpenBabel11062419033D

 32 33  0  0  1  0  0  0  0  0999 V2000
  188.5830  177.0260  146.3360 C   0  0  2  0  0  3  0  0  0  0  0  0
  190.2370  174.5890  147.1840 C   0  0  0  0  0  3  0  0  0  0  0  0
  189.3190  176.5970  145.0810 C   0  0  0  0  0  2  0  0  0  0  0  0
  190.7450  176.3230  145.4100 C   0  0  0  0  0  0  0  0  0  0  0  0
  188.1180  175.8510  147.0560 N   0  0  0  0  0  2  0  0  0  0  0  0
  191.1120  175.4160  146.3250 C   0  0  0  0  0  3  0  0  0  0  0  0
  188.9420  174.7590  147.4830 C   0  0  0  0  0  3  0  0  0  0  0  0
  186.0700  177.3450  146.3800 C   0  0  0  0  0  2  0  0  0  0  0  0
  187.4130  178.3010  144.6650 O   0  0  0  0  0  0  0  0  0  0  0  0
  187.4120  177.9560  146.0260 C   0  0  2  0  0  3  0  0  0  0  0  0
  185.1690  177.7720  145.2610 C   0  0  2  0  0  3  0  0  0  0  0  0
  186.0710  178.5660  144.3400 C   0  0  2  0  0  3  0  0  0  0  0  0
  184.0720  178.6670  145.7980 C   0  0  0  0  0  1  0  0  0  0  0  0
  184.5190  177.6450  142.7430 O   0  0  0  0  0  1  0  0  0  0  0  0
  185.7860  178.2170  142.8790 C   0  0  2  0  0  3  0  0  0  0  0  0
  187.9240  177.7980  141.6480 O   0  0  0  0  0  1  0  0  0  0  0  0
  186.8270  177.2950  142.3370 C   0  0  0  0  0  0  0  0  0  0  0  0
  186.6940  175.9870  142.4970 C   0  0  0  0  0  2  0  0  0  0  0  0
  193.4580  176.8640  145.3270 S   0  0  0  0  0  1  0  0  0  0  0  0
  191.7800  177.1070  144.6590 C   0  0  1  0  0  3  0  0  0  0  0  0
  191.7160  176.9210  143.1420 C   0  0  0  0  0  2  0  0  0  0  0  0
  192.6680  175.8380  142.6370 C   0  0  0  0  0  2  0  0  0  0  0  0
  191.9550  174.7500  141.8330 C   0  0  1  0  0  3  0  0  0  0  0  0
  192.7030  173.5670  141.7570 O   0  0  0  0  0  0  0  0  0  0  0  0
  193.9790  173.9200  142.1990 C   0  0  0  0  0  1  0  0  0  0  0  0
  190.5120  174.4890  142.2810 C   0  0  1  0  0  3  0  0  0  0  0  0
  189.6500  174.9210  141.2680 O   0  0  0  0  0  1  0  0  0  0  0  0
  189.7000  172.9140  144.0590 C   0  0  0  0  0  1  0  0  0  0  0  0
  190.2510  173.0160  142.6470 C   0  0  1  0  0  3  0  0  0  0  0  0
  189.2950  172.3420  141.7120 C   0  0  0  0  0  0  0  0  0  0  0  0
  188.0690  172.3090  141.9900 O   0  0  0  0  0  1  0  0  0  0  0  0
  189.7530  171.7520  140.5390 O   0  0  0  0  0  0  0  0  0  0  0  0
  1  3  1  6  0  0  0
  1  5  1  0  0  0  0
  2  7  2  0  0  0  0
  3  4  1  0  0  0  0
  4  6  2  0  0  0  0
  5  7  1  0  0  0  0
  6  2  1  0  0  0  0
  9 10  1  0  0  0  0
 10  1  1  0  0  0  0
 10  8  1  6  0  0  0
 11 13  1  1  0  0  0
 11  8  1  0  0  0  0
 12 15  1  6  0  0  0
 12  9  1  0  0  0  0
 12 11  1  0  0  0  0
 15 14  1  1  0  0  0
 16 17  1  0  0  0  0
 17 18  2  0  0  0  0
 17 15  1  0  0  0  0
 20 19  1  1  0  0  0
 20  4  1  0  0  0  0
 21 20  1  0  0  0  0
 22 21  1  0  0  0  0
 23 26  1  0  0  0  0
 23 22  1  1  0  0  0
 24 23  1  0  0  0  0
 24 25  1  0  0  0  0
 26 27  1  6  0  0  0
 26 29  1  0  0  0  0
 29 28  1  1  0  0  0
 30 31  1  0  0  0  0
 30 29  1  0  0  0  0
 32 30  2  0  0  0  0
M  END
>  <MODEL>
5

>  <REMARK>
 VINA RESULT:      -6.4      2.852      7.563
  Name = 
  11 active torsions:
  status: ('A' for Active; 'I' for Inactive)
    1  A    between atoms: C_1  and  C_19
    2  A    between atoms: C_1  and  C_30
    3  A    between atoms: O_2  and  C_30
    4  A    between atoms: C_4  and  C_11
    5  A    between atoms: C_8  and  C_17
    6  A    between atoms: C_14  and  C_15
    7  A    between atoms: C_14  and  C_19
    8  A    between atoms: C_17  and  C_23
    9  A    between atoms: C_20  and  C_24
   10  A    between atoms: C_20  and  C_31
   11  A    between atoms: C_23  and  C_30
                            x       y       z     vdW  Elec       q    Type
                         _______ _______ _______ _____ _____    ______ ____

>  <TORSDO>
F 11

$$$$
=
 OpenBabel11062419033D

 32 33  0  0  1  0  0  0  0  0999 V2000
  187.2100  177.0420  145.7030 C   0  0  2  0  0  3  0  0  0  0  0  0
  184.7930  178.8070  145.0440 C   0  0  0  0  0  3  0  0  0  0  0  0
  187.4840  177.5760  144.3100 C   0  0  0  0  0  2  0  0  0  0  0  0
  186.2550  177.4550  143.4800 C   0  0  0  0  0  0  0  0  0  0  0  0
  186.6350  178.0940  146.5260 N   0  0  0  0  0  2  0  0  0  0  0  0
  185.0940  178.0290  143.8230 C   0  0  0  0  0  3  0  0  0  0  0  0
  185.4660  178.8560  146.2010 C   0  0  0  0  0  3  0  0  0  0  0  0
  189.1630  177.4930  147.2520 C   0  0  0  0  0  2  0  0  0  0  0  0
  189.3730  176.0370  145.3830 O   0  0  0  0  0  0  0  0  0  0  0  0
  188.4690  176.4810  146.3610 C   0  0  2  0  0  3  0  0  0  0  0  0
  190.6220  177.2610  146.9980 C   0  0  2  0  0  3  0  0  0  0  0  0
  190.6480  176.1580  145.9610 C   0  0  2  0  0  3  0  0  0  0  0  0
  191.2950  176.7840  148.2690 C   0  0  0  0  0  1  0  0  0  0  0  0
  191.1200  176.5270  143.6270 O   0  0  0  0  0  1  0  0  0  0  0  0
  191.7030  176.4500  144.8950 C   0  0  2  0  0  3  0  0  0  0  0  0
  193.8010  175.4500  143.9670 O   0  0  0  0  0  1  0  0  0  0  0  0
  192.7760  175.4130  144.9050 C   0  0  0  0  0  0  0  0  0  0  0  0
  192.7400  174.4400  145.8030 C   0  0  0  0  0  2  0  0  0  0  0  0
  187.0370  177.6370  140.8300 S   0  0  0  0  0  1  0  0  0  0  0  0
  186.3650  176.6580  142.2130 C   0  0  1  0  0  3  0  0  0  0  0  0
  187.0780  175.3160  142.3880 C   0  0  0  0  0  2  0  0  0  0  0  0
  188.3560  175.2120  141.5560 C   0  0  0  0  0  2  0  0  0  0  0  0
  188.5180  173.8450  140.8880 C   0  0  1  0  0  3  0  0  0  0  0  0
  189.2230  173.9240  139.6800 O   0  0  0  0  0  0  0  0  0  0  0  0
  188.2650  174.2740  138.7260 C   0  0  0  0  0  1  0  0  0  0  0  0
  189.0830  172.7630  141.8140 C   0  0  1  0  0  3  0  0  0  0  0  0
  189.6810  171.7740  141.0260 O   0  0  0  0  0  1  0  0  0  0  0  0
  189.8830  172.6090  144.1890 C   0  0  0  0  0  1  0  0  0  0  0  0
  190.0710  173.3180  142.8590 C   0  0  1  0  0  3  0  0  0  0  0  0
  191.5020  173.1800  142.4410 C   0  0  0  0  0  0  0  0  0  0  0  0
  192.2200  172.2880  142.9610 O   0  0  0  0  0  1  0  0  0  0  0  0
  192.0440  174.0310  141.4840 O   0  0  0  0  0  0  0  0  0  0  0  0
  1  3  1  6  0  0  0
  1 10  1  0  0  0  0
  1  5  1  0  0  0  0
  2  7  2  0  0  0  0
  4  6  2  0  0  0  0
  4  3  1  0  0  0  0
  6  2  1  0  0  0  0
  7  5  1  0  0  0  0
  9 12  1  0  0  0  0
  9 10  1  0  0  0  0
 10  8  1  6  0  0  0
 11  8  1  0  0  0  0
 11 13  1  1  0  0  0
 12 15  1  6  0  0  0
 12 11  1  0  0  0  0
 15 14  1  6  0  0  0
 15 17  1  0  0  0  0
 16 17  1  0  0  0  0
 17 18  2  0  0  0  0
 20 19  1  6  0  0  0
 20 21  1  0  0  0  0
 20  4  1  0  0  0  0
 22 21  1  0  0  0  0
 23 22  1  1  0  0  0
 23 26  1  0  0  0  0
 24 23  1  0  0  0  0
 25 24  1  0  0  0  0
 26 27  1  6  0  0  0
 26 29  1  0  0  0  0
 29 28  1  1  0  0  0
 30 29  1  0  0  0  0
 30 31  1  0  0  0  0
 32 30  2  0  0  0  0
M  END
>  <MODEL>
6

>  <REMARK>
 VINA RESULT:      -6.4      3.057      5.714
  Name = 
  11 active torsions:
  status: ('A' for Active; 'I' for Inactive)
    1  A    between atoms: C_1  and  C_19
    2  A    between atoms: C_1  and  C_30
    3  A    between atoms: O_2  and  C_30
    4  A    between atoms: C_4  and  C_11
    5  A    between atoms: C_8  and  C_17
    6  A    between atoms: C_14  and  C_15
    7  A    between atoms: C_14  and  C_19
    8  A    between atoms: C_17  and  C_23
    9  A    between atoms: C_20  and  C_24
   10  A    between atoms: C_20  and  C_31
   11  A    between atoms: C_23  and  C_30
                            x       y       z     vdW  Elec       q    Type
                         _______ _______ _______ _____ _____    ______ ____

>  <TORSDO>
F 11

$$$$
=
 OpenBabel11062419033D

 32 33  0  0  1  0  0  0  0  0999 V2000
  188.5500  176.7060  146.0360 C   0  0  2  0  0  3  0  0  0  0  0  0
  190.3350  174.2460  146.4270 C   0  0  0  0  0  3  0  0  0  0  0  0
  188.6910  176.1020  144.6520 C   0  0  0  0  0  2  0  0  0  0  0  0
  190.1170  175.7540  144.4050 C   0  0  0  0  0  0  0  0  0  0  0  0
  188.3890  175.6450  147.0190 N   0  0  0  0  0  2  0  0  0  0  0  0
  190.8020  174.9160  145.1940 C   0  0  0  0  0  3  0  0  0  0  0  0
  189.2840  174.5420  147.2030 C   0  0  0  0  0  3  0  0  0  0  0  0
  186.0720  177.0090  146.4760 C   0  0  0  0  0  2  0  0  0  0  0  0
  187.2280  178.3630  144.8980 O   0  0  0  0  0  0  0  0  0  0  0  0
  187.3810  177.6870  146.1180 C   0  0  2  0  0  3  0  0  0  0  0  0
  185.0570  177.7060  145.6210 C   0  0  2  0  0  3  0  0  0  0  0  0
  185.8660  178.7040  144.8210 C   0  0  2  0  0  3  0  0  0  0  0  0
  184.0640  178.4390  146.4990 C   0  0  0  0  0  1  0  0  0  0  0  0
  184.0320  178.4380  143.2820 O   0  0  0  0  0  1  0  0  0  0  0  0
  185.3950  178.7350  143.3680 C   0  0  2  0  0  3  0  0  0  0  0  0
  185.9500  176.4160  142.6090 O   0  0  0  0  0  1  0  0  0  0  0  0
  186.1820  177.7830  142.5300 C   0  0  0  0  0  0  0  0  0  0  0  0
  187.1220  178.2450  141.7190 C   0  0  0  0  0  2  0  0  0  0  0  0
  191.2050  178.1300  143.4910 S   0  0  0  0  0  1  0  0  0  0  0  0
  190.7730  176.3810  143.2100 C   0  0  1  0  0  3  0  0  0  0  0  0
  191.9400  175.5680  142.6480 C   0  0  0  0  0  2  0  0  0  0  0  0
  193.1860  176.4140  142.3970 C   0  0  0  0  0  2  0  0  0  0  0  0
  194.4820  175.6070  142.4990 C   0  0  1  0  0  3  0  0  0  0  0  0
  195.6210  176.4060  142.3390 O   0  0  0  0  0  0  0  0  0  0  0  0
  196.2250  175.9410  141.1700 C   0  0  0  0  0  1  0  0  0  0  0  0
  194.5680  174.7260  143.7510 C   0  0  1  0  0  3  0  0  0  0  0  0
  194.9710  173.4450  143.3630 O   0  0  0  0  0  1  0  0  0  0  0  0
  194.7500  175.4860  146.1370 C   0  0  0  0  0  1  0  0  0  0  0  0
  195.5040  175.3030  144.8310 C   0  0  1  0  0  3  0  0  0  0  0  0
  196.7010  174.4430  145.0870 C   0  0  0  0  0  0  0  0  0  0  0  0
  197.7140  174.5460  144.3480 O   0  0  0  0  0  0  0  0  0  0  0  0
  196.7040  173.5300  146.1360 O   0  0  0  0  0  1  0  0  0  0  0  0
  1  3  1  6  0  0  0
  1 10  1  0  0  0  0
  1  5  1  0  0  0  0
  2  7  2  0  0  0  0
  4  3  1  0  0  0  0
  4  6  2  0  0  0  0
  5  7  1  0  0  0  0
  6  2  1  0  0  0  0
  9 10  1  0  0  0  0
 10  8  1  6  0  0  0
 11  8  1  0  0  0  0
 11 13  1  1  0  0  0
 12 15  1  6  0  0  0
 12  9  1  0  0  0  0
 12 11  1  0  0  0  0
 15 14  1  1  0  0  0
 17 16  1  0  0  0  0
 17 15  1  0  0  0  0
 18 17  2  0  0  0  0
 20 19  1  1  0  0  0
 20  4  1  0  0  0  0
 21 20  1  0  0  0  0
 22 21  1  0  0  0  0
 23 22  1  1  0  0  0
 23 26  1  0  0  0  0
 24 23  1  0  0  0  0
 25 24  1  0  0  0  0
 26 27  1  6  0  0  0
 26 29  1  0  0  0  0
 29 30  1  0  0  0  0
 29 28  1  1  0  0  0
 30 32  1  0  0  0  0
 31 30  2  0  0  0  0
M  END
>  <MODEL>
7

>  <REMARK>
 VINA RESULT:      -6.4      1.967      8.780
  Name = 
  11 active torsions:
  status: ('A' for Active; 'I' for Inactive)
    1  A    between atoms: C_1  and  C_19
    2  A    between atoms: C_1  and  C_30
    3  A    between atoms: O_2  and  C_30
    4  A    between atoms: C_4  and  C_11
    5  A    between atoms: C_8  and  C_17
    6  A    between atoms: C_14  and  C_15
    7  A    between atoms: C_14  and  C_19
    8  A    between atoms: C_17  and  C_23
    9  A    between atoms: C_20  and  C_24
   10  A    between atoms: C_20  and  C_31
   11  A    between atoms: C_23  and  C_30
                            x       y       z     vdW  Elec       q    Type
                         _______ _______ _______ _____ _____    ______ ____

>  <TORSDO>
F 11

$$$$
=
 OpenBabel11062419033D

 32 33  0  0  1  0  0  0  0  0999 V2000
  189.6360  177.2560  145.8650 C   0  0  2  0  0  3  0  0  0  0  0  0
  192.2010  176.2410  147.1990 C   0  0  0  0  0  3  0  0  0  0  0  0
  189.8890  175.8970  145.2410 C   0  0  0  0  0  2  0  0  0  0  0  0
  191.3250  175.7810  144.8680 C   0  0  0  0  0  0  0  0  0  0  0  0
  189.9280  177.2030  147.2880 N   0  0  0  0  0  2  0  0  0  0  0  0
  192.3150  175.9160  145.7610 C   0  0  0  0  0  3  0  0  0  0  0  0
  191.1680  176.7730  147.8650 C   0  0  0  0  0  3  0  0  0  0  0  0
  187.1860  176.9440  146.4350 C   0  0  0  0  0  2  0  0  0  0  0  0
  187.8760  177.6550  144.2720 O   0  0  0  0  0  0  0  0  0  0  0  0
  188.2030  177.7350  145.6350 C   0  0  2  0  0  3  0  0  0  0  0  0
  186.0280  176.7870  145.4970 C   0  0  2  0  0  3  0  0  0  0  0  0
  186.4830  177.4730  144.2260 C   0  0  2  0  0  3  0  0  0  0  0  0
  184.8150  177.5010  146.0560 C   0  0  0  0  0  1  0  0  0  0  0  0
  186.8700  175.5040  142.8930 O   0  0  0  0  0  1  0  0  0  0  0  0
  186.0820  176.6520  143.0010 C   0  0  2  0  0  3  0  0  0  0  0  0
  187.3360  177.4170  140.9750 O   0  0  0  0  0  1  0  0  0  0  0  0
  186.1870  177.4660  141.7540 C   0  0  0  0  0  0  0  0  0  0  0  0
  185.1840  178.2550  141.3990 C   0  0  0  0  0  2  0  0  0  0  0  0
  190.1330  175.4300  142.3940 S   0  0  0  0  0  1  0  0  0  0  0  0
  191.6330  175.4930  143.4280 C   0  0  1  0  0  3  0  0  0  0  0  0
  192.7200  176.3920  142.8370 C   0  0  0  0  0  2  0  0  0  0  0  0
  193.7220  175.6240  141.9770 C   0  0  0  0  0  2  0  0  0  0  0  0
  195.0090  175.2800  142.7290 C   0  0  1  0  0  3  0  0  0  0  0  0
  195.2800  176.1870  143.7620 O   0  0  0  0  0  0  0  0  0  0  0  0
  196.5060  176.7630  143.4220 C   0  0  0  0  0  1  0  0  0  0  0  0
  195.0800  173.8260  143.2070 C   0  0  1  0  0  3  0  0  0  0  0  0
  196.2910  173.2760  142.7750 O   0  0  0  0  0  1  0  0  0  0  0  0
  193.7680  172.7380  145.0510 C   0  0  0  0  0  1  0  0  0  0  0  0
  194.9140  173.6840  144.7330 C   0  0  1  0  0  3  0  0  0  0  0  0
  196.1500  173.1820  145.4110 C   0  0  0  0  0  0  0  0  0  0  0  0
  197.0160  174.0000  145.8160 O   0  0  0  0  0  1  0  0  0  0  0  0
  196.3500  171.8180  145.5970 O   0  0  0  0  0  0  0  0  0  0  0  0
  1  3  1  1  0  0  0
  1  5  1  0  0  0  0
  2  7  2  0  0  0  0
  4  3  1  0  0  0  0
  4  6  2  0  0  0  0
  5  7  1  0  0  0  0
  6  2  1  0  0  0  0
  9 10  1  0  0  0  0
 10  1  1  0  0  0  0
 10  8  1  1  0  0  0
 11 13  1  1  0  0  0
 11  8  1  0  0  0  0
 12 15  1  6  0  0  0
 12  9  1  0  0  0  0
 12 11  1  0  0  0  0
 15 14  1  6  0  0  0
 16 17  1  0  0  0  0
 17 15  1  0  0  0  0
 18 17  2  0  0  0  0
 20 19  1  6  0  0  0
 20  4  1  0  0  0  0
 21 20  1  0  0  0  0
 22 21  1  0  0  0  0
 23 22  1  1  0  0  0
 23 26  1  0  0  0  0
 23 24  1  0  0  0  0
 25 24  1  0  0  0  0
 26 27  1  1  0  0  0
 26 29  1  0  0  0  0
 29 28  1  6  0  0  0
 29 30  1  0  0  0  0
 30 32  2  0  0  0  0
 30 31  1  0  0  0  0
M  END
>  <MODEL>
8

>  <REMARK>
 VINA RESULT:      -6.3      1.853      8.573
  Name = 
  11 active torsions:
  status: ('A' for Active; 'I' for Inactive)
    1  A    between atoms: C_1  and  C_19
    2  A    between atoms: C_1  and  C_30
    3  A    between atoms: O_2  and  C_30
    4  A    between atoms: C_4  and  C_11
    5  A    between atoms: C_8  and  C_17
    6  A    between atoms: C_14  and  C_15
    7  A    between atoms: C_14  and  C_19
    8  A    between atoms: C_17  and  C_23
    9  A    between atoms: C_20  and  C_24
   10  A    between atoms: C_20  and  C_31
   11  A    between atoms: C_23  and  C_30
                            x       y       z     vdW  Elec       q    Type
                         _______ _______ _______ _____ _____    ______ ____

>  <TORSDO>
F 11

$$$$
=
 OpenBabel11062419033D

 32 33  0  0  1  0  0  0  0  0999 V2000
  187.5780  175.0590  142.2840 C   0  0  2  0  0  3  0  0  0  0  0  0
  189.4440  173.4360  140.4750 C   0  0  0  0  0  3  0  0  0  0  0  0
  188.9240  175.0900  142.9840 C   0  0  0  0  0  2  0  0  0  0  0  0
  189.5110  173.7220  142.9900 C   0  0  0  0  0  0  0  0  0  0  0  0
  187.7680  175.2100  140.8510 N   0  0  0  0  0  2  0  0  0  0  0  0
  189.7470  173.0330  141.8650 C   0  0  0  0  0  3  0  0  0  0  0  0
  188.6110  174.3880  140.0340 C   0  0  0  0  0  3  0  0  0  0  0  0
  187.0980  177.5410  142.4690 C   0  0  0  0  0  2  0  0  0  0  0  0
  186.4960  176.0280  144.2030 O   0  0  0  0  0  0  0  0  0  0  0  0
  186.6330  176.1380  142.8110 C   0  0  2  0  0  3  0  0  0  0  0  0
  186.7890  178.3370  143.7010 C   0  0  2  0  0  3  0  0  0  0  0  0
  186.2000  177.3240  144.6600 C   0  0  2  0  0  3  0  0  0  0  0  0
  185.7560  179.3980  143.3800 C   0  0  0  0  0  1  0  0  0  0  0  0
  187.4790  176.4320  146.4960 O   0  0  0  0  0  1  0  0  0  0  0  0
  186.7450  177.5420  146.0710 C   0  0  2  0  0  3  0  0  0  0  0  0
  185.8810  177.8280  148.4020 O   0  0  0  0  0  1  0  0  0  0  0  0
  185.6400  177.8260  147.0330 C   0  0  0  0  0  0  0  0  0  0  0  0
  184.4180  178.0590  146.5800 C   0  0  0  0  0  2  0  0  0  0  0  0
  191.3610  172.1200  144.2830 S   0  0  0  0  0  1  0  0  0  0  0  0
  189.8450  173.1320  144.3280 C   0  0  1  0  0  3  0  0  0  0  0  0
  189.8500  174.1500  145.4690 C   0  0  0  0  0  2  0  0  0  0  0  0
  191.2490  174.6680  145.7970 C   0  0  0  0  0  2  0  0  0  0  0  0
  191.4820  176.0980  145.3070 C   0  0  1  0  0  3  0  0  0  0  0  0
  190.7490  177.0390  146.0410 O   0  0  0  0  0  0  0  0  0  0  0  0
  190.2620  177.9370  145.0900 C   0  0  0  0  0  1  0  0  0  0  0  0
  192.9620  176.4840  145.1940 C   0  0  1  0  0  3  0  0  0  0  0  0
  193.4330  176.8090  146.4700 O   0  0  0  0  0  1  0  0  0  0  0  0
  193.6150  175.3750  143.0380 C   0  0  0  0  0  1  0  0  0  0  0  0
  193.8240  175.3850  144.5430 C   0  0  1  0  0  3  0  0  0  0  0  0
  195.2850  175.5460  144.8210 C   0  0  0  0  0  0  0  0  0  0  0  0
  195.9400  176.4390  144.2230 O   0  0  0  0  0  0  0  0  0  0  0  0
  195.9260  174.7170  145.7360 O   0  0  0  0  0  1  0  0  0  0  0  0
  1 10  1  0  0  0  0
  1  3  1  1  0  0  0
  2  6  1  0  0  0  0
  3  4  1  0  0  0  0
  4 20  1  0  0  0  0
  5  1  1  0  0  0  0
  6  4  2  0  0  0  0
  7  2  2  0  0  0  0
  7  5  1  0  0  0  0
  8 11  1  0  0  0  0
  9 12  1  0  0  0  0
 10  8  1  1  0  0  0
 10  9  1  0  0  0  0
 11 13  1  6  0  0  0
 11 12  1  0  0  0  0
 12 15  1  1  0  0  0
 15 14  1  1  0  0  0
 15 17  1  0  0  0  0
 17 16  1  0  0  0  0
 18 17  2  0  0  0  0
 20 19  1  6  0  0  0
 20 21  1  0  0  0  0
 21 22  1  0  0  0  0
 23 22  1  1  0  0  0
 23 24  1  0  0  0  0
 25 24  1  0  0  0  0
 26 23  1  0  0  0  0
 26 27  1  1  0  0  0
 29 28  1  6  0  0  0
 29 30  1  0  0  0  0
 29 26  1  0  0  0  0
 30 32  1  0  0  0  0
 31 30  2  0  0  0  0
M  END
>  <MODEL>
9

>  <REMARK>
 VINA RESULT:      -6.3      2.621      8.492
  Name = 
  11 active torsions:
  status: ('A' for Active; 'I' for Inactive)
    1  A    between atoms: C_1  and  C_19
    2  A    between atoms: C_1  and  C_30
    3  A    between atoms: O_2  and  C_30
    4  A    between atoms: C_4  and  C_11
    5  A    between atoms: C_8  and  C_17
    6  A    between atoms: C_14  and  C_15
    7  A    between atoms: C_14  and  C_19
    8  A    between atoms: C_17  and  C_23
    9  A    between atoms: C_20  and  C_24
   10  A    between atoms: C_20  and  C_31
   11  A    between atoms: C_23  and  C_30
                            x       y       z     vdW  Elec       q    Type
                         _______ _______ _______ _____ _____    ______ ____

>  <TORSDO>
F 11

$$$$
