=
 OpenBabel11062418453D

 43 47  0  0  1  0  0  0  0  0999 V2000
  195.3740  174.9050  146.0010 C   0  0  0  0  0  0  0  0  0  0  0  0
  196.0410  173.8270  145.6860 C   0  0  0  0  0  0  0  0  0  0  0  0
  194.6970  175.9870  146.2720 C   0  0  0  0  0  3  0  0  0  0  0  0
  192.4490  175.4830  146.9040 N   0  0  0  0  0  0  0  0  0  0  0  0
  191.5200  175.9120  144.3200 C   0  0  0  0  0  2  0  0  0  0  0  0
  191.0030  175.6120  146.7450 C   0  0  0  0  0  2  0  0  0  0  0  0
  190.6000  175.3610  145.3470 N   0  0  0  0  0  0  0  0  0  0  0  0
  192.6480  176.7820  144.8880 C   0  0  0  0  0  2  0  0  0  0  0  0
  193.2450  176.0600  146.0590 C   0  0  0  0  0  0  0  0  0  0  0  0
  189.2200  175.8370  145.1630 C   0  0  2  0  0  3  0  0  0  0  0  0
  187.6920  176.3330  140.9630 C   0  0  0  0  0  1  0  0  0  0  0  0
  186.2510  178.0590  142.0910 C   0  0  2  0  0  3  0  0  0  0  0  0
  187.8960  176.9000  143.3570 C   0  0  0  0  0  0  0  0  0  0  0  0
  185.2700  177.0550  142.3140 O   0  0  0  0  0  0  0  0  0  0  0  0
  187.6590  177.4420  141.9970 C   0  0  1  0  0  3  0  0  0  0  0  0
  186.7870  177.0550  144.1610 O   0  0  0  0  0  0  0  0  0  0  0  0
  189.0420  176.3610  143.7720 C   0  0  0  0  0  3  0  0  0  0  0  0
  185.7590  177.7180  143.4510 C   0  0  1  0  0  0  0  0  0  0  0  0
  185.3270  180.2620  144.1880 O   0  0  0  0  0  0  0  0  0  0  0  0
  184.6910  178.9020  144.2450 S   0  0  0  0  0  0  0  0  0  0  0  0
  183.3750  178.9400  143.5320 O   0  0  0  0  0  0  0  0  0  0  0  0
  184.3840  178.3780  146.2450 S   0  0  0  0  0  1  0  0  0  0  0  0
  187.6310  176.3440  147.0600 C   0  0  0  0  0  1  0  0  0  0  0  0
  188.7730  176.8800  146.2040 C   0  0  0  0  0  2  0  0  0  0  0  0
  196.2710  171.3430  145.7880 C   0  0  0  0  0  1  0  0  0  0  0  0
  195.3160  172.5180  145.6190 C   0  0  2  0  0  3  0  0  0  0  0  0
  194.5410  172.4130  144.3150 C   0  0  0  0  0  2  0  0  0  0  0  0
  193.0570  172.1930  144.5870 C   0  0  0  0  0  2  0  0  0  0  0  0
  188.8160  172.7320  142.1320 C   0  0  0  0  0  0  0  0  0  0  0  0
  189.4550  172.4210  143.5030 C   0  0  0  0  0  2  0  0  0  0  0  0
  192.6200  172.9220  141.8320 S   0  0  0  0  0  0  0  0  0  0  0  0
  187.3460  172.7190  141.9280 C   0  0  0  0  0  1  0  0  0  0  0  0
  193.2970  171.8130  141.0710 O   0  0  0  0  0  0  0  0  0  0  0  0
  192.2800  172.5290  143.4080 N   0  0  0  0  0  0  0  0  0  0  0  0
  190.8420  172.5840  143.0720 C   0  0  0  0  0  0  0  0  0  0  0  0
  190.9510  172.9110  141.7740 C   0  0  0  0  0  0  0  0  0  0  0  0
  189.6790  173.0180  141.1190 C   0  0  0  0  0  3  0  0  0  0  0  0
  193.2690  174.2710  141.6910 O   0  0  0  0  0  0  0  0  0  0  0  0
  197.4730  173.9510  145.2850 C   0  0  0  0  0  2  0  0  0  0  0  0
  197.5860  174.8690  144.2080 O   0  0  0  0  0  0  0  0  0  0  0  0
  197.4840  174.4580  142.8790 C   0  0  0  0  0  0  0  0  0  0  0  0
  197.3470  175.2970  141.9520 O   0  0  0  0  0  0  0  0  0  0  0  0
  197.5610  173.1100  142.5760 O   0  0  0  0  0  1  0  0  0  0  0  0
  1  3  2  0  0  0  0
  2  1  2  0  0  0  0
  5  8  1  0  0  0  0
  5  7  1  0  0  0  0
  6  4  1  0  0  0  0
  7  6  1  0  0  0  0
  8  9  1  0  0  0  0
  9  3  1  0  0  0  0
  9  4  2  0  0  0  0
 10 17  1  6  0  0  0
 10  7  1  0  0  0  0
 10 24  1  0  0  0  0
 12 14  1  6  0  0  0
 12 18  1  0  0  0  0
 13 17  2  0  0  0  0
 13 16  1  0  0  0  0
 14 18  1  0  0  0  0
 15 11  1  6  0  0  0
 15 12  1  0  0  0  0
 15 13  1  0  0  0  0
 18 16  1  0  0  0  0
 18 20  1  1  0  0  0
 19 20  2  0  0  0  0
 20 22  1  0  0  0  0
 21 20  2  0  0  0  0
 24 23  1  0  0  0  0
 26  2  1  0  0  0  0
 26 25  1  6  0  0  0
 27 28  1  0  0  0  0
 27 26  1  0  0  0  0
 29 30  1  0  0  0  0
 31 34  1  0  0  0  0
 32 29  1  0  0  0  0
 33 31  2  0  0  0  0
 34 28  1  0  0  0  0
 35 34  1  0  0  0  0
 35 30  1  0  0  0  0
 36 31  1  0  0  0  0
 36 35  2  0  0  0  0
 37 36  1  0  0  0  0
 37 29  2  0  0  0  0
 38 31  2  0  0  0  0
 39  2  1  0  0  0  0
 40 39  1  0  0  0  0
 41 40  1  0  0  0  0
 42 41  2  0  0  0  0
 43 41  1  0  0  0  0
M  END
>  <MODEL>
1

>  <REMARK>
 VINA RESULT:      -7.3      0.000      0.000
  Name = 
  12 active torsions:
  status: ('A' for Active; 'I' for Inactive)
    1  A    between atoms: C_1  and  O_13
    2  A    between atoms: C_9  and  C_29
    3  A    between atoms: C_9  and  C_31
    4  A    between atoms: O_13  and  C_31
    5  A    between atoms: C_14  and  C_42
    6  A    between atoms: S_15  and  C_34
    7  A    between atoms: C_16  and  C_29
    8  A    between atoms: C_16  and  C_39
    9  A    between atoms: C_23  and  C_28
   10  A    between atoms: C_23  and  N_37
   11  A    between atoms: C_23  and  C_38
   12  A    between atoms: N_26  and  C_39
                            x       y       z     vdW  Elec       q    Type
                         _______ _______ _______ _____ _____    ______ ____

>  <TORSDO>
F 12

$$$$
=
 OpenBabel11062418453D

 43 47  0  0  1  0  0  0  0  0999 V2000
  195.4790  173.6340  145.7050 C   0  0  0  0  0  0  0  0  0  0  0  0
  195.7120  172.3510  145.6340 C   0  0  0  0  0  0  0  0  0  0  0  0
  195.2430  174.9180  145.7310 C   0  0  0  0  0  3  0  0  0  0  0  0
  193.9520  176.5590  144.5700 N   0  0  0  0  0  0  0  0  0  0  0  0
  191.6660  175.9300  146.0220 C   0  0  0  0  0  2  0  0  0  0  0  0
  192.6890  177.0790  144.0540 C   0  0  0  0  0  2  0  0  0  0  0  0
  191.6550  177.1000  145.1070 N   0  0  0  0  0  0  0  0  0  0  0  0
  192.6510  174.8270  145.6170 C   0  0  0  0  0  2  0  0  0  0  0  0
  193.9610  175.4740  145.2800 C   0  0  0  0  0  0  0  0  0  0  0  0
  190.3400  177.2900  144.4720 C   0  0  2  0  0  3  0  0  0  0  0  0
  187.3380  176.0480  147.5790 C   0  0  0  0  0  1  0  0  0  0  0  0
  185.7590  177.1290  145.9460 C   0  0  2  0  0  3  0  0  0  0  0  0
  188.0680  176.9600  145.4060 C   0  0  0  0  0  0  0  0  0  0  0  0
  185.9370  178.3610  146.6320 O   0  0  0  0  0  0  0  0  0  0  0  0
  186.9930  176.2220  146.1140 C   0  0  1  0  0  3  0  0  0  0  0  0
  187.6230  178.1810  144.9470 O   0  0  0  0  0  0  0  0  0  0  0  0
  189.3010  176.4980  145.2020 C   0  0  0  0  0  3  0  0  0  0  0  0
  186.2550  178.3520  145.2650 C   0  0  1  0  0  0  0  0  0  0  0  0
  183.7370  179.0880  144.6980 O   0  0  0  0  0  0  0  0  0  0  0  0
  185.1320  179.1640  144.1460 S   0  0  0  0  0  0  0  0  0  0  0  0
  185.5300  180.6000  143.9990 O   0  0  0  0  0  0  0  0  0  0  0  0
  185.1730  178.2370  142.2730 S   0  0  0  0  0  1  0  0  0  0  0  0
  189.3540  177.8850  142.2240 C   0  0  0  0  0  1  0  0  0  0  0  0
  190.3200  176.9680  142.9660 C   0  0  0  0  0  2  0  0  0  0  0  0
  195.0080  169.9600  145.7760 C   0  0  0  0  0  1  0  0  0  0  0  0
  194.5520  171.4030  145.6100 C   0  0  2  0  0  3  0  0  0  0  0  0
  193.7540  171.5820  144.3270 C   0  0  0  0  0  2  0  0  0  0  0  0
  192.4340  170.8220  144.4040 C   0  0  0  0  0  2  0  0  0  0  0  0
  188.8390  173.4780  142.3250 C   0  0  0  0  0  0  0  0  0  0  0  0
  189.7050  173.2890  143.5890 C   0  0  0  0  0  2  0  0  0  0  0  0
  191.3140  170.6240  141.7550 S   0  0  0  0  0  0  0  0  0  0  0  0
  187.7720  174.5060  142.2480 C   0  0  0  0  0  1  0  0  0  0  0  0
  190.7470  169.2300  141.7250 O   0  0  0  0  0  0  0  0  0  0  0  0
  191.5820  171.1930  143.2900 N   0  0  0  0  0  0  0  0  0  0  0  0
  190.5160  172.1920  143.0650 C   0  0  0  0  0  0  0  0  0  0  0  0
  190.1840  171.8520  141.8080 C   0  0  0  0  0  0  0  0  0  0  0  0
  189.1110  172.6450  141.2820 C   0  0  0  0  0  3  0  0  0  0  0  0
  192.4810  170.8490  140.8330 O   0  0  0  0  0  0  0  0  0  0  0  0
  197.1150  171.8760  145.4570 C   0  0  0  0  0  2  0  0  0  0  0  0
  197.6630  172.4480  144.2780 O   0  0  0  0  0  0  0  0  0  0  0  0
  197.3260  171.9800  143.0080 C   0  0  0  0  0  0  0  0  0  0  0  0
  197.3160  172.7530  142.0170 O   0  0  0  0  0  0  0  0  0  0  0  0
  197.0250  170.6400  142.8360 O   0  0  0  0  0  1  0  0  0  0  0  0
  1  3  2  0  0  0  0
  2  1  2  0  0  0  0
  4  9  2  0  0  0  0
  6  4  1  0  0  0  0
  6  7  1  0  0  0  0
  7  5  1  0  0  0  0
  8  5  1  0  0  0  0
  9  8  1  0  0  0  0
  9  3  1  0  0  0  0
 10 24  1  6  0  0  0
 10  7  1  0  0  0  0
 10 17  1  0  0  0  0
 12 15  1  0  0  0  0
 12 14  1  1  0  0  0
 13 15  1  0  0  0  0
 15 11  1  1  0  0  0
 16 18  1  0  0  0  0
 16 13  1  0  0  0  0
 17 13  2  0  0  0  0
 18 20  1  6  0  0  0
 18 12  1  0  0  0  0
 18 14  1  0  0  0  0
 20 19  2  0  0  0  0
 21 20  2  0  0  0  0
 22 20  1  0  0  0  0
 23 24  1  0  0  0  0
 26  2  1  0  0  0  0
 26 25  1  6  0  0  0
 27 28  1  0  0  0  0
 27 26  1  0  0  0  0
 29 30  1  0  0  0  0
 31 36  1  0  0  0  0
 31 34  1  0  0  0  0
 32 29  1  0  0  0  0
 33 31  2  0  0  0  0
 34 28  1  0  0  0  0
 35 34  1  0  0  0  0
 35 30  1  0  0  0  0
 36 35  2  0  0  0  0
 37 36  1  0  0  0  0
 37 29  2  0  0  0  0
 38 31  2  0  0  0  0
 39  2  1  0  0  0  0
 40 39  1  0  0  0  0
 41 40  1  0  0  0  0
 42 41  2  0  0  0  0
 43 41  1  0  0  0  0
M  END
>  <MODEL>
2

>  <REMARK>
 VINA RESULT:      -7.0      1.732      2.676
  Name = 
  12 active torsions:
  status: ('A' for Active; 'I' for Inactive)
    1  A    between atoms: C_1  and  O_13
    2  A    between atoms: C_9  and  C_29
    3  A    between atoms: C_9  and  C_31
    4  A    between atoms: O_13  and  C_31
    5  A    between atoms: C_14  and  C_42
    6  A    between atoms: S_15  and  C_34
    7  A    between atoms: C_16  and  C_29
    8  A    between atoms: C_16  and  C_39
    9  A    between atoms: C_23  and  C_28
   10  A    between atoms: C_23  and  N_37
   11  A    between atoms: C_23  and  C_38
   12  A    between atoms: N_26  and  C_39
                            x       y       z     vdW  Elec       q    Type
                         _______ _______ _______ _____ _____    ______ ____

>  <TORSDO>
F 12

$$$$
=
 OpenBabel11062418453D

 43 47  0  0  1  0  0  0  0  0999 V2000
  187.2870  176.1780  142.6530 C   0  0  0  0  0  0  0  0  0  0  0  0
  187.5050  177.3570  143.1690 C   0  0  0  0  0  0  0  0  0  0  0  0
  187.0860  175.0140  142.0980 C   0  0  0  0  0  3  0  0  0  0  0  0
  188.4620  174.1300  140.3570 N   0  0  0  0  0  0  0  0  0  0  0  0
  189.2830  172.0040  141.9480 C   0  0  0  0  0  2  0  0  0  0  0  0
  189.6140  173.3690  139.8830 C   0  0  0  0  0  2  0  0  0  0  0  0
  189.6630  172.0340  140.5130 N   0  0  0  0  0  0  0  0  0  0  0  0
  189.0560  173.3880  142.5670 C   0  0  0  0  0  2  0  0  0  0  0  0
  188.2020  174.1840  141.6260 C   0  0  0  0  0  0  0  0  0  0  0  0
  190.9960  171.4540  140.2840 C   0  0  2  0  0  3  0  0  0  0  0  0
  193.2510  175.0630  141.7340 C   0  0  0  0  0  1  0  0  0  0  0  0
  194.5010  173.3000  143.0220 C   0  0  2  0  0  3  0  0  0  0  0  0
  192.7980  172.6490  141.4950 C   0  0  0  0  0  0  0  0  0  0  0  0
  193.5780  173.4650  144.0900 O   0  0  0  0  0  0  0  0  0  0  0  0
  193.8550  173.6740  141.6740 C   0  0  1  0  0  3  0  0  0  0  0  0
  192.7140  171.8160  142.5910 O   0  0  0  0  0  0  0  0  0  0  0  0
  192.0430  172.5160  140.4050 C   0  0  0  0  0  3  0  0  0  0  0  0
  193.6890  172.1740  143.5510 C   0  0  1  0  0  0  0  0  0  0  0  0
  195.0200  171.5590  145.7990 O   0  0  0  0  0  0  0  0  0  0  0  0
  194.5450  170.9440  144.5130 S   0  0  0  0  0  0  0  0  0  0  0  0
  193.6110  169.8140  144.8200 O   0  0  0  0  0  0  0  0  0  0  0  0
  196.1960  170.2140  143.4590 S   0  0  0  0  0  1  0  0  0  0  0  0
  192.1650  171.3660  138.0470 C   0  0  0  0  0  1  0  0  0  0  0  0
  191.1300  170.7010  138.9470 C   0  0  0  0  0  2  0  0  0  0  0  0
  189.9160  177.7980  142.6880 C   0  0  0  0  0  1  0  0  0  0  0  0
  188.8480  177.6530  143.7650 C   0  0  2  0  0  3  0  0  0  0  0  0
  189.2250  176.5760  144.7710 C   0  0  0  0  0  2  0  0  0  0  0  0
  189.5080  177.1910  146.1370 C   0  0  0  0  0  2  0  0  0  0  0  0
  194.3100  176.5850  145.2010 C   0  0  0  0  0  0  0  0  0  0  0  0
  192.9450  176.9890  144.6040 C   0  0  0  0  0  3  0  0  0  0  0  0
  191.6380  176.4330  147.9260 S   0  0  0  0  0  0  0  0  0  0  0  0
  195.5440  176.5330  144.3780 C   0  0  0  0  0  1  0  0  0  0  0  0
  191.2230  175.0640  148.3940 O   0  0  0  0  0  0  0  0  0  0  0  0
  190.8760  176.9120  146.5330 N   0  0  0  0  0  0  0  0  0  0  0  0
  192.1820  176.8510  145.8430 C   0  0  0  0  0  0  0  0  0  0  0  0
  192.9400  176.4660  146.8820 C   0  0  0  0  0  0  0  0  0  0  0  0
  194.3180  176.2780  146.5280 C   0  0  0  0  0  2  0  0  0  0  0  0
  191.6300  177.4930  148.9940 O   0  0  0  0  0  0  0  0  0  0  0  0
  186.4570  178.4110  143.0410 C   0  0  0  0  0  2  0  0  0  0  0  0
  185.2170  177.9050  143.5120 O   0  0  0  0  0  0  0  0  0  0  0  0
  184.8490  177.9920  144.8550 C   0  0  0  0  0  0  0  0  0  0  0  0
  184.0930  178.9120  145.2590 O   0  0  0  0  0  0  0  0  0  0  0  0
  185.3050  177.0370  145.7470 O   0  0  0  0  0  1  0  0  0  0  0  0
  1  2  2  0  0  0  0
  2 26  1  0  0  0  0
  3  1  2  0  0  0  0
  4  9  2  0  0  0  0
  5  8  1  0  0  0  0
  6  4  1  0  0  0  0
  6  7  1  0  0  0  0
  7  5  1  0  0  0  0
  9  3  1  0  0  0  0
  9  8  1  0  0  0  0
 10 24  1  6  0  0  0
 10 17  1  0  0  0  0
 10  7  1  0  0  0  0
 12 18  1  0  0  0  0
 12 14  1  1  0  0  0
 13 15  1  0  0  0  0
 13 16  1  0  0  0  0
 15 11  1  1  0  0  0
 15 12  1  0  0  0  0
 16 18  1  0  0  0  0
 17 13  2  0  0  0  0
 18 14  1  0  0  0  0
 18 20  1  1  0  0  0
 20 21  2  0  0  0  0
 20 19  2  0  0  0  0
 22 20  1  0  0  0  0
 23 24  1  0  0  0  0
 26 25  1  6  0  0  0
 26 27  1  0  0  0  0
 27 28  1  0  0  0  0
 28 34  1  0  0  0  0
 29 37  1  0  0  0  0
 30 29  2  0  0  0  0
 30 35  1  0  0  0  0
 31 33  2  0  0  0  0
 31 38  2  0  0  0  0
 32 29  1  0  0  0  0
 34 31  1  0  0  0  0
 35 34  1  0  0  0  0
 35 36  2  0  0  0  0
 36 31  1  0  0  0  0
 37 36  1  0  0  0  0
 39  2  1  0  0  0  0
 39 40  1  0  0  0  0
 40 41  1  0  0  0  0
 41 42  2  0  0  0  0
 41 43  1  0  0  0  0
M  END
>  <MODEL>
3

>  <REMARK>
 VINA RESULT:      -7.0      2.949      9.203
  Name = 
  12 active torsions:
  status: ('A' for Active; 'I' for Inactive)
    1  A    between atoms: C_1  and  O_13
    2  A    between atoms: C_9  and  C_29
    3  A    between atoms: C_9  and  C_31
    4  A    between atoms: O_13  and  C_31
    5  A    between atoms: C_14  and  C_42
    6  A    between atoms: S_15  and  C_34
    7  A    between atoms: C_16  and  C_29
    8  A    between atoms: C_16  and  C_39
    9  A    between atoms: C_23  and  C_28
   10  A    between atoms: C_23  and  N_37
   11  A    between atoms: C_23  and  C_38
   12  A    between atoms: N_26  and  C_39
                            x       y       z     vdW  Elec       q    Type
                         _______ _______ _______ _____ _____    ______ ____

>  <TORSDO>
F 12

$$$$
=
 OpenBabel11062418453D

 43 47  0  0  1  0  0  0  0  0999 V2000
  192.4240  171.9820  141.9660 C   0  0  0  0  0  0  0  0  0  0  0  0
  192.9760  172.4510  140.8800 C   0  0  0  0  0  0  0  0  0  0  0  0
  191.9060  171.5310  143.0760 C   0  0  0  0  0  3  0  0  0  0  0  0
  190.1850  172.4270  144.4690 N   0  0  0  0  0  0  0  0  0  0  0  0
  191.6450  174.7410  144.9570 C   0  0  0  0  0  2  0  0  0  0  0  0
  189.7200  173.2710  145.5670 C   0  0  0  0  0  2  0  0  0  0  0  0
  190.2430  174.6450  145.4350 N   0  0  0  0  0  0  0  0  0  0  0  0
  192.3590  173.3900  144.8320 C   0  0  0  0  0  2  0  0  0  0  0  0
  191.4360  172.4400  144.1310 C   0  0  0  0  0  0  0  0  0  0  0  0
  190.0470  175.3470  146.7140 C   0  0  2  0  0  3  0  0  0  0  0  0
  186.1950  177.5690  147.3780 C   0  0  0  0  0  1  0  0  0  0  0  0
  186.0720  177.3480  144.8760 C   0  0  2  0  0  3  0  0  0  0  0  0
  187.8730  176.3370  146.0530 C   0  0  0  0  0  0  0  0  0  0  0  0
  186.7520  178.5910  144.7600 O   0  0  0  0  0  0  0  0  0  0  0  0
  186.4300  176.6460  146.1990 C   0  0  1  0  0  3  0  0  0  0  0  0
  188.3790  176.8440  144.8750 O   0  0  0  0  0  0  0  0  0  0  0  0
  188.5930  175.6310  146.9240 C   0  0  0  0  0  3  0  0  0  0  0  0
  187.3550  177.4850  144.1400 C   0  0  1  0  0  0  0  0  0  0  0  0
  188.4330  178.1520  141.7740 O   0  0  0  0  0  0  0  0  0  0  0  0
  187.2810  177.3880  142.3630 S   0  0  0  0  0  0  0  0  0  0  0  0
  187.3690  175.9540  141.9400 O   0  0  0  0  0  0  0  0  0  0  0  0
  185.4920  178.2110  141.6630 S   0  0  0  0  0  1  0  0  0  0  0  0
  191.3070  176.8510  148.3050 C   0  0  0  0  0  1  0  0  0  0  0  0
  190.8840  176.6330  146.8570 C   0  0  0  0  0  2  0  0  0  0  0  0
  193.3570  174.2040  139.1430 C   0  0  0  0  0  1  0  0  0  0  0  0
  192.6680  173.8540  140.4550 C   0  0  2  0  0  3  0  0  0  0  0  0
  193.0510  174.8330  141.5550 C   0  0  0  0  0  2  0  0  0  0  0  0
  194.5270  175.2020  141.4550 C   0  0  0  0  0  2  0  0  0  0  0  0
  196.3870  172.6740  145.2570 C   0  0  0  0  0  0  0  0  0  0  0  0
  195.8080  172.5710  143.8290 C   0  0  0  0  0  3  0  0  0  0  0  0
  195.5580  176.1730  143.9670 S   0  0  0  0  0  0  0  0  0  0  0  0
  196.7900  171.4740  146.0310 C   0  0  0  0  0  1  0  0  0  0  0  0
  194.3690  176.8600  144.5840 O   0  0  0  0  0  0  0  0  0  0  0  0
  195.1510  175.1080  142.7620 N   0  0  0  0  0  0  0  0  0  0  0  0
  195.6220  174.0070  143.6290 C   0  0  0  0  0  0  0  0  0  0  0  0
  196.0060  174.7360  144.6890 C   0  0  0  0  0  0  0  0  0  0  0  0
  196.5050  173.9320  145.7670 C   0  0  0  0  0  2  0  0  0  0  0  0
  196.6870  177.0910  143.5830 O   0  0  0  0  0  0  0  0  0  0  0  0
  193.9890  171.6220  140.1640 C   0  0  0  0  0  2  0  0  0  0  0  0
  195.2590  171.7920  140.7760 O   0  0  0  0  0  0  0  0  0  0  0  0
  196.3840  172.1680  140.0420 C   0  0  0  0  0  0  0  0  0  0  0  0
  196.6210  171.6580  138.9170 O   0  0  0  0  0  0  0  0  0  0  0  0
  197.2360  173.1340  140.5500 O   0  0  0  0  0  1  0  0  0  0  0  0
  1  3  2  0  0  0  0
  2  1  2  0  0  0  0
  3  9  1  0  0  0  0
  4  6  1  0  0  0  0
  5  7  1  0  0  0  0
  7  6  1  0  0  0  0
  7 10  1  0  0  0  0
  8  5  1  0  0  0  0
  9  4  2  0  0  0  0
  9  8  1  0  0  0  0
 10 24  1  6  0  0  0
 10 17  1  0  0  0  0
 12 14  1  1  0  0  0
 12 15  1  0  0  0  0
 13 15  1  0  0  0  0
 13 17  2  0  0  0  0
 15 11  1  1  0  0  0
 16 13  1  0  0  0  0
 18 20  1  6  0  0  0
 18 14  1  0  0  0  0
 18 16  1  0  0  0  0
 18 12  1  0  0  0  0
 19 20  2  0  0  0  0
 21 20  2  0  0  0  0
 22 20  1  0  0  0  0
 24 23  1  0  0  0  0
 26 25  1  6  0  0  0
 26  2  1  0  0  0  0
 26 27  1  0  0  0  0
 28 27  1  0  0  0  0
 28 34  1  0  0  0  0
 29 37  1  0  0  0  0
 29 32  1  0  0  0  0
 30 29  2  0  0  0  0
 31 33  2  0  0  0  0
 31 36  1  0  0  0  0
 34 35  1  0  0  0  0
 34 31  1  0  0  0  0
 35 30  1  0  0  0  0
 35 36  2  0  0  0  0
 36 37  1  0  0  0  0
 38 31  2  0  0  0  0
 39 40  1  0  0  0  0
 39  2  1  0  0  0  0
 41 43  1  0  0  0  0
 41 40  1  0  0  0  0
 42 41  2  0  0  0  0
M  END
>  <MODEL>
4

>  <REMARK>
 VINA RESULT:      -6.9      2.398      5.001
  Name = 
  12 active torsions:
  status: ('A' for Active; 'I' for Inactive)
    1  A    between atoms: C_1  and  O_13
    2  A    between atoms: C_9  and  C_29
    3  A    between atoms: C_9  and  C_31
    4  A    between atoms: O_13  and  C_31
    5  A    between atoms: C_14  and  C_42
    6  A    between atoms: S_15  and  C_34
    7  A    between atoms: C_16  and  C_29
    8  A    between atoms: C_16  and  C_39
    9  A    between atoms: C_23  and  C_28
   10  A    between atoms: C_23  and  N_37
   11  A    between atoms: C_23  and  C_38
   12  A    between atoms: N_26  and  C_39
                            x       y       z     vdW  Elec       q    Type
                         _______ _______ _______ _____ _____    ______ ____

>  <TORSDO>
F 12

$$$$
=
 OpenBabel11062418453D

 43 47  0  0  1  0  0  0  0  0999 V2000
  191.2800  176.6460  144.5730 C   0  0  0  0  0  0  0  0  0  0  0  0
  190.1250  176.2020  144.9900 C   0  0  0  0  0  0  0  0  0  0  0  0
  192.4550  177.0670  144.1890 C   0  0  0  0  0  3  0  0  0  0  0  0
  194.7320  176.4100  143.8910 N   0  0  0  0  0  0  0  0  0  0  0  0
  194.0770  174.7480  141.7610 C   0  0  0  0  0  2  0  0  0  0  0  0
  195.7560  175.4600  143.4670 C   0  0  0  0  0  2  0  0  0  0  0  0
  195.5050  174.9880  142.0910 N   0  0  0  0  0  0  0  0  0  0  0  0
  193.1250  174.8830  142.9550 C   0  0  0  0  0  2  0  0  0  0  0  0
  193.4790  176.1390  143.6920 C   0  0  0  0  0  0  0  0  0  0  0  0
  196.3350  173.7980  141.8420 C   0  0  2  0  0  3  0  0  0  0  0  0
  196.9120  172.9850  146.2260 C   0  0  0  0  0  1  0  0  0  0  0  0
  195.8350  170.8050  145.5810 C   0  0  2  0  0  3  0  0  0  0  0  0
  196.3140  172.4170  143.9000 C   0  0  0  0  0  0  0  0  0  0  0  0
  194.5670  171.3780  145.8690 O   0  0  0  0  0  0  0  0  0  0  0  0
  196.8510  171.8900  145.1790 C   0  0  1  0  0  3  0  0  0  0  0  0
  195.1040  171.8360  143.5860 O   0  0  0  0  0  0  0  0  0  0  0  0
  196.9280  173.3110  143.1280 C   0  0  0  0  0  3  0  0  0  0  0  0
  194.7510  170.8820  144.5690 C   0  0  1  0  0  0  0  0  0  0  0  0
  193.5880  168.6090  145.3930 O   0  0  0  0  0  0  0  0  0  0  0  0
  193.9370  169.3570  144.1390 S   0  0  0  0  0  0  0  0  0  0  0  0
  192.6840  169.6610  143.3770 O   0  0  0  0  0  0  0  0  0  0  0  0
  195.1930  168.1680  142.9660 S   0  0  0  0  0  1  0  0  0  0  0  0
  197.8000  172.6900  140.1080 C   0  0  0  0  0  1  0  0  0  0  0  0
  197.4280  174.0080  140.7780 C   0  0  0  0  0  2  0  0  0  0  0  0
  190.5120  173.7350  144.9850 C   0  0  0  0  0  1  0  0  0  0  0  0
  189.6330  174.8770  144.4920 C   0  0  2  0  0  3  0  0  0  0  0  0
  189.5440  174.8860  142.9730 C   0  0  0  0  0  2  0  0  0  0  0  0
  188.0900  174.9520  142.5200 C   0  0  0  0  0  2  0  0  0  0  0  0
  185.2670  178.3480  144.7130 C   0  0  0  0  0  0  0  0  0  0  0  0
  185.7530  176.8830  144.7580 C   0  0  0  0  0  2  0  0  0  0  0  0
  187.7230  177.7330  141.8510 S   0  0  0  0  0  0  0  0  0  0  0  0
  184.2900  178.8840  145.6920 C   0  0  0  0  0  1  0  0  0  0  0  0
  187.1460  177.6800  140.4620 O   0  0  0  0  0  0  0  0  0  0  0  0
  187.5810  176.3020  142.6790 N   0  0  0  0  0  0  0  0  0  0  0  0
  186.6440  176.9740  143.6040 C   0  0  0  0  0  0  0  0  0  0  0  0
  186.6560  178.1970  143.0490 C   0  0  0  0  0  0  0  0  0  0  0  0
  185.7880  179.1210  143.7200 C   0  0  0  0  0  3  0  0  0  0  0  0
  189.1020  178.3280  141.9390 O   0  0  0  0  0  0  0  0  0  0  0  0
  189.3890  176.9660  146.0390 C   0  0  0  0  0  2  0  0  0  0  0  0
  189.5790  176.3420  147.3000 O   0  0  0  0  0  0  0  0  0  0  0  0
  190.8280  176.3030  147.9210 C   0  0  0  0  0  0  0  0  0  0  0  0
  191.3260  177.3370  148.4340 O   0  0  0  0  0  1  0  0  0  0  0  0
  191.5140  175.1030  147.9930 O   0  0  0  0  0  0  0  0  0  0  0  0
  1  2  2  0  0  0  0
  2 39  1  0  0  0  0
  3  1  2  0  0  0  0
  5  7  1  0  0  0  0
  5  8  1  0  0  0  0
  6  4  1  0  0  0  0
  7  6  1  0  0  0  0
  8  9  1  0  0  0  0
  9  4  2  0  0  0  0
  9  3  1  0  0  0  0
 10 24  1  6  0  0  0
 10  7  1  0  0  0  0
 10 17  1  0  0  0  0
 12 14  1  1  0  0  0
 13 15  1  0  0  0  0
 15 12  1  0  0  0  0
 15 11  1  1  0  0  0
 16 13  1  0  0  0  0
 16 18  1  0  0  0  0
 17 13  2  0  0  0  0
 18 20  1  6  0  0  0
 18 12  1  0  0  0  0
 18 14  1  0  0  0  0
 20 19  2  0  0  0  0
 21 20  2  0  0  0  0
 22 20  1  0  0  0  0
 23 24  1  0  0  0  0
 26 25  1  6  0  0  0
 26  2  1  0  0  0  0
 27 26  1  0  0  0  0
 28 34  1  0  0  0  0
 28 27  1  0  0  0  0
 29 30  1  0  0  0  0
 29 32  1  0  0  0  0
 31 38  2  0  0  0  0
 31 34  1  0  0  0  0
 31 36  1  0  0  0  0
 33 31  2  0  0  0  0
 34 35  1  0  0  0  0
 35 30  1  0  0  0  0
 36 35  2  0  0  0  0
 36 37  1  0  0  0  0
 37 29  2  0  0  0  0
 39 40  1  0  0  0  0
 40 41  1  0  0  0  0
 41 43  2  0  0  0  0
 41 42  1  0  0  0  0
M  END
>  <MODEL>
5

>  <REMARK>
 VINA RESULT:      -6.9      3.031      8.690
  Name = 
  12 active torsions:
  status: ('A' for Active; 'I' for Inactive)
    1  A    between atoms: C_1  and  O_13
    2  A    between atoms: C_9  and  C_29
    3  A    between atoms: C_9  and  C_31
    4  A    between atoms: O_13  and  C_31
    5  A    between atoms: C_14  and  C_42
    6  A    between atoms: S_15  and  C_34
    7  A    between atoms: C_16  and  C_29
    8  A    between atoms: C_16  and  C_39
    9  A    between atoms: C_23  and  C_28
   10  A    between atoms: C_23  and  N_37
   11  A    between atoms: C_23  and  C_38
   12  A    between atoms: N_26  and  C_39
                            x       y       z     vdW  Elec       q    Type
                         _______ _______ _______ _____ _____    ______ ____

>  <TORSDO>
F 12

$$$$
=
 OpenBabel11062418453D

 43 47  0  0  1  0  0  0  0  0999 V2000
  193.0860  175.3550  146.4880 C   0  0  0  0  0  0  0  0  0  0  0  0
  193.9100  174.4590  146.0160 C   0  0  0  0  0  0  0  0  0  0  0  0
  192.2590  176.2680  146.9180 C   0  0  0  0  0  3  0  0  0  0  0  0
  190.3040  177.4490  146.2180 N   0  0  0  0  0  0  0  0  0  0  0  0
  188.6510  175.3250  146.9140 C   0  0  0  0  0  2  0  0  0  0  0  0
  188.9370  177.4940  145.7080 C   0  0  0  0  0  2  0  0  0  0  0  0
  188.0480  176.6170  146.4960 N   0  0  0  0  0  0  0  0  0  0  0  0
  190.0400  175.0600  146.3220 C   0  0  0  0  0  2  0  0  0  0  0  0
  190.8580  176.3060  146.4780 C   0  0  0  0  0  0  0  0  0  0  0  0
  186.7940  176.4230  145.7500 C   0  0  2  0  0  3  0  0  0  0  0  0
  188.5860  178.0820  141.9750 C   0  0  0  0  0  1  0  0  0  0  0  0
  188.2410  175.7100  141.2130 C   0  0  2  0  0  3  0  0  0  0  0  0
  187.4970  176.3650  143.3740 C   0  0  0  0  0  0  0  0  0  0  0  0
  189.5470  175.4000  141.6800 O   0  0  0  0  0  0  0  0  0  0  0  0
  187.6440  176.8940  141.9960 C   0  0  1  0  0  3  0  0  0  0  0  0
  188.0060  175.0890  143.4800 O   0  0  0  0  0  0  0  0  0  0  0  0
  186.9180  177.0170  144.3820 C   0  0  0  0  0  3  0  0  0  0  0  0
  188.4920  174.6520  142.2250 C   0  0  1  0  0  0  0  0  0  0  0  0
  186.9190  172.4880  142.0100 O   0  0  0  0  0  0  0  0  0  0  0  0
  188.3080  172.9630  141.6910 S   0  0  0  0  0  0  0  0  0  0  0  0
  188.5320  172.8830  140.2130 O   0  0  0  0  0  0  0  0  0  0  0  0
  189.6860  171.7350  142.6710 S   0  0  0  0  0  1  0  0  0  0  0  0
  185.9300  177.6970  147.7530 C   0  0  0  0  0  1  0  0  0  0  0  0
  185.5460  176.9640  146.4730 C   0  0  0  0  0  2  0  0  0  0  0  0
  194.4230  172.0980  145.3840 C   0  0  0  0  0  1  0  0  0  0  0  0
  193.3550  173.1800  145.4660 C   0  0  2  0  0  3  0  0  0  0  0  0
  192.7170  173.4260  144.1070 C   0  0  0  0  0  2  0  0  0  0  0  0
  193.4400  172.6350  143.0220 C   0  0  0  0  0  2  0  0  0  0  0  0
  191.9660  173.0370  138.3350 C   0  0  0  0  0  0  0  0  0  0  0  0
  191.8800  172.1870  139.6220 C   0  0  0  0  0  2  0  0  0  0  0  0
  193.9890  174.7180  141.1060 S   0  0  0  0  0  0  0  0  0  0  0  0
  191.2920  172.6310  137.0770 C   0  0  0  0  0  1  0  0  0  0  0  0
  195.4880  174.6770  140.9730 O   0  0  0  0  0  0  0  0  0  0  0  0
  193.3460  173.3320  141.7530 N   0  0  0  0  0  0  0  0  0  0  0  0
  192.7020  173.0670  140.4500 C   0  0  0  0  0  0  0  0  0  0  0  0
  193.1390  174.1500  139.7860 C   0  0  0  0  0  0  0  0  0  0  0  0
  192.6980  174.1820  138.4210 C   0  0  0  0  0  3  0  0  0  0  0  0
  193.4470  175.9690  141.7420 O   0  0  0  0  0  0  0  0  0  0  0  0
  195.3630  174.7830  145.9260 C   0  0  0  0  0  2  0  0  0  0  0  0
  195.6830  175.1600  144.5950 O   0  0  0  0  0  0  0  0  0  0  0  0
  195.8400  176.4970  144.2270 C   0  0  0  0  0  0  0  0  0  0  0  0
  196.4430  176.8080  143.1680 O   0  0  0  0  0  0  0  0  0  0  0  0
  195.3020  177.4900  145.0270 O   0  0  0  0  0  1  0  0  0  0  0  0
  1  3  2  0  0  0  0
  2  1  2  0  0  0  0
  4  9  2  0  0  0  0
  6  4  1  0  0  0  0
  6  7  1  0  0  0  0
  7  5  1  0  0  0  0
  8  9  1  0  0  0  0
  8  5  1  0  0  0  0
  9  3  1  0  0  0  0
 10 17  1  6  0  0  0
 10 24  1  0  0  0  0
 10  7  1  0  0  0  0
 12 14  1  1  0  0  0
 12 15  1  0  0  0  0
 12 18  1  0  0  0  0
 13 16  1  0  0  0  0
 13 17  2  0  0  0  0
 14 18  1  0  0  0  0
 15 11  1  1  0  0  0
 15 13  1  0  0  0  0
 18 20  1  6  0  0  0
 18 16  1  0  0  0  0
 20 19  2  0  0  0  0
 20 22  1  0  0  0  0
 21 20  2  0  0  0  0
 24 23  1  0  0  0  0
 26 25  1  6  0  0  0
 26  2  1  0  0  0  0
 27 26  1  0  0  0  0
 28 27  1  0  0  0  0
 29 37  2  0  0  0  0
 29 30  1  0  0  0  0
 30 35  1  0  0  0  0
 31 38  2  0  0  0  0
 31 34  1  0  0  0  0
 32 29  1  0  0  0  0
 33 31  2  0  0  0  0
 34 28  1  0  0  0  0
 35 34  1  0  0  0  0
 36 35  2  0  0  0  0
 36 31  1  0  0  0  0
 37 36  1  0  0  0  0
 39  2  1  0  0  0  0
 40 39  1  0  0  0  0
 41 40  1  0  0  0  0
 41 43  1  0  0  0  0
 42 41  2  0  0  0  0
M  END
>  <MODEL>
6

>  <REMARK>
 VINA RESULT:      -6.9      2.861      3.936
  Name = 
  12 active torsions:
  status: ('A' for Active; 'I' for Inactive)
    1  A    between atoms: C_1  and  O_13
    2  A    between atoms: C_9  and  C_29
    3  A    between atoms: C_9  and  C_31
    4  A    between atoms: O_13  and  C_31
    5  A    between atoms: C_14  and  C_42
    6  A    between atoms: S_15  and  C_34
    7  A    between atoms: C_16  and  C_29
    8  A    between atoms: C_16  and  C_39
    9  A    between atoms: C_23  and  C_28
   10  A    between atoms: C_23  and  N_37
   11  A    between atoms: C_23  and  C_38
   12  A    between atoms: N_26  and  C_39
                            x       y       z     vdW  Elec       q    Type
                         _______ _______ _______ _____ _____    ______ ____

>  <TORSDO>
F 12

$$$$
=
 OpenBabel11062418453D

 43 47  0  0  1  0  0  0  0  0999 V2000
  192.9670  175.7180  146.6880 C   0  0  0  0  0  0  0  0  0  0  0  0
  193.7610  175.3820  145.7080 C   0  0  0  0  0  0  0  0  0  0  0  0
  192.1620  176.0920  147.6460 C   0  0  0  0  0  3  0  0  0  0  0  0
  190.0150  175.1450  147.1990 N   0  0  0  0  0  0  0  0  0  0  0  0
  189.0190  177.5790  146.2980 C   0  0  0  0  0  2  0  0  0  0  0  0
  188.5640  175.2430  147.0580 C   0  0  0  0  0  2  0  0  0  0  0  0
  188.1940  176.3520  146.1560 N   0  0  0  0  0  0  0  0  0  0  0  0
  190.0120  177.5360  147.4660 C   0  0  0  0  0  2  0  0  0  0  0  0
  190.7140  176.2120  147.4300 C   0  0  0  0  0  0  0  0  0  0  0  0
  186.7580  176.6310  146.3190 C   0  0  2  0  0  3  0  0  0  0  0  0
  186.4210  178.7800  142.3840 C   0  0  0  0  0  1  0  0  0  0  0  0
  186.9470  176.4810  141.5100 C   0  0  2  0  0  3  0  0  0  0  0  0
  186.6710  176.8090  143.8480 C   0  0  0  0  0  0  0  0  0  0  0  0
  188.3280  176.8100  141.5550 O   0  0  0  0  0  0  0  0  0  0  0  0
  186.1530  177.2970  142.5470 C   0  0  1  0  0  3  0  0  0  0  0  0
  187.6960  175.9040  143.6740 O   0  0  0  0  0  0  0  0  0  0  0  0
  186.1940  177.1660  145.0400 C   0  0  0  0  0  3  0  0  0  0  0  0
  187.9260  175.6880  142.2950 C   0  0  1  0  0  0  0  0  0  0  0  0
  189.6550  173.6350  142.2710 O   0  0  0  0  0  0  0  0  0  0  0  0
  188.3550  174.0790  141.6630 S   0  0  0  0  0  0  0  0  0  0  0  0
  187.2790  173.1010  142.0220 O   0  0  0  0  0  0  0  0  0  0  0  0
  188.5670  174.1470  139.5850 S   0  0  0  0  0  1  0  0  0  0  0  0
  185.4790  178.6770  147.0660 C   0  0  0  0  0  1  0  0  0  0  0  0
  186.4320  177.5680  147.4970 C   0  0  0  0  0  2  0  0  0  0  0  0
  192.3390  175.5120  143.6600 C   0  0  0  0  0  1  0  0  0  0  0  0
  193.2000  174.6210  144.5460 C   0  0  2  0  0  3  0  0  0  0  0  0
  192.4160  173.4140  145.0380 C   0  0  0  0  0  2  0  0  0  0  0  0
  192.3740  172.3270  143.9690 C   0  0  0  0  0  2  0  0  0  0  0  0
  196.5980  170.1650  145.3040 C   0  0  0  0  0  0  0  0  0  0  0  0
  195.1690  170.5360  145.7530 C   0  0  0  0  0  2  0  0  0  0  0  0
  194.7770  171.9070  142.4320 S   0  0  0  0  0  0  0  0  0  0  0  0
  197.5580  169.4890  146.2120 C   0  0  0  0  0  1  0  0  0  0  0  0
  195.2210  173.3060  142.0970 O   0  0  0  0  0  0  0  0  0  0  0  0
  193.7150  171.8390  143.7050 N   0  0  0  0  0  0  0  0  0  0  0  0
  194.7560  171.1390  144.4870 C   0  0  0  0  0  0  0  0  0  0  0  0
  195.7220  171.1100  143.5550 C   0  0  0  0  0  0  0  0  0  0  0  0
  196.9300  170.4950  144.0250 C   0  0  0  0  0  3  0  0  0  0  0  0
  194.3330  171.0870  141.2520 O   0  0  0  0  0  0  0  0  0  0  0  0
  195.1710  175.8710  145.7160 C   0  0  0  0  0  2  0  0  0  0  0  0
  195.9110  175.2000  144.7070 O   0  0  0  0  0  0  0  0  0  0  0  0
  196.9410  174.3120  145.0180 C   0  0  0  0  0  0  0  0  0  0  0  0
  197.8710  174.0910  144.2020 O   0  0  0  0  0  0  0  0  0  0  0  0
  196.9490  173.6870  146.2530 O   0  0  0  0  0  1  0  0  0  0  0  0
  1  3  2  0  0  0  0
  2 39  1  0  0  0  0
  2  1  2  0  0  0  0
  4  9  2  0  0  0  0
  5  8  1  0  0  0  0
  6  4  1  0  0  0  0
  7  5  1  0  0  0  0
  7 10  1  0  0  0  0
  7  6  1  0  0  0  0
  9  8  1  0  0  0  0
  9  3  1  0  0  0  0
 10 17  1  6  0  0  0
 10 24  1  0  0  0  0
 12 14  1  6  0  0  0
 12 18  1  0  0  0  0
 12 15  1  0  0  0  0
 13 17  2  0  0  0  0
 14 18  1  0  0  0  0
 15 11  1  6  0  0  0
 15 13  1  0  0  0  0
 16 13  1  0  0  0  0
 18 20  1  6  0  0  0
 18 16  1  0  0  0  0
 20 21  2  0  0  0  0
 20 19  2  0  0  0  0
 22 20  1  0  0  0  0
 23 24  1  0  0  0  0
 26 25  1  1  0  0  0
 26 27  1  0  0  0  0
 26  2  1  0  0  0  0
 28 27  1  0  0  0  0
 29 30  1  0  0  0  0
 29 32  1  0  0  0  0
 31 36  1  0  0  0  0
 31 34  1  0  0  0  0
 33 31  2  0  0  0  0
 34 28  1  0  0  0  0
 34 35  1  0  0  0  0
 35 30  1  0  0  0  0
 36 37  1  0  0  0  0
 36 35  2  0  0  0  0
 37 29  2  0  0  0  0
 38 31  2  0  0  0  0
 40 41  1  0  0  0  0
 40 39  1  0  0  0  0
 41 43  1  0  0  0  0
 42 41  2  0  0  0  0
M  END
>  <MODEL>
7

>  <REMARK>
 VINA RESULT:      -6.9      2.585      4.529
  Name = 
  12 active torsions:
  status: ('A' for Active; 'I' for Inactive)
    1  A    between atoms: C_1  and  O_13
    2  A    between atoms: C_9  and  C_29
    3  A    between atoms: C_9  and  C_31
    4  A    between atoms: O_13  and  C_31
    5  A    between atoms: C_14  and  C_42
    6  A    between atoms: S_15  and  C_34
    7  A    between atoms: C_16  and  C_29
    8  A    between atoms: C_16  and  C_39
    9  A    between atoms: C_23  and  C_28
   10  A    between atoms: C_23  and  N_37
   11  A    between atoms: C_23  and  C_38
   12  A    between atoms: N_26  and  C_39
                            x       y       z     vdW  Elec       q    Type
                         _______ _______ _______ _____ _____    ______ ____

>  <TORSDO>
F 12

$$$$
=
 OpenBabel11062418453D

 43 47  0  0  1  0  0  0  0  0999 V2000
  192.7970  175.2370  145.6140 C   0  0  0  0  0  0  0  0  0  0  0  0
  193.4660  175.6410  144.5680 C   0  0  0  0  0  0  0  0  0  0  0  0
  192.1330  174.8740  146.6780 C   0  0  0  0  0  3  0  0  0  0  0  0
  189.7530  174.7930  146.8560 N   0  0  0  0  0  0  0  0  0  0  0  0
  189.5590  177.5660  146.8540 C   0  0  0  0  0  2  0  0  0  0  0  0
  188.4690  175.3570  147.2640 C   0  0  0  0  0  2  0  0  0  0  0  0
  188.3230  176.7450  146.7840 N   0  0  0  0  0  0  0  0  0  0  0  0
  190.7330  176.8760  147.5580 C   0  0  0  0  0  2  0  0  0  0  0  0
  190.8400  175.4790  147.0210 C   0  0  0  0  0  0  0  0  0  0  0  0
  187.2020  177.3760  147.5000 C   0  0  2  0  0  3  0  0  0  0  0  0
  183.8840  178.7350  144.7880 C   0  0  0  0  0  1  0  0  0  0  0  0
  185.4510  177.8370  143.0380 C   0  0  2  0  0  3  0  0  0  0  0  0
  186.0160  177.6210  145.3370 C   0  0  0  0  0  0  0  0  0  0  0  0
  186.0390  179.1270  142.9410 O   0  0  0  0  0  0  0  0  0  0  0  0
  184.8400  177.6140  144.4340 C   0  0  1  0  0  3  0  0  0  0  0  0
  187.1770  177.9010  144.6490 O   0  0  0  0  0  0  0  0  0  0  0  0
  185.9750  177.3590  146.6430 C   0  0  0  0  0  3  0  0  0  0  0  0
  186.9000  178.0680  143.2720 C   0  0  1  0  0  0  0  0  0  0  0  0
  187.5210  177.9100  140.6660 O   0  0  0  0  0  0  0  0  0  0  0  0
  188.0240  177.4890  142.0170 S   0  0  0  0  0  0  0  0  0  0  0  0
  189.3780  178.0850  142.2500 O   0  0  0  0  0  0  0  0  0  0  0  0
  188.1620  175.4040  142.0710 S   0  0  0  0  0  1  0  0  0  0  0  0
  186.2290  179.6380  148.0620 C   0  0  0  0  0  1  0  0  0  0  0  0
  187.5020  178.8010  148.0010 C   0  0  0  0  0  2  0  0  0  0  0  0
  192.0900  177.6140  143.8980 C   0  0  0  0  0  1  0  0  0  0  0  0
  192.7290  176.3070  143.4470 C   0  0  2  0  0  3  0  0  0  0  0  0
  191.6900  175.3600  142.8660 C   0  0  0  0  0  2  0  0  0  0  0  0
  192.3440  174.3580  141.9220 C   0  0  0  0  0  2  0  0  0  0  0  0
  193.7640  170.5470  144.7080 C   0  0  0  0  0  0  0  0  0  0  0  0
  194.0450  172.0190  144.3370 C   0  0  0  0  0  2  0  0  0  0  0  0
  191.1810  171.7300  142.1540 S   0  0  0  0  0  0  0  0  0  0  0  0
  194.6120  169.8010  145.6710 C   0  0  0  0  0  1  0  0  0  0  0  0
  191.3020  171.1750  140.7600 O   0  0  0  0  0  0  0  0  0  0  0  0
  192.1930  173.0120  142.4440 N   0  0  0  0  0  0  0  0  0  0  0  0
  192.9300  172.1640  143.4050 C   0  0  0  0  0  0  0  0  0  0  0  0
  192.1990  171.0440  143.2850 C   0  0  0  0  0  0  0  0  0  0  0  0
  192.6900  169.9700  144.1000 C   0  0  0  0  0  3  0  0  0  0  0  0
  189.7700  171.9800  142.6120 O   0  0  0  0  0  0  0  0  0  0  0  0
  194.9550  175.5400  144.5750 C   0  0  0  0  0  2  0  0  0  0  0  0
  195.4970  176.4700  143.6490 O   0  0  0  0  0  0  0  0  0  0  0  0
  196.0570  176.0600  142.4380 C   0  0  0  0  0  0  0  0  0  0  0  0
  196.7830  175.0360  142.3760 O   0  0  0  0  0  1  0  0  0  0  0  0
  195.7850  176.7800  141.2870 O   0  0  0  0  0  0  0  0  0  0  0  0
  1  3  2  0  0  0  0
  2 39  1  0  0  0  0
  2  1  2  0  0  0  0
  3  9  1  0  0  0  0
  4  9  2  0  0  0  0
  4  6  1  0  0  0  0
  5  8  1  0  0  0  0
  7  5  1  0  0  0  0
  7  6  1  0  0  0  0
  7 10  1  0  0  0  0
  9  8  1  0  0  0  0
 10 17  1  6  0  0  0
 10 24  1  0  0  0  0
 12 14  1  1  0  0  0
 12 18  1  0  0  0  0
 12 15  1  0  0  0  0
 13 17  2  0  0  0  0
 14 18  1  0  0  0  0
 15 11  1  1  0  0  0
 15 13  1  0  0  0  0
 16 13  1  0  0  0  0
 18 20  1  6  0  0  0
 18 16  1  0  0  0  0
 19 20  2  0  0  0  0
 20 22  1  0  0  0  0
 20 21  2  0  0  0  0
 24 23  1  0  0  0  0
 26 25  1  1  0  0  0
 26  2  1  0  0  0  0
 27 26  1  0  0  0  0
 28 34  1  0  0  0  0
 28 27  1  0  0  0  0
 29 32  1  0  0  0  0
 30 29  1  0  0  0  0
 31 34  1  0  0  0  0
 31 38  2  0  0  0  0
 31 36  1  0  0  0  0
 33 31  2  0  0  0  0
 34 35  1  0  0  0  0
 35 30  1  0  0  0  0
 36 35  2  0  0  0  0
 36 37  1  0  0  0  0
 37 29  2  0  0  0  0
 40 39  1  0  0  0  0
 41 40  1  0  0  0  0
 42 41  1  0  0  0  0
 43 41  2  0  0  0  0
M  END
>  <MODEL>
8

>  <REMARK>
 VINA RESULT:      -6.9      2.416      3.968
  Name = 
  12 active torsions:
  status: ('A' for Active; 'I' for Inactive)
    1  A    between atoms: C_1  and  O_13
    2  A    between atoms: C_9  and  C_29
    3  A    between atoms: C_9  and  C_31
    4  A    between atoms: O_13  and  C_31
    5  A    between atoms: C_14  and  C_42
    6  A    between atoms: S_15  and  C_34
    7  A    between atoms: C_16  and  C_29
    8  A    between atoms: C_16  and  C_39
    9  A    between atoms: C_23  and  C_28
   10  A    between atoms: C_23  and  N_37
   11  A    between atoms: C_23  and  C_38
   12  A    between atoms: N_26  and  C_39
                            x       y       z     vdW  Elec       q    Type
                         _______ _______ _______ _____ _____    ______ ____

>  <TORSDO>
F 12

$$$$
=
 OpenBabel11062418453D

 43 47  0  0  1  0  0  0  0  0999 V2000
  193.0880  175.4260  146.5700 C   0  0  0  0  0  0  0  0  0  0  0  0
  193.8240  174.6210  145.8510 C   0  0  0  0  0  0  0  0  0  0  0  0
  192.3400  176.2510  147.2510 C   0  0  0  0  0  3  0  0  0  0  0  0
  190.2640  175.1750  146.7650 N   0  0  0  0  0  0  0  0  0  0  0  0
  189.0230  177.6010  146.2120 C   0  0  0  0  0  2  0  0  0  0  0  0
  188.8060  175.1580  146.6870 C   0  0  0  0  0  2  0  0  0  0  0  0
  188.3010  176.3310  145.9460 N   0  0  0  0  0  0  0  0  0  0  0  0
  190.0690  177.5060  147.3290 C   0  0  0  0  0  2  0  0  0  0  0  0
  190.8790  176.2650  147.1030 C   0  0  0  0  0  0  0  0  0  0  0  0
  186.8550  176.4570  146.1920 C   0  0  2  0  0  3  0  0  0  0  0  0
  186.0740  178.7240  142.3890 C   0  0  0  0  0  1  0  0  0  0  0  0
  186.8440  176.5540  141.3780 C   0  0  2  0  0  3  0  0  0  0  0  0
  186.6360  176.7360  143.7390 C   0  0  0  0  0  0  0  0  0  0  0  0
  188.1740  177.0540  141.3860 O   0  0  0  0  0  0  0  0  0  0  0  0
  186.0020  177.2130  142.4860 C   0  0  1  0  0  3  0  0  0  0  0  0
  187.7570  175.9780  143.4790 O   0  0  0  0  0  0  0  0  0  0  0  0
  186.1710  176.9740  144.9650 C   0  0  0  0  0  3  0  0  0  0  0  0
  187.9500  175.8570  142.0830 C   0  0  1  0  0  0  0  0  0  0  0  0
  190.0140  174.1970  141.6480 O   0  0  0  0  0  0  0  0  0  0  0  0
  188.5490  174.3460  141.3530 S   0  0  0  0  0  0  0  0  0  0  0  0
  187.8040  173.1840  141.9340 O   0  0  0  0  0  0  0  0  0  0  0  0
  188.2740  174.3820  139.2810 S   0  0  0  0  0  1  0  0  0  0  0  0
  185.5680  178.4590  147.0390 C   0  0  0  0  0  1  0  0  0  0  0  0
  186.5020  177.3160  147.4210 C   0  0  0  0  0  2  0  0  0  0  0  0
  194.1020  172.1660  145.4900 C   0  0  0  0  0  1  0  0  0  0  0  0
  193.2040  173.3800  145.2870 C   0  0  2  0  0  3  0  0  0  0  0  0
  192.8740  173.5780  143.8160 C   0  0  0  0  0  2  0  0  0  0  0  0
  193.5730  172.5270  142.9610 C   0  0  0  0  0  2  0  0  0  0  0  0
  191.3540  171.9020  138.6030 C   0  0  0  0  0  0  0  0  0  0  0  0
  192.4860  172.6350  139.3540 C   0  0  0  0  0  2  0  0  0  0  0  0
  191.3910  170.7800  142.2550 S   0  0  0  0  0  0  0  0  0  0  0  0
  191.0780  172.1420  137.1650 C   0  0  0  0  0  1  0  0  0  0  0  0
  190.2640  171.2680  143.1270 O   0  0  0  0  0  0  0  0  0  0  0  0
  192.6150  171.8860  142.0790 N   0  0  0  0  0  0  0  0  0  0  0  0
  192.2530  172.0030  140.6510 C   0  0  0  0  0  0  0  0  0  0  0  0
  191.2360  171.1260  140.6290 C   0  0  0  0  0  0  0  0  0  0  0  0
  190.6190  171.0210  139.3380 C   0  0  0  0  0  3  0  0  0  0  0  0
  191.8900  169.4000  142.5850 O   0  0  0  0  0  0  0  0  0  0  0  0
  195.2200  175.0230  145.5110 C   0  0  0  0  0  2  0  0  0  0  0  0
  195.1970  176.2340  144.7700 O   0  0  0  0  0  0  0  0  0  0  0  0
  195.8470  176.3560  143.5420 C   0  0  0  0  0  0  0  0  0  0  0  0
  196.8760  177.0700  143.4240 O   0  0  0  0  0  1  0  0  0  0  0  0
  195.3650  175.6610  142.4460 O   0  0  0  0  0  0  0  0  0  0  0  0
  1  3  2  0  0  0  0
  2  1  2  0  0  0  0
  4  9  2  0  0  0  0
  5  8  1  0  0  0  0
  6  4  1  0  0  0  0
  7 10  1  0  0  0  0
  7  5  1  0  0  0  0
  7  6  1  0  0  0  0
  9  3  1  0  0  0  0
  9  8  1  0  0  0  0
 10 17  1  6  0  0  0
 10 24  1  0  0  0  0
 12 14  1  6  0  0  0
 12 18  1  0  0  0  0
 12 15  1  0  0  0  0
 13 17  2  0  0  0  0
 14 18  1  0  0  0  0
 15 11  1  6  0  0  0
 15 13  1  0  0  0  0
 16 13  1  0  0  0  0
 18 20  1  6  0  0  0
 18 16  1  0  0  0  0
 20 19  2  0  0  0  0
 20 21  2  0  0  0  0
 22 20  1  0  0  0  0
 23 24  1  0  0  0  0
 26 25  1  6  0  0  0
 26  2  1  0  0  0  0
 27 26  1  0  0  0  0
 28 27  1  0  0  0  0
 29 37  2  0  0  0  0
 29 30  1  0  0  0  0
 30 35  1  0  0  0  0
 31 38  2  0  0  0  0
 31 33  2  0  0  0  0
 32 29  1  0  0  0  0
 34 31  1  0  0  0  0
 34 28  1  0  0  0  0
 35 34  1  0  0  0  0
 36 35  2  0  0  0  0
 36 31  1  0  0  0  0
 37 36  1  0  0  0  0
 39  2  1  0  0  0  0
 40 39  1  0  0  0  0
 41 40  1  0  0  0  0
 42 41  1  0  0  0  0
 43 41  2  0  0  0  0
M  END
>  <MODEL>
9

>  <REMARK>
 VINA RESULT:      -6.9      2.755      3.712
  Name = 
  12 active torsions:
  status: ('A' for Active; 'I' for Inactive)
    1  A    between atoms: C_1  and  O_13
    2  A    between atoms: C_9  and  C_29
    3  A    between atoms: C_9  and  C_31
    4  A    between atoms: O_13  and  C_31
    5  A    between atoms: C_14  and  C_42
    6  A    between atoms: S_15  and  C_34
    7  A    between atoms: C_16  and  C_29
    8  A    between atoms: C_16  and  C_39
    9  A    between atoms: C_23  and  C_28
   10  A    between atoms: C_23  and  N_37
   11  A    between atoms: C_23  and  C_38
   12  A    between atoms: N_26  and  C_39
                            x       y       z     vdW  Elec       q    Type
                         _______ _______ _______ _____ _____    ______ ____

>  <TORSDO>
F 12

$$$$
