=
 OpenBabel11062419553D

 28 32  0  0  1  0  0  0  0  0999 V2000
  188.5380  176.7120  144.1620 C   0  0  2  0  0  3  0  0  0  0  0  0
  186.1840  176.6840  146.4090 C   0  0  0  0  0  2  0  0  0  0  0  0
  188.3770  175.5730  146.9960 C   0  0  0  0  0  1  0  0  0  0  0  0
  186.1780  179.1460  143.2530 C   0  0  0  0  0  2  0  0  0  0  0  0
  185.6080  178.0920  144.1860 C   0  0  2  0  0  0  0  0  0  0  0  0
  187.1120  178.4070  142.3470 C   0  0  0  0  0  2  0  0  0  0  0  0
  187.9510  177.5280  145.3180 C   0  0  2  0  0  3  0  0  0  0  0  0
  186.6650  176.9460  142.4100 C   0  0  2  0  0  3  0  0  0  0  0  0
  187.6780  176.8840  146.7210 C   0  0  1  0  0  3  0  0  0  0  0  0
  186.4880  177.3600  145.1020 C   0  0  1  0  0  0  0  0  0  0  0  0
  186.0430  176.6360  143.8000 C   0  0  1  0  0  0  0  0  0  0  0  0
  187.4140  176.0600  143.3590 C   0  0  2  0  0  3  0  0  0  0  0  0
  184.0930  179.2030  145.2720 O   0  0  0  0  0  1  0  0  0  0  0  0
  184.2520  178.1370  144.5150 O   0  0  0  0  0  0  0  0  0  0  0  0
  189.9360  176.0350  144.2040 C   0  0  1  0  0  0  0  0  0  0  0  0
  189.7530  174.5210  144.2920 C   0  0  0  0  0  1  0  0  0  0  0  0
  190.7020  176.3670  142.9010 C   0  0  2  0  0  3  0  0  0  0  0  0
  191.5240  175.3070  142.5040 O   0  0  0  0  0  1  0  0  0  0  0  0
  191.5410  177.6420  142.9890 C   0  0  0  0  0  1  0  0  0  0  0  0
  190.7250  176.4730  145.3410 N   0  0  0  0  0  0  0  0  0  0  0  0
  191.6370  175.7490  145.8850 C   0  0  0  0  0  3  0  0  0  0  0  0
  192.5170  176.3110  146.9540 C   0  0  0  0  0  2  0  0  0  0  0  0
  194.5280  177.5080  146.6760 O   0  0  0  0  0  0  0  0  0  0  0  0
  193.9430  176.4490  146.4900 C   0  0  0  0  0  0  0  0  0  0  0  0
  194.6830  175.2780  145.8960 C   0  0  0  0  0  2  0  0  0  0  0  0
  196.6500  174.7060  144.6200 O   0  0  0  0  0  1  0  0  0  0  0  0
  195.6180  175.6420  144.7150 C   0  0  1  0  0  3  0  0  0  0  0  0
  194.9230  175.7620  143.3520 C   0  0  0  0  0  1  0  0  0  0  0  0
  1 15  1  1  0  0  0
  1  7  1  0  0  0  0
  2  9  1  0  0  0  0
  4  5  1  0  0  0  0
  5 14  1  1  0  0  0
  5 10  1  0  0  0  0
  6  8  1  0  0  0  0
  6  4  1  0  0  0  0
  7  9  1  0  0  0  0
  8 12  1  0  0  0  0
  8 11  1  0  0  0  0
  9  3  1  0  0  0  0
 10  7  1  0  0  0  0
 10  2  1  0  0  0  0
 11  5  1  0  0  0  0
 11 10  1  0  0  0  0
 12 11  1  0  0  0  0
 12  1  1  0  0  0  0
 14 13  1  0  0  0  0
 15 16  1  0  0  0  0
 15 20  1  0  0  0  0
 17 19  1  0  0  0  0
 17 15  1  0  0  0  0
 18 17  1  0  0  0  0
 20 21  2  0  0  0  0
 21 22  1  0  0  0  0
 24 23  2  0  0  0  0
 24 22  1  0  0  0  0
 25 24  1  0  0  0  0
 26 27  1  0  0  0  0
 27 25  1  0  0  0  0
 28 27  1  0  0  0  0
M  END
>  <MODEL>
1

>  <REMARK>
 VINA RESULT:      -7.2      0.000      0.000
  Name = 
  8 active torsions:
  status: ('A' for Active; 'I' for Inactive)
    1  A    between atoms: C_1  and  C_21
    2  A    between atoms: C_4  and  C_21
    3  A    between atoms: N_6  and  C_21
    4  A    between atoms: C_10  and  C_17
    5  A    between atoms: C_11  and  O_19
    6  A    between atoms: C_15  and  C_23
    7  A    between atoms: C_17  and  C_27
    8  A    between atoms: C_23  and  C_27
                            x       y       z     vdW  Elec       q    Type
                         _______ _______ _______ _____ _____    ______ ____

>  <TORSDO>
F 8

$$$$
=
 OpenBabel11062419553D

 28 32  0  0  1  0  0  0  0  0999 V2000
  187.4270  177.0680  143.6760 C   0  0  2  0  0  3  0  0  0  0  0  0
  187.2710  176.5890  146.8910 C   0  0  0  0  0  2  0  0  0  0  0  0
  188.9840  175.2610  145.5910 C   0  0  0  0  0  1  0  0  0  0  0  0
  185.6580  179.7630  145.0640 C   0  0  0  0  0  2  0  0  0  0  0  0
  185.6620  178.5370  145.9600 C   0  0  2  0  0  0  0  0  0  0  0  0
  185.5510  179.2320  143.6700 C   0  0  0  0  0  2  0  0  0  0  0  0
  187.9630  177.5940  145.0110 C   0  0  2  0  0  3  0  0  0  0  0  0
  184.9690  177.8260  143.8150 C   0  0  2  0  0  3  0  0  0  0  0  0
  188.5810  176.6310  146.0840 C   0  0  1  0  0  3  0  0  0  0  0  0
  186.7470  177.5560  145.8690 C   0  0  1  0  0  0  0  0  0  0  0  0
  185.4020  177.2060  145.1730 C   0  0  1  0  0  0  0  0  0  0  0  0
  185.9520  176.6940  143.8170 C   0  0  2  0  0  3  0  0  0  0  0  0
  185.5750  179.3850  147.9560 O   0  0  0  0  0  1  0  0  0  0  0  0
  184.9330  178.5630  147.1510 O   0  0  0  0  0  0  0  0  0  0  0  0
  188.3010  176.3350  142.6210 C   0  0  1  0  0  0  0  0  0  0  0  0
  187.7860  174.9070  142.4540 C   0  0  0  0  0  1  0  0  0  0  0  0
  188.1810  177.0680  141.2630 C   0  0  2  0  0  3  0  0  0  0  0  0
  188.5240  178.4190  141.3770 O   0  0  0  0  0  1  0  0  0  0  0  0
  186.7960  176.9570  140.6260 C   0  0  0  0  0  1  0  0  0  0  0  0
  189.6990  176.2810  143.0080 N   0  0  0  0  0  0  0  0  0  0  0  0
  190.5740  175.5730  142.3870 C   0  0  0  0  0  3  0  0  0  0  0  0
  192.0220  175.6740  142.7380 C   0  0  0  0  0  2  0  0  0  0  0  0
  192.2500  174.3630  144.6830 O   0  0  0  0  0  0  0  0  0  0  0  0
  192.2540  175.4930  144.2160 C   0  0  0  0  0  0  0  0  0  0  0  0
  192.5880  176.6700  145.0980 C   0  0  0  0  0  2  0  0  0  0  0  0
  194.1030  177.0620  146.9360 O   0  0  0  0  0  1  0  0  0  0  0  0
  193.0080  176.2900  146.5410 C   0  0  1  0  0  3  0  0  0  0  0  0
  191.8990  176.4190  147.5930 C   0  0  0  0  0  1  0  0  0  0  0  0
  1 15  1  1  0  0  0
  1 12  1  0  0  0  0
  1  7  1  0  0  0  0
  3  9  1  0  0  0  0
  4  5  1  0  0  0  0
  5 14  1  1  0  0  0
  6  8  1  0  0  0  0
  6  4  1  0  0  0  0
  7 10  1  0  0  0  0
  7  9  1  0  0  0  0
  8 12  1  0  0  0  0
  8 11  1  0  0  0  0
  9  2  1  0  0  0  0
 10  5  1  0  0  0  0
 10  2  1  0  0  0  0
 11 10  1  0  0  0  0
 11  5  1  0  0  0  0
 12 11  1  0  0  0  0
 14 13  1  0  0  0  0
 15 20  1  0  0  0  0
 16 15  1  0  0  0  0
 17 18  1  0  0  0  0
 17 15  1  0  0  0  0
 19 17  1  0  0  0  0
 21 22  1  0  0  0  0
 21 20  2  0  0  0  0
 22 24  1  0  0  0  0
 24 23  2  0  0  0  0
 24 25  1  0  0  0  0
 25 27  1  0  0  0  0
 27 26  1  0  0  0  0
 27 28  1  0  0  0  0
M  END
>  <MODEL>
2

>  <REMARK>
 VINA RESULT:      -7.1      1.838      2.972
  Name = 
  8 active torsions:
  status: ('A' for Active; 'I' for Inactive)
    1  A    between atoms: C_1  and  C_21
    2  A    between atoms: C_4  and  C_21
    3  A    between atoms: N_6  and  C_21
    4  A    between atoms: C_10  and  C_17
    5  A    between atoms: C_11  and  O_19
    6  A    between atoms: C_15  and  C_23
    7  A    between atoms: C_17  and  C_27
    8  A    between atoms: C_23  and  C_27
                            x       y       z     vdW  Elec       q    Type
                         _______ _______ _______ _____ _____    ______ ____

>  <TORSDO>
F 8

$$$$
=
 OpenBabel11062419553D

 28 32  0  0  1  0  0  0  0  0999 V2000
  187.9010  177.0180  144.2270 C   0  0  2  0  0  3  0  0  0  0  0  0
  186.6520  176.5240  147.1910 C   0  0  0  0  0  2  0  0  0  0  0  0
  188.8720  175.4400  146.6610 C   0  0  0  0  0  1  0  0  0  0  0  0
  185.4240  179.4480  144.7500 C   0  0  0  0  0  2  0  0  0  0  0  0
  185.2570  178.2340  145.6470 C   0  0  2  0  0  0  0  0  0  0  0  0
  185.8980  178.9070  143.4380 C   0  0  0  0  0  2  0  0  0  0  0  0
  187.8450  177.6120  145.6370 C   0  0  2  0  0  3  0  0  0  0  0  0
  185.4860  177.4340  143.4350 C   0  0  2  0  0  3  0  0  0  0  0  0
  188.1480  176.7430  146.9070 C   0  0  1  0  0  3  0  0  0  0  0  0
  186.4160  177.4110  146.0010 C   0  0  1  0  0  0  0  0  0  0  0  0
  185.4710  176.8800  144.8870 C   0  0  1  0  0  0  0  0  0  0  0  0
  186.5360  176.4470  143.8460 C   0  0  2  0  0  3  0  0  0  0  0  0
  184.4740  178.8310  147.5810 O   0  0  0  0  0  1  0  0  0  0  0  0
  184.1490  178.1620  146.4940 O   0  0  0  0  0  0  0  0  0  0  0  0
  189.1840  176.4100  143.5950 C   0  0  1  0  0  0  0  0  0  0  0  0
  189.1490  174.8920  143.7600 C   0  0  0  0  0  1  0  0  0  0  0  0
  189.2140  176.7430  142.0830 C   0  0  2  0  0  3  0  0  0  0  0  0
  188.8700  178.0780  141.8460 O   0  0  0  0  0  1  0  0  0  0  0  0
  188.3180  175.8390  141.2370 C   0  0  0  0  0  1  0  0  0  0  0  0
  190.3950  176.9150  144.2150 N   0  0  0  0  0  0  0  0  0  0  0  0
  191.5170  176.2900  144.1800 C   0  0  0  0  0  3  0  0  0  0  0  0
  192.7610  176.9290  144.7050 C   0  0  0  0  0  2  0  0  0  0  0  0
  192.2430  176.4020  146.9420 O   0  0  0  0  0  0  0  0  0  0  0  0
  193.1110  176.4260  146.0810 C   0  0  0  0  0  0  0  0  0  0  0  0
  194.4790  175.8640  146.3770 C   0  0  0  0  0  2  0  0  0  0  0  0
  196.0830  174.1080  145.9680 O   0  0  0  0  0  1  0  0  0  0  0  0
  194.8480  174.6080  145.5490 C   0  0  1  0  0  3  0  0  0  0  0  0
  193.8110  173.4780  145.5890 C   0  0  0  0  0  1  0  0  0  0  0  0
  1 15  1  1  0  0  0
  1  7  1  0  0  0  0
  3  9  1  0  0  0  0
  4  5  1  0  0  0  0
  5 10  1  0  0  0  0
  5 14  1  1  0  0  0
  6  4  1  0  0  0  0
  7 10  1  0  0  0  0
  7  9  1  0  0  0  0
  8  6  1  0  0  0  0
  8 12  1  0  0  0  0
  8 11  1  0  0  0  0
  9  2  1  0  0  0  0
 10  2  1  0  0  0  0
 11  5  1  0  0  0  0
 11 10  1  0  0  0  0
 12  1  1  0  0  0  0
 12 11  1  0  0  0  0
 14 13  1  0  0  0  0
 15 16  1  0  0  0  0
 15 20  1  0  0  0  0
 17 15  1  0  0  0  0
 18 17  1  0  0  0  0
 19 17  1  0  0  0  0
 21 20  2  0  0  0  0
 21 22  1  0  0  0  0
 22 24  1  0  0  0  0
 24 25  1  0  0  0  0
 24 23  2  0  0  0  0
 27 28  1  0  0  0  0
 27 26  1  0  0  0  0
 27 25  1  0  0  0  0
M  END
>  <MODEL>
3

>  <REMARK>
 VINA RESULT:      -7.1      1.542      1.864
  Name = 
  8 active torsions:
  status: ('A' for Active; 'I' for Inactive)
    1  A    between atoms: C_1  and  C_21
    2  A    between atoms: C_4  and  C_21
    3  A    between atoms: N_6  and  C_21
    4  A    between atoms: C_10  and  C_17
    5  A    between atoms: C_11  and  O_19
    6  A    between atoms: C_15  and  C_23
    7  A    between atoms: C_17  and  C_27
    8  A    between atoms: C_23  and  C_27
                            x       y       z     vdW  Elec       q    Type
                         _______ _______ _______ _____ _____    ______ ____

>  <TORSDO>
F 8

$$$$
=
 OpenBabel11062419553D

 28 32  0  0  1  0  0  0  0  0999 V2000
  188.4530  176.7880  144.6090 C   0  0  2  0  0  3  0  0  0  0  0  0
  185.3010  177.1840  145.3150 C   0  0  0  0  0  2  0  0  0  0  0  0
  186.8630  176.6050  147.2160 C   0  0  0  0  0  1  0  0  0  0  0  0
  186.9710  178.4850  141.9180 C   0  0  0  0  0  2  0  0  0  0  0  0
  185.9640  177.7210  142.7610 C   0  0  2  0  0  0  0  0  0  0  0  0
  188.1900  177.6190  141.8810 C   0  0  0  0  0  2  0  0  0  0  0  0
  187.4160  177.8500  144.9870 C   0  0  2  0  0  3  0  0  0  0  0  0
  187.6980  176.2110  142.2160 C   0  0  2  0  0  3  0  0  0  0  0  0
  186.4570  177.6600  146.2130 C   0  0  1  0  0  3  0  0  0  0  0  0
  186.2410  177.4380  144.1710 C   0  0  1  0  0  0  0  0  0  0  0  0
  186.4580  176.2860  143.1510 C   0  0  1  0  0  0  0  0  0  0  0  0
  187.8370  175.7770  143.6430 C   0  0  2  0  0  3  0  0  0  0  0  0
  184.5770  178.3080  141.1980 O   0  0  0  0  0  1  0  0  0  0  0  0
  184.6250  177.6980  142.3640 O   0  0  0  0  0  0  0  0  0  0  0  0
  189.6140  176.3420  145.5420 C   0  0  1  0  0  0  0  0  0  0  0  0
  189.7960  177.3850  146.6430 C   0  0  0  0  0  1  0  0  0  0  0  0
  189.2490  174.9880  146.1960 C   0  0  2  0  0  3  0  0  0  0  0  0
  189.6820  174.9270  147.5240 O   0  0  0  0  0  1  0  0  0  0  0  0
  189.7880  173.7750  145.4390 C   0  0  0  0  0  1  0  0  0  0  0  0
  190.8690  176.1990  144.8270 N   0  0  0  0  0  0  0  0  0  0  0  0
  191.9530  176.7890  145.1860 C   0  0  0  0  0  3  0  0  0  0  0  0
  193.2460  176.4860  144.5010 C   0  0  0  0  0  2  0  0  0  0  0  0
  194.8720  177.7350  145.6630 O   0  0  0  0  0  0  0  0  0  0  0  0
  194.4200  176.6210  145.4360 C   0  0  0  0  0  0  0  0  0  0  0  0
  194.9730  175.4230  146.1640 C   0  0  0  0  0  2  0  0  0  0  0  0
  196.5610  175.2900  144.3520 O   0  0  0  0  0  1  0  0  0  0  0  0
  195.8930  174.5190  145.3050 C   0  0  1  0  0  3  0  0  0  0  0  0
  196.9220  173.7020  146.0990 C   0  0  0  0  0  1  0  0  0  0  0  0
  1  7  1  0  0  0  0
  1 15  1  1  0  0  0
  2  9  1  0  0  0  0
  4  5  1  0  0  0  0
  5 14  1  6  0  0  0
  5 11  1  0  0  0  0
  5 10  1  0  0  0  0
  6  4  1  0  0  0  0
  6  8  1  0  0  0  0
  7  9  1  0  0  0  0
  8 11  1  0  0  0  0
  8 12  1  0  0  0  0
  9  3  1  0  0  0  0
 10  7  1  0  0  0  0
 10  2  1  0  0  0  0
 11 12  1  0  0  0  0
 11 10  1  0  0  0  0
 12  1  1  0  0  0  0
 13 14  1  0  0  0  0
 15 17  1  0  0  0  0
 15 16  1  0  0  0  0
 17 18  1  0  0  0  0
 19 17  1  0  0  0  0
 20 21  2  0  0  0  0
 20 15  1  0  0  0  0
 22 21  1  0  0  0  0
 22 24  1  0  0  0  0
 24 23  2  0  0  0  0
 24 25  1  0  0  0  0
 26 27  1  0  0  0  0
 27 28  1  0  0  0  0
 27 25  1  0  0  0  0
M  END
>  <MODEL>
4

>  <REMARK>
 VINA RESULT:      -6.9      1.749      2.350
  Name = 
  8 active torsions:
  status: ('A' for Active; 'I' for Inactive)
    1  A    between atoms: C_1  and  C_21
    2  A    between atoms: C_4  and  C_21
    3  A    between atoms: N_6  and  C_21
    4  A    between atoms: C_10  and  C_17
    5  A    between atoms: C_11  and  O_19
    6  A    between atoms: C_15  and  C_23
    7  A    between atoms: C_17  and  C_27
    8  A    between atoms: C_23  and  C_27
                            x       y       z     vdW  Elec       q    Type
                         _______ _______ _______ _____ _____    ______ ____

>  <TORSDO>
F 8

$$$$
=
 OpenBabel11062419553D

 28 32  0  0  1  0  0  0  0  0999 V2000
  188.3030  176.8920  144.0330 C   0  0  2  0  0  3  0  0  0  0  0  0
  186.2300  176.7340  146.5370 C   0  0  0  0  0  2  0  0  0  0  0  0
  188.5050  175.6750  146.8320 C   0  0  0  0  0  1  0  0  0  0  0  0
  185.7880  179.2760  143.4770 C   0  0  0  0  0  2  0  0  0  0  0  0
  185.3600  178.1800  144.4390 C   0  0  2  0  0  0  0  0  0  0  0  0
  186.6290  178.5890  142.4470 C   0  0  0  0  0  2  0  0  0  0  0  0
  187.8330  177.6590  145.2730 C   0  0  2  0  0  3  0  0  0  0  0  0
  186.2320  177.1140  142.5180 C   0  0  2  0  0  3  0  0  0  0  0  0
  187.7440  176.9710  146.6790 C   0  0  1  0  0  3  0  0  0  0  0  0
  186.3600  177.4520  145.2240 C   0  0  1  0  0  0  0  0  0  0  0  0
  185.7860  176.7490  143.9620 C   0  0  1  0  0  0  0  0  0  0  0  0
  187.1100  176.2270  143.3470 C   0  0  2  0  0  3  0  0  0  0  0  0
  183.9860  179.1430  145.8160 O   0  0  0  0  0  1  0  0  0  0  0  0
  184.0500  178.1750  144.9240 O   0  0  0  0  0  0  0  0  0  0  0  0
  189.7150  176.2560  143.8930 C   0  0  1  0  0  0  0  0  0  0  0  0
  190.0450  176.1020  142.4100 C   0  0  0  0  0  1  0  0  0  0  0  0
  190.7620  177.1950  144.5400 C   0  0  2  0  0  3  0  0  0  0  0  0
  191.4390  177.9490  143.5760 O   0  0  0  0  0  1  0  0  0  0  0  0
  191.7840  176.4660  145.4120 C   0  0  0  0  0  1  0  0  0  0  0  0
  189.7940  174.9520  144.5230 N   0  0  0  0  0  0  0  0  0  0  0  0
  189.7920  173.8490  143.8620 C   0  0  0  0  0  3  0  0  0  0  0  0
  190.0280  172.5470  144.5540 C   0  0  0  0  0  2  0  0  0  0  0  0
  191.6210  171.0780  143.6260 O   0  0  0  0  0  0  0  0  0  0  0  0
  191.4350  172.0490  144.3460 C   0  0  0  0  0  0  0  0  0  0  0  0
  192.6130  172.7890  144.9290 C   0  0  0  0  0  2  0  0  0  0  0  0
  193.0450  174.1850  143.0080 O   0  0  0  0  0  1  0  0  0  0  0  0
  193.6460  173.2750  143.8810 C   0  0  1  0  0  3  0  0  0  0  0  0
  194.9140  173.9080  144.4690 C   0  0  0  0  0  1  0  0  0  0  0  0
  1 15  1  1  0  0  0
  1  7  1  0  0  0  0
  2  9  1  0  0  0  0
  4  5  1  0  0  0  0
  5 14  1  1  0  0  0
  5 10  1  0  0  0  0
  6  8  1  0  0  0  0
  6  4  1  0  0  0  0
  7  9  1  0  0  0  0
  8 12  1  0  0  0  0
  8 11  1  0  0  0  0
  9  3  1  0  0  0  0
 10  7  1  0  0  0  0
 10  2  1  0  0  0  0
 11  5  1  0  0  0  0
 11 10  1  0  0  0  0
 12 11  1  0  0  0  0
 12  1  1  0  0  0  0
 14 13  1  0  0  0  0
 15 20  1  0  0  0  0
 15 17  1  0  0  0  0
 16 15  1  0  0  0  0
 17 19  1  0  0  0  0
 18 17  1  0  0  0  0
 21 20  2  0  0  0  0
 21 22  1  0  0  0  0
 23 24  2  0  0  0  0
 24 22  1  0  0  0  0
 24 25  1  0  0  0  0
 26 27  1  0  0  0  0
 27 28  1  0  0  0  0
 27 25  1  0  0  0  0
M  END
>  <MODEL>
5

>  <REMARK>
 VINA RESULT:      -6.7      1.654      2.670
  Name = 
  8 active torsions:
  status: ('A' for Active; 'I' for Inactive)
    1  A    between atoms: C_1  and  C_21
    2  A    between atoms: C_4  and  C_21
    3  A    between atoms: N_6  and  C_21
    4  A    between atoms: C_10  and  C_17
    5  A    between atoms: C_11  and  O_19
    6  A    between atoms: C_15  and  C_23
    7  A    between atoms: C_17  and  C_27
    8  A    between atoms: C_23  and  C_27
                            x       y       z     vdW  Elec       q    Type
                         _______ _______ _______ _____ _____    ______ ____

>  <TORSDO>
F 8

$$$$
=
 OpenBabel11062419553D

 28 32  0  0  1  0  0  0  0  0999 V2000
  188.4930  176.4280  145.3980 C   0  0  2  0  0  3  0  0  0  0  0  0
  186.9590  178.3380  143.2550 C   0  0  0  0  0  2  0  0  0  0  0  0
  189.1450  177.2930  142.5370 C   0  0  0  0  0  1  0  0  0  0  0  0
  185.1770  176.7910  146.4870 C   0  0  0  0  0  2  0  0  0  0  0  0
  185.6130  177.9000  145.5460 C   0  0  2  0  0  0  0  0  0  0  0  0
  186.3780  176.4930  147.3280 C   0  0  0  0  0  2  0  0  0  0  0  0
  187.4290  176.4090  144.2960 C   0  0  2  0  0  3  0  0  0  0  0  0
  187.2570  177.7410  147.2360 C   0  0  2  0  0  3  0  0  0  0  0  0
  187.6980  177.0390  142.8850 C   0  0  1  0  0  3  0  0  0  0  0  0
  186.6800  177.6660  144.5690 C   0  0  1  0  0  0  0  0  0  0  0  0
  187.0490  178.4420  145.8640 C   0  0  1  0  0  0  0  0  0  0  0  0
  188.3640  177.7050  146.2270 C   0  0  2  0  0  3  0  0  0  0  0  0
  183.6470  178.7090  145.9860 O   0  0  0  0  0  1  0  0  0  0  0  0
  184.7310  178.9500  145.2770 O   0  0  0  0  0  0  0  0  0  0  0  0
  189.8810  175.7380  145.2720 C   0  0  1  0  0  0  0  0  0  0  0  0
  190.9630  176.8120  145.1830 C   0  0  0  0  0  1  0  0  0  0  0  0
  190.1370  174.8790  146.5340 C   0  0  2  0  0  3  0  0  0  0  0  0
  188.9410  174.5410  147.1760 O   0  0  0  0  0  1  0  0  0  0  0  0
  191.0770  175.5360  147.5440 C   0  0  0  0  0  1  0  0  0  0  0  0
  189.9690  174.8920  144.0970 N   0  0  0  0  0  0  0  0  0  0  0  0
  189.7460  173.6270  144.1230 C   0  0  0  0  0  3  0  0  0  0  0  0
  189.7040  172.8350  142.8560 C   0  0  0  0  0  2  0  0  0  0  0  0
  187.5020  173.2680  142.1360 O   0  0  0  0  0  0  0  0  0  0  0  0
  188.6930  173.3870  141.8850 C   0  0  0  0  0  0  0  0  0  0  0  0
  189.1300  174.1660  140.6700 C   0  0  0  0  0  2  0  0  0  0  0  0
  188.1910  173.6980  138.4960 O   0  0  0  0  0  1  0  0  0  0  0  0
  189.2160  173.3280  139.3690 C   0  0  1  0  0  3  0  0  0  0  0  0
  190.5580  173.4150  138.6310 C   0  0  0  0  0  1  0  0  0  0  0  0
  1 15  1  6  0  0  0
  1 12  1  0  0  0  0
  2 10  1  0  0  0  0
  3  9  1  0  0  0  0
  4  6  1  0  0  0  0
  5 14  1  6  0  0  0
  5 11  1  0  0  0  0
  5  4  1  0  0  0  0
  7 10  1  0  0  0  0
  7  1  1  0  0  0  0
  8  6  1  0  0  0  0
  9  2  1  0  0  0  0
  9  7  1  0  0  0  0
 10  5  1  0  0  0  0
 10 11  1  0  0  0  0
 11 12  1  0  0  0  0
 11  8  1  0  0  0  0
 12  8  1  0  0  0  0
 14 13  1  0  0  0  0
 15 17  1  0  0  0  0
 16 15  1  0  0  0  0
 17 18  1  0  0  0  0
 17 19  1  0  0  0  0
 20 21  2  0  0  0  0
 20 15  1  0  0  0  0
 22 21  1  0  0  0  0
 24 23  2  0  0  0  0
 24 22  1  0  0  0  0
 25 24  1  0  0  0  0
 26 27  1  0  0  0  0
 27 25  1  0  0  0  0
 28 27  1  0  0  0  0
M  END
>  <MODEL>
6

>  <REMARK>
 VINA RESULT:      -6.6      2.898      5.070
  Name = 
  8 active torsions:
  status: ('A' for Active; 'I' for Inactive)
    1  A    between atoms: C_1  and  C_21
    2  A    between atoms: C_4  and  C_21
    3  A    between atoms: N_6  and  C_21
    4  A    between atoms: C_10  and  C_17
    5  A    between atoms: C_11  and  O_19
    6  A    between atoms: C_15  and  C_23
    7  A    between atoms: C_17  and  C_27
    8  A    between atoms: C_23  and  C_27
                            x       y       z     vdW  Elec       q    Type
                         _______ _______ _______ _____ _____    ______ ____

>  <TORSDO>
F 8

$$$$
=
 OpenBabel11062419553D

 28 32  0  0  1  0  0  0  0  0999 V2000
  191.6580  176.0050  145.0420 C   0  0  2  0  0  3  0  0  0  0  0  0
  193.5340  175.2620  142.4890 C   0  0  0  0  0  2  0  0  0  0  0  0
  191.0310  175.0640  142.2010 C   0  0  0  0  0  1  0  0  0  0  0  0
  194.8440  177.3520  145.6400 C   0  0  0  0  0  2  0  0  0  0  0  0
  194.8620  176.2220  144.6250 C   0  0  2  0  0  0  0  0  0  0  0  0
  193.8260  176.9490  146.6600 C   0  0  0  0  0  2  0  0  0  0  0  0
  192.3550  176.6210  143.8250 C   0  0  2  0  0  3  0  0  0  0  0  0
  193.6900  175.4320  146.5190 C   0  0  2  0  0  3  0  0  0  0  0  0
  192.1920  176.0110  142.3900 C   0  0  1  0  0  3  0  0  0  0  0  0
  193.6680  175.9190  143.8330 C   0  0  1  0  0  0  0  0  0  0  0  0
  193.9730  175.0040  145.0520 C   0  0  1  0  0  0  0  0  0  0  0  0
  192.5540  174.9400  145.6730 C   0  0  2  0  0  3  0  0  0  0  0  0
  196.6220  176.8340  143.5110 O   0  0  0  0  0  1  0  0  0  0  0  0
  196.0870  175.7900  144.1110 O   0  0  0  0  0  0  0  0  0  0  0  0
  190.1150  175.8870  145.1880 C   0  0  1  0  0  0  0  0  0  0  0  0
  189.6790  174.4930  144.7430 C   0  0  0  0  0  1  0  0  0  0  0  0
  189.7290  176.0770  146.6740 C   0  0  2  0  0  3  0  0  0  0  0  0
  188.5320  175.4220  146.9810 O   0  0  0  0  0  1  0  0  0  0  0  0
  189.6180  177.5420  147.0980 C   0  0  0  0  0  1  0  0  0  0  0  0
  189.4110  176.8710  144.3860 N   0  0  0  0  0  0  0  0  0  0  0  0
  188.3180  176.6150  143.7600 C   0  0  0  0  0  3  0  0  0  0  0  0
  187.5610  177.7060  143.0750 C   0  0  0  0  0  2  0  0  0  0  0  0
  185.9310  179.3190  143.6180 O   0  0  0  0  0  0  0  0  0  0  0  0
  186.4940  178.2890  143.9640 C   0  0  0  0  0  0  0  0  0  0  0  0
  186.0450  177.5710  145.2120 C   0  0  0  0  0  2  0  0  0  0  0  0
  184.0690  178.4600  146.2730 O   0  0  0  0  0  1  0  0  0  0  0  0
  185.4640  178.4960  146.3100 C   0  0  1  0  0  3  0  0  0  0  0  0
  185.9350  178.1830  147.7360 C   0  0  0  0  0  1  0  0  0  0  0  0
  1 15  1  6  0  0  0
  1 12  1  0  0  0  0
  2 10  1  0  0  0  0
  3  9  1  0  0  0  0
  4  6  1  0  0  0  0
  5 14  1  6  0  0  0
  5 11  1  0  0  0  0
  5  4  1  0  0  0  0
  7 10  1  0  0  0  0
  7  1  1  0  0  0  0
  8  6  1  0  0  0  0
  9  2  1  0  0  0  0
  9  7  1  0  0  0  0
 10  5  1  0  0  0  0
 10 11  1  0  0  0  0
 11 12  1  0  0  0  0
 11  8  1  0  0  0  0
 12  8  1  0  0  0  0
 13 14  1  0  0  0  0
 15 17  1  0  0  0  0
 16 15  1  0  0  0  0
 17 18  1  0  0  0  0
 17 19  1  0  0  0  0
 20 15  1  0  0  0  0
 21 20  2  0  0  0  0
 22 21  1  0  0  0  0
 22 24  1  0  0  0  0
 23 24  2  0  0  0  0
 24 25  1  0  0  0  0
 25 27  1  0  0  0  0
 26 27  1  0  0  0  0
 27 28  1  0  0  0  0
M  END
>  <MODEL>
7

>  <REMARK>
 VINA RESULT:      -6.6      1.736      7.799
  Name = 
  8 active torsions:
  status: ('A' for Active; 'I' for Inactive)
    1  A    between atoms: C_1  and  C_21
    2  A    between atoms: C_4  and  C_21
    3  A    between atoms: N_6  and  C_21
    4  A    between atoms: C_10  and  C_17
    5  A    between atoms: C_11  and  O_19
    6  A    between atoms: C_15  and  C_23
    7  A    between atoms: C_17  and  C_27
    8  A    between atoms: C_23  and  C_27
                            x       y       z     vdW  Elec       q    Type
                         _______ _______ _______ _____ _____    ______ ____

>  <TORSDO>
F 8

$$$$
=
 OpenBabel11062419553D

 28 32  0  0  1  0  0  0  0  0999 V2000
  188.3520  176.9690  144.0830 C   0  0  2  0  0  3  0  0  0  0  0  0
  186.2960  176.7250  146.5940 C   0  0  0  0  0  2  0  0  0  0  0  0
  188.5900  175.6970  146.8550 C   0  0  0  0  0  1  0  0  0  0  0  0
  185.7950  179.3220  143.5910 C   0  0  0  0  0  2  0  0  0  0  0  0
  185.3910  178.2000  144.5310 C   0  0  2  0  0  0  0  0  0  0  0  0
  186.6410  178.6710  142.5420 C   0  0  0  0  0  2  0  0  0  0  0  0
  187.8770  177.7020  145.3410 C   0  0  2  0  0  3  0  0  0  0  0  0
  186.2690  177.1890  142.5840 C   0  0  2  0  0  3  0  0  0  0  0  0
  187.8070  176.9830  146.7330 C   0  0  1  0  0  3  0  0  0  0  0  0
  186.4070  177.4720  145.2950 C   0  0  1  0  0  0  0  0  0  0  0  0
  185.8380  176.7870  144.0220 C   0  0  1  0  0  0  0  0  0  0  0  0
  187.1670  176.2990  143.3900 C   0  0  2  0  0  3  0  0  0  0  0  0
  183.9990  179.1330  145.9110 O   0  0  0  0  0  1  0  0  0  0  0  0
  184.0840  178.1630  145.0230 O   0  0  0  0  0  0  0  0  0  0  0  0
  189.7730  176.3600  143.9220 C   0  0  1  0  0  0  0  0  0  0  0  0
  190.1310  176.3200  142.4380 C   0  0  0  0  0  1  0  0  0  0  0  0
  190.7980  177.2580  144.6560 C   0  0  2  0  0  3  0  0  0  0  0  0
  191.2240  178.3160  143.8470 O   0  0  0  0  0  1  0  0  0  0  0  0
  192.0210  176.4990  145.1710 C   0  0  0  0  0  1  0  0  0  0  0  0
  189.8560  175.0120  144.4550 N   0  0  0  0  0  0  0  0  0  0  0  0
  189.8330  173.9610  143.7160 C   0  0  0  0  0  3  0  0  0  0  0  0
  190.0740  172.6100  144.3070 C   0  0  0  0  0  2  0  0  0  0  0  0
  191.9180  171.1460  144.4110 O   0  0  0  0  0  0  0  0  0  0  0  0
  191.3060  171.9590  143.7320 C   0  0  0  0  0  0  0  0  0  0  0  0
  191.7290  172.2210  142.3090 C   0  0  0  0  0  2  0  0  0  0  0  0
  190.5010  170.1920  141.8630 O   0  0  0  0  0  1  0  0  0  0  0  0
  191.0120  171.3400  141.2550 C   0  0  1  0  0  3  0  0  0  0  0  0
  189.8860  172.0410  140.4850 C   0  0  0  0  0  1  0  0  0  0  0  0
  1 15  1  1  0  0  0
  1  7  1  0  0  0  0
  2  9  1  0  0  0  0
  4  5  1  0  0  0  0
  5 14  1  1  0  0  0
  5 10  1  0  0  0  0
  6  8  1  0  0  0  0
  6  4  1  0  0  0  0
  7  9  1  0  0  0  0
  8 12  1  0  0  0  0
  8 11  1  0  0  0  0
  9  3  1  0  0  0  0
 10  7  1  0  0  0  0
 10  2  1  0  0  0  0
 11  5  1  0  0  0  0
 11 10  1  0  0  0  0
 12 11  1  0  0  0  0
 12  1  1  0  0  0  0
 14 13  1  0  0  0  0
 15 20  1  0  0  0  0
 15 17  1  0  0  0  0
 16 15  1  0  0  0  0
 17 19  1  0  0  0  0
 18 17  1  0  0  0  0
 21 22  1  0  0  0  0
 21 20  2  0  0  0  0
 24 22  1  0  0  0  0
 24 23  2  0  0  0  0
 25 24  1  0  0  0  0
 27 26  1  0  0  0  0
 27 25  1  0  0  0  0
 28 27  1  0  0  0  0
M  END
>  <MODEL>
8

>  <REMARK>
 VINA RESULT:      -6.6      2.224      3.561
  Name = 
  8 active torsions:
  status: ('A' for Active; 'I' for Inactive)
    1  A    between atoms: C_1  and  C_21
    2  A    between atoms: C_4  and  C_21
    3  A    between atoms: N_6  and  C_21
    4  A    between atoms: C_10  and  C_17
    5  A    between atoms: C_11  and  O_19
    6  A    between atoms: C_15  and  C_23
    7  A    between atoms: C_17  and  C_27
    8  A    between atoms: C_23  and  C_27
                            x       y       z     vdW  Elec       q    Type
                         _______ _______ _______ _____ _____    ______ ____

>  <TORSDO>
F 8

$$$$
=
 OpenBabel11062419553D

 28 32  0  0  1  0  0  0  0  0999 V2000
  188.5740  176.0820  145.2470 C   0  0  2  0  0  3  0  0  0  0  0  0
  187.5300  178.0810  142.9010 C   0  0  0  0  0  2  0  0  0  0  0  0
  189.6300  176.7470  142.4550 C   0  0  0  0  0  1  0  0  0  0  0  0
  185.2330  176.8940  145.9560 C   0  0  0  0  0  2  0  0  0  0  0  0
  185.9040  177.9030  145.0400 C   0  0  2  0  0  0  0  0  0  0  0  0
  186.2910  176.4830  146.9310 C   0  0  0  0  0  2  0  0  0  0  0  0
  187.6380  176.1510  144.0360 C   0  0  2  0  0  3  0  0  0  0  0  0
  187.3260  177.6080  146.9040 C   0  0  2  0  0  3  0  0  0  0  0  0
  188.1330  176.6870  142.6480 C   0  0  1  0  0  3  0  0  0  0  0  0
  187.0300  177.5010  144.1930 C   0  0  1  0  0  0  0  0  0  0  0  0
  187.3550  178.2750  145.5010 C   0  0  1  0  0  0  0  0  0  0  0  0
  188.5200  177.3960  146.0240 C   0  0  2  0  0  3  0  0  0  0  0  0
  184.0550  178.6130  144.1520 O   0  0  0  0  0  1  0  0  0  0  0  0
  185.1970  179.0420  144.6490 O   0  0  0  0  0  0  0  0  0  0  0  0
  189.8670  175.2210  145.2930 C   0  0  1  0  0  0  0  0  0  0  0  0
  190.2210  174.9330  146.7510 C   0  0  0  0  0  1  0  0  0  0  0  0
  189.6100  173.8770  144.5700 C   0  0  2  0  0  3  0  0  0  0  0  0
  189.6870  172.7960  145.4540 O   0  0  0  0  0  1  0  0  0  0  0  0
  190.5490  173.6250  143.3900 C   0  0  0  0  0  1  0  0  0  0  0  0
  190.9930  175.8890  144.6660 N   0  0  0  0  0  0  0  0  0  0  0  0
  191.9940  176.3490  145.3270 C   0  0  0  0  0  3  0  0  0  0  0  0
  193.1910  176.8900  144.6160 C   0  0  0  0  0  2  0  0  0  0  0  0
  194.9520  177.9630  145.7570 O   0  0  0  0  0  0  0  0  0  0  0  0
  194.4120  176.8960  145.4980 C   0  0  0  0  0  0  0  0  0  0  0  0
  194.9110  175.6270  146.1410 C   0  0  0  0  0  2  0  0  0  0  0  0
  196.4700  175.3730  144.3170 O   0  0  0  0  0  1  0  0  0  0  0  0
  195.6290  174.6560  145.1700 C   0  0  1  0  0  3  0  0  0  0  0  0
  196.4360  173.5420  145.8490 C   0  0  0  0  0  1  0  0  0  0  0  0
  1 15  1  6  0  0  0
  1 12  1  0  0  0  0
  2 10  1  0  0  0  0
  3  9  1  0  0  0  0
  4  6  1  0  0  0  0
  5 14  1  6  0  0  0
  5 11  1  0  0  0  0
  5  4  1  0  0  0  0
  7 10  1  0  0  0  0
  7  1  1  0  0  0  0
  8  6  1  0  0  0  0
  9  2  1  0  0  0  0
  9  7  1  0  0  0  0
 10  5  1  0  0  0  0
 10 11  1  0  0  0  0
 11 12  1  0  0  0  0
 11  8  1  0  0  0  0
 12  8  1  0  0  0  0
 13 14  1  0  0  0  0
 15 16  1  0  0  0  0
 17 15  1  0  0  0  0
 17 18  1  0  0  0  0
 19 17  1  0  0  0  0
 20 15  1  0  0  0  0
 20 21  2  0  0  0  0
 22 21  1  0  0  0  0
 22 24  1  0  0  0  0
 24 23  2  0  0  0  0
 24 25  1  0  0  0  0
 26 27  1  0  0  0  0
 27 28  1  0  0  0  0
 27 25  1  0  0  0  0
M  END
>  <MODEL>
9

>  <REMARK>
 VINA RESULT:      -6.5      1.456      2.830
  Name = 
  8 active torsions:
  status: ('A' for Active; 'I' for Inactive)
    1  A    between atoms: C_1  and  C_21
    2  A    between atoms: C_4  and  C_21
    3  A    between atoms: N_6  and  C_21
    4  A    between atoms: C_10  and  C_17
    5  A    between atoms: C_11  and  O_19
    6  A    between atoms: C_15  and  C_23
    7  A    between atoms: C_17  and  C_27
    8  A    between atoms: C_23  and  C_27
                            x       y       z     vdW  Elec       q    Type
                         _______ _______ _______ _____ _____    ______ ____

>  <TORSDO>
F 8

$$$$
