=
 OpenBabel11062420153D

 25 27  0  0  1  0  0  0  0  0999 V2000
  185.3490  178.8800  143.5020 C   0  0  0  0  0  2  0  0  0  0  0  0
  184.3230  178.9960  144.9980 S   0  0  0  0  0  0  0  0  0  0  0  0
  185.7470  178.8400  146.1230 C   0  0  0  0  0  2  0  0  0  0  0  0
  186.8050  177.9230  145.5330 C   0  0  0  0  0  2  0  0  0  0  0  0
  190.7530  176.9450  145.9670 C   0  0  0  0  0  2  0  0  0  0  0  0
  188.1960  175.9570  145.9640 C   0  0  2  0  0  3  0  0  0  0  0  0
  189.1640  174.8510  146.3490 C   0  0  1  0  0  3  0  0  0  0  0  0
  188.7170  177.0530  146.8280 N   0  0  1  0  0  0  0  0  0  0  0  0
  189.5220  177.6780  145.9290 O   0  0  0  0  0  0  0  0  0  0  0  0
  190.5610  175.4230  146.1290 C   0  0  0  0  0  0  0  0  0  0  0  0
  187.2840  176.9230  146.5760 C   0  0  1  0  0  3  0  0  0  0  0  0
  188.9940  174.4650  147.6810 O   0  0  0  0  0  1  0  0  0  0  0  0
  191.5290  174.6800  146.1050 O   0  0  0  0  0  0  0  0  0  0  0  0
  184.7530  177.8630  142.5510 C   0  0  0  0  0  2  0  0  0  0  0  0
  185.1860  178.1690  141.1560 C   0  0  0  0  0  3  0  0  0  0  0  0
  186.3730  177.9170  140.6820 N   0  0  0  0  0  0  0  0  0  0  0  0
  188.5370  178.1320  141.7880 C   0  0  0  0  0  3  0  0  0  0  0  0
  188.7170  175.3930  142.2130 C   0  0  0  0  0  0  0  0  0  0  0  0
  187.5990  175.9290  141.5650 C   0  0  0  0  0  3  0  0  0  0  0  0
  189.7280  176.2610  142.6350 C   0  0  0  0  0  3  0  0  0  0  0  0
  189.6190  177.5980  142.4160 N   0  0  0  0  0  0  0  0  0  0  0  0
  187.4960  177.3100  141.3460 C   0  0  0  0  0  0  0  0  0  0  0  0
  188.8290  173.9440  142.4450 C   0  0  0  0  0  0  0  0  0  0  0  0
  187.8770  173.0760  141.9240 O   0  0  0  0  0  0  0  0  0  0  0  0
  189.7880  173.4780  143.1170 O   0  0  0  0  0  1  0  0  0  0  0  0
  1  2  1  0  0  0  0
  2  3  1  0  0  0  0
  4  3  1  0  0  0  0
  4 11  1  0  0  0  0
  5 10  1  0  0  0  0
  6  7  1  0  0  0  0
  6 11  1  0  0  0  0
  6  8  1  0  0  0  0
  7 12  1  0  0  0  0
  9  5  1  0  0  0  0
  9  8  1  0  0  0  0
 10  7  1  0  0  0  0
 11  8  1  0  0  0  0
 13 10  2  0  0  0  0
 14  1  1  0  0  0  0
 15 14  1  0  0  0  0
 16 15  2  0  0  0  0
 16 22  1  0  0  0  0
 17 21  1  0  0  0  0
 18 23  1  0  0  0  0
 18 20  1  0  0  0  0
 19 18  2  0  0  0  0
 21 20  2  0  0  0  0
 22 19  1  0  0  0  0
 22 17  2  0  0  0  0
 23 25  1  0  0  0  0
 24 23  2  0  0  0  0
M  END
>  <MODEL>
1

>  <REMARK>
 VINA RESULT:      -6.1      0.000      0.000
  Name = 
  8 active torsions:
  status: ('A' for Active; 'I' for Inactive)
    1  A    between atoms: S_1  and  C_4
    2  A    between atoms: S_1  and  C_14
    3  A    between atoms: C_2  and  C_5
    4  A    between atoms: C_4  and  C_18
    5  A    between atoms: C_5  and  C_14
    6  A    between atoms: C_6  and  C_10
    7  A    between atoms: N_12  and  C_22
    8  A    between atoms: C_18  and  C_23
                            x       y       z     vdW  Elec       q    Type
                         _______ _______ _______ _____ _____    ______ ____

>  <TORSDO>
F 8

$$$$
=
 OpenBabel11062420153D

 25 27  0  0  1  0  0  0  0  0999 V2000
  188.3670  174.8530  141.1640 C   0  0  0  0  0  2  0  0  0  0  0  0
  187.9700  173.1640  141.7080 S   0  0  0  0  0  0  0  0  0  0  0  0
  189.6670  172.8290  142.2800 C   0  0  0  0  0  2  0  0  0  0  0  0
  189.7580  172.9350  143.7930 C   0  0  0  0  0  2  0  0  0  0  0  0
  189.1800  175.2000  147.1500 C   0  0  0  0  0  2  0  0  0  0  0  0
  189.9560  175.2620  144.5210 C   0  0  2  0  0  3  0  0  0  0  0  0
  190.1540  176.6370  145.1390 C   0  0  1  0  0  3  0  0  0  0  0  0
  190.5520  174.4210  145.5970 N   0  0  1  0  0  0  0  0  0  0  0  0
  189.4190  174.0930  146.2720 O   0  0  0  0  0  0  0  0  0  0  0  0
  189.5150  176.5690  146.5220 C   0  0  0  0  0  0  0  0  0  0  0  0
  190.7100  174.0530  144.1920 C   0  0  1  0  0  3  0  0  0  0  0  0
  191.5090  176.9610  145.2370 O   0  0  0  0  0  1  0  0  0  0  0  0
  189.2900  177.5950  147.1420 O   0  0  0  0  0  0  0  0  0  0  0  0
  187.5260  175.8490  141.9340 C   0  0  0  0  0  2  0  0  0  0  0  0
  188.0170  177.2320  141.6650 C   0  0  0  0  0  3  0  0  0  0  0  0
  187.5360  178.3070  142.2240 N   0  0  0  0  0  0  0  0  0  0  0  0
  185.1740  178.6410  142.7310 C   0  0  0  0  0  3  0  0  0  0  0  0
  185.6190  178.4460  145.4660 C   0  0  0  0  0  0  0  0  0  0  0  0
  186.6880  178.3240  144.5720 C   0  0  0  0  0  3  0  0  0  0  0  0
  184.3370  178.6660  144.9530 C   0  0  0  0  0  3  0  0  0  0  0  0
  184.1430  178.7590  143.6100 N   0  0  0  0  0  0  0  0  0  0  0  0
  186.4750  178.4200  143.1890 C   0  0  0  0  0  0  0  0  0  0  0  0
  185.8360  178.3470  146.9180 C   0  0  0  0  0  0  0  0  0  0  0  0
  185.9730  177.1020  147.5210 O   0  0  0  0  0  0  0  0  0  0  0  0
  185.9010  179.3860  147.6260 O   0  0  0  0  0  1  0  0  0  0  0  0
  1  2  1  0  0  0  0
  1 14  1  0  0  0  0
  2  3  1  0  0  0  0
  3  4  1  0  0  0  0
  4 11  1  0  0  0  0
  6  7  1  0  0  0  0
  6  8  1  0  0  0  0
  7 12  1  0  0  0  0
  7 10  1  0  0  0  0
  8  9  1  0  0  0  0
  9  5  1  0  0  0  0
 10 13  2  0  0  0  0
 10  5  1  0  0  0  0
 11  6  1  0  0  0  0
 11  8  1  0  0  0  0
 15 14  1  0  0  0  0
 15 16  2  0  0  0  0
 16 22  1  0  0  0  0
 17 22  2  0  0  0  0
 17 21  1  0  0  0  0
 18 23  1  0  0  0  0
 19 18  2  0  0  0  0
 20 18  1  0  0  0  0
 21 20  2  0  0  0  0
 22 19  1  0  0  0  0
 23 24  2  0  0  0  0
 23 25  1  0  0  0  0
M  END
>  <MODEL>
2

>  <REMARK>
 VINA RESULT:      -6.0      2.526      5.010
  Name = 
  8 active torsions:
  status: ('A' for Active; 'I' for Inactive)
    1  A    between atoms: S_1  and  C_4
    2  A    between atoms: S_1  and  C_14
    3  A    between atoms: C_2  and  C_5
    4  A    between atoms: C_4  and  C_18
    5  A    between atoms: C_5  and  C_14
    6  A    between atoms: C_6  and  C_10
    7  A    between atoms: N_12  and  C_22
    8  A    between atoms: C_18  and  C_23
                            x       y       z     vdW  Elec       q    Type
                         _______ _______ _______ _____ _____    ______ ____

>  <TORSDO>
F 8

$$$$
=
 OpenBabel11062420153D

 25 27  0  0  1  0  0  0  0  0999 V2000
  192.3720  175.1660  146.8600 C   0  0  0  0  0  2  0  0  0  0  0  0
  191.0010  176.3300  147.1210 S   0  0  0  0  0  0  0  0  0  0  0  0
  189.7290  175.1130  146.6520 C   0  0  0  0  0  2  0  0  0  0  0  0
  188.3350  175.6680  146.8920 C   0  0  0  0  0  2  0  0  0  0  0  0
  185.2410  178.2760  147.4900 C   0  0  0  0  0  2  0  0  0  0  0  0
  186.6290  176.8550  145.6010 C   0  0  2  0  0  3  0  0  0  0  0  0
  185.6080  177.7460  144.9130 C   0  0  1  0  0  3  0  0  0  0  0  0
  187.2030  177.8370  146.5640 N   0  0  1  0  0  0  0  0  0  0  0  0
  186.4550  177.5340  147.6580 O   0  0  0  0  0  0  0  0  0  0  0  0
  184.7520  178.3380  146.0290 C   0  0  0  0  0  0  0  0  0  0  0  0
  188.0510  176.8230  145.9420 C   0  0  1  0  0  3  0  0  0  0  0  0
  186.2280  178.7580  144.1770 O   0  0  0  0  0  1  0  0  0  0  0  0
  183.6930  178.8820  145.7620 O   0  0  0  0  0  0  0  0  0  0  0  0
  192.0900  174.3070  145.6450 C   0  0  0  0  0  2  0  0  0  0  0  0
  193.0570  174.6450  144.5590 C   0  0  0  0  0  3  0  0  0  0  0  0
  192.7840  175.4140  143.5430 N   0  0  0  0  0  0  0  0  0  0  0  0
  191.4820  177.4750  143.4520 C   0  0  0  0  0  3  0  0  0  0  0  0
  189.2510  176.1530  142.4580 C   0  0  0  0  0  0  0  0  0  0  0  0
  190.4220  175.4390  142.7350 C   0  0  0  0  0  3  0  0  0  0  0  0
  189.2330  177.5310  142.6920 C   0  0  0  0  0  3  0  0  0  0  0  0
  190.3370  178.1570  143.1790 N   0  0  0  0  0  0  0  0  0  0  0  0
  191.5550  176.0960  143.2360 C   0  0  0  0  0  0  0  0  0  0  0  0
  188.0590  175.4680  141.9320 C   0  0  0  0  0  0  0  0  0  0  0  0
  186.8010  176.0380  142.0840 O   0  0  0  0  0  1  0  0  0  0  0  0
  188.1680  174.3610  141.3410 O   0  0  0  0  0  0  0  0  0  0  0  0
  1  2  1  0  0  0  0
  3  4  1  0  0  0  0
  3  2  1  0  0  0  0
  5  9  1  0  0  0  0
  6 11  1  0  0  0  0
  6  8  1  0  0  0  0
  7  6  1  0  0  0  0
  7 10  1  0  0  0  0
  8  9  1  0  0  0  0
 10  5  1  0  0  0  0
 11  8  1  0  0  0  0
 11  4  1  0  0  0  0
 12  7  1  0  0  0  0
 13 10  2  0  0  0  0
 14  1  1  0  0  0  0
 15 14  1  0  0  0  0
 16 15  2  0  0  0  0
 18 20  2  0  0  0  0
 18 19  1  0  0  0  0
 19 22  2  0  0  0  0
 20 21  1  0  0  0  0
 21 17  2  0  0  0  0
 22 17  1  0  0  0  0
 22 16  1  0  0  0  0
 23 24  1  0  0  0  0
 23 18  1  0  0  0  0
 25 23  2  0  0  0  0
M  END
>  <MODEL>
3

>  <REMARK>
 VINA RESULT:      -5.9      2.819      5.259
  Name = 
  8 active torsions:
  status: ('A' for Active; 'I' for Inactive)
    1  A    between atoms: S_1  and  C_4
    2  A    between atoms: S_1  and  C_14
    3  A    between atoms: C_2  and  C_5
    4  A    between atoms: C_4  and  C_18
    5  A    between atoms: C_5  and  C_14
    6  A    between atoms: C_6  and  C_10
    7  A    between atoms: N_12  and  C_22
    8  A    between atoms: C_18  and  C_23
                            x       y       z     vdW  Elec       q    Type
                         _______ _______ _______ _____ _____    ______ ____

>  <TORSDO>
F 8

$$$$
=
 OpenBabel11062420153D

 25 27  0  0  1  0  0  0  0  0999 V2000
  186.8010  177.1820  141.2570 C   0  0  0  0  0  2  0  0  0  0  0  0
  188.4220  177.5210  142.0070 S   0  0  0  0  0  0  0  0  0  0  0  0
  188.7970  175.7580  142.2680 C   0  0  0  0  0  2  0  0  0  0  0  0
  189.5390  175.5510  143.5780 C   0  0  0  0  0  2  0  0  0  0  0  0
  192.2270  175.2350  146.6460 C   0  0  0  0  0  2  0  0  0  0  0  0
  191.6840  176.5000  144.2750 C   0  0  2  0  0  3  0  0  0  0  0  0
  193.0650  176.9080  144.7610 C   0  0  1  0  0  3  0  0  0  0  0  0
  191.7730  175.0280  144.4890 N   0  0  1  0  0  0  0  0  0  0  0  0
  191.1800  174.9480  145.7100 O   0  0  0  0  0  0  0  0  0  0  0  0
  193.2010  176.3300  146.1660 C   0  0  0  0  0  0  0  0  0  0  0  0
  191.0440  175.5710  143.3450 C   0  0  1  0  0  3  0  0  0  0  0  0
  194.0680  176.4120  143.9240 O   0  0  0  0  0  1  0  0  0  0  0  0
  194.0960  176.7150  146.9010 O   0  0  0  0  0  0  0  0  0  0  0  0
  185.7140  177.3290  142.3010 C   0  0  0  0  0  2  0  0  0  0  0  0
  185.4330  178.7760  142.5300 C   0  0  0  0  0  3  0  0  0  0  0  0
  185.4180  179.3480  143.7010 N   0  0  0  0  0  0  0  0  0  0  0  0
  184.6910  178.9070  145.9880 C   0  0  0  0  0  3  0  0  0  0  0  0
  187.0150  177.5020  146.5730 C   0  0  0  0  0  0  0  0  0  0  0  0
  186.8300  178.0500  145.2990 C   0  0  0  0  0  3  0  0  0  0  0  0
  186.0120  177.6790  147.5320 C   0  0  0  0  0  3  0  0  0  0  0  0
  184.8840  178.3710  147.2220 N   0  0  0  0  0  0  0  0  0  0  0  0
  185.6610  178.7600  144.9920 C   0  0  0  0  0  0  0  0  0  0  0  0
  188.2400  176.7560  146.9010 C   0  0  0  0  0  0  0  0  0  0  0  0
  189.4530  177.4240  147.0290 O   0  0  0  0  0  0  0  0  0  0  0  0
  188.2020  175.5090  147.0700 O   0  0  0  0  0  1  0  0  0  0  0  0
  1  2  1  0  0  0  0
  1 14  1  0  0  0  0
  2  3  1  0  0  0  0
  3  4  1  0  0  0  0
  6  8  1  0  0  0  0
  6  7  1  0  0  0  0
  7 10  1  0  0  0  0
  8  9  1  0  0  0  0
  9  5  1  0  0  0  0
 10  5  1  0  0  0  0
 10 13  2  0  0  0  0
 11  4  1  0  0  0  0
 11  6  1  0  0  0  0
 11  8  1  0  0  0  0
 12  7  1  0  0  0  0
 14 15  1  0  0  0  0
 15 16  2  0  0  0  0
 16 22  1  0  0  0  0
 17 21  1  0  0  0  0
 18 23  1  0  0  0  0
 18 20  1  0  0  0  0
 19 18  2  0  0  0  0
 21 20  2  0  0  0  0
 22 19  1  0  0  0  0
 22 17  2  0  0  0  0
 23 24  2  0  0  0  0
 23 25  1  0  0  0  0
M  END
>  <MODEL>
4

>  <REMARK>
 VINA RESULT:      -5.9      2.419      4.675
  Name = 
  8 active torsions:
  status: ('A' for Active; 'I' for Inactive)
    1  A    between atoms: S_1  and  C_4
    2  A    between atoms: S_1  and  C_14
    3  A    between atoms: C_2  and  C_5
    4  A    between atoms: C_4  and  C_18
    5  A    between atoms: C_5  and  C_14
    6  A    between atoms: C_6  and  C_10
    7  A    between atoms: N_12  and  C_22
    8  A    between atoms: C_18  and  C_23
                            x       y       z     vdW  Elec       q    Type
                         _______ _______ _______ _____ _____    ______ ____

>  <TORSDO>
F 8

$$$$
=
 OpenBabel11062420153D

 25 27  0  0  1  0  0  0  0  0999 V2000
  192.3400  176.2990  146.4420 C   0  0  0  0  0  2  0  0  0  0  0  0
  190.9490  176.3530  147.6090 S   0  0  0  0  0  0  0  0  0  0  0  0
  189.9250  175.2200  146.6170 C   0  0  0  0  0  2  0  0  0  0  0  0
  188.4560  175.5970  146.7090 C   0  0  0  0  0  2  0  0  0  0  0  0
  185.3810  178.1830  147.4770 C   0  0  0  0  0  2  0  0  0  0  0  0
  186.7280  176.8420  145.5020 C   0  0  2  0  0  3  0  0  0  0  0  0
  185.6960  177.7630  144.8730 C   0  0  1  0  0  3  0  0  0  0  0  0
  187.3230  177.7800  146.4950 N   0  0  1  0  0  0  0  0  0  0  0  0
  186.5960  177.4320  147.5890 O   0  0  0  0  0  0  0  0  0  0  0  0
  184.8640  178.3080  146.0290 C   0  0  0  0  0  0  0  0  0  0  0  0
  188.1560  176.7920  145.8140 C   0  0  1  0  0  3  0  0  0  0  0  0
  186.3050  178.8040  144.1680 O   0  0  0  0  0  1  0  0  0  0  0  0
  183.8010  178.8650  145.8060 O   0  0  0  0  0  0  0  0  0  0  0  0
  192.6340  174.8630  146.0610 C   0  0  0  0  0  2  0  0  0  0  0  0
  193.3680  174.8300  144.7630 C   0  0  0  0  0  3  0  0  0  0  0  0
  192.7950  174.7830  143.5930 N   0  0  0  0  0  0  0  0  0  0  0  0
  190.6960  173.5540  143.4150 C   0  0  0  0  0  3  0  0  0  0  0  0
  189.3220  175.8070  142.5470 C   0  0  0  0  0  0  0  0  0  0  0  0
  190.6880  175.8890  142.8410 C   0  0  0  0  0  3  0  0  0  0  0  0
  188.6750  174.5770  142.7000 C   0  0  0  0  0  3  0  0  0  0  0  0
  189.3690  173.4880  143.1250 N   0  0  0  0  0  0  0  0  0  0  0  0
  191.3910  174.7590  143.2800 C   0  0  0  0  0  0  0  0  0  0  0  0
  188.5790  176.9900  142.0850 C   0  0  0  0  0  0  0  0  0  0  0  0
  187.2980  176.8530  141.5640 O   0  0  0  0  0  0  0  0  0  0  0  0
  189.0960  178.1370  142.1580 O   0  0  0  0  0  1  0  0  0  0  0  0
  1  2  1  0  0  0  0
  3  4  1  0  0  0  0
  3  2  1  0  0  0  0
  5  9  1  0  0  0  0
  6 11  1  0  0  0  0
  6  8  1  0  0  0  0
  7  6  1  0  0  0  0
  7 10  1  0  0  0  0
  8  9  1  0  0  0  0
 10  5  1  0  0  0  0
 11  8  1  0  0  0  0
 11  4  1  0  0  0  0
 12  7  1  0  0  0  0
 13 10  2  0  0  0  0
 14  1  1  0  0  0  0
 15 14  1  0  0  0  0
 16 15  2  0  0  0  0
 18 20  2  0  0  0  0
 18 19  1  0  0  0  0
 19 22  2  0  0  0  0
 20 21  1  0  0  0  0
 21 17  2  0  0  0  0
 22 17  1  0  0  0  0
 22 16  1  0  0  0  0
 23 25  1  0  0  0  0
 23 18  1  0  0  0  0
 24 23  2  0  0  0  0
M  END
>  <MODEL>
5

>  <REMARK>
 VINA RESULT:      -5.8      3.136      5.517
  Name = 
  8 active torsions:
  status: ('A' for Active; 'I' for Inactive)
    1  A    between atoms: S_1  and  C_4
    2  A    between atoms: S_1  and  C_14
    3  A    between atoms: C_2  and  C_5
    4  A    between atoms: C_4  and  C_18
    5  A    between atoms: C_5  and  C_14
    6  A    between atoms: C_6  and  C_10
    7  A    between atoms: N_12  and  C_22
    8  A    between atoms: C_18  and  C_23
                            x       y       z     vdW  Elec       q    Type
                         _______ _______ _______ _____ _____    ______ ____

>  <TORSDO>
F 8

$$$$
=
 OpenBabel11062420153D

 25 27  0  0  1  0  0  0  0  0999 V2000
  187.7690  175.2780  142.2550 C   0  0  0  0  0  2  0  0  0  0  0  0
  187.3570  176.6680  141.1590 S   0  0  0  0  0  0  0  0  0  0  0  0
  185.9410  177.1970  142.1750 C   0  0  0  0  0  2  0  0  0  0  0  0
  186.0020  178.6900  142.4530 C   0  0  0  0  0  2  0  0  0  0  0  0
  187.5420  177.5890  146.0790 C   0  0  0  0  0  2  0  0  0  0  0  0
  185.2390  177.8250  144.6110 C   0  0  2  0  0  3  0  0  0  0  0  0
  184.8920  177.4120  146.0310 C   0  0  1  0  0  3  0  0  0  0  0  0
  186.2150  178.9130  144.9020 N   0  0  1  0  0  0  0  0  0  0  0  0
  187.3700  178.2050  144.7970 O   0  0  0  0  0  0  0  0  0  0  0  0
  186.2220  177.1070  146.7140 C   0  0  0  0  0  0  0  0  0  0  0  0
  185.3030  179.0160  143.7650 C   0  0  1  0  0  3  0  0  0  0  0  0
  184.2120  178.4290  146.7060 O   0  0  0  0  0  1  0  0  0  0  0  0
  186.2390  176.5040  147.7740 O   0  0  0  0  0  0  0  0  0  0  0  0
  189.1030  175.5340  142.9250 C   0  0  0  0  0  2  0  0  0  0  0  0
  189.6060  176.8850  142.5390 C   0  0  0  0  0  3  0  0  0  0  0  0
  190.6310  177.4740  143.0870 N   0  0  0  0  0  0  0  0  0  0  0  0
  192.7880  176.5960  143.8110 C   0  0  0  0  0  3  0  0  0  0  0  0
  191.9540  176.4210  146.4550 C   0  0  0  0  0  0  0  0  0  0  0  0
  191.0790  176.9000  145.4750 C   0  0  0  0  0  3  0  0  0  0  0  0
  193.2440  176.0370  146.0740 C   0  0  0  0  0  3  0  0  0  0  0  0
  193.6290  176.1310  144.7730 N   0  0  0  0  0  0  0  0  0  0  0  0
  191.4880  176.9930  144.1380 C   0  0  0  0  0  0  0  0  0  0  0  0
  191.5290  176.3190  147.8600 C   0  0  0  0  0  0  0  0  0  0  0  0
  191.1890  175.0850  148.4010 O   0  0  0  0  0  0  0  0  0  0  0  0
  191.4700  177.3480  148.5850 O   0  0  0  0  0  1  0  0  0  0  0  0
  1 14  1  0  0  0  0
  2  3  1  0  0  0  0
  2  1  1  0  0  0  0
  3  4  1  0  0  0  0
  4 11  1  0  0  0  0
  5 10  1  0  0  0  0
  6  8  1  0  0  0  0
  6  7  1  0  0  0  0
  7 12  1  0  0  0  0
  7 10  1  0  0  0  0
  9  8  1  0  0  0  0
  9  5  1  0  0  0  0
 10 13  2  0  0  0  0
 11  6  1  0  0  0  0
 11  8  1  0  0  0  0
 15 14  1  0  0  0  0
 15 16  2  0  0  0  0
 16 22  1  0  0  0  0
 17 22  2  0  0  0  0
 17 21  1  0  0  0  0
 18 23  1  0  0  0  0
 19 18  2  0  0  0  0
 20 18  1  0  0  0  0
 21 20  2  0  0  0  0
 22 19  1  0  0  0  0
 23 24  2  0  0  0  0
 23 25  1  0  0  0  0
M  END
>  <MODEL>
6

>  <REMARK>
 VINA RESULT:      -5.7      2.696      5.031
  Name = 
  8 active torsions:
  status: ('A' for Active; 'I' for Inactive)
    1  A    between atoms: S_1  and  C_4
    2  A    between atoms: S_1  and  C_14
    3  A    between atoms: C_2  and  C_5
    4  A    between atoms: C_4  and  C_18
    5  A    between atoms: C_5  and  C_14
    6  A    between atoms: C_6  and  C_10
    7  A    between atoms: N_12  and  C_22
    8  A    between atoms: C_18  and  C_23
                            x       y       z     vdW  Elec       q    Type
                         _______ _______ _______ _____ _____    ______ ____

>  <TORSDO>
F 8

$$$$
=
 OpenBabel11062420153D

 25 27  0  0  1  0  0  0  0  0999 V2000
  186.7860  176.8450  146.7360 C   0  0  0  0  0  2  0  0  0  0  0  0
  186.3170  178.3650  147.6140 S   0  0  0  0  0  0  0  0  0  0  0  0
  185.2440  178.9500  146.2630 C   0  0  0  0  0  2  0  0  0  0  0  0
  185.4040  178.0760  145.0290 C   0  0  0  0  0  2  0  0  0  0  0  0
  185.0700  178.2120  140.9550 C   0  0  0  0  0  2  0  0  0  0  0  0
  186.7700  177.6820  143.0390 C   0  0  2  0  0  3  0  0  0  0  0  0
  187.5350  177.5970  141.7280 C   0  0  1  0  0  3  0  0  0  0  0  0
  186.0270  178.9530  142.8080 N   0  0  1  0  0  0  0  0  0  0  0  0
  184.8540  178.4410  142.3530 O   0  0  0  0  0  0  0  0  0  0  0  0
  186.4870  177.6990  140.6250 C   0  0  0  0  0  0  0  0  0  0  0  0
  186.5180  178.6100  144.1400 C   0  0  1  0  0  3  0  0  0  0  0  0
  188.4720  178.6280  141.6170 O   0  0  0  0  0  1  0  0  0  0  0  0
  186.7760  177.4000  139.4780 O   0  0  0  0  0  0  0  0  0  0  0  0
  188.2780  176.6200  146.8620 C   0  0  0  0  0  2  0  0  0  0  0  0
  188.5410  175.1880  147.1940 C   0  0  0  0  0  3  0  0  0  0  0  0
  189.5860  174.5200  146.7950 N   0  0  0  0  0  0  0  0  0  0  0  0
  190.5170  175.0350  144.6000 C   0  0  0  0  0  3  0  0  0  0  0  0
  192.9640  175.7740  145.6880 C   0  0  0  0  0  0  0  0  0  0  0  0
  191.9270  175.3460  146.5230 C   0  0  0  0  0  3  0  0  0  0  0  0
  192.7390  175.8190  144.3080 C   0  0  0  0  0  3  0  0  0  0  0  0
  191.5330  175.4520  143.7990 N   0  0  0  0  0  0  0  0  0  0  0  0
  190.6870  174.9720  145.9860 C   0  0  0  0  0  0  0  0  0  0  0  0
  194.2670  176.1670  146.2460 C   0  0  0  0  0  0  0  0  0  0  0  0
  195.3430  175.2890  146.1990 O   0  0  0  0  0  0  0  0  0  0  0  0
  194.4200  177.3020  146.7710 O   0  0  0  0  0  1  0  0  0  0  0  0
  1 14  1  0  0  0  0
  1  2  1  0  0  0  0
  3  2  1  0  0  0  0
  4  3  1  0  0  0  0
  5  9  1  0  0  0  0
  6 11  1  0  0  0  0
  7  6  1  0  0  0  0
  8  6  1  0  0  0  0
  8 11  1  0  0  0  0
  9  8  1  0  0  0  0
 10  5  1  0  0  0  0
 10  7  1  0  0  0  0
 11  4  1  0  0  0  0
 12  7  1  0  0  0  0
 13 10  2  0  0  0  0
 14 15  1  0  0  0  0
 16 15  2  0  0  0  0
 17 22  1  0  0  0  0
 18 23  1  0  0  0  0
 18 19  1  0  0  0  0
 20 18  2  0  0  0  0
 21 20  1  0  0  0  0
 21 17  2  0  0  0  0
 22 19  2  0  0  0  0
 22 16  1  0  0  0  0
 23 25  1  0  0  0  0
 24 23  2  0  0  0  0
M  END
>  <MODEL>
7

>  <REMARK>
 VINA RESULT:      -5.7      2.857      5.889
  Name = 
  8 active torsions:
  status: ('A' for Active; 'I' for Inactive)
    1  A    between atoms: S_1  and  C_4
    2  A    between atoms: S_1  and  C_14
    3  A    between atoms: C_2  and  C_5
    4  A    between atoms: C_4  and  C_18
    5  A    between atoms: C_5  and  C_14
    6  A    between atoms: C_6  and  C_10
    7  A    between atoms: N_12  and  C_22
    8  A    between atoms: C_18  and  C_23
                            x       y       z     vdW  Elec       q    Type
                         _______ _______ _______ _____ _____    ______ ____

>  <TORSDO>
F 8

$$$$
=
 OpenBabel11062420153D

 25 27  0  0  1  0  0  0  0  0999 V2000
  186.8020  176.9000  147.1710 C   0  0  0  0  0  2  0  0  0  0  0  0
  187.6980  176.2020  145.7520 S   0  0  0  0  0  0  0  0  0  0  0  0
  188.9750  177.5010  145.7740 C   0  0  0  0  0  2  0  0  0  0  0  0
  189.6830  177.5870  144.4320 C   0  0  0  0  0  2  0  0  0  0  0  0
  191.8150  174.1100  144.1290 C   0  0  0  0  0  2  0  0  0  0  0  0
  191.5520  176.4510  145.5300 C   0  0  2  0  0  3  0  0  0  0  0  0
  192.7710  175.6970  146.0330 C   0  0  1  0  0  3  0  0  0  0  0  0
  191.7690  176.3220  144.0620 N   0  0  1  0  0  0  0  0  0  0  0  0
  190.9870  175.2370  143.8190 O   0  0  0  0  0  0  0  0  0  0  0  0
  192.7270  174.3320  145.3540 C   0  0  0  0  0  0  0  0  0  0  0  0
  191.1920  177.5410  144.6230 C   0  0  1  0  0  3  0  0  0  0  0  0
  193.9540  176.3690  145.7130 O   0  0  0  0  0  1  0  0  0  0  0  0
  193.4300  173.4230  145.7640 O   0  0  0  0  0  0  0  0  0  0  0  0
  185.4850  177.4850  146.7070 C   0  0  0  0  0  2  0  0  0  0  0  0
  185.6250  178.9620  146.5390 C   0  0  0  0  0  3  0  0  0  0  0  0
  185.5060  179.5880  145.4020 N   0  0  0  0  0  0  0  0  0  0  0  0
  183.8880  178.8080  143.7520 C   0  0  0  0  0  3  0  0  0  0  0  0
  185.8830  178.2010  141.9170 C   0  0  0  0  0  0  0  0  0  0  0  0
  186.2190  178.7330  143.1680 C   0  0  0  0  0  3  0  0  0  0  0  0
  184.5340  177.9860  141.6200 C   0  0  0  0  0  3  0  0  0  0  0  0
  183.5750  178.2910  142.5340 N   0  0  0  0  0  0  0  0  0  0  0  0
  185.2210  179.0440  144.1010 C   0  0  0  0  0  0  0  0  0  0  0  0
  186.9270  177.8720  140.9340 C   0  0  0  0  0  0  0  0  0  0  0  0
  188.2690  177.9340  141.2910 O   0  0  0  0  0  1  0  0  0  0  0  0
  186.6150  177.5320  139.7620 O   0  0  0  0  0  0  0  0  0  0  0  0
  2  3  1  0  0  0  0
  2  1  1  0  0  0  0
  4 11  1  0  0  0  0
  4  3  1  0  0  0  0
  5 10  1  0  0  0  0
  6  7  1  0  0  0  0
  8 11  1  0  0  0  0
  8  6  1  0  0  0  0
  9  8  1  0  0  0  0
  9  5  1  0  0  0  0
 10 13  2  0  0  0  0
 10  7  1  0  0  0  0
 11  6  1  0  0  0  0
 12  7  1  0  0  0  0
 14  1  1  0  0  0  0
 15 14  1  0  0  0  0
 16 15  2  0  0  0  0
 17 22  1  0  0  0  0
 18 19  1  0  0  0  0
 19 22  2  0  0  0  0
 20 18  2  0  0  0  0
 20 21  1  0  0  0  0
 21 17  2  0  0  0  0
 22 16  1  0  0  0  0
 23 24  1  0  0  0  0
 23 18  1  0  0  0  0
 25 23  2  0  0  0  0
M  END
>  <MODEL>
8

>  <REMARK>
 VINA RESULT:      -5.7      2.640      4.416
  Name = 
  8 active torsions:
  status: ('A' for Active; 'I' for Inactive)
    1  A    between atoms: S_1  and  C_4
    2  A    between atoms: S_1  and  C_14
    3  A    between atoms: C_2  and  C_5
    4  A    between atoms: C_4  and  C_18
    5  A    between atoms: C_5  and  C_14
    6  A    between atoms: C_6  and  C_10
    7  A    between atoms: N_12  and  C_22
    8  A    between atoms: C_18  and  C_23
                            x       y       z     vdW  Elec       q    Type
                         _______ _______ _______ _____ _____    ______ ____

>  <TORSDO>
F 8

$$$$
=
 OpenBabel11062420153D

 25 27  0  0  1  0  0  0  0  0999 V2000
  185.5210  178.9450  146.4620 C   0  0  0  0  0  2  0  0  0  0  0  0
  184.9990  177.2090  146.5950 S   0  0  0  0  0  0  0  0  0  0  0  0
  186.6140  176.6540  147.2310 C   0  0  0  0  0  2  0  0  0  0  0  0
  187.7350  177.5310  146.6980 C   0  0  0  0  0  2  0  0  0  0  0  0
  191.2440  175.6600  147.6550 C   0  0  0  0  0  2  0  0  0  0  0  0
  189.9640  177.1680  145.7570 C   0  0  2  0  0  3  0  0  0  0  0  0
  191.3330  176.7590  145.2390 C   0  0  1  0  0  3  0  0  0  0  0  0
  189.5050  175.8580  146.3000 N   0  0  1  0  0  0  0  0  0  0  0  0
  189.8590  176.0240  147.6010 O   0  0  0  0  0  0  0  0  0  0  0  0
  192.0480  176.1090  146.4180 C   0  0  0  0  0  0  0  0  0  0  0  0
  188.5590  176.7730  145.6660 C   0  0  1  0  0  3  0  0  0  0  0  0
  191.2280  175.8650  144.1710 O   0  0  0  0  0  1  0  0  0  0  0  0
  193.2530  175.9200  146.3730 O   0  0  0  0  0  0  0  0  0  0  0  0
  185.4660  179.3860  145.0140 C   0  0  0  0  0  2  0  0  0  0  0  0
  184.1280  179.0580  144.4420 C   0  0  0  0  0  3  0  0  0  0  0  0
  183.9380  178.5480  143.2580 N   0  0  0  0  0  0  0  0  0  0  0  0
  184.5600  178.2630  140.9160 C   0  0  0  0  0  3  0  0  0  0  0  0
  187.1220  177.4200  141.5850 C   0  0  0  0  0  0  0  0  0  0  0  0
  186.2120  177.7610  142.5910 C   0  0  0  0  0  3  0  0  0  0  0  0
  186.7130  177.5130  140.2510 C   0  0  0  0  0  3  0  0  0  0  0  0
  185.4540  177.9280  139.9480 N   0  0  0  0  0  0  0  0  0  0  0  0
  184.9170  178.1890  142.2660 C   0  0  0  0  0  0  0  0  0  0  0  0
  188.4820  176.9710  141.9210 C   0  0  0  0  0  0  0  0  0  0  0  0
  189.4260  177.8810  142.3810 O   0  0  0  0  0  1  0  0  0  0  0  0
  188.8030  175.7590  141.7950 O   0  0  0  0  0  0  0  0  0  0  0  0
  1  2  1  0  0  0  0
  2  3  1  0  0  0  0
  4  3  1  0  0  0  0
  6  8  1  0  0  0  0
  7  6  1  0  0  0  0
  7 10  1  0  0  0  0
  8  9  1  0  0  0  0
  9  5  1  0  0  0  0
 10  5  1  0  0  0  0
 11  6  1  0  0  0  0
 11  8  1  0  0  0  0
 11  4  1  0  0  0  0
 12  7  1  0  0  0  0
 13 10  2  0  0  0  0
 14  1  1  0  0  0  0
 15 14  1  0  0  0  0
 16 15  2  0  0  0  0
 17 22  1  0  0  0  0
 18 23  1  0  0  0  0
 18 19  1  0  0  0  0
 20 18  2  0  0  0  0
 21 20  1  0  0  0  0
 21 17  2  0  0  0  0
 22 19  2  0  0  0  0
 22 16  1  0  0  0  0
 23 24  1  0  0  0  0
 25 23  2  0  0  0  0
M  END
>  <MODEL>
9

>  <REMARK>
 VINA RESULT:      -5.7      1.904      3.073
  Name = 
  8 active torsions:
  status: ('A' for Active; 'I' for Inactive)
    1  A    between atoms: S_1  and  C_4
    2  A    between atoms: S_1  and  C_14
    3  A    between atoms: C_2  and  C_5
    4  A    between atoms: C_4  and  C_18
    5  A    between atoms: C_5  and  C_14
    6  A    between atoms: C_6  and  C_10
    7  A    between atoms: N_12  and  C_22
    8  A    between atoms: C_18  and  C_23
                            x       y       z     vdW  Elec       q    Type
                         _______ _______ _______ _____ _____    ______ ____

>  <TORSDO>
F 8

$$$$
