=
 OpenBabel11072409353D

 63 67  0  0  1  0  0  0  0  0999 V2000
  190.0590  174.3650  141.8800 C   0  0  2  0  0  3  0  0  0  0  0  0
  189.4540  173.1920  142.5690 C   0  0  0  0  0  3  0  0  0  0  0  0
  190.8290  170.9870  142.7970 C   0  0  0  0  0  3  0  0  0  0  0  0
  190.1290  172.0810  142.6880 C   0  0  0  0  0  0  0  0  0  0  0  0
  190.7620  169.9520  141.7300 C   0  0  0  0  0  2  0  0  0  0  0  0
  192.1620  170.1390  140.5880 S   0  0  0  0  0  0  0  0  0  0  0  0
  191.0800  170.1810  139.1190 C   0  0  2  0  0  3  0  0  0  0  0  0
  191.5220  170.7890  136.8560 O   0  0  0  0  0  1  0  0  0  0  0  0
  191.8420  169.8360  137.8270 C   0  0  2  0  0  0  0  0  0  0  0  0
  191.3410  168.4750  137.3470 C   0  0  0  0  0  1  0  0  0  0  0  0
  193.2410  169.8570  138.1060 O   0  0  0  0  0  0  0  0  0  0  0  0
  194.0040  170.8080  137.3720 C   0  0  0  0  0  3  0  0  0  0  0  0
  195.2160  170.2660  136.6310 C   0  0  0  0  0  1  0  0  0  0  0  0
  194.3000  172.0780  138.1510 C   0  0  0  0  0  1  0  0  0  0  0  0
  190.4040  171.5470  139.0470 C   0  0  0  0  0  2  0  0  0  0  0  0
  189.1710  171.4400  138.4020 O   0  0  0  0  0  0  0  0  0  0  0  0
  188.6700  172.7380  138.3860 C   0  0  0  0  0  2  0  0  0  0  0  0
  189.4740  173.5430  137.5790 O   0  0  0  0  0  1  0  0  0  0  0  0
  191.4940  174.5510  142.3350 C   0  0  0  0  0  2  0  0  0  0  0  0
  191.6910  175.9260  142.9520 C   0  0  0  0  0  2  0  0  0  0  0  0
  192.8610  176.5450  142.4320 O   0  0  0  0  0  0  0  0  0  0  0  0
  196.6220  175.1700  142.1690 S   0  0  0  0  0  0  0  0  0  0  0  0
  195.8130  174.9260  143.7850 C   0  0  1  0  0  3  0  0  0  0  0  0
  195.1360  175.9630  141.4910 C   0  0  0  0  0  2  0  0  0  0  0  0
  194.4740  175.4720  143.7120 N   0  0  0  0  0  0  0  0  0  0  0  0
  194.1330  175.9960  142.5890 C   0  0  0  0  0  0  0  0  0  0  0  0
  196.0400  171.5110  145.2740 N   0  0  0  0  0  2  0  0  0  0  0  0
  195.0710  172.4250  143.4020 C   0  0  0  0  0  0  0  0  0  0  0  0
  196.2880  172.9130  145.2130 C   0  0  0  0  0  0  0  0  0  0  0  0
  194.4110  172.5930  142.3440 O   0  0  0  0  0  0  0  0  0  0  0  0
  193.9040  170.5910  144.5660 C   0  0  0  0  0  1  0  0  0  0  0  0
  197.0800  173.6290  146.2450 C   0  0  0  0  0  1  0  0  0  0  0  0
  195.7540  173.4750  144.1420 C   0  0  0  0  0  0  0  0  0  0  0  0
  195.2480  171.1280  144.1100 C   0  0  2  0  0  3  0  0  0  0  0  0
  189.3160  175.5460  142.1680 O   0  0  0  0  0  0  0  0  0  0  0  0
  188.0200  175.4140  140.2600 O   0  0  0  0  0  0  0  0  0  0  0  0
  188.3930  176.0830  141.2600 C   0  0  0  0  0  0  0  0  0  0  0  0
  188.9440  178.3570  141.6370 O   0  0  0  0  0  1  0  0  0  0  0  0
  187.8780  177.4790  141.4320 C   0  0  2  0  0  3  0  0  0  0  0  0
  186.8130  177.5690  142.5340 C   0  0  2  0  0  3  0  0  0  0  0  0
  186.2550  176.1890  142.8010 C   0  0  0  0  0  1  0  0  0  0  0  0
  185.6610  178.5340  142.2470 C   0  0  0  0  0  2  0  0  0  0  0  0
  184.3230  178.0460  142.7960 C   0  0  2  0  0  3  0  0  0  0  0  0
  183.2480  178.1470  141.7380 C   0  0  0  0  0  1  0  0  0  0  0  0
  183.9500  178.8720  144.0090 C   0  0  0  0  0  2  0  0  0  0  0  0
  185.1370  179.6880  144.4960 C   0  0  0  0  0  2  0  0  0  0  0  0
  185.6660  179.1230  145.7730 C   0  0  0  0  0  0  0  0  0  0  0  0
  186.1540  179.3680  148.1300 C   0  0  0  0  0  3  0  0  0  0  0  0
  186.8010  177.3380  146.9680 C   0  0  0  0  0  0  0  0  0  0  0  0
  185.6230  179.8830  146.9470 C   0  0  0  0  0  3  0  0  0  0  0  0
  186.2600  177.8520  145.7820 C   0  0  0  0  0  3  0  0  0  0  0  0
  186.7370  178.1000  148.1380 C   0  0  0  0  0  3  0  0  0  0  0  0
  187.4170  176.0490  147.0040 N   0  0  0  0  0  2  0  0  0  0  0  0
  191.7190  177.4400  148.4750 C   0  0  0  0  0  1  0  0  0  0  0  0
  189.2390  176.9250  145.6280 C   0  0  0  0  0  2  0  0  0  0  0  0
  190.7710  174.4360  146.2370 C   0  0  0  0  0  2  0  0  0  0  0  0
  190.7830  175.3280  147.4720 C   0  0  1  0  0  0  0  0  0  0  0  0
  191.1790  176.8030  147.2080 C   0  0  1  0  0  0  0  0  0  0  0  0
  189.4670  174.7240  146.9770 C   0  0  1  0  0  3  0  0  0  0  0  0
  188.5540  175.6710  146.1740 C   0  0  1  0  0  3  0  0  0  0  0  0
  189.9890  177.6340  146.7450 C   0  0  0  0  0  2  0  0  0  0  0  0
  192.1640  176.8590  146.2390 F   0  0  0  0  0  0  0  0  0  0  0  0
  191.3480  174.6790  148.5730 O   0  0  0  0  0  1  0  0  0  0  0  0
  1 35  1  0  0  0  0
  1 19  1  1  0  0  0
  1  2  1  0  0  0  0
  2  4  2  0  0  0  0
  4  3  2  0  0  0  0
  5  3  1  0  0  0  0
  6  5  1  0  0  0  0
  7 15  1  6  0  0  0
  7  6  1  0  0  0  0
  8  9  1  0  0  0  0
  9 10  1  6  0  0  0
  9 11  1  0  0  0  0
  9  7  1  0  0  0  0
 12 11  1  0  0  0  0
 12 14  1  0  0  0  0
 13 12  1  0  0  0  0
 16 15  1  0  0  0  0
 17 16  1  0  0  0  0
 18 17  1  0  0  0  0
 19 20  1  0  0  0  0
 21 26  1  0  0  0  0
 21 20  1  0  0  0  0
 22 23  1  0  0  0  0
 23 33  1  6  0  0  0
 24 22  1  0  0  0  0
 24 26  1  0  0  0  0
 25 23  1  0  0  0  0
 26 25  2  0  0  0  0
 28 34  1  0  0  0  0
 28 33  1  0  0  0  0
 29 27  1  0  0  0  0
 29 32  1  0  0  0  0
 30 28  2  0  0  0  0
 33 29  2  0  0  0  0
 34 31  1  1  0  0  0
 34 27  1  0  0  0  0
 36 37  2  0  0  0  0
 37 39  1  0  0  0  0
 37 35  1  0  0  0  0
 39 38  1  1  0  0  0
 39 40  1  0  0  0  0
 40 41  1  6  0  0  0
 42 40  1  0  0  0  0
 42 43  1  0  0  0  0
 43 44  1  6  0  0  0
 43 45  1  0  0  0  0
 45 46  1  0  0  0  0
 46 47  1  0  0  0  0
 47 51  2  0  0  0  0
 47 50  1  0  0  0  0
 48 52  1  0  0  0  0
 49 53  1  0  0  0  0
 49 52  2  0  0  0  0
 50 48  2  0  0  0  0
 51 49  1  0  0  0  0
 55 60  1  0  0  0  0
 55 61  1  0  0  0  0
 56 57  1  0  0  0  0
 57 63  1  1  0  0  0
 58 57  1  0  0  0  0
 58 54  1  1  0  0  0
 59 56  1  6  0  0  0
 59 57  1  0  0  0  0
 60 59  1  0  0  0  0
 60 53  1  1  0  0  0
 61 58  1  0  0  0  0
 62 58  1  0  0  0  0
M  END
>  <MODEL>
1

>  <REMARK>
 VINA RESULT:      -6.3      0.000      0.000
  Name = 
  26 active torsions:
  status: ('A' for Active; 'I' for Inactive)
    1  A    between atoms: C_1  and  C_20
    2  A    between atoms: C_4  and  C_21
    3  A    between atoms: C_4  and  S_22
    4  A    between atoms: C_4  and  C_53
    5  A    between atoms: C_5  and  C_35
    6  A    between atoms: C_6  and  C_16
    7  A    between atoms: C_6  and  C_27
    8  A    between atoms: C_11  and  C_46
    9  A    between atoms: C_12  and  S_22
   10  A    between atoms: C_12  and  C_38
   11  A    between atoms: C_13  and  C_25
   12  A    between atoms: C_13  and  C_27
   13  A    between atoms: C_16  and  C_17
   14  A    between atoms: C_17  and  C_20
   15  A    between atoms: C_21  and  O_32
   16  A    between atoms: N_23  and  C_26
   17  A    between atoms: N_23  and  C_48
   18  A    between atoms: C_25  and  O_37
   19  A    between atoms: O_29  and  C_42
   20  A    between atoms: O_29  and  C_55
   21  A    between atoms: O_32  and  C_33
   22  A    between atoms: C_35  and  O_37
   23  A    between atoms: C_35  and  C_51
   24  A    between atoms: C_42  and  C_51
   25  A    between atoms: C_52  and  O_54
   26  A    between atoms: C_53  and  O_54
                            x       y       z     vdW  Elec       q    Type
                         _______ _______ _______ _____ _____    ______ ____

>  <TORSDO>
F 26

$$$$
=
 OpenBabel11072409353D

 63 67  0  0  1  0  0  0  0  0999 V2000
  189.2990  173.6960  141.5700 C   0  0  2  0  0  3  0  0  0  0  0  0
  190.5530  174.4940  141.4870 C   0  0  0  0  0  3  0  0  0  0  0  0
  191.0260  176.3320  143.2760 C   0  0  0  0  0  3  0  0  0  0  0  0
  190.8020  175.4200  142.3730 C   0  0  0  0  0  0  0  0  0  0  0  0
  190.5410  177.7230  143.0620 C   0  0  0  0  0  2  0  0  0  0  0  0
  188.8790  177.7010  142.3290 S   0  0  0  0  0  0  0  0  0  0  0  0
  188.0850  177.2600  143.9110 C   0  0  2  0  0  3  0  0  0  0  0  0
  185.8480  176.5220  144.2840 O   0  0  0  0  0  1  0  0  0  0  0  0
  186.5970  177.6520  143.9430 C   0  0  2  0  0  0  0  0  0  0  0  0
  186.2030  178.0780  142.5290 C   0  0  0  0  0  1  0  0  0  0  0  0
  186.4200  178.6820  144.9140 O   0  0  0  0  0  0  0  0  0  0  0  0
  185.4410  178.4280  145.9140 C   0  0  0  0  0  3  0  0  0  0  0  0
  184.0370  178.9340  145.6220 C   0  0  0  0  0  1  0  0  0  0  0  0
  185.9120  178.7560  147.3200 C   0  0  0  0  0  1  0  0  0  0  0  0
  188.8760  177.8920  145.0510 C   0  0  0  0  0  2  0  0  0  0  0  0
  188.8400  177.0690  146.1780 O   0  0  0  0  0  0  0  0  0  0  0  0
  190.0270  177.3420  146.8510 C   0  0  0  0  0  2  0  0  0  0  0  0
  189.7660  178.1570  147.9530 O   0  0  0  0  0  1  0  0  0  0  0  0
  189.6260  172.2460  141.8750 C   0  0  0  0  0  2  0  0  0  0  0  0
  191.1300  172.0290  141.9160 C   0  0  0  0  0  2  0  0  0  0  0  0
  191.4840  171.1900  143.0090 O   0  0  0  0  0  0  0  0  0  0  0  0
  194.1830  168.2560  143.4620 S   0  0  0  0  0  0  0  0  0  0  0  0
  194.0710  168.9610  141.7840 C   0  0  1  0  0  3  0  0  0  0  0  0
  192.9000  169.3860  144.0740 C   0  0  0  0  0  2  0  0  0  0  0  0
  193.0610  169.9990  141.7920 N   0  0  0  0  0  0  0  0  0  0  0  0
  192.4690  170.2090  142.9140 C   0  0  0  0  0  0  0  0  0  0  0  0
  197.0920  170.2740  140.0280 N   0  0  0  0  0  0  0  0  0  0  0  0
  196.4320  170.0530  142.2180 C   0  0  0  0  0  0  0  0  0  0  0  0
  195.7970  169.6850  140.1060 C   0  0  0  0  0  0  0  0  0  0  0  0
  196.3760  170.1110  143.4740 O   0  0  0  0  0  0  0  0  0  0  0  0
  197.7580  172.0300  141.5730 C   0  0  0  0  0  1  0  0  0  0  0  0
  195.0300  169.2810  138.9000 C   0  0  0  0  0  1  0  0  0  0  0  0
  195.3850  169.5310  141.3530 C   0  0  2  0  0  3  0  0  0  0  0  0
  197.5650  170.5370  141.3840 C   0  0  2  0  0  3  0  0  0  0  0  0
  188.5830  173.7690  140.3400 O   0  0  0  0  0  0  0  0  0  0  0  0
  188.5930  171.8850  139.0030 O   0  0  0  0  0  0  0  0  0  0  0  0
  188.9910  173.0630  139.2000 C   0  0  0  0  0  0  0  0  0  0  0  0
  189.2460  174.3380  137.2180 O   0  0  0  0  0  1  0  0  0  0  0  0
  189.9510  173.6770  138.2260 C   0  0  2  0  0  3  0  0  0  0  0  0
  190.9510  172.6490  137.6770 C   0  0  2  0  0  3  0  0  0  0  0  0
  191.8170  172.1440  138.8090 C   0  0  0  0  0  1  0  0  0  0  0  0
  191.8440  173.1540  136.5430 C   0  0  0  0  0  2  0  0  0  0  0  0
  192.9920  174.0320  137.0320 C   0  0  2  0  0  3  0  0  0  0  0  0
  192.7970  175.4610  136.5800 C   0  0  0  0  0  1  0  0  0  0  0  0
  194.3000  173.4830  136.5010 C   0  0  0  0  0  2  0  0  0  0  0  0
  195.0910  172.8020  137.6060 C   0  0  0  0  0  2  0  0  0  0  0  0
  195.6110  173.8150  138.5720 C   0  0  0  0  0  0  0  0  0  0  0  0
  197.1810  175.5710  139.1260 C   0  0  0  0  0  3  0  0  0  0  0  0
  195.5930  174.8000  140.7920 C   0  0  0  0  0  0  0  0  0  0  0  0
  196.6710  174.6530  138.2070 C   0  0  0  0  0  3  0  0  0  0  0  0
  195.0760  173.8850  139.8670 C   0  0  0  0  0  3  0  0  0  0  0  0
  196.6410  175.6440  140.4110 C   0  0  0  0  0  3  0  0  0  0  0  0
  195.0710  174.8890  142.1200 N   0  0  0  0  0  2  0  0  0  0  0  0
  192.8080  174.9460  146.3010 C   0  0  0  0  0  1  0  0  0  0  0  0
  195.7130  176.1210  144.1320 C   0  0  0  0  0  2  0  0  0  0  0  0
  196.2860  173.4990  145.4400 C   0  0  0  0  0  2  0  0  0  0  0  0
  194.7760  173.6840  145.3640 C   0  0  1  0  0  0  0  0  0  0  0  0
  194.2600  175.0540  145.8720 C   0  0  1  0  0  0  0  0  0  0  0  0
  195.5940  173.5320  144.0800 C   0  0  1  0  0  3  0  0  0  0  0  0
  195.8970  174.8380  143.3200 C   0  0  1  0  0  3  0  0  0  0  0  0
  194.3430  176.1250  144.7910 C   0  0  0  0  0  2  0  0  0  0  0  0
  195.0060  175.4640  146.9620 F   0  0  0  0  0  0  0  0  0  0  0  0
  194.0940  172.5310  145.7630 O   0  0  0  0  0  1  0  0  0  0  0  0
  1  2  1  6  0  0  0
  1 19  1  0  0  0  0
  2  4  2  0  0  0  0
  4  3  2  0  0  0  0
  5  3  1  0  0  0  0
  6  5  1  0  0  0  0
  6  7  1  0  0  0  0
  7  9  1  0  0  0  0
  7 15  1  1  0  0  0
  9 10  1  6  0  0  0
  9  8  1  0  0  0  0
  9 11  1  0  0  0  0
 11 12  1  0  0  0  0
 12 14  1  0  0  0  0
 13 12  1  0  0  0  0
 15 16  1  0  0  0  0
 16 17  1  0  0  0  0
 17 18  1  0  0  0  0
 19 20  1  0  0  0  0
 20 21  1  0  0  0  0
 22 24  1  0  0  0  0
 23 25  1  1  0  0  0
 23 22  1  0  0  0  0
 25 26  2  0  0  0  0
 26 21  1  0  0  0  0
 26 24  1  0  0  0  0
 27 29  2  0  0  0  0
 27 34  1  0  0  0  0
 28 30  2  0  0  0  0
 32 29  1  0  0  0  0
 33 29  1  6  0  0  0
 33 23  1  0  0  0  0
 33 28  1  0  0  0  0
 34 31  1  6  0  0  0
 34 28  1  0  0  0  0
 35  1  1  0  0  0  0
 36 37  2  0  0  0  0
 37 35  1  0  0  0  0
 39 38  1  6  0  0  0
 39 37  1  0  0  0  0
 40 39  1  0  0  0  0
 40 41  1  1  0  0  0
 42 43  1  0  0  0  0
 42 40  1  0  0  0  0
 43 44  1  6  0  0  0
 45 43  1  0  0  0  0
 45 46  1  0  0  0  0
 46 47  1  0  0  0  0
 47 51  1  0  0  0  0
 48 52  2  0  0  0  0
 49 53  1  0  0  0  0
 50 47  2  0  0  0  0
 50 48  1  0  0  0  0
 51 49  2  0  0  0  0
 52 49  1  0  0  0  0
 55 61  1  0  0  0  0
 57 56  1  0  0  0  0
 57 63  1  1  0  0  0
 57 58  1  0  0  0  0
 58 54  1  1  0  0  0
 58 62  1  0  0  0  0
 59 57  1  0  0  0  0
 59 56  1  1  0  0  0
 60 53  1  6  0  0  0
 60 59  1  0  0  0  0
 60 55  1  0  0  0  0
 61 58  1  0  0  0  0
M  END
>  <MODEL>
2

>  <REMARK>
 VINA RESULT:      -5.6      2.711      8.716
  Name = 
  26 active torsions:
  status: ('A' for Active; 'I' for Inactive)
    1  A    between atoms: C_1  and  C_20
    2  A    between atoms: C_4  and  C_21
    3  A    between atoms: C_4  and  S_22
    4  A    between atoms: C_4  and  C_53
    5  A    between atoms: C_5  and  C_35
    6  A    between atoms: C_6  and  C_16
    7  A    between atoms: C_6  and  C_27
    8  A    between atoms: C_11  and  C_46
    9  A    between atoms: C_12  and  S_22
   10  A    between atoms: C_12  and  C_38
   11  A    between atoms: C_13  and  C_25
   12  A    between atoms: C_13  and  C_27
   13  A    between atoms: C_16  and  C_17
   14  A    between atoms: C_17  and  C_20
   15  A    between atoms: C_21  and  O_32
   16  A    between atoms: N_23  and  C_26
   17  A    between atoms: N_23  and  C_48
   18  A    between atoms: C_25  and  O_37
   19  A    between atoms: O_29  and  C_42
   20  A    between atoms: O_29  and  C_55
   21  A    between atoms: O_32  and  C_33
   22  A    between atoms: C_35  and  O_37
   23  A    between atoms: C_35  and  C_51
   24  A    between atoms: C_42  and  C_51
   25  A    between atoms: C_52  and  O_54
   26  A    between atoms: C_53  and  O_54
                            x       y       z     vdW  Elec       q    Type
                         _______ _______ _______ _____ _____    ______ ____

>  <TORSDO>
F 26

$$$$
=
 OpenBabel11072409353D

 63 67  0  0  1  0  0  0  0  0999 V2000
  185.8180  177.6960  140.3300 C   0  0  2  0  0  3  0  0  0  0  0  0
  184.5050  177.5450  139.6450 C   0  0  0  0  0  3  0  0  0  0  0  0
  182.4070  178.7580  140.6090 C   0  0  0  0  0  3  0  0  0  0  0  0
  183.4450  178.1430  140.1180 C   0  0  0  0  0  0  0  0  0  0  0  0
  181.5580  178.0840  141.6280 C   0  0  0  0  0  2  0  0  0  0  0  0
  180.1180  179.1170  142.0260 S   0  0  0  0  0  0  0  0  0  0  0  0
  179.5060  179.0910  140.3080 C   0  0  2  0  0  3  0  0  0  0  0  0
  177.8580  180.6200  141.1070 O   0  0  0  0  0  1  0  0  0  0  0  0
  178.6350  180.3190  139.9840 C   0  0  2  0  0  0  0  0  0  0  0  0
  177.6970  179.9300  138.8430 C   0  0  0  0  0  1  0  0  0  0  0  0
  179.4940  181.4120  139.6630 O   0  0  0  0  0  0  0  0  0  0  0  0
  178.9620  182.3710  138.7570 C   0  0  0  0  0  3  0  0  0  0  0  0
  179.8020  182.6650  137.5230 C   0  0  0  0  0  1  0  0  0  0  0  0
  178.4440  183.6260  139.4380 C   0  0  0  0  0  1  0  0  0  0  0  0
  178.7690  177.7780  140.0700 C   0  0  0  0  0  2  0  0  0  0  0  0
  179.4680  176.9930  139.1510 O   0  0  0  0  0  0  0  0  0  0  0  0
  178.4910  176.5110  138.2860 C   0  0  0  0  0  2  0  0  0  0  0  0
  179.0690  176.1750  137.0620 O   0  0  0  0  0  1  0  0  0  0  0  0
  186.9430  177.3260  139.3810 C   0  0  0  0  0  2  0  0  0  0  0  0
  186.4080  176.5600  138.1820 C   0  0  0  0  0  2  0  0  0  0  0  0
  186.8550  175.2100  138.2120 O   0  0  0  0  0  0  0  0  0  0  0  0
  189.9850  174.3660  135.8480 S   0  0  0  0  0  0  0  0  0  0  0  0
  190.0980  173.7240  137.5510 C   0  0  1  0  0  3  0  0  0  0  0  0
  188.3540  175.0910  136.1780 C   0  0  0  0  0  2  0  0  0  0  0  0
  188.8990  174.1120  138.2650 N   0  0  0  0  0  0  0  0  0  0  0  0
  188.0370  174.7960  137.6000 C   0  0  0  0  0  0  0  0  0  0  0  0
  190.1280  170.0490  136.8980 N   0  0  0  0  0  0  0  0  0  0  0  0
  190.8640  171.4230  138.5860 C   0  0  0  0  0  0  0  0  0  0  0  0
  189.8360  171.4120  136.6010 C   0  0  0  0  0  0  0  0  0  0  0  0
  191.4000  171.8670  139.6340 O   0  0  0  0  0  0  0  0  0  0  0  0
  192.2010  169.4330  138.0100 C   0  0  0  0  0  1  0  0  0  0  0  0
  189.1400  171.8260  135.3560 C   0  0  0  0  0  1  0  0  0  0  0  0
  190.2360  172.2350  137.5560 C   0  0  2  0  0  3  0  0  0  0  0  0
  190.8010  169.9900  138.1920 C   0  0  2  0  0  3  0  0  0  0  0  0
  185.8770  176.8590  141.4810 O   0  0  0  0  0  0  0  0  0  0  0  0
  187.6430  175.9720  142.6780 O   0  0  0  0  0  0  0  0  0  0  0  0
  186.9100  176.9630  142.4230 C   0  0  0  0  0  0  0  0  0  0  0  0
  188.4010  178.2450  143.7460 O   0  0  0  0  0  1  0  0  0  0  0  0
  187.1230  178.2370  143.1820 C   0  0  2  0  0  3  0  0  0  0  0  0
  186.0160  178.4850  144.2160 C   0  0  2  0  0  3  0  0  0  0  0  0
  185.2980  179.7730  143.8790 C   0  0  0  0  0  1  0  0  0  0  0  0
  186.4830  178.5330  145.6710 C   0  0  0  0  0  2  0  0  0  0  0  0
  185.7220  177.5680  146.5760 C   0  0  2  0  0  3  0  0  0  0  0  0
  184.8220  178.3270  147.5230 C   0  0  0  0  0  1  0  0  0  0  0  0
  186.7130  176.7230  147.3490 C   0  0  0  0  0  2  0  0  0  0  0  0
  188.1320  177.2270  147.1450 C   0  0  0  0  0  2  0  0  0  0  0  0
  188.9700  176.1720  146.5000 C   0  0  0  0  0  0  0  0  0  0  0  0
  189.5790  173.8440  146.2460 C   0  0  0  0  0  3  0  0  0  0  0  0
  190.8190  175.5550  145.0510 C   0  0  0  0  0  0  0  0  0  0  0  0
  188.7680  174.8250  146.8190 C   0  0  0  0  0  3  0  0  0  0  0  0
  189.9990  176.5380  145.6200 C   0  0  0  0  0  3  0  0  0  0  0  0
  190.5970  174.2100  145.3640 C   0  0  0  0  0  3  0  0  0  0  0  0
  191.8790  175.9000  144.1560 N   0  0  0  0  0  2  0  0  0  0  0  0
  195.2920  172.8220  145.3770 C   0  0  0  0  0  1  0  0  0  0  0  0
  193.4240  176.0780  146.0430 C   0  0  0  0  0  2  0  0  0  0  0  0
  195.6380  176.4440  144.0730 C   0  0  0  0  0  2  0  0  0  0  0  0
  195.2270  174.9770  144.0740 C   0  0  1  0  0  0  0  0  0  0  0  0
  195.1260  174.3280  145.4780 C   0  0  1  0  0  0  0  0  0  0  0  0
  194.2470  176.0470  143.5850 C   0  0  1  0  0  3  0  0  0  0  0  0
  193.1530  176.4610  144.5870 C   0  0  1  0  0  3  0  0  0  0  0  0
  193.7770  174.6010  146.1310 C   0  0  0  0  0  2  0  0  0  0  0  0
  196.1250  174.8210  146.2970 F   0  0  0  0  0  0  0  0  0  0  0  0
  195.8660  174.2610  143.0590 O   0  0  0  0  0  1  0  0  0  0  0  0
  1 19  1  6  0  0  0
  1 35  1  0  0  0  0
  2  4  2  0  0  0  0
  2  1  1  0  0  0  0
  3  5  1  0  0  0  0
  4  3  2  0  0  0  0
  5  6  1  0  0  0  0
  7 15  1  1  0  0  0
  7  6  1  0  0  0  0
  9 10  1  6  0  0  0
  9  7  1  0  0  0  0
  9  8  1  0  0  0  0
 11  9  1  0  0  0  0
 12 14  1  0  0  0  0
 12 11  1  0  0  0  0
 13 12  1  0  0  0  0
 16 15  1  0  0  0  0
 17 16  1  0  0  0  0
 18 17  1  0  0  0  0
 20 21  1  0  0  0  0
 20 19  1  0  0  0  0
 22 24  1  0  0  0  0
 23 22  1  6  0  0  0
 23 33  1  0  0  0  0
 23 25  1  0  0  0  0
 24 26  1  0  0  0  0
 26 21  1  0  0  0  0
 26 25  2  0  0  0  0
 27 34  1  0  0  0  0
 28 30  2  0  0  0  0
 29 27  2  0  0  0  0
 32 29  1  0  0  0  0
 33 29  1  6  0  0  0
 33 28  1  0  0  0  0
 34 31  1  6  0  0  0
 34 28  1  0  0  0  0
 35 37  1  0  0  0  0
 37 36  2  0  0  0  0
 37 39  1  0  0  0  0
 39 38  1  1  0  0  0
 39 40  1  0  0  0  0
 40 41  1  6  0  0  0
 40 42  1  0  0  0  0
 42 43  1  0  0  0  0
 43 45  1  0  0  0  0
 43 44  1  1  0  0  0
 46 45  1  0  0  0  0
 47 50  1  0  0  0  0
 47 46  1  0  0  0  0
 48 50  2  0  0  0  0
 49 52  2  0  0  0  0
 49 51  1  0  0  0  0
 51 47  2  0  0  0  0
 52 48  1  0  0  0  0
 53 49  1  0  0  0  0
 55 61  1  0  0  0  0
 56 57  1  0  0  0  0
 57 63  1  6  0  0  0
 57 58  1  0  0  0  0
 58 54  1  6  0  0  0
 58 61  1  0  0  0  0
 58 62  1  0  0  0  0
 59 56  1  1  0  0  0
 59 57  1  0  0  0  0
 59 60  1  0  0  0  0
 60 53  1  6  0  0  0
 60 55  1  0  0  0  0
M  END
>  <MODEL>
3

>  <REMARK>
 VINA RESULT:      -5.5      4.571      9.458
  Name = 
  26 active torsions:
  status: ('A' for Active; 'I' for Inactive)
    1  A    between atoms: C_1  and  C_20
    2  A    between atoms: C_4  and  C_21
    3  A    between atoms: C_4  and  S_22
    4  A    between atoms: C_4  and  C_53
    5  A    between atoms: C_5  and  C_35
    6  A    between atoms: C_6  and  C_16
    7  A    between atoms: C_6  and  C_27
    8  A    between atoms: C_11  and  C_46
    9  A    between atoms: C_12  and  S_22
   10  A    between atoms: C_12  and  C_38
   11  A    between atoms: C_13  and  C_25
   12  A    between atoms: C_13  and  C_27
   13  A    between atoms: C_16  and  C_17
   14  A    between atoms: C_17  and  C_20
   15  A    between atoms: C_21  and  O_32
   16  A    between atoms: N_23  and  C_26
   17  A    between atoms: N_23  and  C_48
   18  A    between atoms: C_25  and  O_37
   19  A    between atoms: O_29  and  C_42
   20  A    between atoms: O_29  and  C_55
   21  A    between atoms: O_32  and  C_33
   22  A    between atoms: C_35  and  O_37
   23  A    between atoms: C_35  and  C_51
   24  A    between atoms: C_42  and  C_51
   25  A    between atoms: C_52  and  O_54
   26  A    between atoms: C_53  and  O_54
                            x       y       z     vdW  Elec       q    Type
                         _______ _______ _______ _____ _____    ______ ____

>  <TORSDO>
F 26

$$$$
=
 OpenBabel11072409353D

 63 67  0  0  1  0  0  0  0  0999 V2000
  195.1270  175.3860  144.5800 C   0  0  2  0  0  3  0  0  0  0  0  0
  194.7200  176.2860  145.6930 C   0  0  0  0  0  3  0  0  0  0  0  0
  192.3030  176.1210  146.6610 C   0  0  0  0  0  3  0  0  0  0  0  0
  193.5130  176.2180  146.1860 C   0  0  0  0  0  0  0  0  0  0  0  0
  191.2070  176.9350  146.0690 C   0  0  0  0  0  2  0  0  0  0  0  0
  189.5990  176.1600  146.4120 S   0  0  0  0  0  0  0  0  0  0  0  0
  188.6680  177.5580  145.6980 C   0  0  2  0  0  3  0  0  0  0  0  0
  186.9890  177.4650  147.3890 O   0  0  0  0  0  1  0  0  0  0  0  0
  187.1620  177.4670  146.0020 C   0  0  2  0  0  0  0  0  0  0  0  0
  186.6620  176.1310  145.4550 C   0  0  0  0  0  1  0  0  0  0  0  0
  186.5130  178.5950  145.4190 O   0  0  0  0  0  0  0  0  0  0  0  0
  185.1560  178.4000  145.0360 C   0  0  0  0  0  3  0  0  0  0  0  0
  184.7460  178.9940  143.6970 C   0  0  0  0  0  1  0  0  0  0  0  0
  184.1650  178.6930  146.1480 C   0  0  0  0  0  1  0  0  0  0  0  0
  188.9560  177.6270  144.2020 C   0  0  0  0  0  2  0  0  0  0  0  0
  187.8840  178.2190  143.5330 O   0  0  0  0  0  0  0  0  0  0  0  0
  188.1070  177.9320  142.1900 C   0  0  0  0  0  2  0  0  0  0  0  0
  189.4770  177.9400  141.9280 O   0  0  0  0  0  1  0  0  0  0  0  0
  195.1080  173.9430  145.0460 C   0  0  0  0  0  2  0  0  0  0  0  0
  196.5210  173.3950  145.1660 C   0  0  0  0  0  2  0  0  0  0  0  0
  196.5540  172.2840  146.0530 O   0  0  0  0  0  0  0  0  0  0  0  0
  196.6820  168.4010  145.0500 S   0  0  0  0  0  0  0  0  0  0  0  0
  195.1110  169.2510  144.6810 C   0  0  1  0  0  3  0  0  0  0  0  0
  197.4050  169.9260  145.7190 C   0  0  0  0  0  2  0  0  0  0  0  0
  195.2310  170.6320  145.1000 N   0  0  0  0  0  0  0  0  0  0  0  0
  196.3540  170.9730  145.6230 C   0  0  0  0  0  0  0  0  0  0  0  0
  193.6770  168.8200  141.2620 N   0  0  0  0  0  0  0  0  0  0  0  0
  195.6420  169.6390  142.1270 C   0  0  0  0  0  0  0  0  0  0  0  0
  193.6760  168.7330  142.6840 C   0  0  0  0  0  0  0  0  0  0  0  0
  196.7750  170.1720  142.2580 O   0  0  0  0  0  0  0  0  0  0  0  0
  194.6820  170.7250  140.1320 C   0  0  0  0  0  1  0  0  0  0  0  0
  192.5330  168.1700  143.4480 C   0  0  0  0  0  1  0  0  0  0  0  0
  194.7960  169.1860  143.2200 C   0  0  2  0  0  3  0  0  0  0  0  0
  194.9440  169.4050  140.8340 C   0  0  2  0  0  3  0  0  0  0  0  0
  196.4360  175.7180  144.1270 O   0  0  0  0  0  0  0  0  0  0  0  0
  197.4650  177.5850  143.2350 O   0  0  0  0  0  0  0  0  0  0  0  0
  196.6530  176.6340  143.0880 C   0  0  0  0  0  0  0  0  0  0  0  0
  194.5110  176.5840  142.0730 O   0  0  0  0  0  1  0  0  0  0  0  0
  195.8810  176.5310  141.8080 C   0  0  2  0  0  3  0  0  0  0  0  0
  196.2820  175.2930  140.9920 C   0  0  2  0  0  3  0  0  0  0  0  0
  197.7780  175.0990  141.0840 C   0  0  0  0  0  1  0  0  0  0  0  0
  195.8650  175.3220  139.5210 C   0  0  0  0  0  2  0  0  0  0  0  0
  195.1190  174.0640  139.0860 C   0  0  2  0  0  3  0  0  0  0  0  0
  195.6600  173.5550  137.7700 C   0  0  0  0  0  1  0  0  0  0  0  0
  193.6430  174.3770  138.9660 C   0  0  0  0  0  2  0  0  0  0  0  0
  193.0480  173.7240  137.7290 C   0  0  0  0  0  2  0  0  0  0  0  0
  191.5780  173.5210  137.9050 C   0  0  0  0  0  0  0  0  0  0  0  0
  189.3830  173.1630  136.9530 C   0  0  0  0  0  3  0  0  0  0  0  0
  189.6270  173.4580  139.3490 C   0  0  0  0  0  0  0  0  0  0  0  0
  190.7610  173.3130  136.7880 C   0  0  0  0  0  3  0  0  0  0  0  0
  191.0110  173.5990  139.1840 C   0  0  0  0  0  3  0  0  0  0  0  0
  188.8220  173.2340  138.2280 C   0  0  0  0  0  3  0  0  0  0  0  0
  189.0210  173.5390  140.6420 N   0  0  0  0  0  2  0  0  0  0  0  0
  191.7210  171.5710  144.0240 C   0  0  0  0  0  1  0  0  0  0  0  0
  188.9210  173.9650  143.0480 C   0  0  0  0  0  2  0  0  0  0  0  0
  191.6090  175.2470  142.8380 C   0  0  0  0  0  2  0  0  0  0  0  0
  191.7830  173.7370  142.7390 C   0  0  1  0  0  0  0  0  0  0  0  0
  191.0570  172.9240  143.8420 C   0  0  1  0  0  0  0  0  0  0  0  0
  191.0330  174.4940  141.6410 C   0  0  1  0  0  3  0  0  0  0  0  0
  189.4950  174.4170  141.7040 C   0  0  1  0  0  3  0  0  0  0  0  0
  189.5950  172.6760  143.4900 C   0  0  0  0  0  2  0  0  0  0  0  0
  191.1160  173.6030  145.0440 F   0  0  0  0  0  0  0  0  0  0  0  0
  193.0970  173.3880  142.4180 O   0  0  0  0  0  1  0  0  0  0  0  0
  1 19  1  1  0  0  0
  1  2  1  0  0  0  0
  2  4  2  0  0  0  0
  4  3  2  0  0  0  0
  5  6  1  0  0  0  0
  5  3  1  0  0  0  0
  7 15  1  6  0  0  0
  7  9  1  0  0  0  0
  7  6  1  0  0  0  0
  9 10  1  6  0  0  0
  9  8  1  0  0  0  0
 11  9  1  0  0  0  0
 12 11  1  0  0  0  0
 12 14  1  0  0  0  0
 13 12  1  0  0  0  0
 16 15  1  0  0  0  0
 17 16  1  0  0  0  0
 18 17  1  0  0  0  0
 19 20  1  0  0  0  0
 20 21  1  0  0  0  0
 22 24  1  0  0  0  0
 23 22  1  6  0  0  0
 23 25  1  0  0  0  0
 25 26  2  0  0  0  0
 26 24  1  0  0  0  0
 26 21  1  0  0  0  0
 27 29  2  0  0  0  0
 28 30  2  0  0  0  0
 29 33  1  0  0  0  0
 29 32  1  0  0  0  0
 33 28  1  1  0  0  0
 33 23  1  0  0  0  0
 34 31  1  1  0  0  0
 34 27  1  0  0  0  0
 34 28  1  0  0  0  0
 35  1  1  0  0  0  0
 37 36  2  0  0  0  0
 37 35  1  0  0  0  0
 39 38  1  1  0  0  0
 39 37  1  0  0  0  0
 40 41  1  6  0  0  0
 40 39  1  0  0  0  0
 42 40  1  0  0  0  0
 43 44  1  6  0  0  0
 43 42  1  0  0  0  0
 45 43  1  0  0  0  0
 46 47  1  0  0  0  0
 46 45  1  0  0  0  0
 47 51  1  0  0  0  0
 48 52  2  0  0  0  0
 49 53  1  0  0  0  0
 50 48  1  0  0  0  0
 50 47  2  0  0  0  0
 51 49  2  0  0  0  0
 52 49  1  0  0  0  0
 55 61  1  0  0  0  0
 57 63  1  6  0  0  0
 57 56  1  0  0  0  0
 57 58  1  0  0  0  0
 58 54  1  1  0  0  0
 58 62  1  0  0  0  0
 59 60  1  0  0  0  0
 59 57  1  0  0  0  0
 59 56  1  1  0  0  0
 60 53  1  6  0  0  0
 60 55  1  0  0  0  0
 61 58  1  0  0  0  0
M  END
>  <MODEL>
4

>  <REMARK>
 VINA RESULT:      -5.2      3.023      8.751
  Name = 
  26 active torsions:
  status: ('A' for Active; 'I' for Inactive)
    1  A    between atoms: C_1  and  C_20
    2  A    between atoms: C_4  and  C_21
    3  A    between atoms: C_4  and  S_22
    4  A    between atoms: C_4  and  C_53
    5  A    between atoms: C_5  and  C_35
    6  A    between atoms: C_6  and  C_16
    7  A    between atoms: C_6  and  C_27
    8  A    between atoms: C_11  and  C_46
    9  A    between atoms: C_12  and  S_22
   10  A    between atoms: C_12  and  C_38
   11  A    between atoms: C_13  and  C_25
   12  A    between atoms: C_13  and  C_27
   13  A    between atoms: C_16  and  C_17
   14  A    between atoms: C_17  and  C_20
   15  A    between atoms: C_21  and  O_32
   16  A    between atoms: N_23  and  C_26
   17  A    between atoms: N_23  and  C_48
   18  A    between atoms: C_25  and  O_37
   19  A    between atoms: O_29  and  C_42
   20  A    between atoms: O_29  and  C_55
   21  A    between atoms: O_32  and  C_33
   22  A    between atoms: C_35  and  O_37
   23  A    between atoms: C_35  and  C_51
   24  A    between atoms: C_42  and  C_51
   25  A    between atoms: C_52  and  O_54
   26  A    between atoms: C_53  and  O_54
                            x       y       z     vdW  Elec       q    Type
                         _______ _______ _______ _____ _____    ______ ____

>  <TORSDO>
F 26

$$$$
=
 OpenBabel11072409353D

 63 67  0  0  1  0  0  0  0  0999 V2000
  190.6920  174.8540  145.0600 C   0  0  2  0  0  3  0  0  0  0  0  0
  192.0610  174.2680  145.0640 C   0  0  0  0  0  3  0  0  0  0  0  0
  194.1220  175.8170  144.6730 C   0  0  0  0  0  3  0  0  0  0  0  0
  193.1020  175.0300  144.8660 C   0  0  0  0  0  0  0  0  0  0  0  0
  194.6140  176.0700  143.2920 C   0  0  0  0  0  2  0  0  0  0  0  0
  196.3950  175.7300  143.1900 S   0  0  0  0  0  0  0  0  0  0  0  0
  196.1370  174.1240  142.3640 C   0  0  2  0  0  3  0  0  0  0  0  0
  196.8060  173.4310  144.5460 O   0  0  0  0  0  1  0  0  0  0  0  0
  196.3290  172.9380  143.3280 C   0  0  2  0  0  0  0  0  0  0  0  0
  197.3990  172.0270  142.7280 C   0  0  0  0  0  1  0  0  0  0  0  0
  195.0710  172.2920  143.5070 O   0  0  0  0  0  0  0  0  0  0  0  0
  195.0770  171.1500  144.3560 C   0  0  0  0  0  3  0  0  0  0  0  0
  194.6720  169.8330  143.7110 C   0  0  0  0  0  1  0  0  0  0  0  0
  194.4060  171.3890  145.6970 C   0  0  0  0  0  1  0  0  0  0  0  0
  197.0580  174.0420  141.1520 C   0  0  0  0  0  2  0  0  0  0  0  0
  196.7760  175.0790  140.2610 O   0  0  0  0  0  0  0  0  0  0  0  0
  195.8170  174.5510  139.4010 C   0  0  0  0  0  2  0  0  0  0  0  0
  196.2430  173.3110  138.9250 O   0  0  0  0  0  1  0  0  0  0  0  0
  189.9300  174.3970  146.2900 C   0  0  0  0  0  2  0  0  0  0  0  0
  189.7840  175.5350  147.2880 C   0  0  0  0  0  2  0  0  0  0  0  0
  189.3350  176.7170  146.6370 O   0  0  0  0  0  0  0  0  0  0  0  0
  185.3390  177.0710  146.7190 S   0  0  0  0  0  0  0  0  0  0  0  0
  186.1980  178.1860  145.5590 C   0  0  1  0  0  3  0  0  0  0  0  0
  186.9110  176.3270  147.2420 C   0  0  0  0  0  2  0  0  0  0  0  0
  187.6210  177.9320  145.6510 N   0  0  0  0  0  0  0  0  0  0  0  0
  187.9840  177.0250  146.4870 C   0  0  0  0  0  0  0  0  0  0  0  0
  184.4840  178.0920  142.2440 N   0  0  0  0  0  0  0  0  0  0  0  0
  186.3950  177.1760  143.1310 C   0  0  0  0  0  0  0  0  0  0  0  0
  184.6440  178.4810  143.6060 C   0  0  0  0  0  0  0  0  0  0  0  0
  187.4860  176.5660  143.2780 O   0  0  0  0  0  0  0  0  0  0  0  0
  186.4090  177.8920  140.7720 C   0  0  0  0  0  1  0  0  0  0  0  0
  183.6690  179.3560  144.3060 C   0  0  0  0  0  1  0  0  0  0  0  0
  185.7300  177.9650  144.1560 C   0  0  2  0  0  3  0  0  0  0  0  0
  185.6020  177.2300  141.8740 C   0  0  2  0  0  3  0  0  0  0  0  0
  189.9840  174.4520  143.8910 O   0  0  0  0  0  0  0  0  0  0  0  0
  190.6770  176.1330  142.4640 O   0  0  0  0  0  0  0  0  0  0  0  0
  190.3190  174.9350  142.6180 C   0  0  0  0  0  0  0  0  0  0  0  0
  188.9050  173.5490  141.3150 O   0  0  0  0  0  1  0  0  0  0  0  0
  190.2050  174.0520  141.4130 C   0  0  2  0  0  3  0  0  0  0  0  0
  191.2720  172.9480  141.4040 C   0  0  2  0  0  3  0  0  0  0  0  0
  192.6390  173.5790  141.2670 C   0  0  0  0  0  1  0  0  0  0  0  0
  191.0950  171.8830  140.3210 C   0  0  0  0  0  2  0  0  0  0  0  0
  191.4210  170.4740  140.8090 C   0  0  2  0  0  3  0  0  0  0  0  0
  191.1380  170.3470  142.2880 C   0  0  0  0  0  1  0  0  0  0  0  0
  192.8760  170.1700  140.5200 C   0  0  0  0  0  2  0  0  0  0  0  0
  193.0050  169.1220  139.4270 C   0  0  0  0  0  2  0  0  0  0  0  0
  193.6680  169.7080  138.2230 C   0  0  0  0  0  0  0  0  0  0  0  0
  195.2630  169.5280  136.4130 C   0  0  0  0  0  3  0  0  0  0  0  0
  194.0360  171.5960  136.7410 C   0  0  0  0  0  0  0  0  0  0  0  0
  194.6170  168.9630  137.5130 C   0  0  0  0  0  3  0  0  0  0  0  0
  193.3820  171.0260  137.8400 C   0  0  0  0  0  3  0  0  0  0  0  0
  194.9710  170.8370  136.0290 C   0  0  0  0  0  3  0  0  0  0  0  0
  193.7690  172.9400  136.3320 N   0  0  0  0  0  2  0  0  0  0  0  0
  189.7250  170.4840  136.8030 C   0  0  0  0  0  1  0  0  0  0  0  0
  192.3020  172.1500  134.5420 C   0  0  0  0  0  2  0  0  0  0  0  0
  190.2430  174.0860  135.5040 C   0  0  0  0  0  2  0  0  0  0  0  0
  190.2980  172.9150  136.4750 C   0  0  1  0  0  0  0  0  0  0  0  0
  190.2390  171.5140  135.8130 C   0  0  1  0  0  0  0  0  0  0  0  0
  191.5030  173.8470  136.3310 C   0  0  1  0  0  3  0  0  0  0  0  0
  192.6610  173.3170  135.4630 C   0  0  1  0  0  3  0  0  0  0  0  0
  191.6120  171.0540  135.3400 C   0  0  0  0  0  2  0  0  0  0  0  0
  189.3810  171.5420  134.7300 F   0  0  0  0  0  0  0  0  0  0  0  0
  189.5120  173.1450  137.6070 O   0  0  0  0  0  1  0  0  0  0  0  0
  1  2  1  6  0  0  0
  1 19  1  0  0  0  0
  3  4  2  0  0  0  0
  4  2  2  0  0  0  0
  5  3  1  0  0  0  0
  6  5  1  0  0  0  0
  7 15  1  6  0  0  0
  7  6  1  0  0  0  0
  7  9  1  0  0  0  0
  9 10  1  6  0  0  0
  9 11  1  0  0  0  0
  9  8  1  0  0  0  0
 11 12  1  0  0  0  0
 12 14  1  0  0  0  0
 13 12  1  0  0  0  0
 16 15  1  0  0  0  0
 17 16  1  0  0  0  0
 18 17  1  0  0  0  0
 19 20  1  0  0  0  0
 21 20  1  0  0  0  0
 22 24  1  0  0  0  0
 23 25  1  6  0  0  0
 23 22  1  0  0  0  0
 25 26  2  0  0  0  0
 26 21  1  0  0  0  0
 26 24  1  0  0  0  0
 27 29  2  0  0  0  0
 28 30  2  0  0  0  0
 29 33  1  0  0  0  0
 29 32  1  0  0  0  0
 33 28  1  6  0  0  0
 33 23  1  0  0  0  0
 34 31  1  6  0  0  0
 34 27  1  0  0  0  0
 34 28  1  0  0  0  0
 35  1  1  0  0  0  0
 36 37  2  0  0  0  0
 37 35  1  0  0  0  0
 39 38  1  1  0  0  0
 39 37  1  0  0  0  0
 40 41  1  6  0  0  0
 40 39  1  0  0  0  0
 42 43  1  0  0  0  0
 42 40  1  0  0  0  0
 43 44  1  1  0  0  0
 45 43  1  0  0  0  0
 46 45  1  0  0  0  0
 47 46  1  0  0  0  0
 48 50  1  0  0  0  0
 49 51  2  0  0  0  0
 50 47  2  0  0  0  0
 51 47  1  0  0  0  0
 52 48  2  0  0  0  0
 52 49  1  0  0  0  0
 53 49  1  0  0  0  0
 55 61  1  0  0  0  0
 55 60  1  0  0  0  0
 56 57  1  0  0  0  0
 57 63  1  1  0  0  0
 58 57  1  0  0  0  0
 58 54  1  1  0  0  0
 59 56  1  6  0  0  0
 59 57  1  0  0  0  0
 60 59  1  0  0  0  0
 60 53  1  1  0  0  0
 61 58  1  0  0  0  0
 62 58  1  0  0  0  0
M  END
>  <MODEL>
5

>  <REMARK>
 VINA RESULT:      -5.0      3.205     10.132
  Name = 
  26 active torsions:
  status: ('A' for Active; 'I' for Inactive)
    1  A    between atoms: C_1  and  C_20
    2  A    between atoms: C_4  and  C_21
    3  A    between atoms: C_4  and  S_22
    4  A    between atoms: C_4  and  C_53
    5  A    between atoms: C_5  and  C_35
    6  A    between atoms: C_6  and  C_16
    7  A    between atoms: C_6  and  C_27
    8  A    between atoms: C_11  and  C_46
    9  A    between atoms: C_12  and  S_22
   10  A    between atoms: C_12  and  C_38
   11  A    between atoms: C_13  and  C_25
   12  A    between atoms: C_13  and  C_27
   13  A    between atoms: C_16  and  C_17
   14  A    between atoms: C_17  and  C_20
   15  A    between atoms: C_21  and  O_32
   16  A    between atoms: N_23  and  C_26
   17  A    between atoms: N_23  and  C_48
   18  A    between atoms: C_25  and  O_37
   19  A    between atoms: O_29  and  C_42
   20  A    between atoms: O_29  and  C_55
   21  A    between atoms: O_32  and  C_33
   22  A    between atoms: C_35  and  O_37
   23  A    between atoms: C_35  and  C_51
   24  A    between atoms: C_42  and  C_51
   25  A    between atoms: C_52  and  O_54
   26  A    between atoms: C_53  and  O_54
                            x       y       z     vdW  Elec       q    Type
                         _______ _______ _______ _____ _____    ______ ____

>  <TORSDO>
F 26

$$$$
=
 OpenBabel11072409353D

 63 67  0  0  1  0  0  0  0  0999 V2000
  186.1060  177.6410  140.3290 C   0  0  2  0  0  3  0  0  0  0  0  0
  184.7550  177.5710  139.7070 C   0  0  0  0  0  3  0  0  0  0  0  0
  182.7860  178.9200  140.7570 C   0  0  0  0  0  3  0  0  0  0  0  0
  183.7590  178.2370  140.2230 C   0  0  0  0  0  0  0  0  0  0  0  0
  181.9440  178.3060  141.8190 C   0  0  0  0  0  2  0  0  0  0  0  0
  180.5490  179.3970  142.2210 S   0  0  0  0  0  0  0  0  0  0  0  0
  179.6380  178.9450  140.7060 C   0  0  2  0  0  3  0  0  0  0  0  0
  177.9300  180.4920  141.3200 O   0  0  0  0  0  1  0  0  0  0  0  0
  178.7030  180.0730  140.2330 C   0  0  2  0  0  0  0  0  0  0  0  0
  177.7670  179.4840  139.1790 C   0  0  0  0  0  1  0  0  0  0  0  0
  179.5020  181.1480  139.7430 O   0  0  0  0  0  0  0  0  0  0  0  0
  178.8310  182.0910  138.9160 C   0  0  0  0  0  3  0  0  0  0  0  0
  179.6640  182.7310  137.8160 C   0  0  0  0  0  1  0  0  0  0  0  0
  177.9990  183.0960  139.6940 C   0  0  0  0  0  1  0  0  0  0  0  0
  178.8920  177.6380  140.9540 C   0  0  0  0  0  2  0  0  0  0  0  0
  177.9540  177.8050  141.9760 O   0  0  0  0  0  0  0  0  0  0  0  0
  177.6930  176.5150  142.4260 C   0  0  0  0  0  2  0  0  0  0  0  0
  178.5190  176.2170  143.5090 O   0  0  0  0  0  1  0  0  0  0  0  0
  187.1560  177.1660  139.3420 C   0  0  0  0  0  2  0  0  0  0  0  0
  187.0470  175.6660  139.1170 C   0  0  0  0  0  2  0  0  0  0  0  0
  187.7750  175.2810  137.9570 O   0  0  0  0  0  0  0  0  0  0  0  0
  189.2640  171.5700  138.2880 S   0  0  0  0  0  0  0  0  0  0  0  0
  189.6610  172.4340  136.7320 C   0  0  1  0  0  3  0  0  0  0  0  0
  188.3360  173.0040  138.9040 C   0  0  0  0  0  2  0  0  0  0  0  0
  189.0550  173.7490  136.7730 N   0  0  0  0  0  0  0  0  0  0  0  0
  188.3900  174.0360  137.8350 C   0  0  0  0  0  0  0  0  0  0  0  0
  193.2410  172.3340  135.6790 N   0  0  0  0  0  0  0  0  0  0  0  0
  192.0550  173.3320  137.3760 C   0  0  0  0  0  0  0  0  0  0  0  0
  191.8560  172.0110  135.5830 C   0  0  0  0  0  0  0  0  0  0  0  0
  191.7250  174.0270  138.3710 O   0  0  0  0  0  0  0  0  0  0  0  0
  193.9570  174.5490  136.3840 C   0  0  0  0  0  1  0  0  0  0  0  0
  191.3130  171.1350  134.5140 C   0  0  0  0  0  1  0  0  0  0  0  0
  191.1400  172.5590  136.5500 C   0  0  2  0  0  3  0  0  0  0  0  0
  193.4370  173.1980  136.8390 C   0  0  2  0  0  3  0  0  0  0  0  0
  186.1570  176.8280  141.4980 O   0  0  0  0  0  0  0  0  0  0  0  0
  188.0030  175.9320  142.5600 O   0  0  0  0  0  0  0  0  0  0  0  0
  187.2180  176.9060  142.4110 C   0  0  0  0  0  0  0  0  0  0  0  0
  188.5270  177.9680  144.0770 O   0  0  0  0  0  1  0  0  0  0  0  0
  187.4030  178.1240  143.2630 C   0  0  2  0  0  3  0  0  0  0  0  0
  186.1360  178.4690  144.0590 C   0  0  2  0  0  3  0  0  0  0  0  0
  185.5910  179.7950  143.5770 C   0  0  0  0  0  1  0  0  0  0  0  0
  186.3150  178.5170  145.5770 C   0  0  0  0  0  2  0  0  0  0  0  0
  185.4900  177.4620  146.3090 C   0  0  2  0  0  3  0  0  0  0  0  0
  184.6030  178.1090  147.3470 C   0  0  0  0  0  1  0  0  0  0  0  0
  186.4240  176.4630  146.9590 C   0  0  0  0  0  2  0  0  0  0  0  0
  187.6700  177.1510  147.4930 C   0  0  0  0  0  2  0  0  0  0  0  0
  188.8970  176.5190  146.9210 C   0  0  0  0  0  0  0  0  0  0  0  0
  191.2910  176.5280  146.5730 C   0  0  0  0  0  3  0  0  0  0  0  0
  189.9260  174.8120  145.5340 C   0  0  0  0  0  0  0  0  0  0  0  0
  190.1520  177.0980  147.1420 C   0  0  0  0  0  3  0  0  0  0  0  0
  188.7830  175.3800  146.1120 C   0  0  0  0  0  3  0  0  0  0  0  0
  191.1760  175.3890  145.7750 C   0  0  0  0  0  3  0  0  0  0  0  0
  189.8380  173.6540  144.7000 N   0  0  0  0  0  2  0  0  0  0  0  0
  193.8300  171.1520  144.0560 C   0  0  0  0  0  1  0  0  0  0  0  0
  191.7470  174.2510  143.2920 C   0  0  0  0  0  2  0  0  0  0  0  0
  191.0330  171.9600  141.5160 C   0  0  0  0  0  2  0  0  0  0  0  0
  191.6710  171.4100  142.7840 C   0  0  1  0  0  0  0  0  0  0  0  0
  193.0050  172.0870  143.1910 C   0  0  1  0  0  0  0  0  0  0  0  0
  190.3220  172.1290  142.8570 C   0  0  1  0  0  3  0  0  0  0  0  0
  190.3680  173.5910  143.3440 C   0  0  1  0  0  3  0  0  0  0  0  0
  192.7700  173.3650  143.9850 C   0  0  0  0  0  2  0  0  0  0  0  0
  193.7400  172.3950  142.0600 F   0  0  0  0  0  0  0  0  0  0  0  0
  191.5950  170.0150  142.8380 O   0  0  0  0  0  1  0  0  0  0  0  0
  1 19  1  6  0  0  0
  1 35  1  0  0  0  0
  2  4  2  0  0  0  0
  2  1  1  0  0  0  0
  3  5  1  0  0  0  0
  4  3  2  0  0  0  0
  5  6  1  0  0  0  0
  7 15  1  1  0  0  0
  7  6  1  0  0  0  0
  9 10  1  6  0  0  0
  9  7  1  0  0  0  0
  9  8  1  0  0  0  0
 11  9  1  0  0  0  0
 12 14  1  0  0  0  0
 12 11  1  0  0  0  0
 13 12  1  0  0  0  0
 15 16  1  0  0  0  0
 16 17  1  0  0  0  0
 17 18  1  0  0  0  0
 20 19  1  0  0  0  0
 21 20  1  0  0  0  0
 22 24  1  0  0  0  0
 23 25  1  1  0  0  0
 23 22  1  0  0  0  0
 25 26  2  0  0  0  0
 26 21  1  0  0  0  0
 26 24  1  0  0  0  0
 27 34  1  0  0  0  0
 28 30  2  0  0  0  0
 29 27  2  0  0  0  0
 32 29  1  0  0  0  0
 33 29  1  6  0  0  0
 33 23  1  0  0  0  0
 33 28  1  0  0  0  0
 34 31  1  6  0  0  0
 34 28  1  0  0  0  0
 35 37  1  0  0  0  0
 37 36  2  0  0  0  0
 37 39  1  0  0  0  0
 39 40  1  0  0  0  0
 39 38  1  1  0  0  0
 40 41  1  6  0  0  0
 40 42  1  0  0  0  0
 42 43  1  0  0  0  0
 43 45  1  0  0  0  0
 43 44  1  1  0  0  0
 45 46  1  0  0  0  0
 47 50  1  0  0  0  0
 47 46  1  0  0  0  0
 48 50  2  0  0  0  0
 49 52  2  0  0  0  0
 49 51  1  0  0  0  0
 51 47  2  0  0  0  0
 52 48  1  0  0  0  0
 53 49  1  0  0  0  0
 55 60  1  0  0  0  0
 55 61  1  0  0  0  0
 56 57  1  0  0  0  0
 57 63  1  1  0  0  0
 57 59  1  0  0  0  0
 57 58  1  0  0  0  0
 58 61  1  0  0  0  0
 58 54  1  1  0  0  0
 59 56  1  6  0  0  0
 59 60  1  0  0  0  0
 60 53  1  1  0  0  0
 62 58  1  0  0  0  0
M  END
>  <MODEL>
6

>  <REMARK>
 VINA RESULT:      -4.9      4.602      9.556
  Name = 
  26 active torsions:
  status: ('A' for Active; 'I' for Inactive)
    1  A    between atoms: C_1  and  C_20
    2  A    between atoms: C_4  and  C_21
    3  A    between atoms: C_4  and  S_22
    4  A    between atoms: C_4  and  C_53
    5  A    between atoms: C_5  and  C_35
    6  A    between atoms: C_6  and  C_16
    7  A    between atoms: C_6  and  C_27
    8  A    between atoms: C_11  and  C_46
    9  A    between atoms: C_12  and  S_22
   10  A    between atoms: C_12  and  C_38
   11  A    between atoms: C_13  and  C_25
   12  A    between atoms: C_13  and  C_27
   13  A    between atoms: C_16  and  C_17
   14  A    between atoms: C_17  and  C_20
   15  A    between atoms: C_21  and  O_32
   16  A    between atoms: N_23  and  C_26
   17  A    between atoms: N_23  and  C_48
   18  A    between atoms: C_25  and  O_37
   19  A    between atoms: O_29  and  C_42
   20  A    between atoms: O_29  and  C_55
   21  A    between atoms: O_32  and  C_33
   22  A    between atoms: C_35  and  O_37
   23  A    between atoms: C_35  and  C_51
   24  A    between atoms: C_42  and  C_51
   25  A    between atoms: C_52  and  O_54
   26  A    between atoms: C_53  and  O_54
                            x       y       z     vdW  Elec       q    Type
                         _______ _______ _______ _____ _____    ______ ____

>  <TORSDO>
F 26

$$$$
=
 OpenBabel11072409353D

 63 67  0  0  1  0  0  0  0  0999 V2000
  184.7860  178.9700  143.5850 C   0  0  2  0  0  3  0  0  0  0  0  0
  184.9550  178.0590  144.7510 C   0  0  0  0  0  3  0  0  0  0  0  0
  187.2250  178.0210  146.0340 C   0  0  0  0  0  3  0  0  0  0  0  0
  186.0860  178.0260  145.4010 C   0  0  0  0  0  0  0  0  0  0  0  0
  188.3100  177.0990  145.6030 C   0  0  0  0  0  2  0  0  0  0  0  0
  189.7850  177.3420  146.6340 S   0  0  0  0  0  0  0  0  0  0  0  0
  190.7710  176.1470  145.6700 C   0  0  2  0  0  3  0  0  0  0  0  0
  191.1670  175.3990  147.9000 O   0  0  0  0  0  1  0  0  0  0  0  0
  191.4140  175.0700  146.5640 C   0  0  2  0  0  0  0  0  0  0  0  0
  192.9220  175.1180  146.3300 C   0  0  0  0  0  1  0  0  0  0  0  0
  190.8300  173.8090  146.2430 O   0  0  0  0  0  0  0  0  0  0  0  0
  190.9840  173.3810  144.8950 C   0  0  0  0  0  3  0  0  0  0  0  0
  189.7080  172.9910  144.1660 C   0  0  0  0  0  1  0  0  0  0  0  0
  192.1100  172.3810  144.7020 C   0  0  0  0  0  1  0  0  0  0  0  0
  191.8040  176.9120  144.8500 C   0  0  0  0  0  2  0  0  0  0  0  0
  192.4570  176.0470  143.9700 O   0  0  0  0  0  0  0  0  0  0  0  0
  192.4700  176.7270  142.7550 C   0  0  0  0  0  2  0  0  0  0  0  0
  193.6930  176.5240  142.1150 O   0  0  0  0  0  1  0  0  0  0  0  0
  183.8600  178.3380  142.5630 C   0  0  0  0  0  2  0  0  0  0  0  0
  182.4080  178.6560  142.8810 C   0  0  0  0  0  2  0  0  0  0  0  0
  181.8220  179.4200  141.8340 O   0  0  0  0  0  0  0  0  0  0  0  0
  177.8330  179.0080  141.7080 S   0  0  0  0  0  0  0  0  0  0  0  0
  178.5810  179.8180  140.2550 C   0  0  1  0  0  3  0  0  0  0  0  0
  179.4600  178.7950  142.4860 C   0  0  0  0  0  2  0  0  0  0  0  0
  180.0130  179.8860  140.4570 N   0  0  0  0  0  0  0  0  0  0  0  0
  180.4560  179.3950  141.5600 C   0  0  0  0  0  0  0  0  0  0  0  0
  177.8380  178.5860  136.8110 N   0  0  0  0  0  0  0  0  0  0  0  0
  178.1720  177.6140  138.8650 C   0  0  0  0  0  0  0  0  0  0  0  0
  178.0900  179.5780  137.8010 C   0  0  0  0  0  0  0  0  0  0  0  0
  178.3330  176.7820  139.7960 O   0  0  0  0  0  0  0  0  0  0  0  0
  179.0060  176.4530  136.8560 C   0  0  0  0  0  1  0  0  0  0  0  0
  178.1140  181.0300  137.4890 C   0  0  0  0  0  1  0  0  0  0  0  0
  178.2780  179.0580  139.0020 C   0  0  2  0  0  3  0  0  0  0  0  0
  177.8740  177.2730  137.4480 C   0  0  2  0  0  3  0  0  0  0  0  0
  186.0470  179.2350  142.9770 O   0  0  0  0  0  0  0  0  0  0  0  0
  186.0150  178.2580  140.8830 O   0  0  0  0  0  0  0  0  0  0  0  0
  186.5900  178.3940  141.9950 C   0  0  0  0  0  0  0  0  0  0  0  0
  188.9220  178.1880  141.6280 O   0  0  0  0  0  1  0  0  0  0  0  0
  187.8310  177.6010  142.2710 C   0  0  2  0  0  3  0  0  0  0  0  0
  187.6580  176.1170  141.9150 C   0  0  2  0  0  3  0  0  0  0  0  0
  186.6340  175.4990  142.8410 C   0  0  0  0  0  1  0  0  0  0  0  0
  188.9410  175.2860  141.9530 C   0  0  0  0  0  2  0  0  0  0  0  0
  189.3760  174.7960  140.5750 C   0  0  2  0  0  3  0  0  0  0  0  0
  188.1760  174.6080  139.6750 C   0  0  0  0  0  1  0  0  0  0  0  0
  190.1330  173.4940  140.7250 C   0  0  0  0  0  2  0  0  0  0  0  0
  191.6290  173.7440  140.8310 C   0  0  0  0  0  2  0  0  0  0  0  0
  192.3710  172.4480  140.8760 C   0  0  0  0  0  0  0  0  0  0  0  0
  194.3400  171.1800  141.4810 C   0  0  0  0  0  3  0  0  0  0  0  0
  192.5390  170.1050  140.2600 C   0  0  0  0  0  0  0  0  0  0  0  0
  193.6330  172.3830  141.4760 C   0  0  0  0  0  3  0  0  0  0  0  0
  191.8260  171.3110  140.2630 C   0  0  0  0  0  3  0  0  0  0  0  0
  193.7930  170.0470  140.8770 C   0  0  0  0  0  3  0  0  0  0  0  0
  192.0110  168.9320  139.6370 N   0  0  0  0  0  2  0  0  0  0  0  0
  189.5370  172.1720  137.1900 C   0  0  0  0  0  1  0  0  0  0  0  0
  190.4730  168.5240  137.7800 C   0  0  0  0  0  2  0  0  0  0  0  0
  192.4230  169.9000  135.9870 C   0  0  0  0  0  2  0  0  0  0  0  0
  191.7120  170.9520  136.8280 C   0  0  1  0  0  0  0  0  0  0  0  0
  190.1660  170.8310  136.8530 C   0  0  1  0  0  0  0  0  0  0  0  0
  192.6330  169.9300  137.4990 C   0  0  1  0  0  3  0  0  0  0  0  0
  191.9280  168.7490  138.1940 C   0  0  1  0  0  3  0  0  0  0  0  0
  189.6960  169.8260  137.8970 C   0  0  0  0  0  2  0  0  0  0  0  0
  189.7050  170.4340  135.6120 F   0  0  0  0  0  0  0  0  0  0  0  0
  192.2730  172.2200  136.6530 O   0  0  0  0  0  1  0  0  0  0  0  0
  1 19  1  6  0  0  0
  1  2  1  0  0  0  0
  2  4  2  0  0  0  0
  4  3  2  0  0  0  0
  5  3  1  0  0  0  0
  5  6  1  0  0  0  0
  7 15  1  1  0  0  0
  7  9  1  0  0  0  0
  7  6  1  0  0  0  0
  9 10  1  6  0  0  0
  9  8  1  0  0  0  0
 11  9  1  0  0  0  0
 12 11  1  0  0  0  0
 13 12  1  0  0  0  0
 14 12  1  0  0  0  0
 16 15  1  0  0  0  0
 17 16  1  0  0  0  0
 18 17  1  0  0  0  0
 19 20  1  0  0  0  0
 21 20  1  0  0  0  0
 22 24  1  0  0  0  0
 23 25  1  1  0  0  0
 23 22  1  0  0  0  0
 25 26  2  0  0  0  0
 26 21  1  0  0  0  0
 26 24  1  0  0  0  0
 27 34  1  0  0  0  0
 27 29  2  0  0  0  0
 28 33  1  0  0  0  0
 28 30  2  0  0  0  0
 32 29  1  0  0  0  0
 33 29  1  6  0  0  0
 33 23  1  0  0  0  0
 34 31  1  6  0  0  0
 34 28  1  0  0  0  0
 35  1  1  0  0  0  0
 36 37  2  0  0  0  0
 37 39  1  0  0  0  0
 37 35  1  0  0  0  0
 39 38  1  6  0  0  0
 40 42  1  0  0  0  0
 40 39  1  0  0  0  0
 40 41  1  1  0  0  0
 43 44  1  6  0  0  0
 43 45  1  0  0  0  0
 43 42  1  0  0  0  0
 45 46  1  0  0  0  0
 46 47  1  0  0  0  0
 47 50  1  0  0  0  0
 49 51  1  0  0  0  0
 49 52  2  0  0  0  0
 50 48  2  0  0  0  0
 51 47  2  0  0  0  0
 52 48  1  0  0  0  0
 53 49  1  0  0  0  0
 55 61  1  0  0  0  0
 55 60  1  0  0  0  0
 56 57  1  0  0  0  0
 57 63  1  6  0  0  0
 57 58  1  0  0  0  0
 57 59  1  0  0  0  0
 58 54  1  1  0  0  0
 58 61  1  0  0  0  0
 59 56  1  6  0  0  0
 59 60  1  0  0  0  0
 60 53  1  1  0  0  0
 62 58  1  0  0  0  0
M  END
>  <MODEL>
7

>  <REMARK>
 VINA RESULT:      -4.6      4.851     11.826
  Name = 
  26 active torsions:
  status: ('A' for Active; 'I' for Inactive)
    1  A    between atoms: C_1  and  C_20
    2  A    between atoms: C_4  and  C_21
    3  A    between atoms: C_4  and  S_22
    4  A    between atoms: C_4  and  C_53
    5  A    between atoms: C_5  and  C_35
    6  A    between atoms: C_6  and  C_16
    7  A    between atoms: C_6  and  C_27
    8  A    between atoms: C_11  and  C_46
    9  A    between atoms: C_12  and  S_22
   10  A    between atoms: C_12  and  C_38
   11  A    between atoms: C_13  and  C_25
   12  A    between atoms: C_13  and  C_27
   13  A    between atoms: C_16  and  C_17
   14  A    between atoms: C_17  and  C_20
   15  A    between atoms: C_21  and  O_32
   16  A    between atoms: N_23  and  C_26
   17  A    between atoms: N_23  and  C_48
   18  A    between atoms: C_25  and  O_37
   19  A    between atoms: O_29  and  C_42
   20  A    between atoms: O_29  and  C_55
   21  A    between atoms: O_32  and  C_33
   22  A    between atoms: C_35  and  O_37
   23  A    between atoms: C_35  and  C_51
   24  A    between atoms: C_42  and  C_51
   25  A    between atoms: C_52  and  O_54
   26  A    between atoms: C_53  and  O_54
                            x       y       z     vdW  Elec       q    Type
                         _______ _______ _______ _____ _____    ______ ____

>  <TORSDO>
F 26

$$$$
=
 OpenBabel11072409353D

 63 67  0  0  1  0  0  0  0  0999 V2000
  184.8490  178.8080  143.5690 C   0  0  2  0  0  3  0  0  0  0  0  0
  184.8150  177.8500  144.7080 C   0  0  0  0  0  3  0  0  0  0  0  0
  186.8270  177.7510  146.3650 C   0  0  0  0  0  3  0  0  0  0  0  0
  185.8150  177.7860  145.5440 C   0  0  0  0  0  0  0  0  0  0  0  0
  187.9730  176.8420  146.0920 C   0  0  0  0  0  2  0  0  0  0  0  0
  188.8100  176.4080  147.6450 S   0  0  0  0  0  0  0  0  0  0  0  0
  190.0010  175.3100  146.8050 C   0  0  2  0  0  3  0  0  0  0  0  0
  192.2780  175.0520  146.1430 O   0  0  0  0  0  1  0  0  0  0  0  0
  191.3380  176.0180  146.5150 C   0  0  2  0  0  0  0  0  0  0  0  0
  191.8060  176.6670  147.8150 C   0  0  0  0  0  1  0  0  0  0  0  0
  191.1350  176.9520  145.4560 O   0  0  0  0  0  0  0  0  0  0  0  0
  192.0880  176.9070  144.4000 C   0  0  0  0  0  3  0  0  0  0  0  0
  193.5420  177.0990  144.8020 C   0  0  0  0  0  1  0  0  0  0  0  0
  191.6900  177.7340  143.1900 C   0  0  0  0  0  1  0  0  0  0  0  0
  189.3510  174.7570  145.5410 C   0  0  0  0  0  2  0  0  0  0  0  0
  189.6760  173.4080  145.3840 O   0  0  0  0  0  0  0  0  0  0  0  0
  189.4960  173.1600  144.0260 C   0  0  0  0  0  2  0  0  0  0  0  0
  190.3230  172.1110  143.6260 O   0  0  0  0  0  1  0  0  0  0  0  0
  183.9930  178.2900  142.4300 C   0  0  0  0  0  2  0  0  0  0  0  0
  182.5180  178.5240  142.7130 C   0  0  0  0  0  2  0  0  0  0  0  0
  181.9440  179.3640  141.7190 O   0  0  0  0  0  0  0  0  0  0  0  0
  177.9330  179.2780  141.7470 S   0  0  0  0  0  0  0  0  0  0  0  0
  178.6910  179.8480  140.1890 C   0  0  1  0  0  3  0  0  0  0  0  0
  179.5640  179.0200  142.5020 C   0  0  0  0  0  2  0  0  0  0  0  0
  180.1300  179.8190  140.3450 N   0  0  0  0  0  0  0  0  0  0  0  0
  180.5720  179.4230  141.4860 C   0  0  0  0  0  0  0  0  0  0  0  0
  177.7060  178.2960  136.9400 N   0  0  0  0  0  0  0  0  0  0  0  0
  178.0890  177.5350  139.0740 C   0  0  0  0  0  0  0  0  0  0  0  0
  178.0640  179.3740  137.8020 C   0  0  0  0  0  0  0  0  0  0  0  0
  178.2510  176.8010  140.0830 O   0  0  0  0  0  0  0  0  0  0  0  0
  178.7540  176.1150  137.1720 C   0  0  0  0  0  1  0  0  0  0  0  0
  178.1520  180.7790  137.3290 C   0  0  0  0  0  1  0  0  0  0  0  0
  178.2830  178.9770  139.0440 C   0  0  2  0  0  3  0  0  0  0  0  0
  177.7020  177.0620  137.7180 C   0  0  2  0  0  3  0  0  0  0  0  0
  186.1870  178.9860  143.1110 O   0  0  0  0  0  0  0  0  0  0  0  0
  186.1380  178.3020  140.9050 O   0  0  0  0  0  0  0  0  0  0  0  0
  186.7030  178.2590  142.0300 C   0  0  0  0  0  0  0  0  0  0  0  0
  188.9970  177.9260  141.5350 O   0  0  0  0  0  1  0  0  0  0  0  0
  187.9020  177.3780  142.2060 C   0  0  2  0  0  3  0  0  0  0  0  0
  187.6170  175.9270  141.7930 C   0  0  2  0  0  3  0  0  0  0  0  0
  186.6860  175.2950  142.8030 C   0  0  0  0  0  1  0  0  0  0  0  0
  188.8540  175.0450  141.6240 C   0  0  0  0  0  2  0  0  0  0  0  0
  188.9610  174.4250  140.2330 C   0  0  2  0  0  3  0  0  0  0  0  0
  187.8660  174.9490  139.3330 C   0  0  0  0  0  1  0  0  0  0  0  0
  188.8730  172.9180  140.3510 C   0  0  0  0  0  2  0  0  0  0  0  0
  188.7740  172.2710  138.9780 C   0  0  0  0  0  2  0  0  0  0  0  0
  190.1250  171.8380  138.5100 C   0  0  0  0  0  0  0  0  0  0  0  0
  191.5280  170.7890  136.8420 C   0  0  0  0  0  3  0  0  0  0  0  0
  192.4970  171.5390  138.9360 C   0  0  0  0  0  0  0  0  0  0  0  0
  190.2710  171.2280  137.2590 C   0  0  0  0  0  3  0  0  0  0  0  0
  191.2370  171.9880  139.3510 C   0  0  0  0  0  3  0  0  0  0  0  0
  192.6340  170.9460  137.6770 C   0  0  0  0  0  3  0  0  0  0  0  0
  193.6460  171.6740  139.7750 N   0  0  0  0  0  2  0  0  0  0  0  0
  196.7760  174.8820  141.3640 C   0  0  0  0  0  1  0  0  0  0  0  0
  194.8820  171.6150  141.8850 C   0  0  0  0  0  2  0  0  0  0  0  0
  193.2920  173.9820  142.7730 C   0  0  0  0  0  2  0  0  0  0  0  0
  194.3260  174.4460  141.7550 C   0  0  1  0  0  0  0  0  0  0  0  0
  195.7710  173.9530  142.0230 C   0  0  1  0  0  0  0  0  0  0  0  0
  193.1980  173.5050  141.3250 C   0  0  1  0  0  3  0  0  0  0  0  0
  193.5800  172.0180  141.1900 C   0  0  1  0  0  3  0  0  0  0  0  0
  196.0030  172.5540  141.4670 C   0  0  0  0  0  2  0  0  0  0  0  0
  196.0190  173.9390  143.3830 F   0  0  0  0  0  0  0  0  0  0  0  0
  194.1380  175.7850  141.4020 O   0  0  0  0  0  1  0  0  0  0  0  0
  1 19  1  6  0  0  0
  1  2  1  0  0  0  0
  2  4  2  0  0  0  0
  4  3  2  0  0  0  0
  5  3  1  0  0  0  0
  5  6  1  0  0  0  0
  7 15  1  6  0  0  0
  7  6  1  0  0  0  0
  8  9  1  0  0  0  0
  9  7  1  0  0  0  0
  9 10  1  1  0  0  0
 11  9  1  0  0  0  0
 12 13  1  0  0  0  0
 12 11  1  0  0  0  0
 14 12  1  0  0  0  0
 16 15  1  0  0  0  0
 17 16  1  0  0  0  0
 18 17  1  0  0  0  0
 19 20  1  0  0  0  0
 21 20  1  0  0  0  0
 22 24  1  0  0  0  0
 23 25  1  1  0  0  0
 23 22  1  0  0  0  0
 25 26  2  0  0  0  0
 26 21  1  0  0  0  0
 26 24  1  0  0  0  0
 27 34  1  0  0  0  0
 27 29  2  0  0  0  0
 28 30  2  0  0  0  0
 32 29  1  0  0  0  0
 33 29  1  6  0  0  0
 33 28  1  0  0  0  0
 33 23  1  0  0  0  0
 34 31  1  6  0  0  0
 34 28  1  0  0  0  0
 35  1  1  0  0  0  0
 36 37  2  0  0  0  0
 37 39  1  0  0  0  0
 37 35  1  0  0  0  0
 39 38  1  6  0  0  0
 40 39  1  0  0  0  0
 40 41  1  1  0  0  0
 42 40  1  0  0  0  0
 43 44  1  6  0  0  0
 43 45  1  0  0  0  0
 43 42  1  0  0  0  0
 46 45  1  0  0  0  0
 47 46  1  0  0  0  0
 47 51  1  0  0  0  0
 48 50  1  0  0  0  0
 48 52  2  0  0  0  0
 49 51  2  0  0  0  0
 49 53  1  0  0  0  0
 50 47  2  0  0  0  0
 52 49  1  0  0  0  0
 57 63  1  6  0  0  0
 57 58  1  0  0  0  0
 57 56  1  0  0  0  0
 58 54  1  6  0  0  0
 58 62  1  0  0  0  0
 59 57  1  0  0  0  0
 59 56  1  1  0  0  0
 60 53  1  6  0  0  0
 60 59  1  0  0  0  0
 60 55  1  0  0  0  0
 61 55  1  0  0  0  0
 61 58  1  0  0  0  0
M  END
>  <MODEL>
8

>  <REMARK>
 VINA RESULT:      -4.5      4.665     11.366
  Name = 
  26 active torsions:
  status: ('A' for Active; 'I' for Inactive)
    1  A    between atoms: C_1  and  C_20
    2  A    between atoms: C_4  and  C_21
    3  A    between atoms: C_4  and  S_22
    4  A    between atoms: C_4  and  C_53
    5  A    between atoms: C_5  and  C_35
    6  A    between atoms: C_6  and  C_16
    7  A    between atoms: C_6  and  C_27
    8  A    between atoms: C_11  and  C_46
    9  A    between atoms: C_12  and  S_22
   10  A    between atoms: C_12  and  C_38
   11  A    between atoms: C_13  and  C_25
   12  A    between atoms: C_13  and  C_27
   13  A    between atoms: C_16  and  C_17
   14  A    between atoms: C_17  and  C_20
   15  A    between atoms: C_21  and  O_32
   16  A    between atoms: N_23  and  C_26
   17  A    between atoms: N_23  and  C_48
   18  A    between atoms: C_25  and  O_37
   19  A    between atoms: O_29  and  C_42
   20  A    between atoms: O_29  and  C_55
   21  A    between atoms: O_32  and  C_33
   22  A    between atoms: C_35  and  O_37
   23  A    between atoms: C_35  and  C_51
   24  A    between atoms: C_42  and  C_51
   25  A    between atoms: C_52  and  O_54
   26  A    between atoms: C_53  and  O_54
                            x       y       z     vdW  Elec       q    Type
                         _______ _______ _______ _____ _____    ______ ____

>  <TORSDO>
F 26

$$$$
=
 OpenBabel11072409353D

 63 67  0  0  1  0  0  0  0  0999 V2000
  193.4780  174.7740  142.8240 C   0  0  2  0  0  3  0  0  0  0  0  0
  192.6730  173.5990  143.2560 C   0  0  0  0  0  3  0  0  0  0  0  0
  192.3730  171.5810  141.6310 C   0  0  0  0  0  3  0  0  0  0  0  0
  192.5110  172.5830  142.4530 C   0  0  0  0  0  0  0  0  0  0  0  0
  191.2390  171.5610  140.6680 C   0  0  0  0  0  2  0  0  0  0  0  0
  190.8700  173.2460  140.1010 S   0  0  0  0  0  0  0  0  0  0  0  0
  189.5000  172.6880  139.0340 C   0  0  2  0  0  3  0  0  0  0  0  0
  188.8210  172.1960  136.8010 O   0  0  0  0  0  1  0  0  0  0  0  0
  189.8560  172.7780  137.5380 C   0  0  2  0  0  0  0  0  0  0  0  0
  191.1240  171.9540  137.3170 C   0  0  0  0  0  1  0  0  0  0  0  0
  190.0070  174.1520  137.1900 O   0  0  0  0  0  0  0  0  0  0  0  0
  190.1910  174.4240  135.8050 C   0  0  0  0  0  3  0  0  0  0  0  0
  191.4280  175.2300  135.4390 C   0  0  0  0  0  1  0  0  0  0  0  0
  188.9320  174.9150  135.1120 C   0  0  0  0  0  1  0  0  0  0  0  0
  188.2500  173.4890  139.3810 C   0  0  0  0  0  2  0  0  0  0  0  0
  188.2940  173.8960  140.7160 O   0  0  0  0  0  0  0  0  0  0  0  0
  188.2870  172.7100  141.4450 C   0  0  0  0  0  2  0  0  0  0  0  0
  186.9990  172.4530  141.9140 O   0  0  0  0  0  1  0  0  0  0  0  0
  192.5630  175.8620  142.2940 C   0  0  0  0  0  2  0  0  0  0  0  0
  191.8210  176.5450  143.4320 C   0  0  0  0  0  2  0  0  0  0  0  0
  191.1140  175.5900  144.2130 O   0  0  0  0  0  0  0  0  0  0  0  0
  188.1820  175.9410  146.9280 S   0  0  0  0  0  0  0  0  0  0  0  0
  188.3020  177.3080  145.7280 C   0  0  1  0  0  3  0  0  0  0  0  0
  189.5780  175.0760  146.1550 C   0  0  0  0  0  2  0  0  0  0  0  0
  189.4000  177.0290  144.8260 N   0  0  0  0  0  0  0  0  0  0  0  0
  190.0440  175.9360  145.0350 C   0  0  0  0  0  0  0  0  0  0  0  0
  184.8830  178.0110  144.4040 N   0  0  0  0  0  0  0  0  0  0  0  0
  186.8010  177.0560  143.5740 C   0  0  0  0  0  0  0  0  0  0  0  0
  185.9110  178.0080  145.3910 C   0  0  0  0  0  0  0  0  0  0  0  0
  187.6580  176.5300  142.8180 O   0  0  0  0  0  0  0  0  0  0  0  0
  185.4040  178.4150  142.0630 C   0  0  0  0  0  1  0  0  0  0  0  0
  185.7080  178.5540  146.7570 C   0  0  0  0  0  1  0  0  0  0  0  0
  187.0300  177.4560  144.9540 C   0  0  2  0  0  3  0  0  0  0  0  0
  185.4050  177.3960  143.1880 C   0  0  2  0  0  3  0  0  0  0  0  0
  194.4000  174.3970  141.8060 O   0  0  0  0  0  0  0  0  0  0  0  0
  196.3150  174.7110  143.0610 O   0  0  0  0  0  0  0  0  0  0  0  0
  195.7530  174.1520  142.0830 C   0  0  0  0  0  0  0  0  0  0  0  0
  197.7510  172.9030  141.8320 O   0  0  0  0  0  1  0  0  0  0  0  0
  196.5660  173.2650  141.1890 C   0  0  2  0  0  3  0  0  0  0  0  0
  196.8050  173.8990  139.8120 C   0  0  2  0  0  3  0  0  0  0  0  0
  197.4210  175.2680  139.9940 C   0  0  0  0  0  1  0  0  0  0  0  0
  195.5640  174.0170  138.9260 C   0  0  0  0  0  2  0  0  0  0  0  0
  195.6750  173.2130  137.6330 C   0  0  2  0  0  3  0  0  0  0  0  0
  194.3870  173.2930  136.8470 C   0  0  0  0  0  1  0  0  0  0  0  0
  196.0010  171.7730  137.9690 C   0  0  0  0  0  2  0  0  0  0  0  0
  194.7850  170.8810  137.7730 C   0  0  0  0  0  2  0  0  0  0  0  0
  194.6080  169.9800  138.9510 C   0  0  0  0  0  0  0  0  0  0  0  0
  193.3950  168.2140  140.0750 C   0  0  0  0  0  3  0  0  0  0  0  0
  195.2380  169.3200  141.2020 C   0  0  0  0  0  0  0  0  0  0  0  0
  193.5830  169.0270  138.9570 C   0  0  0  0  0  3  0  0  0  0  0  0
  195.4320  170.1300  140.0760 C   0  0  0  0  0  3  0  0  0  0  0  0
  194.2220  168.3600  141.1900 C   0  0  0  0  0  3  0  0  0  0  0  0
  196.0590  169.4560  142.3640 N   0  0  0  0  0  2  0  0  0  0  0  0
  197.0030  172.2510  146.0930 C   0  0  0  0  0  1  0  0  0  0  0  0
  196.9430  168.7710  144.5390 C   0  0  0  0  0  2  0  0  0  0  0  0
  194.3070  169.5050  145.7350 C   0  0  0  0  0  2  0  0  0  0  0  0
  195.0690  170.7850  145.4170 C   0  0  1  0  0  0  0  0  0  0  0  0
  196.5330  170.8170  145.9260 C   0  0  1  0  0  0  0  0  0  0  0  0
  194.6070  169.8670  144.2830 C   0  0  1  0  0  3  0  0  0  0  0  0
  195.6900  168.9500  143.6800 C   0  0  1  0  0  3  0  0  0  0  0  0
  197.4840  170.1300  144.9540 C   0  0  0  0  0  2  0  0  0  0  0  0
  196.6180  170.1860  147.1530 F   0  0  0  0  0  0  0  0  0  0  0  0
  194.2770  171.9200  145.6110 O   0  0  0  0  0  1  0  0  0  0  0  0
  1 19  1  6  0  0  0
  1  2  1  0  0  0  0
  3  4  2  0  0  0  0
  4  2  2  0  0  0  0
  5  3  1  0  0  0  0
  6  5  1  0  0  0  0
  7 15  1  6  0  0  0
  7  6  1  0  0  0  0
  8  9  1  0  0  0  0
  9 10  1  6  0  0  0
  9  7  1  0  0  0  0
 11  9  1  0  0  0  0
 12 11  1  0  0  0  0
 13 12  1  0  0  0  0
 14 12  1  0  0  0  0
 15 16  1  0  0  0  0
 16 17  1  0  0  0  0
 17 18  1  0  0  0  0
 19 20  1  0  0  0  0
 20 21  1  0  0  0  0
 21 26  1  0  0  0  0
 23 25  1  6  0  0  0
 23 22  1  0  0  0  0
 24 22  1  0  0  0  0
 25 26  2  0  0  0  0
 26 24  1  0  0  0  0
 27 29  2  0  0  0  0
 29 32  1  0  0  0  0
 30 28  2  0  0  0  0
 33 28  1  6  0  0  0
 33 29  1  0  0  0  0
 33 23  1  0  0  0  0
 34 31  1  6  0  0  0
 34 28  1  0  0  0  0
 34 27  1  0  0  0  0
 35 37  1  0  0  0  0
 35  1  1  0  0  0  0
 37 36  2  0  0  0  0
 39 38  1  1  0  0  0
 39 37  1  0  0  0  0
 40 41  1  1  0  0  0
 40 39  1  0  0  0  0
 42 40  1  0  0  0  0
 43 44  1  1  0  0  0
 43 45  1  0  0  0  0
 43 42  1  0  0  0  0
 46 45  1  0  0  0  0
 46 47  1  0  0  0  0
 47 50  2  0  0  0  0
 47 51  1  0  0  0  0
 48 52  2  0  0  0  0
 49 53  1  0  0  0  0
 50 48  1  0  0  0  0
 51 49  2  0  0  0  0
 52 49  1  0  0  0  0
 55 61  1  0  0  0  0
 57 63  1  1  0  0  0
 57 56  1  0  0  0  0
 57 58  1  0  0  0  0
 58 54  1  1  0  0  0
 58 62  1  0  0  0  0
 59 57  1  0  0  0  0
 59 56  1  1  0  0  0
 60 53  1  6  0  0  0
 60 59  1  0  0  0  0
 60 55  1  0  0  0  0
 61 58  1  0  0  0  0
M  END
>  <MODEL>
9

>  <REMARK>
 VINA RESULT:      -4.4      2.799      9.061
  Name = 
  26 active torsions:
  status: ('A' for Active; 'I' for Inactive)
    1  A    between atoms: C_1  and  C_20
    2  A    between atoms: C_4  and  C_21
    3  A    between atoms: C_4  and  S_22
    4  A    between atoms: C_4  and  C_53
    5  A    between atoms: C_5  and  C_35
    6  A    between atoms: C_6  and  C_16
    7  A    between atoms: C_6  and  C_27
    8  A    between atoms: C_11  and  C_46
    9  A    between atoms: C_12  and  S_22
   10  A    between atoms: C_12  and  C_38
   11  A    between atoms: C_13  and  C_25
   12  A    between atoms: C_13  and  C_27
   13  A    between atoms: C_16  and  C_17
   14  A    between atoms: C_17  and  C_20
   15  A    between atoms: C_21  and  O_32
   16  A    between atoms: N_23  and  C_26
   17  A    between atoms: N_23  and  C_48
   18  A    between atoms: C_25  and  O_37
   19  A    between atoms: O_29  and  C_42
   20  A    between atoms: O_29  and  C_55
   21  A    between atoms: O_32  and  C_33
   22  A    between atoms: C_35  and  O_37
   23  A    between atoms: C_35  and  C_51
   24  A    between atoms: C_42  and  C_51
   25  A    between atoms: C_52  and  O_54
   26  A    between atoms: C_53  and  O_54
                            x       y       z     vdW  Elec       q    Type
                         _______ _______ _______ _____ _____    ______ ____

>  <TORSDO>
F 26

$$$$
