=
 OpenBabel11062422083D

 27 31  0  0  1  0  0  0  0  0999 V2000
  186.4730  177.6450  142.2450 C   0  0  1  0  0  3  0  0  0  0  0  0
  187.3340  177.5400  143.4820 C   0  0  0  0  0  2  0  0  0  0  0  0
  189.2020  172.4230  141.9290 C   0  0  0  0  0  3  0  0  0  0  0  0
  188.3040  176.5460  141.5170 C   0  0  1  0  0  3  0  0  0  0  0  0
  186.9350  176.7440  141.2670 O   0  0  0  0  0  0  0  0  0  0  0  0
  188.1210  174.5940  139.1560 N   0  0  0  0  0  1  0  0  0  0  0  0
  189.4170  175.6580  145.0650 C   0  0  0  0  0  0  0  0  0  0  0  0
  189.6460  177.8980  143.0060 O   0  0  0  0  0  1  0  0  0  0  0  0
  188.6130  176.9580  142.9690 C   0  0  1  0  0  0  0  0  0  0  0  0
  189.8210  174.5660  145.5450 O   0  0  0  0  0  0  0  0  0  0  0  0
  188.8190  172.8610  140.6920 N   0  0  0  0  0  0  0  0  0  0  0  0
  188.9920  175.7350  143.6900 N   0  0  0  0  0  0  0  0  0  0  0  0
  189.2910  173.3220  143.0040 C   0  0  0  0  0  3  0  0  0  0  0  0
  188.6010  175.0820  141.5140 C   0  0  0  0  0  0  0  0  0  0  0  0
  188.5160  174.1720  140.4580 C   0  0  0  0  0  0  0  0  0  0  0  0
  188.9790  174.6620  142.7570 C   0  0  0  0  0  0  0  0  0  0  0  0
  184.2020  178.2540  141.6780 O   0  0  0  0  0  0  0  0  0  0  0  0
  184.3130  178.7370  142.9960 C   0  0  0  0  0  2  0  0  0  0  0  0
  184.9790  177.4770  142.5680 C   0  0  2  0  0  3  0  0  0  0  0  0
  189.3740  176.8610  145.9560 C   0  0  0  0  0  2  0  0  0  0  0  0
  188.5120  176.6140  147.1930 C   0  0  0  0  0  2  0  0  0  0  0  0
  184.6370  178.4330  146.8530 C   0  0  0  0  0  3  0  0  0  0  0  0
  184.8520  177.1410  146.3640 C   0  0  0  0  0  3  0  0  0  0  0  0
  185.6860  179.1350  147.4530 C   0  0  0  0  0  3  0  0  0  0  0  0
  186.1170  176.5530  146.4710 C   0  0  0  0  0  3  0  0  0  0  0  0
  186.9510  178.5450  147.5640 C   0  0  0  0  0  3  0  0  0  0  0  0
  187.1680  177.2550  147.0700 C   0  0  0  0  0  0  0  0  0  0  0  0
  1 19  1  0  0  0  0
  1  2  1  1  0  0  0
  3 13  1  0  0  0  0
  4  5  1  1  0  0  0
  4  9  1  0  0  0  0
  5  1  1  0  0  0  0
  6 15  1  0  0  0  0
  7 10  2  0  0  0  0
  7 20  1  0  0  0  0
  9  8  1  1  0  0  0
  9  2  1  0  0  0  0
  9 12  1  0  0  0  0
 11  3  2  0  0  0  0
 12  7  1  0  0  0  0
 14  4  1  0  0  0  0
 14 16  1  0  0  0  0
 15 11  1  0  0  0  0
 15 14  2  0  0  0  0
 16 13  2  0  0  0  0
 16 12  1  0  0  0  0
 17 19  1  0  0  0  0
 17 18  1  0  0  0  0
 19 18  1  1  0  0  0
 20 21  1  0  0  0  0
 22 24  1  0  0  0  0
 23 25  1  0  0  0  0
 23 22  2  0  0  0  0
 24 26  2  0  0  0  0
 25 27  2  0  0  0  0
 27 21  1  0  0  0  0
 27 26  1  0  0  0  0
M  END
>  <MODEL>
1

>  <REMARK>
 VINA RESULT:      -7.6      0.000      0.000
  Name = 
  4 active torsions:
  status: ('A' for Active; 'I' for Inactive)
    1  A    between atoms: C_1  and  C_26
    2  A    between atoms: C_10  and  C_16
    3  A    between atoms: C_16  and  C_21
    4  A    between atoms: C_21  and  C_27
                            x       y       z     vdW  Elec       q    Type
                         _______ _______ _______ _____ _____    ______ ____

>  <TORSDO>
F 4

$$$$
=
 OpenBabel11062422083D

 27 31  0  0  1  0  0  0  0  0999 V2000
  191.0310  174.7390  141.8460 C   0  0  1  0  0  3  0  0  0  0  0  0
  190.1980  175.5200  142.8350 C   0  0  0  0  0  2  0  0  0  0  0  0
  194.5730  175.9420  146.4080 C   0  0  0  0  0  3  0  0  0  0  0  0
  192.5010  176.2110  142.7190 C   0  0  1  0  0  3  0  0  0  0  0  0
  192.3990  174.9510  142.1020 O   0  0  0  0  0  0  0  0  0  0  0  0
  195.4910  175.5370  142.8630 N   0  0  0  0  0  1  0  0  0  0  0  0
  190.2420  176.9870  145.7040 C   0  0  0  0  0  0  0  0  0  0  0  0
  190.7250  177.8490  142.8180 O   0  0  0  0  0  1  0  0  0  0  0  0
  191.1260  176.6000  143.2970 C   0  0  1  0  0  0  0  0  0  0  0  0
  190.5110  177.0700  146.9330 O   0  0  0  0  0  0  0  0  0  0  0  0
  195.2910  175.7120  145.2680 N   0  0  0  0  0  0  0  0  0  0  0  0
  191.2670  176.6190  144.7590 N   0  0  0  0  0  0  0  0  0  0  0  0
  193.2080  176.2580  146.3360 C   0  0  0  0  0  3  0  0  0  0  0  0
  193.3560  176.0970  143.9380 C   0  0  0  0  0  0  0  0  0  0  0  0
  194.7140  175.7820  144.0320 C   0  0  0  0  0  0  0  0  0  0  0  0
  192.6240  176.3270  145.0670 C   0  0  0  0  0  0  0  0  0  0  0  0
  191.4700  172.5540  140.9040 O   0  0  0  0  0  0  0  0  0  0  0  0
  190.1440  172.7890  140.4920 C   0  0  0  0  0  2  0  0  0  0  0  0
  190.6430  173.2510  141.8150 C   0  0  2  0  0  3  0  0  0  0  0  0
  188.8400  177.2610  145.2570 C   0  0  0  0  0  2  0  0  0  0  0  0
  187.8490  177.1530  146.4150 C   0  0  0  0  0  2  0  0  0  0  0  0
  184.0670  178.9310  145.4260 C   0  0  0  0  0  3  0  0  0  0  0  0
  185.1850  179.1640  144.6200 C   0  0  0  0  0  3  0  0  0  0  0  0
  184.1810  178.1180  146.5570 C   0  0  0  0  0  3  0  0  0  0  0  0
  186.4170  178.5880  144.9470 C   0  0  0  0  0  3  0  0  0  0  0  0
  185.4130  177.5380  146.8830 C   0  0  0  0  0  3  0  0  0  0  0  0
  186.5330  177.7750  146.0800 C   0  0  0  0  0  0  0  0  0  0  0  0
  1  5  1  0  0  0  0
  1  2  1  1  0  0  0
  2  9  1  0  0  0  0
  4  5  1  1  0  0  0
  4  9  1  0  0  0  0
  4 14  1  0  0  0  0
  6 15  1  0  0  0  0
  7 10  2  0  0  0  0
  9  8  1  6  0  0  0
  9 12  1  0  0  0  0
 11  3  2  0  0  0  0
 12 16  1  0  0  0  0
 12  7  1  0  0  0  0
 13  3  1  0  0  0  0
 14 15  2  0  0  0  0
 14 16  1  0  0  0  0
 15 11  1  0  0  0  0
 16 13  2  0  0  0  0
 17 19  1  0  0  0  0
 18 17  1  0  0  0  0
 19 18  1  6  0  0  0
 19  1  1  0  0  0  0
 20  7  1  0  0  0  0
 20 21  1  0  0  0  0
 22 24  1  0  0  0  0
 23 25  1  0  0  0  0
 23 22  2  0  0  0  0
 24 26  2  0  0  0  0
 25 27  2  0  0  0  0
 27 21  1  0  0  0  0
 27 26  1  0  0  0  0
M  END
>  <MODEL>
2

>  <REMARK>
 VINA RESULT:      -7.4      3.321      5.102
  Name = 
  4 active torsions:
  status: ('A' for Active; 'I' for Inactive)
    1  A    between atoms: C_1  and  C_26
    2  A    between atoms: C_10  and  C_16
    3  A    between atoms: C_16  and  C_21
    4  A    between atoms: C_21  and  C_27
                            x       y       z     vdW  Elec       q    Type
                         _______ _______ _______ _____ _____    ______ ____

>  <TORSDO>
F 4

$$$$
=
 OpenBabel11062422083D

 27 31  0  0  1  0  0  0  0  0999 V2000
  186.6420  178.1330  144.9700 C   0  0  1  0  0  3  0  0  0  0  0  0
  187.7160  177.3880  145.7290 C   0  0  0  0  0  2  0  0  0  0  0  0
  188.6150  173.9200  141.3400 C   0  0  0  0  0  3  0  0  0  0  0  0
  188.1460  177.6120  143.3720 C   0  0  1  0  0  3  0  0  0  0  0  0
  186.7880  177.9020  143.5890 O   0  0  0  0  0  0  0  0  0  0  0  0
  187.2630  177.2320  140.4580 N   0  0  0  0  0  1  0  0  0  0  0  0
  189.8370  174.9680  145.5540 C   0  0  0  0  0  0  0  0  0  0  0  0
  189.9100  177.9650  144.9880 O   0  0  0  0  0  1  0  0  0  0  0  0
  188.7880  177.1830  144.7050 C   0  0  1  0  0  0  0  0  0  0  0  0
  190.1980  173.7920  145.2810 O   0  0  0  0  0  0  0  0  0  0  0  0
  188.0460  174.9510  140.6450 N   0  0  0  0  0  0  0  0  0  0  0  0
  189.1560  175.7670  144.5660 N   0  0  0  0  0  0  0  0  0  0  0  0
  189.0240  174.1030  142.6710 C   0  0  0  0  0  3  0  0  0  0  0  0
  188.2610  176.3820  142.5330 C   0  0  0  0  0  0  0  0  0  0  0  0
  187.8590  176.1800  141.2110 C   0  0  0  0  0  0  0  0  0  0  0  0
  188.8290  175.3630  143.2430 C   0  0  0  0  0  0  0  0  0  0  0  0
  184.2580  178.2910  144.5960 O   0  0  0  0  0  0  0  0  0  0  0  0
  184.4130  179.0080  145.7980 C   0  0  0  0  0  2  0  0  0  0  0  0
  185.2340  177.8050  145.4950 C   0  0  2  0  0  3  0  0  0  0  0  0
  190.1170  175.5040  146.9240 C   0  0  0  0  0  2  0  0  0  0  0  0
  191.3620  174.8640  147.5350 C   0  0  0  0  0  2  0  0  0  0  0  0
  194.9570  176.1240  145.5530 C   0  0  0  0  0  3  0  0  0  0  0  0
  194.1920  177.0460  146.2710 C   0  0  0  0  0  3  0  0  0  0  0  0
  194.5510  174.7890  145.4780 C   0  0  0  0  0  3  0  0  0  0  0  0
  193.0180  176.6340  146.9120 C   0  0  0  0  0  3  0  0  0  0  0  0
  193.3790  174.3760  146.1220 C   0  0  0  0  0  3  0  0  0  0  0  0
  192.6100  175.2990  146.8370 C   0  0  0  0  0  0  0  0  0  0  0  0
  1 19  1  0  0  0  0
  1  2  1  1  0  0  0
  3 13  1  0  0  0  0
  4 14  1  6  0  0  0
  4  5  1  0  0  0  0
  4  9  1  0  0  0  0
  5  1  1  0  0  0  0
  6 15  1  0  0  0  0
  7 20  1  0  0  0  0
  9  8  1  1  0  0  0
  9  2  1  0  0  0  0
 10  7  2  0  0  0  0
 11 15  1  0  0  0  0
 11  3  2  0  0  0  0
 12  9  1  0  0  0  0
 12  7  1  0  0  0  0
 13 16  2  0  0  0  0
 14 16  1  0  0  0  0
 15 14  2  0  0  0  0
 16 12  1  0  0  0  0
 17 19  1  0  0  0  0
 17 18  1  0  0  0  0
 19 18  1  1  0  0  0
 20 21  1  0  0  0  0
 22 23  1  0  0  0  0
 23 25  2  0  0  0  0
 24 22  2  0  0  0  0
 24 26  1  0  0  0  0
 26 27  2  0  0  0  0
 27 25  1  0  0  0  0
 27 21  1  0  0  0  0
M  END
>  <MODEL>
3

>  <REMARK>
 VINA RESULT:      -7.3      2.645      4.491
  Name = 
  4 active torsions:
  status: ('A' for Active; 'I' for Inactive)
    1  A    between atoms: C_1  and  C_26
    2  A    between atoms: C_10  and  C_16
    3  A    between atoms: C_16  and  C_21
    4  A    between atoms: C_21  and  C_27
                            x       y       z     vdW  Elec       q    Type
                         _______ _______ _______ _____ _____    ______ ____

>  <TORSDO>
F 4

$$$$
=
 OpenBabel11062422083D

 27 31  0  0  1  0  0  0  0  0999 V2000
  188.4070  176.9320  142.1130 C   0  0  1  0  0  3  0  0  0  0  0  0
  188.3640  177.0540  143.6180 C   0  0  0  0  0  2  0  0  0  0  0  0
  190.5810  171.8790  144.2460 C   0  0  0  0  0  3  0  0  0  0  0  0
  190.2680  175.8440  142.7790 C   0  0  1  0  0  3  0  0  0  0  0  0
  189.3210  175.9280  141.7420 O   0  0  0  0  0  0  0  0  0  0  0  0
  191.4390  173.5680  141.0870 N   0  0  0  0  0  1  0  0  0  0  0  0
  189.0300  175.5360  146.3830 C   0  0  0  0  0  0  0  0  0  0  0  0
  190.5210  177.4680  144.5530 O   0  0  0  0  0  1  0  0  0  0  0  0
  189.6740  176.4760  144.0530 C   0  0  1  0  0  0  0  0  0  0  0  0
  189.0270  174.5470  147.1640 O   0  0  0  0  0  0  0  0  0  0  0  0
  191.0230  172.1130  142.9730 N   0  0  0  0  0  0  0  0  0  0  0  0
  189.5040  175.3910  145.0290 N   0  0  0  0  0  0  0  0  0  0  0  0
  190.0540  172.9260  145.0180 C   0  0  0  0  0  3  0  0  0  0  0  0
  190.4500  174.4140  143.1680 C   0  0  0  0  0  0  0  0  0  0  0  0
  190.9700  173.3580  142.4150 C   0  0  0  0  0  0  0  0  0  0  0  0
  190.0020  174.1970  144.4390 C   0  0  0  0  0  0  0  0  0  0  0  0
  187.0620  176.8460  140.1040 O   0  0  0  0  0  0  0  0  0  0  0  0
  186.4810  177.9250  140.7980 C   0  0  0  0  0  2  0  0  0  0  0  0
  187.0060  176.7290  141.5120 C   0  0  2  0  0  3  0  0  0  0  0  0
  188.5160  176.8490  146.8860 C   0  0  0  0  0  2  0  0  0  0  0  0
  187.0360  176.7710  147.2530 C   0  0  0  0  0  2  0  0  0  0  0  0
  184.6000  178.9310  144.4530 C   0  0  0  0  0  3  0  0  0  0  0  0
  185.1900  179.5980  145.5310 C   0  0  0  0  0  3  0  0  0  0  0  0
  184.8020  177.5580  144.2870 C   0  0  0  0  0  3  0  0  0  0  0  0
  185.9790  178.8910  146.4440 C   0  0  0  0  0  3  0  0  0  0  0  0
  185.5940  176.8510  145.2000 C   0  0  0  0  0  3  0  0  0  0  0  0
  186.1810  177.5160  146.2810 C   0  0  0  0  0  0  0  0  0  0  0  0
  1  2  1  1  0  0  0
  2  9  1  0  0  0  0
  3 13  1  0  0  0  0
  4  5  1  6  0  0  0
  4 14  1  0  0  0  0
  4  9  1  0  0  0  0
  5  1  1  0  0  0  0
  6 15  1  0  0  0  0
  7 20  1  0  0  0  0
  7 10  2  0  0  0  0
  9  8  1  1  0  0  0
  9 12  1  0  0  0  0
 11  3  2  0  0  0  0
 12  7  1  0  0  0  0
 14 16  1  0  0  0  0
 15 11  1  0  0  0  0
 15 14  2  0  0  0  0
 16 13  2  0  0  0  0
 16 12  1  0  0  0  0
 17 18  1  0  0  0  0
 17 19  1  0  0  0  0
 19 18  1  1  0  0  0
 19  1  1  0  0  0  0
 20 21  1  0  0  0  0
 22 23  1  0  0  0  0
 23 25  2  0  0  0  0
 24 22  2  0  0  0  0
 24 26  1  0  0  0  0
 26 27  2  0  0  0  0
 27 25  1  0  0  0  0
 27 21  1  0  0  0  0
M  END
>  <MODEL>
4

>  <REMARK>
 VINA RESULT:      -7.0      1.832      2.489
  Name = 
  4 active torsions:
  status: ('A' for Active; 'I' for Inactive)
    1  A    between atoms: C_1  and  C_26
    2  A    between atoms: C_10  and  C_16
    3  A    between atoms: C_16  and  C_21
    4  A    between atoms: C_21  and  C_27
                            x       y       z     vdW  Elec       q    Type
                         _______ _______ _______ _____ _____    ______ ____

>  <TORSDO>
F 4

$$$$
=
 OpenBabel11062422083D

 27 31  0  0  1  0  0  0  0  0999 V2000
  192.3710  176.0480  145.4460 C   0  0  1  0  0  3  0  0  0  0  0  0
  191.1410  176.7260  144.8900 C   0  0  0  0  0  2  0  0  0  0  0  0
  190.2980  172.5020  141.2100 C   0  0  0  0  0  3  0  0  0  0  0  0
  190.9920  174.3260  144.9750 C   0  0  1  0  0  3  0  0  0  0  0  0
  192.3450  174.6770  145.1250 O   0  0  0  0  0  0  0  0  0  0  0  0
  192.1260  171.5630  144.2680 N   0  0  0  0  0  1  0  0  0  0  0  0
  188.7720  176.4700  142.7190 C   0  0  0  0  0  0  0  0  0  0  0  0
  189.1230  175.7030  145.6510 O   0  0  0  0  0  1  0  0  0  0  0  0
  190.1660  175.6030  144.7270 C   0  0  1  0  0  0  0  0  0  0  0  0
  188.3030  176.2360  141.5730 O   0  0  0  0  0  0  0  0  0  0  0  0
  191.0580  171.8100  142.1120 N   0  0  0  0  0  0  0  0  0  0  0  0
  189.6460  175.5170  143.3550 N   0  0  0  0  0  0  0  0  0  0  0  0
  189.7750  173.7620  141.5420 C   0  0  0  0  0  3  0  0  0  0  0  0
  190.8180  173.5630  143.7030 C   0  0  0  0  0  0  0  0  0  0  0  0
  191.3310  172.3110  143.3530 C   0  0  0  0  0  0  0  0  0  0  0  0
  190.0600  174.2690  142.8140 C   0  0  0  0  0  0  0  0  0  0  0  0
  194.7890  175.9900  145.4020 O   0  0  0  0  0  0  0  0  0  0  0  0
  194.5380  177.1650  146.1350 C   0  0  0  0  0  2  0  0  0  0  0  0
  193.6650  176.7500  145.0040 C   0  0  2  0  0  3  0  0  0  0  0  0
  188.4170  177.7610  143.3890 C   0  0  0  0  0  2  0  0  0  0  0  0
  186.9850  178.1850  143.0700 C   0  0  0  0  0  2  0  0  0  0  0  0
  184.4420  177.8620  146.5140 C   0  0  0  0  0  3  0  0  0  0  0  0
  185.2590  176.7910  146.1430 C   0  0  0  0  0  3  0  0  0  0  0  0
  184.4510  179.0410  145.7630 C   0  0  0  0  0  3  0  0  0  0  0  0
  186.0830  176.8970  145.0170 C   0  0  0  0  0  3  0  0  0  0  0  0
  185.2780  179.1480  144.6390 C   0  0  0  0  0  3  0  0  0  0  0  0
  186.0930  178.0760  144.2630 C   0  0  0  0  0  0  0  0  0  0  0  0
  1  2  1  6  0  0  0
  3 13  2  0  0  0  0
  3 11  1  0  0  0  0
  4 14  1  6  0  0  0
  4  5  1  0  0  0  0
  5  1  1  0  0  0  0
  7 12  1  0  0  0  0
  7 20  1  0  0  0  0
  9  2  1  0  0  0  0
  9  4  1  0  0  0  0
  9  8  1  1  0  0  0
 10  7  2  0  0  0  0
 11 15  2  0  0  0  0
 12  9  1  0  0  0  0
 13 16  1  0  0  0  0
 15 14  1  0  0  0  0
 15  6  1  0  0  0  0
 16 12  1  0  0  0  0
 16 14  2  0  0  0  0
 17 18  1  0  0  0  0
 19 17  1  0  0  0  0
 19  1  1  0  0  0  0
 19 18  1  1  0  0  0
 21 20  1  0  0  0  0
 21 27  1  0  0  0  0
 23 22  1  0  0  0  0
 24 22  2  0  0  0  0
 25 23  2  0  0  0  0
 26 24  1  0  0  0  0
 27 26  2  0  0  0  0
 27 25  1  0  0  0  0
M  END
>  <MODEL>
5

>  <REMARK>
 VINA RESULT:      -7.0      2.448      4.983
  Name = 
  4 active torsions:
  status: ('A' for Active; 'I' for Inactive)
    1  A    between atoms: C_1  and  C_26
    2  A    between atoms: C_10  and  C_16
    3  A    between atoms: C_16  and  C_21
    4  A    between atoms: C_21  and  C_27
                            x       y       z     vdW  Elec       q    Type
                         _______ _______ _______ _____ _____    ______ ____

>  <TORSDO>
F 4

$$$$
=
 OpenBabel11062422083D

 27 31  0  0  1  0  0  0  0  0999 V2000
  191.9360  175.3450  143.3480 C   0  0  1  0  0  3  0  0  0  0  0  0
  190.7360  176.2610  143.3050 C   0  0  0  0  0  2  0  0  0  0  0  0
  188.4190  173.2710  139.0880 C   0  0  0  0  0  3  0  0  0  0  0  0
  190.2310  173.9500  142.8610 C   0  0  1  0  0  3  0  0  0  0  0  0
  191.6210  174.1180  142.7320 O   0  0  0  0  0  0  0  0  0  0  0  0
  190.7210  171.3810  141.2560 N   0  0  0  0  0  1  0  0  0  0  0  0
  187.9260  176.8200  141.8280 C   0  0  0  0  0  0  0  0  0  0  0  0
  188.8070  175.2690  144.3030 O   0  0  0  0  0  1  0  0  0  0  0  0
  189.5830  175.3200  143.1430 C   0  0  1  0  0  0  0  0  0  0  0  0
  187.1780  176.9460  140.8220 O   0  0  0  0  0  0  0  0  0  0  0  0
  189.2440  172.2940  139.5720 N   0  0  0  0  0  0  0  0  0  0  0  0
  188.7580  175.6520  141.9730 N   0  0  0  0  0  0  0  0  0  0  0  0
  188.1920  174.4410  139.8300 C   0  0  0  0  0  3  0  0  0  0  0  0
  189.6540  173.5740  141.5360 C   0  0  0  0  0  0  0  0  0  0  0  0
  189.8680  172.4180  140.7810 C   0  0  0  0  0  0  0  0  0  0  0  0
  188.8350  174.5610  141.0660 C   0  0  0  0  0  0  0  0  0  0  0  0
  194.2300  175.0630  142.6340 O   0  0  0  0  0  0  0  0  0  0  0  0
  194.3620  175.9970  143.6790 C   0  0  0  0  0  2  0  0  0  0  0  0
  193.1910  176.0130  142.7610 C   0  0  2  0  0  3  0  0  0  0  0  0
  187.9410  177.9130  142.8510 C   0  0  0  0  0  2  0  0  0  0  0  0
  186.5920  178.6250  142.9350 C   0  0  0  0  0  2  0  0  0  0  0  0
  184.7710  178.1750  146.7970 C   0  0  0  0  0  3  0  0  0  0  0  0
  184.0600  178.7700  145.7510 C   0  0  0  0  0  3  0  0  0  0  0  0
  186.0770  177.7260  146.5870 C   0  0  0  0  0  3  0  0  0  0  0  0
  184.6580  178.9200  144.4950 C   0  0  0  0  0  3  0  0  0  0  0  0
  186.6740  177.8730  145.3290 C   0  0  0  0  0  3  0  0  0  0  0  0
  185.9660  178.4720  144.2830 C   0  0  0  0  0  0  0  0  0  0  0  0
  1  2  1  6  0  0  0
  3 11  2  0  0  0  0
  3 13  1  0  0  0  0
  4 14  1  6  0  0  0
  4  9  1  0  0  0  0
  5  4  1  0  0  0  0
  5  1  1  0  0  0  0
  7 12  1  0  0  0  0
  7 20  1  0  0  0  0
  9  2  1  0  0  0  0
  9  8  1  1  0  0  0
 10  7  2  0  0  0  0
 11 15  1  0  0  0  0
 12  9  1  0  0  0  0
 13 16  2  0  0  0  0
 15  6  1  0  0  0  0
 15 14  2  0  0  0  0
 16 14  1  0  0  0  0
 16 12  1  0  0  0  0
 17 19  1  0  0  0  0
 17 18  1  0  0  0  0
 19  1  1  0  0  0  0
 19 18  1  1  0  0  0
 20 21  1  0  0  0  0
 21 27  1  0  0  0  0
 23 22  2  0  0  0  0
 24 22  1  0  0  0  0
 25 23  1  0  0  0  0
 26 24  2  0  0  0  0
 27 25  2  0  0  0  0
 27 26  1  0  0  0  0
M  END
>  <MODEL>
6

>  <REMARK>
 VINA RESULT:      -6.9      2.267      4.625
  Name = 
  4 active torsions:
  status: ('A' for Active; 'I' for Inactive)
    1  A    between atoms: C_1  and  C_26
    2  A    between atoms: C_10  and  C_16
    3  A    between atoms: C_16  and  C_21
    4  A    between atoms: C_21  and  C_27
                            x       y       z     vdW  Elec       q    Type
                         _______ _______ _______ _____ _____    ______ ____

>  <TORSDO>
F 4

$$$$
=
 OpenBabel11062422083D

 27 31  0  0  1  0  0  0  0  0999 V2000
  187.8580  177.5900  145.4580 C   0  0  1  0  0  3  0  0  0  0  0  0
  189.2970  177.1730  145.6520 C   0  0  0  0  0  2  0  0  0  0  0  0
  189.2180  174.1450  140.8650 C   0  0  0  0  0  3  0  0  0  0  0  0
  188.6740  177.5330  143.3550 C   0  0  1  0  0  3  0  0  0  0  0  0
  187.4920  177.4240  144.1090 O   0  0  0  0  0  0  0  0  0  0  0  0
  186.8270  176.9460  140.9760 N   0  0  0  0  0  1  0  0  0  0  0  0
  191.7130  175.4570  144.3860 C   0  0  0  0  0  0  0  0  0  0  0  0
  190.7830  178.3560  144.2050 O   0  0  0  0  0  1  0  0  0  0  0  0
  189.8820  177.2910  144.2800 C   0  0  1  0  0  0  0  0  0  0  0  0
  192.2220  174.4330  143.8550 O   0  0  0  0  0  0  0  0  0  0  0  0
  188.1750  174.9790  140.5710 N   0  0  0  0  0  0  0  0  0  0  0  0
  190.5140  176.0390  143.8390 N   0  0  0  0  0  0  0  0  0  0  0  0
  190.0640  174.4230  141.9490 C   0  0  0  0  0  3  0  0  0  0  0  0
  188.7540  176.3940  142.3930 C   0  0  0  0  0  0  0  0  0  0  0  0
  187.9220  176.0990  141.3100 C   0  0  0  0  0  0  0  0  0  0  0  0
  189.7990  175.5720  142.7020 C   0  0  0  0  0  0  0  0  0  0  0  0
  185.5980  176.8600  145.9180 O   0  0  0  0  0  0  0  0  0  0  0  0
  185.8420  177.7450  146.9850 C   0  0  0  0  0  2  0  0  0  0  0  0
  186.9140  176.8720  146.4360 C   0  0  2  0  0  3  0  0  0  0  0  0
  192.3710  176.0360  145.6000 C   0  0  0  0  0  2  0  0  0  0  0  0
  193.6170  176.8410  145.2350 C   0  0  0  0  0  2  0  0  0  0  0  0
  197.0770  174.3200  144.9030 C   0  0  0  0  0  3  0  0  0  0  0  0
  196.1970  174.1670  145.9780 C   0  0  0  0  0  3  0  0  0  0  0  0
  196.8300  175.2960  143.9340 C   0  0  0  0  0  3  0  0  0  0  0  0
  195.0740  174.9930  146.0870 C   0  0  0  0  0  3  0  0  0  0  0  0
  195.7040  176.1210  144.0400 C   0  0  0  0  0  3  0  0  0  0  0  0
  194.8260  175.9720  145.1180 C   0  0  0  0  0  0  0  0  0  0  0  0
  1  2  1  6  0  0  0
  1 19  1  0  0  0  0
  3 13  1  0  0  0  0
  4 14  1  6  0  0  0
  4  5  1  0  0  0  0
  4  9  1  0  0  0  0
  5  1  1  0  0  0  0
  6 15  1  0  0  0  0
  7 20  1  0  0  0  0
  9  8  1  6  0  0  0
  9  2  1  0  0  0  0
 10  7  2  0  0  0  0
 11  3  2  0  0  0  0
 11 15  1  0  0  0  0
 12  9  1  0  0  0  0
 12  7  1  0  0  0  0
 13 16  2  0  0  0  0
 14 16  1  0  0  0  0
 15 14  2  0  0  0  0
 16 12  1  0  0  0  0
 17 19  1  0  0  0  0
 17 18  1  0  0  0  0
 19 18  1  1  0  0  0
 21 20  1  0  0  0  0
 22 23  1  0  0  0  0
 23 25  2  0  0  0  0
 24 26  1  0  0  0  0
 24 22  2  0  0  0  0
 26 27  2  0  0  0  0
 27 21  1  0  0  0  0
 27 25  1  0  0  0  0
M  END
>  <MODEL>
7

>  <REMARK>
 VINA RESULT:      -6.8      3.712      5.757
  Name = 
  4 active torsions:
  status: ('A' for Active; 'I' for Inactive)
    1  A    between atoms: C_1  and  C_26
    2  A    between atoms: C_10  and  C_16
    3  A    between atoms: C_16  and  C_21
    4  A    between atoms: C_21  and  C_27
                            x       y       z     vdW  Elec       q    Type
                         _______ _______ _______ _____ _____    ______ ____

>  <TORSDO>
F 4

$$$$
=
 OpenBabel11062422083D

 27 31  0  0  1  0  0  0  0  0999 V2000
  192.4540  175.2240  144.2740 C   0  0  1  0  0  3  0  0  0  0  0  0
  191.1890  176.0470  144.2180 C   0  0  0  0  0  2  0  0  0  0  0  0
  189.1160  172.8430  140.0320 C   0  0  0  0  0  3  0  0  0  0  0  0
  190.8600  173.7000  143.8000 C   0  0  1  0  0  3  0  0  0  0  0  0
  192.2340  173.9710  143.6720 O   0  0  0  0  0  0  0  0  0  0  0  0
  191.5470  171.1560  142.2270 N   0  0  0  0  0  1  0  0  0  0  0  0
  188.3490  176.3760  142.7300 C   0  0  0  0  0  0  0  0  0  0  0  0
  189.3370  174.9240  145.2240 O   0  0  0  0  0  1  0  0  0  0  0  0
  190.1110  175.0200  144.0650 C   0  0  1  0  0  0  0  0  0  0  0  0
  187.5970  176.4330  141.7200 O   0  0  0  0  0  0  0  0  0  0  0  0
  190.0110  171.9360  140.5290 N   0  0  0  0  0  0  0  0  0  0  0  0
  189.2670  175.2760  142.8900 N   0  0  0  0  0  0  0  0  0  0  0  0
  188.7990  174.0010  140.7600 C   0  0  0  0  0  3  0  0  0  0  0  0
  190.3170  173.2660  142.4780 C   0  0  0  0  0  0  0  0  0  0  0  0
  190.6200  172.1200  141.7380 C   0  0  0  0  0  0  0  0  0  0  0  0
  189.4280  174.1820  141.9960 C   0  0  0  0  0  0  0  0  0  0  0  0
  194.7840  175.1260  143.6300 O   0  0  0  0  0  0  0  0  0  0  0  0
  194.7980  176.1200  144.6270 C   0  0  0  0  0  2  0  0  0  0  0  0
  193.6570  175.9780  143.6830 C   0  0  2  0  0  3  0  0  0  0  0  0
  188.2790  177.4790  143.7400 C   0  0  0  0  0  2  0  0  0  0  0  0
  187.0000  178.2990  143.5890 C   0  0  0  0  0  2  0  0  0  0  0  0
  184.6480  178.2840  147.1820 C   0  0  0  0  0  3  0  0  0  0  0  0
  184.0720  178.6650  145.9670 C   0  0  0  0  0  3  0  0  0  0  0  0
  185.9940  177.9090  147.2280 C   0  0  0  0  0  3  0  0  0  0  0  0
  184.8410  178.6740  144.7990 C   0  0  0  0  0  3  0  0  0  0  0  0
  186.7630  177.9140  146.0590 C   0  0  0  0  0  3  0  0  0  0  0  0
  186.1890  178.2990  144.8440 C   0  0  0  0  0  0  0  0  0  0  0  0
  1  2  1  6  0  0  0
  3 11  2  0  0  0  0
  3 13  1  0  0  0  0
  4 14  1  6  0  0  0
  4  9  1  0  0  0  0
  5  4  1  0  0  0  0
  5  1  1  0  0  0  0
  7 12  1  0  0  0  0
  7 20  1  0  0  0  0
  9  2  1  0  0  0  0
  9  8  1  1  0  0  0
 10  7  2  0  0  0  0
 11 15  1  0  0  0  0
 12  9  1  0  0  0  0
 13 16  2  0  0  0  0
 15  6  1  0  0  0  0
 15 14  2  0  0  0  0
 16 14  1  0  0  0  0
 16 12  1  0  0  0  0
 17 19  1  0  0  0  0
 17 18  1  0  0  0  0
 19  1  1  0  0  0  0
 19 18  1  1  0  0  0
 21 20  1  0  0  0  0
 21 27  1  0  0  0  0
 22 24  1  0  0  0  0
 23 22  2  0  0  0  0
 25 27  2  0  0  0  0
 25 23  1  0  0  0  0
 26 24  2  0  0  0  0
 27 26  1  0  0  0  0
M  END
>  <MODEL>
8

>  <REMARK>
 VINA RESULT:      -6.6      2.315      4.761
  Name = 
  4 active torsions:
  status: ('A' for Active; 'I' for Inactive)
    1  A    between atoms: C_1  and  C_26
    2  A    between atoms: C_10  and  C_16
    3  A    between atoms: C_16  and  C_21
    4  A    between atoms: C_21  and  C_27
                            x       y       z     vdW  Elec       q    Type
                         _______ _______ _______ _____ _____    ______ ____

>  <TORSDO>
F 4

$$$$
=
 OpenBabel11062422083D

 27 31  0  0  1  0  0  0  0  0999 V2000
  189.5850  175.7720  142.4210 C   0  0  1  0  0  3  0  0  0  0  0  0
  190.5960  176.0690  143.5040 C   0  0  0  0  0  2  0  0  0  0  0  0
  192.4620  170.7210  143.4330 C   0  0  0  0  0  3  0  0  0  0  0  0
  191.3540  174.4950  141.8490 C   0  0  1  0  0  3  0  0  0  0  0  0
  189.9580  174.6040  141.7290 O   0  0  0  0  0  0  0  0  0  0  0  0
  190.9590  171.8880  140.2790 N   0  0  0  0  0  1  0  0  0  0  0  0
  192.9340  174.7920  145.3180 C   0  0  0  0  0  0  0  0  0  0  0  0
  192.8150  176.2520  142.6410 O   0  0  0  0  0  1  0  0  0  0  0  0
  191.8250  175.3510  143.0410 C   0  0  1  0  0  0  0  0  0  0  0  0
  193.4380  173.9110  146.0640 O   0  0  0  0  0  0  0  0  0  0  0  0
  191.9120  170.7390  142.1820 N   0  0  0  0  0  0  0  0  0  0  0  0
  192.3380  174.4230  144.0580 N   0  0  0  0  0  0  0  0  0  0  0  0
  192.6480  171.9170  144.1440 C   0  0  0  0  0  3  0  0  0  0  0  0
  191.7070  173.1070  142.2740 C   0  0  0  0  0  0  0  0  0  0  0  0
  191.5290  171.9050  141.5840 C   0  0  0  0  0  0  0  0  0  0  0  0
  192.2530  173.1080  143.5250 C   0  0  0  0  0  0  0  0  0  0  0  0
  187.2900  175.1190  142.0250 O   0  0  0  0  0  0  0  0  0  0  0  0
  187.1740  176.5130  142.1790 C   0  0  0  0  0  2  0  0  0  0  0  0
  188.1510  175.7190  142.9730 C   0  0  2  0  0  3  0  0  0  0  0  0
  192.9530  176.2170  145.7760 C   0  0  0  0  0  2  0  0  0  0  0  0
  192.2870  176.3780  147.1410 C   0  0  0  0  0  2  0  0  0  0  0  0
  188.0150  176.0520  146.8600 C   0  0  0  0  0  3  0  0  0  0  0  0
  188.6450  177.2710  146.5940 C   0  0  0  0  0  3  0  0  0  0  0  0
  188.7770  174.9370  147.2190 C   0  0  0  0  0  3  0  0  0  0  0  0
  190.0370  177.3760  146.6920 C   0  0  0  0  0  3  0  0  0  0  0  0
  190.1700  175.0410  147.3130 C   0  0  0  0  0  3  0  0  0  0  0  0
  190.8010  176.2610  147.0520 C   0  0  0  0  0  0  0  0  0  0  0  0
  1 19  1  0  0  0  0
  1  2  1  1  0  0  0
  3 13  1  0  0  0  0
  4  5  1  1  0  0  0
  4 14  1  0  0  0  0
  4  9  1  0  0  0  0
  5  1  1  0  0  0  0
  6 15  1  0  0  0  0
  7 20  1  0  0  0  0
  7 10  2  0  0  0  0
  9  8  1  6  0  0  0
  9  2  1  0  0  0  0
  9 12  1  0  0  0  0
 11  3  2  0  0  0  0
 12  7  1  0  0  0  0
 14 16  1  0  0  0  0
 15 11  1  0  0  0  0
 15 14  2  0  0  0  0
 16 12  1  0  0  0  0
 16 13  2  0  0  0  0
 17 18  1  0  0  0  0
 17 19  1  0  0  0  0
 19 18  1  6  0  0  0
 20 21  1  0  0  0  0
 22 24  1  0  0  0  0
 23 25  1  0  0  0  0
 23 22  2  0  0  0  0
 24 26  2  0  0  0  0
 25 27  2  0  0  0  0
 27 21  1  0  0  0  0
 27 26  1  0  0  0  0
M  END
>  <MODEL>
9

>  <REMARK>
 VINA RESULT:      -6.4      2.753      3.906
  Name = 
  4 active torsions:
  status: ('A' for Active; 'I' for Inactive)
    1  A    between atoms: C_1  and  C_26
    2  A    between atoms: C_10  and  C_16
    3  A    between atoms: C_16  and  C_21
    4  A    between atoms: C_21  and  C_27
                            x       y       z     vdW  Elec       q    Type
                         _______ _______ _______ _____ _____    ______ ____

>  <TORSDO>
F 4

$$$$
