=
 OpenBabel11072409073D

 57 66  0  0  1  0  0  0  0  0999 V2000
  191.0400  172.4100  142.5100 C   0  0  2  0  0  0  0  0  0  0  0  0
  191.6040  171.8490  143.6690 O   0  0  0  0  0  1  0  0  0  0  0  0
  190.1650  173.8040  144.3810 C   0  0  1  0  0  0  0  0  0  0  0  0
  189.0220  173.5440  145.1330 O   0  0  0  0  0  1  0  0  0  0  0  0
  191.9650  175.3870  144.5780 O   0  0  0  0  0  0  0  0  0  0  0  0
  189.9200  174.8450  143.2180 C   0  0  2  0  0  0  0  0  0  0  0  0
  190.8710  175.4000  142.1610 C   0  0  0  0  0  1  0  0  0  0  0  0
  188.8670  178.0220  147.5060 F   0  0  0  0  0  0  0  0  0  0  0  0
  189.3470  177.3730  144.6570 O   0  0  0  0  0  0  0  0  0  0  0  0
  187.9710  177.2510  146.7790 C   0  0  2  0  0  0  0  0  0  0  0  0
  189.8610  176.2970  145.4040 C   0  0  2  0  0  0  0  0  0  0  0  0
  190.5650  175.2500  144.5360 C   0  0  1  0  0  0  0  0  0  0  0  0
  192.2260  176.4370  145.4820 C   0  0  0  0  0  2  0  0  0  0  0  0
  188.5340  176.0200  146.0910 C   0  0  2  0  0  3  0  0  0  0  0  0
  190.9820  176.7390  146.2990 C   0  0  0  0  0  2  0  0  0  0  0  0
  189.8610  173.3210  142.9860 C   0  0  1  0  0  3  0  0  0  0  0  0
  188.0810  177.2270  145.2670 C   0  0  2  0  0  0  0  0  0  0  0  0
  185.9480  179.2500  142.6720 O   0  0  0  0  0  0  0  0  0  0  0  0
  186.7180  177.8890  140.8770 N   0  0  0  0  0  0  0  0  0  0  0  0
  184.4840  177.5290  144.5340 F   0  0  0  0  0  0  0  0  0  0  0  0
  187.0430  177.0600  142.9290 C   0  0  0  0  0  0  0  0  0  0  0  0
  186.8210  177.0170  144.4100 C   0  0  2  0  0  3  0  0  0  0  0  0
  187.4690  176.1000  142.1880 N   0  0  0  0  0  0  0  0  0  0  0  0
  185.9160  179.4020  144.0960 C   0  0  0  0  0  2  0  0  0  0  0  0
  185.7380  178.0420  144.8130 C   0  0  1  0  0  3  0  0  0  0  0  0
  187.3490  176.5650  140.8000 C   0  0  0  0  0  2  0  0  0  0  0  0
  186.5720  178.1320  142.1280 C   0  0  0  0  0  0  0  0  0  0  0  0
  186.6990  177.0270  147.3260 O   0  0  0  0  0  0  0  0  0  0  0  0
  186.3680  178.1860  148.0360 C   0  0  0  0  0  1  0  0  0  0  0  0
  192.2420  169.4120  140.8800 C   0  0  0  0  0  2  0  0  0  0  0  0
  191.3280  169.9370  142.0120 C   0  0  0  0  0  2  0  0  0  0  0  0
  192.6370  170.4510  139.9430 N   0  0  0  0  0  0  0  0  0  0  0  0
  189.5680  172.4950  139.6150 C   0  0  0  0  0  1  0  0  0  0  0  0
  191.8070  171.3540  139.5470 C   0  0  0  0  0  3  0  0  0  0  0  0
  190.4340  171.3670  140.1330 C   0  0  1  0  0  3  0  0  0  0  0  0
  190.5160  171.2110  141.6670 C   0  0  2  0  0  3  0  0  0  0  0  0
  192.0580  173.1440  141.7310 N   0  0  0  0  0  2  0  0  0  0  0  0
  193.4100  173.0250  142.2710 C   0  0  0  0  0  2  0  0  0  0  0  0
  194.3390  173.9780  141.5360 C   0  0  1  0  0  3  0  0  0  0  0  0
  196.1580  174.9890  137.5570 O   0  0  0  0  0  0  0  0  0  0  0  0
  193.8020  175.1560  137.8280 C   0  0  2  0  0  3  0  0  0  0  0  0
  195.8690  174.6030  138.8470 C   0  0  0  0  0  0  0  0  0  0  0  0
  196.7490  174.2380  139.6690 O   0  0  0  0  0  0  0  0  0  0  0  0
  194.9770  175.3560  136.8490 C   0  0  0  0  0  2  0  0  0  0  0  0
  193.7650  174.4320  140.2200 C   0  0  0  0  0  3  0  0  0  0  0  0
  194.4440  174.6820  139.0910 C   0  0  0  0  0  0  0  0  0  0  0  0
  192.8490  174.1370  137.2890 C   0  0  0  0  0  0  0  0  0  0  0  0
  193.3020  173.0530  136.8320 O   0  0  0  0  0  0  0  0  0  0  0  0
  191.4770  174.3950  137.2820 O   0  0  0  0  0  0  0  0  0  0  0  0
  190.7300  174.4360  136.0750 C   0  0  0  0  0  1  0  0  0  0  0  0
  194.7540  175.1380  142.4320 C   0  0  0  0  0  2  0  0  0  0  0  0
  196.3260  174.3140  145.7670 C   0  0  0  0  0  3  0  0  0  0  0  0
  195.7380  174.6980  143.4620 C   0  0  0  0  0  0  0  0  0  0  0  0
  195.3830  174.7010  144.8130 C   0  0  0  0  0  3  0  0  0  0  0  0
  197.0280  174.3150  143.0830 C   0  0  0  0  0  3  0  0  0  0  0  0
  197.5760  173.9410  145.3790 N   0  0  0  0  0  0  0  0  0  0  0  0
  197.9410  173.9330  144.0670 C   0  0  0  0  0  3  0  0  0  0  0  0
  1 16  1  0  0  0  0
  1  2  1  1  0  0  0
  3 12  1  0  0  0  0
  3  4  1  1  0  0  0
  5 13  1  0  0  0  0
  6  7  1  6  0  0  0
  6  3  1  0  0  0  0
  6 12  1  0  0  0  0
  9 17  1  0  0  0  0
  9 11  1  0  0  0  0
 10 28  1  0  0  0  0
 10  8  1  1  0  0  0
 11 14  1  0  0  0  0
 11 15  1  1  0  0  0
 12  5  1  6  0  0  0
 12 11  1  0  0  0  0
 13 15  1  0  0  0  0
 14 10  1  0  0  0  0
 16  6  1  0  0  0  0
 16  3  1  0  0  0  0
 17 14  1  0  0  0  0
 17 10  1  0  0  0  0
 18 24  1  0  0  0  0
 19 27  2  0  0  0  0
 20 25  1  0  0  0  0
 21 22  1  0  0  0  0
 22 25  1  0  0  0  0
 22 17  1  0  0  0  0
 23 21  2  0  0  0  0
 24 25  1  0  0  0  0
 26 19  1  0  0  0  0
 26 23  1  0  0  0  0
 27 18  1  0  0  0  0
 27 21  1  0  0  0  0
 28 29  1  0  0  0  0
 30 31  1  0  0  0  0
 32 30  1  0  0  0  0
 33 35  1  0  0  0  0
 34 32  2  0  0  0  0
 34 35  1  0  0  0  0
 35 36  1  0  0  0  0
 36 31  1  0  0  0  0
 36  1  1  0  0  0  0
 37 38  1  0  0  0  0
 37  1  1  0  0  0  0
 39 38  1  0  0  0  0
 39 51  1  0  0  0  0
 40 42  1  0  0  0  0
 41 46  1  0  0  0  0
 42 46  1  0  0  0  0
 42 43  2  0  0  0  0
 44 40  1  0  0  0  0
 44 41  1  0  0  0  0
 45 39  1  0  0  0  0
 46 45  2  0  0  0  0
 47 41  1  0  0  0  0
 48 47  2  0  0  0  0
 49 47  1  0  0  0  0
 50 49  1  0  0  0  0
 51 53  1  0  0  0  0
 53 54  1  0  0  0  0
 54 52  2  0  0  0  0
 55 53  2  0  0  0  0
 55 57  1  0  0  0  0
 56 52  1  0  0  0  0
 57 56  2  0  0  0  0
M  END
>  <MODEL>
1

>  <REMARK>
 VINA RESULT:      -7.7      0.000      0.000
  Name = 
  12 active torsions:
  status: ('A' for Active; 'I' for Inactive)
    1  A    between atoms: C_10  and  C_12
    2  A    between atoms: C_12  and  C_23
    3  A    between atoms: O_20  and  C_24
    4  A    between atoms: C_22  and  C_39
    5  A    between atoms: C_23  and  C_31
    6  A    between atoms: C_23  and  C_44
    7  A    between atoms: C_26  and  C_46
    8  A    between atoms: C_26  and  C_48
    9  A    between atoms: C_26  and  N_51
   10  A    between atoms: C_31  and  N_51
   11  A    between atoms: O_33  and  C_39
   12  A    between atoms: C_37  and  C_50
                            x       y       z     vdW  Elec       q    Type
                         _______ _______ _______ _____ _____    ______ ____

>  <TORSDO>
F 12

$$$$
=
 OpenBabel11072409073D

 57 66  0  0  1  0  0  0  0  0999 V2000
  191.0950  171.6890  142.0450 C   0  0  2  0  0  0  0  0  0  0  0  0
  191.6350  171.0420  143.1700 O   0  0  0  0  0  1  0  0  0  0  0  0
  190.5820  173.3440  143.8360 C   0  0  1  0  0  0  0  0  0  0  0  0
  189.5730  173.2340  144.7900 O   0  0  0  0  0  1  0  0  0  0  0  0
  192.4340  174.8480  143.5340 O   0  0  0  0  0  0  0  0  0  0  0  0
  190.1770  174.2440  142.6030 C   0  0  2  0  0  0  0  0  0  0  0  0
  190.9540  174.6180  141.3430 C   0  0  0  0  0  1  0  0  0  0  0  0
  189.9410  177.9720  146.5570 F   0  0  0  0  0  0  0  0  0  0  0  0
  189.9230  176.9550  143.7770 O   0  0  0  0  0  0  0  0  0  0  0  0
  188.9150  177.1630  146.0900 C   0  0  2  0  0  0  0  0  0  0  0  0
  190.5230  175.9550  144.5630 C   0  0  2  0  0  0  0  0  0  0  0  0
  191.0430  174.7760  143.7360 C   0  0  1  0  0  0  0  0  0  0  0  0
  192.8710  175.9870  144.2410 C   0  0  0  0  0  2  0  0  0  0  0  0
  189.3210  175.8300  145.4860 C   0  0  2  0  0  3  0  0  0  0  0  0
  191.7890  176.4480  145.2020 C   0  0  0  0  0  2  0  0  0  0  0  0
  190.0380  172.7080  142.5820 C   0  0  1  0  0  3  0  0  0  0  0  0
  188.7720  176.9470  144.5960 C   0  0  2  0  0  0  0  0  0  0  0  0
  185.9960  178.9860  142.7220 O   0  0  0  0  0  0  0  0  0  0  0  0
  186.4800  177.8850  140.6670 N   0  0  0  0  0  0  0  0  0  0  0  0
  185.0890  176.9590  144.6300 F   0  0  0  0  0  0  0  0  0  0  0  0
  187.2880  176.9010  142.5070 C   0  0  0  0  0  0  0  0  0  0  0  0
  187.3820  176.6960  143.9880 C   0  0  2  0  0  3  0  0  0  0  0  0
  187.6230  176.0630  141.5920 N   0  0  0  0  0  0  0  0  0  0  0  0
  186.2480  178.9990  144.1330 C   0  0  0  0  0  2  0  0  0  0  0  0
  186.3300  177.5650  144.7110 C   0  0  1  0  0  3  0  0  0  0  0  0
  187.1820  176.6450  140.3180 C   0  0  0  0  0  2  0  0  0  0  0  0
  186.5780  177.9930  141.9420 C   0  0  0  0  0  0  0  0  0  0  0  0
  187.7460  177.0700  146.8590 O   0  0  0  0  0  0  0  0  0  0  0  0
  187.7780  175.8110  147.4690 C   0  0  0  0  0  1  0  0  0  0  0  0
  191.8120  168.4370  140.6300 C   0  0  0  0  0  2  0  0  0  0  0  0
  190.9280  169.1850  141.6560 C   0  0  0  0  0  2  0  0  0  0  0  0
  192.4820  169.3320  139.7000 N   0  0  0  0  0  0  0  0  0  0  0  0
  189.9160  171.9130  139.0260 C   0  0  0  0  0  1  0  0  0  0  0  0
  191.8830  170.3570  139.2000 C   0  0  0  0  0  3  0  0  0  0  0  0
  190.4950  170.6650  139.6570 C   0  0  1  0  0  3  0  0  0  0  0  0
  190.4170  170.5730  141.1960 C   0  0  2  0  0  3  0  0  0  0  0  0
  192.1580  172.3300  141.2440 N   0  0  0  0  0  2  0  0  0  0  0  0
  193.5030  172.1110  141.7710 C   0  0  0  0  0  2  0  0  0  0  0  0
  194.4720  173.0840  141.1180 C   0  0  1  0  0  3  0  0  0  0  0  0
  196.4050  176.9710  142.2620 O   0  0  0  0  0  0  0  0  0  0  0  0
  197.2430  174.9470  143.1850 C   0  0  2  0  0  3  0  0  0  0  0  0
  195.6260  175.9480  141.7710 C   0  0  0  0  0  0  0  0  0  0  0  0
  194.6610  176.1340  140.9840 O   0  0  0  0  0  0  0  0  0  0  0  0
  197.4260  176.4780  143.1240 C   0  0  0  0  0  2  0  0  0  0  0  0
  195.6180  173.4420  142.0250 C   0  0  0  0  0  3  0  0  0  0  0  0
  196.0790  174.6740  142.2880 C   0  0  0  0  0  0  0  0  0  0  0  0
  196.9570  174.5160  144.5880 C   0  0  0  0  0  0  0  0  0  0  0  0
  196.1010  175.1480  145.2630 O   0  0  0  0  0  0  0  0  0  0  0  0
  197.6460  173.4350  145.1440 O   0  0  0  0  0  0  0  0  0  0  0  0
  196.9660  172.3540  145.7650 C   0  0  0  0  0  1  0  0  0  0  0  0
  194.9330  172.5680  139.7600 C   0  0  0  0  0  2  0  0  0  0  0  0
  195.6550  175.1600  137.1080 C   0  0  0  0  0  3  0  0  0  0  0  0
  194.7410  173.5980  138.7000 C   0  0  0  0  0  0  0  0  0  0  0  0
  195.8510  174.1750  138.0770 C   0  0  0  0  0  3  0  0  0  0  0  0
  193.4540  174.0160  138.3500 C   0  0  0  0  0  3  0  0  0  0  0  0
  194.3940  175.5500  136.7780 N   0  0  0  0  0  0  0  0  0  0  0  0
  193.3000  175.0020  137.3740 C   0  0  0  0  0  3  0  0  0  0  0  0
  1 16  1  0  0  0  0
  1  2  1  1  0  0  0
  3  4  1  1  0  0  0
  5 13  1  0  0  0  0
  6  7  1  6  0  0  0
  6 12  1  0  0  0  0
  6  3  1  0  0  0  0
  9 11  1  0  0  0  0
  9 17  1  0  0  0  0
 10  8  1  1  0  0  0
 10 28  1  0  0  0  0
 11 15  1  1  0  0  0
 11 14  1  0  0  0  0
 12  5  1  6  0  0  0
 12  3  1  0  0  0  0
 12 11  1  0  0  0  0
 13 15  1  0  0  0  0
 14 10  1  0  0  0  0
 16  6  1  0  0  0  0
 16  3  1  0  0  0  0
 17 14  1  0  0  0  0
 17 10  1  0  0  0  0
 18 24  1  0  0  0  0
 19 27  2  0  0  0  0
 20 25  1  0  0  0  0
 21 22  1  0  0  0  0
 22 17  1  0  0  0  0
 22 25  1  0  0  0  0
 23 21  2  0  0  0  0
 24 25  1  0  0  0  0
 26 19  1  0  0  0  0
 26 23  1  0  0  0  0
 27 21  1  0  0  0  0
 27 18  1  0  0  0  0
 28 29  1  0  0  0  0
 30 31  1  0  0  0  0
 32 30  1  0  0  0  0
 33 35  1  0  0  0  0
 34 35  1  0  0  0  0
 34 32  2  0  0  0  0
 35 36  1  0  0  0  0
 36 31  1  0  0  0  0
 36  1  1  0  0  0  0
 37 38  1  0  0  0  0
 37  1  1  0  0  0  0
 39 38  1  0  0  0  0
 39 45  1  0  0  0  0
 40 44  1  0  0  0  0
 41 47  1  0  0  0  0
 42 40  1  0  0  0  0
 42 46  1  0  0  0  0
 43 42  2  0  0  0  0
 44 41  1  0  0  0  0
 45 46  2  0  0  0  0
 46 41  1  0  0  0  0
 47 49  1  0  0  0  0
 47 48  2  0  0  0  0
 49 50  1  0  0  0  0
 51 39  1  0  0  0  0
 52 54  1  0  0  0  0
 53 51  1  0  0  0  0
 54 53  2  0  0  0  0
 55 53  1  0  0  0  0
 56 52  2  0  0  0  0
 56 57  1  0  0  0  0
 57 55  2  0  0  0  0
M  END
>  <MODEL>
2

>  <REMARK>
 VINA RESULT:      -7.6      1.847      4.057
  Name = 
  12 active torsions:
  status: ('A' for Active; 'I' for Inactive)
    1  A    between atoms: C_10  and  C_12
    2  A    between atoms: C_12  and  C_23
    3  A    between atoms: O_20  and  C_24
    4  A    between atoms: C_22  and  C_39
    5  A    between atoms: C_23  and  C_31
    6  A    between atoms: C_23  and  C_44
    7  A    between atoms: C_26  and  C_46
    8  A    between atoms: C_26  and  C_48
    9  A    between atoms: C_26  and  N_51
   10  A    between atoms: C_31  and  N_51
   11  A    between atoms: O_33  and  C_39
   12  A    between atoms: C_37  and  C_50
                            x       y       z     vdW  Elec       q    Type
                         _______ _______ _______ _____ _____    ______ ____

>  <TORSDO>
F 12

$$$$
=
 OpenBabel11072409073D

 57 66  0  0  1  0  0  0  0  0999 V2000
  191.4250  171.8270  143.0250 C   0  0  2  0  0  0  0  0  0  0  0  0
  191.7720  171.1850  144.2260 O   0  0  0  0  0  1  0  0  0  0  0  0
  190.5150  173.4310  144.7000 C   0  0  1  0  0  0  0  0  0  0  0  0
  189.3520  173.2650  145.4480 O   0  0  0  0  0  1  0  0  0  0  0  0
  192.3230  175.0160  144.7610 O   0  0  0  0  0  0  0  0  0  0  0  0
  190.3080  174.3320  143.4200 C   0  0  2  0  0  0  0  0  0  0  0  0
  191.2890  174.7570  142.3310 C   0  0  0  0  0  1  0  0  0  0  0  0
  189.1750  177.9870  147.2870 F   0  0  0  0  0  0  0  0  0  0  0  0
  189.7210  177.0120  144.5450 O   0  0  0  0  0  0  0  0  0  0  0  0
  188.2910  177.1420  146.6310 C   0  0  2  0  0  0  0  0  0  0  0  0
  190.2070  176.0260  145.4230 C   0  0  2  0  0  0  0  0  0  0  0  0
  190.9230  174.8830  144.6990 C   0  0  1  0  0  0  0  0  0  0  0  0
  192.5700  176.1610  145.5450 C   0  0  0  0  0  2  0  0  0  0  0  0
  188.8610  175.8370  146.1030 C   0  0  2  0  0  3  0  0  0  0  0  0
  191.3090  176.5620  146.2900 C   0  0  0  0  0  2  0  0  0  0  0  0
  190.2420  172.7920  143.3630 C   0  0  1  0  0  3  0  0  0  0  0  0
  188.4390  176.9440  145.1340 C   0  0  2  0  0  0  0  0  0  0  0  0
  186.4580  178.6110  142.1900 O   0  0  0  0  0  0  0  0  0  0  0  0
  187.2330  176.9690  140.6500 N   0  0  0  0  0  0  0  0  0  0  0  0
  184.8780  177.2390  144.2390 F   0  0  0  0  0  0  0  0  0  0  0  0
  187.4670  176.4540  142.8140 C   0  0  0  0  0  0  0  0  0  0  0  0
  187.1990  176.6440  144.2760 C   0  0  2  0  0  3  0  0  0  0  0  0
  187.8800  175.3790  142.2430 N   0  0  0  0  0  0  0  0  0  0  0  0
  186.3880  178.9800  143.5730 C   0  0  0  0  0  2  0  0  0  0  0  0
  186.1410  177.7510  144.4800 C   0  0  1  0  0  3  0  0  0  0  0  0
  187.8190  175.6310  140.7970 C   0  0  0  0  0  2  0  0  0  0  0  0
  187.0580  177.4050  141.8440 C   0  0  0  0  0  0  0  0  0  0  0  0
  187.0050  176.9890  147.1670 O   0  0  0  0  0  0  0  0  0  0  0  0
  186.7050  178.1920  147.8160 C   0  0  0  0  0  1  0  0  0  0  0  0
  192.8040  169.2040  140.9490 C   0  0  0  0  0  2  0  0  0  0  0  0
  191.9170  169.4810  142.1860 C   0  0  0  0  0  2  0  0  0  0  0  0
  193.0370  170.3900  140.1410 N   0  0  0  0  0  0  0  0  0  0  0  0
  189.7700  172.1290  140.2450 C   0  0  0  0  0  1  0  0  0  0  0  0
  192.1000  171.2450  139.9120 C   0  0  0  0  0  3  0  0  0  0  0  0
  190.7720  171.0400  140.5630 C   0  0  1  0  0  3  0  0  0  0  0  0
  190.9660  170.6980  142.0560 C   0  0  2  0  0  3  0  0  0  0  0  0
  192.5900  172.5230  142.4430 N   0  0  0  0  0  2  0  0  0  0  0  0
  193.8310  172.3130  143.1850 C   0  0  0  0  0  2  0  0  0  0  0  0
  194.9990  172.2370  142.2140 C   0  0  1  0  0  3  0  0  0  0  0  0
  197.1710  174.5820  139.0620 O   0  0  0  0  0  0  0  0  0  0  0  0
  197.2840  175.3040  141.3240 C   0  0  2  0  0  3  0  0  0  0  0  0
  196.4060  173.7110  139.8040 C   0  0  0  0  0  0  0  0  0  0  0  0
  195.7880  172.7370  139.3010 O   0  0  0  0  0  0  0  0  0  0  0  0
  197.7600  175.5850  139.8830 C   0  0  0  0  0  2  0  0  0  0  0  0
  195.8510  173.4780  142.2490 C   0  0  0  0  0  3  0  0  0  0  0  0
  196.4290  174.0850  141.2030 C   0  0  0  0  0  0  0  0  0  0  0  0
  196.4990  176.4660  141.8440 C   0  0  0  0  0  0  0  0  0  0  0  0
  195.6350  177.0060  141.1030 O   0  0  0  0  0  0  0  0  0  0  0  0
  196.7370  176.9520  143.1320 O   0  0  0  0  0  0  0  0  0  0  0  0
  195.9160  176.5890  144.2320 C   0  0  0  0  0  1  0  0  0  0  0  0
  195.8050  170.9610  142.4260 C   0  0  0  0  0  2  0  0  0  0  0  0
  194.9760  169.2660  145.6990 C   0  0  0  0  0  3  0  0  0  0  0  0
  195.8320  170.5750  143.8660 C   0  0  0  0  0  0  0  0  0  0  0  0
  194.9580  169.5940  144.3430 C   0  0  0  0  0  3  0  0  0  0  0  0
  196.7050  171.2160  144.7490 C   0  0  0  0  0  3  0  0  0  0  0  0
  195.8370  169.8980  146.5430 N   0  0  0  0  0  0  0  0  0  0  0  0
  196.6940  170.8580  146.0980 C   0  0  0  0  0  3  0  0  0  0  0  0
  1 16  1  0  0  0  0
  1  2  1  1  0  0  0
  3  4  1  1  0  0  0
  5 13  1  0  0  0  0
  6  7  1  6  0  0  0
  6 12  1  0  0  0  0
  6  3  1  0  0  0  0
  9 17  1  0  0  0  0
  9 11  1  0  0  0  0
 10 28  1  0  0  0  0
 10  8  1  1  0  0  0
 11 14  1  0  0  0  0
 11 15  1  1  0  0  0
 12  3  1  0  0  0  0
 12  5  1  6  0  0  0
 12 11  1  0  0  0  0
 13 15  1  0  0  0  0
 14 10  1  0  0  0  0
 16  6  1  0  0  0  0
 16  3  1  0  0  0  0
 17 14  1  0  0  0  0
 17 10  1  0  0  0  0
 18 24  1  0  0  0  0
 19 26  1  0  0  0  0
 19 27  2  0  0  0  0
 20 25  1  0  0  0  0
 21 22  1  0  0  0  0
 22 25  1  0  0  0  0
 22 17  1  0  0  0  0
 23 21  2  0  0  0  0
 24 25  1  0  0  0  0
 26 23  1  0  0  0  0
 27 18  1  0  0  0  0
 27 21  1  0  0  0  0
 28 29  1  0  0  0  0
 30 31  1  0  0  0  0
 32 30  1  0  0  0  0
 33 35  1  0  0  0  0
 34 32  2  0  0  0  0
 34 35  1  0  0  0  0
 35 36  1  0  0  0  0
 36 31  1  0  0  0  0
 36  1  1  0  0  0  0
 37  1  1  0  0  0  0
 37 38  1  0  0  0  0
 39 45  1  0  0  0  0
 39 51  1  0  0  0  0
 39 38  1  0  0  0  0
 40 42  1  0  0  0  0
 40 44  1  0  0  0  0
 41 47  1  0  0  0  0
 42 46  1  0  0  0  0
 43 42  2  0  0  0  0
 44 41  1  0  0  0  0
 46 41  1  0  0  0  0
 46 45  2  0  0  0  0
 47 49  1  0  0  0  0
 48 47  2  0  0  0  0
 49 50  1  0  0  0  0
 51 53  1  0  0  0  0
 52 56  1  0  0  0  0
 53 54  1  0  0  0  0
 53 55  2  0  0  0  0
 54 52  2  0  0  0  0
 55 57  1  0  0  0  0
 57 56  2  0  0  0  0
M  END
>  <MODEL>
3

>  <REMARK>
 VINA RESULT:      -7.6      1.857      2.884
  Name = 
  12 active torsions:
  status: ('A' for Active; 'I' for Inactive)
    1  A    between atoms: C_10  and  C_12
    2  A    between atoms: C_12  and  C_23
    3  A    between atoms: O_20  and  C_24
    4  A    between atoms: C_22  and  C_39
    5  A    between atoms: C_23  and  C_31
    6  A    between atoms: C_23  and  C_44
    7  A    between atoms: C_26  and  C_46
    8  A    between atoms: C_26  and  C_48
    9  A    between atoms: C_26  and  N_51
   10  A    between atoms: C_31  and  N_51
   11  A    between atoms: O_33  and  C_39
   12  A    between atoms: C_37  and  C_50
                            x       y       z     vdW  Elec       q    Type
                         _______ _______ _______ _____ _____    ______ ____

>  <TORSDO>
F 12

$$$$
=
 OpenBabel11072409073D

 57 66  0  0  1  0  0  0  0  0999 V2000
  189.6830  173.7960  141.6540 C   0  0  2  0  0  0  0  0  0  0  0  0
  189.5660  174.7460  140.6250 O   0  0  0  0  0  1  0  0  0  0  0  0
  191.8000  175.0580  142.0180 C   0  0  1  0  0  0  0  0  0  0  0  0
  192.9310  175.0160  141.2050 O   0  0  0  0  0  1  0  0  0  0  0  0
  191.1340  176.4310  143.8770 O   0  0  0  0  0  0  0  0  0  0  0  0
  191.9060  174.1130  143.2790 C   0  0  2  0  0  0  0  0  0  0  0  0
  190.9140  173.8400  144.4060 C   0  0  0  0  0  1  0  0  0  0  0  0
  196.0010  177.5250  144.3650 F   0  0  0  0  0  0  0  0  0  0  0  0
  194.0670  175.3460  144.8910 O   0  0  0  0  0  0  0  0  0  0  0  0
  196.0560  176.3260  143.6690 C   0  0  2  0  0  0  0  0  0  0  0  0
  193.5470  176.0900  143.8170 C   0  0  2  0  0  0  0  0  0  0  0  0
  192.1620  175.6100  143.3740 C   0  0  1  0  0  0  0  0  0  0  0  0
  191.7770  177.4680  144.5830 C   0  0  0  0  0  2  0  0  0  0  0  0
  194.7860  175.8920  142.9590 C   0  0  2  0  0  3  0  0  0  0  0  0
  193.2520  177.5050  144.2240 C   0  0  0  0  0  2  0  0  0  0  0  0
  191.2080  173.6730  141.9750 C   0  0  1  0  0  3  0  0  0  0  0  0
  195.2780  175.1350  144.1950 C   0  0  2  0  0  0  0  0  0  0  0  0
  196.4270  172.0360  146.3040 O   0  0  0  0  0  0  0  0  0  0  0  0
  194.4620  170.8250  145.7200 N   0  0  0  0  0  0  0  0  0  0  0  0
  197.9080  172.5810  143.8370 F   0  0  0  0  0  0  0  0  0  0  0  0
  194.9120  172.6110  144.4500 C   0  0  0  0  0  0  0  0  0  0  0  0
  195.7970  173.7090  143.9440 C   0  0  2  0  0  3  0  0  0  0  0  0
  193.8770  172.1270  143.8640 N   0  0  0  0  0  0  0  0  0  0  0  0
  197.2000  173.2130  146.0400 C   0  0  0  0  0  2  0  0  0  0  0  0
  197.2180  173.5590  144.5320 C   0  0  1  0  0  3  0  0  0  0  0  0
  193.4590  170.9640  144.6580 C   0  0  0  0  0  2  0  0  0  0  0  0
  195.2730  171.8070  145.5620 C   0  0  0  0  0  0  0  0  0  0  0  0
  197.2100  176.0490  142.9220 O   0  0  0  0  0  0  0  0  0  0  0  0
  196.8980  176.3530  141.5930 C   0  0  0  0  0  1  0  0  0  0  0  0
  190.8010  170.5030  140.6560 C   0  0  0  0  0  2  0  0  0  0  0  0
  189.9080  171.2670  141.6620 C   0  0  0  0  0  2  0  0  0  0  0  0
  191.2140  171.3230  139.5290 N   0  0  0  0  0  0  0  0  0  0  0  0
  188.1900  173.3340  138.8050 C   0  0  0  0  0  1  0  0  0  0  0  0
  190.4010  172.1480  138.9620 C   0  0  0  0  0  3  0  0  0  0  0  0
  189.0340  172.3120  139.5370 C   0  0  1  0  0  3  0  0  0  0  0  0
  189.1240  172.4650  141.0700 C   0  0  2  0  0  3  0  0  0  0  0  0
  188.8760  174.1880  142.8280 N   0  0  0  0  0  2  0  0  0  0  0  0
  187.5060  174.5710  142.4970 C   0  0  0  0  0  2  0  0  0  0  0  0
  187.2050  175.9430  143.0790 C   0  0  1  0  0  3  0  0  0  0  0  0
  186.3940  177.4670  147.2240 O   0  0  0  0  0  0  0  0  0  0  0  0
  188.6380  177.0360  146.5680 C   0  0  2  0  0  3  0  0  0  0  0  0
  186.3550  176.9920  145.9320 C   0  0  0  0  0  0  0  0  0  0  0  0
  185.2860  176.8380  145.2870 O   0  0  0  0  0  0  0  0  0  0  0  0
  187.7310  177.5450  147.7080 C   0  0  0  0  0  2  0  0  0  0  0  0
  188.0880  176.2710  144.2530 C   0  0  0  0  0  3  0  0  0  0  0  0
  187.6930  176.7070  145.4580 C   0  0  0  0  0  0  0  0  0  0  0  0
  189.3940  175.8240  147.0120 C   0  0  0  0  0  0  0  0  0  0  0  0
  188.7620  174.7630  147.2630 O   0  0  0  0  0  0  0  0  0  0  0  0
  190.7810  175.8790  147.1600 O   0  0  0  0  0  0  0  0  0  0  0  0
  191.3960  176.6640  148.1710 C   0  0  0  0  0  1  0  0  0  0  0  0
  187.2380  177.0160  141.9960 C   0  0  0  0  0  2  0  0  0  0  0  0
  184.2170  178.3100  140.1350 C   0  0  0  0  0  3  0  0  0  0  0  0
  185.8700  177.5290  141.7050 C   0  0  0  0  0  0  0  0  0  0  0  0
  185.4910  177.8010  140.3880 C   0  0  0  0  0  3  0  0  0  0  0  0
  184.9740  177.7740  142.7500 C   0  0  0  0  0  3  0  0  0  0  0  0
  183.3560  178.5370  141.1650 N   0  0  0  0  0  0  0  0  0  0  0  0
  183.7070  178.2820  142.4550 C   0  0  0  0  0  3  0  0  0  0  0  0
  1  2  1  6  0  0  0
  1 16  1  0  0  0  0
  1 37  1  0  0  0  0
  3  4  1  6  0  0  0
  3  6  1  0  0  0  0
  3 12  1  0  0  0  0
  5 13  1  0  0  0  0
  6 12  1  0  0  0  0
  6  7  1  1  0  0  0
 10 17  1  0  0  0  0
 10  8  1  1  0  0  0
 11 15  1  1  0  0  0
 11  9  1  0  0  0  0
 12 11  1  0  0  0  0
 12  5  1  1  0  0  0
 14 10  1  0  0  0  0
 14 11  1  0  0  0  0
 14 17  1  0  0  0  0
 15 13  1  0  0  0  0
 16  3  1  0  0  0  0
 16  6  1  0  0  0  0
 17  9  1  0  0  0  0
 20 25  1  0  0  0  0
 21 27  1  0  0  0  0
 22 17  1  0  0  0  0
 22 21  1  0  0  0  0
 22 25  1  0  0  0  0
 23 21  2  0  0  0  0
 23 26  1  0  0  0  0
 24 18  1  0  0  0  0
 25 24  1  0  0  0  0
 26 19  1  0  0  0  0
 27 19  2  0  0  0  0
 27 18  1  0  0  0  0
 28 10  1  0  0  0  0
 29 28  1  0  0  0  0
 30 31  1  0  0  0  0
 32 30  1  0  0  0  0
 33 35  1  0  0  0  0
 34 32  2  0  0  0  0
 34 35  1  0  0  0  0
 35 36  1  0  0  0  0
 36  1  1  0  0  0  0
 36 31  1  0  0  0  0
 38 37  1  0  0  0  0
 38 39  1  0  0  0  0
 39 45  1  0  0  0  0
 40 44  1  0  0  0  0
 41 47  1  0  0  0  0
 41 44  1  0  0  0  0
 42 40  1  0  0  0  0
 43 42  2  0  0  0  0
 45 46  2  0  0  0  0
 46 42  1  0  0  0  0
 46 41  1  0  0  0  0
 47 49  1  0  0  0  0
 47 48  2  0  0  0  0
 49 50  1  0  0  0  0
 51 39  1  0  0  0  0
 52 54  2  0  0  0  0
 52 56  1  0  0  0  0
 53 51  1  0  0  0  0
 53 55  2  0  0  0  0
 54 53  1  0  0  0  0
 56 57  2  0  0  0  0
 57 55  1  0  0  0  0
M  END
>  <MODEL>
4

>  <REMARK>
 VINA RESULT:      -7.6      3.075      9.010
  Name = 
  12 active torsions:
  status: ('A' for Active; 'I' for Inactive)
    1  A    between atoms: C_10  and  C_12
    2  A    between atoms: C_12  and  C_23
    3  A    between atoms: O_20  and  C_24
    4  A    between atoms: C_22  and  C_39
    5  A    between atoms: C_23  and  C_31
    6  A    between atoms: C_23  and  C_44
    7  A    between atoms: C_26  and  C_46
    8  A    between atoms: C_26  and  C_48
    9  A    between atoms: C_26  and  N_51
   10  A    between atoms: C_31  and  N_51
   11  A    between atoms: O_33  and  C_39
   12  A    between atoms: C_37  and  C_50
                            x       y       z     vdW  Elec       q    Type
                         _______ _______ _______ _____ _____    ______ ____

>  <TORSDO>
F 12

$$$$
=
 OpenBabel11072409073D

 57 66  0  0  1  0  0  0  0  0999 V2000
  192.8860  174.2910  144.7460 C   0  0  2  0  0  0  0  0  0  0  0  0
  193.7720  174.4070  143.6610 O   0  0  0  0  0  1  0  0  0  0  0  0
  191.1490  175.0720  143.1390 C   0  0  1  0  0  0  0  0  0  0  0  0
  191.1240  176.3060  142.4930 O   0  0  0  0  0  1  0  0  0  0  0  0
  189.8710  173.0470  142.9140 O   0  0  0  0  0  0  0  0  0  0  0  0
  190.2330  175.0250  144.4250 C   0  0  2  0  0  0  0  0  0  0  0  0
  189.9740  173.9010  145.4250 C   0  0  0  0  0  1  0  0  0  0  0  0
  186.4250  175.8850  140.6370 F   0  0  0  0  0  0  0  0  0  0  0  0
  187.4880  175.2730  143.3310 O   0  0  0  0  0  0  0  0  0  0  0  0
  187.1210  176.8340  141.3710 C   0  0  2  0  0  0  0  0  0  0  0  0
  188.5340  175.0240  142.4240 C   0  0  2  0  0  0  0  0  0  0  0  0
  189.7800  174.4400  143.0950 C   0  0  1  0  0  0  0  0  0  0  0  0
  188.7750  172.6890  142.1030 C   0  0  0  0  0  2  0  0  0  0  0  0
  188.5030  176.4350  141.8600 C   0  0  2  0  0  3  0  0  0  0  0  0
  188.1750  173.9280  141.4630 C   0  0  0  0  0  2  0  0  0  0  0  0
  191.7430  175.3300  144.5000 C   0  0  1  0  0  3  0  0  0  0  0  0
  187.3490  176.5940  142.8520 C   0  0  2  0  0  0  0  0  0  0  0  0
  186.0780  177.5780  146.4280 O   0  0  0  0  0  0  0  0  0  0  0  0
  188.2690  177.3700  147.3370 N   0  0  0  0  0  0  0  0  0  0  0  0
  186.1430  179.7040  144.4150 F   0  0  0  0  0  0  0  0  0  0  0  0
  188.1540  177.5070  145.1070 C   0  0  0  0  0  0  0  0  0  0  0  0
  187.4520  177.7890  143.8140 C   0  0  2  0  0  3  0  0  0  0  0  0
  189.4240  177.4900  145.3040 N   0  0  0  0  0  0  0  0  0  0  0  0
  185.3080  177.6040  145.2200 C   0  0  0  0  0  2  0  0  0  0  0  0
  186.0440  178.3630  144.0900 C   0  0  1  0  0  3  0  0  0  0  0  0
  189.6150  177.3460  146.7530 C   0  0  0  0  0  2  0  0  0  0  0  0
  187.4610  177.4550  146.3440 C   0  0  0  0  0  0  0  0  0  0  0  0
  187.0650  178.1690  140.9460 O   0  0  0  0  0  0  0  0  0  0  0  0
  185.7810  178.3600  140.4260 C   0  0  0  0  0  1  0  0  0  0  0  0
  193.7580  177.1580  146.7720 C   0  0  0  0  0  2  0  0  0  0  0  0
  193.0090  175.8040  146.7810 C   0  0  0  0  0  2  0  0  0  0  0  0
  194.6410  177.3100  145.6280 N   0  0  0  0  0  0  0  0  0  0  0  0
  196.0780  173.9230  145.2240 C   0  0  0  0  0  1  0  0  0  0  0  0
  195.3590  176.3310  145.1960 C   0  0  0  0  0  3  0  0  0  0  0  0
  195.2100  174.9960  145.8450 C   0  0  1  0  0  3  0  0  0  0  0  0
  193.7130  174.6580  146.0130 C   0  0  2  0  0  3  0  0  0  0  0  0
  192.3890  172.9060  144.8740 N   0  0  0  0  0  2  0  0  0  0  0  0
  193.4310  171.8920  144.7290 C   0  0  0  0  0  2  0  0  0  0  0  0
  193.0200  170.8860  143.6650 C   0  0  1  0  0  3  0  0  0  0  0  0
  190.7920  170.2660  139.8170 O   0  0  0  0  0  0  0  0  0  0  0  0
  192.6690  171.7240  139.8450 C   0  0  2  0  0  3  0  0  0  0  0  0
  191.2660  170.2930  141.1100 C   0  0  0  0  0  0  0  0  0  0  0  0
  190.7420  169.6390  142.0480 O   0  0  0  0  0  0  0  0  0  0  0  0
  191.5740  171.0920  138.9610 C   0  0  0  0  0  2  0  0  0  0  0  0
  193.1890  171.4290  142.2720 C   0  0  0  0  0  3  0  0  0  0  0  0
  192.4190  171.1630  141.2070 C   0  0  0  0  0  0  0  0  0  0  0  0
  192.5380  173.2140  139.8420 C   0  0  0  0  0  0  0  0  0  0  0  0
  191.3950  173.7320  139.9630 O   0  0  0  0  0  0  0  0  0  0  0  0
  193.6710  174.0170  139.6900 O   0  0  0  0  0  0  0  0  0  0  0  0
  194.9810  173.4700  139.6930 C   0  0  0  0  0  1  0  0  0  0  0  0
  193.7290  169.5530  143.8700 C   0  0  0  0  0  2  0  0  0  0  0  0
  197.3970  170.2810  144.4040 C   0  0  0  0  0  3  0  0  0  0  0  0
  195.0520  169.7430  144.5310 C   0  0  0  0  0  0  0  0  0  0  0  0
  196.1600  170.1360  143.7760 C   0  0  0  0  0  3  0  0  0  0  0  0
  195.1960  169.4950  145.8990 C   0  0  0  0  0  3  0  0  0  0  0  0
  197.5180  170.0390  145.7380 N   0  0  0  0  0  0  0  0  0  0  0  0
  196.4510  169.6520  146.4900 C   0  0  0  0  0  3  0  0  0  0  0  0
  1  2  1  6  0  0  0
  1 37  1  0  0  0  0
  1 36  1  0  0  0  0
  3  4  1  6  0  0  0
  3  6  1  0  0  0  0
  3 16  1  0  0  0  0
  6 16  1  0  0  0  0
  6  7  1  6  0  0  0
 10  8  1  6  0  0  0
 10 14  1  0  0  0  0
 10 17  1  0  0  0  0
 11 15  1  6  0  0  0
 11 12  1  0  0  0  0
 11  9  1  0  0  0  0
 12  5  1  6  0  0  0
 12  3  1  0  0  0  0
 12  6  1  0  0  0  0
 13  5  1  0  0  0  0
 14 11  1  0  0  0  0
 14 17  1  0  0  0  0
 15 13  1  0  0  0  0
 16  1  1  0  0  0  0
 17  9  1  0  0  0  0
 17 22  1  0  0  0  0
 21 23  2  0  0  0  0
 21 27  1  0  0  0  0
 22 25  1  0  0  0  0
 22 21  1  0  0  0  0
 23 26  1  0  0  0  0
 24 18  1  0  0  0  0
 25 20  1  0  0  0  0
 25 24  1  0  0  0  0
 26 19  1  0  0  0  0
 27 18  1  0  0  0  0
 27 19  2  0  0  0  0
 28 10  1  0  0  0  0
 29 28  1  0  0  0  0
 30 31  1  0  0  0  0
 32 30  1  0  0  0  0
 33 35  1  0  0  0  0
 34 32  2  0  0  0  0
 34 35  1  0  0  0  0
 35 36  1  0  0  0  0
 36 31  1  0  0  0  0
 38 37  1  0  0  0  0
 39 51  1  0  0  0  0
 39 38  1  0  0  0  0
 40 42  1  0  0  0  0
 41 46  1  0  0  0  0
 42 46  1  0  0  0  0
 42 43  2  0  0  0  0
 44 40  1  0  0  0  0
 44 41  1  0  0  0  0
 45 39  1  0  0  0  0
 46 45  2  0  0  0  0
 47 41  1  0  0  0  0
 47 48  2  0  0  0  0
 49 50  1  0  0  0  0
 49 47  1  0  0  0  0
 51 53  1  0  0  0  0
 52 56  1  0  0  0  0
 53 55  2  0  0  0  0
 54 52  2  0  0  0  0
 54 53  1  0  0  0  0
 55 57  1  0  0  0  0
 56 57  2  0  0  0  0
M  END
>  <MODEL>
5

>  <REMARK>
 VINA RESULT:      -7.5      2.566      5.261
  Name = 
  12 active torsions:
  status: ('A' for Active; 'I' for Inactive)
    1  A    between atoms: C_10  and  C_12
    2  A    between atoms: C_12  and  C_23
    3  A    between atoms: O_20  and  C_24
    4  A    between atoms: C_22  and  C_39
    5  A    between atoms: C_23  and  C_31
    6  A    between atoms: C_23  and  C_44
    7  A    between atoms: C_26  and  C_46
    8  A    between atoms: C_26  and  C_48
    9  A    between atoms: C_26  and  N_51
   10  A    between atoms: C_31  and  N_51
   11  A    between atoms: O_33  and  C_39
   12  A    between atoms: C_37  and  C_50
                            x       y       z     vdW  Elec       q    Type
                         _______ _______ _______ _____ _____    ______ ____

>  <TORSDO>
F 12

$$$$
=
 OpenBabel11072409073D

 57 66  0  0  1  0  0  0  0  0999 V2000
  193.3320  174.5760  144.1090 C   0  0  2  0  0  0  0  0  0  0  0  0
  194.0790  174.9800  142.9890 O   0  0  0  0  0  1  0  0  0  0  0  0
  191.4060  175.4920  142.8200 C   0  0  1  0  0  0  0  0  0  0  0  0
  191.2120  176.8260  142.4700 O   0  0  0  0  0  1  0  0  0  0  0  0
  190.3130  173.4360  142.2170 O   0  0  0  0  0  0  0  0  0  0  0  0
  190.6030  175.0650  144.1110 C   0  0  2  0  0  0  0  0  0  0  0  0
  190.5340  173.7290  144.8450 C   0  0  0  0  0  1  0  0  0  0  0  0
  186.4420  176.3040  140.8340 F   0  0  0  0  0  0  0  0  0  0  0  0
  187.7700  175.2400  143.2570 O   0  0  0  0  0  0  0  0  0  0  0  0
  187.1020  177.1400  141.7230 C   0  0  2  0  0  0  0  0  0  0  0  0
  188.7590  175.3130  142.2600 C   0  0  2  0  0  0  0  0  0  0  0  0
  190.1050  174.7380  142.7110 C   0  0  1  0  0  0  0  0  0  0  0  0
  189.1960  173.1450  141.4080 C   0  0  0  0  0  2  0  0  0  0  0  0
  188.5490  176.8010  142.0310 C   0  0  2  0  0  3  0  0  0  0  0  0
  188.4320  174.4200  141.0990 C   0  0  0  0  0  2  0  0  0  0  0  0
  192.0790  175.5110  144.1680 C   0  0  1  0  0  3  0  0  0  0  0  0
  187.4670  176.6100  143.0960 C   0  0  2  0  0  0  0  0  0  0  0  0
  186.4660  176.6160  146.8870 O   0  0  0  0  0  0  0  0  0  0  0  0
  188.7470  176.5090  147.5600 N   0  0  0  0  0  0  0  0  0  0  0  0
  186.0830  179.1170  145.4130 F   0  0  0  0  0  0  0  0  0  0  0  0
  188.3910  177.1110  145.4340 C   0  0  0  0  0  0  0  0  0  0  0  0
  187.5330  177.5710  144.2960 C   0  0  2  0  0  3  0  0  0  0  0  0
  189.6680  177.2210  145.5270 N   0  0  0  0  0  0  0  0  0  0  0  0
  185.5780  176.8010  145.7770 C   0  0  0  0  0  2  0  0  0  0  0  0
  186.1050  177.8780  144.7990 C   0  0  1  0  0  3  0  0  0  0  0  0
  190.0210  176.7920  146.8870 C   0  0  0  0  0  2  0  0  0  0  0  0
  187.8380  176.6990  146.6740 C   0  0  0  0  0  0  0  0  0  0  0  0
  186.8850  178.5210  141.6130 O   0  0  0  0  0  0  0  0  0  0  0  0
  185.5240  178.6830  141.3320 C   0  0  0  0  0  1  0  0  0  0  0  0
  194.1610  177.1180  146.5460 C   0  0  0  0  0  2  0  0  0  0  0  0
  193.5410  175.7110  146.3700 C   0  0  0  0  0  2  0  0  0  0  0  0
  194.8970  177.5640  145.3740 N   0  0  0  0  0  0  0  0  0  0  0  0
  196.5770  174.4750  144.2170 C   0  0  0  0  0  1  0  0  0  0  0  0
  195.6480  176.7590  144.7040 C   0  0  0  0  0  3  0  0  0  0  0  0
  195.6900  175.3220  145.1040 C   0  0  1  0  0  3  0  0  0  0  0  0
  194.2570  174.8000  145.3410 C   0  0  2  0  0  3  0  0  0  0  0  0
  192.9800  173.1450  144.0200 N   0  0  0  0  0  2  0  0  0  0  0  0
  193.6370  172.3140  145.0260 C   0  0  0  0  0  2  0  0  0  0  0  0
  194.3900  171.1840  144.3430 C   0  0  1  0  0  3  0  0  0  0  0  0
  194.3430  168.2280  140.9640 O   0  0  0  0  0  0  0  0  0  0  0  0
  194.3870  170.5520  140.4670 C   0  0  2  0  0  3  0  0  0  0  0  0
  194.3280  168.9000  142.1650 C   0  0  0  0  0  0  0  0  0  0  0  0
  194.2930  168.3170  143.2800 O   0  0  0  0  0  0  0  0  0  0  0  0
  194.3890  169.1320  139.8650 C   0  0  0  0  0  2  0  0  0  0  0  0
  194.3920  171.3250  142.8440 C   0  0  0  0  0  3  0  0  0  0  0  0
  194.3570  170.3310  141.9450 C   0  0  0  0  0  0  0  0  0  0  0  0
  193.1800  171.3060  140.0080 C   0  0  0  0  0  0  0  0  0  0  0  0
  193.3180  172.2360  139.1690 O   0  0  0  0  0  0  0  0  0  0  0  0
  191.9190  170.9870  140.5170 O   0  0  0  0  0  0  0  0  0  0  0  0
  190.8900  170.4600  139.6930 C   0  0  0  0  0  1  0  0  0  0  0  0
  195.7910  171.0300  144.9240 C   0  0  0  0  0  2  0  0  0  0  0  0
  197.0180  168.6930  147.6260 C   0  0  0  0  0  3  0  0  0  0  0  0
  195.8050  170.0420  146.0400 C   0  0  0  0  0  0  0  0  0  0  0  0
  197.0200  169.6410  146.6020 C   0  0  0  0  0  3  0  0  0  0  0  0
  194.6080  169.4900  146.5050 C   0  0  0  0  0  3  0  0  0  0  0  0
  195.8420  168.1680  148.0680 N   0  0  0  0  0  0  0  0  0  0  0  0
  194.6480  168.5450  147.5320 C   0  0  0  0  0  3  0  0  0  0  0  0
  1  2  1  6  0  0  0
  1 16  1  0  0  0  0
  1 36  1  0  0  0  0
  3  4  1  6  0  0  0
  3  6  1  0  0  0  0
  3 16  1  0  0  0  0
  6 16  1  0  0  0  0
  6  7  1  6  0  0  0
 10  8  1  6  0  0  0
 10 14  1  0  0  0  0
 10 17  1  0  0  0  0
 11 15  1  6  0  0  0
 11 12  1  0  0  0  0
 11  9  1  0  0  0  0
 12  5  1  6  0  0  0
 12  3  1  0  0  0  0
 12  6  1  0  0  0  0
 13  5  1  0  0  0  0
 14 11  1  0  0  0  0
 14 17  1  0  0  0  0
 15 13  1  0  0  0  0
 17  9  1  0  0  0  0
 17 22  1  0  0  0  0
 21 23  2  0  0  0  0
 21 27  1  0  0  0  0
 22 25  1  0  0  0  0
 22 21  1  0  0  0  0
 23 26  1  0  0  0  0
 24 18  1  0  0  0  0
 25 20  1  0  0  0  0
 25 24  1  0  0  0  0
 26 19  1  0  0  0  0
 27 18  1  0  0  0  0
 27 19  2  0  0  0  0
 28 10  1  0  0  0  0
 29 28  1  0  0  0  0
 31 30  1  0  0  0  0
 32 30  1  0  0  0  0
 33 35  1  0  0  0  0
 34 35  1  0  0  0  0
 34 32  2  0  0  0  0
 35 36  1  0  0  0  0
 36 31  1  0  0  0  0
 37  1  1  0  0  0  0
 37 38  1  0  0  0  0
 39 51  1  0  0  0  0
 39 38  1  0  0  0  0
 40 42  1  0  0  0  0
 41 46  1  0  0  0  0
 42 43  2  0  0  0  0
 44 41  1  0  0  0  0
 44 40  1  0  0  0  0
 45 39  1  0  0  0  0
 46 42  1  0  0  0  0
 46 45  2  0  0  0  0
 47 41  1  0  0  0  0
 47 49  1  0  0  0  0
 48 47  2  0  0  0  0
 50 49  1  0  0  0  0
 51 53  1  0  0  0  0
 52 56  1  0  0  0  0
 53 55  2  0  0  0  0
 53 54  1  0  0  0  0
 54 52  2  0  0  0  0
 55 57  1  0  0  0  0
 57 56  2  0  0  0  0
M  END
>  <MODEL>
6

>  <REMARK>
 VINA RESULT:      -7.4      2.934      5.450
  Name = 
  12 active torsions:
  status: ('A' for Active; 'I' for Inactive)
    1  A    between atoms: C_10  and  C_12
    2  A    between atoms: C_12  and  C_23
    3  A    between atoms: O_20  and  C_24
    4  A    between atoms: C_22  and  C_39
    5  A    between atoms: C_23  and  C_31
    6  A    between atoms: C_23  and  C_44
    7  A    between atoms: C_26  and  C_46
    8  A    between atoms: C_26  and  C_48
    9  A    between atoms: C_26  and  N_51
   10  A    between atoms: C_31  and  N_51
   11  A    between atoms: O_33  and  C_39
   12  A    between atoms: C_37  and  C_50
                            x       y       z     vdW  Elec       q    Type
                         _______ _______ _______ _____ _____    ______ ____

>  <TORSDO>
F 12

$$$$
=
 OpenBabel11072409073D

 57 66  0  0  1  0  0  0  0  0999 V2000
  193.7510  175.8520  143.4420 C   0  0  2  0  0  0  0  0  0  0  0  0
  194.0930  176.2700  142.1450 O   0  0  0  0  0  1  0  0  0  0  0  0
  191.5220  176.4980  142.5350 C   0  0  1  0  0  0  0  0  0  0  0  0
  191.0450  177.7970  142.3750 O   0  0  0  0  0  1  0  0  0  0  0  0
  190.7300  174.3350  141.8400 O   0  0  0  0  0  0  0  0  0  0  0  0
  191.0110  175.8070  143.8600 C   0  0  2  0  0  0  0  0  0  0  0  0
  191.2900  174.4200  144.4330 C   0  0  0  0  0  1  0  0  0  0  0  0
  186.2510  176.5240  141.3280 F   0  0  0  0  0  0  0  0  0  0  0  0
  188.0950  175.5140  143.4120 O   0  0  0  0  0  0  0  0  0  0  0  0
  186.8790  177.3850  142.2160 C   0  0  2  0  0  0  0  0  0  0  0  0
  188.8940  175.8670  142.3100 C   0  0  2  0  0  0  0  0  0  0  0  0
  190.3720  175.5210  142.5090 C   0  0  1  0  0  0  0  0  0  0  0  0
  189.5730  173.9110  141.1560 C   0  0  0  0  0  2  0  0  0  0  0  0
  188.3930  177.3020  142.2890 C   0  0  2  0  0  3  0  0  0  0  0  0
  188.5580  175.0390  141.1030 C   0  0  0  0  0  2  0  0  0  0  0  0
  192.3770  176.5200  143.7760 C   0  0  1  0  0  3  0  0  0  0  0  0
  187.5350  176.8100  143.4570 C   0  0  2  0  0  0  0  0  0  0  0  0
  186.5190  176.4670  147.2280 O   0  0  0  0  0  0  0  0  0  0  0  0
  188.7970  176.2620  147.8920 N   0  0  0  0  0  0  0  0  0  0  0  0
  186.1800  179.1030  146.0000 F   0  0  0  0  0  0  0  0  0  0  0  0
  188.4570  177.0700  145.8340 C   0  0  0  0  0  0  0  0  0  0  0  0
  187.6100  177.6500  144.7430 C   0  0  2  0  0  3  0  0  0  0  0  0
  189.7350  177.1510  145.9400 N   0  0  0  0  0  0  0  0  0  0  0  0
  185.6390  176.7710  146.1390 C   0  0  0  0  0  2  0  0  0  0  0  0
  186.1850  177.9290  145.2690 C   0  0  1  0  0  3  0  0  0  0  0  0
  190.0770  176.5890  147.2530 C   0  0  0  0  0  2  0  0  0  0  0  0
  187.8930  176.5490  147.0280 C   0  0  0  0  0  0  0  0  0  0  0  0
  186.4080  178.7030  142.3010 O   0  0  0  0  0  0  0  0  0  0  0  0
  185.0670  178.6660  141.9050 C   0  0  0  0  0  1  0  0  0  0  0  0
  197.2110  175.2180  144.2900 C   0  0  0  0  0  2  0  0  0  0  0  0
  196.2470  176.2570  143.6660 C   0  0  0  0  0  2  0  0  0  0  0  0
  196.5180  174.1700  145.0200 N   0  0  0  0  0  0  0  0  0  0  0  0
  193.7610  175.9920  146.6880 C   0  0  0  0  0  1  0  0  0  0  0  0
  195.4990  174.4280  145.7660 C   0  0  0  0  0  3  0  0  0  0  0  0
  194.9810  175.8270  145.8070 C   0  0  1  0  0  3  0  0  0  0  0  0
  194.8760  176.3910  144.3740 C   0  0  2  0  0  3  0  0  0  0  0  0
  193.7120  174.3780  143.5290 N   0  0  0  0  0  2  0  0  0  0  0  0
  194.1550  173.7060  142.3100 C   0  0  0  0  0  2  0  0  0  0  0  0
  194.0120  172.2020  142.4750 C   0  0  1  0  0  3  0  0  0  0  0  0
  190.4420  169.7850  141.2230 O   0  0  0  0  0  0  0  0  0  0  0  0
  192.1870  170.1680  139.6550 C   0  0  2  0  0  3  0  0  0  0  0  0
  191.3880  170.5640  141.8510 C   0  0  0  0  0  0  0  0  0  0  0  0
  191.2720  170.9620  143.0390 O   0  0  0  0  0  0  0  0  0  0  0  0
  190.8270  169.4760  139.8870 C   0  0  0  0  0  2  0  0  0  0  0  0
  193.6210  171.5210  141.1900 C   0  0  0  0  0  3  0  0  0  0  0  0
  192.4910  170.8390  140.9550 C   0  0  0  0  0  0  0  0  0  0  0  0
  192.0750  171.1650  138.5450 C   0  0  0  0  0  0  0  0  0  0  0  0
  192.7960  171.0270  137.5210 O   0  0  0  0  0  0  0  0  0  0  0  0
  191.1910  172.2400  138.6560 O   0  0  0  0  0  0  0  0  0  0  0  0
  191.3730  173.4380  137.9140 C   0  0  0  0  0  1  0  0  0  0  0  0
  195.2620  171.5990  143.1060 C   0  0  0  0  0  2  0  0  0  0  0  0
  194.1420  168.3070  144.5820 C   0  0  0  0  0  3  0  0  0  0  0  0
  194.9090  170.5380  144.0920 C   0  0  0  0  0  0  0  0  0  0  0  0
  194.4980  169.2790  143.6460 C   0  0  0  0  0  3  0  0  0  0  0  0
  194.9530  170.8090  145.4630 C   0  0  0  0  0  3  0  0  0  0  0  0
  194.1950  168.5880  145.9120 N   0  0  0  0  0  0  0  0  0  0  0  0
  194.5910  169.8090  146.3670 C   0  0  0  0  0  3  0  0  0  0  0  0
  1  2  1  6  0  0  0
  1 37  1  0  0  0  0
  1 16  1  0  0  0  0
  1 36  1  0  0  0  0
  3  4  1  1  0  0  0
  3 16  1  0  0  0  0
  3  6  1  0  0  0  0
  6  7  1  6  0  0  0
  9 17  1  0  0  0  0
 10  8  1  6  0  0  0
 10 14  1  0  0  0  0
 10 28  1  0  0  0  0
 10 17  1  0  0  0  0
 11 15  1  6  0  0  0
 11 12  1  0  0  0  0
 11  9  1  0  0  0  0
 12  5  1  6  0  0  0
 12  3  1  0  0  0  0
 12  6  1  0  0  0  0
 13  5  1  0  0  0  0
 14 11  1  0  0  0  0
 14 17  1  0  0  0  0
 15 13  1  0  0  0  0
 16  6  1  0  0  0  0
 17 22  1  0  0  0  0
 21 23  2  0  0  0  0
 21 27  1  0  0  0  0
 22 25  1  0  0  0  0
 22 21  1  0  0  0  0
 23 26  1  0  0  0  0
 24 18  1  0  0  0  0
 25 20  1  0  0  0  0
 25 24  1  0  0  0  0
 26 19  1  0  0  0  0
 27 18  1  0  0  0  0
 27 19  2  0  0  0  0
 29 28  1  0  0  0  0
 30 32  1  0  0  0  0
 31 30  1  0  0  0  0
 31 36  1  0  0  0  0
 32 34  2  0  0  0  0
 34 35  1  0  0  0  0
 35 33  1  0  0  0  0
 36 35  1  0  0  0  0
 38 39  1  0  0  0  0
 38 37  1  0  0  0  0
 39 51  1  0  0  0  0
 40 42  1  0  0  0  0
 41 44  1  0  0  0  0
 41 46  1  0  0  0  0
 42 43  2  0  0  0  0
 44 40  1  0  0  0  0
 45 39  1  0  0  0  0
 46 45  2  0  0  0  0
 46 42  1  0  0  0  0
 47 49  1  0  0  0  0
 47 41  1  0  0  0  0
 48 47  2  0  0  0  0
 50 49  1  0  0  0  0
 51 53  1  0  0  0  0
 52 56  1  0  0  0  0
 53 55  2  0  0  0  0
 54 53  1  0  0  0  0
 54 52  2  0  0  0  0
 55 57  1  0  0  0  0
 56 57  2  0  0  0  0
M  END
>  <MODEL>
7

>  <REMARK>
 VINA RESULT:      -7.3      2.438      5.266
  Name = 
  12 active torsions:
  status: ('A' for Active; 'I' for Inactive)
    1  A    between atoms: C_10  and  C_12
    2  A    between atoms: C_12  and  C_23
    3  A    between atoms: O_20  and  C_24
    4  A    between atoms: C_22  and  C_39
    5  A    between atoms: C_23  and  C_31
    6  A    between atoms: C_23  and  C_44
    7  A    between atoms: C_26  and  C_46
    8  A    between atoms: C_26  and  C_48
    9  A    between atoms: C_26  and  N_51
   10  A    between atoms: C_31  and  N_51
   11  A    between atoms: O_33  and  C_39
   12  A    between atoms: C_37  and  C_50
                            x       y       z     vdW  Elec       q    Type
                         _______ _______ _______ _____ _____    ______ ____

>  <TORSDO>
F 12

$$$$
=
 OpenBabel11072409073D

 57 66  0  0  1  0  0  0  0  0999 V2000
  192.0510  172.5950  142.9930 C   0  0  2  0  0  0  0  0  0  0  0  0
  193.0950  173.3170  143.5960 O   0  0  0  0  0  1  0  0  0  0  0  0
  190.8230  173.8840  144.7370 C   0  0  1  0  0  0  0  0  0  0  0  0
  189.6450  173.4930  145.3690 O   0  0  0  0  0  1  0  0  0  0  0  0
  192.3940  175.6690  145.0970 O   0  0  0  0  0  0  0  0  0  0  0  0
  190.5840  174.8830  143.5380 C   0  0  2  0  0  0  0  0  0  0  0  0
  191.5700  175.5420  142.5770 C   0  0  0  0  0  1  0  0  0  0  0  0
  188.7130  177.9310  147.6360 F   0  0  0  0  0  0  0  0  0  0  0  0
  189.5680  177.3310  144.8660 O   0  0  0  0  0  0  0  0  0  0  0  0
  187.9960  177.0560  146.8320 C   0  0  2  0  0  0  0  0  0  0  0  0
  190.1220  176.3270  145.6800 C   0  0  2  0  0  0  0  0  0  0  0  0
  191.0320  175.3670  144.9090 C   0  0  1  0  0  0  0  0  0  0  0  0
  192.4320  176.7460  146.0060 C   0  0  0  0  0  2  0  0  0  0  0  0
  188.7710  175.8970  146.2280 C   0  0  2  0  0  3  0  0  0  0  0  0
  191.0810  176.9020  146.6820 C   0  0  0  0  0  2  0  0  0  0  0  0
  190.7290  173.3620  143.3260 C   0  0  1  0  0  3  0  0  0  0  0  0
  188.2700  177.0390  145.3400 C   0  0  2  0  0  0  0  0  0  0  0  0
  186.5430  178.5930  142.1820 O   0  0  0  0  0  0  0  0  0  0  0  0
  187.5470  176.9750  140.7530 N   0  0  0  0  0  0  0  0  0  0  0  0
  184.8150  177.1690  144.0700 F   0  0  0  0  0  0  0  0  0  0  0  0
  187.5720  176.4870  142.9370 C   0  0  0  0  0  0  0  0  0  0  0  0
  187.1420  176.6780  144.3590 C   0  0  2  0  0  3  0  0  0  0  0  0
  188.0890  175.4280  142.4260 N   0  0  0  0  0  0  0  0  0  0  0  0
  186.3100  178.9700  143.5450 C   0  0  0  0  0  2  0  0  0  0  0  0
  186.0220  177.7380  144.4370 C   0  0  1  0  0  3  0  0  0  0  0  0
  188.1710  175.6660  140.9780 C   0  0  0  0  0  2  0  0  0  0  0  0
  187.2280  177.4120  141.9170 C   0  0  0  0  0  0  0  0  0  0  0  0
  186.7090  176.6850  147.2450 O   0  0  0  0  0  0  0  0  0  0  0  0
  186.2060  177.7650  147.9780 C   0  0  0  0  0  1  0  0  0  0  0  0
  194.3830  170.0990  144.1870 C   0  0  0  0  0  2  0  0  0  0  0  0
  193.2710  171.0820  144.6260 C   0  0  0  0  0  2  0  0  0  0  0  0
  194.4170  169.8900  142.7490 N   0  0  0  0  0  0  0  0  0  0  0  0
  190.8330  169.8180  141.8260 C   0  0  0  0  0  1  0  0  0  0  0  0
  193.3360  169.7740  142.0580 C   0  0  0  0  0  3  0  0  0  0  0  0
  192.0240  169.9400  142.7520 C   0  0  1  0  0  3  0  0  0  0  0  0
  192.0660  171.1880  143.6600 C   0  0  2  0  0  3  0  0  0  0  0  0
  192.2820  172.4470  141.5420 N   0  0  0  0  0  2  0  0  0  0  0  0
  193.5560  173.0020  141.0900 C   0  0  0  0  0  2  0  0  0  0  0  0
  193.3560  173.7340  139.7720 C   0  0  1  0  0  3  0  0  0  0  0  0
  191.4360  172.5980  135.8760 O   0  0  0  0  0  0  0  0  0  0  0  0
  190.0590  173.2860  137.6870 C   0  0  2  0  0  3  0  0  0  0  0  0
  192.2670  172.8600  136.9420 C   0  0  0  0  0  0  0  0  0  0  0  0
  193.5180  172.7310  136.8870 O   0  0  0  0  0  0  0  0  0  0  0  0
  190.0720  172.8320  136.2130 C   0  0  0  0  0  2  0  0  0  0  0  0
  191.9280  173.6770  139.2990 C   0  0  0  0  0  3  0  0  0  0  0  0
  191.4970  173.2910  138.0900 C   0  0  0  0  0  0  0  0  0  0  0  0
  189.2680  172.3240  138.5160 C   0  0  0  0  0  0  0  0  0  0  0  0
  188.1580  172.6880  138.9890 O   0  0  0  0  0  0  0  0  0  0  0  0
  189.7670  171.0450  138.7720 O   0  0  0  0  0  0  0  0  0  0  0  0
  189.6880  170.0040  137.8090 C   0  0  0  0  0  1  0  0  0  0  0  0
  193.8960  175.1570  139.8490 C   0  0  0  0  0  2  0  0  0  0  0  0
  196.9480  175.0760  137.6250 C   0  0  0  0  0  3  0  0  0  0  0  0
  195.3120  175.2200  139.3890 C   0  0  0  0  0  0  0  0  0  0  0  0
  195.6150  175.0430  138.0360 C   0  0  0  0  0  3  0  0  0  0  0  0
  196.3430  175.4220  140.3100 C   0  0  0  0  0  3  0  0  0  0  0  0
  197.9380  175.2770  138.5370 N   0  0  0  0  0  0  0  0  0  0  0  0
  197.6640  175.4490  139.8590 C   0  0  0  0  0  3  0  0  0  0  0  0
  1 16  1  0  0  0  0
  1  2  1  1  0  0  0
  1 36  1  0  0  0  0
  3 12  1  0  0  0  0
  3  4  1  1  0  0  0
  5 13  1  0  0  0  0
  6  7  1  6  0  0  0
  6  3  1  0  0  0  0
  6 12  1  0  0  0  0
  9 17  1  0  0  0  0
  9 11  1  0  0  0  0
 10 28  1  0  0  0  0
 10  8  1  1  0  0  0
 11 14  1  0  0  0  0
 11 15  1  1  0  0  0
 12  5  1  1  0  0  0
 12 11  1  0  0  0  0
 13 15  1  0  0  0  0
 14 10  1  0  0  0  0
 16  6  1  0  0  0  0
 16  3  1  0  0  0  0
 17 14  1  0  0  0  0
 17 10  1  0  0  0  0
 18 24  1  0  0  0  0
 19 26  1  0  0  0  0
 19 27  2  0  0  0  0
 20 25  1  0  0  0  0
 21 22  1  0  0  0  0
 22 25  1  0  0  0  0
 22 17  1  0  0  0  0
 23 21  2  0  0  0  0
 24 25  1  0  0  0  0
 26 23  1  0  0  0  0
 27 18  1  0  0  0  0
 27 21  1  0  0  0  0
 28 29  1  0  0  0  0
 30 31  1  0  0  0  0
 32 30  1  0  0  0  0
 33 35  1  0  0  0  0
 34 32  2  0  0  0  0
 34 35  1  0  0  0  0
 35 36  1  0  0  0  0
 36 31  1  0  0  0  0
 37  1  1  0  0  0  0
 38 37  1  0  0  0  0
 39 51  1  0  0  0  0
 39 38  1  0  0  0  0
 40 44  1  0  0  0  0
 40 42  1  0  0  0  0
 41 46  1  0  0  0  0
 41 47  1  0  0  0  0
 42 46  1  0  0  0  0
 43 42  2  0  0  0  0
 44 41  1  0  0  0  0
 45 39  1  0  0  0  0
 46 45  2  0  0  0  0
 47 49  1  0  0  0  0
 47 48  2  0  0  0  0
 50 49  1  0  0  0  0
 52 54  2  0  0  0  0
 52 56  1  0  0  0  0
 53 51  1  0  0  0  0
 53 55  2  0  0  0  0
 54 53  1  0  0  0  0
 56 57  2  0  0  0  0
 57 55  1  0  0  0  0
M  END
>  <MODEL>
8

>  <REMARK>
 VINA RESULT:      -7.3      1.932      3.101
  Name = 
  12 active torsions:
  status: ('A' for Active; 'I' for Inactive)
    1  A    between atoms: C_10  and  C_12
    2  A    between atoms: C_12  and  C_23
    3  A    between atoms: O_20  and  C_24
    4  A    between atoms: C_22  and  C_39
    5  A    between atoms: C_23  and  C_31
    6  A    between atoms: C_23  and  C_44
    7  A    between atoms: C_26  and  C_46
    8  A    between atoms: C_26  and  C_48
    9  A    between atoms: C_26  and  N_51
   10  A    between atoms: C_31  and  N_51
   11  A    between atoms: O_33  and  C_39
   12  A    between atoms: C_37  and  C_50
                            x       y       z     vdW  Elec       q    Type
                         _______ _______ _______ _____ _____    ______ ____

>  <TORSDO>
F 12

$$$$
=
 OpenBabel11072409073D

 57 66  0  0  1  0  0  0  0  0999 V2000
  190.6880  174.4620  142.1030 C   0  0  2  0  0  0  0  0  0  0  0  0
  190.5990  174.0600  140.7590 O   0  0  0  0  0  1  0  0  0  0  0  0
  192.8080  173.3080  141.4830 C   0  0  1  0  0  0  0  0  0  0  0  0
  193.2370  172.0700  141.9560 O   0  0  0  0  0  1  0  0  0  0  0  0
  193.5800  174.7910  139.7550 O   0  0  0  0  0  0  0  0  0  0  0  0
  193.4550  174.5260  142.2530 C   0  0  2  0  0  0  0  0  0  0  0  0
  193.2630  176.0300  142.0800 C   0  0  0  0  0  1  0  0  0  0  0  0
  197.9410  172.3430  140.0850 F   0  0  0  0  0  0  0  0  0  0  0  0
  196.3230  174.3670  141.5170 O   0  0  0  0  0  0  0  0  0  0  0  0
  197.3790  172.0740  141.3250 C   0  0  2  0  0  0  0  0  0  0  0  0
  195.4160  173.5710  140.7930 C   0  0  2  0  0  0  0  0  0  0  0  0
  193.9720  174.0670  140.8970 C   0  0  1  0  0  0  0  0  0  0  0  0
  194.6790  174.7460  138.8720 C   0  0  0  0  0  2  0  0  0  0  0  0
  195.8800  172.2820  141.4520 C   0  0  2  0  0  3  0  0  0  0  0  0
  195.6580  173.6740  139.3150 C   0  0  0  0  0  2  0  0  0  0  0  0
  192.0720  173.9560  142.6280 C   0  0  1  0  0  3  0  0  0  0  0  0
  196.8540  173.2270  142.1590 C   0  0  2  0  0  0  0  0  0  0  0  0
  195.0600  174.9090  145.2120 O   0  0  0  0  0  0  0  0  0  0  0  0
  193.8300  172.9230  145.6700 N   0  0  0  0  0  0  0  0  0  0  0  0
  197.9050  174.2910  145.5250 F   0  0  0  0  0  0  0  0  0  0  0  0
  195.6020  172.6770  144.3260 C   0  0  0  0  0  0  0  0  0  0  0  0
  196.8800  173.1350  143.6940 C   0  0  2  0  0  3  0  0  0  0  0  0
  195.2010  171.4630  144.4560 N   0  0  0  0  0  0  0  0  0  0  0  0
  196.1250  175.4760  144.4390 C   0  0  0  0  0  2  0  0  0  0  0  0
  197.3110  174.4930  144.2920 C   0  0  1  0  0  3  0  0  0  0  0  0
  193.9910  171.5140  145.2880 C   0  0  0  0  0  2  0  0  0  0  0  0
  194.7790  173.5530  145.0800 C   0  0  0  0  0  0  0  0  0  0  0  0
  197.8250  170.9400  142.0190 O   0  0  0  0  0  0  0  0  0  0  0  0
  197.7400  169.8720  141.1190 C   0  0  0  0  0  1  0  0  0  0  0  0
  190.0960  171.7960  144.4760 C   0  0  0  0  0  2  0  0  0  0  0  0
  189.9740  173.3220  144.2570 C   0  0  0  0  0  2  0  0  0  0  0  0
  190.3320  171.0630  143.2430 N   0  0  0  0  0  0  0  0  0  0  0  0
  188.1970  172.8380  140.7940 C   0  0  0  0  0  1  0  0  0  0  0  0
  189.7240  171.3710  142.1490 C   0  0  0  0  0  3  0  0  0  0  0  0
  188.8210  172.5600  142.1450 C   0  0  1  0  0  3  0  0  0  0  0  0
  189.5150  173.7500  142.8400 C   0  0  2  0  0  3  0  0  0  0  0  0
  190.5240  175.9240  142.2290 N   0  0  0  0  0  2  0  0  0  0  0  0
  189.3090  176.3200  142.9370 C   0  0  0  0  0  2  0  0  0  0  0  0
  189.4240  177.7710  143.3760 C   0  0  1  0  0  3  0  0  0  0  0  0
  185.0740  178.3590  142.4330 O   0  0  0  0  0  0  0  0  0  0  0  0
  185.8500  178.8030  144.6350 C   0  0  2  0  0  3  0  0  0  0  0  0
  186.4220  178.0770  142.4530 C   0  0  0  0  0  0  0  0  0  0  0  0
  187.0520  177.6610  141.4470 O   0  0  0  0  0  0  0  0  0  0  0  0
  184.6210  178.8170  143.7030 C   0  0  0  0  0  2  0  0  0  0  0  0
  188.2390  178.2170  144.1910 C   0  0  0  0  0  3  0  0  0  0  0  0
  186.9710  178.3280  143.7690 C   0  0  0  0  0  0  0  0  0  0  0  0
  185.6180  177.8690  145.7800 C   0  0  0  0  0  0  0  0  0  0  0  0
  185.6200  176.6260  145.5700 O   0  0  0  0  0  0  0  0  0  0  0  0
  185.3870  178.3740  147.0620 O   0  0  0  0  0  0  0  0  0  0  0  0
  186.4470  178.5960  147.9810 C   0  0  0  0  0  1  0  0  0  0  0  0
  190.7530  178.0270  144.0780 C   0  0  0  0  0  2  0  0  0  0  0  0
  189.9550  176.7130  147.5290 C   0  0  0  0  0  3  0  0  0  0  0  0
  190.8410  177.2660  145.3570 C   0  0  0  0  0  0  0  0  0  0  0  0
  189.8430  177.4100  146.3250 C   0  0  0  0  0  3  0  0  0  0  0  0
  191.9360  176.4340  145.6060 C   0  0  0  0  0  3  0  0  0  0  0  0
  191.0270  175.9040  147.7520 N   0  0  0  0  0  0  0  0  0  0  0  0
  192.0100  175.7530  146.8220 C   0  0  0  0  0  3  0  0  0  0  0  0
  1  2  1  6  0  0  0
  1 37  1  0  0  0  0
  1 16  1  0  0  0  0
  1 36  1  0  0  0  0
  3  4  1  1  0  0  0
  3  6  1  0  0  0  0
  3 16  1  0  0  0  0
  6  7  1  6  0  0  0
  6 16  1  0  0  0  0
  9 17  1  0  0  0  0
 10  8  1  6  0  0  0
 10 14  1  0  0  0  0
 10 28  1  0  0  0  0
 10 17  1  0  0  0  0
 11 15  1  6  0  0  0
 11 12  1  0  0  0  0
 11 14  1  0  0  0  0
 11  9  1  0  0  0  0
 12  5  1  6  0  0  0
 12  3  1  0  0  0  0
 12  6  1  0  0  0  0
 13 15  1  0  0  0  0
 13  5  1  0  0  0  0
 14 17  1  0  0  0  0
 17 22  1  0  0  0  0
 21 23  2  0  0  0  0
 21 27  1  0  0  0  0
 22 25  1  0  0  0  0
 22 21  1  0  0  0  0
 23 26  1  0  0  0  0
 24 18  1  0  0  0  0
 25 24  1  0  0  0  0
 25 20  1  0  0  0  0
 26 19  1  0  0  0  0
 27 18  1  0  0  0  0
 27 19  2  0  0  0  0
 29 28  1  0  0  0  0
 31 30  1  0  0  0  0
 32 30  1  0  0  0  0
 33 35  1  0  0  0  0
 34 32  2  0  0  0  0
 35 34  1  0  0  0  0
 35 36  1  0  0  0  0
 36 31  1  0  0  0  0
 37 38  1  0  0  0  0
 38 39  1  0  0  0  0
 39 51  1  0  0  0  0
 39 45  1  0  0  0  0
 40 42  1  0  0  0  0
 40 44  1  0  0  0  0
 41 47  1  0  0  0  0
 42 46  1  0  0  0  0
 43 42  2  0  0  0  0
 44 41  1  0  0  0  0
 46 45  2  0  0  0  0
 46 41  1  0  0  0  0
 47 49  1  0  0  0  0
 48 47  2  0  0  0  0
 49 50  1  0  0  0  0
 51 53  1  0  0  0  0
 52 56  1  0  0  0  0
 53 55  2  0  0  0  0
 53 54  1  0  0  0  0
 54 52  2  0  0  0  0
 55 57  1  0  0  0  0
 57 56  2  0  0  0  0
M  END
>  <MODEL>
9

>  <REMARK>
 VINA RESULT:      -7.2      3.170      8.769
  Name = 
  12 active torsions:
  status: ('A' for Active; 'I' for Inactive)
    1  A    between atoms: C_10  and  C_12
    2  A    between atoms: C_12  and  C_23
    3  A    between atoms: O_20  and  C_24
    4  A    between atoms: C_22  and  C_39
    5  A    between atoms: C_23  and  C_31
    6  A    between atoms: C_23  and  C_44
    7  A    between atoms: C_26  and  C_46
    8  A    between atoms: C_26  and  C_48
    9  A    between atoms: C_26  and  N_51
   10  A    between atoms: C_31  and  N_51
   11  A    between atoms: O_33  and  C_39
   12  A    between atoms: C_37  and  C_50
                            x       y       z     vdW  Elec       q    Type
                         _______ _______ _______ _____ _____    ______ ____

>  <TORSDO>
F 12

$$$$
