=
 OpenBabel11062421483D

 48 55  0  0  1  0  0  0  0  0999 V2000
  190.1650  172.8160  140.9260 C   0  0  2  0  0  3  0  0  0  0  0  0
  191.6390  175.4730  145.3120 C   0  0  0  0  0  2  0  0  0  0  0  0
  187.4380  175.8610  143.8150 O   0  0  0  0  0  0  0  0  0  0  0  0
  191.3290  172.0670  140.2350 C   0  0  1  0  0  3  0  0  0  0  0  0
  191.5030  173.5150  143.3350 P   0  0  2  0  0  4  0  0  0  0  0  0
  193.2740  173.9030  143.1970 C   0  0  0  0  0  2  0  0  0  0  0  0
  189.2650  173.2750  139.9610 O   0  0  0  0  0  1  0  0  0  0  0  0
  193.9650  173.5690  144.4790 C   0  0  0  0  0  0  0  0  0  0  0  0
  187.9670  176.5650  142.7080 C   0  0  1  0  0  0  0  0  0  0  0  0
  192.5490  169.6510  142.9040 O   0  0  0  0  0  1  0  0  0  0  0  0
  191.2920  171.7960  143.9210 C   0  0  0  0  0  2  0  0  0  0  0  0
  190.6490  170.9930  142.9620 O   0  0  0  0  0  0  0  0  0  0  0  0
  192.3060  171.3650  141.2000 C   0  0  1  0  0  3  0  0  0  0  0  0
  190.6190  173.9990  141.8000 C   0  0  2  0  0  3  0  0  0  0  0  0
  190.6550  174.6450  144.4950 C   0  0  2  0  0  3  0  0  0  0  0  0
  191.6190  170.3710  142.1450 C   0  0  1  0  0  3  0  0  0  0  0  0
  188.7400  176.3980  143.9690 C   0  0  2  0  0  0  0  0  0  0  0  0
  189.4250  174.7170  142.4020 C   0  0  2  0  0  3  0  0  0  0  0  0
  192.5050  174.6070  146.2130 C   0  0  0  0  0  2  0  0  0  0  0  0
  188.5660  175.6780  141.6060 C   0  0  0  0  0  2  0  0  0  0  0  0
  193.9130  174.5100  145.6430 C   0  0  0  0  0  2  0  0  0  0  0  0
  194.5330  172.4980  144.5950 O   0  0  0  0  0  0  0  0  0  0  0  0
  193.3460  170.7550  140.5030 O   0  0  0  0  0  1  0  0  0  0  0  0
  189.9300  175.5600  143.5350 C   0  0  2  0  0  3  0  0  0  0  0  0
  189.3190  172.1120  134.5150 O   0  0  0  0  0  0  0  0  0  0  0  0
  190.3760  171.8980  137.7510 C   0  0  1  0  0  3  0  0  0  0  0  0
  190.8940  171.2250  139.0080 C   0  0  2  0  0  0  0  0  0  0  0  0
  192.3290  172.9300  135.9530 C   0  0  0  0  0  2  0  0  0  0  0  0
  190.1490  171.7540  135.3290 C   0  0  0  0  0  0  0  0  0  0  0  0
  192.6890  172.3630  137.3510 C   0  0  0  0  0  2  0  0  0  0  0  0
  190.3200  169.9840  139.2730 O   0  0  0  0  0  1  0  0  0  0  0  0
  191.6230  171.9330  135.0080 C   0  0  0  0  0  2  0  0  0  0  0  0
  191.7510  171.2350  137.7540 C   0  0  2  0  0  3  0  0  0  0  0  0
  189.6870  171.1450  136.6350 C   0  0  0  0  0  2  0  0  0  0  0  0
  188.8740  177.6440  144.8390 C   0  0  0  0  0  2  0  0  0  0  0  0
  189.6910  177.6630  147.0530 O   0  0  0  0  0  0  0  0  0  0  0  0
  188.8070  177.2990  146.2930 C   0  0  0  0  0  0  0  0  0  0  0  0
  187.6910  176.4470  146.8050 C   0  0  0  0  0  2  0  0  0  0  0  0
  185.1890  176.8570  146.3000 C   0  0  0  0  0  1  0  0  0  0  0  0
  186.4520  177.2550  146.9850 C   0  0  0  0  0  0  0  0  0  0  0  0
  186.4820  178.2690  147.6610 O   0  0  0  0  0  0  0  0  0  0  0  0
  187.2720  177.8890  142.4070 C   0  0  0  0  0  2  0  0  0  0  0  0
  185.5650  177.8980  140.8050 C   0  0  0  0  0  2  0  0  0  0  0  0
  183.1890  178.2920  141.5290 C   0  0  0  0  0  2  0  0  0  0  0  0
  184.2640  178.6650  140.5150 C   0  0  0  0  0  2  0  0  0  0  0  0
  185.1770  178.7030  143.0630 C   0  0  0  0  0  2  0  0  0  0  0  0
  185.8420  177.6920  142.2370 N   0  0  0  0  0  0  0  0  0  0  0  0
  183.6580  178.5470  142.9680 C   0  0  0  0  0  2  0  0  0  0  0  0
  1  7  1  6  0  0  0
  1 14  1  0  0  0  0
  2 19  1  0  0  0  0
  3 17  1  0  0  0  0
  4 27  1  6  0  0  0
  4  1  1  0  0  0  0
  4 13  1  0  0  0  0
  5  6  1  6  0  0  0
  5 11  1  0  0  0  0
  5 15  1  0  0  0  0
  6  8  1  0  0  0  0
  8 22  2  0  0  0  0
  8 21  1  0  0  0  0
  9 42  1  6  0  0  0
  9  3  1  0  0  0  0
  9 17  1  0  0  0  0
 12 11  1  0  0  0  0
 13 23  1  6  0  0  0
 13 16  1  0  0  0  0
 14 18  1  0  0  0  0
 14  5  1  0  0  0  0
 15  2  1  0  0  0  0
 16 10  1  0  0  0  0
 16 12  1  0  0  0  0
 17 35  1  0  0  0  0
 18 24  1  0  0  0  0
 20 18  1  0  0  0  0
 20  9  1  0  0  0  0
 21 19  1  0  0  0  0
 24 17  1  0  0  0  0
 24 15  1  0  0  0  0
 25 29  2  0  0  0  0
 26 33  1  0  0  0  0
 26 27  1  0  0  0  0
 27 31  1  0  0  0  0
 28 30  1  0  0  0  0
 29 34  1  0  0  0  0
 30 33  1  0  0  0  0
 32 29  1  0  0  0  0
 32 28  1  0  0  0  0
 33 27  1  0  0  0  0
 34 26  1  0  0  0  0
 35 37  1  0  0  0  0
 37 38  1  0  0  0  0
 37 36  2  0  0  0  0
 38 40  1  0  0  0  0
 39 40  1  0  0  0  0
 40 41  2  0  0  0  0
 43 47  1  0  0  0  0
 44 48  1  0  0  0  0
 45 43  1  0  0  0  0
 45 44  1  0  0  0  0
 47 42  1  0  0  0  0
 47 46  1  0  0  0  0
 48 46  1  0  0  0  0
M  END
>  <MODEL>
1

>  <REMARK>
 VINA RESULT:      -8.6      0.000      0.000
  Name = 
  7 active torsions:
  status: ('A' for Active; 'I' for Inactive)
    1  A    between atoms: C_1  and  C_19
    2  A    between atoms: C_1  and  C_27
    3  A    between atoms: C_7  and  C_13
    4  A    between atoms: C_14  and  C_27
    5  A    between atoms: C_14  and  C_33
    6  A    between atoms: C_16  and  C_35
    7  A    between atoms: C_35  and  N_37
                            x       y       z     vdW  Elec       q    Type
                         _______ _______ _______ _____ _____    ______ ____

>  <TORSDO>
F 7

$$$$
=
 OpenBabel11062421483D

 48 55  0  0  1  0  0  0  0  0999 V2000
  189.8540  174.0120  141.5500 C   0  0  2  0  0  3  0  0  0  0  0  0
  189.6810  176.0830  146.4650 C   0  0  0  0  0  2  0  0  0  0  0  0
  185.9840  176.0990  143.9410 O   0  0  0  0  0  0  0  0  0  0  0  0
  191.2710  173.5680  141.1140 C   0  0  1  0  0  3  0  0  0  0  0  0
  190.4030  174.4850  144.2990 P   0  0  2  0  0  4  0  0  0  0  0  0
  192.0490  175.1450  144.6970 C   0  0  0  0  0  2  0  0  0  0  0  0
  189.1520  174.4910  140.4410 O   0  0  0  0  0  1  0  0  0  0  0  0
  192.4520  174.7050  146.0670 C   0  0  0  0  0  0  0  0  0  0  0  0
  186.6310  177.0480  143.1160 C   0  0  1  0  0  0  0  0  0  0  0  0
  192.2180  170.9420  143.6960 O   0  0  0  0  0  1  0  0  0  0  0  0
  190.3740  172.6800  144.5880 C   0  0  0  0  0  2  0  0  0  0  0  0
  190.1490  171.9640  143.3990 O   0  0  0  0  0  0  0  0  0  0  0  0
  192.0910  172.8630  142.2150 C   0  0  1  0  0  3  0  0  0  0  0  0
  189.8510  175.0860  142.6540 C   0  0  2  0  0  3  0  0  0  0  0  0
  189.1010  175.2690  145.3150 C   0  0  2  0  0  3  0  0  0  0  0  0
  191.3880  171.6360  142.8070 C   0  0  1  0  0  3  0  0  0  0  0  0
  187.0850  176.7870  144.5080 C   0  0  2  0  0  0  0  0  0  0  0  0
  188.4340  175.5110  142.9920 C   0  0  2  0  0  3  0  0  0  0  0  0
  190.4420  175.2130  147.4520 C   0  0  0  0  0  2  0  0  0  0  0  0
  187.6360  176.4560  142.1170 C   0  0  0  0  0  2  0  0  0  0  0  0
  191.9410  175.4200  147.2800 C   0  0  0  0  0  2  0  0  0  0  0  0
  193.1610  173.7240  146.2000 O   0  0  0  0  0  0  0  0  0  0  0  0
  193.3660  172.5380  141.7570 O   0  0  0  0  0  1  0  0  0  0  0  0
  188.4790  176.2160  144.3150 C   0  0  2  0  0  3  0  0  0  0  0  0
  191.1770  174.3330  135.1010 O   0  0  0  0  0  0  0  0  0  0  0  0
  191.1690  173.7110  138.4540 C   0  0  1  0  0  3  0  0  0  0  0  0
  191.3160  172.8890  139.7210 C   0  0  2  0  0  0  0  0  0  0  0  0
  193.5010  175.0560  137.5250 C   0  0  0  0  0  2  0  0  0  0  0  0
  191.7330  173.8970  136.0910 C   0  0  0  0  0  0  0  0  0  0  0  0
  193.4450  174.3140  138.8840 C   0  0  0  0  0  2  0  0  0  0  0  0
  190.7890  171.6030  139.6350 O   0  0  0  0  0  1  0  0  0  0  0  0
  193.2130  174.1750  136.2890 C   0  0  0  0  0  2  0  0  0  0  0  0
  192.5220  173.1060  138.8240 C   0  0  2  0  0  3  0  0  0  0  0  0
  190.9320  173.0950  137.0940 C   0  0  0  0  0  2  0  0  0  0  0  0
  186.7660  177.8750  145.5290 C   0  0  0  0  0  2  0  0  0  0  0  0
  184.8340  176.7390  146.2670 O   0  0  0  0  0  0  0  0  0  0  0  0
  185.8300  177.3730  146.5820 C   0  0  0  0  0  0  0  0  0  0  0  0
  186.0760  177.7040  148.0170 C   0  0  0  0  0  2  0  0  0  0  0  0
  188.2850  178.9990  148.3780 C   0  0  0  0  0  1  0  0  0  0  0  0
  186.8130  178.9940  148.1410 C   0  0  0  0  0  0  0  0  0  0  0  0
  186.2020  180.0490  148.0910 O   0  0  0  0  0  0  0  0  0  0  0  0
  185.7990  178.2880  142.8030 C   0  0  0  0  0  2  0  0  0  0  0  0
  184.4400  177.9150  140.9330 C   0  0  0  0  0  2  0  0  0  0  0  0
  181.9440  178.1320  141.1530 C   0  0  0  0  0  2  0  0  0  0  0  0
  183.1590  178.4950  140.3090 C   0  0  0  0  0  2  0  0  0  0  0  0
  183.5550  178.9420  142.9480 C   0  0  0  0  0  2  0  0  0  0  0  0
  184.4500  177.9170  142.4060 N   0  0  0  0  0  0  0  0  0  0  0  0
  182.1030  178.6110  142.6030 C   0  0  0  0  0  2  0  0  0  0  0  0
  1  7  1  6  0  0  0
  1 14  1  0  0  0  0
  2 19  1  0  0  0  0
  3 17  1  0  0  0  0
  4 27  1  6  0  0  0
  4  1  1  0  0  0  0
  4 13  1  0  0  0  0
  5 11  1  1  0  0  0
  5  6  1  0  0  0  0
  5 15  1  0  0  0  0
  6  8  1  0  0  0  0
  8 22  2  0  0  0  0
  8 21  1  0  0  0  0
  9 42  1  6  0  0  0
  9  3  1  0  0  0  0
  9 17  1  0  0  0  0
 12 11  1  0  0  0  0
 13 23  1  6  0  0  0
 13 16  1  0  0  0  0
 14 18  1  0  0  0  0
 14  5  1  0  0  0  0
 15  2  1  0  0  0  0
 16 12  1  0  0  0  0
 16 10  1  0  0  0  0
 17 35  1  0  0  0  0
 18 24  1  0  0  0  0
 20 18  1  0  0  0  0
 20  9  1  0  0  0  0
 21 19  1  0  0  0  0
 24 17  1  0  0  0  0
 24 15  1  0  0  0  0
 25 29  2  0  0  0  0
 26 33  1  0  0  0  0
 26 27  1  0  0  0  0
 28 30  1  0  0  0  0
 29 32  1  0  0  0  0
 29 34  1  0  0  0  0
 31 27  1  0  0  0  0
 32 28  1  0  0  0  0
 33 30  1  0  0  0  0
 33 27  1  0  0  0  0
 34 26  1  0  0  0  0
 35 37  1  0  0  0  0
 36 37  2  0  0  0  0
 37 38  1  0  0  0  0
 38 40  1  0  0  0  0
 40 39  1  0  0  0  0
 41 40  2  0  0  0  0
 43 47  1  0  0  0  0
 44 48  1  0  0  0  0
 45 43  1  0  0  0  0
 45 44  1  0  0  0  0
 47 42  1  0  0  0  0
 47 46  1  0  0  0  0
 48 46  1  0  0  0  0
M  END
>  <MODEL>
2

>  <REMARK>
 VINA RESULT:      -7.5      1.664      2.189
  Name = 
  7 active torsions:
  status: ('A' for Active; 'I' for Inactive)
    1  A    between atoms: C_1  and  C_19
    2  A    between atoms: C_1  and  C_27
    3  A    between atoms: C_7  and  C_13
    4  A    between atoms: C_14  and  C_27
    5  A    between atoms: C_14  and  C_33
    6  A    between atoms: C_16  and  C_35
    7  A    between atoms: C_35  and  N_37
                            x       y       z     vdW  Elec       q    Type
                         _______ _______ _______ _____ _____    ______ ____

>  <TORSDO>
F 7

$$$$
=
 OpenBabel11062421483D

 48 55  0  0  1  0  0  0  0  0999 V2000
  191.1440  172.2410  140.8420 C   0  0  2  0  0  3  0  0  0  0  0  0
  193.3220  175.0420  144.8280 C   0  0  0  0  0  2  0  0  0  0  0  0
  188.9410  175.4440  143.9950 O   0  0  0  0  0  0  0  0  0  0  0  0
  192.1770  171.4460  140.0070 C   0  0  1  0  0  3  0  0  0  0  0  0
  192.8540  173.0100  142.9790 P   0  0  2  0  0  4  0  0  0  0  0  0
  194.5850  173.3630  142.5480 C   0  0  0  0  0  2  0  0  0  0  0  0
  190.1080  172.6780  140.0120 O   0  0  0  0  0  1  0  0  0  0  0  0
  195.4660  173.0680  143.7170 C   0  0  0  0  0  0  0  0  0  0  0  0
  189.2970  176.0940  142.7910 C   0  0  1  0  0  0  0  0  0  0  0  0
  193.7770  169.1160  142.5490 O   0  0  0  0  0  1  0  0  0  0  0  0
  192.7190  171.3200  143.6610 C   0  0  0  0  0  2  0  0  0  0  0  0
  191.9240  170.4910  142.8490 O   0  0  0  0  0  0  0  0  0  0  0  0
  193.2860  170.7650  140.8350 C   0  0  1  0  0  3  0  0  0  0  0  0
  191.7440  173.4500  141.5840 C   0  0  2  0  0  3  0  0  0  0  0  0
  192.2120  174.2000  144.2100 C   0  0  2  0  0  3  0  0  0  0  0  0
  192.7460  169.8210  141.9160 C   0  0  1  0  0  3  0  0  0  0  0  0
  190.2570  175.9640  143.9200 C   0  0  2  0  0  0  0  0  0  0  0  0
  190.6680  174.2110  142.3350 C   0  0  2  0  0  3  0  0  0  0  0  0
  194.3090  174.1970  145.6150 C   0  0  0  0  0  2  0  0  0  0  0  0
  189.7040  175.1550  141.6460 C   0  0  0  0  0  2  0  0  0  0  0  0
  195.6090  174.0540  144.8350 C   0  0  0  0  0  2  0  0  0  0  0  0
  196.0330  171.9920  143.7880 O   0  0  0  0  0  0  0  0  0  0  0  0
  194.1970  170.1110  140.0080 O   0  0  0  0  0  1  0  0  0  0  0  0
  191.3540  175.0890  143.3400 C   0  0  2  0  0  3  0  0  0  0  0  0
  189.5960  171.2770  134.5240 O   0  0  0  0  0  0  0  0  0  0  0  0
  190.9600  171.1930  137.6490 C   0  0  1  0  0  3  0  0  0  0  0  0
  191.5440  170.5650  138.9000 C   0  0  2  0  0  0  0  0  0  0  0  0
  192.7990  171.9020  135.5940 C   0  0  0  0  0  2  0  0  0  0  0  0
  190.4710  170.8990  135.2800 C   0  0  0  0  0  0  0  0  0  0  0  0
  193.2510  171.4040  136.9900 C   0  0  0  0  0  2  0  0  0  0  0  0
  190.8930  169.4070  139.3180 O   0  0  0  0  0  1  0  0  0  0  0  0
  191.9140  170.9130  134.8040 C   0  0  0  0  0  2  0  0  0  0  0  0
  192.2640  170.4030  137.5720 C   0  0  2  0  0  3  0  0  0  0  0  0
  190.0960  170.4320  136.6690 C   0  0  0  0  0  2  0  0  0  0  0  0
  190.5400  177.2410  144.7070 C   0  0  0  0  0  2  0  0  0  0  0  0
  191.2980  176.5120  146.8190 O   0  0  0  0  0  0  0  0  0  0  0  0
  190.3880  177.0150  146.1770 C   0  0  0  0  0  0  0  0  0  0  0  0
  189.0960  177.3410  146.8510 C   0  0  0  0  0  2  0  0  0  0  0  0
  188.8570  174.8240  147.3940 C   0  0  0  0  0  1  0  0  0  0  0  0
  188.2480  176.1210  146.9830 C   0  0  0  0  0  0  0  0  0  0  0  0
  187.0610  176.1760  146.7120 O   0  0  0  0  0  0  0  0  0  0  0  0
  188.5770  177.4170  142.5490 C   0  0  0  0  0  2  0  0  0  0  0  0
  186.4350  177.5630  141.6160 C   0  0  0  0  0  2  0  0  0  0  0  0
  184.4670  178.0580  143.1030 C   0  0  0  0  0  2  0  0  0  0  0  0
  185.1590  178.4050  141.7900 C   0  0  0  0  0  2  0  0  0  0  0  0
  186.8760  178.3190  143.8810 C   0  0  0  0  0  2  0  0  0  0  0  0
  187.1630  177.3010  142.8690 N   0  0  0  0  0  0  0  0  0  0  0  0
  185.4070  178.2460  144.3020 C   0  0  0  0  0  2  0  0  0  0  0  0
  1  7  1  6  0  0  0
  1 14  1  0  0  0  0
  2 19  1  0  0  0  0
  4 27  1  1  0  0  0
  4 13  1  0  0  0  0
  4  1  1  0  0  0  0
  5  6  1  6  0  0  0
  5 11  1  0  0  0  0
  5 15  1  0  0  0  0
  6  8  1  0  0  0  0
  8 22  2  0  0  0  0
  8 21  1  0  0  0  0
  9 42  1  6  0  0  0
  9 17  1  0  0  0  0
  9  3  1  0  0  0  0
 12 11  1  0  0  0  0
 13 23  1  6  0  0  0
 13 16  1  0  0  0  0
 14 18  1  0  0  0  0
 14  5  1  0  0  0  0
 15  2  1  0  0  0  0
 16 10  1  0  0  0  0
 16 12  1  0  0  0  0
 17  3  1  0  0  0  0
 17 35  1  0  0  0  0
 18 24  1  0  0  0  0
 20 18  1  0  0  0  0
 20  9  1  0  0  0  0
 21 19  1  0  0  0  0
 24 17  1  0  0  0  0
 24 15  1  0  0  0  0
 25 29  2  0  0  0  0
 26 27  1  0  0  0  0
 27 31  1  0  0  0  0
 28 30  1  0  0  0  0
 29 34  1  0  0  0  0
 30 33  1  0  0  0  0
 32 29  1  0  0  0  0
 32 28  1  0  0  0  0
 33 26  1  0  0  0  0
 33 27  1  0  0  0  0
 34 26  1  0  0  0  0
 35 37  1  0  0  0  0
 37 36  2  0  0  0  0
 37 38  1  0  0  0  0
 38 40  1  0  0  0  0
 40 39  1  0  0  0  0
 41 40  2  0  0  0  0
 42 47  1  0  0  0  0
 43 45  1  0  0  0  0
 43 47  1  0  0  0  0
 44 48  1  0  0  0  0
 45 44  1  0  0  0  0
 46 48  1  0  0  0  0
 47 46  1  0  0  0  0
M  END
>  <MODEL>
3

>  <REMARK>
 VINA RESULT:      -7.5      1.333      1.611
  Name = 
  7 active torsions:
  status: ('A' for Active; 'I' for Inactive)
    1  A    between atoms: C_1  and  C_19
    2  A    between atoms: C_1  and  C_27
    3  A    between atoms: C_7  and  C_13
    4  A    between atoms: C_14  and  C_27
    5  A    between atoms: C_14  and  C_33
    6  A    between atoms: C_16  and  C_35
    7  A    between atoms: C_35  and  N_37
                            x       y       z     vdW  Elec       q    Type
                         _______ _______ _______ _____ _____    ______ ____

>  <TORSDO>
F 7

$$$$
=
 OpenBabel11062421483D

 48 55  0  0  1  0  0  0  0  0999 V2000
  191.6510  175.1890  143.0470 C   0  0  2  0  0  3  0  0  0  0  0  0
  195.2660  171.2750  142.7420 C   0  0  0  0  0  2  0  0  0  0  0  0
  192.8410  172.3140  139.1250 O   0  0  0  0  0  0  0  0  0  0  0  0
  191.4840  175.7680  144.4710 C   0  0  1  0  0  3  0  0  0  0  0  0
  193.9770  173.6220  143.5140 P   0  0  2  0  0  4  0  0  0  0  0  0
  194.1200  172.8500  145.1540 C   0  0  0  0  0  2  0  0  0  0  0  0
  190.4210  175.2130  142.3840 O   0  0  0  0  0  1  0  0  0  0  0  0
  195.5620  172.6840  145.5090 C   0  0  0  0  0  0  0  0  0  0  0  0
  191.7190  171.7890  139.8070 C   0  0  1  0  0  0  0  0  0  0  0  0
  194.9480  177.0910  145.3110 O   0  0  0  0  0  1  0  0  0  0  0  0
  194.9840  175.1460  143.4580 C   0  0  0  0  0  2  0  0  0  0  0  0
  194.1890  176.2900  143.2620 O   0  0  0  0  0  0  0  0  0  0  0  0
  192.8040  175.9530  145.2500 C   0  0  1  0  0  3  0  0  0  0  0  0
  192.2130  173.7550  143.0210 C   0  0  2  0  0  3  0  0  0  0  0  0
  194.5350  172.4930  142.1890 C   0  0  2  0  0  3  0  0  0  0  0  0
  193.8260  176.8290  144.5160 C   0  0  1  0  0  3  0  0  0  0  0  0
  193.1090  171.4500  140.2150 C   0  0  2  0  0  0  0  0  0  0  0  0
  192.2990  173.2340  141.5980 C   0  0  2  0  0  3  0  0  0  0  0  0
  196.5480  171.6570  143.4630 C   0  0  0  0  0  2  0  0  0  0  0  0
  191.0870  172.7370  140.8370 C   0  0  0  0  0  2  0  0  0  0  0  0
  196.3540  171.5340  144.9680 C   0  0  0  0  0  2  0  0  0  0  0  0
  196.1110  173.5200  146.2040 O   0  0  0  0  0  0  0  0  0  0  0  0
  192.5620  176.4340  146.5350 O   0  0  0  0  0  1  0  0  0  0  0  0
  193.2140  172.0450  141.6090 C   0  0  2  0  0  3  0  0  0  0  0  0
  185.6950  177.5430  144.7670 O   0  0  0  0  0  0  0  0  0  0  0  0
  188.9990  176.7290  144.5300 C   0  0  1  0  0  3  0  0  0  0  0  0
  190.4980  176.9610  144.5530 C   0  0  2  0  0  0  0  0  0  0  0  0
  187.7840  175.9660  146.9910 C   0  0  0  0  0  2  0  0  0  0  0  0
  186.8160  177.5520  145.2380 C   0  0  0  0  0  0  0  0  0  0  0  0
  189.3200  176.0800  146.8110 C   0  0  0  0  0  2  0  0  0  0  0  0
  190.9040  178.1500  143.9520 O   0  0  0  0  0  1  0  0  0  0  0  0
  186.9980  177.2670  146.7190 C   0  0  0  0  0  2  0  0  0  0  0  0
  189.6860  177.1740  145.8200 C   0  0  2  0  0  3  0  0  0  0  0  0
  187.9940  177.8420  144.3330 C   0  0  0  0  0  2  0  0  0  0  0  0
  193.5790  170.0380  139.8760 C   0  0  0  0  0  2  0  0  0  0  0  0
  194.4650  169.6640  137.7210 O   0  0  0  0  0  0  0  0  0  0  0  0
  194.6730  170.0620  138.8570 C   0  0  0  0  0  0  0  0  0  0  0  0
  196.0440  170.5100  139.2470 C   0  0  0  0  0  2  0  0  0  0  0  0
  196.2720  173.0720  138.9870 C   0  0  0  0  0  1  0  0  0  0  0  0
  196.4580  171.6970  138.4440 C   0  0  0  0  0  0  0  0  0  0  0  0
  196.9120  171.5420  137.3230 O   0  0  0  0  0  0  0  0  0  0  0  0
  190.8950  170.7910  138.9980 C   0  0  0  0  0  2  0  0  0  0  0  0
  189.9860  171.8680  137.1290 C   0  0  0  0  0  2  0  0  0  0  0  0
  190.4910  170.9920  134.8260 C   0  0  0  0  0  2  0  0  0  0  0  0
  189.3950  171.4920  135.7600 C   0  0  0  0  0  2  0  0  0  0  0  0
  191.0210  169.6800  136.9420 C   0  0  0  0  0  2  0  0  0  0  0  0
  191.0890  171.0000  137.5730 N   0  0  0  0  0  0  0  0  0  0  0  0
  191.2480  169.8030  135.4340 C   0  0  0  0  0  2  0  0  0  0  0  0
  1  7  1  1  0  0  0
  1  4  1  0  0  0  0
  2 19  1  0  0  0  0
  3  9  1  0  0  0  0
  3 17  1  0  0  0  0
  4 27  1  6  0  0  0
  4 13  1  0  0  0  0
  5 11  1  6  0  0  0
  5  6  1  0  0  0  0
  6  8  1  0  0  0  0
  8 22  2  0  0  0  0
  9 42  1  6  0  0  0
  9 17  1  0  0  0  0
  9 20  1  0  0  0  0
 12 11  1  0  0  0  0
 12 16  1  0  0  0  0
 13 23  1  1  0  0  0
 14  1  1  0  0  0  0
 14  5  1  0  0  0  0
 15  2  1  0  0  0  0
 15  5  1  0  0  0  0
 16 13  1  0  0  0  0
 16 10  1  0  0  0  0
 17 24  1  0  0  0  0
 18 24  1  0  0  0  0
 18 14  1  0  0  0  0
 19 21  1  0  0  0  0
 20 18  1  0  0  0  0
 21  8  1  0  0  0  0
 24 15  1  0  0  0  0
 25 29  2  0  0  0  0
 26 27  1  0  0  0  0
 26 33  1  0  0  0  0
 27 33  1  0  0  0  0
 29 32  1  0  0  0  0
 30 28  1  0  0  0  0
 31 27  1  0  0  0  0
 32 28  1  0  0  0  0
 33 30  1  0  0  0  0
 34 26  1  0  0  0  0
 34 29  1  0  0  0  0
 35 17  1  0  0  0  0
 36 37  2  0  0  0  0
 37 38  1  0  0  0  0
 37 35  1  0  0  0  0
 40 39  1  0  0  0  0
 40 38  1  0  0  0  0
 41 40  2  0  0  0  0
 43 47  1  0  0  0  0
 44 48  1  0  0  0  0
 44 45  1  0  0  0  0
 45 43  1  0  0  0  0
 46 47  1  0  0  0  0
 47 42  1  0  0  0  0
 48 46  1  0  0  0  0
M  END
>  <MODEL>
4

>  <REMARK>
 VINA RESULT:      -7.4      2.947      9.078
  Name = 
  7 active torsions:
  status: ('A' for Active; 'I' for Inactive)
    1  A    between atoms: C_1  and  C_19
    2  A    between atoms: C_1  and  C_27
    3  A    between atoms: C_7  and  C_13
    4  A    between atoms: C_14  and  C_27
    5  A    between atoms: C_14  and  C_33
    6  A    between atoms: C_16  and  C_35
    7  A    between atoms: C_35  and  N_37
                            x       y       z     vdW  Elec       q    Type
                         _______ _______ _______ _____ _____    ______ ____

>  <TORSDO>
F 7

$$$$
=
 OpenBabel11062421483D

 48 55  0  0  1  0  0  0  0  0999 V2000
  190.5250  173.0330  140.8780 C   0  0  2  0  0  3  0  0  0  0  0  0
  193.3670  173.0640  145.3940 C   0  0  0  0  0  2  0  0  0  0  0  0
  189.1180  174.4710  145.4610 O   0  0  0  0  0  0  0  0  0  0  0  0
  191.3470  172.6310  139.6310 C   0  0  1  0  0  3  0  0  0  0  0  0
  192.4380  172.3480  142.8660 P   0  0  2  0  0  4  0  0  0  0  0  0
  194.1850  172.6120  142.4370 C   0  0  0  0  0  2  0  0  0  0  0  0
  189.5600  173.9780  140.5180 O   0  0  0  0  0  1  0  0  0  0  0  0
  195.0390  171.6380  143.1800 C   0  0  0  0  0  0  0  0  0  0  0  0
  189.5430  175.5830  144.6980 C   0  0  1  0  0  0  0  0  0  0  0  0
  192.5670  169.1260  140.4560 O   0  0  0  0  0  1  0  0  0  0  0  0
  192.0050  170.5870  142.6390 C   0  0  0  0  0  2  0  0  0  0  0  0
  191.0320  170.4130  141.6390 O   0  0  0  0  0  0  0  0  0  0  0  0
  192.3370  171.4690  139.8590 C   0  0  1  0  0  3  0  0  0  0  0  0
  191.3780  173.5930  142.0310 C   0  0  2  0  0  3  0  0  0  0  0  0
  192.0900  172.8260  144.5960 C   0  0  2  0  0  3  0  0  0  0  0  0
  191.6680  170.1980  140.3970 C   0  0  1  0  0  3  0  0  0  0  0  0
  190.5050  174.7570  145.4760 C   0  0  2  0  0  0  0  0  0  0  0  0
  190.5020  174.0160  143.1960 C   0  0  2  0  0  3  0  0  0  0  0  0
  194.2030  171.8010  145.5230 C   0  0  0  0  0  2  0  0  0  0  0  0
  189.7120  175.3080  143.1960 C   0  0  0  0  0  2  0  0  0  0  0  0
  195.4170  171.8850  144.6080 C   0  0  0  0  0  2  0  0  0  0  0  0
  195.3890  170.6060  142.6350 O   0  0  0  0  0  0  0  0  0  0  0  0
  193.0680  171.2010  138.7040 O   0  0  0  0  0  1  0  0  0  0  0  0
  191.3870  174.1490  144.4000 C   0  0  2  0  0  3  0  0  0  0  0  0
  188.4820  175.6540  135.2250 O   0  0  0  0  0  0  0  0  0  0  0  0
  189.9780  173.7920  137.6600 C   0  0  1  0  0  3  0  0  0  0  0  0
  190.5100  172.5390  138.3290 C   0  0  2  0  0  0  0  0  0  0  0  0
  191.7990  175.2350  136.0130 C   0  0  0  0  0  2  0  0  0  0  0  0
  189.3170  174.8350  135.5590 C   0  0  0  0  0  0  0  0  0  0  0  0
  192.2310  174.0330  136.8900 C   0  0  0  0  0  2  0  0  0  0  0  0
  189.6900  171.4210  138.1910 O   0  0  0  0  0  1  0  0  0  0  0  0
  190.7120  174.9170  134.9620 C   0  0  0  0  0  2  0  0  0  0  0  0
  191.1180  173.0040  137.0160 C   0  0  2  0  0  3  0  0  0  0  0  0
  188.9420  173.7630  136.5600 C   0  0  0  0  0  2  0  0  0  0  0  0
  191.0630  175.4000  146.7430 C   0  0  0  0  0  2  0  0  0  0  0  0
  193.3480  175.6800  147.2630 O   0  0  0  0  0  0  0  0  0  0  0  0
  192.4290  175.9620  146.5090 C   0  0  0  0  0  0  0  0  0  0  0  0
  192.6550  176.9250  145.3900 C   0  0  0  0  0  2  0  0  0  0  0  0
  194.6180  176.0410  143.9590 C   0  0  0  0  0  1  0  0  0  0  0  0
  194.0960  176.9610  145.0090 C   0  0  0  0  0  0  0  0  0  0  0  0
  194.8580  177.7150  145.5890 O   0  0  0  0  0  0  0  0  0  0  0  0
  189.0840  176.9350  145.2370 C   0  0  0  0  0  2  0  0  0  0  0  0
  187.0680  177.9160  144.5650 C   0  0  0  0  0  2  0  0  0  0  0  0
  185.1130  177.9380  146.1460 C   0  0  0  0  0  2  0  0  0  0  0  0
  185.9440  178.7690  145.1770 C   0  0  0  0  0  2  0  0  0  0  0  0
  187.4700  177.3290  146.8860 C   0  0  0  0  0  2  0  0  0  0  0  0
  187.6530  176.9300  145.4890 N   0  0  0  0  0  0  0  0  0  0  0  0
  185.9840  177.3190  147.2490 C   0  0  0  0  0  2  0  0  0  0  0  0
  1  7  1  6  0  0  0
  1 14  1  0  0  0  0
  2 19  1  0  0  0  0
  3 17  1  0  0  0  0
  4 27  1  6  0  0  0
  4 13  1  0  0  0  0
  4  1  1  0  0  0  0
  5  6  1  6  0  0  0
  5 15  1  0  0  0  0
  6  8  1  0  0  0  0
  8 21  1  0  0  0  0
  9 42  1  1  0  0  0
  9  3  1  0  0  0  0
  9 17  1  0  0  0  0
 11  5  1  0  0  0  0
 12 11  1  0  0  0  0
 13 23  1  6  0  0  0
 13 16  1  0  0  0  0
 14  5  1  0  0  0  0
 14 18  1  0  0  0  0
 15  2  1  0  0  0  0
 16 10  1  0  0  0  0
 16 12  1  0  0  0  0
 17 35  1  0  0  0  0
 18 20  1  0  0  0  0
 18 24  1  0  0  0  0
 20  9  1  0  0  0  0
 21 19  1  0  0  0  0
 22  8  2  0  0  0  0
 24 15  1  0  0  0  0
 24 17  1  0  0  0  0
 25 29  2  0  0  0  0
 26 27  1  0  0  0  0
 28 30  1  0  0  0  0
 29 34  1  0  0  0  0
 30 33  1  0  0  0  0
 31 27  1  0  0  0  0
 32 29  1  0  0  0  0
 32 28  1  0  0  0  0
 33 26  1  0  0  0  0
 33 27  1  0  0  0  0
 34 26  1  0  0  0  0
 37 35  1  0  0  0  0
 37 36  2  0  0  0  0
 38 37  1  0  0  0  0
 39 40  1  0  0  0  0
 40 38  1  0  0  0  0
 40 41  2  0  0  0  0
 42 47  1  0  0  0  0
 43 45  1  0  0  0  0
 43 47  1  0  0  0  0
 44 48  1  0  0  0  0
 45 44  1  0  0  0  0
 46 48  1  0  0  0  0
 47 46  1  0  0  0  0
M  END
>  <MODEL>
5

>  <REMARK>
 VINA RESULT:      -7.3      2.254      3.598
  Name = 
  7 active torsions:
  status: ('A' for Active; 'I' for Inactive)
    1  A    between atoms: C_1  and  C_19
    2  A    between atoms: C_1  and  C_27
    3  A    between atoms: C_7  and  C_13
    4  A    between atoms: C_14  and  C_27
    5  A    between atoms: C_14  and  C_33
    6  A    between atoms: C_16  and  C_35
    7  A    between atoms: C_35  and  N_37
                            x       y       z     vdW  Elec       q    Type
                         _______ _______ _______ _____ _____    ______ ____

>  <TORSDO>
F 7

$$$$
=
 OpenBabel11062421483D

 48 55  0  0  1  0  0  0  0  0999 V2000
  192.3900  175.1710  143.1820 C   0  0  2  0  0  3  0  0  0  0  0  0
  196.4100  171.6710  142.9180 C   0  0  0  0  0  2  0  0  0  0  0  0
  194.1500  172.7070  139.1950 O   0  0  0  0  0  0  0  0  0  0  0  0
  192.0630  175.6310  144.6220 C   0  0  1  0  0  3  0  0  0  0  0  0
  194.8290  173.8170  143.7310 P   0  0  2  0  0  4  0  0  0  0  0  0
  194.9370  172.9530  145.3270 C   0  0  0  0  0  2  0  0  0  0  0  0
  191.2140  175.1170  142.4290 O   0  0  0  0  0  1  0  0  0  0  0  0
  196.3600  172.9090  145.7810 C   0  0  0  0  0  0  0  0  0  0  0  0
  193.0450  172.0260  139.7550 C   0  0  1  0  0  0  0  0  0  0  0  0
  195.3000  177.2350  145.8060 O   0  0  0  0  0  1  0  0  0  0  0  0
  195.6710  175.4360  143.8460 C   0  0  0  0  0  2  0  0  0  0  0  0
  194.7760  176.5040  143.6600 O   0  0  0  0  0  0  0  0  0  0  0  0
  193.2970  175.8930  145.5100 C   0  0  1  0  0  3  0  0  0  0  0  0
  193.1010  173.8060  143.1110 C   0  0  2  0  0  3  0  0  0  0  0  0
  195.5960  172.8440  142.3860 C   0  0  2  0  0  3  0  0  0  0  0  0
  194.2710  176.9170  144.9120 C   0  0  1  0  0  3  0  0  0  0  0  0
  194.4310  171.8010  140.2480 C   0  0  2  0  0  0  0  0  0  0  0  0
  193.3410  173.3950  141.6710 C   0  0  2  0  0  3  0  0  0  0  0  0
  197.5910  172.1290  143.7580 C   0  0  0  0  0  2  0  0  0  0  0  0
  192.2450  172.8320  140.7900 C   0  0  0  0  0  2  0  0  0  0  0  0
  197.3050  171.8850  145.2340 C   0  0  0  0  0  2  0  0  0  0  0  0
  196.7680  173.7470  146.5660 O   0  0  0  0  0  0  0  0  0  0  0  0
  192.9170  176.2580  146.7990 O   0  0  0  0  0  1  0  0  0  0  0  0
  194.3730  172.3060  141.6790 C   0  0  2  0  0  3  0  0  0  0  0  0
  186.1130  176.7690  144.8650 O   0  0  0  0  0  0  0  0  0  0  0  0
  189.4880  176.3180  144.6590 C   0  0  1  0  0  3  0  0  0  0  0  0
  190.9530  176.7100  144.7000 C   0  0  2  0  0  0  0  0  0  0  0  0
  188.3380  175.4110  147.1020 C   0  0  0  0  0  2  0  0  0  0  0  0
  187.2230  176.8960  145.3480 C   0  0  0  0  0  0  0  0  0  0  0  0
  189.8540  175.6920  146.9400 C   0  0  0  0  0  2  0  0  0  0  0  0
  191.2350  177.9400  144.1110 O   0  0  0  0  0  1  0  0  0  0  0  0
  187.4190  176.6220  146.8300 C   0  0  0  0  0  2  0  0  0  0  0  0
  190.1100  176.8250  145.9590 C   0  0  2  0  0  3  0  0  0  0  0  0
  188.3710  177.3180  144.4580 C   0  0  0  0  0  2  0  0  0  0  0  0
  195.0690  170.4710  139.8610 C   0  0  0  0  0  2  0  0  0  0  0  0
  197.1750  171.4580  139.4600 O   0  0  0  0  0  0  0  0  0  0  0  0
  196.3180  170.6820  139.0650 C   0  0  0  0  0  0  0  0  0  0  0  0
  196.4890  169.9940  137.7500 C   0  0  0  0  0  2  0  0  0  0  0  0
  195.8430  171.9680  136.2100 C   0  0  0  0  0  1  0  0  0  0  0  0
  195.5880  170.5920  136.7230 C   0  0  0  0  0  0  0  0  0  0  0  0
  194.6160  169.9680  136.3330 O   0  0  0  0  0  0  0  0  0  0  0  0
  192.3900  171.0080  138.8260 C   0  0  0  0  0  2  0  0  0  0  0  0
  190.3650  170.5250  137.7540 C   0  0  0  0  0  2  0  0  0  0  0  0
  189.5160  172.0670  135.9570 C   0  0  0  0  0  2  0  0  0  0  0  0
  189.7620  170.6130  136.3420 C   0  0  0  0  0  2  0  0  0  0  0  0
  191.8850  172.2040  136.8780 C   0  0  0  0  0  2  0  0  0  0  0  0
  191.2980  171.6170  138.0840 N   0  0  0  0  0  0  0  0  0  0  0  0
  190.8030  172.8990  136.0490 C   0  0  0  0  0  2  0  0  0  0  0  0
  1  7  1  6  0  0  0
  1  4  1  0  0  0  0
  2 19  1  0  0  0  0
  3  9  1  0  0  0  0
  3 17  1  0  0  0  0
  4 27  1  6  0  0  0
  4 13  1  0  0  0  0
  5 11  1  1  0  0  0
  5  6  1  0  0  0  0
  6  8  1  0  0  0  0
  8 22  2  0  0  0  0
  9 42  1  6  0  0  0
  9 17  1  0  0  0  0
  9 20  1  0  0  0  0
 12 11  1  0  0  0  0
 12 16  1  0  0  0  0
 13 23  1  1  0  0  0
 14  1  1  0  0  0  0
 14  5  1  0  0  0  0
 15  2  1  0  0  0  0
 15  5  1  0  0  0  0
 16 13  1  0  0  0  0
 16 10  1  0  0  0  0
 17 24  1  0  0  0  0
 18 24  1  0  0  0  0
 18 14  1  0  0  0  0
 19 21  1  0  0  0  0
 20 18  1  0  0  0  0
 21  8  1  0  0  0  0
 24 15  1  0  0  0  0
 25 29  2  0  0  0  0
 26 27  1  0  0  0  0
 26 33  1  0  0  0  0
 27 33  1  0  0  0  0
 29 32  1  0  0  0  0
 30 28  1  0  0  0  0
 31 27  1  0  0  0  0
 32 28  1  0  0  0  0
 33 30  1  0  0  0  0
 34 26  1  0  0  0  0
 34 29  1  0  0  0  0
 35 17  1  0  0  0  0
 37 36  2  0  0  0  0
 37 35  1  0  0  0  0
 38 37  1  0  0  0  0
 39 40  1  0  0  0  0
 40 38  1  0  0  0  0
 41 40  2  0  0  0  0
 43 47  1  0  0  0  0
 44 48  1  0  0  0  0
 44 45  1  0  0  0  0
 45 43  1  0  0  0  0
 46 47  1  0  0  0  0
 47 42  1  0  0  0  0
 48 46  1  0  0  0  0
M  END
>  <MODEL>
6

>  <REMARK>
 VINA RESULT:      -6.9      3.117      9.193
  Name = 
  7 active torsions:
  status: ('A' for Active; 'I' for Inactive)
    1  A    between atoms: C_1  and  C_19
    2  A    between atoms: C_1  and  C_27
    3  A    between atoms: C_7  and  C_13
    4  A    between atoms: C_14  and  C_27
    5  A    between atoms: C_14  and  C_33
    6  A    between atoms: C_16  and  C_35
    7  A    between atoms: C_35  and  N_37
                            x       y       z     vdW  Elec       q    Type
                         _______ _______ _______ _____ _____    ______ ____

>  <TORSDO>
F 7

$$$$
=
 OpenBabel11062421483D

 48 55  0  0  1  0  0  0  0  0999 V2000
  190.2490  175.6660  142.7720 C   0  0  2  0  0  3  0  0  0  0  0  0
  193.2840  171.3410  142.0240 C   0  0  0  0  0  2  0  0  0  0  0  0
  191.3750  173.3250  138.4930 O   0  0  0  0  0  0  0  0  0  0  0  0
  190.0350  176.0220  144.2620 C   0  0  1  0  0  3  0  0  0  0  0  0
  192.2750  173.7010  143.1100 P   0  0  2  0  0  4  0  0  0  0  0  0
  192.1560  172.6580  144.5940 C   0  0  0  0  0  2  0  0  0  0  0  0
  189.1010  175.9900  142.0440 O   0  0  0  0  0  1  0  0  0  0  0  0
  193.5210  172.2130  145.0090 C   0  0  0  0  0  0  0  0  0  0  0  0
  190.1320  172.8750  138.9960 C   0  0  1  0  0  0  0  0  0  0  0  0
  193.5590  176.6340  145.5500 O   0  0  0  0  0  1  0  0  0  0  0  0
  193.4890  175.0390  143.3910 C   0  0  0  0  0  2  0  0  0  0  0  0
  192.8860  176.3080  143.3470 O   0  0  0  0  0  0  0  0  0  0  0  0
  191.2890  175.8690  145.1470 C   0  0  1  0  0  3  0  0  0  0  0  0
  190.6020  174.1860  142.5310 C   0  0  2  0  0  3  0  0  0  0  0  0
  192.7880  172.7320  141.6470 C   0  0  2  0  0  3  0  0  0  0  0  0
  192.4890  176.6840  144.6490 C   0  0  1  0  0  3  0  0  0  0  0  0
  191.4170  172.2620  139.4290 C   0  0  2  0  0  0  0  0  0  0  0  0
  190.7440  173.8990  141.0480 C   0  0  2  0  0  3  0  0  0  0  0  0
  194.5360  171.3950  142.8840 C   0  0  0  0  0  2  0  0  0  0  0  0
  189.5490  173.7280  140.1330 C   0  0  0  0  0  2  0  0  0  0  0  0
  194.1890  171.0590  144.3280 C   0  0  0  0  0  2  0  0  0  0  0  0
  194.1170  172.8290  145.8750 O   0  0  0  0  0  0  0  0  0  0  0  0
  191.0010  176.1640  146.4780 O   0  0  0  0  0  1  0  0  0  0  0  0
  191.4760  172.5960  140.9090 C   0  0  2  0  0  3  0  0  0  0  0  0
  184.5470  178.5690  144.6490 O   0  0  0  0  0  0  0  0  0  0  0  0
  187.7100  177.3200  144.3900 C   0  0  1  0  0  3  0  0  0  0  0  0
  189.2240  177.3240  144.4870 C   0  0  2  0  0  0  0  0  0  0  0  0
  186.2830  176.4110  146.6800 C   0  0  0  0  0  2  0  0  0  0  0  0
  185.6350  178.3480  145.1480 C   0  0  0  0  0  0  0  0  0  0  0  0
  187.8260  176.3220  146.5620 C   0  0  0  0  0  2  0  0  0  0  0  0
  189.8230  178.5120  144.0750 O   0  0  0  0  0  1  0  0  0  0  0  0
  185.7020  177.8390  146.5770 C   0  0  0  0  0  2  0  0  0  0  0  0
  188.3910  177.4770  145.7480 C   0  0  2  0  0  3  0  0  0  0  0  0
  186.8840  178.5850  144.3260 C   0  0  0  0  0  2  0  0  0  0  0  0
  191.7110  170.8700  138.8790 C   0  0  0  0  0  2  0  0  0  0  0  0
  193.9810  171.4320  138.5620 O   0  0  0  0  0  0  0  0  0  0  0  0
  193.0010  170.8480  138.1230 C   0  0  0  0  0  0  0  0  0  0  0  0
  193.0750  170.1710  136.7940 C   0  0  0  0  0  2  0  0  0  0  0  0
  191.1240  170.2710  135.1010 C   0  0  0  0  0  1  0  0  0  0  0  0
  192.2840  170.9190  135.7760 C   0  0  0  0  0  0  0  0  0  0  0  0
  192.6130  172.0510  135.4650 O   0  0  0  0  0  0  0  0  0  0  0  0
  189.2540  172.1650  137.9710 C   0  0  0  0  0  2  0  0  0  0  0  0
  189.5700  173.5370  136.1000 C   0  0  0  0  0  2  0  0  0  0  0  0
  188.1080  175.5590  135.7850 C   0  0  0  0  0  2  0  0  0  0  0  0
  189.5390  175.0350  135.7550 C   0  0  0  0  0  2  0  0  0  0  0  0
  188.1910  174.2500  137.9670 C   0  0  0  0  0  2  0  0  0  0  0  0
  188.5820  173.1270  137.1120 N   0  0  0  0  0  0  0  0  0  0  0  0
  187.4440  175.3030  137.1460 C   0  0  0  0  0  2  0  0  0  0  0  0
  1  7  1  6  0  0  0
  1  4  1  0  0  0  0
  2 19  1  0  0  0  0
  3  9  1  0  0  0  0
  3 17  1  0  0  0  0
  4 27  1  6  0  0  0
  4 13  1  0  0  0  0
  5 11  1  1  0  0  0
  5  6  1  0  0  0  0
  6  8  1  0  0  0  0
  8 22  2  0  0  0  0
  9 42  1  6  0  0  0
  9 17  1  0  0  0  0
  9 20  1  0  0  0  0
 12 11  1  0  0  0  0
 12 16  1  0  0  0  0
 13 23  1  1  0  0  0
 14  1  1  0  0  0  0
 14  5  1  0  0  0  0
 15  2  1  0  0  0  0
 15  5  1  0  0  0  0
 16 13  1  0  0  0  0
 16 10  1  0  0  0  0
 17 24  1  0  0  0  0
 18 14  1  0  0  0  0
 19 21  1  0  0  0  0
 20 18  1  0  0  0  0
 21  8  1  0  0  0  0
 24 18  1  0  0  0  0
 24 15  1  0  0  0  0
 25 29  2  0  0  0  0
 26 27  1  0  0  0  0
 26 33  1  0  0  0  0
 27 33  1  0  0  0  0
 29 32  1  0  0  0  0
 30 28  1  0  0  0  0
 31 27  1  0  0  0  0
 32 28  1  0  0  0  0
 33 30  1  0  0  0  0
 34 26  1  0  0  0  0
 34 29  1  0  0  0  0
 35 17  1  0  0  0  0
 37 36  2  0  0  0  0
 37 35  1  0  0  0  0
 38 37  1  0  0  0  0
 39 40  1  0  0  0  0
 40 38  1  0  0  0  0
 41 40  2  0  0  0  0
 43 47  1  0  0  0  0
 44 48  1  0  0  0  0
 45 44  1  0  0  0  0
 45 43  1  0  0  0  0
 47 46  1  0  0  0  0
 47 42  1  0  0  0  0
 48 46  1  0  0  0  0
M  END
>  <MODEL>
7

>  <REMARK>
 VINA RESULT:      -6.9      2.473      8.446
  Name = 
  7 active torsions:
  status: ('A' for Active; 'I' for Inactive)
    1  A    between atoms: C_1  and  C_19
    2  A    between atoms: C_1  and  C_27
    3  A    between atoms: C_7  and  C_13
    4  A    between atoms: C_14  and  C_27
    5  A    between atoms: C_14  and  C_33
    6  A    between atoms: C_16  and  C_35
    7  A    between atoms: C_35  and  N_37
                            x       y       z     vdW  Elec       q    Type
                         _______ _______ _______ _____ _____    ______ ____

>  <TORSDO>
F 7

$$$$
=
 OpenBabel11062421483D

 48 55  0  0  1  0  0  0  0  0999 V2000
  192.7430  173.3160  143.7830 C   0  0  2  0  0  3  0  0  0  0  0  0
  188.1510  174.3300  141.2610 C   0  0  0  0  0  2  0  0  0  0  0  0
  189.3030  176.8040  144.8100 O   0  0  0  0  0  0  0  0  0  0  0  0
  193.4850  172.0710  143.2420 C   0  0  1  0  0  3  0  0  0  0  0  0
  190.7810  173.5410  141.7380 P   0  0  2  0  0  4  0  0  0  0  0  0
  190.1660  171.9850  141.0280 C   0  0  0  0  0  2  0  0  0  0  0  0
  192.9560  173.4260  145.1600 O   0  0  0  0  0  1  0  0  0  0  0  0
  189.7390  172.2100  139.6130 C   0  0  0  0  0  0  0  0  0  0  0  0
  189.0940  175.6500  145.6000 C   0  0  1  0  0  0  0  0  0  0  0  0
  194.1340  172.9320  139.5960 O   0  0  0  0  0  1  0  0  0  0  0  0
  192.0480  174.2650  140.6380 C   0  0  0  0  0  2  0  0  0  0  0  0
  193.3060  174.3290  141.2620 O   0  0  0  0  0  0  0  0  0  0  0  0
  193.4680  171.9290  141.7060 C   0  0  1  0  0  3  0  0  0  0  0  0
  191.2280  173.3070  143.5040 C   0  0  2  0  0  3  0  0  0  0  0  0
  189.4330  174.7550  141.9680 C   0  0  2  0  0  3  0  0  0  0  0  0
  194.0330  173.1530  140.9750 C   0  0  1  0  0  3  0  0  0  0  0  0
  188.5160  175.7760  144.2340 C   0  0  2  0  0  0  0  0  0  0  0  0
  190.5590  174.5280  144.1080 C   0  0  2  0  0  3  0  0  0  0  0  0
  188.3280  174.2610  139.7530 C   0  0  0  0  0  2  0  0  0  0  0  0
  190.2520  174.6410  145.5870 C   0  0  0  0  0  2  0  0  0  0  0  0
  188.4010  172.8080  139.3050 C   0  0  0  0  0  2  0  0  0  0  0  0
  190.5090  171.9540  138.7040 O   0  0  0  0  0  0  0  0  0  0  0  0
  194.1160  170.7630  141.3040 O   0  0  0  0  0  1  0  0  0  0  0  0
  189.2130  174.6700  143.4620 C   0  0  2  0  0  3  0  0  0  0  0  0
  196.5050  169.3180  147.7200 O   0  0  0  0  0  0  0  0  0  0  0  0
  194.9610  170.9980  145.1860 C   0  0  1  0  0  3  0  0  0  0  0  0
  194.8590  171.8180  143.9130 C   0  0  2  0  0  0  0  0  0  0  0  0
  194.9380  168.1660  144.8890 C   0  0  0  0  0  2  0  0  0  0  0  0
  196.3540  169.5180  146.5300 C   0  0  0  0  0  0  0  0  0  0  0  0
  194.6800  169.1370  143.7090 C   0  0  0  0  0  2  0  0  0  0  0  0
  195.8020  172.8380  143.8100 O   0  0  0  0  0  1  0  0  0  0  0  0
  196.3090  168.3320  145.5810 C   0  0  0  0  0  2  0  0  0  0  0  0
  195.4690  170.4270  143.8640 C   0  0  2  0  0  3  0  0  0  0  0  0
  196.2110  170.9410  146.0330 C   0  0  0  0  0  2  0  0  0  0  0  0
  187.0100  176.0160  144.1670 C   0  0  0  0  0  2  0  0  0  0  0  0
  186.9300  178.3590  143.8950 O   0  0  0  0  0  0  0  0  0  0  0  0
  186.6950  177.2640  143.4050 C   0  0  0  0  0  0  0  0  0  0  0  0
  186.0290  177.1740  142.0710 C   0  0  0  0  0  2  0  0  0  0  0  0
  186.5280  177.5400  139.5610 C   0  0  0  0  0  1  0  0  0  0  0  0
  186.9670  177.5770  140.9850 C   0  0  0  0  0  0  0  0  0  0  0  0
  188.1110  177.8970  141.2600 O   0  0  0  0  0  0  0  0  0  0  0  0
  188.2140  175.8720  146.8260 C   0  0  0  0  0  2  0  0  0  0  0  0
  188.2950  178.0730  147.6170 C   0  0  0  0  0  2  0  0  0  0  0  0
  186.1970  179.4600  147.6410 C   0  0  0  0  0  2  0  0  0  0  0  0
  187.4200  179.0320  148.4420 C   0  0  0  0  0  2  0  0  0  0  0  0
  186.1770  176.9460  147.2480 C   0  0  0  0  0  2  0  0  0  0  0  0
  187.5380  177.1560  146.7490 N   0  0  0  0  0  0  0  0  0  0  0  0
  185.3790  178.2480  147.1720 C   0  0  0  0  0  2  0  0  0  0  0  0
  1  7  1  1  0  0  0
  2 15  1  0  0  0  0
  3  9  1  0  0  0  0
  4  1  1  0  0  0  0
  4 27  1  6  0  0  0
  5 11  1  6  0  0  0
  5 15  1  0  0  0  0
  5 14  1  0  0  0  0
  6  5  1  0  0  0  0
  8  6  1  0  0  0  0
  9 42  1  1  0  0  0
 10 16  1  0  0  0  0
 11 12  1  0  0  0  0
 13 23  1  1  0  0  0
 13  4  1  0  0  0  0
 14  1  1  0  0  0  0
 14 18  1  0  0  0  0
 15 24  1  0  0  0  0
 16 12  1  0  0  0  0
 16 13  1  0  0  0  0
 17  3  1  0  0  0  0
 17  9  1  0  0  0  0
 18 20  1  0  0  0  0
 19  2  1  0  0  0  0
 20  9  1  0  0  0  0
 21  8  1  0  0  0  0
 21 19  1  0  0  0  0
 22  8  2  0  0  0  0
 24 18  1  0  0  0  0
 24 17  1  0  0  0  0
 26 34  1  0  0  0  0
 27 26  1  0  0  0  0
 28 32  1  0  0  0  0
 29 25  2  0  0  0  0
 30 33  1  0  0  0  0
 30 28  1  0  0  0  0
 31 27  1  0  0  0  0
 32 29  1  0  0  0  0
 33 27  1  0  0  0  0
 33 26  1  0  0  0  0
 34 29  1  0  0  0  0
 35 17  1  0  0  0  0
 37 36  2  0  0  0  0
 37 35  1  0  0  0  0
 38 37  1  0  0  0  0
 39 40  1  0  0  0  0
 40 41  2  0  0  0  0
 40 38  1  0  0  0  0
 43 45  1  0  0  0  0
 44 45  1  0  0  0  0
 47 42  1  0  0  0  0
 47 46  1  0  0  0  0
 47 43  1  0  0  0  0
 48 46  1  0  0  0  0
 48 44  1  0  0  0  0
M  END
>  <MODEL>
8

>  <REMARK>
 VINA RESULT:      -6.9      2.545      6.471
  Name = 
  7 active torsions:
  status: ('A' for Active; 'I' for Inactive)
    1  A    between atoms: C_1  and  C_19
    2  A    between atoms: C_1  and  C_27
    3  A    between atoms: C_7  and  C_13
    4  A    between atoms: C_14  and  C_27
    5  A    between atoms: C_14  and  C_33
    6  A    between atoms: C_16  and  C_35
    7  A    between atoms: C_35  and  N_37
                            x       y       z     vdW  Elec       q    Type
                         _______ _______ _______ _____ _____    ______ ____

>  <TORSDO>
F 7

$$$$
=
 OpenBabel11062421483D

 48 55  0  0  1  0  0  0  0  0999 V2000
  191.6890  174.4840  142.8010 C   0  0  2  0  0  3  0  0  0  0  0  0
  196.6260  174.2690  140.7890 C   0  0  0  0  0  2  0  0  0  0  0  0
  193.1530  174.8810  138.0310 O   0  0  0  0  0  0  0  0  0  0  0  0
  191.6260  174.1960  144.3200 C   0  0  1  0  0  3  0  0  0  0  0  0
  194.5110  174.7150  142.5470 P   0  0  2  0  0  4  0  0  0  0  0  0
  195.5130  173.6360  143.6120 C   0  0  0  0  0  2  0  0  0  0  0  0
  190.5360  173.9910  142.1830 O   0  0  0  0  0  1  0  0  0  0  0  0
  196.8250  174.2900  143.9020 C   0  0  0  0  0  0  0  0  0  0  0  0
  192.7690  173.5530  138.3260 C   0  0  1  0  0  0  0  0  0  0  0  0
  193.7980  176.9220  145.8370 O   0  0  0  0  0  1  0  0  0  0  0  0
  194.4130  176.3880  143.2780 C   0  0  0  0  0  2  0  0  0  0  0  0
  193.0950  176.7290  143.6270 O   0  0  0  0  0  0  0  0  0  0  0  0
  192.7610  174.8380  145.1440 C   0  0  1  0  0  3  0  0  0  0  0  0
  192.9290  173.8920  142.1070 C   0  0  2  0  0  3  0  0  0  0  0  0
  195.2160  174.8430  140.8650 C   0  0  2  0  0  3  0  0  0  0  0  0
  192.8550  176.3590  144.9690 C   0  0  1  0  0  3  0  0  0  0  0  0
  194.1530  174.0390  138.5760 C   0  0  2  0  0  0  0  0  0  0  0  0
  192.8970  174.1660  140.6150 C   0  0  2  0  0  3  0  0  0  0  0  0
  197.6050  175.0430  141.6570 C   0  0  0  0  0  2  0  0  0  0  0  0
  192.0270  173.3760  139.6590 C   0  0  0  0  0  2  0  0  0  0  0  0
  197.9410  174.2390  142.9050 C   0  0  0  0  0  2  0  0  0  0  0  0
  196.9700  174.9170  144.9360 O   0  0  0  0  0  0  0  0  0  0  0  0
  192.6570  174.4940  146.4900 O   0  0  0  0  0  1  0  0  0  0  0  0
  194.2840  173.9450  140.0860 C   0  0  2  0  0  3  0  0  0  0  0  0
  187.7510  177.7220  147.3710 O   0  0  0  0  0  0  0  0  0  0  0  0
  189.8210  175.5780  145.7120 C   0  0  1  0  0  3  0  0  0  0  0  0
  190.2070  174.3380  144.9280 C   0  0  2  0  0  0  0  0  0  0  0  0
  189.0570  177.8660  144.1980 C   0  0  0  0  0  2  0  0  0  0  0  0
  188.0070  177.0610  146.3830 C   0  0  0  0  0  0  0  0  0  0  0  0
  189.6320  176.5810  143.5480 C   0  0  0  0  0  2  0  0  0  0  0  0
  189.5950  173.1670  145.3670 O   0  0  0  0  0  1  0  0  0  0  0  0
  187.7590  177.6610  145.0090 C   0  0  0  0  0  2  0  0  0  0  0  0
  189.2320  175.3360  144.3240 C   0  0  2  0  0  3  0  0  0  0  0  0
  188.5670  175.6660  146.5530 C   0  0  0  0  0  2  0  0  0  0  0  0
  195.2230  173.5280  137.6150 C   0  0  0  0  0  2  0  0  0  0  0  0
  196.6850  175.3810  137.6410 O   0  0  0  0  0  0  0  0  0  0  0  0
  195.9580  174.6610  136.9730 C   0  0  0  0  0  0  0  0  0  0  0  0
  195.7500  174.9570  135.5230 C   0  0  0  0  0  2  0  0  0  0  0  0
  194.1020  176.9330  135.2730 C   0  0  0  0  0  1  0  0  0  0  0  0
  195.4970  176.4110  135.3130 C   0  0  0  0  0  0  0  0  0  0  0  0
  196.4350  177.1690  135.1310 O   0  0  0  0  0  0  0  0  0  0  0  0
  192.4710  172.6920  137.1020 C   0  0  0  0  0  2  0  0  0  0  0  0
  192.7600  170.3860  136.8240 C   0  0  0  0  0  2  0  0  0  0  0  0
  190.8150  168.8380  137.2130 C   0  0  0  0  0  2  0  0  0  0  0  0
  191.9680  169.1850  136.2780 C   0  0  0  0  0  2  0  0  0  0  0  0
  190.5460  171.3620  137.0290 C   0  0  0  0  0  2  0  0  0  0  0  0
  191.9330  171.4010  137.4980 N   0  0  0  0  0  0  0  0  0  0  0  0
  189.8880  170.0420  137.4350 C   0  0  0  0  0  2  0  0  0  0  0  0
  1  7  1  6  0  0  0
  1  4  1  0  0  0  0
  2 15  1  0  0  0  0
  2 19  1  0  0  0  0
  3  9  1  0  0  0  0
  3 17  1  0  0  0  0
  4 27  1  1  0  0  0
  4 13  1  0  0  0  0
  5 11  1  1  0  0  0
  5  6  1  0  0  0  0
  6  8  1  0  0  0  0
  8 22  2  0  0  0  0
  9 42  1  6  0  0  0
  9 17  1  0  0  0  0
  9 20  1  0  0  0  0
 11 12  1  0  0  0  0
 12 16  1  0  0  0  0
 13 23  1  1  0  0  0
 14  5  1  0  0  0  0
 14  1  1  0  0  0  0
 15  5  1  0  0  0  0
 16 13  1  0  0  0  0
 16 10  1  0  0  0  0
 17 24  1  0  0  0  0
 18 14  1  0  0  0  0
 19 21  1  0  0  0  0
 20 18  1  0  0  0  0
 21  8  1  0  0  0  0
 24 18  1  0  0  0  0
 24 15  1  0  0  0  0
 26 34  1  0  0  0  0
 27 31  1  0  0  0  0
 27 26  1  0  0  0  0
 28 32  1  0  0  0  0
 29 34  1  0  0  0  0
 29 25  2  0  0  0  0
 30 28  1  0  0  0  0
 30 33  1  0  0  0  0
 32 29  1  0  0  0  0
 33 27  1  0  0  0  0
 33 26  1  0  0  0  0
 35 17  1  0  0  0  0
 37 35  1  0  0  0  0
 37 36  2  0  0  0  0
 38 37  1  0  0  0  0
 39 40  1  0  0  0  0
 40 38  1  0  0  0  0
 41 40  2  0  0  0  0
 42 47  1  0  0  0  0
 43 47  1  0  0  0  0
 44 48  1  0  0  0  0
 45 43  1  0  0  0  0
 45 44  1  0  0  0  0
 46 48  1  0  0  0  0
 46 47  1  0  0  0  0
M  END
>  <MODEL>
9

>  <REMARK>
 VINA RESULT:      -6.6      3.441      9.056
  Name = 
  7 active torsions:
  status: ('A' for Active; 'I' for Inactive)
    1  A    between atoms: C_1  and  C_19
    2  A    between atoms: C_1  and  C_27
    3  A    between atoms: C_7  and  C_13
    4  A    between atoms: C_14  and  C_27
    5  A    between atoms: C_14  and  C_33
    6  A    between atoms: C_16  and  C_35
    7  A    between atoms: C_35  and  N_37
                            x       y       z     vdW  Elec       q    Type
                         _______ _______ _______ _____ _____    ______ ____

>  <TORSDO>
F 7

$$$$
