=
 OpenBabel11072408323D

 26 29  0  0  1  0  0  0  0  0999 V2000
  186.7260  177.3560  139.8070 C   0  0  0  0  0  1  0  0  0  0  0  0
  183.7050  178.2920  141.4760 C   0  0  0  0  0  0  0  0  0  0  0  0
  185.6520  177.8790  140.6930 C   0  0  0  0  0  0  0  0  0  0  0  0
  182.2210  178.3160  141.5930 C   0  0  0  0  0  1  0  0  0  0  0  0
  184.5430  178.3730  142.5260 N   0  0  0  0  0  0  0  0  0  0  0  0
  186.6330  177.5430  143.0660 C   0  0  0  0  0  2  0  0  0  0  0  0
  186.3510  177.4220  145.5360 C   0  0  0  0  0  0  0  0  0  0  0  0
  185.7390  178.0730  142.0500 C   0  0  0  0  0  0  0  0  0  0  0  0
  184.4410  177.9160  143.8940 C   0  0  2  0  0  3  0  0  0  0  0  0
  184.6640  179.0910  146.0240 N   0  0  0  0  0  0  0  0  0  0  0  0
  184.3570  178.0140  140.3180 N   0  0  0  0  0  0  0  0  0  0  0  0
  185.7420  178.2150  146.4260 C   0  0  0  0  0  3  0  0  0  0  0  0
  184.0840  179.0160  144.8540 C   0  0  0  0  0  3  0  0  0  0  0  0
  185.8590  177.4770  144.1560 C   0  0  1  0  0  3  0  0  0  0  0  0
  187.7240  176.3830  146.0390 S   0  0  0  0  0  0  0  0  0  0  0  0
  192.9330  177.1150  143.8660 O   0  0  0  0  0  1  0  0  0  0  0  0
  188.9530  175.3450  143.3930 F   0  0  0  0  0  0  0  0  0  0  0  0
  191.7740  177.3980  143.1330 C   0  0  1  0  0  3  0  0  0  0  0  0
  188.9560  177.5420  145.4330 C   0  0  0  0  0  3  0  0  0  0  0  0
  190.7030  174.9570  144.9620 C   0  0  0  0  0  1  0  0  0  0  0  0
  190.1180  175.8890  143.8970 C   0  0  1  0  0  0  0  0  0  0  0  0
  191.0450  176.1650  142.7870 N   0  0  0  0  0  0  0  0  0  0  0  0
  190.8410  178.2290  143.9990 C   0  0  0  0  0  2  0  0  0  0  0  0
  189.8700  177.2320  144.5020 C   0  0  0  0  0  0  0  0  0  0  0  0
  191.9290  175.0480  142.4400 C   0  0  0  0  0  2  0  0  0  0  0  0
  191.2990  174.2210  141.5110 O   0  0  0  0  0  1  0  0  0  0  0  0
  1  3  1  0  0  0  0
  2  4  1  0  0  0  0
  2  5  1  0  0  0  0
  3  8  2  0  0  0  0
  5  9  1  0  0  0  0
  7 15  1  0  0  0  0
  7 12  2  0  0  0  0
  8  5  1  0  0  0  0
  8  6  1  0  0  0  0
  9 14  1  0  0  0  0
  9 13  1  1  0  0  0
 10 12  1  0  0  0  0
 11  3  1  0  0  0  0
 11  2  2  0  0  0  0
 13 10  2  0  0  0  0
 14  6  1  6  0  0  0
 14  7  1  0  0  0  0
 17 21  1  0  0  0  0
 18 16  1  1  0  0  0
 18 23  1  0  0  0  0
 19 15  1  0  0  0  0
 21 24  1  0  0  0  0
 21 20  1  1  0  0  0
 22 18  1  0  0  0  0
 22 21  1  0  0  0  0
 23 24  1  0  0  0  0
 24 19  2  0  0  0  0
 25 22  1  0  0  0  0
 26 25  1  0  0  0  0
M  END
>  <MODEL>
1

>  <REMARK>
 VINA RESULT:      -7.4      0.000      0.000
  Name = 
  3 active torsions:
  status: ('A' for Active; 'I' for Inactive)
    1  A    between atoms: C_3  and  N_23
    2  A    between atoms: C_10  and  S_19
    3  A    between atoms: C_13  and  S_19
                            x       y       z     vdW  Elec       q    Type
                         _______ _______ _______ _____ _____    ______ ____

>  <TORSDO>
F 3

$$$$
=
 OpenBabel11072408323D

 26 29  0  0  1  0  0  0  0  0999 V2000
  184.9280  178.6430  147.2680 C   0  0  0  0  0  1  0  0  0  0  0  0
  184.7410  177.9470  143.7660 C   0  0  0  0  0  0  0  0  0  0  0  0
  184.9900  178.1020  145.8840 C   0  0  0  0  0  0  0  0  0  0  0  0
  184.3290  178.2900  142.3770 C   0  0  0  0  0  1  0  0  0  0  0  0
  185.7950  177.1670  144.0650 N   0  0  0  0  0  0  0  0  0  0  0  0
  187.3470  177.0360  145.7750 C   0  0  0  0  0  2  0  0  0  0  0  0
  189.2500  176.1000  144.4720 C   0  0  0  0  0  0  0  0  0  0  0  0
  185.9770  177.2990  145.3670 C   0  0  0  0  0  0  0  0  0  0  0  0
  187.0740  176.9630  143.4200 C   0  0  2  0  0  3  0  0  0  0  0  0
  188.1920  174.9420  142.6250 N   0  0  0  0  0  0  0  0  0  0  0  0
  184.1980  178.5230  144.8690 N   0  0  0  0  0  0  0  0  0  0  0  0
  189.3250  175.1980  143.4850 C   0  0  0  0  0  3  0  0  0  0  0  0
  187.1250  175.6980  142.6090 C   0  0  0  0  0  3  0  0  0  0  0  0
  187.9790  176.8170  144.6150 C   0  0  1  0  0  3  0  0  0  0  0  0
  190.6460  176.3650  145.5650 S   0  0  0  0  0  0  0  0  0  0  0  0
  196.1050  176.5610  143.9660 O   0  0  0  0  0  1  0  0  0  0  0  0
  192.9120  174.2830  145.9190 F   0  0  0  0  0  0  0  0  0  0  0  0
  195.2700  175.4880  143.6320 C   0  0  1  0  0  3  0  0  0  0  0  0
  191.8170  176.4880  144.2080 C   0  0  0  0  0  3  0  0  0  0  0  0
  193.9970  176.3280  146.4820 C   0  0  0  0  0  1  0  0  0  0  0  0
  193.7080  175.2850  145.3990 C   0  0  1  0  0  0  0  0  0  0  0  0
  194.9230  174.6880  144.8200 N   0  0  0  0  0  0  0  0  0  0  0  0
  193.9650  176.0410  143.0820 C   0  0  0  0  0  2  0  0  0  0  0  0
  193.0460  175.9530  144.2380 C   0  0  0  0  0  0  0  0  0  0  0  0
  196.0360  174.5400  145.7630 C   0  0  0  0  0  2  0  0  0  0  0  0
  196.4060  173.1980  145.8470 O   0  0  0  0  0  1  0  0  0  0  0  0
  2  5  1  0  0  0  0
  2 11  2  0  0  0  0
  3  1  1  0  0  0  0
  4  2  1  0  0  0  0
  5  8  1  0  0  0  0
  7 14  1  0  0  0  0
  7 15  1  0  0  0  0
  8  6  1  0  0  0  0
  8  3  2  0  0  0  0
  9 13  1  6  0  0  0
  9  5  1  0  0  0  0
  9 14  1  0  0  0  0
 10 12  1  0  0  0  0
 11  3  1  0  0  0  0
 12  7  2  0  0  0  0
 13 10  2  0  0  0  0
 14  6  1  1  0  0  0
 18 16  1  1  0  0  0
 18 22  1  0  0  0  0
 19 24  2  0  0  0  0
 19 15  1  0  0  0  0
 21 17  1  0  0  0  0
 21 20  1  1  0  0  0
 22 21  1  0  0  0  0
 22 25  1  0  0  0  0
 23 18  1  0  0  0  0
 23 24  1  0  0  0  0
 24 21  1  0  0  0  0
 25 26  1  0  0  0  0
M  END
>  <MODEL>
2

>  <REMARK>
 VINA RESULT:      -7.2      2.800      4.340
  Name = 
  3 active torsions:
  status: ('A' for Active; 'I' for Inactive)
    1  A    between atoms: C_3  and  N_23
    2  A    between atoms: C_10  and  S_19
    3  A    between atoms: C_13  and  S_19
                            x       y       z     vdW  Elec       q    Type
                         _______ _______ _______ _____ _____    ______ ____

>  <TORSDO>
F 3

$$$$
=
 OpenBabel11072408323D

 26 29  0  0  1  0  0  0  0  0999 V2000
  187.0530  177.5620  140.3420 C   0  0  0  0  0  1  0  0  0  0  0  0
  185.0940  178.4980  143.1820 C   0  0  0  0  0  0  0  0  0  0  0  0
  186.5010  177.9870  141.6560 C   0  0  0  0  0  0  0  0  0  0  0  0
  183.7900  178.7590  143.8530 C   0  0  0  0  0  1  0  0  0  0  0  0
  186.2070  178.1110  143.8310 N   0  0  0  0  0  0  0  0  0  0  0  0
  188.0450  176.7910  143.3560 C   0  0  0  0  0  2  0  0  0  0  0  0
  188.5340  175.9980  145.6640 C   0  0  0  0  0  0  0  0  0  0  0  0
  187.0600  177.7520  142.8880 C   0  0  0  0  0  0  0  0  0  0  0  0
  186.4190  177.2960  145.0070 C   0  0  2  0  0  3  0  0  0  0  0  0
  187.6160  177.7270  147.0910 N   0  0  0  0  0  0  0  0  0  0  0  0
  185.2440  178.4610  141.8340 N   0  0  0  0  0  0  0  0  0  0  0  0
  188.4790  176.5900  146.8640 C   0  0  0  0  0  3  0  0  0  0  0  0
  186.7010  178.1090  146.2400 C   0  0  0  0  0  3  0  0  0  0  0  0
  187.6670  176.5470  144.6160 C   0  0  1  0  0  3  0  0  0  0  0  0
  189.6510  174.6240  145.3820 S   0  0  0  0  0  0  0  0  0  0  0  0
  195.2400  175.3120  146.2050 O   0  0  0  0  0  1  0  0  0  0  0  0
  191.7870  175.9740  143.5910 F   0  0  0  0  0  0  0  0  0  0  0  0
  194.3980  176.3840  145.8830 C   0  0  1  0  0  3  0  0  0  0  0  0
  190.9490  175.3380  146.3990 C   0  0  0  0  0  3  0  0  0  0  0  0
  192.8950  173.9920  144.3120 C   0  0  0  0  0  1  0  0  0  0  0  0
  192.6680  175.4890  144.5380 C   0  0  1  0  0  0  0  0  0  0  0  0
  193.9080  176.2830  144.4980 N   0  0  0  0  0  0  0  0  0  0  0  0
  193.1740  176.3270  146.7840 C   0  0  0  0  0  2  0  0  0  0  0  0
  192.1470  175.7040  145.9210 C   0  0  0  0  0  0  0  0  0  0  0  0
  194.9200  175.7830  143.5620 C   0  0  0  0  0  2  0  0  0  0  0  0
  194.6700  176.2890  142.2860 O   0  0  0  0  0  1  0  0  0  0  0  0
  1  3  1  0  0  0  0
  2  5  1  0  0  0  0
  2  4  1  0  0  0  0
  3 11  1  0  0  0  0
  3  8  2  0  0  0  0
  5  9  1  0  0  0  0
  7 12  2  0  0  0  0
  8  6  1  0  0  0  0
  8  5  1  0  0  0  0
  9 13  1  1  0  0  0
 11  2  2  0  0  0  0
 12 10  1  0  0  0  0
 13 10  2  0  0  0  0
 14  6  1  1  0  0  0
 14  9  1  0  0  0  0
 14  7  1  0  0  0  0
 15  7  1  0  0  0  0
 15 19  1  0  0  0  0
 17 21  1  0  0  0  0
 18 16  1  1  0  0  0
 18 23  1  0  0  0  0
 21 20  1  6  0  0  0
 21 24  1  0  0  0  0
 22 21  1  0  0  0  0
 22 18  1  0  0  0  0
 24 19  2  0  0  0  0
 24 23  1  0  0  0  0
 25 22  1  0  0  0  0
 26 25  1  0  0  0  0
M  END
>  <MODEL>
3

>  <REMARK>
 VINA RESULT:      -7.1      2.274      2.834
  Name = 
  3 active torsions:
  status: ('A' for Active; 'I' for Inactive)
    1  A    between atoms: C_3  and  N_23
    2  A    between atoms: C_10  and  S_19
    3  A    between atoms: C_13  and  S_19
                            x       y       z     vdW  Elec       q    Type
                         _______ _______ _______ _____ _____    ______ ____

>  <TORSDO>
F 3

$$$$
=
 OpenBabel11072408323D

 26 29  0  0  1  0  0  0  0  0999 V2000
  184.2730  179.0390  145.7370 C   0  0  0  0  0  1  0  0  0  0  0  0
  184.4360  178.1190  142.2860 C   0  0  0  0  0  0  0  0  0  0  0  0
  184.5250  178.4440  144.3970 C   0  0  0  0  0  0  0  0  0  0  0  0
  184.0430  178.2890  140.8600 C   0  0  0  0  0  1  0  0  0  0  0  0
  185.6090  177.5950  142.6840 N   0  0  0  0  0  0  0  0  0  0  0  0
  187.0530  177.8890  144.4660 C   0  0  0  0  0  2  0  0  0  0  0  0
  189.1800  177.2970  143.3160 C   0  0  0  0  0  0  0  0  0  0  0  0
  185.6850  177.8360  143.9810 C   0  0  0  0  0  0  0  0  0  0  0  0
  186.9370  177.6260  142.1120 C   0  0  2  0  0  3  0  0  0  0  0  0
  188.4910  175.8410  141.5070 N   0  0  0  0  0  0  0  0  0  0  0  0
  183.7230  178.6310  143.3210 N   0  0  0  0  0  0  0  0  0  0  0  0
  189.4960  176.3760  142.3970 C   0  0  0  0  0  3  0  0  0  0  0  0
  187.2940  176.3550  141.3920 C   0  0  0  0  0  3  0  0  0  0  0  0
  187.7830  177.7410  143.3540 C   0  0  1  0  0  3  0  0  0  0  0  0
  190.4260  177.9100  144.4500 S   0  0  0  0  0  0  0  0  0  0  0  0
  193.4920  173.1170  144.3180 O   0  0  0  0  0  1  0  0  0  0  0  0
  193.4630  177.4640  144.8680 F   0  0  0  0  0  0  0  0  0  0  0  0
  193.5480  174.0070  145.3980 C   0  0  1  0  0  3  0  0  0  0  0  0
  190.7200  176.2880  145.1640 C   0  0  0  0  0  3  0  0  0  0  0  0
  192.9920  176.0830  142.9840 C   0  0  0  0  0  1  0  0  0  0  0  0
  193.1670  176.1640  144.5030 C   0  0  1  0  0  0  0  0  0  0  0  0
  194.2130  175.2660  145.0210 N   0  0  0  0  0  0  0  0  0  0  0  0
  192.1280  174.3670  145.8050 C   0  0  0  0  0  2  0  0  0  0  0  0
  191.9190  175.6860  145.1690 C   0  0  0  0  0  0  0  0  0  0  0  0
  195.3510  175.0720  144.1170 C   0  0  0  0  0  2  0  0  0  0  0  0
  196.2380  176.1400  144.2410 O   0  0  0  0  0  1  0  0  0  0  0  0
  2  5  1  0  0  0  0
  2 11  2  0  0  0  0
  3  1  1  0  0  0  0
  4  2  1  0  0  0  0
  5  8  1  0  0  0  0
  7 14  1  0  0  0  0
  7 15  1  0  0  0  0
  8  3  2  0  0  0  0
  8  6  1  0  0  0  0
  9 13  1  1  0  0  0
  9  5  1  0  0  0  0
  9 14  1  0  0  0  0
 10 12  1  0  0  0  0
 11  3  1  0  0  0  0
 12  7  2  0  0  0  0
 13 10  2  0  0  0  0
 14  6  1  1  0  0  0
 15 19  1  0  0  0  0
 18 16  1  6  0  0  0
 18 23  1  0  0  0  0
 19 24  2  0  0  0  0
 21 20  1  6  0  0  0
 21 17  1  0  0  0  0
 21 22  1  0  0  0  0
 21 24  1  0  0  0  0
 22 18  1  0  0  0  0
 24 23  1  0  0  0  0
 25 26  1  0  0  0  0
 25 22  1  0  0  0  0
M  END
>  <MODEL>
4

>  <REMARK>
 VINA RESULT:      -7.0      2.376      3.974
  Name = 
  3 active torsions:
  status: ('A' for Active; 'I' for Inactive)
    1  A    between atoms: C_3  and  N_23
    2  A    between atoms: C_10  and  S_19
    3  A    between atoms: C_13  and  S_19
                            x       y       z     vdW  Elec       q    Type
                         _______ _______ _______ _____ _____    ______ ____

>  <TORSDO>
F 3

$$$$
=
 OpenBabel11072408323D

 26 29  0  0  1  0  0  0  0  0999 V2000
  185.2630  177.9140  141.4560 C   0  0  0  0  0  1  0  0  0  0  0  0
  184.7800  178.5120  144.9480 C   0  0  0  0  0  0  0  0  0  0  0  0
  185.3570  178.1930  142.9140 C   0  0  0  0  0  0  0  0  0  0  0  0
  183.9120  178.6640  146.1480 C   0  0  0  0  0  1  0  0  0  0  0  0
  186.0600  178.1010  144.9950 N   0  0  0  0  0  0  0  0  0  0  0  0
  187.4790  176.8920  143.6260 C   0  0  0  0  0  2  0  0  0  0  0  0
  188.9300  175.9000  145.3880 C   0  0  0  0  0  0  0  0  0  0  0  0
  186.4020  177.8600  143.7410 C   0  0  0  0  0  0  0  0  0  0  0  0
  186.7600  177.1850  145.8670 C   0  0  2  0  0  3  0  0  0  0  0  0
  188.7640  177.4550  147.2380 N   0  0  0  0  0  0  0  0  0  0  0  0
  184.3160  178.6070  143.6760 N   0  0  0  0  0  0  0  0  0  0  0  0
  189.4210  176.3730  146.5400 C   0  0  0  0  0  3  0  0  0  0  0  0
  187.5710  177.8860  146.9220 C   0  0  0  0  0  3  0  0  0  0  0  0
  187.6960  176.5170  144.8930 C   0  0  1  0  0  3  0  0  0  0  0  0
  189.7880  174.5950  144.5050 S   0  0  0  0  0  0  0  0  0  0  0  0
  194.9130  176.9690  145.2050 O   0  0  0  0  0  1  0  0  0  0  0  0
  192.5910  173.2900  144.6800 F   0  0  0  0  0  0  0  0  0  0  0  0
  194.6430  176.0760  144.1600 C   0  0  1  0  0  3  0  0  0  0  0  0
  191.0330  175.7150  143.8540 C   0  0  0  0  0  3  0  0  0  0  0  0
  192.6630  174.9050  146.4310 C   0  0  0  0  0  1  0  0  0  0  0  0
  193.0040  174.5760  144.9750 C   0  0  1  0  0  0  0  0  0  0  0  0
  194.4380  174.7080  144.6650 N   0  0  0  0  0  0  0  0  0  0  0  0
  193.3440  176.4940  143.4890 C   0  0  0  0  0  2  0  0  0  0  0  0
  192.3470  175.5740  144.0780 C   0  0  0  0  0  0  0  0  0  0  0  0
  195.3340  174.3580  145.7700 C   0  0  0  0  0  2  0  0  0  0  0  0
  196.0570  173.2110  145.4450 O   0  0  0  0  0  1  0  0  0  0  0  0
  1  3  1  0  0  0  0
  2  5  1  0  0  0  0
  2  4  1  0  0  0  0
  3 11  1  0  0  0  0
  3  8  2  0  0  0  0
  5  9  1  0  0  0  0
  6  8  1  0  0  0  0
  7 12  2  0  0  0  0
  8  5  1  0  0  0  0
  9 13  1  1  0  0  0
 11  2  2  0  0  0  0
 12 10  1  0  0  0  0
 13 10  2  0  0  0  0
 14  6  1  6  0  0  0
 14  7  1  0  0  0  0
 14  9  1  0  0  0  0
 15  7  1  0  0  0  0
 17 21  1  0  0  0  0
 18 22  1  0  0  0  0
 18 16  1  1  0  0  0
 19 24  2  0  0  0  0
 19 15  1  0  0  0  0
 21 20  1  1  0  0  0
 22 21  1  0  0  0  0
 22 25  1  0  0  0  0
 23 24  1  0  0  0  0
 23 18  1  0  0  0  0
 24 21  1  0  0  0  0
 26 25  1  0  0  0  0
M  END
>  <MODEL>
5

>  <REMARK>
 VINA RESULT:      -6.7      2.606      3.522
  Name = 
  3 active torsions:
  status: ('A' for Active; 'I' for Inactive)
    1  A    between atoms: C_3  and  N_23
    2  A    between atoms: C_10  and  S_19
    3  A    between atoms: C_13  and  S_19
                            x       y       z     vdW  Elec       q    Type
                         _______ _______ _______ _____ _____    ______ ____

>  <TORSDO>
F 3

$$$$
=
 OpenBabel11072408323D

 26 29  0  0  1  0  0  0  0  0999 V2000
  185.6910  177.9960  148.0210 C   0  0  0  0  0  1  0  0  0  0  0  0
  185.3010  177.5980  144.4890 C   0  0  0  0  0  0  0  0  0  0  0  0
  185.6930  177.5860  146.5910 C   0  0  0  0  0  0  0  0  0  0  0  0
  184.7630  178.0260  143.1690 C   0  0  0  0  0  1  0  0  0  0  0  0
  186.4330  176.8860  144.6430 N   0  0  0  0  0  0  0  0  0  0  0  0
  188.1120  176.7370  146.2260 C   0  0  0  0  0  2  0  0  0  0  0  0
  189.9810  176.0840  144.7180 C   0  0  0  0  0  0  0  0  0  0  0  0
  186.6990  176.9180  145.9370 C   0  0  0  0  0  0  0  0  0  0  0  0
  187.6720  176.8500  143.8990 C   0  0  2  0  0  3  0  0  0  0  0  0
  188.8840  175.0080  142.8450 N   0  0  0  0  0  0  0  0  0  0  0  0
  184.7980  178.0260  145.6740 N   0  0  0  0  0  0  0  0  0  0  0  0
  190.0540  175.2820  143.6490 C   0  0  0  0  0  3  0  0  0  0  0  0
  187.7630  175.6690  142.9710 C   0  0  0  0  0  3  0  0  0  0  0  0
  188.6720  176.6750  145.0130 C   0  0  1  0  0  3  0  0  0  0  0  0
  191.4290  176.3690  145.7380 S   0  0  0  0  0  0  0  0  0  0  0  0
  195.2860  172.7050  143.7150 O   0  0  0  0  0  1  0  0  0  0  0  0
  194.4760  176.1800  146.2580 F   0  0  0  0  0  0  0  0  0  0  0  0
  195.1410  172.9510  145.0860 C   0  0  1  0  0  3  0  0  0  0  0  0
  191.9710  174.6590  145.6240 C   0  0  0  0  0  3  0  0  0  0  0  0
  194.3330  175.8490  143.9020 C   0  0  0  0  0  1  0  0  0  0  0  0
  194.4280  175.1990  145.2860 C   0  0  1  0  0  0  0  0  0  0  0  0
  195.5920  174.3090  145.4370 N   0  0  0  0  0  0  0  0  0  0  0  0
  193.6640  172.8760  145.4390 C   0  0  0  0  0  2  0  0  0  0  0  0
  193.2550  174.2970  145.4870 C   0  0  0  0  0  0  0  0  0  0  0  0
  196.7820  174.7340  144.6950 C   0  0  0  0  0  2  0  0  0  0  0  0
  197.9190  174.1560  145.2600 O   0  0  0  0  0  1  0  0  0  0  0  0
  2  5  1  0  0  0  0
  2 11  2  0  0  0  0
  3  1  1  0  0  0  0
  4  2  1  0  0  0  0
  5  8  1  0  0  0  0
  7 14  1  0  0  0  0
  7 15  1  0  0  0  0
  8  6  1  0  0  0  0
  8  3  2  0  0  0  0
  9 13  1  6  0  0  0
  9  5  1  0  0  0  0
  9 14  1  0  0  0  0
 10 13  2  0  0  0  0
 10 12  1  0  0  0  0
 11  3  1  0  0  0  0
 12  7  2  0  0  0  0
 14  6  1  1  0  0  0
 18 16  1  6  0  0  0
 18 22  1  0  0  0  0
 18 23  1  0  0  0  0
 19 15  1  0  0  0  0
 21 20  1  6  0  0  0
 21 22  1  0  0  0  0
 21 24  1  0  0  0  0
 21 17  1  0  0  0  0
 23 24  1  0  0  0  0
 24 19  2  0  0  0  0
 25 26  1  0  0  0  0
 25 22  1  0  0  0  0
M  END
>  <MODEL>
6

>  <REMARK>
 VINA RESULT:      -6.6      3.233      5.124
  Name = 
  3 active torsions:
  status: ('A' for Active; 'I' for Inactive)
    1  A    between atoms: C_3  and  N_23
    2  A    between atoms: C_10  and  S_19
    3  A    between atoms: C_13  and  S_19
                            x       y       z     vdW  Elec       q    Type
                         _______ _______ _______ _____ _____    ______ ____

>  <TORSDO>
F 3

$$$$
=
 OpenBabel11072408323D

 26 29  0  0  1  0  0  0  0  0999 V2000
  188.0090  174.1930  138.0880 C   0  0  0  0  0  1  0  0  0  0  0  0
  189.8180  171.7980  140.0310 C   0  0  0  0  0  0  0  0  0  0  0  0
  188.5900  173.2920  139.1190 C   0  0  0  0  0  0  0  0  0  0  0  0
  190.8400  170.7250  140.1770 C   0  0  0  0  0  1  0  0  0  0  0  0
  189.4410  172.6160  141.0300 N   0  0  0  0  0  0  0  0  0  0  0  0
  188.7200  174.8060  141.2160 C   0  0  0  0  0  2  0  0  0  0  0  0
  189.5830  175.2830  143.5010 C   0  0  0  0  0  0  0  0  0  0  0  0
  188.7200  173.5650  140.4590 C   0  0  0  0  0  0  0  0  0  0  0  0
  190.1520  173.1690  142.1610 C   0  0  2  0  0  3  0  0  0  0  0  0
  189.6940  173.1070  144.5600 N   0  0  0  0  0  0  0  0  0  0  0  0
  189.2910  172.1670  138.8360 N   0  0  0  0  0  0  0  0  0  0  0  0
  189.6620  174.5510  144.6190 C   0  0  0  0  0  3  0  0  0  0  0  0
  189.8620  172.4430  143.4460 C   0  0  0  0  0  3  0  0  0  0  0  0
  189.5530  174.5500  142.2320 C   0  0  1  0  0  3  0  0  0  0  0  0
  189.4870  177.0710  143.5940 S   0  0  0  0  0  0  0  0  0  0  0  0
  184.6720  179.0320  145.9100 O   0  0  0  0  0  1  0  0  0  0  0  0
  186.5570  176.8410  142.6160 F   0  0  0  0  0  0  0  0  0  0  0  0
  184.8260  177.6910  145.5360 C   0  0  1  0  0  3  0  0  0  0  0  0
  188.3670  177.0400  144.9990 C   0  0  0  0  0  3  0  0  0  0  0  0
  186.6920  179.1160  143.3140 C   0  0  0  0  0  1  0  0  0  0  0  0
  186.2960  177.6830  143.6810 C   0  0  1  0  0  0  0  0  0  0  0  0
  184.8820  177.5470  144.0710 N   0  0  0  0  0  0  0  0  0  0  0  0
  186.1540  177.1850  146.0760 C   0  0  0  0  0  2  0  0  0  0  0  0
  187.0490  177.2620  144.9000 C   0  0  0  0  0  0  0  0  0  0  0  0
  183.9670  178.4490  143.3650 C   0  0  0  0  0  2  0  0  0  0  0  0
  183.6660  177.9240  142.1080 O   0  0  0  0  0  1  0  0  0  0  0  0
  1  3  1  0  0  0  0
  2  4  1  0  0  0  0
  2  5  1  0  0  0  0
  3  8  2  0  0  0  0
  5  9  1  0  0  0  0
  7 15  1  0  0  0  0
  7 12  2  0  0  0  0
  8  5  1  0  0  0  0
  8  6  1  0  0  0  0
  9 14  1  0  0  0  0
  9 13  1  1  0  0  0
 10 12  1  0  0  0  0
 11  3  1  0  0  0  0
 11  2  2  0  0  0  0
 13 10  2  0  0  0  0
 14  6  1  1  0  0  0
 14  7  1  0  0  0  0
 15 19  1  0  0  0  0
 17 21  1  0  0  0  0
 18 16  1  6  0  0  0
 18 23  1  0  0  0  0
 21 20  1  6  0  0  0
 21 22  1  0  0  0  0
 21 24  1  0  0  0  0
 22 18  1  0  0  0  0
 24 19  2  0  0  0  0
 24 23  1  0  0  0  0
 25 22  1  0  0  0  0
 26 25  1  0  0  0  0
M  END
>  <MODEL>
7

>  <REMARK>
 VINA RESULT:      -6.6      3.801      6.607
  Name = 
  3 active torsions:
  status: ('A' for Active; 'I' for Inactive)
    1  A    between atoms: C_3  and  N_23
    2  A    between atoms: C_10  and  S_19
    3  A    between atoms: C_13  and  S_19
                            x       y       z     vdW  Elec       q    Type
                         _______ _______ _______ _____ _____    ______ ____

>  <TORSDO>
F 3

$$$$
=
 OpenBabel11072408323D

 26 29  0  0  1  0  0  0  0  0999 V2000
  197.1720  173.7370  146.2620 C   0  0  0  0  0  1  0  0  0  0  0  0
  194.8740  171.2260  145.1680 C   0  0  0  0  0  0  0  0  0  0  0  0
  196.1130  172.9060  145.6290 C   0  0  0  0  0  0  0  0  0  0  0  0
  194.3280  169.8400  145.1960 C   0  0  0  0  0  1  0  0  0  0  0  0
  194.1500  172.3110  144.8380 N   0  0  0  0  0  0  0  0  0  0  0  0
  194.1170  174.5440  145.4370 C   0  0  0  0  0  2  0  0  0  0  0  0
  191.6930  174.9830  145.0800 C   0  0  0  0  0  0  0  0  0  0  0  0
  194.8980  173.3490  145.1650 C   0  0  0  0  0  0  0  0  0  0  0  0
  192.7560  172.6470  145.0200 C   0  0  2  0  0  3  0  0  0  0  0  0
  191.0280  173.3330  143.4350 N   0  0  0  0  0  0  0  0  0  0  0  0
  196.1050  171.5510  145.6370 N   0  0  0  0  0  0  0  0  0  0  0  0
  190.8160  174.5670  144.1580 C   0  0  0  0  0  3  0  0  0  0  0  0
  191.9400  172.4600  143.7700 C   0  0  0  0  0  3  0  0  0  0  0  0
  192.8520  174.1200  145.3260 C   0  0  1  0  0  3  0  0  0  0  0  0
  191.4450  176.5440  145.9280 S   0  0  0  0  0  0  0  0  0  0  0  0
  185.8390  176.7000  144.9600 O   0  0  0  0  0  1  0  0  0  0  0  0
  189.1710  177.8880  147.5450 F   0  0  0  0  0  0  0  0  0  0  0  0
  186.5880  177.8610  145.1850 C   0  0  1  0  0  3  0  0  0  0  0  0
  190.1180  177.0480  144.8260 C   0  0  0  0  0  3  0  0  0  0  0  0
  188.2370  175.7630  147.0090 C   0  0  0  0  0  1  0  0  0  0  0  0
  188.3510  177.2440  146.6380 C   0  0  1  0  0  0  0  0  0  0  0  0
  187.0520  177.9360  146.5810 N   0  0  0  0  0  0  0  0  0  0  0  0
  187.8310  177.8140  144.3120 C   0  0  0  0  0  2  0  0  0  0  0  0
  188.8850  177.3630  145.2480 C   0  0  0  0  0  0  0  0  0  0  0  0
  186.0630  177.4520  147.5480 C   0  0  0  0  0  2  0  0  0  0  0  0
  185.0040  178.3560  147.6300 O   0  0  0  0  0  1  0  0  0  0  0  0
  2  4  1  0  0  0  0
  2 11  2  0  0  0  0
  3 11  1  0  0  0  0
  3  1  1  0  0  0  0
  5  9  1  0  0  0  0
  5  8  1  0  0  0  0
  5  2  1  0  0  0  0
  7 14  1  0  0  0  0
  7 15  1  0  0  0  0
  8  6  1  0  0  0  0
  8  3  2  0  0  0  0
  9 13  1  6  0  0  0
  9 14  1  0  0  0  0
 10 13  2  0  0  0  0
 10 12  1  0  0  0  0
 12  7  2  0  0  0  0
 14  6  1  6  0  0  0
 18 16  1  1  0  0  0
 18 22  1  0  0  0  0
 19 24  2  0  0  0  0
 19 15  1  0  0  0  0
 21 20  1  1  0  0  0
 21 17  1  0  0  0  0
 22 21  1  0  0  0  0
 22 25  1  0  0  0  0
 23 18  1  0  0  0  0
 23 24  1  0  0  0  0
 24 21  1  0  0  0  0
 25 26  1  0  0  0  0
M  END
>  <MODEL>
8

>  <REMARK>
 VINA RESULT:      -6.6      4.294      8.872
  Name = 
  3 active torsions:
  status: ('A' for Active; 'I' for Inactive)
    1  A    between atoms: C_3  and  N_23
    2  A    between atoms: C_10  and  S_19
    3  A    between atoms: C_13  and  S_19
                            x       y       z     vdW  Elec       q    Type
                         _______ _______ _______ _____ _____    ______ ____

>  <TORSDO>
F 3

$$$$
=
 OpenBabel11072408323D

 26 29  0  0  1  0  0  0  0  0999 V2000
  185.8370  178.5450  141.8630 C   0  0  0  0  0  1  0  0  0  0  0  0
  185.2210  178.1620  145.3640 C   0  0  0  0  0  0  0  0  0  0  0  0
  185.8540  178.4990  143.3500 C   0  0  0  0  0  0  0  0  0  0  0  0
  184.3550  177.7780  146.5130 C   0  0  0  0  0  1  0  0  0  0  0  0
  186.5660  178.1410  145.3980 N   0  0  0  0  0  0  0  0  0  0  0  0
  188.2710  177.7430  143.8880 C   0  0  0  0  0  2  0  0  0  0  0  0
  189.9630  176.8390  145.4740 C   0  0  0  0  0  0  0  0  0  0  0  0
  186.9560  178.3040  144.1460 C   0  0  0  0  0  0  0  0  0  0  0  0
  187.5130  177.2940  146.0890 C   0  0  2  0  0  3  0  0  0  0  0  0
  189.3550  177.8120  147.6070 N   0  0  0  0  0  0  0  0  0  0  0  0
  184.7420  178.4070  144.1190 N   0  0  0  0  0  0  0  0  0  0  0  0
  190.2990  177.1570  146.7300 C   0  0  0  0  0  3  0  0  0  0  0  0
  188.0860  177.9390  147.3210 C   0  0  0  0  0  3  0  0  0  0  0  0
  188.5980  177.1680  145.0510 C   0  0  1  0  0  3  0  0  0  0  0  0
  191.1630  176.0780  144.3800 S   0  0  0  0  0  0  0  0  0  0  0  0
  187.5050  172.4260  141.9950 O   0  0  0  0  0  1  0  0  0  0  0  0
  191.2190  174.7170  141.5980 F   0  0  0  0  0  0  0  0  0  0  0  0
  188.8780  172.1610  142.0730 C   0  0  1  0  0  3  0  0  0  0  0  0
  190.3680  174.4680  144.4620 C   0  0  0  0  0  3  0  0  0  0  0  0
  188.9400  175.3810  141.8020 C   0  0  0  0  0  1  0  0  0  0  0  0
  189.9690  174.2590  141.9650 C   0  0  1  0  0  0  0  0  0  0  0  0
  189.6470  173.0510  141.1860 N   0  0  0  0  0  0  0  0  0  0  0  0
  189.3480  172.4440  143.4910 C   0  0  0  0  0  2  0  0  0  0  0  0
  189.9600  173.7860  143.3820 C   0  0  0  0  0  0  0  0  0  0  0  0
  188.9790  173.3120  139.9070 C   0  0  0  0  0  2  0  0  0  0  0  0
  189.9280  173.3940  138.8890 O   0  0  0  0  0  1  0  0  0  0  0  0
  1  3  1  0  0  0  0
  2  5  1  0  0  0  0
  2  4  1  0  0  0  0
  3 11  1  0  0  0  0
  3  8  2  0  0  0  0
  5  9  1  0  0  0  0
  6  8  1  0  0  0  0
  7 12  2  0  0  0  0
  8  5  1  0  0  0  0
  9 13  1  1  0  0  0
 11  2  2  0  0  0  0
 12 10  1  0  0  0  0
 13 10  2  0  0  0  0
 14  6  1  1  0  0  0
 14  7  1  0  0  0  0
 14  9  1  0  0  0  0
 15 19  1  0  0  0  0
 15  7  1  0  0  0  0
 17 21  1  0  0  0  0
 18 16  1  1  0  0  0
 18 23  1  0  0  0  0
 21 20  1  6  0  0  0
 21 24  1  0  0  0  0
 22 21  1  0  0  0  0
 22 18  1  0  0  0  0
 24 23  1  0  0  0  0
 24 19  2  0  0  0  0
 25 22  1  0  0  0  0
 26 25  1  0  0  0  0
M  END
>  <MODEL>
9

>  <REMARK>
 VINA RESULT:      -6.5      2.646      4.128
  Name = 
  3 active torsions:
  status: ('A' for Active; 'I' for Inactive)
    1  A    between atoms: C_3  and  N_23
    2  A    between atoms: C_10  and  S_19
    3  A    between atoms: C_13  and  S_19
                            x       y       z     vdW  Elec       q    Type
                         _______ _______ _______ _____ _____    ______ ____

>  <TORSDO>
F 3

$$$$
