=
 OpenBabel11072409323D

 58 65  0  0  1  0  0  0  0  0999 V2000
  194.8610  174.5190  140.6640 C   0  0  2  0  0  3  0  0  0  0  0  0
  196.8050  173.0730  143.6340 O   0  0  0  0  0  0  0  0  0  0  0  0
  192.4250  171.1400  143.2830 C   0  0  2  0  0  3  0  0  0  0  0  0
  193.4290  172.6020  141.3920 C   0  0  0  0  0  2  0  0  0  0  0  0
  194.8160  173.2820  141.5690 C   0  0  1  0  0  3  0  0  0  0  0  0
  195.0250  171.7190  144.4230 C   0  0  2  0  0  0  0  0  0  0  0  0
  193.2690  171.1850  141.9950 C   0  0  1  0  0  3  0  0  0  0  0  0
  192.8950  170.2130  144.2560 O   0  0  0  0  0  0  0  0  0  0  0  0
  197.1690  172.4290  142.4320 C   0  0  0  0  0  2  0  0  0  0  0  0
  194.2460  170.3920  144.7200 C   0  0  1  0  0  3  0  0  0  0  0  0
  194.5820  170.4410  142.1450 C   0  0  1  0  0  3  0  0  0  0  0  0
  196.0370  172.3430  141.3670 C   0  0  1  0  0  3  0  0  0  0  0  0
  195.6320  170.8880  141.1320 C   0  0  0  0  0  2  0  0  0  0  0  0
  195.1720  170.4480  143.5490 C   0  0  1  0  0  3  0  0  0  0  0  0
  196.4960  172.0720  144.5810 C   0  0  2  0  0  3  0  0  0  0  0  0
  196.7930  172.5540  145.9650 C   0  0  0  0  0  3  0  0  0  0  0  0
  197.0150  173.7370  146.1640 O   0  0  0  0  0  0  0  0  0  0  0  0
  194.1030  172.9500  144.3660 C   0  0  0  0  0  2  0  0  0  0  0  0
  193.5830  173.3070  145.7460 C   0  0  0  0  0  1  0  0  0  0  0  0
  190.9740  170.8330  142.9480 C   0  0  0  0  0  2  0  0  0  0  0  0
  190.8010  173.0800  143.7340 O   0  0  0  0  0  1  0  0  0  0  0  0
  190.0620  171.9220  143.4890 C   0  0  1  0  0  3  0  0  0  0  0  0
  188.9720  172.2100  142.4700 C   0  0  0  0  0  2  0  0  0  0  0  0
  189.5430  172.8760  141.2280 C   0  0  0  0  0  2  0  0  0  0  0  0
  188.9930  173.8510  139.1190 O   0  0  0  0  0  1  0  0  0  0  0  0
  188.4660  173.1200  140.1830 C   0  0  0  0  0  2  0  0  0  0  0  0
  195.4640  174.2570  139.2810 C   0  0  0  0  0  2  0  0  0  0  0  0
  193.2370  174.3710  138.3540 N   0  0  0  0  0  0  0  0  0  0  0  0
  191.7550  176.0690  135.4650 N   0  0  0  0  0  2  0  0  0  0  0  0
  192.1990  174.6200  137.3490 C   0  0  0  0  0  2  0  0  0  0  0  0
  196.2030  175.5240  136.7920 O   0  0  0  0  0  0  0  0  0  0  0  0
  194.5010  174.6460  138.2060 C   0  0  0  0  0  0  0  0  0  0  0  0
  192.6260  175.6070  136.2990 C   0  0  0  0  0  0  0  0  0  0  0  0
  194.9730  175.3410  136.9950 C   0  0  0  0  0  0  0  0  0  0  0  0
  194.0150  175.8430  136.0670 N   0  0  0  0  0  2  0  0  0  0  0  0
  195.3330  175.8160  141.3370 C   0  0  0  0  0  2  0  0  0  0  0  0
  194.9270  176.6370  145.0310 C   0  0  0  0  0  3  0  0  0  0  0  0
  193.3350  176.2450  142.7710 C   0  0  0  0  0  3  0  0  0  0  0  0
  194.7230  176.1090  142.6740 C   0  0  0  0  0  0  0  0  0  0  0  0
  195.5190  176.3270  143.8060 C   0  0  0  0  0  3  0  0  0  0  0  0
  192.7250  176.5550  143.9990 C   0  0  0  0  0  0  0  0  0  0  0  0
  193.5370  176.7460  145.1290 C   0  0  0  0  0  3  0  0  0  0  0  0
  189.3940  176.1280  142.6490 C   0  0  1  0  0  3  0  0  0  0  0  0
  188.4660  176.7140  141.6070 C   0  0  0  0  0  1  0  0  0  0  0  0
  189.0890  176.2480  145.2240 C   0  0  1  0  0  3  0  0  0  0  0  0
  191.2920  176.6600  144.1000 N   0  0  0  0  0  0  0  0  0  0  0  0
  190.5070  177.1220  142.9580 C   0  0  0  0  0  2  0  0  0  0  0  0
  188.5810  175.7030  143.8810 C   0  0  0  0  0  2  0  0  0  0  0  0
  190.6170  176.3010  145.3520 C   0  0  0  0  0  2  0  0  0  0  0  0
  188.3740  177.5180  145.6850 C   0  0  0  0  0  2  0  0  0  0  0  0
  186.3180  176.6640  147.7040 C   0  0  0  0  0  1  0  0  0  0  0  0
  184.6350  177.7970  146.3760 N   0  0  0  0  0  2  0  0  0  0  0  0
  186.0660  177.7630  146.6830 C   0  0  2  0  0  3  0  0  0  0  0  0
  183.0030  179.0370  145.2900 F   0  0  0  0  0  0  0  0  0  0  0  0
  184.3670  178.9240  145.4880 C   0  0  2  0  0  3  0  0  0  0  0  0
  186.8750  177.5080  145.4010 C   0  0  1  0  0  3  0  0  0  0  0  0
  186.5590  178.5850  144.3640 C   0  0  0  0  0  2  0  0  0  0  0  0
  185.0550  178.6960  144.1440 C   0  0  0  0  0  2  0  0  0  0  0  0
  1 27  1  6  0  0  0
  1 36  1  0  0  0  0
  2 15  1  0  0  0  0
  3 20  1  6  0  0  0
  3  8  1  0  0  0  0
  4  5  1  0  0  0  0
  5  1  1  6  0  0  0
  6 18  1  6  0  0  0
  6 15  1  0  0  0  0
  6 10  1  0  0  0  0
  7  4  1  1  0  0  0
  7 11  1  0  0  0  0
  7  3  1  0  0  0  0
  9  2  1  0  0  0  0
 10  8  1  6  0  0  0
 11 13  1  6  0  0  0
 11 14  1  0  0  0  0
 12 13  1  1  0  0  0
 12  5  1  0  0  0  0
 12  9  1  0  0  0  0
 14  6  1  0  0  0  0
 14 10  1  0  0  0  0
 15 16  1  0  0  0  0
 16 17  2  0  0  0  0
 18 19  1  0  0  0  0
 20 22  1  0  0  0  0
 22 21  1  0  0  0  0
 23 22  1  0  0  0  0
 24 23  1  0  0  0  0
 25 26  1  0  0  0  0
 26 24  1  0  0  0  0
 29 33  2  0  0  0  0
 30 28  1  0  0  0  0
 31 34  2  0  0  0  0
 32 28  2  0  0  0  0
 32 27  1  0  0  0  0
 33 30  1  0  0  0  0
 34 32  1  0  0  0  0
 35 33  1  0  0  0  0
 35 34  1  0  0  0  0
 36 39  1  0  0  0  0
 37 42  1  0  0  0  0
 38 41  1  0  0  0  0
 39 38  2  0  0  0  0
 39 40  1  0  0  0  0
 40 37  2  0  0  0  0
 41 46  1  0  0  0  0
 41 42  2  0  0  0  0
 43 47  1  0  0  0  0
 43 48  1  0  0  0  0
 44 43  1  0  0  0  0
 45 49  1  0  0  0  0
 45 50  1  0  0  0  0
 46 49  1  0  0  0  0
 47 46  1  0  0  0  0
 48 45  1  0  0  0  0
 52 53  1  0  0  0  0
 53 51  1  0  0  0  0
 54 55  1  0  0  0  0
 55 52  1  0  0  0  0
 56 50  1  0  0  0  0
 56 53  1  0  0  0  0
 57 56  1  0  0  0  0
 58 57  1  0  0  0  0
 58 55  1  0  0  0  0
M  END
>  <MODEL>
1

>  <REMARK>
 VINA RESULT:      -7.3      0.000      0.000
  Name = 
  15 active torsions:
  status: ('A' for Active; 'I' for Inactive)
    1  A    between atoms: C_4  and  C_22
    2  A    between atoms: C_4  and  C_40
    3  A    between atoms: C_6  and  C_25
    4  A    between atoms: C_6  and  C_38
    5  A    between atoms: C_7  and  C_58
    6  A    between atoms: C_9  and  C_17
    7  A    between atoms: C_12  and  C_49
    8  A    between atoms: C_16  and  C_17
    9  A    between atoms: C_16  and  C_30
   10  A    between atoms: C_23  and  C_33
   11  A    between atoms: N_29  and  C_35
   12  A    between atoms: C_30  and  C_32
   13  A    between atoms: C_31  and  C_38
   14  A    between atoms: C_32  and  C_48
   15  A    between atoms: C_38  and  C_49
                            x       y       z     vdW  Elec       q    Type
                         _______ _______ _______ _____ _____    ______ ____

>  <TORSDO>
F 15

$$$$
=
 OpenBabel11072409323D

 58 65  0  0  1  0  0  0  0  0999 V2000
  192.8430  171.9080  140.6410 C   0  0  2  0  0  3  0  0  0  0  0  0
  194.9960  169.9310  143.1210 O   0  0  0  0  0  0  0  0  0  0  0  0
  194.8010  174.5870  144.2750 C   0  0  2  0  0  3  0  0  0  0  0  0
  193.2390  173.5570  142.4790 C   0  0  0  0  0  2  0  0  0  0  0  0
  193.3830  172.0640  142.0680 C   0  0  1  0  0  3  0  0  0  0  0  0
  195.6520  171.8190  144.3960 C   0  0  2  0  0  0  0  0  0  0  0  0
  193.4610  173.8890  143.9760 C   0  0  1  0  0  3  0  0  0  0  0  0
  195.4090  174.1790  145.4960 O   0  0  0  0  0  0  0  0  0  0  0  0
  193.6250  169.8110  143.4360 C   0  0  0  0  0  2  0  0  0  0  0  0
  195.6980  172.7750  145.6370 C   0  0  1  0  0  3  0  0  0  0  0  0
  193.2090  172.7110  144.8980 C   0  0  1  0  0  3  0  0  0  0  0  0
  192.7570  171.0480  143.0630 C   0  0  1  0  0  3  0  0  0  0  0  0
  192.2060  171.7150  144.3230 C   0  0  0  0  0  2  0  0  0  0  0  0
  194.4600  171.9830  145.3720 C   0  0  1  0  0  3  0  0  0  0  0  0
  195.6780  170.3020  144.3010 C   0  0  2  0  0  3  0  0  0  0  0  0
  197.0790  169.7830  144.2790 C   0  0  0  0  0  3  0  0  0  0  0  0
  197.8310  170.0130  145.2120 O   0  0  0  0  0  0  0  0  0  0  0  0
  196.0640  172.5210  143.0890 C   0  0  0  0  0  2  0  0  0  0  0  0
  197.5650  172.7300  143.0310 C   0  0  0  0  0  1  0  0  0  0  0  0
  194.6170  176.0950  144.2790 C   0  0  0  0  0  2  0  0  0  0  0  0
  194.9050  177.8510  145.8700 O   0  0  0  0  0  1  0  0  0  0  0  0
  194.3300  176.5920  145.6860 C   0  0  1  0  0  3  0  0  0  0  0  0
  192.8270  176.6750  145.8890 C   0  0  0  0  0  2  0  0  0  0  0  0
  192.3790  175.7950  147.0460 C   0  0  0  0  0  2  0  0  0  0  0  0
  190.2260  175.0150  147.7210 O   0  0  0  0  0  1  0  0  0  0  0  0
  190.9840  176.1680  147.5210 C   0  0  0  0  0  2  0  0  0  0  0  0
  193.1820  173.0800  139.7160 C   0  0  0  0  0  2  0  0  0  0  0  0
  194.4760  171.8470  138.0930 N   0  0  0  0  0  0  0  0  0  0  0  0
  197.7850  172.3000  136.5850 N   0  0  0  0  0  2  0  0  0  0  0  0
  195.6670  171.4200  137.3500 C   0  0  0  0  0  2  0  0  0  0  0  0
  195.6660  174.4980  140.1240 O   0  0  0  0  0  0  0  0  0  0  0  0
  194.4470  172.8100  138.9680 C   0  0  0  0  0  0  0  0  0  0  0  0
  196.7600  172.4520  137.3550 C   0  0  0  0  0  0  0  0  0  0  0  0
  195.6480  173.6290  139.2110 C   0  0  0  0  0  0  0  0  0  0  0  0
  196.7860  173.4560  138.3700 N   0  0  0  0  0  2  0  0  0  0  0  0
  191.3990  171.3960  140.5310 C   0  0  0  0  0  2  0  0  0  0  0  0
  188.9050  173.2370  138.3220 C   0  0  0  0  0  3  0  0  0  0  0  0
  189.9220  173.3710  140.9200 C   0  0  0  0  0  3  0  0  0  0  0  0
  190.3960  172.3950  140.0390 C   0  0  0  0  0  0  0  0  0  0  0  0
  189.8690  172.3180  138.7440 C   0  0  0  0  0  3  0  0  0  0  0  0
  188.9540  174.3030  140.5090 C   0  0  0  0  0  0  0  0  0  0  0  0
  188.4540  174.2270  139.1990 C   0  0  0  0  0  3  0  0  0  0  0  0
  189.4880  177.2990  142.4700 C   0  0  1  0  0  3  0  0  0  0  0  0
  190.1980  177.7720  143.7190 C   0  0  0  0  0  1  0  0  0  0  0  0
  186.9200  177.1460  142.1210 C   0  0  1  0  0  3  0  0  0  0  0  0
  188.4950  175.3280  141.4100 N   0  0  0  0  0  0  0  0  0  0  0  0
  189.3500  175.7810  142.5050 C   0  0  0  0  0  2  0  0  0  0  0  0
  188.1510  178.0410  142.3240 C   0  0  0  0  0  2  0  0  0  0  0  0
  187.1650  175.9210  141.2300 C   0  0  0  0  0  2  0  0  0  0  0  0
  186.1560  176.8450  143.4110 C   0  0  0  0  0  2  0  0  0  0  0  0
  184.8920  179.4410  144.2440 C   0  0  0  0  0  1  0  0  0  0  0  0
  185.9500  179.1880  146.4110 N   0  0  0  0  0  2  0  0  0  0  0  0
  185.4760  178.4490  145.2390 C   0  0  2  0  0  3  0  0  0  0  0  0
  186.7400  178.9170  148.5760 F   0  0  0  0  0  0  0  0  0  0  0  0
  186.4050  178.2360  147.4200 C   0  0  2  0  0  3  0  0  0  0  0  0
  186.6360  177.6630  144.6050 C   0  0  1  0  0  3  0  0  0  0  0  0
  187.2520  176.7210  145.6380 C   0  0  0  0  0  2  0  0  0  0  0  0
  187.6280  177.4820  146.9040 C   0  0  0  0  0  2  0  0  0  0  0  0
  1 27  1  1  0  0  0
  2  9  1  0  0  0  0
  2 15  1  0  0  0  0
  3 20  1  1  0  0  0
  3  8  1  0  0  0  0
  5  1  1  6  0  0  0
  5  4  1  0  0  0  0
  5 12  1  0  0  0  0
  6 18  1  6  0  0  0
  6 14  1  0  0  0  0
  6 10  1  0  0  0  0
  7  4  1  6  0  0  0
  7  3  1  0  0  0  0
  7 11  1  0  0  0  0
 10  8  1  6  0  0  0
 11 13  1  6  0  0  0
 11 14  1  0  0  0  0
 12  9  1  1  0  0  0
 12 13  1  0  0  0  0
 14 10  1  0  0  0  0
 15  6  1  0  0  0  0
 16 15  1  0  0  0  0
 16 17  2  0  0  0  0
 19 18  1  0  0  0  0
 20 22  1  0  0  0  0
 22 21  1  0  0  0  0
 22 23  1  0  0  0  0
 23 24  1  0  0  0  0
 24 26  1  0  0  0  0
 26 25  1  0  0  0  0
 28 32  2  0  0  0  0
 29 33  2  0  0  0  0
 30 33  1  0  0  0  0
 30 28  1  0  0  0  0
 32 34  1  0  0  0  0
 32 27  1  0  0  0  0
 33 35  1  0  0  0  0
 34 31  2  0  0  0  0
 35 34  1  0  0  0  0
 36  1  1  0  0  0  0
 37 40  2  0  0  0  0
 37 42  1  0  0  0  0
 39 36  1  0  0  0  0
 39 38  2  0  0  0  0
 40 39  1  0  0  0  0
 41 38  1  0  0  0  0
 41 46  1  0  0  0  0
 42 41  2  0  0  0  0
 43 47  1  0  0  0  0
 43 44  1  0  0  0  0
 45 48  1  0  0  0  0
 45 50  1  0  0  0  0
 46 47  1  0  0  0  0
 48 43  1  0  0  0  0
 49 46  1  0  0  0  0
 49 45  1  0  0  0  0
 50 56  1  0  0  0  0
 51 53  1  0  0  0  0
 52 55  1  0  0  0  0
 53 52  1  0  0  0  0
 55 54  1  0  0  0  0
 56 53  1  0  0  0  0
 56 57  1  0  0  0  0
 57 58  1  0  0  0  0
 58 55  1  0  0  0  0
M  END
>  <MODEL>
2

>  <REMARK>
 VINA RESULT:      -6.9      2.380      4.746
  Name = 
  15 active torsions:
  status: ('A' for Active; 'I' for Inactive)
    1  A    between atoms: C_4  and  C_22
    2  A    between atoms: C_4  and  C_40
    3  A    between atoms: C_6  and  C_25
    4  A    between atoms: C_6  and  C_38
    5  A    between atoms: C_7  and  C_58
    6  A    between atoms: C_9  and  C_17
    7  A    between atoms: C_12  and  C_49
    8  A    between atoms: C_16  and  C_17
    9  A    between atoms: C_16  and  C_30
   10  A    between atoms: C_23  and  C_33
   11  A    between atoms: N_29  and  C_35
   12  A    between atoms: C_30  and  C_32
   13  A    between atoms: C_31  and  C_38
   14  A    between atoms: C_32  and  C_48
   15  A    between atoms: C_38  and  C_49
                            x       y       z     vdW  Elec       q    Type
                         _______ _______ _______ _____ _____    ______ ____

>  <TORSDO>
F 15

$$$$
=
 OpenBabel11072409323D

 58 65  0  0  1  0  0  0  0  0999 V2000
  192.8050  172.2760  140.8490 C   0  0  2  0  0  3  0  0  0  0  0  0
  194.6200  170.1900  143.5030 O   0  0  0  0  0  0  0  0  0  0  0  0
  195.5320  174.8750  144.0150 C   0  0  2  0  0  3  0  0  0  0  0  0
  193.6710  174.0100  142.4300 C   0  0  0  0  0  2  0  0  0  0  0  0
  193.4550  172.4840  142.2220 C   0  0  1  0  0  3  0  0  0  0  0  0
  195.7560  172.0240  144.4850 C   0  0  2  0  0  0  0  0  0  0  0  0
  194.0540  174.4690  143.8580 C   0  0  1  0  0  3  0  0  0  0  0  0
  196.1110  174.4960  145.2600 O   0  0  0  0  0  0  0  0  0  0  0  0
  193.2790  170.4250  143.8770 C   0  0  0  0  0  2  0  0  0  0  0  0
  196.0900  173.0930  145.5820 C   0  0  1  0  0  3  0  0  0  0  0  0
  193.6080  173.5050  144.9410 C   0  0  1  0  0  3  0  0  0  0  0  0
  192.6840  171.7700  143.3670 C   0  0  1  0  0  3  0  0  0  0  0  0
  192.3750  172.6980  144.5410 C   0  0  0  0  0  2  0  0  0  0  0  0
  194.6930  172.5770  145.4680 C   0  0  1  0  0  3  0  0  0  0  0  0
  195.4400  170.5420  144.5980 C   0  0  2  0  0  3  0  0  0  0  0  0
  196.6880  169.7190  144.6010 C   0  0  0  0  0  3  0  0  0  0  0  0
  197.5330  169.8940  145.4630 O   0  0  0  0  0  0  0  0  0  0  0  0
  196.2290  172.4440  143.0820 C   0  0  0  0  0  2  0  0  0  0  0  0
  197.7240  172.2380  142.9250 C   0  0  0  0  0  1  0  0  0  0  0  0
  195.6860  176.3740  143.8180 C   0  0  0  0  0  2  0  0  0  0  0  0
  197.9400  175.9300  143.1710 O   0  0  0  0  0  1  0  0  0  0  0  0
  196.8050  176.6680  142.8330 C   0  0  1  0  0  3  0  0  0  0  0  0
  196.3470  176.2980  141.4320 C   0  0  0  0  0  2  0  0  0  0  0  0
  197.3260  175.3430  140.7680 C   0  0  0  0  0  2  0  0  0  0  0  0
  195.8710  175.2830  138.8760 O   0  0  0  0  0  1  0  0  0  0  0  0
  196.6390  174.4820  139.7210 C   0  0  0  0  0  2  0  0  0  0  0  0
  193.0690  173.4130  139.8570 C   0  0  0  0  0  2  0  0  0  0  0  0
  193.9280  171.7070  138.3800 N   0  0  0  0  0  0  0  0  0  0  0  0
  193.7520  171.1310  134.7650 N   0  0  0  0  0  2  0  0  0  0  0  0
  194.3320  171.0900  137.1120 C   0  0  0  0  0  2  0  0  0  0  0  0
  192.4870  174.7900  137.3840 O   0  0  0  0  0  0  0  0  0  0  0  0
  193.3460  172.8660  138.4940 C   0  0  0  0  0  0  0  0  0  0  0  0
  193.6450  171.6970  135.9210 C   0  0  0  0  0  0  0  0  0  0  0  0
  192.9590  173.6240  137.2910 C   0  0  0  0  0  0  0  0  0  0  0  0
  193.0860  173.0070  136.0130 N   0  0  0  0  0  2  0  0  0  0  0  0
  191.3580  171.7640  140.8720 C   0  0  0  0  0  2  0  0  0  0  0  0
  188.6540  173.7400  139.0630 C   0  0  0  0  0  3  0  0  0  0  0  0
  189.9120  173.6810  141.5550 C   0  0  0  0  0  3  0  0  0  0  0  0
  190.3070  172.7850  140.5580 C   0  0  0  0  0  0  0  0  0  0  0  0
  189.6580  172.8040  139.3160 C   0  0  0  0  0  3  0  0  0  0  0  0
  188.9050  174.6300  141.3140 C   0  0  0  0  0  0  0  0  0  0  0  0
  188.2820  174.6510  140.0540 C   0  0  0  0  0  3  0  0  0  0  0  0
  186.7840  177.2750  142.5830 C   0  0  1  0  0  3  0  0  0  0  0  0
  186.4880  178.7440  142.3740 C   0  0  0  0  0  1  0  0  0  0  0  0
  187.8910  176.2090  144.6750 C   0  0  1  0  0  3  0  0  0  0  0  0
  188.5270  175.5740  142.3340 N   0  0  0  0  0  0  0  0  0  0  0  0
  188.1360  176.9340  141.9680 C   0  0  0  0  0  2  0  0  0  0  0  0
  186.6770  176.9350  144.0770 C   0  0  0  0  0  2  0  0  0  0  0  0
  188.5320  175.1710  143.7440 C   0  0  0  0  0  2  0  0  0  0  0  0
  188.8890  177.1380  145.3660 C   0  0  0  0  0  2  0  0  0  0  0  0
  191.2420  177.8230  143.6270 C   0  0  0  0  0  1  0  0  0  0  0  0
  192.6930  176.8950  145.3330 N   0  0  0  0  0  2  0  0  0  0  0  0
  191.3760  177.4920  145.1060 C   0  0  2  0  0  3  0  0  0  0  0  0
  194.1630  176.2320  147.0020 F   0  0  0  0  0  0  0  0  0  0  0  0
  192.8760  176.6820  146.7660 C   0  0  2  0  0  3  0  0  0  0  0  0
  190.2710  176.5190  145.5470 C   0  0  1  0  0  3  0  0  0  0  0  0
  190.4600  176.1470  147.0160 C   0  0  0  0  0  2  0  0  0  0  0  0
  191.8770  175.6420  147.2650 C   0  0  0  0  0  2  0  0  0  0  0  0
  1 27  1  1  0  0  0
  1 36  1  0  0  0  0
  2  9  1  0  0  0  0
  2 15  1  0  0  0  0
  3 20  1  1  0  0  0
  3  8  1  0  0  0  0
  5  1  1  6  0  0  0
  5  4  1  0  0  0  0
  5 12  1  0  0  0  0
  6 18  1  6  0  0  0
  6 15  1  0  0  0  0
  6 14  1  0  0  0  0
  6 10  1  0  0  0  0
  7  4  1  6  0  0  0
  7  3  1  0  0  0  0
  7 11  1  0  0  0  0
 10  8  1  6  0  0  0
 11 13  1  6  0  0  0
 11 14  1  0  0  0  0
 12  9  1  1  0  0  0
 12 13  1  0  0  0  0
 14 10  1  0  0  0  0
 15 16  1  0  0  0  0
 16 17  2  0  0  0  0
 19 18  1  0  0  0  0
 22 21  1  0  0  0  0
 22 20  1  0  0  0  0
 23 22  1  0  0  0  0
 24 23  1  0  0  0  0
 25 26  1  0  0  0  0
 26 24  1  0  0  0  0
 28 32  2  0  0  0  0
 29 33  2  0  0  0  0
 30 28  1  0  0  0  0
 32 27  1  0  0  0  0
 33 35  1  0  0  0  0
 33 30  1  0  0  0  0
 34 31  2  0  0  0  0
 34 32  1  0  0  0  0
 35 34  1  0  0  0  0
 37 40  2  0  0  0  0
 37 42  1  0  0  0  0
 39 36  1  0  0  0  0
 39 38  2  0  0  0  0
 40 39  1  0  0  0  0
 41 38  1  0  0  0  0
 41 46  1  0  0  0  0
 42 41  2  0  0  0  0
 43 48  1  0  0  0  0
 44 43  1  0  0  0  0
 45 50  1  0  0  0  0
 46 49  1  0  0  0  0
 47 46  1  0  0  0  0
 47 43  1  0  0  0  0
 48 45  1  0  0  0  0
 49 45  1  0  0  0  0
 50 56  1  0  0  0  0
 51 53  1  0  0  0  0
 52 55  1  0  0  0  0
 53 52  1  0  0  0  0
 53 56  1  0  0  0  0
 55 54  1  0  0  0  0
 55 58  1  0  0  0  0
 56 57  1  0  0  0  0
 57 58  1  0  0  0  0
M  END
>  <MODEL>
3

>  <REMARK>
 VINA RESULT:      -6.8      2.594      5.322
  Name = 
  15 active torsions:
  status: ('A' for Active; 'I' for Inactive)
    1  A    between atoms: C_4  and  C_22
    2  A    between atoms: C_4  and  C_40
    3  A    between atoms: C_6  and  C_25
    4  A    between atoms: C_6  and  C_38
    5  A    between atoms: C_7  and  C_58
    6  A    between atoms: C_9  and  C_17
    7  A    between atoms: C_12  and  C_49
    8  A    between atoms: C_16  and  C_17
    9  A    between atoms: C_16  and  C_30
   10  A    between atoms: C_23  and  C_33
   11  A    between atoms: N_29  and  C_35
   12  A    between atoms: C_30  and  C_32
   13  A    between atoms: C_31  and  C_38
   14  A    between atoms: C_32  and  C_48
   15  A    between atoms: C_38  and  C_49
                            x       y       z     vdW  Elec       q    Type
                         _______ _______ _______ _____ _____    ______ ____

>  <TORSDO>
F 15

$$$$
=
 OpenBabel11072409323D

 58 65  0  0  1  0  0  0  0  0999 V2000
  193.8530  173.4930  140.4110 C   0  0  2  0  0  3  0  0  0  0  0  0
  192.6380  175.5920  143.3790 O   0  0  0  0  0  0  0  0  0  0  0  0
  196.7400  173.3150  144.3920 C   0  0  2  0  0  3  0  0  0  0  0  0
  195.8020  173.4320  141.9770 C   0  0  0  0  0  2  0  0  0  0  0  0
  194.4290  174.1050  141.6940 C   0  0  1  0  0  3  0  0  0  0  0  0
  194.3660  174.9110  144.8520 C   0  0  2  0  0  0  0  0  0  0  0  0
  196.6880  174.0920  143.0630 C   0  0  1  0  0  3  0  0  0  0  0  0
  196.7660  174.1430  145.5500 O   0  0  0  0  0  0  0  0  0  0  0  0
  193.3300  176.3930  142.4450 C   0  0  0  0  0  2  0  0  0  0  0  0
  195.6660  175.0580  145.7140 C   0  0  1  0  0  3  0  0  0  0  0  0
  196.3890  175.5640  143.2720 C   0  0  1  0  0  3  0  0  0  0  0  0
  194.4560  175.6580  141.6610 C   0  0  1  0  0  3  0  0  0  0  0  0
  195.8240  176.2350  142.0220 C   0  0  0  0  0  2  0  0  0  0  0  0
  195.5140  175.8810  144.4770 C   0  0  1  0  0  3  0  0  0  0  0  0
  193.1860  175.8490  144.6550 C   0  0  2  0  0  3  0  0  0  0  0  0
  192.1510  175.6500  145.7160 C   0  0  0  0  0  3  0  0  0  0  0  0
  192.4540  175.7630  146.8930 O   0  0  0  0  0  0  0  0  0  0  0  0
  194.0500  173.4470  144.4980 C   0  0  0  0  0  2  0  0  0  0  0  0
  193.5450  172.6880  145.7110 C   0  0  0  0  0  1  0  0  0  0  0  0
  197.9410  172.3840  144.4070 C   0  0  0  0  0  2  0  0  0  0  0  0
  196.8210  171.2050  146.1540 O   0  0  0  0  0  1  0  0  0  0  0  0
  197.5570  171.0300  144.9800 C   0  0  1  0  0  3  0  0  0  0  0  0
  196.7270  170.2720  143.9580 C   0  0  0  0  0  2  0  0  0  0  0  0
  196.1290  169.0120  144.5620 C   0  0  0  0  0  2  0  0  0  0  0  0
  194.1600  169.0670  145.9130 O   0  0  0  0  0  1  0  0  0  0  0  0
  194.6100  169.0770  144.5930 C   0  0  0  0  0  2  0  0  0  0  0  0
  193.5580  174.5160  139.3110 C   0  0  0  0  0  2  0  0  0  0  0  0
  195.6680  173.7300  138.4380 N   0  0  0  0  0  0  0  0  0  0  0  0
  197.3180  173.9370  135.1730 N   0  0  0  0  0  2  0  0  0  0  0  0
  196.8070  173.6460  137.5180 C   0  0  0  0  0  2  0  0  0  0  0  0
  193.4650  175.9960  136.8310 O   0  0  0  0  0  0  0  0  0  0  0  0
  194.6050  174.4580  138.2460 C   0  0  0  0  0  0  0  0  0  0  0  0
  196.4780  174.1310  136.1340 C   0  0  0  0  0  0  0  0  0  0  0  0
  194.4370  175.2090  136.9890 C   0  0  0  0  0  0  0  0  0  0  0  0
  195.3690  175.0060  135.9310 N   0  0  0  0  0  2  0  0  0  0  0  0
  192.7600  172.4340  140.6160 C   0  0  0  0  0  2  0  0  0  0  0  0
  189.3460  172.6650  138.9500 C   0  0  0  0  0  3  0  0  0  0  0  0
  190.7420  173.8330  141.0680 C   0  0  0  0  0  3  0  0  0  0  0  0
  191.3670  172.8680  140.2720 C   0  0  0  0  0  0  0  0  0  0  0  0
  190.6560  172.2700  139.2250 C   0  0  0  0  0  3  0  0  0  0  0  0
  189.4240  174.2420  140.8020 C   0  0  0  0  0  0  0  0  0  0  0  0
  188.7340  173.6490  139.7320 C   0  0  0  0  0  3  0  0  0  0  0  0
  189.4900  177.4050  142.5600 C   0  0  1  0  0  3  0  0  0  0  0  0
  190.0690  178.0440  143.8030 C   0  0  0  0  0  1  0  0  0  0  0  0
  186.9820  176.9160  142.1050 C   0  0  1  0  0  3  0  0  0  0  0  0
  188.7970  175.2610  141.6030 N   0  0  0  0  0  0  0  0  0  0  0  0
  189.5310  175.8880  142.7000 C   0  0  0  0  0  2  0  0  0  0  0  0
  188.0850  177.9670  142.2980 C   0  0  0  0  0  2  0  0  0  0  0  0
  187.4190  175.6730  141.3180 C   0  0  0  0  0  2  0  0  0  0  0  0
  186.1890  176.6110  143.3760 C   0  0  0  0  0  2  0  0  0  0  0  0
  184.7140  179.1160  144.1390 C   0  0  0  0  0  1  0  0  0  0  0  0
  185.7520  178.9860  146.3260 N   0  0  0  0  0  2  0  0  0  0  0  0
  185.3560  178.1920  145.1620 C   0  0  2  0  0  3  0  0  0  0  0  0
  186.5240  178.8170  148.5080 F   0  0  0  0  0  0  0  0  0  0  0  0
  186.2620  178.0910  147.3610 C   0  0  2  0  0  3  0  0  0  0  0  0
  186.5840  177.4860  144.5620 C   0  0  1  0  0  3  0  0  0  0  0  0
  187.2530  176.6140  145.6220 C   0  0  0  0  0  2  0  0  0  0  0  0
  187.5480  177.4250  146.8790 C   0  0  0  0  0  2  0  0  0  0  0  0
  1 27  1  6  0  0  0
  1 36  1  0  0  0  0
  2 15  1  0  0  0  0
  3 20  1  6  0  0  0
  3  8  1  0  0  0  0
  5  1  1  6  0  0  0
  5  4  1  0  0  0  0
  6 18  1  6  0  0  0
  6 10  1  0  0  0  0
  7  4  1  6  0  0  0
  7 11  1  0  0  0  0
  7  3  1  0  0  0  0
  9  2  1  0  0  0  0
 10  8  1  6  0  0  0
 11 13  1  6  0  0  0
 11 14  1  0  0  0  0
 12  5  1  0  0  0  0
 12 13  1  1  0  0  0
 12  9  1  0  0  0  0
 14  6  1  0  0  0  0
 14 10  1  0  0  0  0
 15  6  1  0  0  0  0
 15 16  1  0  0  0  0
 16 17  2  0  0  0  0
 18 19  1  0  0  0  0
 20 22  1  0  0  0  0
 22 21  1  0  0  0  0
 23 24  1  0  0  0  0
 23 22  1  0  0  0  0
 24 26  1  0  0  0  0
 26 25  1  0  0  0  0
 29 33  2  0  0  0  0
 30 28  1  0  0  0  0
 31 34  2  0  0  0  0
 32 28  2  0  0  0  0
 32 27  1  0  0  0  0
 33 30  1  0  0  0  0
 34 32  1  0  0  0  0
 35 33  1  0  0  0  0
 35 34  1  0  0  0  0
 37 40  2  0  0  0  0
 37 42  1  0  0  0  0
 39 36  1  0  0  0  0
 39 38  2  0  0  0  0
 40 39  1  0  0  0  0
 41 38  1  0  0  0  0
 41 46  1  0  0  0  0
 42 41  2  0  0  0  0
 43 47  1  0  0  0  0
 43 44  1  0  0  0  0
 45 48  1  0  0  0  0
 45 50  1  0  0  0  0
 46 47  1  0  0  0  0
 48 43  1  0  0  0  0
 49 46  1  0  0  0  0
 49 45  1  0  0  0  0
 50 56  1  0  0  0  0
 51 53  1  0  0  0  0
 52 55  1  0  0  0  0
 53 52  1  0  0  0  0
 55 54  1  0  0  0  0
 56 53  1  0  0  0  0
 56 57  1  0  0  0  0
 57 58  1  0  0  0  0
 58 55  1  0  0  0  0
M  END
>  <MODEL>
4

>  <REMARK>
 VINA RESULT:      -6.8      2.040      4.886
  Name = 
  15 active torsions:
  status: ('A' for Active; 'I' for Inactive)
    1  A    between atoms: C_4  and  C_22
    2  A    between atoms: C_4  and  C_40
    3  A    between atoms: C_6  and  C_25
    4  A    between atoms: C_6  and  C_38
    5  A    between atoms: C_7  and  C_58
    6  A    between atoms: C_9  and  C_17
    7  A    between atoms: C_12  and  C_49
    8  A    between atoms: C_16  and  C_17
    9  A    between atoms: C_16  and  C_30
   10  A    between atoms: C_23  and  C_33
   11  A    between atoms: N_29  and  C_35
   12  A    between atoms: C_30  and  C_32
   13  A    between atoms: C_31  and  C_38
   14  A    between atoms: C_32  and  C_48
   15  A    between atoms: C_38  and  C_49
                            x       y       z     vdW  Elec       q    Type
                         _______ _______ _______ _____ _____    ______ ____

>  <TORSDO>
F 15

$$$$
=
 OpenBabel11072409323D

 58 65  0  0  1  0  0  0  0  0999 V2000
  190.7820  172.4640  143.6250 C   0  0  2  0  0  3  0  0  0  0  0  0
  193.4290  170.7360  141.4570 O   0  0  0  0  0  0  0  0  0  0  0  0
  195.4390  173.5130  144.8180 C   0  0  2  0  0  3  0  0  0  0  0  0
  192.9100  172.9440  144.8490 C   0  0  0  0  0  2  0  0  0  0  0  0
  192.2720  172.1100  143.7010 C   0  0  1  0  0  3  0  0  0  0  0  0
  195.2830  171.7910  142.4920 C   0  0  2  0  0  0  0  0  0  0  0  0
  194.3400  172.5410  145.2870 C   0  0  1  0  0  3  0  0  0  0  0  0
  196.6550  172.8760  144.4350 O   0  0  0  0  0  0  0  0  0  0  0  0
  192.9650  169.8700  142.4710 C   0  0  0  0  0  2  0  0  0  0  0  0
  196.5690  171.8980  143.3820 C   0  0  1  0  0  3  0  0  0  0  0  0
  194.6820  171.0960  144.9760 C   0  0  1  0  0  3  0  0  0  0  0  0
  192.5250  170.5790  143.7850 C   0  0  1  0  0  3  0  0  0  0  0  0
  193.4510  170.1940  144.9380 C   0  0  0  0  0  2  0  0  0  0  0  0
  195.5250  170.8860  143.7260 C   0  0  1  0  0  3  0  0  0  0  0  0
  194.8410  170.7290  141.4990 C   0  0  2  0  0  3  0  0  0  0  0  0
  195.4040  170.9890  140.1380 C   0  0  0  0  0  3  0  0  0  0  0  0
  196.5980  170.8460  139.9330 O   0  0  0  0  0  0  0  0  0  0  0  0
  194.5870  173.1490  142.2860 C   0  0  0  0  0  2  0  0  0  0  0  0
  195.2660  173.9500  141.1910 C   0  0  0  0  0  1  0  0  0  0  0  0
  195.7240  174.5430  145.8980 C   0  0  0  0  0  2  0  0  0  0  0  0
  195.7450  176.0260  144.0280 O   0  0  0  0  0  1  0  0  0  0  0  0
  195.4330  175.9440  145.3870 C   0  0  1  0  0  3  0  0  0  0  0  0
  193.9610  176.2570  145.5990 C   0  0  0  0  0  2  0  0  0  0  0  0
  193.2370  176.4140  144.2710 C   0  0  0  0  0  2  0  0  0  0  0  0
  191.4390  177.5210  143.1550 O   0  0  0  0  0  1  0  0  0  0  0  0
  192.0170  177.3120  144.4060 C   0  0  0  0  0  2  0  0  0  0  0  0
  189.9810  171.5840  142.6620 C   0  0  0  0  0  2  0  0  0  0  0  0
  190.7160  172.3790  140.5040 N   0  0  0  0  0  0  0  0  0  0  0  0
  189.0240  173.8890  137.6260 N   0  0  0  0  0  2  0  0  0  0  0  0
  190.6510  173.1160  139.2370 C   0  0  0  0  0  2  0  0  0  0  0  0
  187.5190  172.9140  141.9420 O   0  0  0  0  0  0  0  0  0  0  0  0
  189.7470  172.2970  141.3700 C   0  0  0  0  0  0  0  0  0  0  0  0
  189.2440  173.4210  138.8080 C   0  0  0  0  0  0  0  0  0  0  0  0
  188.4330  172.8960  141.0740 C   0  0  0  0  0  0  0  0  0  0  0  0
  188.1910  173.4250  139.7730 N   0  0  0  0  0  2  0  0  0  0  0  0
  190.4610  173.9640  143.5460 C   0  0  0  0  0  2  0  0  0  0  0  0
  189.2640  174.7150  147.0800 C   0  0  0  0  0  3  0  0  0  0  0  0
  188.7020  175.4840  144.4550 C   0  0  0  0  0  3  0  0  0  0  0  0
  189.6840  174.5200  144.7000 C   0  0  0  0  0  0  0  0  0  0  0  0
  189.9770  174.1520  146.0190 C   0  0  0  0  0  3  0  0  0  0  0  0
  187.9750  176.0570  145.5120 C   0  0  0  0  0  0  0  0  0  0  0  0
  188.2650  175.6590  146.8270 C   0  0  0  0  0  3  0  0  0  0  0  0
  185.4660  178.4200  146.6180 C   0  0  1  0  0  3  0  0  0  0  0  0
  184.0990  178.4620  147.2660 C   0  0  0  0  0  1  0  0  0  0  0  0
  186.0360  179.1040  144.1800 C   0  0  1  0  0  3  0  0  0  0  0  0
  186.9410  177.0250  145.2510 N   0  0  0  0  0  0  0  0  0  0  0  0
  185.7180  177.0280  146.0510 C   0  0  0  0  0  2  0  0  0  0  0  0
  185.5780  179.5450  145.5780 C   0  0  0  0  0  2  0  0  0  0  0  0
  187.1140  178.0120  144.1790 C   0  0  0  0  0  2  0  0  0  0  0  0
  184.8870  178.8570  143.2030 C   0  0  0  0  0  2  0  0  0  0  0  0
  183.0010  178.1610  140.9690 C   0  0  0  0  0  1  0  0  0  0  0  0
  184.9050  177.3730  139.6920 N   0  0  0  0  0  2  0  0  0  0  0  0
  184.5060  178.2720  140.7750 C   0  0  2  0  0  3  0  0  0  0  0  0
  186.6870  176.8040  138.3180 F   0  0  0  0  0  0  0  0  0  0  0  0
  186.3270  177.5590  139.4200 C   0  0  2  0  0  3  0  0  0  0  0  0
  185.2490  177.9020  142.0690 C   0  0  1  0  0  3  0  0  0  0  0  0
  186.7580  177.9550  141.8370 C   0  0  0  0  0  2  0  0  0  0  0  0
  187.1460  177.1120  140.6280 C   0  0  0  0  0  2  0  0  0  0  0  0
  1 27  1  6  0  0  0
  2 15  1  0  0  0  0
  2  9  1  0  0  0  0
  3  7  1  0  0  0  0
  3 20  1  1  0  0  0
  5  1  1  1  0  0  0
  5 12  1  0  0  0  0
  5  4  1  0  0  0  0
  6 18  1  1  0  0  0
  6 10  1  0  0  0  0
  6 14  1  0  0  0  0
  7  4  1  6  0  0  0
  8  3  1  0  0  0  0
 10 14  1  0  0  0  0
 10  8  1  1  0  0  0
 11 13  1  6  0  0  0
 11  7  1  0  0  0  0
 12  9  1  6  0  0  0
 12 13  1  0  0  0  0
 14 11  1  0  0  0  0
 15  6  1  0  0  0  0
 16 15  1  0  0  0  0
 17 16  2  0  0  0  0
 19 18  1  0  0  0  0
 21 22  1  0  0  0  0
 22 23  1  0  0  0  0
 22 20  1  0  0  0  0
 24 26  1  0  0  0  0
 24 23  1  0  0  0  0
 25 26  1  0  0  0  0
 28 32  2  0  0  0  0
 29 33  2  0  0  0  0
 30 28  1  0  0  0  0
 32 27  1  0  0  0  0
 33 30  1  0  0  0  0
 33 35  1  0  0  0  0
 34 32  1  0  0  0  0
 34 31  2  0  0  0  0
 35 34  1  0  0  0  0
 36  1  1  0  0  0  0
 36 39  1  0  0  0  0
 38 39  2  0  0  0  0
 38 41  1  0  0  0  0
 39 40  1  0  0  0  0
 40 37  2  0  0  0  0
 41 42  2  0  0  0  0
 42 37  1  0  0  0  0
 43 44  1  0  0  0  0
 45 48  1  0  0  0  0
 46 41  1  0  0  0  0
 46 47  1  0  0  0  0
 47 43  1  0  0  0  0
 48 43  1  0  0  0  0
 49 45  1  0  0  0  0
 49 46  1  0  0  0  0
 50 45  1  0  0  0  0
 52 53  1  0  0  0  0
 53 51  1  0  0  0  0
 53 56  1  0  0  0  0
 54 55  1  0  0  0  0
 55 52  1  0  0  0  0
 55 58  1  0  0  0  0
 56 50  1  0  0  0  0
 57 56  1  0  0  0  0
 58 57  1  0  0  0  0
M  END
>  <MODEL>
5

>  <REMARK>
 VINA RESULT:      -6.7      2.516      5.509
  Name = 
  15 active torsions:
  status: ('A' for Active; 'I' for Inactive)
    1  A    between atoms: C_4  and  C_22
    2  A    between atoms: C_4  and  C_40
    3  A    between atoms: C_6  and  C_25
    4  A    between atoms: C_6  and  C_38
    5  A    between atoms: C_7  and  C_58
    6  A    between atoms: C_9  and  C_17
    7  A    between atoms: C_12  and  C_49
    8  A    between atoms: C_16  and  C_17
    9  A    between atoms: C_16  and  C_30
   10  A    between atoms: C_23  and  C_33
   11  A    between atoms: N_29  and  C_35
   12  A    between atoms: C_30  and  C_32
   13  A    between atoms: C_31  and  C_38
   14  A    between atoms: C_32  and  C_48
   15  A    between atoms: C_38  and  C_49
                            x       y       z     vdW  Elec       q    Type
                         _______ _______ _______ _____ _____    ______ ____

>  <TORSDO>
F 15

$$$$
=
 OpenBabel11072409323D

 58 65  0  0  1  0  0  0  0  0999 V2000
  195.0700  173.8990  140.3870 C   0  0  2  0  0  3  0  0  0  0  0  0
  196.7510  172.4360  143.5060 O   0  0  0  0  0  0  0  0  0  0  0  0
  192.1810  171.0150  143.1350 C   0  0  2  0  0  3  0  0  0  0  0  0
  193.4010  172.2170  141.1880 C   0  0  0  0  0  2  0  0  0  0  0  0
  194.8540  172.7390  141.3680 C   0  0  1  0  0  3  0  0  0  0  0  0
  194.8030  171.3580  144.3200 C   0  0  2  0  0  0  0  0  0  0  0  0
  193.0560  170.8730  141.8760 C   0  0  1  0  0  3  0  0  0  0  0  0
  192.5120  170.1050  144.1800 O   0  0  0  0  0  0  0  0  0  0  0  0
  197.0660  171.6740  142.3600 C   0  0  0  0  0  2  0  0  0  0  0  0
  193.8630  170.1550  144.6760 C   0  0  1  0  0  3  0  0  0  0  0  0
  194.2670  169.9910  142.1160 C   0  0  1  0  0  3  0  0  0  0  0  0
  195.9590  171.6510  141.2660 C   0  0  1  0  0  3  0  0  0  0  0  0
  195.3880  170.2420  141.1110 C   0  0  0  0  0  2  0  0  0  0  0  0
  194.8180  170.0220  143.5350 C   0  0  1  0  0  3  0  0  0  0  0  0
  196.3000  171.5440  144.5040 C   0  0  2  0  0  3  0  0  0  0  0  0
  196.6180  172.0800  145.8640 C   0  0  0  0  0  3  0  0  0  0  0  0
  197.0910  173.1980  145.9840 O   0  0  0  0  0  0  0  0  0  0  0  0
  194.0370  172.6830  144.1550 C   0  0  0  0  0  2  0  0  0  0  0  0
  193.5210  173.1860  145.4900 C   0  0  0  0  0  1  0  0  0  0  0  0
  190.7130  170.8590  142.7730 C   0  0  0  0  0  2  0  0  0  0  0  0
  189.8520  171.9740  144.6990 O   0  0  0  0  0  1  0  0  0  0  0  0
  189.9070  172.0320  143.3050 C   0  0  1  0  0  3  0  0  0  0  0  0
  190.5660  173.3300  142.8680 C   0  0  0  0  0  2  0  0  0  0  0  0
  189.9830  173.8240  141.5530 C   0  0  0  0  0  2  0  0  0  0  0  0
  188.1730  172.9130  140.2910 O   0  0  0  0  0  1  0  0  0  0  0  0
  188.4860  173.5730  141.4790 C   0  0  0  0  0  2  0  0  0  0  0  0
  195.5690  173.4620  139.0070 C   0  0  0  0  0  2  0  0  0  0  0  0
  196.0930  174.9730  137.1980 N   0  0  0  0  0  0  0  0  0  0  0  0
  194.0840  176.8960  134.8120 N   0  0  0  0  0  2  0  0  0  0  0  0
  195.8620  176.0180  136.1950 C   0  0  0  0  0  2  0  0  0  0  0  0
  192.8820  174.4440  138.6050 O   0  0  0  0  0  0  0  0  0  0  0  0
  195.1750  174.4600  137.9670 C   0  0  0  0  0  0  0  0  0  0  0  0
  194.4140  176.1570  135.8180 C   0  0  0  0  0  0  0  0  0  0  0  0
  193.7650  174.8540  137.8040 C   0  0  0  0  0  0  0  0  0  0  0  0
  193.3990  175.6800  136.7020 N   0  0  0  0  0  2  0  0  0  0  0  0
  195.7750  175.1340  140.9670 C   0  0  0  0  0  2  0  0  0  0  0  0
  195.7150  176.2360  144.6090 C   0  0  0  0  0  3  0  0  0  0  0  0
  193.9380  175.8770  142.4850 C   0  0  0  0  0  3  0  0  0  0  0  0
  195.2930  175.5800  142.3130 C   0  0  0  0  0  0  0  0  0  0  0  0
  196.1840  175.7820  143.3750 C   0  0  0  0  0  3  0  0  0  0  0  0
  193.4510  176.3330  143.7220 C   0  0  0  0  0  0  0  0  0  0  0  0
  194.3550  176.5060  144.7830 C   0  0  0  0  0  3  0  0  0  0  0  0
  190.5710  176.9720  145.8190 C   0  0  1  0  0  3  0  0  0  0  0  0
  189.6440  176.2670  146.7850 C   0  0  0  0  0  1  0  0  0  0  0  0
  189.9430  177.8980  143.4770 C   0  0  1  0  0  3  0  0  0  0  0  0
  192.0480  176.6040  143.9020 N   0  0  0  0  0  0  0  0  0  0  0  0
  191.3040  175.9400  144.9700 C   0  0  0  0  0  2  0  0  0  0  0  0
  189.7780  178.0010  145.0000 C   0  0  0  0  0  2  0  0  0  0  0  0
  191.3630  177.5490  143.0140 C   0  0  0  0  0  2  0  0  0  0  0  0
  188.8400  177.0920  142.7890 C   0  0  0  0  0  2  0  0  0  0  0  0
  187.1140  176.9120  140.3350 C   0  0  0  0  0  1  0  0  0  0  0  0
  185.2850  177.8380  141.6310 N   0  0  0  0  0  2  0  0  0  0  0  0
  186.5450  177.0990  141.7340 C   0  0  2  0  0  3  0  0  0  0  0  0
  183.4260  178.5080  142.8470 F   0  0  0  0  0  0  0  0  0  0  0  0
  184.6730  177.9200  142.9540 C   0  0  2  0  0  3  0  0  0  0  0  0
  187.5350  177.8660  142.6250 C   0  0  1  0  0  3  0  0  0  0  0  0
  186.9210  178.1020  144.0040 C   0  0  0  0  0  2  0  0  0  0  0  0
  185.5520  178.7600  143.8770 C   0  0  0  0  0  2  0  0  0  0  0  0
  1 27  1  6  0  0  0
  1 36  1  0  0  0  0
  2 15  1  0  0  0  0
  3 20  1  6  0  0  0
  3  8  1  0  0  0  0
  4  5  1  0  0  0  0
  5  1  1  6  0  0  0
  6 18  1  6  0  0  0
  6 15  1  0  0  0  0
  6 10  1  0  0  0  0
  7  4  1  1  0  0  0
  7 11  1  0  0  0  0
  7  3  1  0  0  0  0
  9  2  1  0  0  0  0
 10  8  1  6  0  0  0
 11 13  1  6  0  0  0
 11 14  1  0  0  0  0
 12 13  1  1  0  0  0
 12  5  1  0  0  0  0
 12  9  1  0  0  0  0
 14  6  1  0  0  0  0
 14 10  1  0  0  0  0
 15 16  1  0  0  0  0
 16 17  2  0  0  0  0
 18 19  1  0  0  0  0
 20 22  1  0  0  0  0
 22 21  1  0  0  0  0
 23 22  1  0  0  0  0
 24 23  1  0  0  0  0
 25 26  1  0  0  0  0
 26 24  1  0  0  0  0
 28 32  2  0  0  0  0
 29 33  2  0  0  0  0
 30 28  1  0  0  0  0
 32 27  1  0  0  0  0
 33 30  1  0  0  0  0
 33 35  1  0  0  0  0
 34 32  1  0  0  0  0
 34 31  2  0  0  0  0
 35 34  1  0  0  0  0
 36 39  1  0  0  0  0
 37 42  1  0  0  0  0
 38 41  1  0  0  0  0
 39 38  2  0  0  0  0
 39 40  1  0  0  0  0
 40 37  2  0  0  0  0
 41 46  1  0  0  0  0
 41 42  2  0  0  0  0
 43 44  1  0  0  0  0
 45 48  1  0  0  0  0
 46 47  1  0  0  0  0
 47 43  1  0  0  0  0
 48 43  1  0  0  0  0
 49 45  1  0  0  0  0
 49 46  1  0  0  0  0
 50 45  1  0  0  0  0
 51 53  1  0  0  0  0
 52 53  1  0  0  0  0
 52 55  1  0  0  0  0
 53 56  1  0  0  0  0
 54 55  1  0  0  0  0
 55 58  1  0  0  0  0
 56 50  1  0  0  0  0
 56 57  1  0  0  0  0
 58 57  1  0  0  0  0
M  END
>  <MODEL>
6

>  <REMARK>
 VINA RESULT:      -6.5      1.474      2.217
  Name = 
  15 active torsions:
  status: ('A' for Active; 'I' for Inactive)
    1  A    between atoms: C_4  and  C_22
    2  A    between atoms: C_4  and  C_40
    3  A    between atoms: C_6  and  C_25
    4  A    between atoms: C_6  and  C_38
    5  A    between atoms: C_7  and  C_58
    6  A    between atoms: C_9  and  C_17
    7  A    between atoms: C_12  and  C_49
    8  A    between atoms: C_16  and  C_17
    9  A    between atoms: C_16  and  C_30
   10  A    between atoms: C_23  and  C_33
   11  A    between atoms: N_29  and  C_35
   12  A    between atoms: C_30  and  C_32
   13  A    between atoms: C_31  and  C_38
   14  A    between atoms: C_32  and  C_48
   15  A    between atoms: C_38  and  C_49
                            x       y       z     vdW  Elec       q    Type
                         _______ _______ _______ _____ _____    ______ ____

>  <TORSDO>
F 15

$$$$
=
 OpenBabel11072409323D

 58 65  0  0  1  0  0  0  0  0999 V2000
  194.6200  173.7880  141.9470 C   0  0  2  0  0  3  0  0  0  0  0  0
  197.3370  171.6640  140.2720 O   0  0  0  0  0  0  0  0  0  0  0  0
  195.3160  174.7140  137.1640 C   0  0  2  0  0  3  0  0  0  0  0  0
  194.8970  174.8870  139.7170 C   0  0  0  0  0  2  0  0  0  0  0  0
  195.4990  173.8340  140.6910 C   0  0  1  0  0  3  0  0  0  0  0  0
  196.9900  172.5400  138.0970 C   0  0  2  0  0  0  0  0  0  0  0  0
  195.7770  175.3000  138.5120 C   0  0  1  0  0  3  0  0  0  0  0  0
  196.3820  174.3370  136.2980 O   0  0  0  0  0  0  0  0  0  0  0  0
  197.9050  172.7610  140.9560 C   0  0  0  0  0  2  0  0  0  0  0  0
  197.3170  173.3690  136.8080 C   0  0  1  0  0  3  0  0  0  0  0  0
  197.2610  175.0930  138.7490 C   0  0  1  0  0  3  0  0  0  0  0  0
  197.0060  174.0300  141.0170 C   0  0  1  0  0  3  0  0  0  0  0  0
  197.6390  175.1730  140.2260 C   0  0  0  0  0  2  0  0  0  0  0  0
  197.8450  173.8320  138.1260 C   0  0  1  0  0  3  0  0  0  0  0  0
  197.8680  171.6520  138.9640 C   0  0  2  0  0  3  0  0  0  0  0  0
  197.9180  170.2540  138.4340 C   0  0  0  0  0  3  0  0  0  0  0  0
  197.8090  169.3090  139.1970 O   0  0  0  0  0  0  0  0  0  0  0  0
  195.4860  172.2540  138.2540 C   0  0  0  0  0  2  0  0  0  0  0  0
  195.0600  171.0800  137.3920 C   0  0  0  0  0  1  0  0  0  0  0  0
  194.4040  175.6970  136.4500 C   0  0  0  0  0  2  0  0  0  0  0  0
  192.1480  176.0890  135.7760 O   0  0  0  0  0  1  0  0  0  0  0  0
  192.9600  175.2290  136.5170 C   0  0  1  0  0  3  0  0  0  0  0  0
  192.8660  173.8190  135.9570 C   0  0  0  0  0  2  0  0  0  0  0  0
  191.9120  172.9650  136.7770 C   0  0  0  0  0  2  0  0  0  0  0  0
  191.2710  170.6660  136.8620 O   0  0  0  0  0  1  0  0  0  0  0  0
  191.4470  171.7460  135.9970 C   0  0  0  0  0  2  0  0  0  0  0  0
  195.3600  174.1460  143.2390 C   0  0  0  0  0  2  0  0  0  0  0  0
  193.9790  175.9650  144.0210 N   0  0  0  0  0  0  0  0  0  0  0  0
  191.5130  176.3290  146.7070 N   0  0  0  0  0  2  0  0  0  0  0  0
  193.1230  176.7170  144.9460 C   0  0  0  0  0  2  0  0  0  0  0  0
  194.4940  172.8770  145.6860 O   0  0  0  0  0  0  0  0  0  0  0  0
  194.4230  174.7580  144.2280 C   0  0  0  0  0  0  0  0  0  0  0  0
  192.4420  175.8380  145.9570 C   0  0  0  0  0  0  0  0  0  0  0  0
  193.9960  174.0050  145.4210 C   0  0  0  0  0  0  0  0  0  0  0  0
  192.9790  174.5500  146.2570 N   0  0  0  0  0  2  0  0  0  0  0  0
  193.6840  172.5750  142.0550 C   0  0  0  0  0  2  0  0  0  0  0  0
  190.5400  172.0870  139.9670 C   0  0  0  0  0  3  0  0  0  0  0  0
  191.4800  173.7450  142.0070 C   0  0  0  0  0  3  0  0  0  0  0  0
  192.3160  172.7610  141.4730 C   0  0  0  0  0  0  0  0  0  0  0  0
  191.8340  171.9180  140.4640 C   0  0  0  0  0  3  0  0  0  0  0  0
  190.1770  173.9290  141.5150 C   0  0  0  0  0  0  0  0  0  0  0  0
  189.7180  173.0900  140.4860 C   0  0  0  0  0  3  0  0  0  0  0  0
  189.6570  177.2770  142.7880 C   0  0  1  0  0  3  0  0  0  0  0  0
  189.9460  178.1270  144.0060 C   0  0  0  0  0  1  0  0  0  0  0  0
  187.3220  176.4670  141.9930 C   0  0  1  0  0  3  0  0  0  0  0  0
  189.3320  174.9670  142.0450 N   0  0  0  0  0  0  0  0  0  0  0  0
  189.8000  175.8030  143.1490 C   0  0  0  0  0  2  0  0  0  0  0  0
  188.2800  177.6460  142.2160 C   0  0  0  0  0  2  0  0  0  0  0  0
  187.9970  175.1890  141.4770 C   0  0  0  0  0  2  0  0  0  0  0  0
  186.3420  176.2410  143.1440 C   0  0  0  0  0  2  0  0  0  0  0  0
  184.4610  178.5840  143.0650 C   0  0  0  0  0  1  0  0  0  0  0  0
  184.9810  178.9990  145.3970 N   0  0  0  0  0  2  0  0  0  0  0  0
  184.9520  177.9620  144.3640 C   0  0  2  0  0  3  0  0  0  0  0  0
  185.2480  179.3350  147.6770 F   0  0  0  0  0  0  0  0  0  0  0  0
  185.3380  178.3870  146.6740 C   0  0  2  0  0  3  0  0  0  0  0  0
  186.3550  177.3600  144.1810 C   0  0  1  0  0  3  0  0  0  0  0  0
  186.8580  176.8000  145.5100 C   0  0  0  0  0  2  0  0  0  0  0  0
  186.7660  177.8530  146.6080 C   0  0  0  0  0  2  0  0  0  0  0  0
  1 36  1  1  0  0  0
  1 27  1  0  0  0  0
  2  9  1  0  0  0  0
  3 20  1  6  0  0  0
  3  7  1  0  0  0  0
  4  5  1  0  0  0  0
  5 12  1  0  0  0  0
  5  1  1  1  0  0  0
  6 14  1  0  0  0  0
  6 18  1  1  0  0  0
  6 15  1  0  0  0  0
  7 11  1  0  0  0  0
  7  4  1  1  0  0  0
  8  3  1  0  0  0  0
  9 12  1  0  0  0  0
 10  8  1  1  0  0  0
 10  6  1  0  0  0  0
 10 14  1  0  0  0  0
 11 13  1  1  0  0  0
 12 13  1  6  0  0  0
 14 11  1  0  0  0  0
 15  2  1  0  0  0  0
 16 15  1  0  0  0  0
 16 17  2  0  0  0  0
 19 18  1  0  0  0  0
 20 22  1  0  0  0  0
 21 22  1  0  0  0  0
 23 22  1  0  0  0  0
 23 24  1  0  0  0  0
 26 24  1  0  0  0  0
 26 25  1  0  0  0  0
 27 32  1  0  0  0  0
 28 32  2  0  0  0  0
 28 30  1  0  0  0  0
 30 33  1  0  0  0  0
 32 34  1  0  0  0  0
 33 35  1  0  0  0  0
 33 29  2  0  0  0  0
 34 31  2  0  0  0  0
 34 35  1  0  0  0  0
 37 40  2  0  0  0  0
 37 42  1  0  0  0  0
 39 38  2  0  0  0  0
 39 36  1  0  0  0  0
 40 39  1  0  0  0  0
 41 38  1  0  0  0  0
 41 46  1  0  0  0  0
 42 41  2  0  0  0  0
 43 47  1  0  0  0  0
 43 44  1  0  0  0  0
 45 48  1  0  0  0  0
 45 50  1  0  0  0  0
 46 47  1  0  0  0  0
 48 43  1  0  0  0  0
 49 45  1  0  0  0  0
 49 46  1  0  0  0  0
 50 56  1  0  0  0  0
 51 53  1  0  0  0  0
 52 55  1  0  0  0  0
 53 52  1  0  0  0  0
 55 54  1  0  0  0  0
 56 53  1  0  0  0  0
 56 57  1  0  0  0  0
 57 58  1  0  0  0  0
 58 55  1  0  0  0  0
M  END
>  <MODEL>
7

>  <REMARK>
 VINA RESULT:      -6.4      2.551      6.021
  Name = 
  15 active torsions:
  status: ('A' for Active; 'I' for Inactive)
    1  A    between atoms: C_4  and  C_22
    2  A    between atoms: C_4  and  C_40
    3  A    between atoms: C_6  and  C_25
    4  A    between atoms: C_6  and  C_38
    5  A    between atoms: C_7  and  C_58
    6  A    between atoms: C_9  and  C_17
    7  A    between atoms: C_12  and  C_49
    8  A    between atoms: C_16  and  C_17
    9  A    between atoms: C_16  and  C_30
   10  A    between atoms: C_23  and  C_33
   11  A    between atoms: N_29  and  C_35
   12  A    between atoms: C_30  and  C_32
   13  A    between atoms: C_31  and  C_38
   14  A    between atoms: C_32  and  C_48
   15  A    between atoms: C_38  and  C_49
                            x       y       z     vdW  Elec       q    Type
                         _______ _______ _______ _____ _____    ______ ____

>  <TORSDO>
F 15

$$$$
=
 OpenBabel11072409323D

 58 65  0  0  1  0  0  0  0  0999 V2000
  193.0010  172.2580  140.8240 C   0  0  2  0  0  3  0  0  0  0  0  0
  196.5100  173.3740  141.8870 O   0  0  0  0  0  0  0  0  0  0  0  0
  193.2870  174.1450  145.3590 C   0  0  2  0  0  3  0  0  0  0  0  0
  192.7270  172.7210  143.2660 C   0  0  0  0  0  2  0  0  0  0  0  0
  193.7640  172.5580  142.1190 C   0  0  1  0  0  3  0  0  0  0  0  0
  195.8380  174.2430  143.9870 C   0  0  2  0  0  0  0  0  0  0  0  0
  193.2870  172.7490  144.7100 C   0  0  1  0  0  3  0  0  0  0  0  0
  194.4220  174.4060  146.1790 O   0  0  0  0  0  0  0  0  0  0  0  0
  196.3480  171.9830  142.0660 C   0  0  0  0  0  2  0  0  0  0  0  0
  195.7120  174.3050  145.5480 C   0  0  1  0  0  3  0  0  0  0  0  0
  194.6270  172.0510  144.8510 C   0  0  1  0  0  3  0  0  0  0  0  0
  194.8970  171.5320  142.4020 C   0  0  1  0  0  3  0  0  0  0  0  0
  194.8300  170.9500  143.8130 C   0  0  0  0  0  2  0  0  0  0  0  0
  195.8360  172.9760  144.8780 C   0  0  1  0  0  3  0  0  0  0  0  0
  197.0190  173.9060  143.0920 C   0  0  2  0  0  3  0  0  0  0  0  0
  197.8550  175.1140  142.8170 C   0  0  0  0  0  3  0  0  0  0  0  0
  197.8970  175.5840  141.6920 O   0  0  0  0  0  0  0  0  0  0  0  0
  194.7350  175.0420  143.2700 C   0  0  0  0  0  2  0  0  0  0  0  0
  195.0640  176.5230  143.2410 C   0  0  0  0  0  1  0  0  0  0  0  0
  192.0170  174.3460  146.1700 C   0  0  0  0  0  2  0  0  0  0  0  0
  192.1790  176.6740  145.6700 O   0  0  0  0  0  1  0  0  0  0  0  0
  191.9480  175.7670  146.7050 C   0  0  1  0  0  3  0  0  0  0  0  0
  190.5720  176.0070  147.3050 C   0  0  0  0  0  2  0  0  0  0  0  0
  190.5000  177.3650  147.9860 C   0  0  0  0  0  2  0  0  0  0  0  0
  191.3080  178.5640  149.8870 O   0  0  0  0  0  1  0  0  0  0  0  0
  191.6250  177.5410  148.9940 C   0  0  0  0  0  2  0  0  0  0  0  0
  193.2080  173.3030  139.7230 C   0  0  0  0  0  2  0  0  0  0  0  0
  194.6840  171.8710  138.4570 N   0  0  0  0  0  0  0  0  0  0  0  0
  197.7910  172.4130  136.5930 N   0  0  0  0  0  2  0  0  0  0  0  0
  195.9170  171.4540  137.7810 C   0  0  0  0  0  2  0  0  0  0  0  0
  195.3620  175.2080  139.4440 O   0  0  0  0  0  0  0  0  0  0  0  0
  194.4820  173.0440  138.9870 C   0  0  0  0  0  0  0  0  0  0  0  0
  196.7770  172.6140  137.3660 C   0  0  0  0  0  0  0  0  0  0  0  0
  195.4980  174.1030  138.8530 C   0  0  0  0  0  0  0  0  0  0  0  0
  196.6250  173.8790  138.0100 N   0  0  0  0  0  2  0  0  0  0  0  0
  191.5490  171.7920  141.0040 C   0  0  0  0  0  2  0  0  0  0  0  0
  189.0310  173.2560  138.5530 C   0  0  0  0  0  3  0  0  0  0  0  0
  189.9400  173.6950  141.1570 C   0  0  0  0  0  3  0  0  0  0  0  0
  190.5060  172.6740  140.3870 C   0  0  0  0  0  0  0  0  0  0  0  0
  190.0320  172.4440  139.0900 C   0  0  0  0  0  3  0  0  0  0  0  0
  188.9340  174.5220  140.6290 C   0  0  0  0  0  0  0  0  0  0  0  0
  188.4880  174.2920  139.3170 C   0  0  0  0  0  3  0  0  0  0  0  0
  189.2740  177.5560  142.5730 C   0  0  1  0  0  3  0  0  0  0  0  0
  189.7890  178.0410  143.9110 C   0  0  0  0  0  1  0  0  0  0  0  0
  186.7950  177.4980  141.8060 C   0  0  1  0  0  3  0  0  0  0  0  0
  188.3790  175.5940  141.4150 N   0  0  0  0  0  0  0  0  0  0  0  0
  189.0620  176.0470  142.6240 C   0  0  0  0  0  2  0  0  0  0  0  0
  188.0160  178.3480  142.1880 C   0  0  0  0  0  2  0  0  0  0  0  0
  187.1270  176.2350  141.0000 C   0  0  0  0  0  2  0  0  0  0  0  0
  185.8150  177.2720  142.9580 C   0  0  0  0  0  2  0  0  0  0  0  0
  185.0700  179.9590  144.0780 C   0  0  0  0  0  1  0  0  0  0  0  0
  185.7940  179.1810  146.2570 N   0  0  0  0  0  2  0  0  0  0  0  0
  185.3040  178.7360  144.9520 C   0  0  2  0  0  3  0  0  0  0  0  0
  186.2530  178.4490  148.4110 F   0  0  0  0  0  0  0  0  0  0  0  0
  185.9090  178.0240  147.1410 C   0  0  2  0  0  3  0  0  0  0  0  0
  186.3250  177.7900  144.2990 C   0  0  1  0  0  3  0  0  0  0  0  0
  186.5960  176.6010  145.2200 C   0  0  0  0  0  2  0  0  0  0  0  0
  186.9850  177.0790  146.6140 C   0  0  0  0  0  2  0  0  0  0  0  0
  1 27  1  6  0  0  0
  1 36  1  0  0  0  0
  2  9  1  0  0  0  0
  2 15  1  0  0  0  0
  3 20  1  1  0  0  0
  3  8  1  0  0  0  0
  5  1  1  6  0  0  0
  5 12  1  0  0  0  0
  5  4  1  0  0  0  0
  6 18  1  6  0  0  0
  6 14  1  0  0  0  0
  6 10  1  0  0  0  0
  7  4  1  6  0  0  0
  7 11  1  0  0  0  0
  7  3  1  0  0  0  0
 10  8  1  6  0  0  0
 11 13  1  6  0  0  0
 11 14  1  0  0  0  0
 12  9  1  1  0  0  0
 12 13  1  0  0  0  0
 14 10  1  0  0  0  0
 15  6  1  0  0  0  0
 16 15  1  0  0  0  0
 17 16  2  0  0  0  0
 19 18  1  0  0  0  0
 20 22  1  0  0  0  0
 21 22  1  0  0  0  0
 22 23  1  0  0  0  0
 23 24  1  0  0  0  0
 24 26  1  0  0  0  0
 26 25  1  0  0  0  0
 28 32  2  0  0  0  0
 29 33  2  0  0  0  0
 30 28  1  0  0  0  0
 32 27  1  0  0  0  0
 33 30  1  0  0  0  0
 33 35  1  0  0  0  0
 34 32  1  0  0  0  0
 34 31  2  0  0  0  0
 35 34  1  0  0  0  0
 37 40  2  0  0  0  0
 37 42  1  0  0  0  0
 39 36  1  0  0  0  0
 39 38  2  0  0  0  0
 40 39  1  0  0  0  0
 41 38  1  0  0  0  0
 41 46  1  0  0  0  0
 42 41  2  0  0  0  0
 43 47  1  0  0  0  0
 43 44  1  0  0  0  0
 45 48  1  0  0  0  0
 45 50  1  0  0  0  0
 46 47  1  0  0  0  0
 48 43  1  0  0  0  0
 49 46  1  0  0  0  0
 49 45  1  0  0  0  0
 50 56  1  0  0  0  0
 51 53  1  0  0  0  0
 52 55  1  0  0  0  0
 53 52  1  0  0  0  0
 55 54  1  0  0  0  0
 56 53  1  0  0  0  0
 56 57  1  0  0  0  0
 57 58  1  0  0  0  0
 58 55  1  0  0  0  0
M  END
>  <MODEL>
8

>  <REMARK>
 VINA RESULT:      -6.4      2.407      4.717
  Name = 
  15 active torsions:
  status: ('A' for Active; 'I' for Inactive)
    1  A    between atoms: C_4  and  C_22
    2  A    between atoms: C_4  and  C_40
    3  A    between atoms: C_6  and  C_25
    4  A    between atoms: C_6  and  C_38
    5  A    between atoms: C_7  and  C_58
    6  A    between atoms: C_9  and  C_17
    7  A    between atoms: C_12  and  C_49
    8  A    between atoms: C_16  and  C_17
    9  A    between atoms: C_16  and  C_30
   10  A    between atoms: C_23  and  C_33
   11  A    between atoms: N_29  and  C_35
   12  A    between atoms: C_30  and  C_32
   13  A    between atoms: C_31  and  C_38
   14  A    between atoms: C_32  and  C_48
   15  A    between atoms: C_38  and  C_49
                            x       y       z     vdW  Elec       q    Type
                         _______ _______ _______ _____ _____    ______ ____

>  <TORSDO>
F 15

$$$$
=
 OpenBabel11072409323D

 58 65  0  0  1  0  0  0  0  0999 V2000
  194.3260  173.1030  140.6450 C   0  0  2  0  0  3  0  0  0  0  0  0
  194.5690  175.9890  143.1560 O   0  0  0  0  0  0  0  0  0  0  0  0
  196.3930  171.9290  144.9530 C   0  0  2  0  0  3  0  0  0  0  0  0
  195.7870  172.1610  142.4430 C   0  0  0  0  0  2  0  0  0  0  0  0
  195.1210  173.4600  141.9060 C   0  0  1  0  0  3  0  0  0  0  0  0
  195.4790  174.6790  144.9090 C   0  0  2  0  0  0  0  0  0  0  0  0
  196.8620  172.3360  143.5440 C   0  0  1  0  0  3  0  0  0  0  0  0
  196.8880  172.7630  145.9960 O   0  0  0  0  0  0  0  0  0  0  0  0
  195.6320  176.0380  142.2270 C   0  0  0  0  0  2  0  0  0  0  0  0
  196.5740  174.1650  145.9060 C   0  0  1  0  0  3  0  0  0  0  0  0
  197.5210  173.7020  143.5320 C   0  0  1  0  0  3  0  0  0  0  0  0
  196.0930  174.6520  141.6880 C   0  0  1  0  0  3  0  0  0  0  0  0
  197.5180  174.3470  142.1480 C   0  0  0  0  0  2  0  0  0  0  0  0
  196.9910  174.6840  144.5680 C   0  0  1  0  0  3  0  0  0  0  0  0
  195.1250  176.0840  144.4510 C   0  0  2  0  0  3  0  0  0  0  0  0
  194.1570  176.7330  145.3870 C   0  0  0  0  0  3  0  0  0  0  0  0
  194.5650  177.3330  146.3680 O   0  0  0  0  0  0  0  0  0  0  0  0
  194.3430  173.6610  144.6980 C   0  0  0  0  0  2  0  0  0  0  0  0
  193.3010  173.7710  145.7950 C   0  0  0  0  0  1  0  0  0  0  0  0
  196.7730  170.4840  145.2350 C   0  0  0  0  0  2  0  0  0  0  0  0
  194.5640  170.4950  146.1380 O   0  0  0  0  0  1  0  0  0  0  0  0
  195.5380  169.6680  145.5780 C   0  0  1  0  0  3  0  0  0  0  0  0
  195.0010  169.0190  144.3130 C   0  0  0  0  0  2  0  0  0  0  0  0
  193.6220  169.5580  143.9640 C   0  0  0  0  0  2  0  0  0  0  0  0
  191.7850  169.3720  142.4500 O   0  0  0  0  0  1  0  0  0  0  0  0
  193.0780  168.9140  142.6990 C   0  0  0  0  0  2  0  0  0  0  0  0
  194.0910  174.2860  139.7010 C   0  0  0  0  0  2  0  0  0  0  0  0
  195.8150  173.2500  138.3640 N   0  0  0  0  0  0  0  0  0  0  0  0
  196.5460  173.1430  134.7760 N   0  0  0  0  0  2  0  0  0  0  0  0
  196.6560  173.0100  137.1870 C   0  0  0  0  0  2  0  0  0  0  0  0
  193.4690  175.6570  137.2350 O   0  0  0  0  0  0  0  0  0  0  0  0
  194.8070  174.0740  138.4070 C   0  0  0  0  0  0  0  0  0  0  0  0
  196.0130  173.4640  135.9060 C   0  0  0  0  0  0  0  0  0  0  0  0
  194.3760  174.7830  137.1880 C   0  0  0  0  0  0  0  0  0  0  0  0
  194.9710  174.4390  135.9400 N   0  0  0  0  0  2  0  0  0  0  0  0
  193.1020  172.2030  140.8670 C   0  0  0  0  0  2  0  0  0  0  0  0
  189.6050  173.3660  139.9160 C   0  0  0  0  0  3  0  0  0  0  0  0
  191.4400  173.6840  141.9960 C   0  0  0  0  0  3  0  0  0  0  0  0
  191.7780  172.9050  140.8860 C   0  0  0  0  0  0  0  0  0  0  0  0
  190.8470  172.7320  139.8550 C   0  0  0  0  0  3  0  0  0  0  0  0
  190.1950  174.3310  142.0710 C   0  0  0  0  0  0  0  0  0  0  0  0
  189.2820  174.1650  141.0160 C   0  0  0  0  0  3  0  0  0  0  0  0
  190.1330  174.9940  145.6280 C   0  0  1  0  0  3  0  0  0  0  0  0
  189.4380  174.5420  146.8940 C   0  0  0  0  0  1  0  0  0  0  0  0
  189.8990  177.3130  144.4860 C   0  0  1  0  0  3  0  0  0  0  0  0
  189.8650  175.1600  143.2010 N   0  0  0  0  0  0  0  0  0  0  0  0
  189.3170  174.5620  144.4160 C   0  0  0  0  0  2  0  0  0  0  0  0
  190.3940  176.5060  145.6960 C   0  0  0  0  0  2  0  0  0  0  0  0
  190.0820  176.6100  143.1350 C   0  0  0  0  0  2  0  0  0  0  0  0
  188.5220  177.9450  144.6880 C   0  0  0  0  0  2  0  0  0  0  0  0
  185.8440  176.7890  145.4140 C   0  0  0  0  0  1  0  0  0  0  0  0
  185.0930  177.2780  143.1610 N   0  0  0  0  0  2  0  0  0  0  0  0
  186.0610  177.6640  144.1880 C   0  0  2  0  0  3  0  0  0  0  0  0
  184.2240  177.9090  141.1040 F   0  0  0  0  0  0  0  0  0  0  0  0
  185.2150  178.1890  142.0260 C   0  0  2  0  0  3  0  0  0  0  0  0
  187.4930  177.5010  143.6520 C   0  0  1  0  0  3  0  0  0  0  0  0
  187.6720  178.3360  142.3850 C   0  0  0  0  0  2  0  0  0  0  0  0
  186.5820  178.0130  141.3700 C   0  0  0  0  0  2  0  0  0  0  0  0
  1 27  1  1  0  0  0
  1 36  1  0  0  0  0
  2 15  1  0  0  0  0
  3 20  1  1  0  0  0
  3  8  1  0  0  0  0
  5  1  1  6  0  0  0
  5  4  1  0  0  0  0
  6 18  1  6  0  0  0
  6 10  1  0  0  0  0
  7  4  1  6  0  0  0
  7  3  1  0  0  0  0
  9  2  1  0  0  0  0
 10  8  1  6  0  0  0
 11 13  1  6  0  0  0
 11  7  1  0  0  0  0
 11 14  1  0  0  0  0
 12  5  1  0  0  0  0
 12 13  1  1  0  0  0
 12  9  1  0  0  0  0
 14  6  1  0  0  0  0
 14 10  1  0  0  0  0
 15  6  1  0  0  0  0
 15 16  1  0  0  0  0
 16 17  2  0  0  0  0
 18 19  1  0  0  0  0
 20 22  1  0  0  0  0
 22 21  1  0  0  0  0
 23 22  1  0  0  0  0
 24 23  1  0  0  0  0
 25 26  1  0  0  0  0
 26 24  1  0  0  0  0
 28 32  2  0  0  0  0
 29 33  2  0  0  0  0
 30 28  1  0  0  0  0
 32 27  1  0  0  0  0
 33 35  1  0  0  0  0
 33 30  1  0  0  0  0
 34 31  2  0  0  0  0
 34 32  1  0  0  0  0
 35 34  1  0  0  0  0
 36 39  1  0  0  0  0
 37 42  1  0  0  0  0
 38 41  1  0  0  0  0
 39 38  2  0  0  0  0
 40 37  2  0  0  0  0
 40 39  1  0  0  0  0
 41 46  1  0  0  0  0
 42 41  2  0  0  0  0
 43 48  1  0  0  0  0
 43 44  1  0  0  0  0
 45 50  1  0  0  0  0
 45 48  1  0  0  0  0
 46 47  1  0  0  0  0
 47 43  1  0  0  0  0
 49 46  1  0  0  0  0
 49 45  1  0  0  0  0
 52 53  1  0  0  0  0
 53 51  1  0  0  0  0
 54 55  1  0  0  0  0
 55 52  1  0  0  0  0
 56 53  1  0  0  0  0
 56 50  1  0  0  0  0
 57 56  1  0  0  0  0
 58 55  1  0  0  0  0
 58 57  1  0  0  0  0
M  END
>  <MODEL>
9

>  <REMARK>
 VINA RESULT:      -6.4      1.997      4.151
  Name = 
  15 active torsions:
  status: ('A' for Active; 'I' for Inactive)
    1  A    between atoms: C_4  and  C_22
    2  A    between atoms: C_4  and  C_40
    3  A    between atoms: C_6  and  C_25
    4  A    between atoms: C_6  and  C_38
    5  A    between atoms: C_7  and  C_58
    6  A    between atoms: C_9  and  C_17
    7  A    between atoms: C_12  and  C_49
    8  A    between atoms: C_16  and  C_17
    9  A    between atoms: C_16  and  C_30
   10  A    between atoms: C_23  and  C_33
   11  A    between atoms: N_29  and  C_35
   12  A    between atoms: C_30  and  C_32
   13  A    between atoms: C_31  and  C_38
   14  A    between atoms: C_32  and  C_48
   15  A    between atoms: C_38  and  C_49
                            x       y       z     vdW  Elec       q    Type
                         _______ _______ _______ _____ _____    ______ ____

>  <TORSDO>
F 15

$$$$
