=
 OpenBabel11062418413D

 69 79  0  0  1  0  0  0  0  0999 V2000
  190.7920  171.1480  140.8190 C   0  0  0  0  0  2  0  0  0  0  0  0
  190.5190  173.7330  142.3650 C   0  0  1  0  0  3  0  0  0  0  0  0
  183.4790  178.8930  143.4190 C   0  0  0  0  0  0  0  0  0  0  0  0
  192.9990  173.7490  142.5070 O   0  0  0  0  0  1  0  0  0  0  0  0
  188.9870  175.4620  141.3420 C   0  0  1  0  0  3  0  0  0  0  0  0
  187.3780  175.2540  147.7830 C   0  0  0  0  0  2  0  0  0  0  0  0
  188.7710  175.4350  147.1690 C   0  0  0  0  0  2  0  0  0  0  0  0
  192.0730  171.8510  141.1840 C   0  0  1  0  0  3  0  0  0  0  0  0
  189.1830  175.8320  142.7830 C   0  0  1  0  0  3  0  0  0  0  0  0
  187.8110  176.4340  145.0710 C   0  0  2  0  0  3  0  0  0  0  0  0
  185.7360  177.9520  144.8080 C   0  0  1  0  0  3  0  0  0  0  0  0
  188.6730  176.6670  146.2740 C   0  0  2  0  0  0  0  0  0  0  0  0
  187.6570  178.8850  147.2740 C   0  0  0  0  0  1  0  0  0  0  0  0
  188.0000  176.5090  143.5900 C   0  0  2  0  0  3  0  0  0  0  0  0
  186.8660  176.8940  142.8500 C   0  0  0  0  0  0  0  0  0  0  0  0
  186.7440  177.3790  145.5160 N   0  0  2  0  0  0  0  0  0  0  0  0
  190.4080  174.9710  143.3280 C   0  0  1  0  0  3  0  0  0  0  0  0
  189.2390  173.0860  140.1750 C   0  0  0  0  0  0  0  0  0  0  0  0
  189.8900  174.1990  141.0240 C   0  0  2  0  0  3  0  0  0  0  0  0
  186.8090  176.6890  141.3640 C   0  0  0  0  0  2  0  0  0  0  0  0
  184.6010  178.2590  142.6290 C   0  0  0  0  0  2  0  0  0  0  0  0
  183.6440  179.2760  144.6580 N   0  0  0  0  0  0  0  0  0  0  0  0
  184.8810  179.0120  145.3880 C   0  0  0  0  0  2  0  0  0  0  0  0
  188.1470  173.1810  139.7310 O   0  0  0  0  0  0  0  0  0  0  0  0
  189.9240  177.5190  146.0200 C   0  0  0  0  0  1  0  0  0  0  0  0
  187.4940  177.4780  146.7900 C   0  0  1  0  0  0  0  0  0  0  0  0
  191.9070  172.9100  142.3760 C   0  0  2  0  0  3  0  0  0  0  0  0
  185.6500  177.6110  143.4380 C   0  0  0  0  0  0  0  0  0  0  0  0
  186.8150  176.6370  147.8990 C   0  0  0  0  0  2  0  0  0  0  0  0
  190.0820  171.8970  139.7150 C   0  0  0  0  0  2  0  0  0  0  0  0
  187.4970  175.4050  140.9550 C   0  0  0  0  0  2  0  0  0  0  0  0
  191.0600  173.5630  145.3640 C   0  0  0  0  0  2  0  0  0  0  0  0
  190.2350  174.6250  144.8190 C   0  0  1  0  0  3  0  0  0  0  0  0
  191.4540  174.9360  145.6220 N   0  0  0  0  0  0  0  0  0  0  0  0
  192.7860  175.0180  144.9820 C   0  0  0  0  0  2  0  0  0  0  0  0
  194.2630  175.8090  146.7360 O   0  0  0  0  0  1  0  0  0  0  0  0
  193.6240  176.2130  145.5630 C   0  0  1  0  0  3  0  0  0  0  0  0
  194.6480  176.7350  144.5380 C   0  0  0  0  0  2  0  0  0  0  0  0
  195.5700  175.7400  143.9610 N   0  0  0  0  0  0  0  0  0  0  0  0
  195.8350  175.6350  142.5230 C   0  0  0  0  0  0  0  0  0  0  0  0
  196.4790  175.1320  144.7720 O   0  0  0  0  0  1  0  0  0  0  0  0
  195.3110  176.5890  141.8450 O   0  0  0  0  0  0  0  0  0  0  0  0
  196.8180  174.5910  141.9590 C   0  0  0  0  0  2  0  0  0  0  0  0
  196.7610  174.2250  140.4500 C   0  0  0  0  0  2  0  0  0  0  0  0
  195.5620  173.2030  140.2110 C   0  0  0  0  0  2  0  0  0  0  0  0
  194.8890  173.4140  138.8670 N   0  0  0  0  0  0  0  0  0  0  0  0
  193.7210  174.3670  138.9240 C   0  0  0  0  0  2  0  0  0  0  0  0
  193.2480  174.9980  137.5160 C   0  0  0  0  0  1  0  0  0  0  0  0
  193.6000  171.8460  138.2150 F   0  0  0  0  0  0  0  0  0  0  0  0
  194.8970  172.0290  138.2590 C   0  0  0  0  0  2  0  0  0  0  0  0
  193.2120  170.7230  141.3670 C   0  0  0  0  0  2  0  0  0  0  0  0
  195.4680  171.6700  143.7300 C   0  0  0  0  0  2  0  0  0  0  0  0
  194.5690  169.6800  144.7590 C   0  0  1  0  0  3  0  0  0  0  0  0
  195.3410  171.9280  145.1620 C   0  0  1  0  0  3  0  0  0  0  0  0
  192.6590  169.4750  143.4160 N   0  0  0  0  0  2  0  0  0  0  0  0
  194.7440  170.3690  143.4780 N   0  0  1  0  0  0  0  0  0  0  0  0
  194.5180  170.8130  145.8170 C   0  0  0  0  0  2  0  0  0  0  0  0
  193.4800  170.3330  142.8380 C   0  0  1  0  0  3  0  0  0  0  0  0
  193.2690  169.0540  144.6040 N   0  0  0  0  0  2  0  0  0  0  0  0
  196.7060  171.7180  145.8050 C   0  0  0  0  0  2  0  0  0  0  0  0
  197.7010  171.8840  144.8650 O   0  0  0  0  0  1  0  0  0  0  0  0
  182.2220  179.1880  142.7590 O   0  0  0  0  0  0  0  0  0  0  0  0
  181.2570  179.8160  140.7860 O   0  0  0  0  0  0  0  0  0  0  0  0
  180.3900  177.8020  141.7310 C   0  0  0  0  0  2  0  0  0  0  0  0
  179.3060  178.4450  140.8960 C   0  0  0  0  0  2  0  0  0  0  0  0
  179.8400  179.8350  140.6770 C   0  0  0  0  0  2  0  0  0  0  0  0
  181.6210  178.6470  141.5420 C   0  0  2  0  0  0  0  0  0  0  0  0
  182.7040  177.9110  140.7170 C   0  0  0  0  0  2  0  0  0  0  0  0
  182.1560  177.3280  139.5600 O   0  0  0  0  0  1  0  0  0  0  0  0
  1  8  1  0  0  0  0
  2 27  1  0  0  0  0
  2 17  1  0  0  0  0
  3 22  2  0  0  0  0
  5  9  1  0  0  0  0
  6 29  1  0  0  0  0
  7  6  1  0  0  0  0
  8 51  1  0  0  0  0
  8 27  1  0  0  0  0
  9 17  1  0  0  0  0
  9 14  1  0  0  0  0
 10 16  1  0  0  0  0
 10 12  1  0  0  0  0
 11 23  1  0  0  0  0
 11 16  1  0  0  0  0
 12 26  1  0  0  0  0
 12  7  1  0  0  0  0
 14 10  1  0  0  0  0
 15 28  2  0  0  0  0
 15 14  1  0  0  0  0
 16 26  1  0  0  0  0
 17 33  1  0  0  0  0
 18 19  1  0  0  0  0
 19  5  1  0  0  0  0
 19  2  1  0  0  0  0
 20 15  1  0  0  0  0
 21  3  1  0  0  0  0
 21 28  1  0  0  0  0
 22 23  1  0  0  0  0
 24 18  2  0  0  0  0
 25 12  1  0  0  0  0
 26 13  1  0  0  0  0
 26 29  1  0  0  0  0
 27  4  1  0  0  0  0
 28 11  1  0  0  0  0
 30 18  1  0  0  0  0
 30  1  1  0  0  0  0
 31  5  1  0  0  0  0
 31 20  1  0  0  0  0
 32 34  1  0  0  0  0
 33 32  1  0  0  0  0
 33 34  1  0  0  0  0
 35 37  1  0  0  0  0
 35 34  1  0  0  0  0
 37 36  1  0  0  0  0
 38 37  1  0  0  0  0
 39 38  1  0  0  0  0
 39 41  1  0  0  0  0
 40 39  1  0  0  0  0
 42 40  2  0  0  0  0
 43 40  1  0  0  0  0
 44 43  1  0  0  0  0
 45 44  1  0  0  0  0
 46 47  1  0  0  0  0
 46 45  1  0  0  0  0
 48 47  1  0  0  0  0
 49 50  1  0  0  0  0
 50 46  1  0  0  0  0
 51 58  1  0  0  0  0
 52 54  1  0  0  0  0
 53 57  1  0  0  0  0
 54 60  1  0  0  0  0
 54 57  1  0  0  0  0
 55 59  1  0  0  0  0
 56 52  1  0  0  0  0
 56 53  1  0  0  0  0
 58 55  1  0  0  0  0
 58 56  1  0  0  0  0
 59 53  1  0  0  0  0
 61 60  1  0  0  0  0
 62  3  1  0  0  0  0
 63 67  1  0  0  0  0
 65 64  1  0  0  0  0
 66 63  1  0  0  0  0
 66 65  1  0  0  0  0
 67 64  1  0  0  0  0
 67 62  1  0  0  0  0
 68 67  1  0  0  0  0
 69 68  1  0  0  0  0
M  END
>  <MODEL>
1

>  <REMARK>
 VINA RESULT:      -6.6      0.000      0.000
  Name = 
  17 active torsions:
  status: ('A' for Active; 'I' for Inactive)
    1  A    between atoms: N_1  and  C_5
    2  A    between atoms: N_1  and  C_53
    3  A    between atoms: N_1  and  C_63
    4  A    between atoms: C_8  and  O_28
    5  A    between atoms: N_13  and  C_61
    6  A    between atoms: C_17  and  C_59
    7  A    between atoms: C_18  and  C_43
    8  A    between atoms: C_19  and  C_56
    9  A    between atoms: C_20  and  C_37
   10  A    between atoms: C_23  and  C_48
   11  A    between atoms: C_23  and  C_61
   12  A    between atoms: O_28  and  C_59
   13  A    between atoms: C_32  and  C_44
   14  A    between atoms: C_37  and  C_45
   15  A    between atoms: C_48  and  N_67
   16  A    between atoms: C_53  and  C_69
   17  A    between atoms: C_56  and  C_69
                            x       y       z     vdW  Elec       q    Type
                         _______ _______ _______ _____ _____    ______ ____

>  <TORSDO>
F 17

$$$$
=
 OpenBabel11062418413D

 69 79  0  0  1  0  0  0  0  0999 V2000
  190.9410  171.0340  142.3010 C   0  0  0  0  0  2  0  0  0  0  0  0
  190.2150  173.8310  143.1920 C   0  0  1  0  0  3  0  0  0  0  0  0
  182.9610  178.5140  141.5320 C   0  0  0  0  0  0  0  0  0  0  0  0
  192.5840  174.0730  143.8970 O   0  0  0  0  0  1  0  0  0  0  0  0
  188.9200  175.2100  141.5170 C   0  0  1  0  0  3  0  0  0  0  0  0
  185.8030  176.0780  147.3180 C   0  0  0  0  0  2  0  0  0  0  0  0
  187.2970  176.2530  147.0200 C   0  0  0  0  0  2  0  0  0  0  0  0
  192.0710  171.8930  142.8040 C   0  0  1  0  0  3  0  0  0  0  0  0
  188.7480  175.8570  142.8600 C   0  0  1  0  0  3  0  0  0  0  0  0
  186.8420  176.7630  144.6000 C   0  0  2  0  0  3  0  0  0  0  0  0
  184.8430  178.0340  143.5650 C   0  0  1  0  0  3  0  0  0  0  0  0
  187.3780  177.2850  145.8980 C   0  0  2  0  0  0  0  0  0  0  0  0
  186.0760  179.5610  146.1710 C   0  0  0  0  0  1  0  0  0  0  0  0
  187.3820  176.5750  143.2180 C   0  0  2  0  0  3  0  0  0  0  0  0
  186.4500  176.7230  142.1750 C   0  0  0  0  0  0  0  0  0  0  0  0
  185.6680  177.6860  144.5880 N   0  0  2  0  0  0  0  0  0  0  0  0
  189.8320  175.2150  143.8350 C   0  0  1  0  0  3  0  0  0  0  0  0
  189.5260  172.6870  140.9400 C   0  0  0  0  0  0  0  0  0  0  0  0
  189.9150  173.9870  141.6760 C   0  0  2  0  0  3  0  0  0  0  0  0
  186.7620  176.2400  140.7880 C   0  0  0  0  0  2  0  0  0  0  0  0
  184.2620  177.8360  141.1670 C   0  0  0  0  0  2  0  0  0  0  0  0
  182.8080  179.1330  142.6730 N   0  0  0  0  0  0  0  0  0  0  0  0
  183.8380  179.1110  143.7070 C   0  0  0  0  0  2  0  0  0  0  0  0
  188.5720  172.6090  140.2460 O   0  0  0  0  0  0  0  0  0  0  0  0
  188.6240  178.1730  145.7750 C   0  0  0  0  0  1  0  0  0  0  0  0
  186.0830  178.0810  145.9540 C   0  0  1  0  0  0  0  0  0  0  0  0
  191.5850  173.1390  143.6880 C   0  0  2  0  0  3  0  0  0  0  0  0
  185.1040  177.4370  142.3100 C   0  0  0  0  0  0  0  0  0  0  0  0
  185.1830  177.4090  147.0210 C   0  0  0  0  0  2  0  0  0  0  0  0
  190.4950  171.5040  140.9360 C   0  0  0  0  0  2  0  0  0  0  0  0
  187.5710  174.9620  140.8150 C   0  0  0  0  0  2  0  0  0  0  0  0
  190.0420  174.3000  146.2160 C   0  0  0  0  0  2  0  0  0  0  0  0
  189.3130  175.1400  145.2840 C   0  0  1  0  0  3  0  0  0  0  0  0
  190.2710  175.7330  146.2630 N   0  0  0  0  0  0  0  0  0  0  0  0
  191.7130  175.8420  145.9470 C   0  0  0  0  0  2  0  0  0  0  0  0
  191.7640  176.8050  148.1730 O   0  0  0  0  0  1  0  0  0  0  0  0
  192.4460  176.7980  146.9550 C   0  0  1  0  0  3  0  0  0  0  0  0
  193.9160  176.3860  147.1570 C   0  0  0  0  0  2  0  0  0  0  0  0
  194.6730  176.0270  145.9430 N   0  0  0  0  0  0  0  0  0  0  0  0
  195.2370  177.0250  145.0300 C   0  0  0  0  0  0  0  0  0  0  0  0
  195.1830  174.7710  145.8280 O   0  0  0  0  0  1  0  0  0  0  0  0
  195.1430  178.2240  145.4750 O   0  0  0  0  0  0  0  0  0  0  0  0
  196.0350  176.6130  143.7790 C   0  0  0  0  0  2  0  0  0  0  0  0
  195.2810  176.0700  142.5330 C   0  0  0  0  0  2  0  0  0  0  0  0
  196.1240  176.4180  141.2270 C   0  0  0  0  0  2  0  0  0  0  0  0
  196.6030  175.1720  140.5050 N   0  0  0  0  0  0  0  0  0  0  0  0
  196.6320  175.3210  139.0040 C   0  0  0  0  0  2  0  0  0  0  0  0
  197.0560  174.0080  138.1670 C   0  0  0  0  0  1  0  0  0  0  0  0
  197.0530  173.4500  141.6780 F   0  0  0  0  0  0  0  0  0  0  0  0
  195.9560  174.0530  141.2900 C   0  0  0  0  0  2  0  0  0  0  0  0
  193.1680  170.9150  143.4680 C   0  0  0  0  0  2  0  0  0  0  0  0
  193.7660  170.1470  140.2090 C   0  0  0  0  0  2  0  0  0  0  0  0
  195.9620  169.8000  141.1480 C   0  0  1  0  0  3  0  0  0  0  0  0
  194.7460  170.6450  139.2460 C   0  0  1  0  0  3  0  0  0  0  0  0
  195.6120  170.9250  143.1740 N   0  0  0  0  0  2  0  0  0  0  0  0
  194.5360  169.8700  141.4770 N   0  0  1  0  0  0  0  0  0  0  0  0
  196.1280  170.7100  139.9020 C   0  0  0  0  0  2  0  0  0  0  0  0
  194.4370  170.7180  142.6080 C   0  0  1  0  0  3  0  0  0  0  0  0
  196.5840  170.3960  142.3150 N   0  0  0  0  0  2  0  0  0  0  0  0
  194.9600  169.5690  138.1890 C   0  0  0  0  0  2  0  0  0  0  0  0
  193.9450  169.6140  137.2560 O   0  0  0  0  0  1  0  0  0  0  0  0
  181.8930  178.5790  140.5540 O   0  0  0  0  0  0  0  0  0  0  0  0
  180.1920  178.6540  142.0770 O   0  0  0  0  0  0  0  0  0  0  0  0
  179.5210  178.1130  139.8510 C   0  0  0  0  0  2  0  0  0  0  0  0
  178.5340  177.4920  140.8140 C   0  0  0  0  0  2  0  0  0  0  0  0
  179.2550  177.5860  142.1310 C   0  0  0  0  0  2  0  0  0  0  0  0
  180.4770  178.9150  140.6920 C   0  0  2  0  0  0  0  0  0  0  0  0
  180.2880  180.4370  140.4850 C   0  0  0  0  0  2  0  0  0  0  0  0
  178.9330  180.7630  140.3000 O   0  0  0  0  0  1  0  0  0  0  0  0
  1  8  1  0  0  0  0
  2 27  1  0  0  0  0
  2 17  1  0  0  0  0
  3 22  2  0  0  0  0
  5 19  1  0  0  0  0
  5  9  1  0  0  0  0
  7  6  1  0  0  0  0
  8 51  1  0  0  0  0
  8 27  1  0  0  0  0
  9 14  1  0  0  0  0
  9 17  1  0  0  0  0
 10 12  1  0  0  0  0
 11 23  1  0  0  0  0
 11 16  1  0  0  0  0
 12 26  1  0  0  0  0
 12  7  1  0  0  0  0
 14 10  1  0  0  0  0
 15 28  2  0  0  0  0
 15 14  1  0  0  0  0
 16 10  1  0  0  0  0
 16 26  1  0  0  0  0
 17 33  1  0  0  0  0
 18 19  1  0  0  0  0
 19  2  1  0  0  0  0
 20 31  1  0  0  0  0
 20 15  1  0  0  0  0
 21  3  1  0  0  0  0
 21 28  1  0  0  0  0
 22 23  1  0  0  0  0
 24 18  2  0  0  0  0
 25 12  1  0  0  0  0
 26 13  1  0  0  0  0
 26 29  1  0  0  0  0
 27  4  1  0  0  0  0
 28 11  1  0  0  0  0
 29  6  1  0  0  0  0
 30 18  1  0  0  0  0
 30  1  1  0  0  0  0
 31  5  1  0  0  0  0
 32 34  1  0  0  0  0
 33 32  1  0  0  0  0
 33 34  1  0  0  0  0
 35 34  1  0  0  0  0
 35 37  1  0  0  0  0
 37 38  1  0  0  0  0
 37 36  1  0  0  0  0
 39 38  1  0  0  0  0
 40 42  2  0  0  0  0
 40 39  1  0  0  0  0
 41 39  1  0  0  0  0
 43 40  1  0  0  0  0
 44 43  1  0  0  0  0
 45 44  1  0  0  0  0
 46 45  1  0  0  0  0
 46 50  1  0  0  0  0
 47 46  1  0  0  0  0
 48 47  1  0  0  0  0
 50 49  1  0  0  0  0
 52 56  1  0  0  0  0
 53 56  1  0  0  0  0
 53 59  1  0  0  0  0
 54 57  1  0  0  0  0
 54 52  1  0  0  0  0
 56 58  1  0  0  0  0
 57 53  1  0  0  0  0
 58 55  1  0  0  0  0
 58 51  1  0  0  0  0
 59 55  1  0  0  0  0
 60 54  1  0  0  0  0
 61 60  1  0  0  0  0
 62 67  1  0  0  0  0
 62  3  1  0  0  0  0
 63 66  1  0  0  0  0
 64 67  1  0  0  0  0
 64 65  1  0  0  0  0
 65 66  1  0  0  0  0
 67 63  1  0  0  0  0
 68 67  1  0  0  0  0
 69 68  1  0  0  0  0
M  END
>  <MODEL>
2

>  <REMARK>
 VINA RESULT:      -6.6      1.872      2.888
  Name = 
  17 active torsions:
  status: ('A' for Active; 'I' for Inactive)
    1  A    between atoms: N_1  and  C_5
    2  A    between atoms: N_1  and  C_53
    3  A    between atoms: N_1  and  C_63
    4  A    between atoms: C_8  and  O_28
    5  A    between atoms: N_13  and  C_61
    6  A    between atoms: C_17  and  C_59
    7  A    between atoms: C_18  and  C_43
    8  A    between atoms: C_19  and  C_56
    9  A    between atoms: C_20  and  C_37
   10  A    between atoms: C_23  and  C_48
   11  A    between atoms: C_23  and  C_61
   12  A    between atoms: O_28  and  C_59
   13  A    between atoms: C_32  and  C_44
   14  A    between atoms: C_37  and  C_45
   15  A    between atoms: C_48  and  N_67
   16  A    between atoms: C_53  and  C_69
   17  A    between atoms: C_56  and  C_69
                            x       y       z     vdW  Elec       q    Type
                         _______ _______ _______ _____ _____    ______ ____

>  <TORSDO>
F 17

$$$$
=
 OpenBabel11062418413D

 69 79  0  0  1  0  0  0  0  0999 V2000
  190.9620  171.1020  141.6160 C   0  0  0  0  0  2  0  0  0  0  0  0
  190.2520  173.8610  142.6320 C   0  0  1  0  0  3  0  0  0  0  0  0
  182.9010  178.5330  141.4370 C   0  0  0  0  0  0  0  0  0  0  0  0
  192.6470  174.0990  143.2470 O   0  0  0  0  0  1  0  0  0  0  0  0
  188.8790  175.2850  141.0610 C   0  0  1  0  0  3  0  0  0  0  0  0
  186.0000  175.9270  147.0130 C   0  0  0  0  0  2  0  0  0  0  0  0
  187.4790  176.1250  146.6590 C   0  0  0  0  0  2  0  0  0  0  0  0
  192.1050  171.9540  142.1010 C   0  0  1  0  0  3  0  0  0  0  0  0
  188.7580  175.8840  142.4310 C   0  0  1  0  0  3  0  0  0  0  0  0
  186.9200  176.7130  144.2790 C   0  0  2  0  0  3  0  0  0  0  0  0
  184.8700  178.0000  143.3720 C   0  0  1  0  0  3  0  0  0  0  0  0
  187.5050  177.1950  145.5710 C   0  0  2  0  0  0  0  0  0  0  0  0
  186.1990  179.4490  145.9750 C   0  0  0  0  0  1  0  0  0  0  0  0
  187.4030  176.5770  142.8700 C   0  0  2  0  0  3  0  0  0  0  0  0
  186.4270  176.7530  141.8720 C   0  0  0  0  0  0  0  0  0  0  0  0
  185.7390  177.6250  144.3470 N   0  0  2  0  0  0  0  0  0  0  0  0
  189.8860  175.2180  143.3380 C   0  0  1  0  0  3  0  0  0  0  0  0
  189.4790  172.7880  140.3730 C   0  0  0  0  0  0  0  0  0  0  0  0
  189.8880  174.0660  141.1360 C   0  0  2  0  0  3  0  0  0  0  0  0
  186.6840  176.3200  140.4580 C   0  0  0  0  0  2  0  0  0  0  0  0
  184.1900  177.8800  140.9950 C   0  0  0  0  0  2  0  0  0  0  0  0
  182.7910  179.1120  142.6040 N   0  0  0  0  0  0  0  0  0  0  0  0
  183.8640  179.0630  143.5930 C   0  0  0  0  0  2  0  0  0  0  0  0
  188.4970  172.7250  139.7170 O   0  0  0  0  0  0  0  0  0  0  0  0
  188.7390  178.0980  145.4270 C   0  0  0  0  0  1  0  0  0  0  0  0
  186.2080  177.9770  145.7080 C   0  0  1  0  0  0  0  0  0  0  0  0
  191.6480  173.1650  143.0470 C   0  0  2  0  0  3  0  0  0  0  0  0
  185.0820  177.4490  142.0870 C   0  0  0  0  0  0  0  0  0  0  0  0
  185.3580  177.2620  146.7870 C   0  0  0  0  0  2  0  0  0  0  0  0
  190.4560  171.6150  140.2870 C   0  0  0  0  0  2  0  0  0  0  0  0
  187.5030  175.0490  140.4070 C   0  0  0  0  0  2  0  0  0  0  0  0
  190.0700  174.0770  145.6210 C   0  0  0  0  0  2  0  0  0  0  0  0
  189.4290  175.0900  144.8030 C   0  0  1  0  0  3  0  0  0  0  0  0
  190.5070  175.4530  145.7700 N   0  0  0  0  0  0  0  0  0  0  0  0
  191.9330  175.3860  145.3810 C   0  0  0  0  0  2  0  0  0  0  0  0
  191.5240  177.7660  145.1470 O   0  0  0  0  0  1  0  0  0  0  0  0
  192.4320  176.7610  144.8090 C   0  0  1  0  0  3  0  0  0  0  0  0
  193.8430  177.1070  145.3220 C   0  0  0  0  0  2  0  0  0  0  0  0
  194.8010  175.9910  145.4220 N   0  0  0  0  0  0  0  0  0  0  0  0
  195.6930  175.6040  144.3260 C   0  0  0  0  0  0  0  0  0  0  0  0
  195.1430  175.5210  146.6520 O   0  0  0  0  0  1  0  0  0  0  0  0
  195.6680  176.4260  143.3420 O   0  0  0  0  0  0  0  0  0  0  0  0
  196.6920  174.4400  144.4730 C   0  0  0  0  0  2  0  0  0  0  0  0
  196.5230  173.4280  145.6390 C   0  0  0  0  0  2  0  0  0  0  0  0
  195.7300  172.1530  145.1060 C   0  0  0  0  0  2  0  0  0  0  0  0
  196.1950  170.8710  145.7720 N   0  0  0  0  0  0  0  0  0  0  0  0
  197.4720  170.3190  145.1880 C   0  0  0  0  0  2  0  0  0  0  0  0
  197.5540  168.7140  145.0440 C   0  0  0  0  0  1  0  0  0  0  0  0
  195.1700  169.6630  147.1980 F   0  0  0  0  0  0  0  0  0  0  0  0
  194.9040  170.1150  145.9970 C   0  0  0  0  0  2  0  0  0  0  0  0
  193.2370  170.9630  142.6850 C   0  0  0  0  0  2  0  0  0  0  0  0
  195.0930  173.3300  141.0970 C   0  0  0  0  0  2  0  0  0  0  0  0
  196.0680  171.3230  140.1770 C   0  0  1  0  0  3  0  0  0  0  0  0
  196.5350  173.5430  140.9950 C   0  0  1  0  0  3  0  0  0  0  0  0
  195.2000  169.8130  141.7450 N   0  0  0  0  0  2  0  0  0  0  0  0
  194.8710  171.8620  140.8270 N   0  0  1  0  0  0  0  0  0  0  0  0
  197.2320  172.2140  140.6870 C   0  0  0  0  0  2  0  0  0  0  0  0
  194.5480  170.9550  141.8670 C   0  0  1  0  0  3  0  0  0  0  0  0
  196.1540  169.9860  140.7340 N   0  0  0  0  0  2  0  0  0  0  0  0
  196.8080  174.3330  139.7210 C   0  0  0  0  0  2  0  0  0  0  0  0
  196.3710  175.6330  139.8690 O   0  0  0  0  0  1  0  0  0  0  0  0
  181.7920  178.6220  140.5070 O   0  0  0  0  0  0  0  0  0  0  0  0
  180.1510  178.5730  142.0950 O   0  0  0  0  0  0  0  0  0  0  0  0
  179.4040  178.1480  139.8680 C   0  0  0  0  0  2  0  0  0  0  0  0
  178.4670  177.4510  140.8290 C   0  0  0  0  0  2  0  0  0  0  0  0
  179.2370  177.4850  142.1210 C   0  0  0  0  0  2  0  0  0  0  0  0
  180.3770  178.9200  140.7180 C   0  0  2  0  0  0  0  0  0  0  0  0
  180.1520  180.4470  140.6070 C   0  0  0  0  0  2  0  0  0  0  0  0
  179.4910  180.7810  139.4120 O   0  0  0  0  0  1  0  0  0  0  0  0
  1  8  1  0  0  0  0
  2 27  1  0  0  0  0
  2 17  1  0  0  0  0
  3 22  2  0  0  0  0
  5 19  1  0  0  0  0
  5  9  1  0  0  0  0
  7  6  1  0  0  0  0
  8 51  1  0  0  0  0
  8 27  1  0  0  0  0
  9 14  1  0  0  0  0
  9 17  1  0  0  0  0
 10 16  1  0  0  0  0
 10 12  1  0  0  0  0
 11 23  1  0  0  0  0
 11 16  1  0  0  0  0
 12 26  1  0  0  0  0
 12  7  1  0  0  0  0
 14 10  1  0  0  0  0
 15 28  2  0  0  0  0
 15 14  1  0  0  0  0
 16 26  1  0  0  0  0
 17 33  1  0  0  0  0
 18 19  1  0  0  0  0
 19  2  1  0  0  0  0
 20 15  1  0  0  0  0
 21  3  1  0  0  0  0
 21 28  1  0  0  0  0
 22 23  1  0  0  0  0
 24 18  2  0  0  0  0
 25 12  1  0  0  0  0
 26 13  1  0  0  0  0
 26 29  1  0  0  0  0
 27  4  1  0  0  0  0
 28 11  1  0  0  0  0
 29  6  1  0  0  0  0
 30 18  1  0  0  0  0
 30  1  1  0  0  0  0
 31 20  1  0  0  0  0
 31  5  1  0  0  0  0
 32 34  1  0  0  0  0
 33 32  1  0  0  0  0
 33 34  1  0  0  0  0
 35 34  1  0  0  0  0
 37 36  1  0  0  0  0
 37 38  1  0  0  0  0
 37 35  1  0  0  0  0
 38 39  1  0  0  0  0
 39 41  1  0  0  0  0
 40 43  1  0  0  0  0
 40 39  1  0  0  0  0
 42 40  2  0  0  0  0
 43 44  1  0  0  0  0
 45 44  1  0  0  0  0
 45 46  1  0  0  0  0
 46 50  1  0  0  0  0
 47 46  1  0  0  0  0
 48 47  1  0  0  0  0
 50 49  1  0  0  0  0
 53 57  1  0  0  0  0
 53 59  1  0  0  0  0
 53 56  1  0  0  0  0
 54 52  1  0  0  0  0
 55 58  1  0  0  0  0
 56 52  1  0  0  0  0
 56 58  1  0  0  0  0
 57 54  1  0  0  0  0
 58 51  1  0  0  0  0
 59 55  1  0  0  0  0
 60 61  1  0  0  0  0
 60 54  1  0  0  0  0
 62 67  1  0  0  0  0
 62  3  1  0  0  0  0
 63 66  1  0  0  0  0
 64 67  1  0  0  0  0
 64 65  1  0  0  0  0
 65 66  1  0  0  0  0
 67 63  1  0  0  0  0
 68 67  1  0  0  0  0
 69 68  1  0  0  0  0
M  END
>  <MODEL>
3

>  <REMARK>
 VINA RESULT:      -5.8      1.935      3.456
  Name = 
  17 active torsions:
  status: ('A' for Active; 'I' for Inactive)
    1  A    between atoms: N_1  and  C_5
    2  A    between atoms: N_1  and  C_53
    3  A    between atoms: N_1  and  C_63
    4  A    between atoms: C_8  and  O_28
    5  A    between atoms: N_13  and  C_61
    6  A    between atoms: C_17  and  C_59
    7  A    between atoms: C_18  and  C_43
    8  A    between atoms: C_19  and  C_56
    9  A    between atoms: C_20  and  C_37
   10  A    between atoms: C_23  and  C_48
   11  A    between atoms: C_23  and  C_61
   12  A    between atoms: O_28  and  C_59
   13  A    between atoms: C_32  and  C_44
   14  A    between atoms: C_37  and  C_45
   15  A    between atoms: C_48  and  N_67
   16  A    between atoms: C_53  and  C_69
   17  A    between atoms: C_56  and  C_69
                            x       y       z     vdW  Elec       q    Type
                         _______ _______ _______ _____ _____    ______ ____

>  <TORSDO>
F 17

$$$$
=
 OpenBabel11062418413D

 69 79  0  0  1  0  0  0  0  0999 V2000
  186.7940  177.0550  139.3900 C   0  0  0  0  0  2  0  0  0  0  0  0
  188.9150  175.4960  140.8780 C   0  0  1  0  0  3  0  0  0  0  0  0
  196.2980  171.8140  137.8400 C   0  0  0  0  0  0  0  0  0  0  0  0
  187.3190  175.4050  142.7790 O   0  0  0  0  0  1  0  0  0  0  0  0
  189.9590  173.5800  139.6030 C   0  0  1  0  0  3  0  0  0  0  0  0
  195.0350  176.8270  142.3970 C   0  0  0  0  0  2  0  0  0  0  0  0
  193.7650  176.3030  143.0800 C   0  0  0  0  0  2  0  0  0  0  0  0
  186.4110  176.5280  140.7480 C   0  0  1  0  0  3  0  0  0  0  0  0
  190.8700  173.9060  140.7490 C   0  0  1  0  0  3  0  0  0  0  0  0
  193.4710  174.5060  141.3470 C   0  0  2  0  0  3  0  0  0  0  0  0
  195.2850  173.1590  140.0920 C   0  0  1  0  0  3  0  0  0  0  0  0
  193.7270  174.8050  142.7920 C   0  0  2  0  0  0  0  0  0  0  0  0
  195.8740  173.3610  143.2940 C   0  0  0  0  0  1  0  0  0  0  0  0
  192.4370  173.7460  140.5790 C   0  0  2  0  0  3  0  0  0  0  0  0
  192.8870  173.1280  139.3980 C   0  0  0  0  0  0  0  0  0  0  0  0
  194.8310  173.9350  141.1100 N   0  0  2  0  0  0  0  0  0  0  0  0
  190.0580  174.8490  141.7440 C   0  0  1  0  0  3  0  0  0  0  0  0
  188.1680  175.1310  138.3950 C   0  0  0  0  0  0  0  0  0  0  0  0
  188.6730  174.5000  139.7110 C   0  0  2  0  0  3  0  0  0  0  0  0
  191.9140  172.6280  138.3700 C   0  0  0  0  0  2  0  0  0  0  0  0
  194.8000  171.9470  137.9880 C   0  0  0  0  0  2  0  0  0  0  0  0
  197.1090  172.0370  138.8420 N   0  0  0  0  0  0  0  0  0  0  0  0
  196.6270  172.5370  140.1270 C   0  0  0  0  0  2  0  0  0  0  0  0
  188.6690  174.9050  137.3480 O   0  0  0  0  0  0  0  0  0  0  0  0
  193.0310  173.8620  143.7830 C   0  0  0  0  0  1  0  0  0  0  0  0
  195.1580  174.3920  142.4810 C   0  0  1  0  0  0  0  0  0  0  0  0
  187.6690  176.1500  141.6680 C   0  0  2  0  0  3  0  0  0  0  0  0
  194.3540  172.8350  139.0780 C   0  0  0  0  0  0  0  0  0  0  0  0
  196.0070  175.6870  142.4450 C   0  0  0  0  0  2  0  0  0  0  0  0
  186.8610  175.9240  138.3910 C   0  0  0  0  0  2  0  0  0  0  0  0
  190.7100  173.5370  138.2590 C   0  0  0  0  0  2  0  0  0  0  0  0
  190.3660  176.9360  143.1930 C   0  0  0  0  0  2  0  0  0  0  0  0
  190.9870  175.8530  142.4530 C   0  0  1  0  0  3  0  0  0  0  0  0
  190.8620  175.7940  143.9390 N   0  0  0  0  0  0  0  0  0  0  0  0
  189.6360  175.2660  144.5790 C   0  0  0  0  0  2  0  0  0  0  0  0
  189.4110  174.0060  146.6400 O   0  0  0  0  0  1  0  0  0  0  0  0
  189.9250  173.9260  145.3450 C   0  0  1  0  0  3  0  0  0  0  0  0
  189.3370  172.7130  144.6000 C   0  0  0  0  0  2  0  0  0  0  0  0
  190.2950  171.6870  144.1490 N   0  0  0  0  0  0  0  0  0  0  0  0
  190.1980  171.0210  142.8470 C   0  0  0  0  0  0  0  0  0  0  0  0
  191.5020  171.5900  144.7690 O   0  0  0  0  0  1  0  0  0  0  0  0
  189.3000  171.5310  142.0870 O   0  0  0  0  0  0  0  0  0  0  0  0
  191.2270  169.9640  142.4030 C   0  0  0  0  0  2  0  0  0  0  0  0
  191.6480  169.8860  140.9090 C   0  0  0  0  0  2  0  0  0  0  0  0
  190.8220  168.7230  140.2000 C   0  0  0  0  0  2  0  0  0  0  0  0
  191.2120  168.5500  138.7430 N   0  0  0  0  0  0  0  0  0  0  0  0
  192.5400  169.1770  138.3980 C   0  0  0  0  0  2  0  0  0  0  0  0
  193.8020  168.1740  138.3190 C   0  0  0  0  0  1  0  0  0  0  0  0
  190.1060  169.9760  137.6080 F   0  0  0  0  0  0  0  0  0  0  0  0
  189.9030  168.7460  138.0130 C   0  0  0  0  0  2  0  0  0  0  0  0
  185.3310  177.5460  141.3790 C   0  0  0  0  0  2  0  0  0  0  0  0
  185.3080  176.6160  144.6500 C   0  0  0  0  0  2  0  0  0  0  0  0
  185.7670  178.9750  144.8720 C   0  0  1  0  0  3  0  0  0  0  0  0
  186.2830  176.7800  145.7250 C   0  0  1  0  0  3  0  0  0  0  0  0
  186.3760  179.3800  142.6450 N   0  0  0  0  0  2  0  0  0  0  0  0
  185.2050  177.9620  143.9750 N   0  0  1  0  0  0  0  0  0  0  0  0
  186.8210  178.2140  145.7210 C   0  0  0  0  0  2  0  0  0  0  0  0
  185.7830  178.2020  142.7030 C   0  0  1  0  0  3  0  0  0  0  0  0
  186.4070  179.8930  143.9490 N   0  0  0  0  0  2  0  0  0  0  0  0
  185.5370  176.7370  147.0530 C   0  0  0  0  0  2  0  0  0  0  0  0
  186.3620  177.1630  148.0730 O   0  0  0  0  0  1  0  0  0  0  0  0
  196.8500  171.3200  136.5940 O   0  0  0  0  0  0  0  0  0  0  0  0
  196.3110  169.1020  136.5080 O   0  0  0  0  0  0  0  0  0  0  0  0
  197.2880  169.9740  134.5130 C   0  0  0  0  0  2  0  0  0  0  0  0
  197.6040  168.4970  134.5950 C   0  0  0  0  0  2  0  0  0  0  0  0
  197.2680  168.1680  136.0250 C   0  0  0  0  0  2  0  0  0  0  0  0
  196.3890  170.2760  135.6810 C   0  0  2  0  0  0  0  0  0  0  0  0
  194.9430  170.5910  135.2280 C   0  0  0  0  0  2  0  0  0  0  0  0
  194.1940  169.4130  135.0560 O   0  0  0  0  0  1  0  0  0  0  0  0
  1  8  1  0  0  0  0
  2 27  1  0  0  0  0
  2 17  1  0  0  0  0
  3 21  1  0  0  0  0
  3 22  2  0  0  0  0
  5 19  1  0  0  0  0
  5  9  1  0  0  0  0
  6 29  1  0  0  0  0
  6  7  1  0  0  0  0
  8 51  1  0  0  0  0
  8 27  1  0  0  0  0
  9 17  1  0  0  0  0
 10 12  1  0  0  0  0
 11 23  1  0  0  0  0
 11 16  1  0  0  0  0
 12  7  1  0  0  0  0
 12 25  1  0  0  0  0
 14  9  1  0  0  0  0
 14 10  1  0  0  0  0
 15 14  1  0  0  0  0
 16 10  1  0  0  0  0
 16 26  1  0  0  0  0
 17 33  1  0  0  0  0
 18 19  1  0  0  0  0
 19  2  1  0  0  0  0
 20 15  1  0  0  0  0
 21 28  1  0  0  0  0
 22 23  1  0  0  0  0
 24 18  2  0  0  0  0
 26 12  1  0  0  0  0
 26 13  1  0  0  0  0
 27  4  1  0  0  0  0
 28 15  2  0  0  0  0
 28 11  1  0  0  0  0
 29 26  1  0  0  0  0
 30 18  1  0  0  0  0
 30  1  1  0  0  0  0
 31 20  1  0  0  0  0
 31  5  1  0  0  0  0
 32 34  1  0  0  0  0
 33 32  1  0  0  0  0
 33 34  1  0  0  0  0
 34 35  1  0  0  0  0
 35 37  1  0  0  0  0
 37 36  1  0  0  0  0
 38 37  1  0  0  0  0
 39 38  1  0  0  0  0
 39 41  1  0  0  0  0
 40 39  1  0  0  0  0
 42 40  2  0  0  0  0
 43 40  1  0  0  0  0
 44 43  1  0  0  0  0
 45 44  1  0  0  0  0
 46 45  1  0  0  0  0
 47 46  1  0  0  0  0
 48 47  1  0  0  0  0
 49 50  1  0  0  0  0
 50 46  1  0  0  0  0
 51 58  1  0  0  0  0
 52 54  1  0  0  0  0
 53 57  1  0  0  0  0
 54 60  1  0  0  0  0
 55 58  1  0  0  0  0
 55 59  1  0  0  0  0
 56 52  1  0  0  0  0
 56 53  1  0  0  0  0
 57 54  1  0  0  0  0
 58 56  1  0  0  0  0
 59 53  1  0  0  0  0
 60 61  1  0  0  0  0
 62  3  1  0  0  0  0
 64 65  1  0  0  0  0
 64 67  1  0  0  0  0
 65 66  1  0  0  0  0
 66 63  1  0  0  0  0
 67 63  1  0  0  0  0
 67 62  1  0  0  0  0
 68 67  1  0  0  0  0
 69 68  1  0  0  0  0
M  END
>  <MODEL>
4

>  <REMARK>
 VINA RESULT:      -4.2      3.166     10.186
  Name = 
  17 active torsions:
  status: ('A' for Active; 'I' for Inactive)
    1  A    between atoms: N_1  and  C_5
    2  A    between atoms: N_1  and  C_53
    3  A    between atoms: N_1  and  C_63
    4  A    between atoms: C_8  and  O_28
    5  A    between atoms: N_13  and  C_61
    6  A    between atoms: C_17  and  C_59
    7  A    between atoms: C_18  and  C_43
    8  A    between atoms: C_19  and  C_56
    9  A    between atoms: C_20  and  C_37
   10  A    between atoms: C_23  and  C_48
   11  A    between atoms: C_23  and  C_61
   12  A    between atoms: O_28  and  C_59
   13  A    between atoms: C_32  and  C_44
   14  A    between atoms: C_37  and  C_45
   15  A    between atoms: C_48  and  N_67
   16  A    between atoms: C_53  and  C_69
   17  A    between atoms: C_56  and  C_69
                            x       y       z     vdW  Elec       q    Type
                         _______ _______ _______ _____ _____    ______ ____

>  <TORSDO>
F 17

$$$$
=
 OpenBabel11062418413D

 69 79  0  0  1  0  0  0  0  0999 V2000
  190.4340  172.1750  140.4310 C   0  0  0  0  0  2  0  0  0  0  0  0
  189.8830  174.6670  142.0530 C   0  0  1  0  0  3  0  0  0  0  0  0
  182.3360  179.0280  143.2010 C   0  0  0  0  0  0  0  0  0  0  0  0
  192.3470  174.9380  142.2170 O   0  0  0  0  0  1  0  0  0  0  0  0
  188.1850  176.2580  141.0700 C   0  0  1  0  0  3  0  0  0  0  0  0
  186.5690  175.6820  147.4870 C   0  0  0  0  0  2  0  0  0  0  0  0
  187.9400  176.0270  146.8910 C   0  0  0  0  0  2  0  0  0  0  0  0
  191.6330  172.9960  140.8290 C   0  0  1  0  0  3  0  0  0  0  0  0
  188.3320  176.6010  142.5230 C   0  0  1  0  0  3  0  0  0  0  0  0
  186.8920  176.9850  144.8160 C   0  0  2  0  0  3  0  0  0  0  0  0
  184.6700  178.2850  144.5810 C   0  0  1  0  0  3  0  0  0  0  0  0
  187.7180  177.2690  146.0330 C   0  0  2  0  0  0  0  0  0  0  0  0
  186.4700  179.3360  147.0910 C   0  0  0  0  0  1  0  0  0  0  0  0
  187.0800  177.1250  143.3390 C   0  0  2  0  0  3  0  0  0  0  0  0
  185.9160  177.4130  142.6010 C   0  0  0  0  0  0  0  0  0  0  0  0
  185.7290  177.7990  145.2800 N   0  0  2  0  0  0  0  0  0  0  0  0
  189.6370  175.8570  143.0520 C   0  0  1  0  0  3  0  0  0  0  0  0
  188.6900  173.9590  139.8330 C   0  0  0  0  0  0  0  0  0  0  0  0
  189.2160  175.1070  140.7210 C   0  0  2  0  0  3  0  0  0  0  0  0
  185.8900  177.2490  141.1090 C   0  0  0  0  0  2  0  0  0  0  0  0
  183.5220  178.5390  142.4020 C   0  0  0  0  0  2  0  0  0  0  0  0
  182.4530  179.3870  144.4520 N   0  0  0  0  0  0  0  0  0  0  0  0
  183.7060  179.2320  145.1850 C   0  0  0  0  0  2  0  0  0  0  0  0
  187.5960  173.9530  139.3830 O   0  0  0  0  0  0  0  0  0  0  0  0
  188.8740  178.2550  145.8160 C   0  0  0  0  0  1  0  0  0  0  0  0
  186.4580  177.9370  146.5630 C   0  0  1  0  0  0  0  0  0  0  0  0
  191.3500  173.9940  142.0510 C   0  0  2  0  0  3  0  0  0  0  0  0
  184.6290  177.9790  143.2010 C   0  0  0  0  0  0  0  0  0  0  0  0
  185.8640  176.9950  147.6400 C   0  0  0  0  0  2  0  0  0  0  0  0
  189.6560  172.8790  139.3450 C   0  0  0  0  0  2  0  0  0  0  0  0
  186.7110  176.0580  140.6680 C   0  0  0  0  0  2  0  0  0  0  0  0
  190.3840  174.4200  145.0350 C   0  0  0  0  0  2  0  0  0  0  0  0
  189.4930  175.4480  144.5310 C   0  0  1  0  0  3  0  0  0  0  0  0
  190.6950  175.8050  145.3410 N   0  0  0  0  0  0  0  0  0  0  0  0
  192.0160  175.9910  144.7010 C   0  0  0  0  0  2  0  0  0  0  0  0
  193.0400  176.4490  146.8510 O   0  0  0  0  0  1  0  0  0  0  0  0
  193.1840  175.6720  145.7010 C   0  0  1  0  0  3  0  0  0  0  0  0
  193.2270  174.1740  146.0590 C   0  0  0  0  0  2  0  0  0  0  0  0
  194.2450  173.3610  145.3700 N   0  0  0  0  0  0  0  0  0  0  0  0
  195.6740  173.6890  145.3830 C   0  0  0  0  0  0  0  0  0  0  0  0
  193.9390  172.0850  145.0080 O   0  0  0  0  0  1  0  0  0  0  0  0
  195.9600  174.6530  146.1780 O   0  0  0  0  0  0  0  0  0  0  0  0
  196.7110  172.8060  144.6630 C   0  0  0  0  0  2  0  0  0  0  0  0
  197.1190  173.1400  143.2020 C   0  0  0  0  0  2  0  0  0  0  0  0
  196.1970  174.3250  142.6660 C   0  0  0  0  0  2  0  0  0  0  0  0
  196.9980  175.3920  141.9430 N   0  0  0  0  0  0  0  0  0  0  0  0
  197.8260  174.8520  140.8030 C   0  0  0  0  0  2  0  0  0  0  0  0
  197.4110  175.3490  139.3250 C   0  0  0  0  0  1  0  0  0  0  0  0
  196.3060  176.6270  143.5370 F   0  0  0  0  0  0  0  0  0  0  0  0
  197.4800  176.2800  143.0690 C   0  0  0  0  0  2  0  0  0  0  0  0
  192.8820  171.9890  140.9880 C   0  0  0  0  0  2  0  0  0  0  0  0
  193.7130  173.3380  137.9790 C   0  0  0  0  0  2  0  0  0  0  0  0
  193.6310  170.9960  137.3980 C   0  0  1  0  0  3  0  0  0  0  0  0
  194.8100  173.0700  137.0510 C   0  0  1  0  0  3  0  0  0  0  0  0
  193.6850  170.1370  139.5780 N   0  0  0  0  0  2  0  0  0  0  0  0
  193.1650  171.9870  138.3710 N   0  0  1  0  0  0  0  0  0  0  0  0
  194.9780  171.5580  136.8720 C   0  0  0  0  0  2  0  0  0  0  0  0
  193.4120  171.4270  139.6490 C   0  0  1  0  0  3  0  0  0  0  0  0
  193.8440  169.8210  138.2220 N   0  0  0  0  0  2  0  0  0  0  0  0
  194.3660  173.4950  135.6570 C   0  0  0  0  0  2  0  0  0  0  0  0
  194.5040  172.4430  134.7760 O   0  0  0  0  0  1  0  0  0  0  0  0
  181.0590  179.2100  142.5390 O   0  0  0  0  0  0  0  0  0  0  0  0
  179.2670  178.9030  141.1550 O   0  0  0  0  0  0  0  0  0  0  0  0
  181.3370  178.0580  140.3190 C   0  0  0  0  0  2  0  0  0  0  0  0
  180.2110  177.2470  139.7180 C   0  0  0  0  0  2  0  0  0  0  0  0
  179.0380  177.6220  140.5830 C   0  0  0  0  0  2  0  0  0  0  0  0
  180.6850  179.1460  141.1280 C   0  0  2  0  0  0  0  0  0  0  0  0
  180.8780  180.5390  140.4810 C   0  0  0  0  0  2  0  0  0  0  0  0
  179.6450  181.1850  140.2810 O   0  0  0  0  0  1  0  0  0  0  0  0
  1  8  1  0  0  0  0
  2 17  1  0  0  0  0
  3 22  2  0  0  0  0
  5  9  1  0  0  0  0
  6 29  1  0  0  0  0
  7  6  1  0  0  0  0
  8 51  1  0  0  0  0
  8 27  1  0  0  0  0
  9 17  1  0  0  0  0
  9 14  1  0  0  0  0
 10 16  1  0  0  0  0
 10 12  1  0  0  0  0
 11 23  1  0  0  0  0
 11 16  1  0  0  0  0
 12 26  1  0  0  0  0
 12  7  1  0  0  0  0
 14 10  1  0  0  0  0
 15 28  2  0  0  0  0
 15 14  1  0  0  0  0
 16 26  1  0  0  0  0
 17 33  1  0  0  0  0
 18 19  1  0  0  0  0
 19  5  1  0  0  0  0
 19  2  1  0  0  0  0
 20 15  1  0  0  0  0
 21  3  1  0  0  0  0
 21 28  1  0  0  0  0
 22 23  1  0  0  0  0
 24 18  2  0  0  0  0
 25 12  1  0  0  0  0
 26 13  1  0  0  0  0
 26 29  1  0  0  0  0
 27  2  1  0  0  0  0
 27  4  1  0  0  0  0
 28 11  1  0  0  0  0
 30 18  1  0  0  0  0
 30  1  1  0  0  0  0
 31  5  1  0  0  0  0
 31 20  1  0  0  0  0
 32 34  1  0  0  0  0
 33 32  1  0  0  0  0
 33 34  1  0  0  0  0
 35 34  1  0  0  0  0
 35 37  1  0  0  0  0
 37 38  1  0  0  0  0
 37 36  1  0  0  0  0
 39 40  1  0  0  0  0
 39 38  1  0  0  0  0
 40 42  2  0  0  0  0
 41 39  1  0  0  0  0
 43 40  1  0  0  0  0
 44 43  1  0  0  0  0
 45 44  1  0  0  0  0
 46 45  1  0  0  0  0
 46 50  1  0  0  0  0
 47 46  1  0  0  0  0
 48 47  1  0  0  0  0
 50 49  1  0  0  0  0
 52 56  1  0  0  0  0
 53 59  1  0  0  0  0
 53 56  1  0  0  0  0
 54 52  1  0  0  0  0
 55 58  1  0  0  0  0
 56 58  1  0  0  0  0
 57 54  1  0  0  0  0
 57 53  1  0  0  0  0
 58 51  1  0  0  0  0
 59 55  1  0  0  0  0
 60 54  1  0  0  0  0
 61 60  1  0  0  0  0
 62  3  1  0  0  0  0
 64 67  1  0  0  0  0
 65 64  1  0  0  0  0
 65 66  1  0  0  0  0
 66 63  1  0  0  0  0
 67 63  1  0  0  0  0
 67 62  1  0  0  0  0
 68 67  1  0  0  0  0
 69 68  1  0  0  0  0
M  END
>  <MODEL>
5

>  <REMARK>
 VINA RESULT:      -3.7      2.035      3.681
  Name = 
  17 active torsions:
  status: ('A' for Active; 'I' for Inactive)
    1  A    between atoms: N_1  and  C_5
    2  A    between atoms: N_1  and  C_53
    3  A    between atoms: N_1  and  C_63
    4  A    between atoms: C_8  and  O_28
    5  A    between atoms: N_13  and  C_61
    6  A    between atoms: C_17  and  C_59
    7  A    between atoms: C_18  and  C_43
    8  A    between atoms: C_19  and  C_56
    9  A    between atoms: C_20  and  C_37
   10  A    between atoms: C_23  and  C_48
   11  A    between atoms: C_23  and  C_61
   12  A    between atoms: O_28  and  C_59
   13  A    between atoms: C_32  and  C_44
   14  A    between atoms: C_37  and  C_45
   15  A    between atoms: C_48  and  N_67
   16  A    between atoms: C_53  and  C_69
   17  A    between atoms: C_56  and  C_69
                            x       y       z     vdW  Elec       q    Type
                         _______ _______ _______ _____ _____    ______ ____

>  <TORSDO>
F 17

$$$$
