=
 OpenBabel11062421013D

 38 43  0  0  1  0  0  0  0  0999 V2000
  188.2800  177.8170  141.5500 C   0  0  0  0  0  2  0  0  0  0  0  0
  184.4010  178.3500  144.5470 C   0  0  0  0  0  0  0  0  0  0  0  0
  188.6180  176.4620  146.0360 C   0  0  0  0  0  2  0  0  0  0  0  0
  188.9730  175.6640  142.4850 O   0  0  0  0  0  1  0  0  0  0  0  0
  186.4470  178.2080  146.4670 C   0  0  0  0  0  3  0  0  0  0  0  0
  183.7050  178.7540  143.5450 N   0  0  0  0  0  0  0  0  0  0  0  0
  184.1870  178.8140  145.8780 N   0  0  0  0  0  2  0  0  0  0  0  0
  185.7140  177.8340  142.7180 C   0  0  2  0  0  3  0  0  0  0  0  0
  190.3390  177.3910  144.6520 N   0  0  0  0  0  2  0  0  0  0  0  0
  189.0720  177.6060  143.9580 C   0  0  2  0  0  3  0  0  0  0  0  0
  187.9530  176.9760  144.7800 C   0  0  2  0  0  3  0  0  0  0  0  0
  186.8060  177.9800  145.0070 C   0  0  1  0  0  3  0  0  0  0  0  0
  187.0540  177.0440  141.0330 C   0  0  1  0  0  3  0  0  0  0  0  0
  189.1650  177.0490  142.5350 C   0  0  2  0  0  3  0  0  0  0  0  0
  185.5840  177.5360  144.1980 C   0  0  1  0  0  3  0  0  0  0  0  0
  184.3010  178.2590  142.3140 C   0  0  0  0  0  2  0  0  0  0  0  0
  190.0870  176.3970  145.6840 C   0  0  1  0  0  3  0  0  0  0  0  0
  185.2300  178.6270  146.8430 C   0  0  0  0  0  3  0  0  0  0  0  0
  186.1240  176.6790  142.0330 O   0  0  0  0  0  0  0  0  0  0  0  0
  190.5880  177.2780  147.8070 O   0  0  0  0  0  0  0  0  0  0  0  0
  190.9990  176.6260  146.8600 C   0  0  0  0  0  0  0  0  0  0  0  0
  192.4060  176.1060  146.8930 C   0  0  0  0  0  2  0  0  0  0  0  0
  192.4250  174.6890  146.5610 N   0  0  0  0  0  2  0  0  0  0  0  0
  192.7790  172.9360  145.0950 O   0  0  0  0  0  0  0  0  0  0  0  0
  193.0640  174.1210  145.4090 C   0  0  0  0  0  0  0  0  0  0  0  0
  195.3820  174.9390  144.8490 N   0  0  0  0  0  0  0  0  0  0  0  0
  195.0040  176.1300  143.0820 C   0  0  0  0  0  3  0  0  0  0  0  0
  195.9590  175.6840  143.9220 N   0  0  0  0  0  0  0  0  0  0  0  0
  193.7720  175.6360  143.4830 C   0  0  0  0  0  3  0  0  0  0  0  0
  194.0570  174.8720  144.6020 C   0  0  0  0  0  0  0  0  0  0  0  0
  196.4980  172.8280  145.4360 C   0  0  0  0  0  2  0  0  0  0  0  0
  196.1170  174.2270  145.8950 C   0  0  0  0  0  3  0  0  0  0  0  0
  197.5270  173.9330  145.4120 C   0  0  0  0  0  2  0  0  0  0  0  0
  186.4270  177.7550  140.0010 O   0  0  0  0  0  0  0  0  0  0  0  0
  186.5650  176.7780  138.6210 P   0  0  0  0  0  0  0  0  0  0  0  0
  187.5040  175.4230  138.9980 O   0  0  0  0  0  1  0  0  0  0  0  0
  185.1960  176.3220  138.1720 O   0  0  0  0  0  1  0  0  0  0  0  0
  187.3150  177.6390  137.3720 O   0  0  0  0  0  0  0  0  0  0  0  0
  1 14  1  0  0  0  0
  2  7  1  0  0  0  0
  5 18  2  0  0  0  0
  6  2  2  0  0  0  0
  7 18  1  0  0  0  0
  8 16  1  6  0  0  0
  8 15  1  0  0  0  0
  9 17  1  0  0  0  0
 10  9  1  1  0  0  0
 10 11  1  0  0  0  0
 11 12  1  0  0  0  0
 11  3  1  1  0  0  0
 12  5  1  1  0  0  0
 13 34  1  6  0  0  0
 13  1  1  0  0  0  0
 13 19  1  0  0  0  0
 14  4  1  1  0  0  0
 14 10  1  0  0  0  0
 15  2  1  1  0  0  0
 15 12  1  0  0  0  0
 16  6  1  0  0  0  0
 17  3  1  0  0  0  0
 17 21  1  1  0  0  0
 19  8  1  0  0  0  0
 21 22  1  0  0  0  0
 21 20  2  0  0  0  0
 23 22  1  0  0  0  0
 24 25  2  0  0  0  0
 25 23  1  0  0  0  0
 26 32  1  0  0  0  0
 27 29  1  0  0  0  0
 27 28  2  0  0  0  0
 28 26  1  0  0  0  0
 29 30  2  0  0  0  0
 30 26  1  0  0  0  0
 30 25  1  0  0  0  0
 31 32  1  0  0  0  0
 33 31  1  0  0  0  0
 33 32  1  0  0  0  0
 35 36  1  0  0  0  0
 35 34  1  0  0  0  0
 37 35  1  0  0  0  0
 38 35  2  0  0  0  0
M  END
>  <MODEL>
1

>  <REMARK>
 VINA RESULT:      -7.8      0.000      0.000
  Name = 
  7 active torsions:
  status: ('A' for Active; 'I' for Inactive)
    1  A    between atoms: N_4  and  C_27
    2  A    between atoms: C_6  and  N_17
    3  A    between atoms: O_11  and  P_16
    4  A    between atoms: O_11  and  C_24
    5  A    between atoms: C_27  and  C_29
    6  A    between atoms: C_29  and  C_32
    7  A    between atoms: C_30  and  C_37
                            x       y       z     vdW  Elec       q    Type
                         _______ _______ _______ _____ _____    ______ ____

>  <TORSDO>
F 7

$$$$
=
 OpenBabel11062421013D

 38 43  0  0  1  0  0  0  0  0999 V2000
  188.3960  177.8600  141.5560 C   0  0  0  0  0  2  0  0  0  0  0  0
  184.2930  178.3580  144.2450 C   0  0  0  0  0  0  0  0  0  0  0  0
  188.3810  176.4500  146.0380 C   0  0  0  0  0  2  0  0  0  0  0  0
  189.0130  175.6950  142.5160 O   0  0  0  0  0  1  0  0  0  0  0  0
  186.1810  178.1910  146.3180 C   0  0  0  0  0  3  0  0  0  0  0  0
  183.6770  178.7740  143.1960 N   0  0  0  0  0  0  0  0  0  0  0  0
  183.9740  178.8050  145.5610 N   0  0  0  0  0  2  0  0  0  0  0  0
  185.7460  177.8640  142.5180 C   0  0  2  0  0  3  0  0  0  0  0  0
  190.2040  177.3950  144.8040 N   0  0  0  0  0  2  0  0  0  0  0  0
  188.9960  177.6190  144.0160 C   0  0  2  0  0  3  0  0  0  0  0  0
  187.8160  176.9800  144.7390 C   0  0  2  0  0  3  0  0  0  0  0  0
  186.6540  177.9810  144.8880 C   0  0  1  0  0  3  0  0  0  0  0  0
  187.2150  177.0940  140.9340 C   0  0  1  0  0  3  0  0  0  0  0  0
  189.2010  177.0790  142.5980 C   0  0  2  0  0  3  0  0  0  0  0  0
  185.5000  177.5470  143.9800 C   0  0  1  0  0  3  0  0  0  0  0  0
  184.3680  178.2940  142.0100 C   0  0  0  0  0  2  0  0  0  0  0  0
  189.8720  176.3880  145.8010 C   0  0  1  0  0  3  0  0  0  0  0  0
  184.9380  178.6060  146.6030 C   0  0  0  0  0  3  0  0  0  0  0  0
  186.2090  176.7170  141.8540 O   0  0  0  0  0  0  0  0  0  0  0  0
  190.3710  177.4970  147.8150 O   0  0  0  0  0  0  0  0  0  0  0  0
  190.6890  176.6020  147.0480 C   0  0  0  0  0  0  0  0  0  0  0  0
  191.8990  175.7720  147.3630 C   0  0  0  0  0  2  0  0  0  0  0  0
  193.0810  176.3550  146.7430 N   0  0  0  0  0  2  0  0  0  0  0  0
  195.0720  176.1900  145.5790 O   0  0  0  0  0  0  0  0  0  0  0  0
  193.9500  175.6760  145.8260 C   0  0  0  0  0  0  0  0  0  0  0  0
  192.9220  174.3220  143.9650 N   0  0  0  0  0  0  0  0  0  0  0  0
  193.2460  172.3020  144.6710 C   0  0  0  0  0  3  0  0  0  0  0  0
  192.7470  173.0460  143.6650 N   0  0  0  0  0  0  0  0  0  0  0  0
  193.7730  173.1380  145.6440 C   0  0  0  0  0  3  0  0  0  0  0  0
  193.5600  174.4130  145.1510 C   0  0  0  0  0  0  0  0  0  0  0  0
  193.6680  175.6760  142.0520 C   0  0  0  0  0  2  0  0  0  0  0  0
  192.5670  175.4240  143.0710 C   0  0  0  0  0  3  0  0  0  0  0  0
  192.4340  174.9020  141.6510 C   0  0  0  0  0  2  0  0  0  0  0  0
  186.6700  177.8180  139.8660 O   0  0  0  0  0  0  0  0  0  0  0  0
  186.6360  176.7420  138.5540 P   0  0  0  0  0  0  0  0  0  0  0  0
  187.5190  175.3570  138.9540 O   0  0  0  0  0  1  0  0  0  0  0  0
  185.2090  176.3480  138.2460 O   0  0  0  0  0  1  0  0  0  0  0  0
  187.3300  177.4660  137.1910 O   0  0  0  0  0  0  0  0  0  0  0  0
  1 14  1  0  0  0  0
  2  7  1  0  0  0  0
  5 18  2  0  0  0  0
  6  2  2  0  0  0  0
  7 18  1  0  0  0  0
  8 16  1  6  0  0  0
  8 15  1  0  0  0  0
  9 17  1  0  0  0  0
 10 11  1  0  0  0  0
 10  9  1  1  0  0  0
 11 12  1  0  0  0  0
 11  3  1  1  0  0  0
 12  5  1  1  0  0  0
 13 34  1  6  0  0  0
 13  1  1  0  0  0  0
 13 19  1  0  0  0  0
 14  4  1  1  0  0  0
 14 10  1  0  0  0  0
 15  2  1  1  0  0  0
 15 12  1  0  0  0  0
 16  6  1  0  0  0  0
 17  3  1  0  0  0  0
 17 21  1  1  0  0  0
 19  8  1  0  0  0  0
 21 22  1  0  0  0  0
 21 20  2  0  0  0  0
 23 22  1  0  0  0  0
 24 25  2  0  0  0  0
 25 23  1  0  0  0  0
 26 30  1  0  0  0  0
 27 29  1  0  0  0  0
 28 26  1  0  0  0  0
 28 27  2  0  0  0  0
 30 29  2  0  0  0  0
 30 25  1  0  0  0  0
 31 32  1  0  0  0  0
 32 26  1  0  0  0  0
 33 31  1  0  0  0  0
 33 32  1  0  0  0  0
 35 36  1  0  0  0  0
 35 34  1  0  0  0  0
 37 35  1  0  0  0  0
 38 35  2  0  0  0  0
M  END
>  <MODEL>
2

>  <REMARK>
 VINA RESULT:      -7.8      1.402      2.127
  Name = 
  7 active torsions:
  status: ('A' for Active; 'I' for Inactive)
    1  A    between atoms: N_4  and  C_27
    2  A    between atoms: C_6  and  N_17
    3  A    between atoms: O_11  and  P_16
    4  A    between atoms: O_11  and  C_24
    5  A    between atoms: C_27  and  C_29
    6  A    between atoms: C_29  and  C_32
    7  A    between atoms: C_30  and  C_37
                            x       y       z     vdW  Elec       q    Type
                         _______ _______ _______ _____ _____    ______ ____

>  <TORSDO>
F 7

$$$$
=
 OpenBabel11062421013D

 38 43  0  0  1  0  0  0  0  0999 V2000
  192.6590  176.9340  143.4420 C   0  0  0  0  0  2  0  0  0  0  0  0
  191.0040  172.7560  141.4120 C   0  0  0  0  0  0  0  0  0  0  0  0
  188.7600  174.9270  145.1290 C   0  0  0  0  0  2  0  0  0  0  0  0
  192.0990  176.2880  145.7350 O   0  0  0  0  0  1  0  0  0  0  0  0
  188.6300  173.6500  142.6190 C   0  0  0  0  0  3  0  0  0  0  0  0
  192.0470  172.7290  140.6610 N   0  0  0  0  0  0  0  0  0  0  0  0
  189.7380  172.2440  141.0020 N   0  0  0  0  0  2  0  0  0  0  0  0
  192.3930  174.3550  142.3350 C   0  0  2  0  0  3  0  0  0  0  0  0
  189.2640  177.2650  144.9930 N   0  0  0  0  0  2  0  0  0  0  0  0
  190.2490  176.5690  144.1700 C   0  0  2  0  0  3  0  0  0  0  0  0
  190.0000  175.0690  144.2750 C   0  0  2  0  0  3  0  0  0  0  0  0
  189.9120  174.4270  142.8770 C   0  0  1  0  0  3  0  0  0  0  0  0
  193.7060  175.8100  143.5250 C   0  0  1  0  0  3  0  0  0  0  0  0
  191.6600  176.9790  144.6010 C   0  0  2  0  0  3  0  0  0  0  0  0
  191.1470  173.5510  142.6490 C   0  0  1  0  0  3  0  0  0  0  0  0
  193.1070  173.5070  141.2810 C   0  0  0  0  0  2  0  0  0  0  0  0
  188.6350  176.2580  145.8340 C   0  0  1  0  0  3  0  0  0  0  0  0
  188.5680  172.6600  141.7170 C   0  0  0  0  0  3  0  0  0  0  0  0
  193.1690  174.5020  143.4960 O   0  0  0  0  0  0  0  0  0  0  0  0
  186.8120  176.5680  147.2880 O   0  0  0  0  0  0  0  0  0  0  0  0
  187.2130  176.6480  146.1380 C   0  0  0  0  0  0  0  0  0  0  0  0
  186.2620  177.1000  145.0680 C   0  0  0  0  0  2  0  0  0  0  0  0
  186.0210  178.5320  145.1840 N   0  0  0  0  0  2  0  0  0  0  0  0
  185.5660  180.6080  144.2760 O   0  0  0  0  0  0  0  0  0  0  0  0
  185.4700  179.3600  144.1500 C   0  0  0  0  0  0  0  0  0  0  0  0
  185.3780  178.3660  141.8360 N   0  0  0  0  0  0  0  0  0  0  0  0
  183.2500  178.0810  141.5730 C   0  0  0  0  0  3  0  0  0  0  0  0
  184.4580  177.9170  141.0000 N   0  0  0  0  0  0  0  0  0  0  0  0
  183.4090  178.6430  142.8300 C   0  0  0  0  0  3  0  0  0  0  0  0
  184.7780  178.7960  142.9650 C   0  0  0  0  0  0  0  0  0  0  0  0
  187.3130  176.8540  141.7070 C   0  0  0  0  0  2  0  0  0  0  0  0
  186.8170  178.2860  141.5810 C   0  0  0  0  0  3  0  0  0  0  0  0
  187.0660  177.4470  140.3400 C   0  0  0  0  0  2  0  0  0  0  0  0
  194.6800  175.9740  142.5310 O   0  0  0  0  0  0  0  0  0  0  0  0
  196.1660  175.6640  143.2910 P   0  0  0  0  0  0  0  0  0  0  0  0
  196.7740  174.1900  142.7310 O   0  0  0  0  0  0  0  0  0  0  0  0
  197.1520  176.7630  142.9640 O   0  0  0  0  0  1  0  0  0  0  0  0
  195.9540  175.5740  144.9670 O   0  0  0  0  0  1  0  0  0  0  0  0
  1 13  1  0  0  0  0
  1 14  1  0  0  0  0
  3 17  1  0  0  0  0
  6 16  1  0  0  0  0
  6  2  2  0  0  0  0
  7  2  1  0  0  0  0
  7 18  1  0  0  0  0
  8 16  1  6  0  0  0
  8 15  1  0  0  0  0
  8 19  1  0  0  0  0
  9 17  1  0  0  0  0
 10 11  1  0  0  0  0
 10 14  1  0  0  0  0
 10  9  1  1  0  0  0
 11  3  1  6  0  0  0
 12  5  1  1  0  0  0
 12 11  1  0  0  0  0
 13 34  1  6  0  0  0
 14  4  1  1  0  0  0
 15  2  1  6  0  0  0
 15 12  1  0  0  0  0
 17 21  1  6  0  0  0
 18  5  2  0  0  0  0
 19 13  1  0  0  0  0
 21 20  2  0  0  0  0
 22 23  1  0  0  0  0
 22 21  1  0  0  0  0
 25 24  2  0  0  0  0
 25 23  1  0  0  0  0
 26 30  1  0  0  0  0
 27 29  1  0  0  0  0
 28 27  2  0  0  0  0
 28 26  1  0  0  0  0
 29 30  2  0  0  0  0
 30 25  1  0  0  0  0
 32 31  1  0  0  0  0
 32 26  1  0  0  0  0
 33 32  1  0  0  0  0
 33 31  1  0  0  0  0
 34 35  1  0  0  0  0
 35 38  1  0  0  0  0
 36 35  2  0  0  0  0
 37 35  1  0  0  0  0
M  END
>  <MODEL>
3

>  <REMARK>
 VINA RESULT:      -7.6      3.882      8.530
  Name = 
  7 active torsions:
  status: ('A' for Active; 'I' for Inactive)
    1  A    between atoms: N_4  and  C_27
    2  A    between atoms: C_6  and  N_17
    3  A    between atoms: O_11  and  P_16
    4  A    between atoms: O_11  and  C_24
    5  A    between atoms: C_27  and  C_29
    6  A    between atoms: C_29  and  C_32
    7  A    between atoms: C_30  and  C_37
                            x       y       z     vdW  Elec       q    Type
                         _______ _______ _______ _____ _____    ______ ____

>  <TORSDO>
F 7

$$$$
=
 OpenBabel11062421013D

 38 43  0  0  1  0  0  0  0  0999 V2000
  188.0100  176.2800  146.4960 C   0  0  0  0  0  2  0  0  0  0  0  0
  188.2500  175.4280  141.6450 C   0  0  0  0  0  0  0  0  0  0  0  0
  192.2050  175.8140  144.4320 C   0  0  0  0  0  2  0  0  0  0  0  0
  189.9490  177.7720  146.5420 O   0  0  0  0  0  1  0  0  0  0  0  0
  190.7810  174.4730  142.4030 C   0  0  0  0  0  3  0  0  0  0  0  0
  186.9730  175.5560  141.5770 N   0  0  0  0  0  0  0  0  0  0  0  0
  188.9900  174.5590  140.7890 N   0  0  0  0  0  2  0  0  0  0  0  0
  187.6740  176.3190  143.6970 C   0  0  2  0  0  3  0  0  0  0  0  0
  191.5790  175.1500  146.6470 N   0  0  0  0  0  2  0  0  0  0  0  0
  190.3440  175.4440  145.9260 C   0  0  2  0  0  3  0  0  0  0  0  0
  190.7010  175.9290  144.5260 C   0  0  2  0  0  3  0  0  0  0  0  0
  189.9140  175.1460  143.4560 C   0  0  1  0  0  3  0  0  0  0  0  0
  187.3360  177.4030  145.6890 C   0  0  1  0  0  3  0  0  0  0  0  0
  189.5130  176.4550  146.7230 C   0  0  2  0  0  3  0  0  0  0  0  0
  188.8810  176.0760  142.8140 C   0  0  1  0  0  3  0  0  0  0  0  0
  186.5080  176.3440  142.7070 C   0  0  0  0  0  2  0  0  0  0  0  0
  192.6650  175.7270  145.8700 C   0  0  1  0  0  3  0  0  0  0  0  0
  190.3160  174.1810  141.1800 C   0  0  0  0  0  3  0  0  0  0  0  0
  187.8130  177.5460  144.3660 O   0  0  0  0  0  0  0  0  0  0  0  0
  194.9280  175.4750  146.4620 O   0  0  0  0  0  0  0  0  0  0  0  0
  193.9220  174.9180  146.0520 C   0  0  0  0  0  0  0  0  0  0  0  0
  193.9890  173.4580  145.7130 C   0  0  0  0  0  2  0  0  0  0  0  0
  195.3620  173.0740  145.4180 N   0  0  0  0  0  2  0  0  0  0  0  0
  197.0030  172.2790  143.9960 O   0  0  0  0  0  0  0  0  0  0  0  0
  195.8950  172.8650  144.1020 C   0  0  0  0  0  0  0  0  0  0  0  0
  195.1720  174.6110  142.4330 N   0  0  0  0  0  0  0  0  0  0  0  0
  194.0090  173.4250  141.0450 C   0  0  0  0  0  3  0  0  0  0  0  0
  194.4690  174.6630  141.3150 N   0  0  0  0  0  0  0  0  0  0  0  0
  194.4500  172.5480  142.0240 C   0  0  0  0  0  3  0  0  0  0  0  0
  195.1980  173.3380  142.8800 C   0  0  0  0  0  0  0  0  0  0  0  0
  197.3170  175.8120  142.4880 C   0  0  0  0  0  2  0  0  0  0  0  0
  195.8860  175.7560  142.9990 C   0  0  0  0  0  3  0  0  0  0  0  0
  196.2680  176.7160  141.8860 C   0  0  0  0  0  2  0  0  0  0  0  0
  185.9430  177.2490  145.7040 O   0  0  0  0  0  0  0  0  0  0  0  0
  185.3150  178.7890  146.0400 P   0  0  0  0  0  0  0  0  0  0  0  0
  185.7260  179.8380  144.7800 O   0  0  0  0  0  0  0  0  0  0  0  0
  183.8100  178.7190  146.1560 O   0  0  0  0  0  1  0  0  0  0  0  0
  185.9680  179.3800  147.4860 O   0  0  0  0  0  1  0  0  0  0  0  0
  1 14  1  0  0  0  0
  3 17  1  0  0  0  0
  6  2  2  0  0  0  0
  6 16  1  0  0  0  0
  7 18  1  0  0  0  0
  7  2  1  0  0  0  0
  8 16  1  6  0  0  0
  8 19  1  0  0  0  0
 10  9  1  1  0  0  0
 10 14  1  0  0  0  0
 11  3  1  6  0  0  0
 11 10  1  0  0  0  0
 12  5  1  6  0  0  0
 12 11  1  0  0  0  0
 13 34  1  6  0  0  0
 13  1  1  0  0  0  0
 14  4  1  6  0  0  0
 15  2  1  6  0  0  0
 15 12  1  0  0  0  0
 15  8  1  0  0  0  0
 17 21  1  6  0  0  0
 17  9  1  0  0  0  0
 18  5  2  0  0  0  0
 19 13  1  0  0  0  0
 21 20  2  0  0  0  0
 22 21  1  0  0  0  0
 23 22  1  0  0  0  0
 24 25  2  0  0  0  0
 25 23  1  0  0  0  0
 26 30  1  0  0  0  0
 26 32  1  0  0  0  0
 27 28  2  0  0  0  0
 27 29  1  0  0  0  0
 28 26  1  0  0  0  0
 29 30  2  0  0  0  0
 30 25  1  0  0  0  0
 31 32  1  0  0  0  0
 33 31  1  0  0  0  0
 33 32  1  0  0  0  0
 34 35  1  0  0  0  0
 35 37  1  0  0  0  0
 35 38  1  0  0  0  0
 36 35  2  0  0  0  0
M  END
>  <MODEL>
4

>  <REMARK>
 VINA RESULT:      -7.6      3.254      5.047
  Name = 
  7 active torsions:
  status: ('A' for Active; 'I' for Inactive)
    1  A    between atoms: N_4  and  C_27
    2  A    between atoms: C_6  and  N_17
    3  A    between atoms: O_11  and  P_16
    4  A    between atoms: O_11  and  C_24
    5  A    between atoms: C_27  and  C_29
    6  A    between atoms: C_29  and  C_32
    7  A    between atoms: C_30  and  C_37
                            x       y       z     vdW  Elec       q    Type
                         _______ _______ _______ _____ _____    ______ ____

>  <TORSDO>
F 7

$$$$
=
 OpenBabel11062421013D

 38 43  0  0  1  0  0  0  0  0999 V2000
  189.5450  172.2370  143.3680 C   0  0  0  0  0  2  0  0  0  0  0  0
  192.8760  175.7540  144.2880 C   0  0  0  0  0  0  0  0  0  0  0  0
  188.8890  176.5570  141.6380 C   0  0  0  0  0  2  0  0  0  0  0  0
  189.1170  172.9520  141.0670 O   0  0  0  0  0  1  0  0  0  0  0  0
  190.6630  177.3710  143.6720 C   0  0  0  0  0  3  0  0  0  0  0  0
  193.6130  174.8780  144.8730 N   0  0  0  0  0  0  0  0  0  0  0  0
  192.8430  177.1260  144.6770 N   0  0  0  0  0  2  0  0  0  0  0  0
  191.9060  173.7390  143.7090 C   0  0  2  0  0  3  0  0  0  0  0  0
  187.2200  175.0060  142.3810 N   0  0  0  0  0  2  0  0  0  0  0  0
  188.5080  174.5020  142.8500 C   0  0  2  0  0  3  0  0  0  0  0  0
  189.6070  175.4310  142.3470 C   0  0  2  0  0  3  0  0  0  0  0  0
  190.5310  175.8650  143.5020 C   0  0  1  0  0  3  0  0  0  0  0  0
  190.9380  171.8480  142.8440 C   0  0  1  0  0  3  0  0  0  0  0  0
  188.6880  173.0510  142.3950 C   0  0  2  0  0  3  0  0  0  0  0  0
  191.9010  175.2050  143.3230 C   0  0  1  0  0  3  0  0  0  0  0  0
  193.2660  173.5530  144.3850 C   0  0  0  0  0  2  0  0  0  0  0  0
  187.5070  176.0070  141.3650 C   0  0  1  0  0  3  0  0  0  0  0  0
  191.7350  177.9290  144.2520 C   0  0  0  0  0  3  0  0  0  0  0  0
  191.7860  172.9440  142.5580 O   0  0  0  0  0  0  0  0  0  0  0  0
  186.2000  177.6550  140.3130 O   0  0  0  0  0  0  0  0  0  0  0  0
  186.4310  177.0600  141.3530 C   0  0  0  0  0  0  0  0  0  0  0  0
  185.6570  177.4250  142.5860 C   0  0  0  0  0  2  0  0  0  0  0  0
  185.8780  178.8260  142.9200 N   0  0  0  0  0  2  0  0  0  0  0  0
  185.5670  180.6810  144.2630 O   0  0  0  0  0  0  0  0  0  0  0  0
  185.5870  179.4250  144.1900 C   0  0  0  0  0  0  0  0  0  0  0  0
  186.2150  177.7650  145.9800 N   0  0  0  0  0  0  0  0  0  0  0  0
  184.4100  177.7110  147.1720 C   0  0  0  0  0  3  0  0  0  0  0  0
  185.6630  177.2300  147.0550 N   0  0  0  0  0  0  0  0  0  0  0  0
  184.1610  178.6010  146.1380 C   0  0  0  0  0  3  0  0  0  0  0  0
  185.3390  178.6180  145.4100 C   0  0  0  0  0  0  0  0  0  0  0  0
  188.5310  177.5410  146.7770 C   0  0  0  0  0  2  0  0  0  0  0  0
  187.6010  177.5280  145.5740 C   0  0  0  0  0  3  0  0  0  0  0  0
  188.0910  176.2250  146.1800 C   0  0  0  0  0  2  0  0  0  0  0  0
  191.5590  170.9510  143.7230 O   0  0  0  0  0  0  0  0  0  0  0  0
  192.5000  169.9310  142.7470 P   0  0  0  0  0  0  0  0  0  0  0  0
  194.1110  170.4370  142.8140 O   0  0  0  0  0  1  0  0  0  0  0  0
  192.4070  168.5070  143.2480 O   0  0  0  0  0  1  0  0  0  0  0  0
  191.9640  170.0040  141.1440 O   0  0  0  0  0  0  0  0  0  0  0  0
  2  7  1  0  0  0  0
  2  6  2  0  0  0  0
  5 18  2  0  0  0  0
  8 16  1  6  0  0  0
 10  9  1  6  0  0  0
 11  3  1  1  0  0  0
 11 10  1  0  0  0  0
 11 12  1  0  0  0  0
 12  5  1  6  0  0  0
 13  1  1  0  0  0  0
 13 34  1  1  0  0  0
 14  4  1  6  0  0  0
 14 10  1  0  0  0  0
 14  1  1  0  0  0  0
 15 12  1  0  0  0  0
 15  8  1  0  0  0  0
 15  2  1  1  0  0  0
 16  6  1  0  0  0  0
 17 21  1  1  0  0  0
 17  3  1  0  0  0  0
 17  9  1  0  0  0  0
 18  7  1  0  0  0  0
 19 13  1  0  0  0  0
 19  8  1  0  0  0  0
 20 21  2  0  0  0  0
 21 22  1  0  0  0  0
 22 23  1  0  0  0  0
 23 25  1  0  0  0  0
 25 24  2  0  0  0  0
 25 30  1  0  0  0  0
 26 28  1  0  0  0  0
 28 27  2  0  0  0  0
 29 27  1  0  0  0  0
 30 26  1  0  0  0  0
 30 29  2  0  0  0  0
 32 26  1  0  0  0  0
 32 33  1  0  0  0  0
 32 31  1  0  0  0  0
 33 31  1  0  0  0  0
 35 36  1  0  0  0  0
 35 37  1  0  0  0  0
 35 34  1  0  0  0  0
 38 35  2  0  0  0  0
M  END
>  <MODEL>
5

>  <REMARK>
 VINA RESULT:      -7.5      3.051      8.260
  Name = 
  7 active torsions:
  status: ('A' for Active; 'I' for Inactive)
    1  A    between atoms: N_4  and  C_27
    2  A    between atoms: C_6  and  N_17
    3  A    between atoms: O_11  and  P_16
    4  A    between atoms: O_11  and  C_24
    5  A    between atoms: C_27  and  C_29
    6  A    between atoms: C_29  and  C_32
    7  A    between atoms: C_30  and  C_37
                            x       y       z     vdW  Elec       q    Type
                         _______ _______ _______ _____ _____    ______ ____

>  <TORSDO>
F 7

$$$$
=
 OpenBabel11062421013D

 38 43  0  0  1  0  0  0  0  0999 V2000
  188.0740  176.0910  146.7970 C   0  0  0  0  0  2  0  0  0  0  0  0
  187.9740  175.6090  141.8900 C   0  0  0  0  0  0  0  0  0  0  0  0
  192.1130  175.7270  144.4240 C   0  0  0  0  0  2  0  0  0  0  0  0
  190.0400  177.5480  146.8230 O   0  0  0  0  0  1  0  0  0  0  0  0
  190.5320  174.5650  142.4010 C   0  0  0  0  0  3  0  0  0  0  0  0
  186.6980  175.7600  141.9200 N   0  0  0  0  0  0  0  0  0  0  0  0
  188.6380  174.7990  140.9230 N   0  0  0  0  0  2  0  0  0  0  0  0
  187.5530  176.3490  144.0380 C   0  0  2  0  0  3  0  0  0  0  0  0
  191.6240  174.9040  146.6200 N   0  0  0  0  0  2  0  0  0  0  0  0
  190.3500  175.2700  146.0090 C   0  0  2  0  0  3  0  0  0  0  0  0
  190.6210  175.8550  144.6280 C   0  0  2  0  0  3  0  0  0  0  0  0
  189.7500  175.1670  143.5580 C   0  0  1  0  0  3  0  0  0  0  0  0
  187.3690  177.2820  146.1250 C   0  0  1  0  0  3  0  0  0  0  0  0
  189.5930  176.2280  146.9340 C   0  0  2  0  0  3  0  0  0  0  0  0
  188.6940  176.1570  143.0590 C   0  0  1  0  0  3  0  0  0  0  0  0
  186.3240  176.4660  143.1350 C   0  0  0  0  0  2  0  0  0  0  0  0
  192.6660  175.5240  145.8160 C   0  0  1  0  0  3  0  0  0  0  0  0
  189.9800  174.3740  141.1940 C   0  0  0  0  0  3  0  0  0  0  0  0
  187.7600  177.5190  144.7870 O   0  0  0  0  0  0  0  0  0  0  0  0
  193.8190  173.4740  145.7450 O   0  0  0  0  0  0  0  0  0  0  0  0
  193.9170  174.6860  145.8500 C   0  0  0  0  0  0  0  0  0  0  0  0
  195.2780  175.2890  146.0430 C   0  0  0  0  0  2  0  0  0  0  0  0
  195.5800  176.2060  144.9520 N   0  0  0  0  0  2  0  0  0  0  0  0
  196.7570  176.8120  143.0580 O   0  0  0  0  0  0  0  0  0  0  0  0
  196.3410  175.8720  143.7830 C   0  0  0  0  0  0  0  0  0  0  0  0
  195.7760  173.6430  142.7520 N   0  0  0  0  0  0  0  0  0  0  0  0
  197.5960  172.5280  143.1080 C   0  0  0  0  0  3  0  0  0  0  0  0
  196.3660  172.4750  142.5610 N   0  0  0  0  0  0  0  0  0  0  0  0
  197.8020  173.7850  143.6570 C   0  0  0  0  0  3  0  0  0  0  0  0
  196.6260  174.4680  143.3960 C   0  0  0  0  0  0  0  0  0  0  0  0
  194.5420  174.4980  140.8030 C   0  0  0  0  0  2  0  0  0  0  0  0
  194.4500  173.9790  142.2300 C   0  0  0  0  0  3  0  0  0  0  0  0
  194.1210  173.0700  141.0590 C   0  0  0  0  0  2  0  0  0  0  0  0
  185.9780  177.1460  146.2230 O   0  0  0  0  0  0  0  0  0  0  0  0
  185.3710  178.7260  146.3440 P   0  0  0  0  0  0  0  0  0  0  0  0
  183.6890  178.6600  146.4990 O   0  0  0  0  0  1  0  0  0  0  0  0
  185.9540  179.4120  147.5580 O   0  0  0  0  0  1  0  0  0  0  0  0
  185.7630  179.6070  144.9530 O   0  0  0  0  0  0  0  0  0  0  0  0
  1 14  1  0  0  0  0
  2  6  2  0  0  0  0
  3 17  1  0  0  0  0
  6 16  1  0  0  0  0
  7 18  1  0  0  0  0
  7  2  1  0  0  0  0
  8 16  1  6  0  0  0
  8 19  1  0  0  0  0
 10  9  1  1  0  0  0
 10 14  1  0  0  0  0
 11  3  1  6  0  0  0
 11 10  1  0  0  0  0
 12  5  1  6  0  0  0
 12 11  1  0  0  0  0
 13 34  1  6  0  0  0
 13  1  1  0  0  0  0
 14  4  1  6  0  0  0
 15  2  1  6  0  0  0
 15 12  1  0  0  0  0
 15  8  1  0  0  0  0
 17 21  1  6  0  0  0
 17  9  1  0  0  0  0
 18  5  2  0  0  0  0
 19 13  1  0  0  0  0
 20 21  2  0  0  0  0
 21 22  1  0  0  0  0
 23 22  1  0  0  0  0
 24 25  2  0  0  0  0
 25 23  1  0  0  0  0
 26 30  1  0  0  0  0
 27 29  1  0  0  0  0
 28 26  1  0  0  0  0
 28 27  2  0  0  0  0
 30 29  2  0  0  0  0
 30 25  1  0  0  0  0
 31 33  1  0  0  0  0
 31 32  1  0  0  0  0
 32 26  1  0  0  0  0
 33 32  1  0  0  0  0
 34 35  1  0  0  0  0
 35 36  1  0  0  0  0
 35 37  1  0  0  0  0
 38 35  2  0  0  0  0
M  END
>  <MODEL>
6

>  <REMARK>
 VINA RESULT:      -7.5      3.242      5.250
  Name = 
  7 active torsions:
  status: ('A' for Active; 'I' for Inactive)
    1  A    between atoms: N_4  and  C_27
    2  A    between atoms: C_6  and  N_17
    3  A    between atoms: O_11  and  P_16
    4  A    between atoms: O_11  and  C_24
    5  A    between atoms: C_27  and  C_29
    6  A    between atoms: C_29  and  C_32
    7  A    between atoms: C_30  and  C_37
                            x       y       z     vdW  Elec       q    Type
                         _______ _______ _______ _____ _____    ______ ____

>  <TORSDO>
F 7

$$$$
=
 OpenBabel11062421013D

 38 43  0  0  1  0  0  0  0  0999 V2000
  188.0590  176.6930  144.9740 C   0  0  0  0  0  2  0  0  0  0  0  0
  189.2550  173.1010  141.8150 C   0  0  0  0  0  0  0  0  0  0  0  0
  192.5830  175.8830  143.9940 C   0  0  0  0  0  2  0  0  0  0  0  0
  189.7930  178.2380  144.2000 O   0  0  0  0  0  1  0  0  0  0  0  0
  191.6940  173.3320  143.1890 C   0  0  0  0  0  3  0  0  0  0  0  0
  188.0050  172.9090  141.5880 N   0  0  0  0  0  0  0  0  0  0  0  0
  190.2230  172.0550  141.7660 N   0  0  0  0  0  2  0  0  0  0  0  0
  188.2300  174.9330  142.7780 C   0  0  2  0  0  3  0  0  0  0  0  0
  191.6410  176.6180  146.0710 N   0  0  0  0  0  2  0  0  0  0  0  0
  190.5330  176.1580  145.2410 C   0  0  2  0  0  3  0  0  0  0  0  0
  191.0820  175.7350  143.8840 C   0  0  2  0  0  3  0  0  0  0  0  0
  190.5870  174.3250  143.5050 C   0  0  1  0  0  3  0  0  0  0  0  0
  187.4280  176.9220  143.5900 C   0  0  1  0  0  3  0  0  0  0  0  0
  189.4710  177.2590  145.1470 C   0  0  2  0  0  3  0  0  0  0  0  0
  189.5950  174.4380  142.3440 C   0  0  1  0  0  3  0  0  0  0  0  0
  187.2640  174.1160  141.9180 C   0  0  0  0  0  2  0  0  0  0  0  0
  192.7840  176.7910  145.1860 C   0  0  1  0  0  3  0  0  0  0  0  0
  191.4890  172.2650  142.4030 C   0  0  0  0  0  3  0  0  0  0  0  0
  188.1180  176.3090  142.5190 O   0  0  0  0  0  0  0  0  0  0  0  0
  194.3450  177.2370  146.8880 O   0  0  0  0  0  0  0  0  0  0  0  0
  194.0650  176.5300  145.9330 C   0  0  0  0  0  0  0  0  0  0  0  0
  195.0240  175.4530  145.5220 C   0  0  0  0  0  2  0  0  0  0  0  0
  196.0530  176.0030  144.6500 N   0  0  0  0  0  2  0  0  0  0  0  0
  197.7820  175.7790  143.1320 O   0  0  0  0  0  0  0  0  0  0  0  0
  196.7390  175.2740  143.6220 C   0  0  0  0  0  0  0  0  0  0  0  0
  196.6450  172.7570  143.5380 N   0  0  0  0  0  0  0  0  0  0  0  0
  195.1790  172.4310  141.9810 C   0  0  0  0  0  3  0  0  0  0  0  0
  195.9890  171.8240  142.8700 N   0  0  0  0  0  0  0  0  0  0  0  0
  195.3140  173.8060  142.0980 C   0  0  0  0  0  3  0  0  0  0  0  0
  196.2450  173.9720  143.1090 C   0  0  0  0  0  0  0  0  0  0  0  0
  196.8160  172.3230  145.9530 C   0  0  0  0  0  2  0  0  0  0  0  0
  197.5670  172.4730  144.6390 C   0  0  0  0  0  3  0  0  0  0  0  0
  197.2720  171.0940  145.2030 C   0  0  0  0  0  2  0  0  0  0  0  0
  186.0790  176.5430  143.5990 O   0  0  0  0  0  0  0  0  0  0  0  0
  185.1960  177.9920  143.6030 P   0  0  0  0  0  0  0  0  0  0  0  0
  186.2270  179.2660  143.1900 O   0  0  0  0  0  1  0  0  0  0  0  0
  184.0740  177.9160  142.5920 O   0  0  0  0  0  0  0  0  0  0  0  0
  184.5540  178.2780  145.1420 O   0  0  0  0  0  1  0  0  0  0  0  0
  1 14  1  0  0  0  0
  3 17  1  0  0  0  0
  6  2  2  0  0  0  0
  6 16  1  0  0  0  0
  7  2  1  0  0  0  0
  7 18  1  0  0  0  0
  8 16  1  6  0  0  0
 10  9  1  1  0  0  0
 11  3  1  1  0  0  0
 11 10  1  0  0  0  0
 12  5  1  6  0  0  0
 12 11  1  0  0  0  0
 13 34  1  1  0  0  0
 13  1  1  0  0  0  0
 14  4  1  6  0  0  0
 14 10  1  0  0  0  0
 15  2  1  1  0  0  0
 15  8  1  0  0  0  0
 15 12  1  0  0  0  0
 17 21  1  1  0  0  0
 17  9  1  0  0  0  0
 18  5  2  0  0  0  0
 19  8  1  0  0  0  0
 19 13  1  0  0  0  0
 21 20  2  0  0  0  0
 22 21  1  0  0  0  0
 23 22  1  0  0  0  0
 24 25  2  0  0  0  0
 25 23  1  0  0  0  0
 26 32  1  0  0  0  0
 27 29  1  0  0  0  0
 27 28  2  0  0  0  0
 28 26  1  0  0  0  0
 29 30  2  0  0  0  0
 30 26  1  0  0  0  0
 30 25  1  0  0  0  0
 32 33  1  0  0  0  0
 32 31  1  0  0  0  0
 33 31  1  0  0  0  0
 34 35  1  0  0  0  0
 35 38  1  0  0  0  0
 36 35  1  0  0  0  0
 37 35  2  0  0  0  0
M  END
>  <MODEL>
7

>  <REMARK>
 VINA RESULT:      -7.4      3.169      4.902
  Name = 
  7 active torsions:
  status: ('A' for Active; 'I' for Inactive)
    1  A    between atoms: N_4  and  C_27
    2  A    between atoms: C_6  and  N_17
    3  A    between atoms: O_11  and  P_16
    4  A    between atoms: O_11  and  C_24
    5  A    between atoms: C_27  and  C_29
    6  A    between atoms: C_29  and  C_32
    7  A    between atoms: C_30  and  C_37
                            x       y       z     vdW  Elec       q    Type
                         _______ _______ _______ _____ _____    ______ ____

>  <TORSDO>
F 7

$$$$
=
 OpenBabel11062421013D

 38 43  0  0  1  0  0  0  0  0999 V2000
  188.1960  176.9540  142.6350 C   0  0  0  0  0  2  0  0  0  0  0  0
  190.6890  176.0020  146.7810 C   0  0  0  0  0  0  0  0  0  0  0  0
  190.5320  172.8980  143.0520 C   0  0  0  0  0  2  0  0  0  0  0  0
  187.4070  174.6570  142.3330 O   0  0  0  0  0  1  0  0  0  0  0  0
  192.0150  174.2440  145.0370 C   0  0  0  0  0  3  0  0  0  0  0  0
  190.2280  177.0900  147.2870 N   0  0  0  0  0  0  0  0  0  0  0  0
  191.9730  175.4750  147.1110 N   0  0  0  0  0  2  0  0  0  0  0  0
  189.0230  176.6330  145.3110 C   0  0  2  0  0  3  0  0  0  0  0  0
  190.1860  174.1940  141.0660 N   0  0  0  0  0  2  0  0  0  0  0  0
  189.8130  175.0390  142.1960 C   0  0  2  0  0  3  0  0  0  0  0  0
  189.9620  174.2320  143.4800 C   0  0  2  0  0  3  0  0  0  0  0  0
  190.8020  175.0020  144.5190 C   0  0  1  0  0  3  0  0  0  0  0  0
  187.2730  176.9650  143.8660 C   0  0  1  0  0  3  0  0  0  0  0  0
  188.3970  175.5830  141.9850 C   0  0  2  0  0  3  0  0  0  0  0  0
  189.8920  175.4450  145.6690 C   0  0  1  0  0  3  0  0  0  0  0  0
  189.0020  177.4600  146.5980 C   0  0  0  0  0  2  0  0  0  0  0  0
  190.2510  172.8290  141.5680 C   0  0  1  0  0  3  0  0  0  0  0  0
  192.5600  174.5060  146.2330 C   0  0  0  0  0  3  0  0  0  0  0  0
  187.7380  176.1940  144.9560 O   0  0  0  0  0  0  0  0  0  0  0  0
  190.8970  171.1240  140.0830 O   0  0  0  0  0  0  0  0  0  0  0  0
  191.2750  172.0390  140.7970 C   0  0  0  0  0  0  0  0  0  0  0  0
  192.7450  172.3170  140.9040 C   0  0  0  0  0  2  0  0  0  0  0  0
  193.1990  173.0700  139.7430 N   0  0  0  0  0  2  0  0  0  0  0  0
  193.8400  175.0310  138.7010 O   0  0  0  0  0  0  0  0  0  0  0  0
  193.7430  174.3970  139.7830 C   0  0  0  0  0  0  0  0  0  0  0  0
  195.4670  174.9570  141.5350 N   0  0  0  0  0  0  0  0  0  0  0  0
  194.3000  176.1310  142.9290 C   0  0  0  0  0  3  0  0  0  0  0  0
  195.5270  175.6400  142.6650 N   0  0  0  0  0  0  0  0  0  0  0  0
  193.4280  175.7580  141.9170 C   0  0  0  0  0  3  0  0  0  0  0  0
  194.2120  175.0240  141.0430 C   0  0  0  0  0  0  0  0  0  0  0  0
  197.3780  175.3420  140.0360 C   0  0  0  0  0  2  0  0  0  0  0  0
  196.6290  174.3370  140.8970 C   0  0  0  0  0  3  0  0  0  0  0  0
  197.8990  174.9920  141.4100 C   0  0  0  0  0  2  0  0  0  0  0  0
  187.0040  178.2820  144.2630 O   0  0  0  0  0  0  0  0  0  0  0  0
  185.3120  178.4160  144.2830 P   0  0  0  0  0  0  0  0  0  0  0  0
  184.7170  177.6710  145.6790 O   0  0  0  0  0  1  0  0  0  0  0  0
  184.9100  179.8740  144.2900 O   0  0  0  0  0  1  0  0  0  0  0  0
  184.6520  177.6520  142.9250 O   0  0  0  0  0  0  0  0  0  0  0  0
  1 13  1  0  0  0  0
  2  7  1  0  0  0  0
  2  6  2  0  0  0  0
  5 18  2  0  0  0  0
  8 15  1  0  0  0  0
  8 16  1  1  0  0  0
  9 17  1  0  0  0  0
 10  9  1  6  0  0  0
 10 11  1  0  0  0  0
 11  3  1  6  0  0  0
 11 12  1  0  0  0  0
 12  5  1  1  0  0  0
 12 15  1  0  0  0  0
 13 34  1  1  0  0  0
 13 19  1  0  0  0  0
 14 10  1  0  0  0  0
 14  4  1  1  0  0  0
 14  1  1  0  0  0  0
 15  2  1  1  0  0  0
 16  6  1  0  0  0  0
 17 21  1  6  0  0  0
 17  3  1  0  0  0  0
 18  7  1  0  0  0  0
 19  8  1  0  0  0  0
 20 21  2  0  0  0  0
 21 22  1  0  0  0  0
 23 25  1  0  0  0  0
 23 22  1  0  0  0  0
 24 25  2  0  0  0  0
 25 30  1  0  0  0  0
 26 28  1  0  0  0  0
 28 27  2  0  0  0  0
 29 27  1  0  0  0  0
 30 26  1  0  0  0  0
 30 29  2  0  0  0  0
 31 32  1  0  0  0  0
 31 33  1  0  0  0  0
 32 33  1  0  0  0  0
 32 26  1  0  0  0  0
 34 35  1  0  0  0  0
 35 37  1  0  0  0  0
 35 36  1  0  0  0  0
 38 35  2  0  0  0  0
M  END
>  <MODEL>
8

>  <REMARK>
 VINA RESULT:      -7.2      3.322      5.583
  Name = 
  7 active torsions:
  status: ('A' for Active; 'I' for Inactive)
    1  A    between atoms: N_4  and  C_27
    2  A    between atoms: C_6  and  N_17
    3  A    between atoms: O_11  and  P_16
    4  A    between atoms: O_11  and  C_24
    5  A    between atoms: C_27  and  C_29
    6  A    between atoms: C_29  and  C_32
    7  A    between atoms: C_30  and  C_37
                            x       y       z     vdW  Elec       q    Type
                         _______ _______ _______ _____ _____    ______ ____

>  <TORSDO>
F 7

$$$$
=
 OpenBabel11062421013D

 38 43  0  0  1  0  0  0  0  0999 V2000
  193.2120  176.3400  142.3890 C   0  0  0  0  0  2  0  0  0  0  0  0
  190.4460  172.9430  140.1250 C   0  0  0  0  0  0  0  0  0  0  0  0
  189.8510  174.1110  144.8000 C   0  0  0  0  0  2  0  0  0  0  0  0
  193.3540  175.1180  144.5050 O   0  0  0  0  0  1  0  0  0  0  0  0
  188.7380  173.5720  142.2660 C   0  0  0  0  0  3  0  0  0  0  0  0
  191.1720  173.0790  139.0740 N   0  0  0  0  0  0  0  0  0  0  0  0
  189.0590  172.6140  140.0750 N   0  0  0  0  0  2  0  0  0  0  0  0
  192.2590  174.1720  140.8590 C   0  0  2  0  0  3  0  0  0  0  0  0
  190.5880  176.3760  145.0630 N   0  0  0  0  0  2  0  0  0  0  0  0
  191.1470  175.8900  143.8060 C   0  0  2  0  0  3  0  0  0  0  0  0
  190.7500  174.4300  143.6270 C   0  0  2  0  0  3  0  0  0  0  0  0
  190.1250  174.1960  142.2370 C   0  0  1  0  0  3  0  0  0  0  0  0
  194.0700  175.1940  141.8260 C   0  0  1  0  0  3  0  0  0  0  0  0
  192.6630  176.1090  143.7990 C   0  0  2  0  0  3  0  0  0  0  0  0
  191.0900  173.3650  141.3870 C   0  0  1  0  0  3  0  0  0  0  0  0
  192.4700  173.6150  139.4500 C   0  0  0  0  0  2  0  0  0  0  0  0
  190.1410  175.2050  145.8030 C   0  0  1  0  0  3  0  0  0  0  0  0
  188.2540  172.8670  141.2330 C   0  0  0  0  0  3  0  0  0  0  0  0
  193.3850  173.9660  141.6730 O   0  0  0  0  0  0  0  0  0  0  0  0
  188.7130  174.8550  147.6380 O   0  0  0  0  0  0  0  0  0  0  0  0
  188.9610  175.5550  146.6700 C   0  0  0  0  0  0  0  0  0  0  0  0
  188.0620  176.7170  146.3650 C   0  0  0  0  0  2  0  0  0  0  0  0
  186.6810  176.3770  146.6740 N   0  0  0  0  0  2  0  0  0  0  0  0
  184.4370  176.9020  146.8560 O   0  0  0  0  0  0  0  0  0  0  0  0
  185.5370  177.1580  146.3010 C   0  0  0  0  0  0  0  0  0  0  0  0
  185.9060  178.0480  143.9720 N   0  0  0  0  0  0  0  0  0  0  0  0
  185.5660  180.1660  144.2610 C   0  0  0  0  0  3  0  0  0  0  0  0
  185.8640  179.2160  143.3530 N   0  0  0  0  0  0  0  0  0  0  0  0
  185.3960  179.5770  145.5040 C   0  0  0  0  0  3  0  0  0  0  0  0
  185.6070  178.2280  145.2750 C   0  0  0  0  0  0  0  0  0  0  0  0
  186.3170  176.9820  141.7950 C   0  0  0  0  0  2  0  0  0  0  0  0
  186.1330  176.7740  143.2900 C   0  0  0  0  0  3  0  0  0  0  0  0
  187.5230  176.7670  142.6780 C   0  0  0  0  0  2  0  0  0  0  0  0
  194.6780  175.5820  140.6240 O   0  0  0  0  0  0  0  0  0  0  0  0
  196.3480  175.5170  140.9140 P   0  0  0  0  0  0  0  0  0  0  0  0
  196.7800  176.7910  141.9370 O   0  0  0  0  0  1  0  0  0  0  0  0
  196.7070  174.2060  141.5770 O   0  0  0  0  0  1  0  0  0  0  0  0
  197.1970  175.6660  139.4580 O   0  0  0  0  0  0  0  0  0  0  0  0
  1 14  1  0  0  0  0
  3 17  1  0  0  0  0
  6 16  1  0  0  0  0
  6  2  2  0  0  0  0
  7  2  1  0  0  0  0
  7 18  1  0  0  0  0
  8 16  1  6  0  0  0
  8 15  1  0  0  0  0
  8 19  1  0  0  0  0
  9 17  1  0  0  0  0
 10  9  1  1  0  0  0
 11 10  1  0  0  0  0
 11  3  1  1  0  0  0
 12  5  1  1  0  0  0
 12 11  1  0  0  0  0
 13 34  1  6  0  0  0
 13  1  1  0  0  0  0
 14 10  1  0  0  0  0
 14  4  1  6  0  0  0
 15  2  1  6  0  0  0
 15 12  1  0  0  0  0
 17 21  1  6  0  0  0
 18  5  2  0  0  0  0
 19 13  1  0  0  0  0
 21 20  2  0  0  0  0
 22 21  1  0  0  0  0
 22 23  1  0  0  0  0
 25 23  1  0  0  0  0
 25 24  2  0  0  0  0
 26 30  1  0  0  0  0
 27 29  1  0  0  0  0
 28 26  1  0  0  0  0
 28 27  2  0  0  0  0
 30 29  2  0  0  0  0
 30 25  1  0  0  0  0
 31 33  1  0  0  0  0
 31 32  1  0  0  0  0
 32 26  1  0  0  0  0
 33 32  1  0  0  0  0
 34 35  1  0  0  0  0
 35 37  1  0  0  0  0
 35 36  1  0  0  0  0
 38 35  2  0  0  0  0
M  END
>  <MODEL>
9

>  <REMARK>
 VINA RESULT:      -7.2      4.025      8.070
  Name = 
  7 active torsions:
  status: ('A' for Active; 'I' for Inactive)
    1  A    between atoms: N_4  and  C_27
    2  A    between atoms: C_6  and  N_17
    3  A    between atoms: O_11  and  P_16
    4  A    between atoms: O_11  and  C_24
    5  A    between atoms: C_27  and  C_29
    6  A    between atoms: C_29  and  C_32
    7  A    between atoms: C_30  and  C_37
                            x       y       z     vdW  Elec       q    Type
                         _______ _______ _______ _____ _____    ______ ____

>  <TORSDO>
F 7

$$$$
