=
 OpenBabel11062419213D

 50 54  0  0  1  0  0  0  0  0999 V2000
  190.2420  176.4020  142.8710 C   0  0  1  0  0  3  0  0  0  0  0  0
  191.5340  175.9960  142.5240 O   0  0  0  0  0  1  0  0  0  0  0  0
  189.2420  175.4710  142.2690 C   0  0  0  0  0  0  0  0  0  0  0  0
  189.7900  172.0450  138.7630 C   0  0  0  0  0  2  0  0  0  0  0  0
  189.4360  173.4200  139.3220 C   0  0  0  0  0  2  0  0  0  0  0  0
  191.2300  172.8690  140.9870 O   0  0  0  0  0  0  0  0  0  0  0  0
  189.6690  174.5420  141.4570 C   0  0  0  0  0  0  0  0  0  0  0  0
  191.2330  171.8150  138.8590 N   0  0  0  0  0  0  0  0  0  0  0  0
  190.1020  173.6210  140.6460 C   0  0  0  0  0  0  0  0  0  0  0  0
  191.5630  171.6770  140.2770 C   0  0  0  0  0  2  0  0  0  0  0  0
  190.0060  169.5040  137.8140 C   0  0  0  0  0  1  0  0  0  0  0  0
  192.2340  169.4310  139.2000 O   0  0  0  0  0  0  0  0  0  0  0  0
  191.6090  170.2770  138.0940 S   0  0  2  0  0  0  0  0  0  0  0  0
  187.8450  175.7660  142.3620 N   0  0  0  0  0  2  0  0  0  0  0  0
  186.0190  177.0320  141.7400 C   0  0  1  0  0  3  0  0  0  0  0  0
  186.1520  177.3020  143.2010 N   0  0  0  0  0  0  0  0  0  0  0  0
  185.6600  178.3220  141.0330 C   0  0  0  0  0  1  0  0  0  0  0  0
  187.2950  177.1130  142.2570 C   0  0  1  0  0  3  0  0  0  0  0  0
  184.0380  178.8440  145.8520 C   0  0  0  0  0  3  0  0  0  0  0  0
  185.6080  177.6070  144.4800 C   0  0  0  0  0  0  0  0  0  0  0  0
  184.5310  178.2040  146.9930 C   0  0  0  0  0  3  0  0  0  0  0  0
  186.0930  176.9600  145.6210 C   0  0  0  0  0  3  0  0  0  0  0  0
  186.0350  176.6410  147.9830 F   0  0  0  0  0  0  0  0  0  0  0  0
  184.5730  178.5440  144.5960 C   0  0  0  0  0  3  0  0  0  0  0  0
  185.5580  177.2600  146.8770 C   0  0  0  0  0  0  0  0  0  0  0  0
  189.5290  177.5260  144.8270 O   0  0  0  0  0  0  0  0  0  0  0  0
  190.0880  176.5400  144.3640 C   0  0  0  0  0  0  0  0  0  0  0  0
  189.6710  174.5550  145.7030 N   0  0  0  0  0  2  0  0  0  0  0  0
  190.4900  175.3290  147.5730 N   0  0  0  0  0  2  0  0  0  0  0  0
  191.1390  176.1320  146.5620 C   0  0  2  0  0  3  0  0  0  0  0  0
  190.6800  175.5110  145.2890 C   0  0  2  0  0  3  0  0  0  0  0  0
  189.3490  174.8520  146.9970 O   0  0  0  0  0  0  0  0  0  0  0  0
  192.6480  176.0190  146.7090 C   0  0  0  0  0  2  0  0  0  0  0  0
  194.4980  175.8360  145.0070 C   0  0  0  0  0  0  0  0  0  0  0  0
  193.2380  175.2030  145.5650 C   0  0  1  0  0  3  0  0  0  0  0  0
  195.7990  172.9710  143.3040 O   0  0  0  0  0  0  0  0  0  0  0  0
  194.7130  177.1950  145.2110 O   0  0  0  0  0  1  0  0  0  0  0  0
  194.1190  173.0140  144.9380 N   0  0  0  0  0  0  0  0  0  0  0  0
  195.1290  173.6440  144.1350 C   0  0  0  0  0  0  0  0  0  0  0  0
  195.3670  175.0960  144.2780 C   0  0  0  0  0  0  0  0  0  0  0  0
  193.5130  173.7730  146.0220 C   0  0  0  0  0  2  0  0  0  0  0  0
  192.1140  171.8070  144.2440 C   0  0  0  0  0  1  0  0  0  0  0  0
  193.5840  171.7010  144.6090 C   0  0  0  0  0  2  0  0  0  0  0  0
  196.5360  175.6510  143.6490 N   0  0  0  0  0  2  0  0  0  0  0  0
  196.5680  176.4310  142.4200 C   0  0  0  0  0  2  0  0  0  0  0  0
  196.2820  175.5290  141.2280 C   0  0  0  0  0  2  0  0  0  0  0  0
  194.2750  176.7680  141.3840 F   0  0  0  0  0  0  0  0  0  0  0  0
  194.7970  175.8550  139.3940 F   0  0  0  0  0  0  0  0  0  0  0  0
  194.8400  175.6710  140.7640 C   0  0  0  0  0  0  0  0  0  0  0  0
  194.1190  174.5410  141.1020 F   0  0  0  0  0  0  0  0  0  0  0  0
  1  2  1  1  0  0  0
  1 27  1  0  0  0  0
  3 14  1  0  0  0  0
  3  1  1  0  0  0  0
  4  8  1  0  0  0  0
  4  5  1  0  0  0  0
  5  9  1  0  0  0  0
  7  3  2  0  0  0  0
  8 10  1  0  0  0  0
  9  6  1  0  0  0  0
  9  7  2  0  0  0  0
 10  6  1  0  0  0  0
 13 11  1  1  0  0  0
 13  8  1  0  0  0  0
 13 12  2  0  0  0  0
 15 17  1  6  0  0  0
 15 18  1  0  0  0  0
 15 16  1  0  0  0  0
 16 20  1  0  0  0  0
 18 14  1  1  0  0  0
 18 16  1  0  0  0  0
 19 21  1  0  0  0  0
 20 24  1  0  0  0  0
 20 22  2  0  0  0  0
 22 25  1  0  0  0  0
 24 19  2  0  0  0  0
 25 21  2  0  0  0  0
 25 23  1  0  0  0  0
 27 26  2  0  0  0  0
 28 32  1  0  0  0  0
 30 33  1  1  0  0  0
 30 29  1  0  0  0  0
 31 27  1  6  0  0  0
 31 28  1  0  0  0  0
 31 30  1  0  0  0  0
 32 29  1  0  0  0  0
 34 37  1  0  0  0  0
 34 35  1  0  0  0  0
 35 41  1  0  0  0  0
 35 33  1  1  0  0  0
 36 39  2  0  0  0  0
 38 41  1  0  0  0  0
 39 40  1  0  0  0  0
 39 38  1  0  0  0  0
 40 34  2  0  0  0  0
 42 43  1  0  0  0  0
 43 38  1  0  0  0  0
 44 40  1  0  0  0  0
 45 44  1  0  0  0  0
 46 45  1  0  0  0  0
 48 49  1  0  0  0  0
 49 50  1  0  0  0  0
 49 46  1  0  0  0  0
 49 47  1  0  0  0  0
M  END
>  <MODEL>
1

>  <REMARK>
 VINA RESULT:      -7.7      0.000      0.000
  Name = 
  14 active torsions:
  status: ('A' for Active; 'I' for Inactive)
    1  A    between atoms: C_6  and  C_47
    2  A    between atoms: C_8  and  N_34
    3  A    between atoms: C_8  and  C_46
    4  A    between atoms: N_13  and  C_19
    5  A    between atoms: C_14  and  C_22
    6  A    between atoms: C_14  and  C_50
    7  A    between atoms: N_16  and  C_17
    8  A    between atoms: N_16  and  C_22
    9  A    between atoms: C_29  and  C_47
   10  A    between atoms: S_32  and  N_42
   11  A    between atoms: N_33  and  C_40
   12  A    between atoms: N_34  and  C_39
   13  A    between atoms: C_35  and  C_46
   14  A    between atoms: C_36  and  C_50
                            x       y       z     vdW  Elec       q    Type
                         _______ _______ _______ _____ _____    ______ ____

>  <TORSDO>
F 14

$$$$
=
 OpenBabel11062419213D

 50 54  0  0  1  0  0  0  0  0999 V2000
  189.5940  172.2490  144.3970 C   0  0  1  0  0  3  0  0  0  0  0  0
  189.4170  171.5010  145.5650 O   0  0  0  0  0  1  0  0  0  0  0  0
  190.1990  173.5720  144.7310 C   0  0  0  0  0  0  0  0  0  0  0  0
  194.8320  174.7300  145.9660 C   0  0  0  0  0  2  0  0  0  0  0  0
  193.3690  174.3810  146.2240 C   0  0  0  0  0  2  0  0  0  0  0  0
  193.6220  173.0780  144.0940 O   0  0  0  0  0  0  0  0  0  0  0  0
  191.4940  173.6420  144.8770 C   0  0  0  0  0  0  0  0  0  0  0  0
  195.5380  173.5770  145.4050 N   0  0  0  0  0  0  0  0  0  0  0  0
  192.7860  173.7030  145.0240 C   0  0  0  0  0  0  0  0  0  0  0  0
  195.0200  173.3580  144.0550 C   0  0  0  0  0  2  0  0  0  0  0  0
  197.2970  175.1620  143.8770 C   0  0  0  0  0  1  0  0  0  0  0  0
  197.8920  172.7300  144.6670 O   0  0  0  0  0  0  0  0  0  0  0  0
  197.2400  173.9850  145.2400 S   0  0  2  0  0  0  0  0  0  0  0  0
  189.3630  174.6550  145.1510 N   0  0  0  0  0  2  0  0  0  0  0  0
  190.0580  176.4680  146.3980 C   0  0  1  0  0  3  0  0  0  0  0  0
  188.5750  176.4800  146.5580 N   0  0  0  0  0  0  0  0  0  0  0  0
  190.6970  176.8150  147.7250 C   0  0  0  0  0  1  0  0  0  0  0  0
  189.4190  175.2490  146.4820 C   0  0  1  0  0  3  0  0  0  0  0  0
  184.9240  177.2150  146.4840 C   0  0  0  0  0  3  0  0  0  0  0  0
  187.3330  177.1500  146.7430 C   0  0  0  0  0  0  0  0  0  0  0  0
  184.8900  178.4640  147.1130 C   0  0  0  0  0  3  0  0  0  0  0  0
  187.2970  178.3950  147.3800 C   0  0  0  0  0  3  0  0  0  0  0  0
  186.0430  180.2630  148.1700 F   0  0  0  0  0  0  0  0  0  0  0  0
  186.1440  176.5570  146.3030 C   0  0  0  0  0  3  0  0  0  0  0  0
  186.0770  179.0530  147.5620 C   0  0  0  0  0  0  0  0  0  0  0  0
  191.3730  170.8460  143.7130 O   0  0  0  0  0  0  0  0  0  0  0  0
  190.3890  171.4860  143.3670 C   0  0  0  0  0  0  0  0  0  0  0  0
  190.5480  170.4240  141.1870 N   0  0  0  0  0  2  0  0  0  0  0  0
  191.3280  172.1570  140.1130 N   0  0  0  0  0  2  0  0  0  0  0  0
  190.6640  172.7390  141.2560 C   0  0  2  0  0  3  0  0  0  0  0  0
  190.0220  171.5650  141.9100 C   0  0  2  0  0  3  0  0  0  0  0  0
  191.6160  170.8700  140.4620 O   0  0  0  0  0  0  0  0  0  0  0  0
  189.6200  173.7400  140.7890 C   0  0  0  0  0  2  0  0  0  0  0  0
  188.8410  175.8880  141.8520 C   0  0  0  0  0  0  0  0  0  0  0  0
  190.0030  175.1520  141.2140 C   0  0  1  0  0  3  0  0  0  0  0  0
  190.7040  178.4690  143.4850 O   0  0  0  0  0  0  0  0  0  0  0  0
  187.5460  175.4600  141.5800 O   0  0  0  0  0  1  0  0  0  0  0  0
  191.5290  176.4630  142.5980 N   0  0  0  0  0  0  0  0  0  0  0  0
  190.4600  177.3580  142.9390 C   0  0  0  0  0  0  0  0  0  0  0  0
  189.0660  176.9740  142.6300 C   0  0  0  0  0  0  0  0  0  0  0  0
  191.1990  175.1140  142.1610 C   0  0  0  0  0  2  0  0  0  0  0  0
  193.7760  175.8500  141.8690 C   0  0  0  0  0  1  0  0  0  0  0  0
  192.9140  176.9070  142.5370 C   0  0  0  0  0  2  0  0  0  0  0  0
  188.0080  177.7670  143.1960 N   0  0  0  0  0  2  0  0  0  0  0  0
  187.1240  178.6700  142.4730 C   0  0  0  0  0  2  0  0  0  0  0  0
  185.9490  179.0620  143.3580 C   0  0  0  0  0  2  0  0  0  0  0  0
  184.3560  178.6020  141.6720 F   0  0  0  0  0  0  0  0  0  0  0  0
  184.9190  176.9330  143.0740 F   0  0  0  0  0  0  0  0  0  0  0  0
  184.6920  178.2940  142.9760 C   0  0  0  0  0  0  0  0  0  0  0  0
  183.6470  178.6490  143.8080 F   0  0  0  0  0  0  0  0  0  0  0  0
  1  3  1  0  0  0  0
  1  2  1  1  0  0  0
  3  7  2  0  0  0  0
  3 14  1  0  0  0  0
  4  5  1  0  0  0  0
  6  9  1  0  0  0  0
  7  9  2  0  0  0  0
  8  4  1  0  0  0  0
  9  5  1  0  0  0  0
 10  6  1  0  0  0  0
 10  8  1  0  0  0  0
 12 13  2  0  0  0  0
 13 11  1  6  0  0  0
 13  8  1  0  0  0  0
 15 18  1  0  0  0  0
 15 16  1  0  0  0  0
 15 17  1  1  0  0  0
 16 20  1  0  0  0  0
 18 14  1  6  0  0  0
 18 16  1  0  0  0  0
 19 21  1  0  0  0  0
 20 22  2  0  0  0  0
 21 25  2  0  0  0  0
 22 25  1  0  0  0  0
 24 19  2  0  0  0  0
 24 20  1  0  0  0  0
 25 23  1  0  0  0  0
 27 26  2  0  0  0  0
 27  1  1  0  0  0  0
 28 31  1  0  0  0  0
 29 32  1  0  0  0  0
 29 30  1  0  0  0  0
 30 33  1  6  0  0  0
 30 31  1  0  0  0  0
 31 27  1  1  0  0  0
 32 28  1  0  0  0  0
 34 40  2  0  0  0  0
 35 33  1  1  0  0  0
 35 34  1  0  0  0  0
 35 41  1  0  0  0  0
 37 34  1  0  0  0  0
 38 39  1  0  0  0  0
 39 36  2  0  0  0  0
 40 39  1  0  0  0  0
 40 44  1  0  0  0  0
 41 38  1  0  0  0  0
 42 43  1  0  0  0  0
 43 38  1  0  0  0  0
 45 44  1  0  0  0  0
 45 46  1  0  0  0  0
 47 49  1  0  0  0  0
 49 48  1  0  0  0  0
 49 46  1  0  0  0  0
 49 50  1  0  0  0  0
M  END
>  <MODEL>
2

>  <REMARK>
 VINA RESULT:      -7.5      3.431      6.880
  Name = 
  14 active torsions:
  status: ('A' for Active; 'I' for Inactive)
    1  A    between atoms: C_6  and  C_47
    2  A    between atoms: C_8  and  N_34
    3  A    between atoms: C_8  and  C_46
    4  A    between atoms: N_13  and  C_19
    5  A    between atoms: C_14  and  C_22
    6  A    between atoms: C_14  and  C_50
    7  A    between atoms: N_16  and  C_17
    8  A    between atoms: N_16  and  C_22
    9  A    between atoms: C_29  and  C_47
   10  A    between atoms: S_32  and  N_42
   11  A    between atoms: N_33  and  C_40
   12  A    between atoms: N_34  and  C_39
   13  A    between atoms: C_35  and  C_46
   14  A    between atoms: C_36  and  C_50
                            x       y       z     vdW  Elec       q    Type
                         _______ _______ _______ _____ _____    ______ ____

>  <TORSDO>
F 14

$$$$
=
 OpenBabel11062419213D

 50 54  0  0  1  0  0  0  0  0999 V2000
  190.6680  173.8370  143.7210 C   0  0  1  0  0  3  0  0  0  0  0  0
  191.5930  172.8730  143.3100 O   0  0  0  0  0  1  0  0  0  0  0  0
  189.5440  173.9090  142.7410 C   0  0  0  0  0  0  0  0  0  0  0  0
  189.4100  172.6960  137.9610 C   0  0  0  0  0  2  0  0  0  0  0  0
  189.5510  173.6360  139.1550 C   0  0  0  0  0  2  0  0  0  0  0  0
  190.4800  171.5880  140.2700 O   0  0  0  0  0  0  0  0  0  0  0  0
  189.7170  173.3810  141.5600 C   0  0  0  0  0  0  0  0  0  0  0  0
  190.5470  171.7750  137.9040 N   0  0  0  0  0  0  0  0  0  0  0  0
  189.8990  172.8550  140.3830 C   0  0  0  0  0  0  0  0  0  0  0  0
  190.4340  170.8640  139.0410 C   0  0  0  0  0  2  0  0  0  0  0  0
  191.7380  171.3720  135.3820 C   0  0  0  0  0  1  0  0  0  0  0  0
  189.1410  171.3030  135.7580 O   0  0  0  0  0  0  0  0  0  0  0  0
  190.4050  170.7980  136.4490 S   0  0  2  0  0  0  0  0  0  0  0  0
  188.4290  174.7690  142.9930 N   0  0  0  0  0  2  0  0  0  0  0  0
  187.1620  176.0240  141.5280 C   0  0  1  0  0  3  0  0  0  0  0  0
  187.0000  176.7350  142.8290 N   0  0  0  0  0  0  0  0  0  0  0  0
  187.3020  177.0490  140.4230 C   0  0  0  0  0  1  0  0  0  0  0  0
  188.2580  176.0740  142.3640 C   0  0  1  0  0  3  0  0  0  0  0  0
  184.9280  177.6910  145.7740 C   0  0  0  0  0  3  0  0  0  0  0  0
  186.2520  177.5210  143.7500 C   0  0  0  0  0  0  0  0  0  0  0  0
  184.7880  179.0670  145.5660 C   0  0  0  0  0  3  0  0  0  0  0  0
  186.1200  178.8990  143.5500 C   0  0  0  0  0  3  0  0  0  0  0  0
  185.2500  181.0040  144.2560 F   0  0  0  0  0  0  0  0  0  0  0  0
  185.6620  176.9190  144.8680 C   0  0  0  0  0  3  0  0  0  0  0  0
  185.3860  179.6710  144.4550 C   0  0  0  0  0  0  0  0  0  0  0  0
  189.6270  172.5350  145.4010 O   0  0  0  0  0  0  0  0  0  0  0  0
  190.1970  173.5840  145.1320 C   0  0  0  0  0  0  0  0  0  0  0  0
  189.0750  174.9980  146.7590 N   0  0  0  0  0  2  0  0  0  0  0  0
  189.9130  176.8940  146.0750 N   0  0  0  0  0  2  0  0  0  0  0  0
  190.8660  175.9150  145.6060 C   0  0  2  0  0  3  0  0  0  0  0  0
  190.3600  174.6420  146.1890 C   0  0  2  0  0  3  0  0  0  0  0  0
  188.7390  176.2210  146.2500 O   0  0  0  0  0  0  0  0  0  0  0  0
  192.2490  176.2470  146.1420 C   0  0  0  0  0  2  0  0  0  0  0  0
  193.4990  176.1820  143.9550 C   0  0  0  0  0  0  0  0  0  0  0  0
  193.3250  175.5480  145.3200 C   0  0  1  0  0  3  0  0  0  0  0  0
  196.7180  174.8320  143.1700 O   0  0  0  0  0  0  0  0  0  0  0  0
  192.4550  176.9330  143.4260 O   0  0  0  0  0  1  0  0  0  0  0  0
  195.6810  174.9100  145.2700 N   0  0  0  0  0  0  0  0  0  0  0  0
  195.7400  175.2160  143.8690 C   0  0  0  0  0  0  0  0  0  0  0  0
  194.6340  175.9720  143.2450 C   0  0  0  0  0  0  0  0  0  0  0  0
  194.6490  175.5380  146.0800 C   0  0  0  0  0  2  0  0  0  0  0  0
  195.9030  172.5140  145.6780 C   0  0  0  0  0  1  0  0  0  0  0  0
  196.5250  173.8860  145.8690 C   0  0  0  0  0  2  0  0  0  0  0  0
  194.8290  176.4730  141.9110 N   0  0  0  0  0  2  0  0  0  0  0  0
  194.6570  175.7260  140.6730 C   0  0  0  0  0  2  0  0  0  0  0  0
  193.6140  174.6340  140.8680 C   0  0  0  0  0  2  0  0  0  0  0  0
  195.4870  173.3570  140.2010 F   0  0  0  0  0  0  0  0  0  0  0  0
  194.3880  172.7230  142.0600 F   0  0  0  0  0  0  0  0  0  0  0  0
  194.2430  173.2520  140.7900 C   0  0  0  0  0  0  0  0  0  0  0  0
  193.4520  172.4120  140.0280 F   0  0  0  0  0  0  0  0  0  0  0  0
  1  2  1  6  0  0  0
  1 27  1  0  0  0  0
  3 14  1  0  0  0  0
  3  1  1  0  0  0  0
  4  5  1  0  0  0  0
  5  9  1  0  0  0  0
  6  9  1  0  0  0  0
  7  3  2  0  0  0  0
  8  4  1  0  0  0  0
  8 10  1  0  0  0  0
  9  7  2  0  0  0  0
 10  6  1  0  0  0  0
 12 13  2  0  0  0  0
 13 11  1  6  0  0  0
 13  8  1  0  0  0  0
 15 17  1  6  0  0  0
 15 18  1  0  0  0  0
 15 16  1  0  0  0  0
 16 20  1  0  0  0  0
 18 16  1  0  0  0  0
 18 14  1  1  0  0  0
 20 24  1  0  0  0  0
 21 19  1  0  0  0  0
 22 20  2  0  0  0  0
 22 25  1  0  0  0  0
 23 25  1  0  0  0  0
 24 19  2  0  0  0  0
 25 21  2  0  0  0  0
 27 26  2  0  0  0  0
 29 32  1  0  0  0  0
 30 29  1  0  0  0  0
 30 33  1  1  0  0  0
 30 31  1  0  0  0  0
 31 27  1  6  0  0  0
 31 28  1  0  0  0  0
 32 28  1  0  0  0  0
 34 35  1  0  0  0  0
 35 41  1  0  0  0  0
 35 33  1  1  0  0  0
 36 39  2  0  0  0  0
 37 34  1  0  0  0  0
 38 43  1  0  0  0  0
 38 41  1  0  0  0  0
 39 38  1  0  0  0  0
 40 39  1  0  0  0  0
 40 34  2  0  0  0  0
 42 43  1  0  0  0  0
 44 40  1  0  0  0  0
 45 46  1  0  0  0  0
 45 44  1  0  0  0  0
 47 49  1  0  0  0  0
 49 46  1  0  0  0  0
 49 48  1  0  0  0  0
 50 49  1  0  0  0  0
M  END
>  <MODEL>
3

>  <REMARK>
 VINA RESULT:      -7.2      1.978      2.547
  Name = 
  14 active torsions:
  status: ('A' for Active; 'I' for Inactive)
    1  A    between atoms: C_6  and  C_47
    2  A    between atoms: C_8  and  N_34
    3  A    between atoms: C_8  and  C_46
    4  A    between atoms: N_13  and  C_19
    5  A    between atoms: C_14  and  C_22
    6  A    between atoms: C_14  and  C_50
    7  A    between atoms: N_16  and  C_17
    8  A    between atoms: N_16  and  C_22
    9  A    between atoms: C_29  and  C_47
   10  A    between atoms: S_32  and  N_42
   11  A    between atoms: N_33  and  C_40
   12  A    between atoms: N_34  and  C_39
   13  A    between atoms: C_35  and  C_46
   14  A    between atoms: C_36  and  C_50
                            x       y       z     vdW  Elec       q    Type
                         _______ _______ _______ _____ _____    ______ ____

>  <TORSDO>
F 14

$$$$
=
 OpenBabel11062419213D

 50 54  0  0  1  0  0  0  0  0999 V2000
  190.9010  177.3400  143.6190 C   0  0  1  0  0  3  0  0  0  0  0  0
  191.7730  178.2680  143.0410 O   0  0  0  0  0  1  0  0  0  0  0  0
  190.7250  176.1750  142.7030 C   0  0  0  0  0  0  0  0  0  0  0  0
  194.0780  173.5490  140.2140 C   0  0  0  0  0  2  0  0  0  0  0  0
  193.0270  174.6390  140.4070 C   0  0  0  0  0  2  0  0  0  0  0  0
  193.8740  174.6120  142.7680 O   0  0  0  0  0  0  0  0  0  0  0  0
  191.7910  175.5500  142.2820 C   0  0  0  0  0  0  0  0  0  0  0  0
  195.2710  173.8490  141.0060 N   0  0  0  0  0  0  0  0  0  0  0  0
  192.8590  174.9340  141.8640 C   0  0  0  0  0  0  0  0  0  0  0  0
  194.9120  173.6990  142.4160 C   0  0  0  0  0  2  0  0  0  0  0  0
  197.0170  172.0380  142.2760 C   0  0  0  0  0  1  0  0  0  0  0  0
  197.7010  173.4280  140.1570 O   0  0  0  0  0  0  0  0  0  0  0  0
  196.4960  172.6370  140.6580 S   0  0  2  0  0  0  0  0  0  0  0  0
  189.4540  175.9320  142.0910 N   0  0  0  0  0  2  0  0  0  0  0  0
  187.3710  176.4110  141.2200 C   0  0  1  0  0  3  0  0  0  0  0  0
  187.2730  176.8670  142.6370 N   0  0  0  0  0  0  0  0  0  0  0  0
  186.6620  177.4110  140.3320 C   0  0  0  0  0  1  0  0  0  0  0  0
  188.4930  176.9850  141.7820 C   0  0  1  0  0  3  0  0  0  0  0  0
  186.2780  176.7840  146.2260 C   0  0  0  0  0  3  0  0  0  0  0  0
  186.5440  177.1000  143.8370 C   0  0  0  0  0  0  0  0  0  0  0  0
  185.1170  177.5640  146.1990 C   0  0  0  0  0  3  0  0  0  0  0  0
  185.3880  177.8880  143.8140 C   0  0  0  0  0  3  0  0  0  0  0  0
  183.5490  178.8720  144.9690 F   0  0  0  0  0  0  0  0  0  0  0  0
  186.9920  176.5550  145.0460 C   0  0  0  0  0  3  0  0  0  0  0  0
  184.6730  178.1170  144.9940 C   0  0  0  0  0  0  0  0  0  0  0  0
  192.5430  177.0240  145.2930 O   0  0  0  0  0  0  0  0  0  0  0  0
  191.3580  176.9350  144.9980 C   0  0  0  0  0  0  0  0  0  0  0  0
  190.4590  177.0590  147.2520 N   0  0  0  0  0  2  0  0  0  0  0  0
  190.7720  174.9610  147.7690 N   0  0  0  0  0  2  0  0  0  0  0  0
  190.7280  174.9490  146.3250 C   0  0  2  0  0  3  0  0  0  0  0  0
  190.3820  176.3570  145.9850 C   0  0  2  0  0  3  0  0  0  0  0  0
  191.1120  176.2340  148.1240 O   0  0  0  0  0  0  0  0  0  0  0  0
  189.6460  173.9930  145.8520 C   0  0  0  0  0  2  0  0  0  0  0  0
  189.6620  172.7690  143.6500 C   0  0  0  0  0  0  0  0  0  0  0  0
  190.2530  172.8540  145.0430 C   0  0  1  0  0  3  0  0  0  0  0  0
  192.2140  170.7710  142.1330 O   0  0  0  0  0  0  0  0  0  0  0  0
  188.4160  173.3380  143.4140 O   0  0  0  0  0  1  0  0  0  0  0  0
  192.3370  171.9370  144.1620 N   0  0  0  0  0  0  0  0  0  0  0  0
  191.6670  171.5640  142.9490 C   0  0  0  0  0  0  0  0  0  0  0  0
  190.3190  172.1030  142.6700 C   0  0  0  0  0  0  0  0  0  0  0  0
  191.7710  173.0030  144.9750 C   0  0  0  0  0  2  0  0  0  0  0  0
  194.2450  172.0230  145.6820 C   0  0  0  0  0  1  0  0  0  0  0  0
  193.4760  171.1880  144.6730 C   0  0  0  0  0  2  0  0  0  0  0  0
  189.7780  171.9120  141.3510 N   0  0  0  0  0  2  0  0  0  0  0  0
  190.1630  172.6330  140.1460 C   0  0  0  0  0  2  0  0  0  0  0  0
  189.2760  172.2080  138.9840 C   0  0  0  0  0  2  0  0  0  0  0  0
  188.6990  172.8610  136.7860 F   0  0  0  0  0  0  0  0  0  0  0  0
  187.9850  174.1480  138.4900 F   0  0  0  0  0  0  0  0  0  0  0  0
  189.0280  173.3660  138.0290 C   0  0  0  0  0  0  0  0  0  0  0  0
  190.1690  174.1390  137.9140 F   0  0  0  0  0  0  0  0  0  0  0  0
  1  2  1  6  0  0  0
  1 27  1  0  0  0  0
  3  1  1  0  0  0  0
  4  5  1  0  0  0  0
  4  8  1  0  0  0  0
  5  9  1  0  0  0  0
  7  3  2  0  0  0  0
  8 10  1  0  0  0  0
  9  7  2  0  0  0  0
  9  6  1  0  0  0  0
 10  6  1  0  0  0  0
 12 13  2  0  0  0  0
 13  8  1  0  0  0  0
 13 11  1  1  0  0  0
 14  3  1  0  0  0  0
 15 17  1  6  0  0  0
 15 18  1  0  0  0  0
 15 16  1  0  0  0  0
 16 20  1  0  0  0  0
 18 14  1  1  0  0  0
 18 16  1  0  0  0  0
 20 24  1  0  0  0  0
 21 19  1  0  0  0  0
 22 20  2  0  0  0  0
 22 25  1  0  0  0  0
 23 25  1  0  0  0  0
 24 19  2  0  0  0  0
 25 21  2  0  0  0  0
 27 26  2  0  0  0  0
 28 32  1  0  0  0  0
 29 32  1  0  0  0  0
 30 33  1  1  0  0  0
 30 29  1  0  0  0  0
 31 27  1  6  0  0  0
 31 30  1  0  0  0  0
 31 28  1  0  0  0  0
 34 35  1  0  0  0  0
 35 33  1  6  0  0  0
 36 39  2  0  0  0  0
 37 34  1  0  0  0  0
 38 43  1  0  0  0  0
 38 41  1  0  0  0  0
 39 38  1  0  0  0  0
 40 39  1  0  0  0  0
 40 34  2  0  0  0  0
 41 35  1  0  0  0  0
 43 42  1  0  0  0  0
 44 40  1  0  0  0  0
 45 44  1  0  0  0  0
 46 45  1  0  0  0  0
 47 49  1  0  0  0  0
 49 48  1  0  0  0  0
 49 46  1  0  0  0  0
 50 49  1  0  0  0  0
M  END
>  <MODEL>
4

>  <REMARK>
 VINA RESULT:      -7.1      2.639      4.400
  Name = 
  14 active torsions:
  status: ('A' for Active; 'I' for Inactive)
    1  A    between atoms: C_6  and  C_47
    2  A    between atoms: C_8  and  N_34
    3  A    between atoms: C_8  and  C_46
    4  A    between atoms: N_13  and  C_19
    5  A    between atoms: C_14  and  C_22
    6  A    between atoms: C_14  and  C_50
    7  A    between atoms: N_16  and  C_17
    8  A    between atoms: N_16  and  C_22
    9  A    between atoms: C_29  and  C_47
   10  A    between atoms: S_32  and  N_42
   11  A    between atoms: N_33  and  C_40
   12  A    between atoms: N_34  and  C_39
   13  A    between atoms: C_35  and  C_46
   14  A    between atoms: C_36  and  C_50
                            x       y       z     vdW  Elec       q    Type
                         _______ _______ _______ _____ _____    ______ ____

>  <TORSDO>
F 14

$$$$
=
 OpenBabel11062419213D

 50 54  0  0  1  0  0  0  0  0999 V2000
  190.0050  177.7360  144.3520 C   0  0  1  0  0  3  0  0  0  0  0  0
  190.9010  178.8030  144.4720 O   0  0  0  0  0  1  0  0  0  0  0  0
  190.4100  176.8640  143.2100 C   0  0  0  0  0  0  0  0  0  0  0  0
  194.8830  175.9200  141.3580 C   0  0  0  0  0  2  0  0  0  0  0  0
  193.5340  176.6270  141.4440 C   0  0  0  0  0  2  0  0  0  0  0  0
  193.7850  176.1530  143.8950 O   0  0  0  0  0  0  0  0  0  0  0  0
  191.6830  176.6570  143.0090 C   0  0  0  0  0  0  0  0  0  0  0  0
  195.7120  176.2690  142.5130 N   0  0  0  0  0  0  0  0  0  0  0  0
  192.9550  176.4580  142.8130 C   0  0  0  0  0  0  0  0  0  0  0  0
  195.1060  175.6520  143.6920 C   0  0  0  0  0  2  0  0  0  0  0  0
  197.4700  175.3100  140.5300 C   0  0  0  0  0  1  0  0  0  0  0  0
  197.1420  174.1110  142.8420 O   0  0  0  0  0  0  0  0  0  0  0  0
  197.2970  175.5330  142.3090 S   0  0  2  0  0  0  0  0  0  0  0  0
  189.4510  176.5000  142.2120 N   0  0  0  0  0  2  0  0  0  0  0  0
  187.4250  176.7150  141.1280 C   0  0  1  0  0  3  0  0  0  0  0  0
  187.2060  177.4210  142.4230 N   0  0  0  0  0  0  0  0  0  0  0  0
  186.7540  177.5000  140.0210 C   0  0  0  0  0  1  0  0  0  0  0  0
  188.4830  177.4330  141.6460 C   0  0  1  0  0  3  0  0  0  0  0  0
  185.1310  179.5800  144.6390 C   0  0  0  0  0  3  0  0  0  0  0  0
  186.3820  177.8400  143.5050 C   0  0  0  0  0  0  0  0  0  0  0  0
  184.7570  178.6650  145.6280 C   0  0  0  0  0  3  0  0  0  0  0  0
  185.9990  176.9240  144.4900 C   0  0  0  0  0  3  0  0  0  0  0  0
  184.8250  176.4520  146.5120 F   0  0  0  0  0  0  0  0  0  0  0  0
  185.9410  179.1670  143.5760 C   0  0  0  0  0  3  0  0  0  0  0  0
  185.1890  177.3370  145.5530 C   0  0  0  0  0  0  0  0  0  0  0  0
  190.5400  177.3110  146.6180 O   0  0  0  0  0  0  0  0  0  0  0  0
  189.8700  176.9780  145.6480 C   0  0  0  0  0  0  0  0  0  0  0  0
  188.2240  175.7820  146.9760 N   0  0  0  0  0  2  0  0  0  0  0  0
  189.2410  173.8500  146.9680 N   0  0  0  0  0  2  0  0  0  0  0  0
  189.7690  174.5140  145.7990 C   0  0  2  0  0  3  0  0  0  0  0  0
  188.9750  175.7730  145.7360 C   0  0  2  0  0  3  0  0  0  0  0  0
  188.7880  174.8410  147.7900 O   0  0  0  0  0  0  0  0  0  0  0  0
  189.5280  173.6560  144.5690 C   0  0  0  0  0  2  0  0  0  0  0  0
  191.0520  172.9590  142.6860 C   0  0  0  0  0  0  0  0  0  0  0  0
  190.7970  172.9070  144.1800 C   0  0  1  0  0  3  0  0  0  0  0  0
  194.5130  172.0560  142.7260 O   0  0  0  0  0  0  0  0  0  0  0  0
  189.9850  173.2170  141.8320 O   0  0  0  0  0  1  0  0  0  0  0  0
  193.2080  172.7700  144.5370 N   0  0  0  0  0  0  0  0  0  0  0  0
  193.4050  172.4920  143.1430 C   0  0  0  0  0  0  0  0  0  0  0  0
  192.2890  172.7040  142.1970 C   0  0  0  0  0  0  0  0  0  0  0  0
  191.9940  173.4600  144.9480 C   0  0  0  0  0  2  0  0  0  0  0  0
  195.2420  173.2400  145.8010 C   0  0  0  0  0  1  0  0  0  0  0  0
  194.1100  172.2570  145.5580 C   0  0  0  0  0  2  0  0  0  0  0  0
  192.5810  172.6540  140.7890 N   0  0  0  0  0  2  0  0  0  0  0  0
  192.2960  171.5470  139.8870 C   0  0  0  0  0  2  0  0  0  0  0  0
  191.9980  172.0800  138.4920 C   0  0  0  0  0  2  0  0  0  0  0  0
  190.1520  172.1900  137.0190 F   0  0  0  0  0  0  0  0  0  0  0  0
  189.7630  171.5890  139.1530 F   0  0  0  0  0  0  0  0  0  0  0  0
  190.5200  172.4050  138.3330 C   0  0  0  0  0  0  0  0  0  0  0  0
  190.2880  173.7290  138.6560 F   0  0  0  0  0  0  0  0  0  0  0  0
  1  2  1  1  0  0  0
  1 27  1  0  0  0  0
  3  1  1  0  0  0  0
  4  5  1  0  0  0  0
  4  8  1  0  0  0  0
  5  9  1  0  0  0  0
  7  3  2  0  0  0  0
  8 10  1  0  0  0  0
  9  7  2  0  0  0  0
  9  6  1  0  0  0  0
 10  6  1  0  0  0  0
 13 11  1  6  0  0  0
 13  8  1  0  0  0  0
 13 12  2  0  0  0  0
 14  3  1  0  0  0  0
 15 17  1  6  0  0  0
 15 18  1  0  0  0  0
 15 16  1  0  0  0  0
 16 20  1  0  0  0  0
 18 14  1  1  0  0  0
 18 16  1  0  0  0  0
 19 21  1  0  0  0  0
 20 24  1  0  0  0  0
 20 22  2  0  0  0  0
 22 25  1  0  0  0  0
 24 19  2  0  0  0  0
 25 21  2  0  0  0  0
 25 23  1  0  0  0  0
 27 26  2  0  0  0  0
 28 32  1  0  0  0  0
 29 32  1  0  0  0  0
 30 33  1  6  0  0  0
 30 29  1  0  0  0  0
 31 27  1  1  0  0  0
 31 30  1  0  0  0  0
 31 28  1  0  0  0  0
 34 35  1  0  0  0  0
 35 33  1  6  0  0  0
 35 41  1  0  0  0  0
 36 39  2  0  0  0  0
 37 34  1  0  0  0  0
 38 41  1  0  0  0  0
 38 43  1  0  0  0  0
 39 38  1  0  0  0  0
 40 34  2  0  0  0  0
 40 39  1  0  0  0  0
 43 42  1  0  0  0  0
 44 40  1  0  0  0  0
 45 44  1  0  0  0  0
 46 45  1  0  0  0  0
 47 49  1  0  0  0  0
 49 46  1  0  0  0  0
 49 50  1  0  0  0  0
 49 48  1  0  0  0  0
M  END
>  <MODEL>
5

>  <REMARK>
 VINA RESULT:      -6.9      2.496      4.406
  Name = 
  14 active torsions:
  status: ('A' for Active; 'I' for Inactive)
    1  A    between atoms: C_6  and  C_47
    2  A    between atoms: C_8  and  N_34
    3  A    between atoms: C_8  and  C_46
    4  A    between atoms: N_13  and  C_19
    5  A    between atoms: C_14  and  C_22
    6  A    between atoms: C_14  and  C_50
    7  A    between atoms: N_16  and  C_17
    8  A    between atoms: N_16  and  C_22
    9  A    between atoms: C_29  and  C_47
   10  A    between atoms: S_32  and  N_42
   11  A    between atoms: N_33  and  C_40
   12  A    between atoms: N_34  and  C_39
   13  A    between atoms: C_35  and  C_46
   14  A    between atoms: C_36  and  C_50
                            x       y       z     vdW  Elec       q    Type
                         _______ _______ _______ _____ _____    ______ ____

>  <TORSDO>
F 14

$$$$
=
 OpenBabel11062419213D

 50 54  0  0  1  0  0  0  0  0999 V2000
  193.1970  172.8460  142.0640 C   0  0  1  0  0  3  0  0  0  0  0  0
  193.0770  171.5050  141.6860 O   0  0  0  0  0  1  0  0  0  0  0  0
  194.5320  173.3700  141.6490 C   0  0  0  0  0  0  0  0  0  0  0  0
  196.2980  174.3800  137.1560 C   0  0  0  0  0  2  0  0  0  0  0  0
  196.0740  173.5320  138.4040 C   0  0  0  0  0  2  0  0  0  0  0  0
  193.9000  174.7820  138.4910 O   0  0  0  0  0  0  0  0  0  0  0  0
  194.7070  173.7020  140.3990 C   0  0  0  0  0  0  0  0  0  0  0  0
  195.0420  174.5460  136.4230 N   0  0  0  0  0  0  0  0  0  0  0  0
  194.8750  174.0270  139.1500 C   0  0  0  0  0  0  0  0  0  0  0  0
  194.1700  175.3960  137.2320 C   0  0  0  0  0  2  0  0  0  0  0  0
  196.7330  176.5270  135.3470 C   0  0  0  0  0  1  0  0  0  0  0  0
  194.1810  176.3590  134.7570 O   0  0  0  0  0  0  0  0  0  0  0  0
  195.3710  175.4210  134.9340 S   0  0  2  0  0  0  0  0  0  0  0  0
  195.6530  173.2460  142.5290 N   0  0  0  0  0  2  0  0  0  0  0  0
  196.6230  173.1870  144.6230 C   0  0  1  0  0  3  0  0  0  0  0  0
  195.2820  173.7910  144.8740 N   0  0  0  0  0  0  0  0  0  0  0  0
  196.9470  172.2290  145.7480 C   0  0  0  0  0  1  0  0  0  0  0  0
  195.5620  172.7090  143.8820 C   0  0  1  0  0  3  0  0  0  0  0  0
  193.9770  176.7820  146.6710 C   0  0  0  0  0  3  0  0  0  0  0  0
  194.4040  174.6580  145.5840 C   0  0  0  0  0  0  0  0  0  0  0  0
  192.6770  176.3650  146.9750 C   0  0  0  0  0  3  0  0  0  0  0  0
  193.1010  174.2460  145.8800 C   0  0  0  0  0  3  0  0  0  0  0  0
  190.9790  174.6950  146.8720 F   0  0  0  0  0  0  0  0  0  0  0  0
  194.8390  175.9300  145.9740 C   0  0  0  0  0  3  0  0  0  0  0  0
  192.2380  175.0970  146.5770 C   0  0  0  0  0  0  0  0  0  0  0  0
  192.0750  174.8910  141.6630 O   0  0  0  0  0  0  0  0  0  0  0  0
  192.0530  173.6740  141.5330 C   0  0  0  0  0  0  0  0  0  0  0  0
  191.1390  172.6210  139.5430 N   0  0  0  0  0  2  0  0  0  0  0  0
  189.3430  173.8540  139.4010 N   0  0  0  0  0  2  0  0  0  0  0  0
  189.7130  173.9560  140.7940 C   0  0  2  0  0  3  0  0  0  0  0  0
  190.8560  173.0080  140.9110 C   0  0  2  0  0  3  0  0  0  0  0  0
  190.4820  173.5050  138.7350 O   0  0  0  0  0  0  0  0  0  0  0  0
  188.5500  173.5160  141.6660 C   0  0  0  0  0  2  0  0  0  0  0  0
  188.8360  175.2290  143.4930 C   0  0  0  0  0  0  0  0  0  0  0  0
  187.9380  174.7110  142.3870 C   0  0  1  0  0  3  0  0  0  0  0  0
  187.3550  178.4620  143.8850 O   0  0  0  0  0  0  0  0  0  0  0  0
  189.7930  174.3770  144.0330 O   0  0  0  0  0  1  0  0  0  0  0  0
  187.0770  176.9770  142.0930 N   0  0  0  0  0  0  0  0  0  0  0  0
  187.6770  177.3730  143.3350 C   0  0  0  0  0  0  0  0  0  0  0  0
  188.6670  176.4830  143.9780 C   0  0  0  0  0  0  0  0  0  0  0  0
  187.6180  175.8230  141.3910 C   0  0  0  0  0  2  0  0  0  0  0  0
  185.9220  177.7360  140.0810 C   0  0  0  0  0  1  0  0  0  0  0  0
  185.8610  177.6030  141.5930 C   0  0  0  0  0  2  0  0  0  0  0  0
  189.4270  177.0060  145.0820 N   0  0  0  0  0  2  0  0  0  0  0  0
  188.9480  177.2090  146.4420 C   0  0  0  0  0  2  0  0  0  0  0  0
  187.8620  176.1920  146.7650 C   0  0  0  0  0  2  0  0  0  0  0  0
  185.9990  176.5330  148.1790 F   0  0  0  0  0  0  0  0  0  0  0  0
  186.6520  178.2410  146.8660 F   0  0  0  0  0  0  0  0  0  0  0  0
  186.5110  176.8670  146.9410 C   0  0  0  0  0  0  0  0  0  0  0  0
  185.6350  176.4400  145.9600 F   0  0  0  0  0  0  0  0  0  0  0  0
  1  2  1  6  0  0  0
  3  1  1  0  0  0  0
  3 14  1  0  0  0  0
  4  5  1  0  0  0  0
  5  9  1  0  0  0  0
  6  9  1  0  0  0  0
  7  3  2  0  0  0  0
  8  4  1  0  0  0  0
  8 10  1  0  0  0  0
  9  7  2  0  0  0  0
 10  6  1  0  0  0  0
 12 13  2  0  0  0  0
 13 11  1  1  0  0  0
 13  8  1  0  0  0  0
 15 16  1  0  0  0  0
 15 17  1  1  0  0  0
 16 20  1  0  0  0  0
 18 14  1  6  0  0  0
 18 15  1  0  0  0  0
 18 16  1  0  0  0  0
 19 21  1  0  0  0  0
 20 22  2  0  0  0  0
 20 24  1  0  0  0  0
 22 25  1  0  0  0  0
 24 19  2  0  0  0  0
 25 23  1  0  0  0  0
 25 21  2  0  0  0  0
 27 26  2  0  0  0  0
 27  1  1  0  0  0  0
 28 31  1  0  0  0  0
 29 30  1  0  0  0  0
 30 31  1  0  0  0  0
 30 33  1  1  0  0  0
 31 27  1  6  0  0  0
 32 29  1  0  0  0  0
 32 28  1  0  0  0  0
 34 40  2  0  0  0  0
 34 37  1  0  0  0  0
 35 33  1  6  0  0  0
 35 34  1  0  0  0  0
 38 39  1  0  0  0  0
 39 36  2  0  0  0  0
 39 40  1  0  0  0  0
 40 44  1  0  0  0  0
 41 38  1  0  0  0  0
 41 35  1  0  0  0  0
 42 43  1  0  0  0  0
 43 38  1  0  0  0  0
 44 45  1  0  0  0  0
 45 46  1  0  0  0  0
 46 49  1  0  0  0  0
 48 49  1  0  0  0  0
 49 47  1  0  0  0  0
 50 49  1  0  0  0  0
M  END
>  <MODEL>
6

>  <REMARK>
 VINA RESULT:      -6.9      2.987      8.113
  Name = 
  14 active torsions:
  status: ('A' for Active; 'I' for Inactive)
    1  A    between atoms: C_6  and  C_47
    2  A    between atoms: C_8  and  N_34
    3  A    between atoms: C_8  and  C_46
    4  A    between atoms: N_13  and  C_19
    5  A    between atoms: C_14  and  C_22
    6  A    between atoms: C_14  and  C_50
    7  A    between atoms: N_16  and  C_17
    8  A    between atoms: N_16  and  C_22
    9  A    between atoms: C_29  and  C_47
   10  A    between atoms: S_32  and  N_42
   11  A    between atoms: N_33  and  C_40
   12  A    between atoms: N_34  and  C_39
   13  A    between atoms: C_35  and  C_46
   14  A    between atoms: C_36  and  C_50
                            x       y       z     vdW  Elec       q    Type
                         _______ _______ _______ _____ _____    ______ ____

>  <TORSDO>
F 14

$$$$
=
 OpenBabel11062419213D

 50 54  0  0  1  0  0  0  0  0999 V2000
  189.4350  174.1920  141.5170 C   0  0  1  0  0  3  0  0  0  0  0  0
  188.0430  174.1680  141.6350 O   0  0  0  0  0  1  0  0  0  0  0  0
  189.9880  175.3400  142.2950 C   0  0  0  0  0  0  0  0  0  0  0  0
  194.5840  176.2050  143.8620 C   0  0  0  0  0  2  0  0  0  0  0  0
  193.1430  175.7200  143.9790 C   0  0  0  0  0  2  0  0  0  0  0  0
  193.4190  175.2610  141.5280 O   0  0  0  0  0  0  0  0  0  0  0  0
  191.2810  175.4150  142.4580 C   0  0  0  0  0  0  0  0  0  0  0  0
  195.3310  175.3550  142.9320 N   0  0  0  0  0  0  0  0  0  0  0  0
  192.5710  175.4810  142.6170 C   0  0  0  0  0  0  0  0  0  0  0  0
  194.8030  175.6010  141.5910 C   0  0  0  0  0  2  0  0  0  0  0  0
  197.6470  175.3300  141.3280 C   0  0  0  0  0  1  0  0  0  0  0  0
  197.7100  174.9600  143.9250 O   0  0  0  0  0  0  0  0  0  0  0  0
  197.0110  175.8740  142.9230 S   0  0  2  0  0  0  0  0  0  0  0  0
  189.1120  176.1680  143.0680 N   0  0  0  0  0  2  0  0  0  0  0  0
  189.5970  177.2610  145.0410 C   0  0  1  0  0  3  0  0  0  0  0  0
  188.1080  177.1710  145.0470 N   0  0  0  0  0  0  0  0  0  0  0  0
  190.1090  177.0010  146.4420 C   0  0  0  0  0  1  0  0  0  0  0  0
  189.0280  176.1160  144.5230 C   0  0  1  0  0  3  0  0  0  0  0  0
  184.8520  177.6070  146.8040 C   0  0  0  0  0  3  0  0  0  0  0  0
  186.8170  177.6660  145.3860 C   0  0  0  0  0  0  0  0  0  0  0  0
  184.2830  178.6430  146.0580 C   0  0  0  0  0  3  0  0  0  0  0  0
  186.2500  178.7090  144.6460 C   0  0  0  0  0  3  0  0  0  0  0  0
  184.4300  180.2000  144.2580 F   0  0  0  0  0  0  0  0  0  0  0  0
  186.1200  177.1210  146.4700 C   0  0  0  0  0  3  0  0  0  0  0  0
  184.9830  179.1960  144.9800 C   0  0  0  0  0  0  0  0  0  0  0  0
  189.8280  172.4090  143.0230 O   0  0  0  0  0  0  0  0  0  0  0  0
  190.0470  172.8710  141.9110 C   0  0  0  0  0  0  0  0  0  0  0  0
  191.0750  172.8590  139.7090 N   0  0  0  0  0  2  0  0  0  0  0  0
  190.4870  170.8290  139.1620 N   0  0  0  0  0  2  0  0  0  0  0  0
  190.4510  170.8130  140.6060 C   0  0  2  0  0  3  0  0  0  0  0  0
  190.9810  172.1550  140.9740 C   0  0  2  0  0  3  0  0  0  0  0  0
  190.3570  172.1370  138.7980 O   0  0  0  0  0  0  0  0  0  0  0  0
  191.3550  169.7090  141.1300 C   0  0  0  0  0  2  0  0  0  0  0  0
  193.1230  170.0900  142.8850 C   0  0  0  0  0  0  0  0  0  0  0  0
  192.7480  170.2520  141.4250 C   0  0  1  0  0  3  0  0  0  0  0  0
  196.6620  170.4970  142.5530 O   0  0  0  0  0  0  0  0  0  0  0  0
  192.1090  169.9420  143.8250 O   0  0  0  0  0  1  0  0  0  0  0  0
  195.1130  170.0650  140.8480 N   0  0  0  0  0  0  0  0  0  0  0  0
  195.4700  170.2430  142.2270 C   0  0  0  0  0  0  0  0  0  0  0  0
  194.4220  170.1430  143.2650 C   0  0  0  0  0  0  0  0  0  0  0  0
  193.7810  169.5750  140.5270 C   0  0  0  0  0  2  0  0  0  0  0  0
  195.7510  171.9630  139.4520 C   0  0  0  0  0  1  0  0  0  0  0  0
  195.9870  170.4960  139.7660 C   0  0  0  0  0  2  0  0  0  0  0  0
  194.8410  170.0820  144.6400 N   0  0  0  0  0  2  0  0  0  0  0  0
  194.5870  171.0830  145.6660 C   0  0  0  0  0  2  0  0  0  0  0  0
  195.4040  172.3350  145.3810 C   0  0  0  0  0  2  0  0  0  0  0  0
  196.8210  171.1890  146.8850 F   0  0  0  0  0  0  0  0  0  0  0  0
  197.7260  171.9850  144.9840 F   0  0  0  0  0  0  0  0  0  0  0  0
  196.7980  172.2310  145.9800 C   0  0  0  0  0  0  0  0  0  0  0  0
  197.1230  173.4050  146.6340 F   0  0  0  0  0  0  0  0  0  0  0  0
  1  2  1  1  0  0  0
  1 27  1  0  0  0  0
  1  3  1  0  0  0  0
  3  7  2  0  0  0  0
  3 14  1  0  0  0  0
  4  5  1  0  0  0  0
  6 10  1  0  0  0  0
  6  9  1  0  0  0  0
  7  9  2  0  0  0  0
  8  4  1  0  0  0  0
  9  5  1  0  0  0  0
 10  8  1  0  0  0  0
 13 11  1  6  0  0  0
 13  8  1  0  0  0  0
 13 12  2  0  0  0  0
 15 16  1  0  0  0  0
 15 17  1  1  0  0  0
 16 20  1  0  0  0  0
 18 14  1  6  0  0  0
 18 15  1  0  0  0  0
 18 16  1  0  0  0  0
 20 24  2  0  0  0  0
 21 19  2  0  0  0  0
 22 25  2  0  0  0  0
 22 20  1  0  0  0  0
 23 25  1  0  0  0  0
 24 19  1  0  0  0  0
 25 21  1  0  0  0  0
 27 26  2  0  0  0  0
 28 31  1  0  0  0  0
 29 30  1  0  0  0  0
 30 31  1  0  0  0  0
 30 33  1  1  0  0  0
 31 27  1  1  0  0  0
 32 29  1  0  0  0  0
 32 28  1  0  0  0  0
 34 40  2  0  0  0  0
 34 37  1  0  0  0  0
 35 33  1  1  0  0  0
 35 34  1  0  0  0  0
 38 39  1  0  0  0  0
 39 36  2  0  0  0  0
 39 40  1  0  0  0  0
 40 44  1  0  0  0  0
 41 38  1  0  0  0  0
 41 35  1  0  0  0  0
 42 43  1  0  0  0  0
 43 38  1  0  0  0  0
 44 45  1  0  0  0  0
 46 45  1  0  0  0  0
 46 49  1  0  0  0  0
 48 49  1  0  0  0  0
 49 50  1  0  0  0  0
 49 47  1  0  0  0  0
M  END
>  <MODEL>
7

>  <REMARK>
 VINA RESULT:      -6.8      3.149      5.869
  Name = 
  14 active torsions:
  status: ('A' for Active; 'I' for Inactive)
    1  A    between atoms: C_6  and  C_47
    2  A    between atoms: C_8  and  N_34
    3  A    between atoms: C_8  and  C_46
    4  A    between atoms: N_13  and  C_19
    5  A    between atoms: C_14  and  C_22
    6  A    between atoms: C_14  and  C_50
    7  A    between atoms: N_16  and  C_17
    8  A    between atoms: N_16  and  C_22
    9  A    between atoms: C_29  and  C_47
   10  A    between atoms: S_32  and  N_42
   11  A    between atoms: N_33  and  C_40
   12  A    between atoms: N_34  and  C_39
   13  A    between atoms: C_35  and  C_46
   14  A    between atoms: C_36  and  C_50
                            x       y       z     vdW  Elec       q    Type
                         _______ _______ _______ _____ _____    ______ ____

>  <TORSDO>
F 14

$$$$
=
 OpenBabel11062419213D

 50 54  0  0  1  0  0  0  0  0999 V2000
  191.4210  174.2740  141.7680 C   0  0  1  0  0  3  0  0  0  0  0  0
  191.6660  175.6210  142.0520 O   0  0  0  0  0  1  0  0  0  0  0  0
  189.9920  174.0920  141.3780 C   0  0  0  0  0  0  0  0  0  0  0  0
  185.9650  176.5580  142.8060 C   0  0  0  0  0  2  0  0  0  0  0  0
  186.9840  175.4230  142.8330 C   0  0  0  0  0  2  0  0  0  0  0  0
  188.5580  177.2260  142.0800 O   0  0  0  0  0  0  0  0  0  0  0  0
  189.1210  174.9780  141.7790 C   0  0  0  0  0  0  0  0  0  0  0  0
  186.5830  177.8040  143.2620 N   0  0  0  0  0  0  0  0  0  0  0  0
  188.2590  175.8650  142.1870 C   0  0  0  0  0  0  0  0  0  0  0  0
  187.5460  178.2170  142.2430 C   0  0  0  0  0  2  0  0  0  0  0  0
  185.5370  179.7950  144.9610 C   0  0  0  0  0  1  0  0  0  0  0  0
  184.0250  178.2910  143.4320 O   0  0  0  0  0  0  0  0  0  0  0  0
  185.3450  179.0520  143.3310 S   0  0  2  0  0  0  0  0  0  0  0  0
  189.5540  172.8470  140.8230 N   0  0  0  0  0  2  0  0  0  0  0  0
  189.2850  173.5870  138.6540 C   0  0  1  0  0  3  0  0  0  0  0  0
  189.5460  172.1270  138.4970 N   0  0  0  0  0  0  0  0  0  0  0  0
  188.2100  174.0020  137.6720 C   0  0  0  0  0  1  0  0  0  0  0  0
  188.7560  172.7420  139.6070 C   0  0  1  0  0  3  0  0  0  0  0  0
  190.5880  168.6450  137.6790 C   0  0  0  0  0  3  0  0  0  0  0  0
  190.0620  171.0100  137.7820 C   0  0  0  0  0  0  0  0  0  0  0  0
  191.0700  168.8100  136.3760 C   0  0  0  0  0  3  0  0  0  0  0  0
  190.5360  171.1710  136.4760 C   0  0  0  0  0  3  0  0  0  0  0  0
  191.5100  170.2310  134.5130 F   0  0  0  0  0  0  0  0  0  0  0  0
  190.0810  169.7440  138.3800 C   0  0  0  0  0  3  0  0  0  0  0  0
  191.0420  170.0730  135.7740 C   0  0  0  0  0  0  0  0  0  0  0  0
  192.3160  174.1490  139.5810 O   0  0  0  0  0  0  0  0  0  0  0  0
  192.3820  173.7430  140.7340 C   0  0  0  0  0  0  0  0  0  0  0  0
  193.1930  171.5060  140.2430 N   0  0  0  0  0  2  0  0  0  0  0  0
  193.0350  170.7230  142.2750 N   0  0  0  0  0  2  0  0  0  0  0  0
  193.1280  172.1510  142.4700 C   0  0  2  0  0  3  0  0  0  0  0  0
  193.3690  172.6670  141.0930 C   0  0  2  0  0  3  0  0  0  0  0  0
  192.5810  170.5470  141.0000 O   0  0  0  0  0  0  0  0  0  0  0  0
  194.3000  172.4700  143.3830 C   0  0  0  0  0  2  0  0  0  0  0  0
  193.5030  174.2160  145.0160 C   0  0  0  0  0  0  0  0  0  0  0  0
  194.3030  173.9470  143.7570 C   0  0  1  0  0  3  0  0  0  0  0  0
  194.8530  177.4350  145.8030 O   0  0  0  0  0  0  0  0  0  0  0  0
  192.5340  173.2970  145.4040 O   0  0  0  0  0  1  0  0  0  0  0  0
  195.7280  175.8500  144.3140 N   0  0  0  0  0  0  0  0  0  0  0  0
  194.7790  176.2790  145.3020 C   0  0  0  0  0  0  0  0  0  0  0  0
  193.6990  175.3590  145.7170 C   0  0  0  0  0  0  0  0  0  0  0  0
  195.7360  174.4510  143.9130 C   0  0  0  0  0  2  0  0  0  0  0  0
  197.5450  176.0520  142.6970 C   0  0  0  0  0  1  0  0  0  0  0  0
  196.5770  176.7940  143.6030 C   0  0  0  0  0  2  0  0  0  0  0  0
  192.9170  175.7150  146.8710 N   0  0  0  0  0  2  0  0  0  0  0  0
  191.6380  176.4100  146.8670 C   0  0  0  0  0  2  0  0  0  0  0  0
  190.5150  175.4280  147.1690 C   0  0  0  0  0  2  0  0  0  0  0  0
  188.4210  175.7350  146.1150 F   0  0  0  0  0  0  0  0  0  0  0  0
  190.2630  175.7280  144.8200 F   0  0  0  0  0  0  0  0  0  0  0  0
  189.6660  175.1660  145.9340 C   0  0  0  0  0  0  0  0  0  0  0  0
  189.5170  173.8050  145.7410 F   0  0  0  0  0  0  0  0  0  0  0  0
  1  2  1  6  0  0  0
  3  1  1  0  0  0  0
  3  7  2  0  0  0  0
  4  5  1  0  0  0  0
  4  8  1  0  0  0  0
  6  9  1  0  0  0  0
  6 10  1  0  0  0  0
  7  9  2  0  0  0  0
  8 13  1  0  0  0  0
  9  5  1  0  0  0  0
 10  8  1  0  0  0  0
 13 12  2  0  0  0  0
 13 11  1  1  0  0  0
 14  3  1  0  0  0  0
 15 17  1  6  0  0  0
 15 18  1  0  0  0  0
 16 15  1  0  0  0  0
 16 18  1  0  0  0  0
 18 14  1  1  0  0  0
 19 24  1  0  0  0  0
 20 24  2  0  0  0  0
 20 16  1  0  0  0  0
 21 19  2  0  0  0  0
 22 20  1  0  0  0  0
 23 25  1  0  0  0  0
 25 21  1  0  0  0  0
 25 22  2  0  0  0  0
 26 27  2  0  0  0  0
 27  1  1  0  0  0  0
 28 32  1  0  0  0  0
 28 31  1  0  0  0  0
 29 30  1  0  0  0  0
 30 33  1  1  0  0  0
 31 27  1  6  0  0  0
 31 30  1  0  0  0  0
 32 29  1  0  0  0  0
 34 37  1  0  0  0  0
 34 40  2  0  0  0  0
 35 33  1  1  0  0  0
 35 41  1  0  0  0  0
 35 34  1  0  0  0  0
 38 39  1  0  0  0  0
 39 40  1  0  0  0  0
 39 36  2  0  0  0  0
 40 44  1  0  0  0  0
 41 38  1  0  0  0  0
 42 43  1  0  0  0  0
 43 38  1  0  0  0  0
 45 44  1  0  0  0  0
 45 46  1  0  0  0  0
 48 49  1  0  0  0  0
 49 47  1  0  0  0  0
 49 46  1  0  0  0  0
 50 49  1  0  0  0  0
M  END
>  <MODEL>
8

>  <REMARK>
 VINA RESULT:      -6.8      2.983      7.853
  Name = 
  14 active torsions:
  status: ('A' for Active; 'I' for Inactive)
    1  A    between atoms: C_6  and  C_47
    2  A    between atoms: C_8  and  N_34
    3  A    between atoms: C_8  and  C_46
    4  A    between atoms: N_13  and  C_19
    5  A    between atoms: C_14  and  C_22
    6  A    between atoms: C_14  and  C_50
    7  A    between atoms: N_16  and  C_17
    8  A    between atoms: N_16  and  C_22
    9  A    between atoms: C_29  and  C_47
   10  A    between atoms: S_32  and  N_42
   11  A    between atoms: N_33  and  C_40
   12  A    between atoms: N_34  and  C_39
   13  A    between atoms: C_35  and  C_46
   14  A    between atoms: C_36  and  C_50
                            x       y       z     vdW  Elec       q    Type
                         _______ _______ _______ _____ _____    ______ ____

>  <TORSDO>
F 14

$$$$
=
 OpenBabel11062419213D

 50 54  0  0  1  0  0  0  0  0999 V2000
  194.0540  175.9320  143.7770 C   0  0  1  0  0  3  0  0  0  0  0  0
  194.9950  176.4220  144.6880 O   0  0  0  0  0  1  0  0  0  0  0  0
  194.6320  174.7810  143.0240 C   0  0  0  0  0  0  0  0  0  0  0  0
  196.5940  170.5650  144.6700 C   0  0  0  0  0  2  0  0  0  0  0  0
  196.6140  172.0030  144.1610 C   0  0  0  0  0  2  0  0  0  0  0  0
  194.3830  172.1160  145.3050 O   0  0  0  0  0  0  0  0  0  0  0  0
  194.9520  173.7030  143.6870 C   0  0  0  0  0  0  0  0  0  0  0  0
  195.9840  170.5060  145.9990 N   0  0  0  0  0  0  0  0  0  0  0  0
  195.2710  172.6330  144.3570 C   0  0  0  0  0  0  0  0  0  0  0  0
  194.5620  170.8070  145.8440 C   0  0  0  0  0  2  0  0  0  0  0  0
  194.5680  168.5990  147.5160 C   0  0  0  0  0  1  0  0  0  0  0  0
  197.1700  168.8990  147.6770 O   0  0  0  0  0  0  0  0  0  0  0  0
  196.0950  168.8550  146.5950 S   0  0  2  0  0  0  0  0  0  0  0  0
  195.0780  174.9600  141.6760 N   0  0  0  0  0  2  0  0  0  0  0  0
  194.6850  174.5080  139.4470 C   0  0  1  0  0  3  0  0  0  0  0  0
  193.5240  173.8820  140.1420 N   0  0  0  0  0  0  0  0  0  0  0  0
  194.1980  175.1680  138.1750 C   0  0  0  0  0  1  0  0  0  0  0  0
  194.1750  175.1640  140.5480 C   0  0  1  0  0  3  0  0  0  0  0  0
  190.5900  171.7290  139.3440 C   0  0  0  0  0  3  0  0  0  0  0  0
  192.5140  172.8850  140.2590 C   0  0  0  0  0  0  0  0  0  0  0  0
  190.5320  170.9220  140.4850 C   0  0  0  0  0  3  0  0  0  0  0  0
  192.4610  172.0710  141.3950 C   0  0  0  0  0  3  0  0  0  0  0  0
  191.4130  170.3090  142.6140 F   0  0  0  0  0  0  0  0  0  0  0  0
  191.5820  172.7080  139.2300 C   0  0  0  0  0  3  0  0  0  0  0  0
  191.4700  171.0920  141.5090 C   0  0  0  0  0  0  0  0  0  0  0  0
  191.9560  174.8430  143.9030 O   0  0  0  0  0  0  0  0  0  0  0  0
  192.7520  175.5910  144.4570 C   0  0  0  0  0  0  0  0  0  0  0  0
  192.9100  175.4270  146.8770 N   0  0  0  0  0  2  0  0  0  0  0  0
  190.7730  175.6060  147.2870 N   0  0  0  0  0  2  0  0  0  0  0  0
  190.9200  176.2240  145.9900 C   0  0  2  0  0  3  0  0  0  0  0  0
  192.3940  176.2190  145.7770 C   0  0  2  0  0  3  0  0  0  0  0  0
  191.8450  174.7740  147.4300 O   0  0  0  0  0  0  0  0  0  0  0  0
  190.3820  177.6440  146.0340 C   0  0  0  0  0  2  0  0  0  0  0  0
  189.1700  177.5540  143.8260 C   0  0  0  0  0  0  0  0  0  0  0  0
  189.0350  177.7300  145.3250 C   0  0  1  0  0  3  0  0  0  0  0  0
  185.7540  176.7820  143.0920 O   0  0  0  0  0  0  0  0  0  0  0  0
  190.4020  177.8010  143.2300 O   0  0  0  0  0  1  0  0  0  0  0  0
  186.8000  176.7580  145.1890 N   0  0  0  0  0  0  0  0  0  0  0  0
  186.8170  176.9030  143.7620 C   0  0  0  0  0  0  0  0  0  0  0  0
  188.0920  177.2130  143.0800 C   0  0  0  0  0  0  0  0  0  0  0  0
  188.0670  176.7000  145.9020 C   0  0  0  0  0  2  0  0  0  0  0  0
  185.8520  177.1660  147.4010 C   0  0  0  0  0  1  0  0  0  0  0  0
  185.5620  176.8130  145.9530 C   0  0  0  0  0  2  0  0  0  0  0  0
  188.1300  177.1120  141.6460 N   0  0  0  0  0  2  0  0  0  0  0  0
  187.8170  175.9310  140.8530 C   0  0  0  0  0  2  0  0  0  0  0  0
  188.8460  174.8420  141.1200 C   0  0  0  0  0  2  0  0  0  0  0  0
  187.0430  174.0020  142.3960 F   0  0  0  0  0  0  0  0  0  0  0  0
  187.8870  172.6890  140.7740 F   0  0  0  0  0  0  0  0  0  0  0  0
  188.2010  173.6180  141.7500 C   0  0  0  0  0  0  0  0  0  0  0  0
  189.0620  173.0470  142.6700 F   0  0  0  0  0  0  0  0  0  0  0  0
  1 27  1  0  0  0  0
  1  2  1  1  0  0  0
  3  7  2  0  0  0  0
  3  1  1  0  0  0  0
  4  8  1  0  0  0  0
  5  9  1  0  0  0  0
  5  4  1  0  0  0  0
  6 10  1  0  0  0  0
  7  9  2  0  0  0  0
  8 13  1  0  0  0  0
  9  6  1  0  0  0  0
 10  8  1  0  0  0  0
 13 11  1  1  0  0  0
 13 12  2  0  0  0  0
 14  3  1  0  0  0  0
 15 17  1  6  0  0  0
 15 16  1  0  0  0  0
 15 18  1  0  0  0  0
 16 20  1  0  0  0  0
 16 18  1  0  0  0  0
 18 14  1  1  0  0  0
 19 21  1  0  0  0  0
 20 22  2  0  0  0  0
 21 25  2  0  0  0  0
 22 25  1  0  0  0  0
 24 19  2  0  0  0  0
 24 20  1  0  0  0  0
 25 23  1  0  0  0  0
 26 27  2  0  0  0  0
 28 32  1  0  0  0  0
 29 32  1  0  0  0  0
 30 33  1  1  0  0  0
 30 29  1  0  0  0  0
 31 27  1  6  0  0  0
 31 30  1  0  0  0  0
 31 28  1  0  0  0  0
 34 35  1  0  0  0  0
 35 41  1  0  0  0  0
 35 33  1  1  0  0  0
 36 39  2  0  0  0  0
 37 34  1  0  0  0  0
 38 41  1  0  0  0  0
 38 43  1  0  0  0  0
 39 38  1  0  0  0  0
 40 39  1  0  0  0  0
 40 34  2  0  0  0  0
 43 42  1  0  0  0  0
 44 40  1  0  0  0  0
 45 46  1  0  0  0  0
 45 44  1  0  0  0  0
 46 49  1  0  0  0  0
 48 49  1  0  0  0  0
 49 47  1  0  0  0  0
 49 50  1  0  0  0  0
M  END
>  <MODEL>
9

>  <REMARK>
 VINA RESULT:      -6.8      3.095      7.662
  Name = 
  14 active torsions:
  status: ('A' for Active; 'I' for Inactive)
    1  A    between atoms: C_6  and  C_47
    2  A    between atoms: C_8  and  N_34
    3  A    between atoms: C_8  and  C_46
    4  A    between atoms: N_13  and  C_19
    5  A    between atoms: C_14  and  C_22
    6  A    between atoms: C_14  and  C_50
    7  A    between atoms: N_16  and  C_17
    8  A    between atoms: N_16  and  C_22
    9  A    between atoms: C_29  and  C_47
   10  A    between atoms: S_32  and  N_42
   11  A    between atoms: N_33  and  C_40
   12  A    between atoms: N_34  and  C_39
   13  A    between atoms: C_35  and  C_46
   14  A    between atoms: C_36  and  C_50
                            x       y       z     vdW  Elec       q    Type
                         _______ _______ _______ _____ _____    ______ ____

>  <TORSDO>
F 14

$$$$
