=
 OpenBabel11062421433D

 41 43  0  0  1  0  0  0  0  0999 V2000
  192.6640  175.6580  144.1710 C   0  0  1  0  0  3  0  0  0  0  0  0
  192.4000  175.2590  142.7850 N   0  0  0  0  0  2  0  0  0  0  0  0
  191.3120  171.7080  140.3040 N   0  0  0  0  0  2  0  0  0  0  0  0
  191.7930  173.0820  142.1360 O   0  0  0  0  0  0  0  0  0  0  0  0
  190.2110  174.7970  141.7900 C   0  0  0  0  0  2  0  0  0  0  0  0
  189.9880  173.7230  140.7250 C   0  0  1  0  0  3  0  0  0  0  0  0
  191.3190  174.2820  142.7210 C   0  0  2  0  0  3  0  0  0  0  0  0
  191.0600  172.7510  141.0220 C   0  0  0  0  0  0  0  0  0  0  0  0
  187.9800  172.5260  139.8140 O   0  0  0  0  0  0  0  0  0  0  0  0
  188.0960  173.0940  142.0300 O   0  0  0  0  0  1  0  0  0  0  0  0
  188.6390  173.0990  140.8960 C   0  0  0  0  0  0  0  0  0  0  0  0
  192.0510  174.6720  145.1900 C   0  0  2  0  0  3  0  0  0  0  0  0
  191.6360  175.3370  147.5910 C   0  0  0  0  0  1  0  0  0  0  0  0
  189.7530  174.5570  146.1880 C   0  0  0  0  0  1  0  0  0  0  0  0
  191.0620  175.3380  146.1790 C   0  0  0  0  0  0  0  0  0  0  0  0
  190.7780  176.7760  145.7170 C   0  0  0  0  0  2  0  0  0  0  0  0
  189.4130  177.3110  146.1540 C   0  0  0  0  0  2  0  0  0  0  0  0
  186.2620  177.5610  140.8590 C   0  0  2  0  0  3  0  0  0  0  0  0
  186.6610  177.8290  143.6620 C   0  0  0  0  0  0  0  0  0  0  0  0
  186.2680  177.9040  139.5210 F   0  0  0  0  0  0  0  0  0  0  0  0
  185.3670  178.5270  141.6360 C   0  0  0  0  0  2  0  0  0  0  0  0
  188.8790  177.3170  143.7270 C   0  0  0  0  0  3  0  0  0  0  0  0
  187.6930  177.5960  141.4030 C   0  0  0  0  0  2  0  0  0  0  0  0
  188.4930  177.4660  144.9890 C   0  0  0  0  0  0  0  0  0  0  0  0
  185.2920  178.1170  143.1110 C   0  0  0  0  0  2  0  0  0  0  0  0
  187.7040  177.5270  142.9020 C   0  0  0  0  0  0  0  0  0  0  0  0
  187.0290  177.7720  145.1080 C   0  0  2  0  0  3  0  0  0  0  0  0
  185.2110  177.1590  146.7000 C   0  0  0  0  0  1  0  0  0  0  0  0
  186.3130  176.6240  145.8070 C   0  0  0  0  0  2  0  0  0  0  0  0
  193.2590  172.5980  145.1710 O   0  0  0  0  0  1  0  0  0  0  0  0
  193.1120  173.7970  145.8670 C   0  0  0  0  0  2  0  0  0  0  0  0
  194.4240  176.0840  144.4680 S   0  0  0  0  0  0  0  0  0  0  0  0
  194.9530  175.4770  142.8380 C   0  0  0  0  0  2  0  0  0  0  0  0
  195.2510  173.3510  141.8080 O   0  0  0  0  0  1  0  0  0  0  0  0
  195.5410  174.0830  142.9600 C   0  0  1  0  0  3  0  0  0  0  0  0
  197.7470  174.6990  142.2870 O   0  0  0  0  0  0  0  0  0  0  0  0
  197.0240  174.1500  143.1590 C   0  0  0  0  0  0  0  0  0  0  0  0
  197.6330  173.6210  144.3390 N   0  0  0  0  0  2  0  0  0  0  0  0
  197.1010  173.6000  146.6020 O   0  0  0  0  0  1  0  0  0  0  0  0
  197.3090  171.6230  145.4950 O   0  0  0  0  0  1  0  0  0  0  0  0
  196.8850  172.9480  145.3890 C   0  0  0  0  0  3  0  0  0  0  0  0
  1  2  1  6  0  0  0
  1 32  1  0  0  0  0
  1 12  1  0  0  0  0
  3  8  2  0  0  0  0
  4  7  1  0  0  0  0
  5  7  1  0  0  0  0
  6 11  1  1  0  0  0
  6  8  1  0  0  0  0
  6  5  1  0  0  0  0
  7  2  1  6  0  0  0
  8  4  1  0  0  0  0
  9 11  2  0  0  0  0
 11 10  1  0  0  0  0
 12 31  1  1  0  0  0
 12 15  1  0  0  0  0
 15 14  1  0  0  0  0
 15 13  1  0  0  0  0
 16 17  1  0  0  0  0
 16 15  1  0  0  0  0
 18 20  1  6  0  0  0
 18 23  1  0  0  0  0
 18 21  1  0  0  0  0
 19 27  1  0  0  0  0
 21 25  1  0  0  0  0
 22 24  2  0  0  0  0
 23 26  1  0  0  0  0
 24 27  1  0  0  0  0
 24 17  1  0  0  0  0
 25 19  1  0  0  0  0
 26 19  2  0  0  0  0
 26 22  1  0  0  0  0
 27 29  1  1  0  0  0
 29 28  1  0  0  0  0
 30 31  1  0  0  0  0
 33 35  1  0  0  0  0
 33 32  1  0  0  0  0
 35 34  1  6  0  0  0
 35 37  1  0  0  0  0
 36 37  2  0  0  0  0
 37 38  1  0  0  0  0
 38 41  1  0  0  0  0
 41 40  1  0  0  0  0
 41 39  1  0  0  0  0
M  END
>  <MODEL>
1

>  <REMARK>
 VINA RESULT:      -6.7      0.000      0.000
  Name = 
  15 active torsions:
  status: ('A' for Active; 'I' for Inactive)
    1  A    between atoms: N_5  and  C_9
    2  A    between atoms: N_5  and  C_26
    3  A    between atoms: C_9  and  C_10
    4  A    between atoms: C_9  and  S_33
    5  A    between atoms: C_10  and  C_27
    6  A    between atoms: C_10  and  C_35
    7  A    between atoms: C_12  and  C_22
    8  A    between atoms: C_23  and  C_35
    9  A    between atoms: C_23  and  C_41
   10  A    between atoms: C_28  and  C_29
   11  A    between atoms: C_28  and  S_33
   12  A    between atoms: C_29  and  C_32
   13  A    between atoms: C_31  and  C_41
   14  A    between atoms: N_34  and  C_39
   15  A    between atoms: C_38  and  C_40
                            x       y       z     vdW  Elec       q    Type
                         _______ _______ _______ _____ _____    ______ ____

>  <TORSDO>
F 15

$$$$
=
 OpenBabel11062421433D

 41 43  0  0  1  0  0  0  0  0999 V2000
  191.5620  173.9290  144.3010 C   0  0  1  0  0  3  0  0  0  0  0  0
  190.1870  173.4230  144.3440 N   0  0  0  0  0  2  0  0  0  0  0  0
  191.5990  173.7460  140.1200 N   0  0  0  0  0  2  0  0  0  0  0  0
  190.8810  172.8700  142.1680 O   0  0  0  0  0  0  0  0  0  0  0  0
  188.8200  173.9950  142.3960 C   0  0  0  0  0  2  0  0  0  0  0  0
  189.4160  174.3670  141.0370 C   0  0  1  0  0  3  0  0  0  0  0  0
  189.7600  172.9590  143.0290 C   0  0  2  0  0  3  0  0  0  0  0  0
  190.7060  173.6470  141.0470 C   0  0  0  0  0  0  0  0  0  0  0  0
  188.1020  172.5500  139.9130 O   0  0  0  0  0  1  0  0  0  0  0  0
  188.1860  174.6570  139.0180 O   0  0  0  0  0  0  0  0  0  0  0  0
  188.5360  173.8710  139.9340 C   0  0  0  0  0  0  0  0  0  0  0  0
  191.7370  175.2220  145.1270 C   0  0  2  0  0  3  0  0  0  0  0  0
  192.4150  176.0410  142.8370 C   0  0  0  0  0  1  0  0  0  0  0  0
  193.3870  177.0920  144.8540 C   0  0  0  0  0  1  0  0  0  0  0  0
  192.1290  176.4550  144.2750 C   0  0  0  0  0  0  0  0  0  0  0  0
  190.9870  177.4830  144.3200 C   0  0  0  0  0  2  0  0  0  0  0  0
  190.0280  177.4010  143.1310 C   0  0  0  0  0  2  0  0  0  0  0  0
  184.0300  178.5620  143.9710 C   0  0  2  0  0  3  0  0  0  0  0  0
  186.7020  177.9850  144.7580 C   0  0  0  0  0  0  0  0  0  0  0  0
  182.9320  179.3160  143.6050 F   0  0  0  0  0  0  0  0  0  0  0  0
  184.4790  178.9540  145.3790 C   0  0  0  0  0  2  0  0  0  0  0  0
  187.6740  178.0680  142.7000 C   0  0  0  0  0  3  0  0  0  0  0  0
  185.1630  178.7830  142.9640 C   0  0  0  0  0  2  0  0  0  0  0  0
  188.6240  177.6890  143.5470 C   0  0  0  0  0  0  0  0  0  0  0  0
  185.6520  178.0760  145.8300 C   0  0  0  0  0  2  0  0  0  0  0  0
  186.4590  178.2290  143.4780 C   0  0  0  0  0  0  0  0  0  0  0  0
  188.1170  177.5520  144.9510 C   0  0  2  0  0  3  0  0  0  0  0  0
  188.5000  176.0040  146.8690 C   0  0  0  0  0  1  0  0  0  0  0  0
  188.1860  176.0940  145.3890 C   0  0  0  0  0  2  0  0  0  0  0  0
  191.8790  175.2110  147.5230 O   0  0  0  0  0  1  0  0  0  0  0  0
  192.6220  175.0120  146.3600 C   0  0  0  0  0  2  0  0  0  0  0  0
  192.8130  172.6270  144.6280 S   0  0  0  0  0  0  0  0  0  0  0  0
  193.9350  173.2360  143.3340 C   0  0  0  0  0  2  0  0  0  0  0  0
  195.5020  173.1430  145.1240 O   0  0  0  0  0  1  0  0  0  0  0  0
  195.1810  173.8400  143.9590 C   0  0  1  0  0  3  0  0  0  0  0  0
  196.9050  172.6900  142.7730 O   0  0  0  0  0  0  0  0  0  0  0  0
  196.3310  173.7870  143.0020 C   0  0  0  0  0  0  0  0  0  0  0  0
  196.7760  174.9630  142.3210 N   0  0  0  0  0  2  0  0  0  0  0  0
  196.0080  176.9090  141.3080 O   0  0  0  0  0  1  0  0  0  0  0  0
  197.0480  177.0470  143.3270 O   0  0  0  0  0  1  0  0  0  0  0  0
  196.1930  176.2780  142.5370 C   0  0  0  0  0  3  0  0  0  0  0  0
  1  2  1  1  0  0  0
  1 32  1  0  0  0  0
  1 12  1  0  0  0  0
  3  8  2  0  0  0  0
  4  7  1  0  0  0  0
  5  7  1  0  0  0  0
  6 11  1  6  0  0  0
  6  8  1  0  0  0  0
  6  5  1  0  0  0  0
  7  2  1  1  0  0  0
  8  4  1  0  0  0  0
  9 11  1  0  0  0  0
 10 11  2  0  0  0  0
 12 31  1  1  0  0  0
 13 15  1  0  0  0  0
 15 16  1  0  0  0  0
 15 14  1  0  0  0  0
 15 12  1  0  0  0  0
 17 24  1  0  0  0  0
 17 16  1  0  0  0  0
 18 20  1  6  0  0  0
 18 21  1  0  0  0  0
 19 27  1  0  0  0  0
 19 25  1  0  0  0  0
 21 25  1  0  0  0  0
 22 26  1  0  0  0  0
 22 24  2  0  0  0  0
 23 26  1  0  0  0  0
 23 18  1  0  0  0  0
 24 27  1  0  0  0  0
 26 19  2  0  0  0  0
 27 29  1  6  0  0  0
 29 28  1  0  0  0  0
 31 30  1  0  0  0  0
 33 35  1  0  0  0  0
 33 32  1  0  0  0  0
 35 34  1  1  0  0  0
 36 37  2  0  0  0  0
 37 35  1  0  0  0  0
 38 41  1  0  0  0  0
 38 37  1  0  0  0  0
 39 41  1  0  0  0  0
 41 40  1  0  0  0  0
M  END
>  <MODEL>
2

>  <REMARK>
 VINA RESULT:      -6.6      1.974      2.987
  Name = 
  15 active torsions:
  status: ('A' for Active; 'I' for Inactive)
    1  A    between atoms: N_5  and  C_9
    2  A    between atoms: N_5  and  C_26
    3  A    between atoms: C_9  and  C_10
    4  A    between atoms: C_9  and  S_33
    5  A    between atoms: C_10  and  C_27
    6  A    between atoms: C_10  and  C_35
    7  A    between atoms: C_12  and  C_22
    8  A    between atoms: C_23  and  C_35
    9  A    between atoms: C_23  and  C_41
   10  A    between atoms: C_28  and  C_29
   11  A    between atoms: C_28  and  S_33
   12  A    between atoms: C_29  and  C_32
   13  A    between atoms: C_31  and  C_41
   14  A    between atoms: N_34  and  C_39
   15  A    between atoms: C_38  and  C_40
                            x       y       z     vdW  Elec       q    Type
                         _______ _______ _______ _____ _____    ______ ____

>  <TORSDO>
F 15

$$$$
=
 OpenBabel11062421433D

 41 43  0  0  1  0  0  0  0  0999 V2000
  193.7360  174.6790  143.5390 C   0  0  1  0  0  3  0  0  0  0  0  0
  193.4410  173.6390  142.5480 N   0  0  0  0  0  2  0  0  0  0  0  0
  190.6260  171.3320  139.9590 N   0  0  0  0  0  2  0  0  0  0  0  0
  191.7880  172.1310  141.8270 O   0  0  0  0  0  0  0  0  0  0  0  0
  191.3030  174.4330  141.6590 C   0  0  0  0  0  2  0  0  0  0  0  0
  190.5350  173.7040  140.5550 C   0  0  1  0  0  3  0  0  0  0  0  0
  192.0100  173.3590  142.4970 C   0  0  2  0  0  3  0  0  0  0  0  0
  190.9630  172.3030  140.7410 C   0  0  0  0  0  0  0  0  0  0  0  0
  188.3030  174.6830  139.9590 O   0  0  0  0  0  0  0  0  0  0  0  0
  188.5050  173.2050  141.6980 O   0  0  0  0  0  1  0  0  0  0  0  0
  189.0620  173.8470  140.7720 C   0  0  0  0  0  0  0  0  0  0  0  0
  193.0930  174.3780  144.9120 C   0  0  2  0  0  3  0  0  0  0  0  0
  192.2850  176.7470  144.5740 C   0  0  0  0  0  1  0  0  0  0  0  0
  193.3780  176.1130  146.7020 C   0  0  0  0  0  1  0  0  0  0  0  0
  192.4620  175.6210  145.5870 C   0  0  0  0  0  0  0  0  0  0  0  0
  191.1050  175.2300  146.1950 C   0  0  0  0  0  2  0  0  0  0  0  0
  190.0150  174.9550  145.1590 C   0  0  0  0  0  2  0  0  0  0  0  0
  185.2430  178.3610  147.0740 C   0  0  2  0  0  3  0  0  0  0  0  0
  186.9680  177.1400  145.1710 C   0  0  0  0  0  0  0  0  0  0  0  0
  184.1910  178.4880  147.9590 F   0  0  0  0  0  0  0  0  0  0  0  0
  184.7060  178.0890  145.6680 C   0  0  0  0  0  2  0  0  0  0  0  0
  188.2840  175.9760  146.6210 C   0  0  0  0  0  3  0  0  0  0  0  0
  186.1610  177.2220  147.5300 C   0  0  0  0  0  2  0  0  0  0  0  0
  188.8030  175.7880  145.4130 C   0  0  0  0  0  0  0  0  0  0  0  0
  185.8590  178.0160  144.6610 C   0  0  0  0  0  2  0  0  0  0  0  0
  187.1380  176.8510  146.4530 C   0  0  0  0  0  0  0  0  0  0  0  0
  188.0560  176.5330  144.3470 C   0  0  2  0  0  3  0  0  0  0  0  0
  189.1180  177.3800  142.2550 C   0  0  0  0  0  1  0  0  0  0  0  0
  188.9470  177.6110  143.7440 C   0  0  0  0  0  2  0  0  0  0  0  0
  193.7950  172.2120  145.6710 O   0  0  0  0  0  1  0  0  0  0  0  0
  194.0240  173.5780  145.8300 C   0  0  0  0  0  2  0  0  0  0  0  0
  195.5140  175.1250  143.5990 S   0  0  0  0  0  0  0  0  0  0  0  0
  195.8070  174.6070  141.8810 C   0  0  0  0  0  2  0  0  0  0  0  0
  196.4640  176.8690  141.5340 O   0  0  0  0  0  1  0  0  0  0  0  0
  195.7650  175.8090  140.9540 C   0  0  1  0  0  3  0  0  0  0  0  0
  197.6120  175.5440  139.4640 O   0  0  0  0  0  0  0  0  0  0  0  0
  196.3650  175.4720  139.6240 C   0  0  0  0  0  0  0  0  0  0  0  0
  195.5440  175.0460  138.5340 N   0  0  0  0  0  2  0  0  0  0  0  0
  193.7230  173.6230  138.7880 O   0  0  0  0  0  1  0  0  0  0  0  0
  193.5270  175.4450  137.4380 O   0  0  0  0  0  1  0  0  0  0  0  0
  194.0950  174.9560  138.6150 C   0  0  0  0  0  3  0  0  0  0  0  0
  1  2  1  6  0  0  0
  1 32  1  0  0  0  0
  1 12  1  0  0  0  0
  3  8  2  0  0  0  0
  4  7  1  0  0  0  0
  5  7  1  0  0  0  0
  6  8  1  0  0  0  0
  6 11  1  1  0  0  0
  6  5  1  0  0  0  0
  7  2  1  6  0  0  0
  8  4  1  0  0  0  0
  9 11  2  0  0  0  0
 11 10  1  0  0  0  0
 12 15  1  0  0  0  0
 12 31  1  1  0  0  0
 13 15  1  0  0  0  0
 15 16  1  0  0  0  0
 15 14  1  0  0  0  0
 17 24  1  0  0  0  0
 17 16  1  0  0  0  0
 18 23  1  0  0  0  0
 18 20  1  1  0  0  0
 19 26  2  0  0  0  0
 21 18  1  0  0  0  0
 24 22  2  0  0  0  0
 25 19  1  0  0  0  0
 25 21  1  0  0  0  0
 26 22  1  0  0  0  0
 26 23  1  0  0  0  0
 27 29  1  1  0  0  0
 27 19  1  0  0  0  0
 27 24  1  0  0  0  0
 28 29  1  0  0  0  0
 30 31  1  0  0  0  0
 33 32  1  0  0  0  0
 35 34  1  1  0  0  0
 35 33  1  0  0  0  0
 36 37  2  0  0  0  0
 37 35  1  0  0  0  0
 38 41  1  0  0  0  0
 38 37  1  0  0  0  0
 40 41  1  0  0  0  0
 41 39  1  0  0  0  0
M  END
>  <MODEL>
3

>  <REMARK>
 VINA RESULT:      -6.5      2.440      3.917
  Name = 
  15 active torsions:
  status: ('A' for Active; 'I' for Inactive)
    1  A    between atoms: N_5  and  C_9
    2  A    between atoms: N_5  and  C_26
    3  A    between atoms: C_9  and  C_10
    4  A    between atoms: C_9  and  S_33
    5  A    between atoms: C_10  and  C_27
    6  A    between atoms: C_10  and  C_35
    7  A    between atoms: C_12  and  C_22
    8  A    between atoms: C_23  and  C_35
    9  A    between atoms: C_23  and  C_41
   10  A    between atoms: C_28  and  C_29
   11  A    between atoms: C_28  and  S_33
   12  A    between atoms: C_29  and  C_32
   13  A    between atoms: C_31  and  C_41
   14  A    between atoms: N_34  and  C_39
   15  A    between atoms: C_38  and  C_40
                            x       y       z     vdW  Elec       q    Type
                         _______ _______ _______ _____ _____    ______ ____

>  <TORSDO>
F 15

$$$$
=
 OpenBabel11062421433D

 41 43  0  0  1  0  0  0  0  0999 V2000
  192.0250  175.3790  144.6670 C   0  0  1  0  0  3  0  0  0  0  0  0
  192.0880  173.9410  144.3880 N   0  0  0  0  0  2  0  0  0  0  0  0
  191.0830  172.3300  140.3460 N   0  0  0  0  0  2  0  0  0  0  0  0
  191.2630  172.5690  142.6670 O   0  0  0  0  0  0  0  0  0  0  0  0
  190.2590  174.6860  142.9420 C   0  0  0  0  0  2  0  0  0  0  0  0
  190.1490  174.2960  141.4670 C   0  0  1  0  0  3  0  0  0  0  0  0
  190.8970  173.4960  143.6730 C   0  0  2  0  0  3  0  0  0  0  0  0
  190.8500  172.9960  141.4270 C   0  0  0  0  0  0  0  0  0  0  0  0
  187.7630  173.7570  142.0230 O   0  0  0  0  0  1  0  0  0  0  0  0
  188.3610  174.3550  139.8930 O   0  0  0  0  0  0  0  0  0  0  0  0
  188.7120  174.1390  141.0810 C   0  0  0  0  0  0  0  0  0  0  0  0
  192.2250  175.6940  146.1660 C   0  0  2  0  0  3  0  0  0  0  0  0
  191.2560  176.7290  148.2560 C   0  0  0  0  0  1  0  0  0  0  0  0
  190.0000  174.9620  147.0640 C   0  0  0  0  0  1  0  0  0  0  0  0
  190.9310  176.1550  146.8820 C   0  0  0  0  0  0  0  0  0  0  0  0
  190.2220  177.2080  146.0150 C   0  0  0  0  0  2  0  0  0  0  0  0
  188.7280  177.3530  146.3090 C   0  0  0  0  0  2  0  0  0  0  0  0
  186.1580  177.6190  140.7090 C   0  0  2  0  0  3  0  0  0  0  0  0
  186.2770  177.9370  143.5330 C   0  0  0  0  0  0  0  0  0  0  0  0
  186.3190  177.9290  139.3730 F   0  0  0  0  0  0  0  0  0  0  0  0
  185.2360  178.6450  141.3690 C   0  0  0  0  0  2  0  0  0  0  0  0
  188.4490  177.3240  143.8390 C   0  0  0  0  0  3  0  0  0  0  0  0
  187.5260  177.6010  141.3990 C   0  0  0  0  0  2  0  0  0  0  0  0
  187.9420  177.5220  145.0510 C   0  0  0  0  0  0  0  0  0  0  0  0
  184.9890  178.2750  142.8360 C   0  0  0  0  0  2  0  0  0  0  0  0
  187.3770  177.5690  142.8920 C   0  0  0  0  0  0  0  0  0  0  0  0
  186.4910  177.8990  145.0100 C   0  0  2  0  0  3  0  0  0  0  0  0
  184.9240  177.3440  146.8690 C   0  0  0  0  0  1  0  0  0  0  0  0
  185.6510  176.8030  145.6530 C   0  0  0  0  0  2  0  0  0  0  0  0
  194.5350  175.8460  146.7980 O   0  0  0  0  0  1  0  0  0  0  0  0
  193.4310  176.6060  146.4150 C   0  0  0  0  0  2  0  0  0  0  0  0
  193.0560  176.3750  143.5230 S   0  0  0  0  0  0  0  0  0  0  0  0
  194.3540  175.1050  143.4250 C   0  0  0  0  0  2  0  0  0  0  0  0
  194.0170  175.5230  141.1050 O   0  0  0  0  0  1  0  0  0  0  0  0
  194.9600  175.0780  142.0330 C   0  0  1  0  0  3  0  0  0  0  0  0
  196.3890  176.7970  142.8730 O   0  0  0  0  0  0  0  0  0  0  0  0
  196.1810  175.9430  141.9710 C   0  0  0  0  0  0  0  0  0  0  0  0
  197.1310  175.8010  140.9120 N   0  0  0  0  0  2  0  0  0  0  0  0
  197.9090  173.8420  139.9320 O   0  0  0  0  0  1  0  0  0  0  0  0
  197.1480  175.5220  138.5990 O   0  0  0  0  0  1  0  0  0  0  0  0
  196.9660  174.8620  139.8140 C   0  0  0  0  0  3  0  0  0  0  0  0
  1 32  1  6  0  0  0
  1 12  1  0  0  0  0
  2  1  1  0  0  0  0
  3  8  2  0  0  0  0
  4  7  1  0  0  0  0
  5  7  1  0  0  0  0
  6 11  1  1  0  0  0
  6  5  1  0  0  0  0
  7  2  1  6  0  0  0
  8  6  1  0  0  0  0
  8  4  1  0  0  0  0
 10 11  2  0  0  0  0
 11  9  1  0  0  0  0
 12 31  1  6  0  0  0
 12 15  1  0  0  0  0
 15 14  1  0  0  0  0
 15 13  1  0  0  0  0
 16 17  1  0  0  0  0
 16 15  1  0  0  0  0
 18 20  1  6  0  0  0
 18 21  1  0  0  0  0
 18 23  1  0  0  0  0
 19 27  1  0  0  0  0
 21 25  1  0  0  0  0
 22 24  2  0  0  0  0
 23 26  1  0  0  0  0
 24 17  1  0  0  0  0
 25 19  1  0  0  0  0
 26 19  2  0  0  0  0
 26 22  1  0  0  0  0
 27 24  1  0  0  0  0
 27 29  1  1  0  0  0
 29 28  1  0  0  0  0
 31 30  1  0  0  0  0
 33 32  1  0  0  0  0
 35 34  1  6  0  0  0
 35 33  1  0  0  0  0
 37 35  1  0  0  0  0
 37 36  2  0  0  0  0
 38 37  1  0  0  0  0
 40 41  1  0  0  0  0
 41 39  1  0  0  0  0
 41 38  1  0  0  0  0
M  END
>  <MODEL>
4

>  <REMARK>
 VINA RESULT:      -6.4      1.793      2.427
  Name = 
  15 active torsions:
  status: ('A' for Active; 'I' for Inactive)
    1  A    between atoms: N_5  and  C_9
    2  A    between atoms: N_5  and  C_26
    3  A    between atoms: C_9  and  C_10
    4  A    between atoms: C_9  and  S_33
    5  A    between atoms: C_10  and  C_27
    6  A    between atoms: C_10  and  C_35
    7  A    between atoms: C_12  and  C_22
    8  A    between atoms: C_23  and  C_35
    9  A    between atoms: C_23  and  C_41
   10  A    between atoms: C_28  and  C_29
   11  A    between atoms: C_28  and  S_33
   12  A    between atoms: C_29  and  C_32
   13  A    between atoms: C_31  and  C_41
   14  A    between atoms: N_34  and  C_39
   15  A    between atoms: C_38  and  C_40
                            x       y       z     vdW  Elec       q    Type
                         _______ _______ _______ _____ _____    ______ ____

>  <TORSDO>
F 15

$$$$
=
 OpenBabel11062421433D

 41 43  0  0  1  0  0  0  0  0999 V2000
  192.0940  173.1020  143.8530 C   0  0  1  0  0  3  0  0  0  0  0  0
  191.0230  172.1590  144.1920 N   0  0  0  0  0  2  0  0  0  0  0  0
  189.2950  172.3310  140.0770 N   0  0  0  0  0  2  0  0  0  0  0  0
  189.5950  171.8570  142.3490 O   0  0  0  0  0  0  0  0  0  0  0  0
  189.8170  174.0450  143.2000 C   0  0  0  0  0  2  0  0  0  0  0  0
  189.5090  174.1460  141.7050 C   0  0  1  0  0  3  0  0  0  0  0  0
  189.7650  172.5550  143.5690 C   0  0  2  0  0  3  0  0  0  0  0  0
  189.4460  172.7280  141.2960 C   0  0  0  0  0  0  0  0  0  0  0  0
  187.1690  174.6870  142.4300 O   0  0  0  0  0  1  0  0  0  0  0  0
  188.0050  175.5140  140.4640 O   0  0  0  0  0  0  0  0  0  0  0  0
  188.1900  174.8210  141.4950 C   0  0  0  0  0  0  0  0  0  0  0  0
  192.8820  173.5640  145.0990 C   0  0  2  0  0  3  0  0  0  0  0  0
  192.6950  175.9360  144.2540 C   0  0  0  0  0  1  0  0  0  0  0  0
  193.6800  175.4990  146.4810 C   0  0  0  0  0  1  0  0  0  0  0  0
  192.6210  175.0410  145.4850 C   0  0  0  0  0  0  0  0  0  0  0  0
  191.2380  175.1530  146.1470 C   0  0  0  0  0  2  0  0  0  0  0  0
  190.8980  176.5590  146.6430 C   0  0  0  0  0  2  0  0  0  0  0  0
  185.1020  178.4970  145.8120 C   0  0  2  0  0  3  0  0  0  0  0  0
  187.6370  177.4670  145.0330 C   0  0  0  0  0  0  0  0  0  0  0  0
  183.8010  178.4950  146.2750 F   0  0  0  0  0  0  0  0  0  0  0  0
  185.1940  177.6750  144.5260 C   0  0  0  0  0  2  0  0  0  0  0  0
  188.5660  177.2850  147.1040 C   0  0  0  0  0  3  0  0  0  0  0  0
  186.0300  177.9220  146.8870 C   0  0  0  0  0  2  0  0  0  0  0  0
  189.5180  176.9580  146.2380 C   0  0  0  0  0  0  0  0  0  0  0  0
  186.6170  177.7260  143.9600 C   0  0  0  0  0  2  0  0  0  0  0  0
  187.3900  177.6260  146.3260 C   0  0  0  0  0  0  0  0  0  0  0  0
  189.0590  177.0690  144.8140 C   0  0  2  0  0  3  0  0  0  0  0  0
  189.9780  177.8480  142.6300 C   0  0  0  0  0  1  0  0  0  0  0  0
  189.8300  178.1740  144.1040 C   0  0  0  0  0  2  0  0  0  0  0  0
  194.6220  172.0630  145.7930 O   0  0  0  0  0  1  0  0  0  0  0  0
  194.3680  173.1950  145.0200 C   0  0  0  0  0  2  0  0  0  0  0  0
  193.1300  172.5320  142.4500 S   0  0  0  0  0  0  0  0  0  0  0  0
  193.0290  174.1310  141.5930 C   0  0  0  0  0  2  0  0  0  0  0  0
  193.8850  174.7170  139.4490 O   0  0  0  0  0  1  0  0  0  0  0  0
  194.2670  174.3510  140.7410 C   0  0  1  0  0  3  0  0  0  0  0  0
  194.7660  176.6200  141.2910 O   0  0  0  0  0  0  0  0  0  0  0  0
  195.1350  175.4170  141.3340 C   0  0  0  0  0  0  0  0  0  0  0  0
  196.3700  175.0880  141.9750 N   0  0  0  0  0  2  0  0  0  0  0  0
  197.4390  173.5210  143.3180 O   0  0  0  0  0  1  0  0  0  0  0  0
  197.8770  173.5500  141.0850 O   0  0  0  0  0  1  0  0  0  0  0  0
  196.8900  173.7320  142.0540 C   0  0  0  0  0  3  0  0  0  0  0  0
  1 32  1  6  0  0  0
  1  2  1  0  0  0  0
  1 12  1  0  0  0  0
  3  8  2  0  0  0  0
  4  7  1  0  0  0  0
  5  7  1  0  0  0  0
  6 11  1  1  0  0  0
  6  5  1  0  0  0  0
  7  2  1  6  0  0  0
  8  6  1  0  0  0  0
  8  4  1  0  0  0  0
 10 11  2  0  0  0  0
 11  9  1  0  0  0  0
 12 31  1  6  0  0  0
 12 15  1  0  0  0  0
 13 15  1  0  0  0  0
 15 16  1  0  0  0  0
 15 14  1  0  0  0  0
 16 17  1  0  0  0  0
 18 20  1  1  0  0  0
 18 23  1  0  0  0  0
 19 26  2  0  0  0  0
 21 18  1  0  0  0  0
 24 17  1  0  0  0  0
 24 22  2  0  0  0  0
 25 21  1  0  0  0  0
 25 19  1  0  0  0  0
 26 23  1  0  0  0  0
 26 22  1  0  0  0  0
 27 29  1  6  0  0  0
 27 19  1  0  0  0  0
 27 24  1  0  0  0  0
 28 29  1  0  0  0  0
 31 30  1  0  0  0  0
 33 32  1  0  0  0  0
 35 34  1  6  0  0  0
 35 37  1  0  0  0  0
 35 33  1  0  0  0  0
 36 37  2  0  0  0  0
 37 38  1  0  0  0  0
 38 41  1  0  0  0  0
 40 41  1  0  0  0  0
 41 39  1  0  0  0  0
M  END
>  <MODEL>
5

>  <REMARK>
 VINA RESULT:      -6.2      2.260      3.302
  Name = 
  15 active torsions:
  status: ('A' for Active; 'I' for Inactive)
    1  A    between atoms: N_5  and  C_9
    2  A    between atoms: N_5  and  C_26
    3  A    between atoms: C_9  and  C_10
    4  A    between atoms: C_9  and  S_33
    5  A    between atoms: C_10  and  C_27
    6  A    between atoms: C_10  and  C_35
    7  A    between atoms: C_12  and  C_22
    8  A    between atoms: C_23  and  C_35
    9  A    between atoms: C_23  and  C_41
   10  A    between atoms: C_28  and  C_29
   11  A    between atoms: C_28  and  S_33
   12  A    between atoms: C_29  and  C_32
   13  A    between atoms: C_31  and  C_41
   14  A    between atoms: N_34  and  C_39
   15  A    between atoms: C_38  and  C_40
                            x       y       z     vdW  Elec       q    Type
                         _______ _______ _______ _____ _____    ______ ____

>  <TORSDO>
F 15

$$$$
=
 OpenBabel11062421433D

 41 43  0  0  1  0  0  0  0  0999 V2000
  191.6810  173.9820  141.9980 C   0  0  1  0  0  3  0  0  0  0  0  0
  192.5460  175.1600  141.8760 N   0  0  0  0  0  2  0  0  0  0  0  0
  196.4330  176.7910  143.3530 N   0  0  0  0  0  2  0  0  0  0  0  0
  194.6250  175.3580  142.9550 O   0  0  0  0  0  0  0  0  0  0  0  0
  194.6250  175.3400  140.5970 C   0  0  0  0  0  2  0  0  0  0  0  0
  195.8250  176.1650  141.0660 C   0  0  1  0  0  3  0  0  0  0  0  0
  193.9520  174.7730  141.8560 C   0  0  2  0  0  3  0  0  0  0  0  0
  195.6770  176.1370  142.5350 C   0  0  0  0  0  0  0  0  0  0  0  0
  197.5960  175.6770  139.3560 O   0  0  0  0  0  0  0  0  0  0  0  0
  197.7280  174.7870  141.4640 O   0  0  0  0  0  1  0  0  0  0  0  0
  197.1000  175.5050  140.6450 C   0  0  0  0  0  0  0  0  0  0  0  0
  190.7720  173.7940  140.7640 C   0  0  2  0  0  3  0  0  0  0  0  0
  188.7710  172.6240  141.7690 C   0  0  0  0  0  1  0  0  0  0  0  0
  188.4770  174.0820  139.7910 C   0  0  0  0  0  1  0  0  0  0  0  0
  189.2600  173.8970  141.0860 C   0  0  0  0  0  0  0  0  0  0  0  0
  189.0180  175.1160  141.9900 C   0  0  0  0  0  2  0  0  0  0  0  0
  187.7750  175.9280  141.6190 C   0  0  0  0  0  2  0  0  0  0  0  0
  185.8460  178.1810  147.0260 C   0  0  2  0  0  3  0  0  0  0  0  0
  185.6380  177.4860  144.2760 C   0  0  0  0  0  0  0  0  0  0  0  0
  185.8040  178.0260  148.3980 F   0  0  0  0  0  0  0  0  0  0  0  0
  184.4570  177.9400  146.4360 C   0  0  0  0  0  2  0  0  0  0  0  0
  187.6620  176.4670  144.0420 C   0  0  0  0  0  3  0  0  0  0  0  0
  186.8620  177.2000  146.4310 C   0  0  0  0  0  2  0  0  0  0  0  0
  187.1130  176.4910  142.8330 C   0  0  0  0  0  0  0  0  0  0  0  0
  184.4710  178.1780  144.9220 C   0  0  0  0  0  2  0  0  0  0  0  0
  186.7260  177.1200  144.9400 C   0  0  0  0  0  0  0  0  0  0  0  0
  185.7780  177.1730  142.8230 C   0  0  2  0  0  3  0  0  0  0  0  0
  185.0730  178.2890  140.7070 C   0  0  0  0  0  1  0  0  0  0  0  0
  185.8530  178.4500  141.9970 C   0  0  0  0  0  2  0  0  0  0  0  0
  192.0310  172.9080  138.9240 O   0  0  0  0  0  1  0  0  0  0  0  0
  191.1490  172.5560  139.9440 C   0  0  0  0  0  2  0  0  0  0  0  0
  192.5910  172.4780  142.5250 S   0  0  0  0  0  0  0  0  0  0  0  0
  191.5890  172.2740  144.0280 C   0  0  0  0  0  2  0  0  0  0  0  0
  189.9810  173.4720  145.3120 O   0  0  0  0  0  1  0  0  0  0  0  0
  191.1390  173.6280  144.5490 C   0  0  1  0  0  3  0  0  0  0  0  0
  193.0830  173.5340  145.9320 O   0  0  0  0  0  0  0  0  0  0  0  0
  192.2130  174.2580  145.3790 C   0  0  0  0  0  0  0  0  0  0  0  0
  192.2840  175.6770  145.5370 N   0  0  0  0  0  2  0  0  0  0  0  0
  191.9840  177.5990  144.2640 O   0  0  0  0  0  1  0  0  0  0  0  0
  190.5440  177.1650  145.9720 O   0  0  0  0  0  1  0  0  0  0  0  0
  191.3140  176.5930  144.9580 C   0  0  0  0  0  3  0  0  0  0  0  0
  1  2  1  6  0  0  0
  1 32  1  0  0  0  0
  5  6  1  0  0  0  0
  5  7  1  0  0  0  0
  6 11  1  1  0  0  0
  6  8  1  0  0  0  0
  7  2  1  6  0  0  0
  7  4  1  0  0  0  0
  8  4  1  0  0  0  0
  8  3  2  0  0  0  0
  9 11  2  0  0  0  0
 11 10  1  0  0  0  0
 12 31  1  1  0  0  0
 12 15  1  0  0  0  0
 12  1  1  0  0  0  0
 14 15  1  0  0  0  0
 15 13  1  0  0  0  0
 15 16  1  0  0  0  0
 17 16  1  0  0  0  0
 17 24  1  0  0  0  0
 18 20  1  1  0  0  0
 19 25  1  0  0  0  0
 19 26  2  0  0  0  0
 21 18  1  0  0  0  0
 22 26  1  0  0  0  0
 23 18  1  0  0  0  0
 24 22  2  0  0  0  0
 25 21  1  0  0  0  0
 26 23  1  0  0  0  0
 27 29  1  6  0  0  0
 27 24  1  0  0  0  0
 27 19  1  0  0  0  0
 28 29  1  0  0  0  0
 30 31  1  0  0  0  0
 32 33  1  0  0  0  0
 33 35  1  0  0  0  0
 35 34  1  1  0  0  0
 35 37  1  0  0  0  0
 37 38  1  0  0  0  0
 37 36  2  0  0  0  0
 39 41  1  0  0  0  0
 41 38  1  0  0  0  0
 41 40  1  0  0  0  0
M  END
>  <MODEL>
6

>  <REMARK>
 VINA RESULT:      -6.2      2.689      5.760
  Name = 
  15 active torsions:
  status: ('A' for Active; 'I' for Inactive)
    1  A    between atoms: N_5  and  C_9
    2  A    between atoms: N_5  and  C_26
    3  A    between atoms: C_9  and  C_10
    4  A    between atoms: C_9  and  S_33
    5  A    between atoms: C_10  and  C_27
    6  A    between atoms: C_10  and  C_35
    7  A    between atoms: C_12  and  C_22
    8  A    between atoms: C_23  and  C_35
    9  A    between atoms: C_23  and  C_41
   10  A    between atoms: C_28  and  C_29
   11  A    between atoms: C_28  and  S_33
   12  A    between atoms: C_29  and  C_32
   13  A    between atoms: C_31  and  C_41
   14  A    between atoms: N_34  and  C_39
   15  A    between atoms: C_38  and  C_40
                            x       y       z     vdW  Elec       q    Type
                         _______ _______ _______ _____ _____    ______ ____

>  <TORSDO>
F 15

$$$$
=
 OpenBabel11062421433D

 41 43  0  0  1  0  0  0  0  0999 V2000
  193.1290  174.7740  143.1560 C   0  0  1  0  0  3  0  0  0  0  0  0
  192.5150  175.0600  141.8550 N   0  0  0  0  0  2  0  0  0  0  0  0
  191.7790  173.8090  137.6310 N   0  0  0  0  0  2  0  0  0  0  0  0
  192.6660  173.9420  139.7930 O   0  0  0  0  0  0  0  0  0  0  0  0
  190.7060  173.6140  141.0630 C   0  0  0  0  0  2  0  0  0  0  0  0
  190.3450  173.4620  139.5850 C   0  0  1  0  0  3  0  0  0  0  0  0
  192.2250  173.8260  141.1340 C   0  0  2  0  0  3  0  0  0  0  0  0
  191.6310  173.7370  138.9120 C   0  0  0  0  0  0  0  0  0  0  0  0
  190.5090  170.9800  139.9150 O   0  0  0  0  0  1  0  0  0  0  0  0
  188.9280  171.8710  138.5170 O   0  0  0  0  0  0  0  0  0  0  0  0
  189.8860  172.0650  139.3070 C   0  0  0  0  0  0  0  0  0  0  0  0
  192.1480  175.0010  144.3280 C   0  0  2  0  0  3  0  0  0  0  0  0
  193.8710  176.7860  144.8000 C   0  0  0  0  0  1  0  0  0  0  0  0
  192.7810  175.6040  146.6800 C   0  0  0  0  0  1  0  0  0  0  0  0
  192.5680  176.1540  145.2740 C   0  0  0  0  0  0  0  0  0  0  0  0
  191.4470  177.2040  145.3180 C   0  0  0  0  0  2  0  0  0  0  0  0
  190.3460  176.9820  144.2800 C   0  0  0  0  0  2  0  0  0  0  0  0
  184.5020  178.1920  145.8390 C   0  0  2  0  0  3  0  0  0  0  0  0
  187.1840  177.3440  146.2620 C   0  0  0  0  0  0  0  0  0  0  0  0
  183.4280  179.0540  145.7320 F   0  0  0  0  0  0  0  0  0  0  0  0
  185.0730  178.2510  147.2560 C   0  0  0  0  0  2  0  0  0  0  0  0
  188.0100  177.8280  144.1950 C   0  0  0  0  0  3  0  0  0  0  0  0
  185.5720  178.5760  144.8100 C   0  0  0  0  0  2  0  0  0  0  0  0
  188.9940  177.2340  144.8610 C   0  0  0  0  0  0  0  0  0  0  0  0
  186.2210  177.2470  147.4110 C   0  0  0  0  0  2  0  0  0  0  0  0
  186.8660  177.8690  145.0870 C   0  0  0  0  0  0  0  0  0  0  0  0
  188.5820  176.8190  146.2420 C   0  0  2  0  0  3  0  0  0  0  0  0
  189.3130  174.8720  147.6180 C   0  0  0  0  0  1  0  0  0  0  0  0
  188.5940  175.3000  146.3540 C   0  0  0  0  0  2  0  0  0  0  0  0
  190.6180  173.1630  144.5320 O   0  0  0  0  0  1  0  0  0  0  0  0
  191.7950  173.6990  145.0550 C   0  0  0  0  0  2  0  0  0  0  0  0
  194.0170  173.1690  143.1900 S   0  0  0  0  0  0  0  0  0  0  0  0
  195.6530  173.9600  143.2590 C   0  0  0  0  0  2  0  0  0  0  0  0
  197.9340  173.2790  143.2740 O   0  0  0  0  0  1  0  0  0  0  0  0
  196.6810  172.9920  143.8180 C   0  0  1  0  0  3  0  0  0  0  0  0
  196.7840  174.2200  145.8630 O   0  0  0  0  0  0  0  0  0  0  0  0
  196.7410  173.0890  145.3110 C   0  0  0  0  0  0  0  0  0  0  0  0
  196.7270  171.9140  146.1250 N   0  0  0  0  0  2  0  0  0  0  0  0
  195.4040  170.2490  145.1860 O   0  0  0  0  0  1  0  0  0  0  0  0
  197.1270  169.6580  146.5500 O   0  0  0  0  0  1  0  0  0  0  0  0
  196.7040  170.5660  145.5800 C   0  0  0  0  0  3  0  0  0  0  0  0
  1  2  1  6  0  0  0
  1 32  1  0  0  0  0
  1 12  1  0  0  0  0
  3  8  2  0  0  0  0
  4  7  1  0  0  0  0
  5  7  1  0  0  0  0
  6 11  1  1  0  0  0
  6  5  1  0  0  0  0
  7  2  1  1  0  0  0
  8  6  1  0  0  0  0
  8  4  1  0  0  0  0
 10 11  2  0  0  0  0
 11  9  1  0  0  0  0
 12 31  1  1  0  0  0
 12 15  1  0  0  0  0
 13 15  1  0  0  0  0
 15 16  1  0  0  0  0
 15 14  1  0  0  0  0
 17 24  1  0  0  0  0
 17 16  1  0  0  0  0
 18 20  1  1  0  0  0
 18 21  1  0  0  0  0
 19 25  1  0  0  0  0
 21 25  1  0  0  0  0
 22 24  2  0  0  0  0
 22 26  1  0  0  0  0
 23 26  1  0  0  0  0
 23 18  1  0  0  0  0
 24 27  1  0  0  0  0
 26 19  2  0  0  0  0
 27 19  1  0  0  0  0
 27 29  1  6  0  0  0
 29 28  1  0  0  0  0
 30 31  1  0  0  0  0
 32 33  1  0  0  0  0
 33 35  1  0  0  0  0
 35 34  1  6  0  0  0
 35 37  1  0  0  0  0
 37 36  2  0  0  0  0
 37 38  1  0  0  0  0
 39 41  1  0  0  0  0
 41 38  1  0  0  0  0
 41 40  1  0  0  0  0
M  END
>  <MODEL>
7

>  <REMARK>
 VINA RESULT:      -6.2      2.212      3.054
  Name = 
  15 active torsions:
  status: ('A' for Active; 'I' for Inactive)
    1  A    between atoms: N_5  and  C_9
    2  A    between atoms: N_5  and  C_26
    3  A    between atoms: C_9  and  C_10
    4  A    between atoms: C_9  and  S_33
    5  A    between atoms: C_10  and  C_27
    6  A    between atoms: C_10  and  C_35
    7  A    between atoms: C_12  and  C_22
    8  A    between atoms: C_23  and  C_35
    9  A    between atoms: C_23  and  C_41
   10  A    between atoms: C_28  and  C_29
   11  A    between atoms: C_28  and  S_33
   12  A    between atoms: C_29  and  C_32
   13  A    between atoms: C_31  and  C_41
   14  A    between atoms: N_34  and  C_39
   15  A    between atoms: C_38  and  C_40
                            x       y       z     vdW  Elec       q    Type
                         _______ _______ _______ _____ _____    ______ ____

>  <TORSDO>
F 15

$$$$
=
 OpenBabel11062421433D

 41 43  0  0  1  0  0  0  0  0999 V2000
  193.7000  174.7980  142.9420 C   0  0  1  0  0  3  0  0  0  0  0  0
  193.6930  173.3380  142.8100 N   0  0  0  0  0  2  0  0  0  0  0  0
  190.5510  173.3430  139.6350 N   0  0  0  0  0  2  0  0  0  0  0  0
  192.0700  172.6260  141.2660 O   0  0  0  0  0  0  0  0  0  0  0  0
  191.3290  173.9010  143.1060 C   0  0  0  0  0  2  0  0  0  0  0  0
  190.3790  174.1610  141.9360 C   0  0  1  0  0  3  0  0  0  0  0  0
  192.3330  172.8370  142.6410 C   0  0  2  0  0  3  0  0  0  0  0  0
  190.9790  173.3540  140.8540 C   0  0  0  0  0  0  0  0  0  0  0  0
  188.8230  172.4440  142.8990 O   0  0  0  0  0  1  0  0  0  0  0  0
  188.0060  174.3750  141.9750 O   0  0  0  0  0  0  0  0  0  0  0  0
  189.0050  173.6710  142.2690 C   0  0  0  0  0  0  0  0  0  0  0  0
  194.5180  175.2710  144.1640 C   0  0  2  0  0  3  0  0  0  0  0  0
  194.5210  176.6930  146.2510 C   0  0  0  0  0  1  0  0  0  0  0  0
  192.9550  174.7870  146.0660 C   0  0  0  0  0  1  0  0  0  0  0  0
  193.6510  175.8960  145.2860 C   0  0  0  0  0  0  0  0  0  0  0  0
  192.5830  176.8020  144.6530 C   0  0  0  0  0  2  0  0  0  0  0  0
  191.4520  177.1910  145.6070 C   0  0  0  0  0  2  0  0  0  0  0  0
  186.4960  177.5000  141.9490 C   0  0  2  0  0  3  0  0  0  0  0  0
  187.9170  177.0370  144.3690 C   0  0  0  0  0  0  0  0  0  0  0  0
  185.8200  178.2000  140.9700 F   0  0  0  0  0  0  0  0  0  0  0  0
  185.7390  177.6010  143.2740 C   0  0  0  0  0  2  0  0  0  0  0  0
  189.9820  177.6930  143.6670 C   0  0  0  0  0  3  0  0  0  0  0  0
  187.9140  178.0630  142.0960 C   0  0  0  0  0  2  0  0  0  0  0  0
  190.1370  177.2290  144.9020 C   0  0  0  0  0  0  0  0  0  0  0  0
  186.4380  176.7700  144.3550 C   0  0  0  0  0  2  0  0  0  0  0  0
  188.5760  177.5430  143.3370 C   0  0  0  0  0  0  0  0  0  0  0  0
  188.8540  176.7200  145.4880 C   0  0  2  0  0  3  0  0  0  0  0  0
  189.1610  174.9160  147.1820 C   0  0  0  0  0  1  0  0  0  0  0  0
  188.9450  175.2160  145.7120 C   0  0  0  0  0  2  0  0  0  0  0  0
  196.9020  175.3910  143.9230 O   0  0  0  0  0  1  0  0  0  0  0  0
  195.7260  176.1240  143.7650 C   0  0  0  0  0  2  0  0  0  0  0  0
  194.0950  175.6560  141.3690 S   0  0  0  0  0  0  0  0  0  0  0  0
  195.2810  174.3780  140.8510 C   0  0  0  0  0  2  0  0  0  0  0  0
  194.6490  175.3200  138.7580 O   0  0  0  0  0  1  0  0  0  0  0  0
  195.6280  174.5470  139.3820 C   0  0  1  0  0  3  0  0  0  0  0  0
  197.3750  176.0050  140.1070 O   0  0  0  0  0  0  0  0  0  0  0  0
  196.9660  175.2010  139.2280 C   0  0  0  0  0  0  0  0  0  0  0  0
  197.8030  174.9080  138.1070 N   0  0  0  0  0  2  0  0  0  0  0  0
  197.8980  172.7340  137.2910 O   0  0  0  0  0  1  0  0  0  0  0  0
  197.9350  174.4720  135.8220 O   0  0  0  0  0  1  0  0  0  0  0  0
  197.4100  174.0140  137.0300 C   0  0  0  0  0  3  0  0  0  0  0  0
  1 32  1  6  0  0  0
  1 12  1  0  0  0  0
  2  1  1  0  0  0  0
  3  8  2  0  0  0  0
  4  7  1  0  0  0  0
  6 11  1  1  0  0  0
  6  5  1  0  0  0  0
  7  2  1  6  0  0  0
  7  5  1  0  0  0  0
  8  4  1  0  0  0  0
  8  6  1  0  0  0  0
 10 11  2  0  0  0  0
 11  9  1  0  0  0  0
 12 31  1  6  0  0  0
 12 15  1  0  0  0  0
 15 14  1  0  0  0  0
 15 13  1  0  0  0  0
 16 15  1  0  0  0  0
 16 17  1  0  0  0  0
 18 20  1  6  0  0  0
 18 23  1  0  0  0  0
 18 21  1  0  0  0  0
 19 27  1  0  0  0  0
 21 25  1  0  0  0  0
 22 24  2  0  0  0  0
 23 26  1  0  0  0  0
 24 27  1  0  0  0  0
 24 17  1  0  0  0  0
 25 19  1  0  0  0  0
 26 22  1  0  0  0  0
 26 19  2  0  0  0  0
 27 29  1  6  0  0  0
 29 28  1  0  0  0  0
 31 30  1  0  0  0  0
 33 32  1  0  0  0  0
 35 34  1  6  0  0  0
 35 33  1  0  0  0  0
 37 35  1  0  0  0  0
 37 36  2  0  0  0  0
 38 37  1  0  0  0  0
 40 41  1  0  0  0  0
 41 39  1  0  0  0  0
 41 38  1  0  0  0  0
M  END
>  <MODEL>
8

>  <REMARK>
 VINA RESULT:      -6.1      2.568      3.643
  Name = 
  15 active torsions:
  status: ('A' for Active; 'I' for Inactive)
    1  A    between atoms: N_5  and  C_9
    2  A    between atoms: N_5  and  C_26
    3  A    between atoms: C_9  and  C_10
    4  A    between atoms: C_9  and  S_33
    5  A    between atoms: C_10  and  C_27
    6  A    between atoms: C_10  and  C_35
    7  A    between atoms: C_12  and  C_22
    8  A    between atoms: C_23  and  C_35
    9  A    between atoms: C_23  and  C_41
   10  A    between atoms: C_28  and  C_29
   11  A    between atoms: C_28  and  S_33
   12  A    between atoms: C_29  and  C_32
   13  A    between atoms: C_31  and  C_41
   14  A    between atoms: N_34  and  C_39
   15  A    between atoms: C_38  and  C_40
                            x       y       z     vdW  Elec       q    Type
                         _______ _______ _______ _____ _____    ______ ____

>  <TORSDO>
F 15

$$$$
=
 OpenBabel11062421433D

 41 43  0  0  1  0  0  0  0  0999 V2000
  194.0500  175.0730  143.0180 C   0  0  1  0  0  3  0  0  0  0  0  0
  193.7500  173.8780  142.2220 N   0  0  0  0  0  2  0  0  0  0  0  0
  190.4890  171.4670  140.3510 N   0  0  0  0  0  2  0  0  0  0  0  0
  192.1850  172.1760  141.8000 O   0  0  0  0  0  0  0  0  0  0  0  0
  191.3460  174.2950  142.4100 C   0  0  0  0  0  2  0  0  0  0  0  0
  190.3070  173.6110  141.5190 C   0  0  1  0  0  3  0  0  0  0  0  0
  192.4820  173.2850  142.6290 C   0  0  2  0  0  3  0  0  0  0  0  0
  190.9720  172.3380  141.1740 C   0  0  0  0  0  0  0  0  0  0  0  0
  187.8890  174.0770  142.0000 O   0  0  0  0  0  0  0  0  0  0  0  0
  189.0400  172.5070  143.2080 O   0  0  0  0  0  1  0  0  0  0  0  0
  189.0490  173.3650  142.2900 C   0  0  0  0  0  0  0  0  0  0  0  0
  194.2630  174.7430  144.5110 C   0  0  2  0  0  3  0  0  0  0  0  0
  194.4510  176.4730  146.3410 C   0  0  0  0  0  1  0  0  0  0  0  0
  192.5930  174.8400  146.3800 C   0  0  0  0  0  1  0  0  0  0  0  0
  193.4850  175.6770  145.4710 C   0  0  0  0  0  0  0  0  0  0  0  0
  192.6010  176.6250  144.6450 C   0  0  0  0  0  2  0  0  0  0  0  0
  191.4580  177.2600  145.4400 C   0  0  0  0  0  2  0  0  0  0  0  0
  186.7380  177.3940  141.4720 C   0  0  2  0  0  3  0  0  0  0  0  0
  188.0050  177.0480  143.9950 C   0  0  0  0  0  0  0  0  0  0  0  0
  186.1260  178.0470  140.4200 F   0  0  0  0  0  0  0  0  0  0  0  0
  185.9000  177.5600  142.7400 C   0  0  0  0  0  2  0  0  0  0  0  0
  190.1120  177.6680  143.3910 C   0  0  0  0  0  3  0  0  0  0  0  0
  188.1460  177.9630  141.6780 C   0  0  0  0  0  2  0  0  0  0  0  0
  190.1890  177.2640  144.6540 C   0  0  0  0  0  0  0  0  0  0  0  0
  186.5290  176.7820  143.9010 C   0  0  0  0  0  2  0  0  0  0  0  0
  188.7290  177.5040  142.9820 C   0  0  0  0  0  0  0  0  0  0  0  0
  188.8700  176.7850  145.1830 C   0  0  2  0  0  3  0  0  0  0  0  0
  188.9680  175.0610  146.9830 C   0  0  0  0  0  1  0  0  0  0  0  0
  188.9410  175.2940  145.4850 C   0  0  0  0  0  2  0  0  0  0  0  0
  196.0240  173.2450  145.1570 O   0  0  0  0  0  1  0  0  0  0  0  0
  195.7450  174.5800  144.8680 C   0  0  0  0  0  2  0  0  0  0  0  0
  195.3510  176.1250  142.2650 S   0  0  0  0  0  0  0  0  0  0  0  0
  196.0030  174.7680  141.2470 C   0  0  0  0  0  2  0  0  0  0  0  0
  197.7630  175.6810  139.9280 O   0  0  0  0  0  1  0  0  0  0  0  0
  196.4250  175.2880  139.8830 C   0  0  1  0  0  3  0  0  0  0  0  0
  197.1920  173.4620  138.5500 O   0  0  0  0  0  0  0  0  0  0  0  0
  196.2400  174.2350  138.8360 C   0  0  0  0  0  0  0  0  0  0  0  0
  194.9860  174.0740  138.1670 N   0  0  0  0  0  2  0  0  0  0  0  0
  192.7450  174.1480  138.7810 O   0  0  0  0  0  1  0  0  0  0  0  0
  193.5250  175.6420  137.2510 O   0  0  0  0  0  1  0  0  0  0  0  0
  193.8370  174.9320  138.4110 C   0  0  0  0  0  3  0  0  0  0  0  0
  1  2  1  6  0  0  0
  1 12  1  0  0  0  0
  3  8  2  0  0  0  0
  4  7  1  0  0  0  0
  5  7  1  0  0  0  0
  6 11  1  1  0  0  0
  6  5  1  0  0  0  0
  7  2  1  6  0  0  0
  8  6  1  0  0  0  0
  8  4  1  0  0  0  0
  9 11  2  0  0  0  0
 11 10  1  0  0  0  0
 12 31  1  1  0  0  0
 12 15  1  0  0  0  0
 15 13  1  0  0  0  0
 15 14  1  0  0  0  0
 16 17  1  0  0  0  0
 16 15  1  0  0  0  0
 18 20  1  6  0  0  0
 18 23  1  0  0  0  0
 18 21  1  0  0  0  0
 19 27  1  0  0  0  0
 21 25  1  0  0  0  0
 22 24  2  0  0  0  0
 23 26  1  0  0  0  0
 24 27  1  0  0  0  0
 24 17  1  0  0  0  0
 25 19  1  0  0  0  0
 26 22  1  0  0  0  0
 26 19  2  0  0  0  0
 27 29  1  6  0  0  0
 29 28  1  0  0  0  0
 31 30  1  0  0  0  0
 32  1  1  0  0  0  0
 33 32  1  0  0  0  0
 35 34  1  1  0  0  0
 35 33  1  0  0  0  0
 36 37  2  0  0  0  0
 37 35  1  0  0  0  0
 38 41  1  0  0  0  0
 38 37  1  0  0  0  0
 40 41  1  0  0  0  0
 41 39  1  0  0  0  0
M  END
>  <MODEL>
9

>  <REMARK>
 VINA RESULT:      -6.1      2.198      3.456
  Name = 
  15 active torsions:
  status: ('A' for Active; 'I' for Inactive)
    1  A    between atoms: N_5  and  C_9
    2  A    between atoms: N_5  and  C_26
    3  A    between atoms: C_9  and  C_10
    4  A    between atoms: C_9  and  S_33
    5  A    between atoms: C_10  and  C_27
    6  A    between atoms: C_10  and  C_35
    7  A    between atoms: C_12  and  C_22
    8  A    between atoms: C_23  and  C_35
    9  A    between atoms: C_23  and  C_41
   10  A    between atoms: C_28  and  C_29
   11  A    between atoms: C_28  and  S_33
   12  A    between atoms: C_29  and  C_32
   13  A    between atoms: C_31  and  C_41
   14  A    between atoms: N_34  and  C_39
   15  A    between atoms: C_38  and  C_40
                            x       y       z     vdW  Elec       q    Type
                         _______ _______ _______ _____ _____    ______ ____

>  <TORSDO>
F 15

$$$$
