=
 OpenBabel11062422383D

 44 48  0  0  1  0  0  0  0  0999 V2000
  191.7930  175.2590  142.3960 C   0  0  1  0  0  3  0  0  0  0  0  0
  197.9410  170.6310  143.5100 C   0  0  0  0  0  2  0  0  0  0  0  0
  193.2340  175.7630  146.6050 O   0  0  0  0  0  0  0  0  0  0  0  0
  197.8960  171.4240  144.8110 C   0  0  0  0  0  2  0  0  0  0  0  0
  192.1720  176.4870  146.0180 C   0  0  1  0  0  3  0  0  0  0  0  0
  193.1620  174.7730  141.9460 C   0  0  2  0  0  3  0  0  0  0  0  0
  194.3340  172.7430  145.0040 C   0  0  0  0  0  3  0  0  0  0  0  0
  195.5620  172.2440  144.3210 C   0  0  1  0  0  3  0  0  0  0  0  0
  190.8750  174.1560  141.8850 C   0  0  1  0  0  3  0  0  0  0  0  0
  193.9460  172.5330  141.0230 C   0  0  1  0  0  3  0  0  0  0  0  0
  193.6320  173.0160  139.7450 O   0  0  0  0  0  1  0  0  0  0  0  0
  197.4740  171.5090  142.3590 C   0  0  0  0  0  2  0  0  0  0  0  0
  191.7350  175.3380  143.8220 O   0  0  0  0  0  0  0  0  0  0  0  0
  191.6530  172.8590  142.0120 C   0  0  0  0  0  2  0  0  0  0  0  0
  195.4460  172.6590  141.3180 C   0  0  1  0  0  3  0  0  0  0  0  0
  196.4790  171.5860  145.3460 C   0  0  0  0  0  2  0  0  0  0  0  0
  195.9450  171.4810  142.1690 C   0  0  2  0  0  3  0  0  0  0  0  0
  192.2990  177.5740  143.9010 O   0  0  0  0  0  0  0  0  0  0  0  0
  193.1200  173.2570  142.0870 C   0  0  2  0  0  3  0  0  0  0  0  0
  195.1930  171.2880  143.3570 O   0  0  0  0  0  0  0  0  0  0  0  0
  194.3300  173.9230  145.6150 C   0  0  0  0  0  3  0  0  0  0  0  0
  196.1750  172.7160  140.1260 O   0  0  0  0  0  1  0  0  0  0  0  0
  193.0890  174.4120  146.2720 C   0  0  0  0  0  2  0  0  0  0  0  0
  192.0720  176.5000  144.5190 C   0  0  0  0  0  0  0  0  0  0  0  0
  194.1910  175.3130  142.7210 O   0  0  0  0  0  1  0  0  0  0  0  0
  191.2080  176.7210  148.3490 C   0  0  0  0  0  1  0  0  0  0  0  0
  190.9110  176.7290  146.8600 C   0  0  2  0  0  3  0  0  0  0  0  0
  189.7500  174.6290  147.0390 O   0  0  0  0  0  1  0  0  0  0  0  0
  189.6590  175.9140  146.5060 C   0  0  1  0  0  3  0  0  0  0  0  0
  188.3360  176.5500  146.9210 C   0  0  0  0  0  2  0  0  0  0  0  0
  186.5700  176.9500  143.6360 C   0  0  1  0  0  0  0  0  0  0  0  0
  187.4510  176.7150  145.7750 N   0  0  0  0  0  0  0  0  0  0  0  0
  187.8880  176.7440  144.3870 C   0  0  2  0  0  3  0  0  0  0  0  0
  186.4770  178.4830  141.5890 O   0  0  0  0  0  0  0  0  0  0  0  0
  186.0510  176.9640  145.8240 C   0  0  0  0  0  0  0  0  0  0  0  0
  188.7720  177.8810  144.1790 N   0  0  0  0  0  1  0  0  0  0  0  0
  185.3770  177.0270  146.9260 N   0  0  0  0  0  2  0  0  0  0  0  0
  186.4650  177.5030  142.3760 C   0  0  0  0  0  0  0  0  0  0  0  0
  186.3200  175.9990  142.6550 N   0  0  0  0  0  2  0  0  0  0  0  0
  185.4510  177.1150  144.5490 N   0  0  0  0  0  2  0  0  0  0  0  0
  189.5300  174.0780  142.6000 C   0  0  0  0  0  2  0  0  0  0  0  0
  188.5780  173.2270  141.8240 C   0  0  0  0  0  0  0  0  0  0  0  0
  187.9380  172.3550  142.3890 O   0  0  0  0  0  0  0  0  0  0  0  0
  188.4030  173.4500  140.3600 C   0  0  0  0  0  1  0  0  0  0  0  0
  1 13  1  1  0  0  0
  2  4  1  0  0  0  0
  4 16  1  0  0  0  0
  5  3  1  0  0  0  0
  5 27  1  1  0  0  0
  6 19  1  0  0  0  0
  6  1  1  0  0  0  0
  6 25  1  1  0  0  0
  7 21  2  0  0  0  0
  8  7  1  1  0  0  0
  8 16  1  0  0  0  0
  9 14  1  0  0  0  0
  9  1  1  0  0  0  0
  9 41  1  1  0  0  0
 10 11  1  6  0  0  0
 10 15  1  0  0  0  0
 10 19  1  0  0  0  0
 12  2  1  0  0  0  0
 13 24  1  0  0  0  0
 15 22  1  6  0  0  0
 15 17  1  0  0  0  0
 17 12  1  1  0  0  0
 17 20  1  0  0  0  0
 18 24  2  0  0  0  0
 19 14  1  6  0  0  0
 20  8  1  0  0  0  0
 21 23  1  0  0  0  0
 23  3  1  0  0  0  0
 24  5  1  0  0  0  0
 27 26  1  1  0  0  0
 29 27  1  0  0  0  0
 29 30  1  0  0  0  0
 29 28  1  1  0  0  0
 31 38  1  6  0  0  0
 31 33  1  0  0  0  0
 31 40  1  0  0  0  0
 32 35  1  0  0  0  0
 32 30  1  0  0  0  0
 33 36  1  1  0  0  0
 33 32  1  0  0  0  0
 34 38  2  0  0  0  0
 35 37  2  0  0  0  0
 38 39  1  0  0  0  0
 39 31  1  0  0  0  0
 40 35  1  0  0  0  0
 42 43  2  0  0  0  0
 42 41  1  0  0  0  0
 44 42  1  0  0  0  0
M  END
>  <MODEL>
1

>  <REMARK>
 VINA RESULT:      -7.7      0.000      0.000
  Name = 
  6 active torsions:
  status: ('A' for Active; 'I' for Inactive)
    1  A    between atoms: C_7  and  C_25
    2  A    between atoms: C_9  and  C_32
    3  A    between atoms: N_12  and  C_27
    4  A    between atoms: C_14  and  C_32
    5  A    between atoms: C_18  and  C_25
    6  A    between atoms: C_18  and  C_27
                            x       y       z     vdW  Elec       q    Type
                         _______ _______ _______ _____ _____    ______ ____

>  <TORSDO>
F 6

$$$$
=
 OpenBabel11062422383D

 44 48  0  0  1  0  0  0  0  0999 V2000
  191.4510  173.2840  141.8220 C   0  0  1  0  0  3  0  0  0  0  0  0
  197.4170  169.2240  144.7170 C   0  0  0  0  0  2  0  0  0  0  0  0
  192.9500  175.3490  145.5010 O   0  0  0  0  0  0  0  0  0  0  0  0
  197.4160  170.4670  145.5990 C   0  0  0  0  0  2  0  0  0  0  0  0
  191.9130  175.8250  144.6680 C   0  0  1  0  0  3  0  0  0  0  0  0
  192.7940  172.6030  141.6100 C   0  0  2  0  0  3  0  0  0  0  0  0
  193.9120  171.9000  145.2300 C   0  0  0  0  0  3  0  0  0  0  0  0
  195.1120  171.1210  144.8090 C   0  0  1  0  0  3  0  0  0  0  0  0
  190.4830  172.1070  141.7810 C   0  0  1  0  0  3  0  0  0  0  0  0
  193.4780  170.1510  141.6520 C   0  0  1  0  0  3  0  0  0  0  0  0
  193.1720  170.1030  140.2850 O   0  0  0  0  0  1  0  0  0  0  0  0
  196.9740  169.5940  143.3100 C   0  0  0  0  0  2  0  0  0  0  0  0
  191.4080  173.9210  143.1000 O   0  0  0  0  0  0  0  0  0  0  0  0
  191.2090  170.9340  142.4160 C   0  0  0  0  0  2  0  0  0  0  0  0
  194.9850  170.3220  141.8850 C   0  0  1  0  0  3  0  0  0  0  0  0
  196.0120  170.8840  146.0160 C   0  0  0  0  0  2  0  0  0  0  0  0
  195.4440  169.5560  143.1360 C   0  0  2  0  0  3  0  0  0  0  0  0
  192.0640  175.9820  142.2950 O   0  0  0  0  0  0  0  0  0  0  0  0
  192.6930  171.2690  142.3380 C   0  0  2  0  0  3  0  0  0  0  0  0
  194.6960  169.8790  144.2980 O   0  0  0  0  0  0  0  0  0  0  0  0
  193.9620  173.2240  145.3260 C   0  0  0  0  0  3  0  0  0  0  0  0
  195.7050  169.8740  140.7720 O   0  0  0  0  0  1  0  0  0  0  0  0
  192.7470  173.9830  145.7270 C   0  0  0  0  0  2  0  0  0  0  0  0
  191.7990  175.2490  143.2850 C   0  0  0  0  0  0  0  0  0  0  0  0
  193.8510  173.3630  142.1170 O   0  0  0  0  0  1  0  0  0  0  0  0
  189.7550  175.3650  145.9130 C   0  0  0  0  0  1  0  0  0  0  0  0
  190.6700  176.4310  145.3360 C   0  0  2  0  0  3  0  0  0  0  0  0
  190.7840  178.4360  144.0090 O   0  0  0  0  0  1  0  0  0  0  0  0
  189.9010  177.5050  144.5550 C   0  0  1  0  0  3  0  0  0  0  0  0
  188.9780  176.9720  143.4630 C   0  0  0  0  0  2  0  0  0  0  0  0
  185.8210  178.9460  143.9180 C   0  0  1  0  0  0  0  0  0  0  0  0
  187.7400  177.7390  143.4020 N   0  0  0  0  0  0  0  0  0  0  0  0
  187.0230  178.2510  144.5620 C   0  0  2  0  0  3  0  0  0  0  0  0
  183.5100  178.8000  145.0100 O   0  0  0  0  0  0  0  0  0  0  0  0
  186.9890  178.0310  142.2290 C   0  0  0  0  0  0  0  0  0  0  0  0
  186.5820  177.1390  145.3900 N   0  0  0  0  0  1  0  0  0  0  0  0
  187.3580  177.6760  141.0420 N   0  0  0  0  0  2  0  0  0  0  0  0
  184.6190  179.1800  144.5560 C   0  0  0  0  0  0  0  0  0  0  0  0
  185.6650  180.2750  144.2930 N   0  0  0  0  0  2  0  0  0  0  0  0
  185.8040  178.7690  142.4760 N   0  0  0  0  0  2  0  0  0  0  0  0
  189.1430  172.3720  142.4590 C   0  0  0  0  0  2  0  0  0  0  0  0
  188.2660  173.1910  141.5710 C   0  0  0  0  0  0  0  0  0  0  0  0
  187.5740  174.0790  142.0440 O   0  0  0  0  0  0  0  0  0  0  0  0
  188.2400  172.9300  140.1020 C   0  0  0  0  0  1  0  0  0  0  0  0
  1 13  1  1  0  0  0
  2  4  1  0  0  0  0
  3 23  1  0  0  0  0
  4 16  1  0  0  0  0
  5 27  1  1  0  0  0
  5  3  1  0  0  0  0
  6  1  1  0  0  0  0
  6 25  1  1  0  0  0
  6 19  1  0  0  0  0
  7 21  2  0  0  0  0
  8  7  1  1  0  0  0
  8 16  1  0  0  0  0
  9  1  1  0  0  0  0
  9 14  1  0  0  0  0
  9 41  1  1  0  0  0
 10 11  1  6  0  0  0
 10 15  1  0  0  0  0
 10 19  1  0  0  0  0
 12  2  1  0  0  0  0
 13 24  1  0  0  0  0
 15 22  1  6  0  0  0
 15 17  1  0  0  0  0
 17 12  1  1  0  0  0
 17 20  1  0  0  0  0
 18 24  2  0  0  0  0
 19 14  1  6  0  0  0
 20  8  1  0  0  0  0
 21 23  1  0  0  0  0
 24  5  1  0  0  0  0
 27 26  1  6  0  0  0
 29 28  1  6  0  0  0
 29 27  1  0  0  0  0
 30 29  1  0  0  0  0
 31 40  1  6  0  0  0
 31 39  1  0  0  0  0
 31 38  1  0  0  0  0
 31 33  1  0  0  0  0
 32 30  1  0  0  0  0
 32 33  1  0  0  0  0
 33 36  1  1  0  0  0
 35 40  1  0  0  0  0
 35 32  1  0  0  0  0
 37 35  2  0  0  0  0
 38 34  2  0  0  0  0
 39 38  1  0  0  0  0
 42 43  2  0  0  0  0
 42 41  1  0  0  0  0
 44 42  1  0  0  0  0
M  END
>  <MODEL>
2

>  <REMARK>
 VINA RESULT:      -7.5      1.858      2.578
  Name = 
  6 active torsions:
  status: ('A' for Active; 'I' for Inactive)
    1  A    between atoms: C_7  and  C_25
    2  A    between atoms: C_9  and  C_32
    3  A    between atoms: N_12  and  C_27
    4  A    between atoms: C_14  and  C_32
    5  A    between atoms: C_18  and  C_25
    6  A    between atoms: C_18  and  C_27
                            x       y       z     vdW  Elec       q    Type
                         _______ _______ _______ _____ _____    ______ ____

>  <TORSDO>
F 6

$$$$
=
 OpenBabel11062422383D

 44 48  0  0  1  0  0  0  0  0999 V2000
  191.8570  171.2810  143.8370 C   0  0  1  0  0  3  0  0  0  0  0  0
  190.2380  171.5640  136.2370 C   0  0  0  0  0  2  0  0  0  0  0  0
  189.0110  174.6570  143.0930 O   0  0  0  0  0  0  0  0  0  0  0  0
  189.2840  172.6060  136.8080 C   0  0  0  0  0  2  0  0  0  0  0  0
  189.4840  174.2580  144.3640 C   0  0  1  0  0  3  0  0  0  0  0  0
  191.4070  170.5720  142.5690 C   0  0  2  0  0  3  0  0  0  0  0  0
  190.7820  173.5300  140.1800 C   0  0  0  0  0  3  0  0  0  0  0  0
  190.5210  172.6490  139.0060 C   0  0  1  0  0  3  0  0  0  0  0  0
  193.3700  171.3240  143.6630 C   0  0  1  0  0  3  0  0  0  0  0  0
  192.6450  169.9920  140.4210 C   0  0  1  0  0  3  0  0  0  0  0  0
  193.0190  168.7870  141.0320 O   0  0  0  0  0  1  0  0  0  0  0  0
  190.4190  170.4330  137.2380 C   0  0  0  0  0  2  0  0  0  0  0  0
  191.3210  172.6050  143.8870 O   0  0  0  0  0  0  0  0  0  0  0  0
  193.6240  171.5080  142.1770 C   0  0  0  0  0  2  0  0  0  0  0  0
  191.4400  169.7990  139.4900 C   0  0  1  0  0  3  0  0  0  0  0  0
  189.9430  173.4820  137.8670 C   0  0  0  0  0  2  0  0  0  0  0  0
  191.5400  170.7100  138.2570 C   0  0  2  0  0  3  0  0  0  0  0  0
  189.4840  172.0080  145.1490 O   0  0  0  0  0  0  0  0  0  0  0  0
  192.3490  171.0590  141.4760 C   0  0  2  0  0  3  0  0  0  0  0  0
  191.7350  172.0770  138.5830 O   0  0  0  0  0  0  0  0  0  0  0  0
  189.8080  173.8330  141.0300 C   0  0  0  0  0  3  0  0  0  0  0  0
  191.3490  168.4650  139.0800 O   0  0  0  0  0  1  0  0  0  0  0  0
  190.0940  174.6950  142.2080 C   0  0  0  0  0  2  0  0  0  0  0  0
  190.0950  172.8920  144.4920 C   0  0  0  0  0  0  0  0  0  0  0  0
  190.0810  170.8700  142.2460 O   0  0  0  0  0  1  0  0  0  0  0  0
  191.3000  175.1950  145.8610 C   0  0  0  0  0  1  0  0  0  0  0  0
  189.8730  175.3550  145.3660 C   0  0  2  0  0  3  0  0  0  0  0  0
  189.1170  174.8010  147.5830 O   0  0  0  0  0  1  0  0  0  0  0  0
  188.8870  175.6530  146.5040 C   0  0  1  0  0  3  0  0  0  0  0  0
  188.8760  177.1010  146.9860 C   0  0  0  0  0  2  0  0  0  0  0  0
  185.4310  178.3020  146.1180 C   0  0  1  0  0  0  0  0  0  0  0  0
  187.5490  177.6880  146.8540 N   0  0  0  0  0  0  0  0  0  0  0  0
  186.6350  177.4320  145.7490 C   0  0  2  0  0  3  0  0  0  0  0  0
  184.1560  179.5750  144.2990 O   0  0  0  0  0  0  0  0  0  0  0  0
  186.9710  178.6620  147.7150 C   0  0  0  0  0  0  0  0  0  0  0  0
  187.2330  177.8950  144.5060 N   0  0  0  0  0  1  0  0  0  0  0  0
  187.5610  179.1160  148.7720 N   0  0  0  0  0  2  0  0  0  0  0  0
  184.5080  178.7850  145.2110 C   0  0  0  0  0  0  0  0  0  0  0  0
  184.2250  177.6130  146.1640 N   0  0  0  0  0  2  0  0  0  0  0  0
  185.6750  179.0790  147.3210 N   0  0  0  0  0  2  0  0  0  0  0  0
  194.0660  172.4000  144.4900 C   0  0  0  0  0  2  0  0  0  0  0  0
  194.9650  171.7730  145.5050 C   0  0  0  0  0  0  0  0  0  0  0  0
  194.6250  170.7470  146.0720 O   0  0  0  0  0  0  0  0  0  0  0  0
  196.2830  172.3950  145.8190 C   0  0  0  0  0  1  0  0  0  0  0  0
  1 13  1  6  0  0  0
  2  4  1  0  0  0  0
  2 12  1  0  0  0  0
  3  5  1  0  0  0  0
  4 16  1  0  0  0  0
  5 24  1  0  0  0  0
  5 27  1  6  0  0  0
  6 25  1  6  0  0  0
  6  1  1  0  0  0  0
  7 21  2  0  0  0  0
  8 16  1  6  0  0  0
  8  7  1  0  0  0  0
  9  1  1  0  0  0  0
  9 41  1  1  0  0  0
 10 11  1  1  0  0  0
 10 19  1  0  0  0  0
 13 24  1  0  0  0  0
 14  9  1  0  0  0  0
 15 22  1  6  0  0  0
 15 10  1  0  0  0  0
 17 12  1  1  0  0  0
 17 20  1  0  0  0  0
 17 15  1  0  0  0  0
 19 14  1  1  0  0  0
 19  6  1  0  0  0  0
 20  8  1  0  0  0  0
 21 23  1  0  0  0  0
 23  3  1  0  0  0  0
 24 18  2  0  0  0  0
 27 26  1  1  0  0  0
 27 29  1  0  0  0  0
 29 30  1  0  0  0  0
 29 28  1  1  0  0  0
 31 38  1  6  0  0  0
 31 39  1  0  0  0  0
 31 40  1  0  0  0  0
 32 30  1  0  0  0  0
 32 35  1  0  0  0  0
 33 36  1  6  0  0  0
 33 31  1  0  0  0  0
 33 32  1  0  0  0  0
 34 38  2  0  0  0  0
 35 37  2  0  0  0  0
 38 39  1  0  0  0  0
 40 35  1  0  0  0  0
 41 42  1  0  0  0  0
 42 44  1  0  0  0  0
 42 43  2  0  0  0  0
M  END
>  <MODEL>
3

>  <REMARK>
 VINA RESULT:      -7.4      2.635      5.485
  Name = 
  6 active torsions:
  status: ('A' for Active; 'I' for Inactive)
    1  A    between atoms: C_7  and  C_25
    2  A    between atoms: C_9  and  C_32
    3  A    between atoms: N_12  and  C_27
    4  A    between atoms: C_14  and  C_32
    5  A    between atoms: C_18  and  C_25
    6  A    between atoms: C_18  and  C_27
                            x       y       z     vdW  Elec       q    Type
                         _______ _______ _______ _____ _____    ______ ____

>  <TORSDO>
F 6

$$$$
=
 OpenBabel11062422383D

 44 48  0  0  1  0  0  0  0  0999 V2000
  191.9890  174.0820  144.9120 C   0  0  1  0  0  3  0  0  0  0  0  0
  192.4180  168.1670  139.8840 C   0  0  0  0  0  2  0  0  0  0  0  0
  189.0020  174.7480  141.6440 O   0  0  0  0  0  0  0  0  0  0  0  0
  191.2120  168.9410  139.3660 C   0  0  0  0  0  2  0  0  0  0  0  0
  189.1720  175.5820  142.7710 C   0  0  1  0  0  3  0  0  0  0  0  0
  191.9940  172.5830  144.6540 C   0  0  2  0  0  3  0  0  0  0  0  0
  191.6200  172.4310  140.8210 C   0  0  0  0  0  3  0  0  0  0  0  0
  191.8040  170.9530  140.7670 C   0  0  1  0  0  3  0  0  0  0  0  0
  193.4730  174.4240  144.8580 C   0  0  1  0  0  3  0  0  0  0  0  0
  193.8250  171.0080  143.8480 C   0  0  1  0  0  3  0  0  0  0  0  0
  194.1880  170.8370  145.1910 O   0  0  0  0  0  1  0  0  0  0  0  0
  192.4830  168.2720  141.4000 C   0  0  0  0  0  2  0  0  0  0  0  0
  191.2810  174.7660  143.8760 O   0  0  0  0  0  0  0  0  0  0  0  0
  194.0840  173.5120  143.8080 C   0  0  0  0  0  2  0  0  0  0  0  0
  192.9490  169.8500  143.3510 C   0  0  1  0  0  3  0  0  0  0  0  0
  191.4390  170.4480  139.3760 C   0  0  0  0  0  2  0  0  0  0  0  0
  193.2450  169.5220  141.8790 C   0  0  2  0  0  3  0  0  0  0  0  0
  189.2770  174.7970  145.0180 O   0  0  0  0  0  0  0  0  0  0  0  0
  193.1150  172.3480  143.6510 C   0  0  2  0  0  3  0  0  0  0  0  0
  193.1540  170.6500  141.0230 O   0  0  0  0  0  0  0  0  0  0  0  0
  190.4230  172.9580  141.0560 C   0  0  0  0  0  3  0  0  0  0  0  0
  193.1560  168.7100  144.1350 O   0  0  0  0  0  1  0  0  0  0  0  0
  190.2640  174.4340  141.1280 C   0  0  0  0  0  2  0  0  0  0  0  0
  189.9110  175.0270  143.9550 C   0  0  0  0  0  0  0  0  0  0  0  0
  190.7730  172.1360  144.1440 O   0  0  0  0  0  1  0  0  0  0  0  0
  189.7260  177.8610  143.7270 C   0  0  0  0  0  1  0  0  0  0  0  0
  189.1260  177.1020  142.5570 C   0  0  2  0  0  3  0  0  0  0  0  0
  187.8000  177.8660  140.6990 O   0  0  0  0  0  1  0  0  0  0  0  0
  187.7970  177.7090  142.0850 C   0  0  1  0  0  3  0  0  0  0  0  0
  186.5490  176.9440  142.5130 C   0  0  0  0  0  2  0  0  0  0  0  0
  185.1720  178.6220  145.5710 C   0  0  1  0  0  0  0  0  0  0  0  0
  185.8300  177.6560  143.5620 N   0  0  0  0  0  0  0  0  0  0  0  0
  186.3110  177.8300  144.9250 C   0  0  2  0  0  3  0  0  0  0  0  0
  184.4540  178.1200  147.9770 O   0  0  0  0  0  0  0  0  0  0  0  0
  184.5240  178.2090  143.4590 C   0  0  0  0  0  0  0  0  0  0  0  0
  186.4480  176.5290  145.5620 N   0  0  0  0  0  1  0  0  0  0  0  0
  183.8230  178.1810  142.3720 N   0  0  0  0  0  2  0  0  0  0  0  0
  184.9030  178.6430  146.9260 C   0  0  0  0  0  0  0  0  0  0  0  0
  185.5750  179.8050  146.1780 N   0  0  0  0  0  2  0  0  0  0  0  0
  184.0620  178.8160  144.6530 N   0  0  0  0  0  2  0  0  0  0  0  0
  193.7690  175.8910  144.5700 C   0  0  0  0  0  2  0  0  0  0  0  0
  193.8210  176.6700  145.8440 C   0  0  0  0  0  0  0  0  0  0  0  0
  194.6860  177.5150  146.0100 O   0  0  0  0  0  0  0  0  0  0  0  0
  192.8090  176.4210  146.9110 C   0  0  0  0  0  1  0  0  0  0  0  0
  1 13  1  6  0  0  0
  2 12  1  0  0  0  0
  3  5  1  0  0  0  0
  4 16  1  0  0  0  0
  4  2  1  0  0  0  0
  5 27  1  6  0  0  0
  5 24  1  0  0  0  0
  6 25  1  6  0  0  0
  6  1  1  0  0  0  0
  7 21  2  0  0  0  0
  8 16  1  6  0  0  0
  8  7  1  0  0  0  0
  8 20  1  0  0  0  0
  9 41  1  6  0  0  0
  9  1  1  0  0  0  0
 10 11  1  1  0  0  0
 13 24  1  0  0  0  0
 14  9  1  0  0  0  0
 15 10  1  0  0  0  0
 15 22  1  1  0  0  0
 17 12  1  6  0  0  0
 17 15  1  0  0  0  0
 19 14  1  1  0  0  0
 19 10  1  0  0  0  0
 19  6  1  0  0  0  0
 20 17  1  0  0  0  0
 21 23  1  0  0  0  0
 23  3  1  0  0  0  0
 24 18  2  0  0  0  0
 27 26  1  1  0  0  0
 29 28  1  6  0  0  0
 29 30  1  0  0  0  0
 29 27  1  0  0  0  0
 30 32  1  0  0  0  0
 31 40  1  6  0  0  0
 31 39  1  0  0  0  0
 31 38  1  0  0  0  0
 32 33  1  0  0  0  0
 33 36  1  1  0  0  0
 33 31  1  0  0  0  0
 35 32  1  0  0  0  0
 35 40  1  0  0  0  0
 37 35  2  0  0  0  0
 38 34  2  0  0  0  0
 39 38  1  0  0  0  0
 41 42  1  0  0  0  0
 42 43  2  0  0  0  0
 42 44  1  0  0  0  0
M  END
>  <MODEL>
4

>  <REMARK>
 VINA RESULT:      -7.3      2.582      5.213
  Name = 
  6 active torsions:
  status: ('A' for Active; 'I' for Inactive)
    1  A    between atoms: C_7  and  C_25
    2  A    between atoms: C_9  and  C_32
    3  A    between atoms: N_12  and  C_27
    4  A    between atoms: C_14  and  C_32
    5  A    between atoms: C_18  and  C_25
    6  A    between atoms: C_18  and  C_27
                            x       y       z     vdW  Elec       q    Type
                         _______ _______ _______ _____ _____    ______ ____

>  <TORSDO>
F 6

$$$$
=
 OpenBabel11062422383D

 44 48  0  0  1  0  0  0  0  0999 V2000
  187.9990  175.2790  142.5870 C   0  0  1  0  0  3  0  0  0  0  0  0
  194.5730  176.6310  146.5130 C   0  0  0  0  0  2  0  0  0  0  0  0
  191.3180  172.9520  140.6860 O   0  0  0  0  0  0  0  0  0  0  0  0
  195.0000  175.5420  145.5350 C   0  0  0  0  0  2  0  0  0  0  0  0
  189.9640  172.9100  140.2850 C   0  0  1  0  0  3  0  0  0  0  0  0
  188.7430  175.3300  143.9120 C   0  0  2  0  0  3  0  0  0  0  0  0
  192.4040  175.6750  142.7590 C   0  0  0  0  0  3  0  0  0  0  0  0
  192.9210  175.8650  144.1450 C   0  0  1  0  0  3  0  0  0  0  0  0
  187.6740  176.7470  142.3420 C   0  0  1  0  0  3  0  0  0  0  0  0
  189.7000  177.2780  145.2440 C   0  0  1  0  0  3  0  0  0  0  0  0
  188.4520  177.3840  145.8730 O   0  0  0  0  0  1  0  0  0  0  0  0
  193.1240  176.4120  146.9210 C   0  0  0  0  0  2  0  0  0  0  0  0
  188.8500  174.7760  141.5540 O   0  0  0  0  0  0  0  0  0  0  0  0
  188.8460  177.5420  142.8900 C   0  0  0  0  0  2  0  0  0  0  0  0
  190.7040  176.5080  146.1130 C   0  0  1  0  0  3  0  0  0  0  0  0
  194.4420  175.7650  144.1350 C   0  0  0  0  0  2  0  0  0  0  0  0
  192.1250  177.0730  145.9520 C   0  0  2  0  0  3  0  0  0  0  0  0
  188.1330  172.5940  141.7770 O   0  0  0  0  0  0  0  0  0  0  0  0
  189.5540  176.6180  143.8720 C   0  0  2  0  0  3  0  0  0  0  0  0
  192.5510  177.1440  144.6010 O   0  0  0  0  0  0  0  0  0  0  0  0
  192.2190  174.4560  142.2660 C   0  0  0  0  0  3  0  0  0  0  0  0
  190.3280  176.5650  147.4590 O   0  0  0  0  0  1  0  0  0  0  0  0
  191.6810  174.2880  140.8900 C   0  0  0  0  0  2  0  0  0  0  0  0
  188.9280  173.4160  141.2480 C   0  0  0  0  0  0  0  0  0  0  0  0
  189.5790  174.2250  144.0860 O   0  0  0  0  0  1  0  0  0  0  0  0
  188.1710  173.0510  138.5020 C   0  0  0  0  0  1  0  0  0  0  0  0
  189.6560  172.9060  138.7800 C   0  0  2  0  0  3  0  0  0  0  0  0
  189.7030  170.5760  138.1790 O   0  0  0  0  0  1  0  0  0  0  0  0
  190.3080  171.8070  137.9290 C   0  0  1  0  0  3  0  0  0  0  0  0
  190.3230  172.0770  136.4280 C   0  0  0  0  0  2  0  0  0  0  0  0
  192.3490  175.1750  135.8220 C   0  0  1  0  0  0  0  0  0  0  0  0
  191.2700  173.1330  136.0940 N   0  0  0  0  0  0  0  0  0  0  0  0
  191.0800  174.5440  136.4020 C   0  0  2  0  0  3  0  0  0  0  0  0
  192.2340  177.4380  134.6310 O   0  0  0  0  0  0  0  0  0  0  0  0
  192.4690  172.9820  135.3440 C   0  0  0  0  0  0  0  0  0  0  0  0
  189.9040  175.0400  135.7060 N   0  0  0  0  0  1  0  0  0  0  0  0
  192.8910  171.8430  134.9000 N   0  0  0  0  0  2  0  0  0  0  0  0
  192.4580  176.4950  135.4310 C   0  0  0  0  0  0  0  0  0  0  0  0
  193.0680  175.9430  136.7290 N   0  0  0  0  0  2  0  0  0  0  0  0
  193.1770  174.1930  135.1430 N   0  0  0  0  0  2  0  0  0  0  0  0
  187.3920  177.0930  140.8840 C   0  0  0  0  0  2  0  0  0  0  0  0
  185.9960  177.6010  140.7310 C   0  0  0  0  0  0  0  0  0  0  0  0
  185.4700  177.6240  139.6290 O   0  0  0  0  0  0  0  0  0  0  0  0
  185.2390  178.0720  141.9270 C   0  0  0  0  0  1  0  0  0  0  0  0
  1 13  1  6  0  0  0
  1  6  1  0  0  0  0
  2 12  1  0  0  0  0
  3 23  1  0  0  0  0
  4  2  1  0  0  0  0
  5 27  1  6  0  0  0
  5  3  1  0  0  0  0
  5 24  1  0  0  0  0
  6 25  1  6  0  0  0
  8  7  1  6  0  0  0
  8 20  1  0  0  0  0
  9 41  1  6  0  0  0
  9  1  1  0  0  0  0
  9 14  1  0  0  0  0
 10 11  1  1  0  0  0
 10 15  1  0  0  0  0
 15 22  1  1  0  0  0
 16  8  1  0  0  0  0
 16  4  1  0  0  0  0
 17 15  1  0  0  0  0
 17 12  1  1  0  0  0
 19 14  1  6  0  0  0
 19  6  1  0  0  0  0
 19 10  1  0  0  0  0
 20 17  1  0  0  0  0
 21  7  2  0  0  0  0
 23 21  1  0  0  0  0
 24 13  1  0  0  0  0
 24 18  2  0  0  0  0
 27 26  1  1  0  0  0
 29 28  1  6  0  0  0
 29 27  1  0  0  0  0
 30 29  1  0  0  0  0
 31 40  1  6  0  0  0
 31 33  1  0  0  0  0
 31 39  1  0  0  0  0
 32 33  1  0  0  0  0
 32 30  1  0  0  0  0
 33 36  1  6  0  0  0
 34 38  2  0  0  0  0
 35 32  1  0  0  0  0
 37 35  2  0  0  0  0
 38 31  1  0  0  0  0
 38 39  1  0  0  0  0
 40 35  1  0  0  0  0
 42 41  1  0  0  0  0
 42 44  1  0  0  0  0
 43 42  2  0  0  0  0
M  END
>  <MODEL>
5

>  <REMARK>
 VINA RESULT:      -7.2      4.326      7.984
  Name = 
  6 active torsions:
  status: ('A' for Active; 'I' for Inactive)
    1  A    between atoms: C_7  and  C_25
    2  A    between atoms: C_9  and  C_32
    3  A    between atoms: N_12  and  C_27
    4  A    between atoms: C_14  and  C_32
    5  A    between atoms: C_18  and  C_25
    6  A    between atoms: C_18  and  C_27
                            x       y       z     vdW  Elec       q    Type
                         _______ _______ _______ _____ _____    ______ ____

>  <TORSDO>
F 6

$$$$
=
 OpenBabel11062422383D

 44 48  0  0  1  0  0  0  0  0999 V2000
  194.3160  173.7710  143.0080 C   0  0  1  0  0  3  0  0  0  0  0  0
  190.3700  170.5390  137.1390 C   0  0  0  0  0  2  0  0  0  0  0  0
  190.0130  173.4060  144.1910 O   0  0  0  0  0  0  0  0  0  0  0  0
  189.3170  170.5990  138.2390 C   0  0  0  0  0  2  0  0  0  0  0  0
  191.0460  173.8910  145.0240 C   0  0  1  0  0  3  0  0  0  0  0  0
  194.1700  172.6500  141.9910 C   0  0  2  0  0  3  0  0  0  0  0  0
  190.6050  173.2410  140.6530 C   0  0  0  0  0  3  0  0  0  0  0  0
  190.7220  172.1870  139.6040 C   0  0  1  0  0  3  0  0  0  0  0  0
  194.9270  174.8880  142.1700 C   0  0  1  0  0  3  0  0  0  0  0  0
  194.3780  172.6250  139.4530 C   0  0  1  0  0  3  0  0  0  0  0  0
  195.7450  172.3710  139.6260 O   0  0  0  0  0  1  0  0  0  0  0  0
  191.7400  170.2940  137.7530 C   0  0  0  0  0  2  0  0  0  0  0  0
  193.0350  174.1640  143.5060 O   0  0  0  0  0  0  0  0  0  0  0  0
  194.3240  174.7630  140.7830 C   0  0  0  0  0  2  0  0  0  0  0  0
  193.6000  171.3360  139.1580 C   0  0  1  0  0  3  0  0  0  0  0  0
  189.3480  171.9170  139.0030 C   0  0  0  0  0  2  0  0  0  0  0  0
  192.4460  171.5960  138.1760 C   0  0  2  0  0  3  0  0  0  0  0  0
  193.1320  172.7880  145.3550 O   0  0  0  0  0  0  0  0  0  0  0  0
  193.8050  173.3350  140.6810 C   0  0  2  0  0  3  0  0  0  0  0  0
  191.5830  172.6440  138.5900 O   0  0  0  0  0  0  0  0  0  0  0  0
  190.2380  172.9290  141.8900 C   0  0  0  0  0  3  0  0  0  0  0  0
  194.4520  170.3610  138.6290 O   0  0  0  0  0  1  0  0  0  0  0  0
  190.1490  173.9910  142.9270 C   0  0  0  0  0  2  0  0  0  0  0  0
  192.4650  173.5820  144.6400 C   0  0  0  0  0  0  0  0  0  0  0  0
  193.1840  171.7330  142.3610 O   0  0  0  0  0  1  0  0  0  0  0  0
  191.8160  175.3320  146.9590 C   0  0  0  0  0  1  0  0  0  0  0  0
  190.7520  175.1200  145.8970 C   0  0  2  0  0  3  0  0  0  0  0  0
  189.1930  174.5420  147.6370 O   0  0  0  0  0  1  0  0  0  0  0  0
  189.3290  175.2670  146.4540 C   0  0  1  0  0  3  0  0  0  0  0  0
  188.8680  176.7040  146.6750 C   0  0  0  0  0  2  0  0  0  0  0  0
  186.4970  177.3940  143.8520 C   0  0  1  0  0  0  0  0  0  0  0  0
  187.8040  177.0630  145.7460 N   0  0  0  0  0  0  0  0  0  0  0  0
  187.8340  176.8080  144.3130 C   0  0  2  0  0  3  0  0  0  0  0  0
  186.3420  178.6660  141.6350 O   0  0  0  0  0  0  0  0  0  0  0  0
  186.6230  177.7910  146.0610 C   0  0  0  0  0  0  0  0  0  0  0  0
  188.9400  177.5370  143.7120 N   0  0  0  0  0  1  0  0  0  0  0  0
  186.3300  178.1890  147.2560 N   0  0  0  0  0  2  0  0  0  0  0  0
  186.2350  177.8300  142.5680 C   0  0  0  0  0  0  0  0  0  0  0  0
  185.7030  176.5050  143.1380 N   0  0  0  0  0  2  0  0  0  0  0  0
  185.7800  178.0260  144.9460 N   0  0  0  0  0  2  0  0  0  0  0  0
  194.7270  176.2860  142.7470 C   0  0  0  0  0  2  0  0  0  0  0  0
  195.5750  176.4720  143.9620 C   0  0  0  0  0  0  0  0  0  0  0  0
  196.7890  176.5350  143.8570 O   0  0  0  0  0  0  0  0  0  0  0  0
  194.9360  176.5910  145.3050 C   0  0  0  0  0  1  0  0  0  0  0  0
  1 13  1  6  0  0  0
  2 12  1  0  0  0  0
  2  4  1  0  0  0  0
  3  5  1  0  0  0  0
  4 16  1  0  0  0  0
  5 27  1  6  0  0  0
  6 25  1  1  0  0  0
  6  1  1  0  0  0  0
  7 21  2  0  0  0  0
  8 16  1  6  0  0  0
  8  7  1  0  0  0  0
  9 41  1  1  0  0  0
  9  1  1  0  0  0  0
 10 11  1  1  0  0  0
 10 19  1  0  0  0  0
 13 24  1  0  0  0  0
 14  9  1  0  0  0  0
 15 22  1  6  0  0  0
 15 10  1  0  0  0  0
 17 12  1  1  0  0  0
 17 20  1  0  0  0  0
 17 15  1  0  0  0  0
 19 14  1  1  0  0  0
 19  6  1  0  0  0  0
 20  8  1  0  0  0  0
 21 23  1  0  0  0  0
 23  3  1  0  0  0  0
 24  5  1  0  0  0  0
 24 18  2  0  0  0  0
 27 29  1  0  0  0  0
 27 26  1  1  0  0  0
 29 30  1  0  0  0  0
 29 28  1  1  0  0  0
 31 38  1  6  0  0  0
 31 33  1  0  0  0  0
 31 40  1  0  0  0  0
 32 35  1  0  0  0  0
 32 30  1  0  0  0  0
 33 36  1  6  0  0  0
 33 32  1  0  0  0  0
 34 38  2  0  0  0  0
 35 37  2  0  0  0  0
 38 39  1  0  0  0  0
 39 31  1  0  0  0  0
 40 35  1  0  0  0  0
 41 42  1  0  0  0  0
 42 44  1  0  0  0  0
 43 42  2  0  0  0  0
M  END
>  <MODEL>
6

>  <REMARK>
 VINA RESULT:      -7.2      2.129      4.772
  Name = 
  6 active torsions:
  status: ('A' for Active; 'I' for Inactive)
    1  A    between atoms: C_7  and  C_25
    2  A    between atoms: C_9  and  C_32
    3  A    between atoms: N_12  and  C_27
    4  A    between atoms: C_14  and  C_32
    5  A    between atoms: C_18  and  C_25
    6  A    between atoms: C_18  and  C_27
                            x       y       z     vdW  Elec       q    Type
                         _______ _______ _______ _____ _____    ______ ____

>  <TORSDO>
F 6

$$$$
=
 OpenBabel11062422383D

 44 48  0  0  1  0  0  0  0  0999 V2000
  194.4280  175.3960  144.6750 C   0  0  1  0  0  3  0  0  0  0  0  0
  186.7230  176.3980  144.3690 C   0  0  0  0  0  2  0  0  0  0  0  0
  193.0620  174.7990  140.4530 O   0  0  0  0  0  0  0  0  0  0  0  0
  187.0870  176.2500  142.8960 C   0  0  0  0  0  2  0  0  0  0  0  0
  194.4070  174.7570  140.8850 C   0  0  1  0  0  3  0  0  0  0  0  0
  193.2070  176.2460  144.9890 C   0  0  2  0  0  3  0  0  0  0  0  0
  190.4660  174.5040  142.9150 C   0  0  0  0  0  3  0  0  0  0  0  0
  189.3730  175.3540  143.4700 C   0  0  1  0  0  3  0  0  0  0  0  0
  194.3930  174.3560  145.7880 C   0  0  1  0  0  3  0  0  0  0  0  0
  191.2590  175.8880  146.5900 C   0  0  1  0  0  3  0  0  0  0  0  0
  192.0280  176.5230  147.5750 O   0  0  0  0  0  1  0  0  0  0  0  0
  187.8520  177.1010  145.1070 C   0  0  0  0  0  2  0  0  0  0  0  0
  194.2850  174.7680  143.3990 O   0  0  0  0  0  0  0  0  0  0  0  0
  192.9260  174.0750  146.0650 C   0  0  0  0  0  2  0  0  0  0  0  0
  190.2450  176.8520  145.9600 C   0  0  1  0  0  3  0  0  0  0  0  0
  188.1030  175.1400  142.6560 C   0  0  0  0  0  2  0  0  0  0  0  0
  188.9360  176.1280  145.6080 C   0  0  2  0  0  3  0  0  0  0  0  0
  195.4260  176.4170  142.2580 O   0  0  0  0  0  0  0  0  0  0  0  0
  192.1610  175.2730  145.5190 C   0  0  2  0  0  3  0  0  0  0  0  0
  189.1300  174.9750  144.8030 O   0  0  0  0  0  0  0  0  0  0  0  0
  191.1840  174.9150  141.8760 C   0  0  0  0  0  3  0  0  0  0  0  0
  189.9730  177.9120  146.8310 O   0  0  0  0  0  1  0  0  0  0  0  0
  192.2830  174.0620  141.3520 C   0  0  0  0  0  2  0  0  0  0  0  0
  194.7380  175.3630  142.2200 C   0  0  0  0  0  0  0  0  0  0  0  0
  192.7300  176.9160  143.8600 O   0  0  0  0  0  1  0  0  0  0  0  0
  196.6120  174.2340  139.7530 C   0  0  0  0  0  1  0  0  0  0  0  0
  195.3180  173.6640  140.3070 C   0  0  2  0  0  3  0  0  0  0  0  0
  195.1480  172.8120  138.0630 O   0  0  0  0  0  1  0  0  0  0  0  0
  194.6780  172.6370  139.3640 C   0  0  1  0  0  3  0  0  0  0  0  0
  194.8520  171.1800  139.7810 C   0  0  0  0  0  2  0  0  0  0  0  0
  192.9720  170.4220  142.9370 C   0  0  1  0  0  0  0  0  0  0  0  0
  193.9400  170.8310  140.8630 N   0  0  0  0  0  0  0  0  0  0  0  0
  194.2650  170.9120  142.2800 C   0  0  2  0  0  3  0  0  0  0  0  0
  193.0660  168.9250  145.0110 O   0  0  0  0  0  0  0  0  0  0  0  0
  192.6390  170.2740  140.7180 C   0  0  0  0  0  0  0  0  0  0  0  0
  195.3610  170.0040  142.5810 N   0  0  0  0  0  1  0  0  0  0  0  0
  192.0840  170.0520  139.5720 N   0  0  0  0  0  2  0  0  0  0  0  0
  192.8960  169.8700  144.2000 C   0  0  0  0  0  0  0  0  0  0  0  0
  192.4420  171.3010  143.8730 N   0  0  0  0  0  2  0  0  0  0  0  0
  191.9920  170.0020  141.9500 N   0  0  0  0  0  2  0  0  0  0  0  0
  195.1610  173.0760  145.4760 C   0  0  0  0  0  2  0  0  0  0  0  0
  196.6320  173.3390  145.4860 C   0  0  0  0  0  0  0  0  0  0  0  0
  197.1910  173.6440  146.5270 O   0  0  0  0  0  0  0  0  0  0  0  0
  197.4190  173.2180  144.2250 C   0  0  0  0  0  1  0  0  0  0  0  0
  1 13  1  6  0  0  0
  1  6  1  0  0  0  0
  1  9  1  0  0  0  0
  2 12  1  0  0  0  0
  3  5  1  0  0  0  0
  3 23  1  0  0  0  0
  4  2  1  0  0  0  0
  5 27  1  1  0  0  0
  5 24  1  0  0  0  0
  6 25  1  6  0  0  0
  6 19  1  0  0  0  0
  7  8  1  0  0  0  0
  8 16  1  6  0  0  0
  8 20  1  0  0  0  0
  9 41  1  6  0  0  0
  9 14  1  0  0  0  0
 10 11  1  1  0  0  0
 15 10  1  0  0  0  0
 15 22  1  1  0  0  0
 16  4  1  0  0  0  0
 17 12  1  6  0  0  0
 17 15  1  0  0  0  0
 19 14  1  1  0  0  0
 19 10  1  0  0  0  0
 20 17  1  0  0  0  0
 21  7  2  0  0  0  0
 23 21  1  0  0  0  0
 24 18  2  0  0  0  0
 24 13  1  0  0  0  0
 27 26  1  6  0  0  0
 29 28  1  6  0  0  0
 29 30  1  0  0  0  0
 29 27  1  0  0  0  0
 30 32  1  0  0  0  0
 31 40  1  6  0  0  0
 31 39  1  0  0  0  0
 31 38  1  0  0  0  0
 32 33  1  0  0  0  0
 33 36  1  6  0  0  0
 33 31  1  0  0  0  0
 35 32  1  0  0  0  0
 35 40  1  0  0  0  0
 37 35  2  0  0  0  0
 38 34  2  0  0  0  0
 39 38  1  0  0  0  0
 41 42  1  0  0  0  0
 42 43  2  0  0  0  0
 44 42  1  0  0  0  0
M  END
>  <MODEL>
7

>  <REMARK>
 VINA RESULT:      -7.0      3.521      8.464
  Name = 
  6 active torsions:
  status: ('A' for Active; 'I' for Inactive)
    1  A    between atoms: C_7  and  C_25
    2  A    between atoms: C_9  and  C_32
    3  A    between atoms: N_12  and  C_27
    4  A    between atoms: C_14  and  C_32
    5  A    between atoms: C_18  and  C_25
    6  A    between atoms: C_18  and  C_27
                            x       y       z     vdW  Elec       q    Type
                         _______ _______ _______ _____ _____    ______ ____

>  <TORSDO>
F 6

$$$$
=
 OpenBabel11062422383D

 44 48  0  0  1  0  0  0  0  0999 V2000
  188.0920  175.7930  142.2370 C   0  0  1  0  0  3  0  0  0  0  0  0
  194.5760  176.0150  146.5220 C   0  0  0  0  0  2  0  0  0  0  0  0
  191.2120  173.2600  140.2630 O   0  0  0  0  0  0  0  0  0  0  0  0
  194.9230  174.9710  145.4680 C   0  0  0  0  0  2  0  0  0  0  0  0
  189.8840  173.4140  139.8080 C   0  0  1  0  0  3  0  0  0  0  0  0
  188.7710  175.6420  143.5890 C   0  0  2  0  0  3  0  0  0  0  0  0
  192.5000  175.6480  142.6160 C   0  0  0  0  0  3  0  0  0  0  0  0
  192.9660  175.6560  144.0320 C   0  0  1  0  0  3  0  0  0  0  0  0
  187.9500  177.3060  142.1140 C   0  0  1  0  0  3  0  0  0  0  0  0
  189.8790  177.3410  145.1280 C   0  0  1  0  0  3  0  0  0  0  0  0
  188.6220  177.5420  145.7160 O   0  0  0  0  0  1  0  0  0  0  0  0
  193.0930  175.9360  146.8520 C   0  0  0  0  0  2  0  0  0  0  0  0
  188.9300  175.2830  141.1970 O   0  0  0  0  0  0  0  0  0  0  0  0
  189.1770  177.9050  142.7760 C   0  0  0  0  0  2  0  0  0  0  0  0
  190.7430  176.3870  145.9630 C   0  0  1  0  0  3  0  0  0  0  0  0
  194.4640  175.3770  144.0730 C   0  0  0  0  0  2  0  0  0  0  0  0
  192.2260  176.7900  145.9090 C   0  0  2  0  0  3  0  0  0  0  0  0
  187.9570  173.1910  141.1920 O   0  0  0  0  0  0  0  0  0  0  0  0
  189.7260  176.8240  143.6970 C   0  0  2  0  0  3  0  0  0  0  0  0
  192.7230  176.9260  144.5870 O   0  0  0  0  0  0  0  0  0  0  0  0
  192.2000  174.5060  142.0070 C   0  0  0  0  0  3  0  0  0  0  0  0
  190.3110  176.3730  147.2930 O   0  0  0  0  0  1  0  0  0  0  0  0
  191.7150  174.5210  140.6020 C   0  0  0  0  0  2  0  0  0  0  0  0
  188.8660  173.9540  140.7720 C   0  0  0  0  0  0  0  0  0  0  0  0
  189.4650  174.4350  143.6940 O   0  0  0  0  0  1  0  0  0  0  0  0
  188.1940  173.8440  137.9710 C   0  0  0  0  0  1  0  0  0  0  0  0
  189.6520  173.5740  138.2980 C   0  0  2  0  0  3  0  0  0  0  0  0
  189.2810  171.8190  136.6940 O   0  0  0  0  0  1  0  0  0  0  0  0
  190.2760  172.5220  137.3720 C   0  0  1  0  0  3  0  0  0  0  0  0
  191.2940  173.0630  136.3730 C   0  0  0  0  0  2  0  0  0  0  0  0
  194.4460  174.4430  137.8680 C   0  0  1  0  0  0  0  0  0  0  0  0
  192.5580  173.3760  137.0280 N   0  0  0  0  0  0  0  0  0  0  0  0
  193.1510  174.7050  137.0940 C   0  0  2  0  0  3  0  0  0  0  0  0
  196.6040  175.6560  137.2170 O   0  0  0  0  0  0  0  0  0  0  0  0
  193.4520  172.4420  137.6190 C   0  0  0  0  0  0  0  0  0  0  0  0
  193.4500  175.1720  135.7490 N   0  0  0  0  0  1  0  0  0  0  0  0
  193.2140  171.1730  137.6850 N   0  0  0  0  0  2  0  0  0  0  0  0
  195.5710  175.2390  137.8010 C   0  0  0  0  0  0  0  0  0  0  0  0
  194.6050  175.2390  138.9950 N   0  0  0  0  0  2  0  0  0  0  0  0
  194.6260  173.0300  138.1530 N   0  0  0  0  0  2  0  0  0  0  0  0
  187.7830  177.8050  140.6830 C   0  0  0  0  0  2  0  0  0  0  0  0
  186.3940  177.5400  140.2000 C   0  0  0  0  0  0  0  0  0  0  0  0
  185.4360  177.9130  140.8580 O   0  0  0  0  0  0  0  0  0  0  0  0
  186.1780  176.8280  138.9070 C   0  0  0  0  0  1  0  0  0  0  0  0
  1 13  1  6  0  0  0
  1  6  1  0  0  0  0
  2 12  1  0  0  0  0
  3 23  1  0  0  0  0
  4  2  1  0  0  0  0
  5 27  1  6  0  0  0
  5  3  1  0  0  0  0
  5 24  1  0  0  0  0
  6 25  1  6  0  0  0
  6 19  1  0  0  0  0
  8  7  1  6  0  0  0
  8 16  1  0  0  0  0
  8 20  1  0  0  0  0
  9 41  1  6  0  0  0
  9  1  1  0  0  0  0
  9 14  1  0  0  0  0
 10 11  1  1  0  0  0
 10 15  1  0  0  0  0
 15 22  1  1  0  0  0
 16  4  1  0  0  0  0
 17 15  1  0  0  0  0
 17 12  1  6  0  0  0
 19 14  1  6  0  0  0
 19 10  1  0  0  0  0
 20 17  1  0  0  0  0
 21  7  2  0  0  0  0
 23 21  1  0  0  0  0
 24 18  2  0  0  0  0
 24 13  1  0  0  0  0
 27 26  1  1  0  0  0
 29 28  1  6  0  0  0
 29 27  1  0  0  0  0
 30 32  1  0  0  0  0
 30 29  1  0  0  0  0
 31 38  1  6  0  0  0
 31 40  1  0  0  0  0
 31 39  1  0  0  0  0
 32 33  1  0  0  0  0
 32 35  1  0  0  0  0
 33 36  1  6  0  0  0
 33 31  1  0  0  0  0
 34 38  2  0  0  0  0
 35 37  2  0  0  0  0
 35 40  1  0  0  0  0
 38 39  1  0  0  0  0
 42 41  1  0  0  0  0
 42 43  2  0  0  0  0
 44 42  1  0  0  0  0
M  END
>  <MODEL>
8

>  <REMARK>
 VINA RESULT:      -6.9      4.278      7.985
  Name = 
  6 active torsions:
  status: ('A' for Active; 'I' for Inactive)
    1  A    between atoms: C_7  and  C_25
    2  A    between atoms: C_9  and  C_32
    3  A    between atoms: N_12  and  C_27
    4  A    between atoms: C_14  and  C_32
    5  A    between atoms: C_18  and  C_25
    6  A    between atoms: C_18  and  C_27
                            x       y       z     vdW  Elec       q    Type
                         _______ _______ _______ _____ _____    ______ ____

>  <TORSDO>
F 6

$$$$
=
 OpenBabel11062422383D

 44 48  0  0  1  0  0  0  0  0999 V2000
  187.9760  175.3840  142.4790 C   0  0  1  0  0  3  0  0  0  0  0  0
  194.5710  176.2430  146.5070 C   0  0  0  0  0  2  0  0  0  0  0  0
  191.2550  173.1910  140.3620 O   0  0  0  0  0  0  0  0  0  0  0  0
  194.9800  175.2450  145.4300 C   0  0  0  0  0  2  0  0  0  0  0  0
  189.9010  173.2110  139.9600 C   0  0  1  0  0  3  0  0  0  0  0  0
  188.7210  175.2970  143.8020 C   0  0  2  0  0  3  0  0  0  0  0  0
  192.3870  175.6860  142.6830 C   0  0  0  0  0  3  0  0  0  0  0  0
  192.9070  175.7350  144.0790 C   0  0  1  0  0  3  0  0  0  0  0  0
  187.6770  176.8750  142.3760 C   0  0  1  0  0  3  0  0  0  0  0  0
  189.7110  177.0920  145.3120 C   0  0  1  0  0  3  0  0  0  0  0  0
  188.4650  177.1600  145.9510 O   0  0  0  0  0  1  0  0  0  0  0  0
  193.1190  176.0120  146.8940 C   0  0  0  0  0  2  0  0  0  0  0  0
  188.8180  174.9670  141.4030 O   0  0  0  0  0  0  0  0  0  0  0  0
  188.8620  177.5930  142.9950 C   0  0  0  0  0  2  0  0  0  0  0  0
  190.7010  176.2270  146.1030 C   0  0  1  0  0  3  0  0  0  0  0  0
  194.4260  175.6090  144.0580 C   0  0  0  0  0  2  0  0  0  0  0  0
  192.1320  176.7790  145.9940 C   0  0  2  0  0  3  0  0  0  0  0  0
  188.0640  172.7870  141.4180 O   0  0  0  0  0  0  0  0  0  0  0  0
  189.5540  176.5690  143.8840 C   0  0  2  0  0  3  0  0  0  0  0  0
  192.5590  176.9700  144.6550 O   0  0  0  0  0  0  0  0  0  0  0  0
  192.1810  174.5230  142.0760 C   0  0  0  0  0  3  0  0  0  0  0  0
  190.3260  176.1620  147.4490 O   0  0  0  0  0  1  0  0  0  0  0  0
  191.6400  174.4950  140.6910 C   0  0  0  0  0  2  0  0  0  0  0  0
  188.8730  173.6410  140.9690 C   0  0  0  0  0  0  0  0  0  0  0  0
  189.5380  174.1660  143.8690 O   0  0  0  0  0  1  0  0  0  0  0  0
  188.2010  173.9090  138.2170 C   0  0  0  0  0  1  0  0  0  0  0  0
  189.5930  173.3550  138.4630 C   0  0  2  0  0  3  0  0  0  0  0  0
  189.1130  172.1800  136.4180 O   0  0  0  0  0  1  0  0  0  0  0  0
  189.9160  172.1580  137.5580 C   0  0  1  0  0  3  0  0  0  0  0  0
  191.3810  172.0320  137.1520 C   0  0  0  0  0  2  0  0  0  0  0  0
  192.9970  169.0460  138.7470 C   0  0  1  0  0  0  0  0  0  0  0  0
  191.9360  170.7530  137.5780 N   0  0  0  0  0  0  0  0  0  0  0  0
  192.6340  170.5310  138.8370 C   0  0  2  0  0  3  0  0  0  0  0  0
  195.2620  168.2190  139.6070 O   0  0  0  0  0  0  0  0  0  0  0  0
  191.9710  169.5550  136.8120 C   0  0  0  0  0  0  0  0  0  0  0  0
  193.8380  171.3450  138.8760 N   0  0  0  0  0  1  0  0  0  0  0  0
  191.4560  169.4510  135.6310 N   0  0  0  0  0  2  0  0  0  0  0  0
  194.0390  168.4530  139.4310 C   0  0  0  0  0  0  0  0  0  0  0  0
  192.5640  168.2880  139.8270 N   0  0  0  0  0  2  0  0  0  0  0  0
  192.6050  168.4720  137.4710 N   0  0  0  0  0  2  0  0  0  0  0  0
  187.4020  177.3620  140.9570 C   0  0  0  0  0  2  0  0  0  0  0  0
  185.9940  177.8470  140.8390 C   0  0  0  0  0  0  0  0  0  0  0  0
  185.4240  177.8140  139.7600 O   0  0  0  0  0  0  0  0  0  0  0  0
  185.2790  178.3620  142.0420 C   0  0  0  0  0  1  0  0  0  0  0  0
  1 13  1  6  0  0  0
  1  6  1  0  0  0  0
  2 12  1  0  0  0  0
  3 23  1  0  0  0  0
  4  2  1  0  0  0  0
  5 27  1  6  0  0  0
  5  3  1  0  0  0  0
  5 24  1  0  0  0  0
  6 25  1  6  0  0  0
  6 19  1  0  0  0  0
  8  7  1  6  0  0  0
  8 20  1  0  0  0  0
  9 41  1  6  0  0  0
  9  1  1  0  0  0  0
  9 14  1  0  0  0  0
 10 11  1  1  0  0  0
 10 15  1  0  0  0  0
 15 22  1  1  0  0  0
 16  8  1  0  0  0  0
 16  4  1  0  0  0  0
 17 15  1  0  0  0  0
 17 12  1  6  0  0  0
 19 14  1  6  0  0  0
 19 10  1  0  0  0  0
 20 17  1  0  0  0  0
 21  7  2  0  0  0  0
 23 21  1  0  0  0  0
 24 13  1  0  0  0  0
 24 18  2  0  0  0  0
 27 26  1  1  0  0  0
 29 28  1  6  0  0  0
 29 27  1  0  0  0  0
 30 29  1  0  0  0  0
 30 32  1  0  0  0  0
 31 40  1  6  0  0  0
 31 33  1  0  0  0  0
 31 38  1  0  0  0  0
 31 39  1  0  0  0  0
 32 33  1  0  0  0  0
 33 36  1  6  0  0  0
 35 40  1  0  0  0  0
 35 32  1  0  0  0  0
 37 35  2  0  0  0  0
 38 34  2  0  0  0  0
 38 39  1  0  0  0  0
 42 41  1  0  0  0  0
 42 44  1  0  0  0  0
 43 42  2  0  0  0  0
M  END
>  <MODEL>
9

>  <REMARK>
 VINA RESULT:      -6.9      4.510      8.381
  Name = 
  6 active torsions:
  status: ('A' for Active; 'I' for Inactive)
    1  A    between atoms: C_7  and  C_25
    2  A    between atoms: C_9  and  C_32
    3  A    between atoms: N_12  and  C_27
    4  A    between atoms: C_14  and  C_32
    5  A    between atoms: C_18  and  C_25
    6  A    between atoms: C_18  and  C_27
                            x       y       z     vdW  Elec       q    Type
                         _______ _______ _______ _____ _____    ______ ____

>  <TORSDO>
F 6

$$$$
