=
 OpenBabel11072409283D

 40 44  0  0  1  0  0  0  0  0999 V2000
  185.7520  177.1010  145.2090 C   0  0  1  0  0  3  0  0  0  0  0  0
  185.3660  177.8730  143.9850 C   0  0  0  0  0  0  0  0  0  0  0  0
  187.9970  176.0730  144.7200 C   0  0  2  0  0  3  0  0  0  0  0  0
  184.0270  177.8950  146.7170 O   0  0  0  0  0  0  0  0  0  0  0  0
  187.5300  175.7160  143.2910 C   0  0  0  0  0  2  0  0  0  0  0  0
  184.9810  179.0320  144.0690 O   0  0  0  0  0  0  0  0  0  0  0  0
  187.0450  176.8300  142.3240 C   0  0  1  0  0  0  0  0  0  0  0  0
  187.4970  177.3180  146.9010 C   0  0  0  0  0  2  0  0  0  0  0  0
  187.2540  177.2310  145.3890 C   0  0  2  0  0  3  0  0  0  0  0  0
  185.2390  177.6420  146.4890 C   0  0  0  0  0  0  0  0  0  0  0  0
  185.5670  177.2260  142.6360 C   0  0  2  0  0  3  0  0  0  0  0  0
  186.2440  177.7830  147.4710 N   0  0  0  0  0  2  0  0  0  0  0  0
  185.0250  178.0330  141.6300 O   0  0  0  0  0  1  0  0  0  0  0  0
  187.9620  178.0520  142.4200 C   0  0  0  0  0  1  0  0  0  0  0  0
  188.3330  175.2880  140.7230 C   0  0  0  0  0  3  0  0  0  0  0  0
  187.6650  174.5550  138.4330 C   0  0  0  0  0  3  0  0  0  0  0  0
  187.1230  177.2670  139.8170 C   0  0  0  0  0  3  0  0  0  0  0  0
  187.1710  176.2250  140.8980 C   0  0  2  0  0  3  0  0  0  0  0  0
  188.5100  174.5280  139.6430 C   0  0  0  0  0  3  0  0  0  0  0  0
  187.0110  176.9770  138.5210 C   0  0  0  0  0  3  0  0  0  0  0  0
  187.0150  175.6190  137.9460 C   0  0  0  0  0  3  0  0  0  0  0  0
  189.4960  176.1720  144.8090 C   0  0  0  0  0  0  0  0  0  0  0  0
  191.6550  175.1120  145.1360 C   0  0  0  0  0  3  0  0  0  0  0  0
  191.5410  177.4700  144.6320 C   0  0  0  0  0  3  0  0  0  0  0  0
  192.3080  176.3310  144.9060 C   0  0  0  0  0  0  0  0  0  0  0  0
  190.1490  177.3910  144.5790 C   0  0  0  0  0  3  0  0  0  0  0  0
  190.2540  175.0220  145.0850 C   0  0  0  0  0  0  0  0  0  0  0  0
  194.6500  175.4820  144.3530 N   0  0  0  0  0  0  0  0  0  0  0  0
  194.2950  177.3820  145.6430 O   0  0  0  0  0  0  0  0  0  0  0  0
  196.9600  176.7550  142.7680 C   0  0  0  0  0  1  0  0  0  0  0  0
  193.7830  176.4360  144.9840 C   0  0  0  0  0  0  0  0  0  0  0  0
  195.9840  175.5200  144.5810 O   0  0  0  0  0  0  0  0  0  0  0  0
  196.5520  175.3910  143.2980 C   0  0  1  0  0  3  0  0  0  0  0  0
  194.3260  174.8950  143.0780 C   0  0  0  0  0  2  0  0  0  0  0  0
  195.5910  174.7660  142.3900 N   0  0  0  0  0  2  0  0  0  0  0  0
  189.6000  173.8030  145.3140 O   0  0  0  0  0  0  0  0  0  0  0  0
  190.0150  172.5710  144.7350 C   0  0  0  0  0  2  0  0  0  0  0  0
  188.5680  172.2320  142.8700 O   0  0  0  0  0  1  0  0  0  0  0  0
  190.6930  172.9210  142.3620 O   0  0  0  0  0  0  0  0  0  0  0  0
  189.7130  172.5610  143.2760 C   0  0  0  0  0  0  0  0  0  0  0  0
  1  2  1  6  0  0  0
  1  9  1  0  0  0  0
  1 10  1  0  0  0  0
  2  6  2  0  0  0  0
  3 22  1  6  0  0  0
  3  9  1  0  0  0  0
  5  3  1  0  0  0  0
  7 14  1  1  0  0  0
  7 11  1  0  0  0  0
  7  5  1  0  0  0  0
  8 12  1  0  0  0  0
  9  8  1  1  0  0  0
 10  4  2  0  0  0  0
 10 12  1  0  0  0  0
 11 13  1  6  0  0  0
 11  2  1  0  0  0  0
 15 18  1  0  0  0  0
 16 19  1  0  0  0  0
 18 17  1  6  0  0  0
 18  7  1  0  0  0  0
 19 15  2  0  0  0  0
 20 17  2  0  0  0  0
 21 16  2  0  0  0  0
 21 20  1  0  0  0  0
 22 27  1  0  0  0  0
 24 25  2  0  0  0  0
 25 31  1  0  0  0  0
 25 23  1  0  0  0  0
 26 24  1  0  0  0  0
 26 22  2  0  0  0  0
 27 23  2  0  0  0  0
 27 36  1  0  0  0  0
 28 32  1  0  0  0  0
 28 31  1  0  0  0  0
 31 29  2  0  0  0  0
 33 30  1  6  0  0  0
 33 32  1  0  0  0  0
 34 28  1  0  0  0  0
 35 34  1  0  0  0  0
 35 33  1  0  0  0  0
 37 36  1  0  0  0  0
 38 40  1  0  0  0  0
 39 40  2  0  0  0  0
 40 37  1  0  0  0  0
M  END
>  <MODEL>
1

>  <REMARK>
 VINA RESULT:      -8.4      0.000      0.000
  Name = 
  6 active torsions:
  status: ('A' for Active; 'I' for Inactive)
    1  A    between atoms: C_3  and  C_6
    2  A    between atoms: C_14  and  C_18
    3  A    between atoms: C_15  and  O_25
    4  A    between atoms: C_15  and  C_31
    5  A    between atoms: C_17  and  C_28
    6  A    between atoms: O_25  and  C_33
                            x       y       z     vdW  Elec       q    Type
                         _______ _______ _______ _____ _____    ______ ____

>  <TORSDO>
F 6

$$$$
=
 OpenBabel11072409283D

 40 44  0  0  1  0  0  0  0  0999 V2000
  187.8730  176.8880  145.8680 C   0  0  1  0  0  3  0  0  0  0  0  0
  188.5770  176.0700  146.9070 C   0  0  0  0  0  0  0  0  0  0  0  0
  188.8870  176.2450  143.6550 C   0  0  2  0  0  3  0  0  0  0  0  0
  186.0930  177.7950  147.2400 O   0  0  0  0  0  0  0  0  0  0  0  0
  190.2950  176.2430  144.2920 C   0  0  0  0  0  2  0  0  0  0  0  0
  187.9440  175.4440  147.7470 O   0  0  0  0  0  0  0  0  0  0  0  0
  190.6060  175.3180  145.5000 C   0  0  1  0  0  0  0  0  0  0  0  0
  186.3570  176.3880  144.0220 C   0  0  0  0  0  2  0  0  0  0  0  0
  187.7220  176.0310  144.6230 C   0  0  2  0  0  3  0  0  0  0  0  0
  186.4670  177.2350  146.1770 C   0  0  0  0  0  0  0  0  0  0  0  0
  190.0790  175.9480  146.8280 C   0  0  2  0  0  3  0  0  0  0  0  0
  185.5790  176.9380  145.1190 N   0  0  0  0  0  2  0  0  0  0  0  0
  190.5660  175.2710  147.9500 O   0  0  0  0  0  1  0  0  0  0  0  0
  189.9930  173.9330  145.2800 C   0  0  0  0  0  1  0  0  0  0  0  0
  192.8800  176.4130  145.9790 C   0  0  0  0  0  3  0  0  0  0  0  0
  195.1220  175.3190  146.0520 C   0  0  0  0  0  3  0  0  0  0  0  0
  192.7110  174.6400  144.2390 C   0  0  0  0  0  3  0  0  0  0  0  0
  192.1540  175.1780  145.5260 C   0  0  2  0  0  3  0  0  0  0  0  0
  194.1850  176.4430  146.2460 C   0  0  0  0  0  3  0  0  0  0  0  0
  193.9760  174.2480  144.0920 C   0  0  0  0  0  3  0  0  0  0  0  0
  195.0310  174.3670  145.1160 C   0  0  0  0  0  3  0  0  0  0  0  0
  188.8300  175.3800  142.4250 C   0  0  0  0  0  0  0  0  0  0  0  0
  188.2230  175.0790  140.0950 C   0  0  0  0  0  3  0  0  0  0  0  0
  189.3630  173.3090  141.2740 C   0  0  0  0  0  3  0  0  0  0  0  0
  188.7840  173.7950  140.0960 C   0  0  0  0  0  0  0  0  0  0  0  0
  189.3910  174.0950  142.4260 C   0  0  0  0  0  3  0  0  0  0  0  0
  188.2450  175.8790  141.2500 C   0  0  0  0  0  0  0  0  0  0  0  0
  189.5580  173.2000  137.7380 N   0  0  0  0  0  0  0  0  0  0  0  0
  187.9430  171.9620  138.8580 O   0  0  0  0  0  0  0  0  0  0  0  0
  190.9730  170.7040  136.6240 C   0  0  0  0  0  1  0  0  0  0  0  0
  188.7400  172.9390  138.8880 C   0  0  0  0  0  0  0  0  0  0  0  0
  189.3730  172.4940  136.5980 O   0  0  0  0  0  0  0  0  0  0  0  0
  190.6770  172.1340  136.2040 C   0  0  1  0  0  3  0  0  0  0  0  0
  190.9040  173.6950  137.8660 C   0  0  0  0  0  2  0  0  0  0  0  0
  191.6470  173.0470  136.8100 N   0  0  0  0  0  2  0  0  0  0  0  0
  187.6850  177.1640  141.2500 O   0  0  0  0  0  0  0  0  0  0  0  0
  186.7810  177.6240  140.2520 C   0  0  0  0  0  2  0  0  0  0  0  0
  184.4640  178.1850  140.3280 O   0  0  0  0  0  0  0  0  0  0  0  0
  185.7170  178.9080  142.1060 O   0  0  0  0  0  1  0  0  0  0  0  0
  185.5890  178.2520  140.8890 C   0  0  0  0  0  0  0  0  0  0  0  0
  1 10  1  1  0  0  0
  1  2  1  0  0  0  0
  2  6  2  0  0  0  0
  3 22  1  6  0  0  0
  3  5  1  0  0  0  0
  3  9  1  0  0  0  0
  5  7  1  0  0  0  0
  7 14  1  6  0  0  0
  7 18  1  0  0  0  0
  7 11  1  0  0  0  0
  8 12  1  0  0  0  0
  9  8  1  6  0  0  0
  9  1  1  0  0  0  0
 10  4  2  0  0  0  0
 11  2  1  0  0  0  0
 11 13  1  1  0  0  0
 12 10  1  0  0  0  0
 15 19  2  0  0  0  0
 16 19  1  0  0  0  0
 18 17  1  6  0  0  0
 18 15  1  0  0  0  0
 20 17  2  0  0  0  0
 20 21  1  0  0  0  0
 21 16  2  0  0  0  0
 22 26  1  0  0  0  0
 23 25  2  0  0  0  0
 23 27  1  0  0  0  0
 24 26  2  0  0  0  0
 25 24  1  0  0  0  0
 27 22  2  0  0  0  0
 28 34  1  0  0  0  0
 28 31  1  0  0  0  0
 29 31  2  0  0  0  0
 31 25  1  0  0  0  0
 32 28  1  0  0  0  0
 33 32  1  0  0  0  0
 33 30  1  1  0  0  0
 33 35  1  0  0  0  0
 35 34  1  0  0  0  0
 36 27  1  0  0  0  0
 37 40  1  0  0  0  0
 37 36  1  0  0  0  0
 38 40  2  0  0  0  0
 40 39  1  0  0  0  0
M  END
>  <MODEL>
2

>  <REMARK>
 VINA RESULT:      -7.8      2.861      6.925
  Name = 
  6 active torsions:
  status: ('A' for Active; 'I' for Inactive)
    1  A    between atoms: C_3  and  C_6
    2  A    between atoms: C_14  and  C_18
    3  A    between atoms: C_15  and  O_25
    4  A    between atoms: C_15  and  C_31
    5  A    between atoms: C_17  and  C_28
    6  A    between atoms: O_25  and  C_33
                            x       y       z     vdW  Elec       q    Type
                         _______ _______ _______ _____ _____    ______ ____

>  <TORSDO>
F 6

$$$$
=
 OpenBabel11072409283D

 40 44  0  0  1  0  0  0  0  0999 V2000
  195.6630  174.6530  142.1370 C   0  0  1  0  0  3  0  0  0  0  0  0
  196.7750  174.4030  143.1090 C   0  0  0  0  0  0  0  0  0  0  0  0
  193.5330  174.0160  143.3180 C   0  0  2  0  0  3  0  0  0  0  0  0
  196.9090  175.8470  140.4350 O   0  0  0  0  0  0  0  0  0  0  0  0
  194.2260  172.7650  143.9070 C   0  0  0  0  0  2  0  0  0  0  0  0
  197.6240  175.2580  143.3250 O   0  0  0  0  0  0  0  0  0  0  0  0
  195.4960  172.9160  144.7870 C   0  0  1  0  0  0  0  0  0  0  0  0
  193.7910  176.2140  142.0300 C   0  0  0  0  0  2  0  0  0  0  0  0
  194.4650  175.1610  142.9190 C   0  0  2  0  0  3  0  0  0  0  0  0
  195.8960  175.7540  141.1750 C   0  0  0  0  0  0  0  0  0  0  0  0
  196.7630  173.1160  143.8970 C   0  0  2  0  0  3  0  0  0  0  0  0
  194.8230  176.6710  141.1150 N   0  0  0  0  0  2  0  0  0  0  0  0
  197.9410  172.9960  144.6410 O   0  0  0  0  0  1  0  0  0  0  0  0
  195.3320  174.0850  145.7610 C   0  0  0  0  0  1  0  0  0  0  0  0
  196.9000  170.8730  145.4610 C   0  0  0  0  0  3  0  0  0  0  0  0
  196.3920  169.1780  147.2210 C   0  0  0  0  0  3  0  0  0  0  0  0
  194.4190  170.6860  145.3790 C   0  0  0  0  0  3  0  0  0  0  0  0
  195.5910  171.5980  145.6050 C   0  0  2  0  0  3  0  0  0  0  0  0
  197.2510  169.8310  146.2150 C   0  0  0  0  0  3  0  0  0  0  0  0
  194.1790  169.6000  146.1140 C   0  0  0  0  0  3  0  0  0  0  0  0
  195.0580  169.0770  147.1760 C   0  0  0  0  0  3  0  0  0  0  0  0
  192.3540  174.4440  144.1490 C   0  0  0  0  0  0  0  0  0  0  0  0
  190.0090  174.2290  144.7340 C   0  0  0  0  0  3  0  0  0  0  0  0
  191.4110  175.7720  145.9500 C   0  0  0  0  0  3  0  0  0  0  0  0
  190.1560  175.1860  145.7480 C   0  0  0  0  0  0  0  0  0  0  0  0
  192.5010  175.4010  145.1630 C   0  0  0  0  0  3  0  0  0  0  0  0
  191.1000  173.8490  143.9350 C   0  0  0  0  0  0  0  0  0  0  0  0
  188.3600  176.8800  146.3970 N   0  0  0  0  0  0  0  0  0  0  0  0
  188.5830  174.8370  147.4810 O   0  0  0  0  0  0  0  0  0  0  0  0
  185.2880  176.7250  146.3250 C   0  0  0  0  0  1  0  0  0  0  0  0
  189.0020  175.6080  146.5760 C   0  0  0  0  0  0  0  0  0  0  0  0
  187.4180  177.2950  147.2750 O   0  0  0  0  0  0  0  0  0  0  0  0
  186.3770  177.7750  146.4560 C   0  0  1  0  0  3  0  0  0  0  0  0
  188.1900  177.4630  145.0910 C   0  0  0  0  0  2  0  0  0  0  0  0
  186.9040  178.1200  145.1360 N   0  0  0  0  0  2  0  0  0  0  0  0
  190.9540  172.8910  142.9220 O   0  0  0  0  0  0  0  0  0  0  0  0
  189.7860  172.0940  142.7600 C   0  0  0  0  0  2  0  0  0  0  0  0
  187.8280  173.0400  141.7820 O   0  0  0  0  0  1  0  0  0  0  0  0
  189.5220  172.5410  140.3210 O   0  0  0  0  0  0  0  0  0  0  0  0
  188.9870  172.5830  141.6010 C   0  0  0  0  0  0  0  0  0  0  0  0
  1 10  1  6  0  0  0
  1  9  1  0  0  0  0
  1  2  1  0  0  0  0
  2  6  2  0  0  0  0
  2 11  1  0  0  0  0
  3  5  1  0  0  0  0
  3 22  1  1  0  0  0
  4 10  2  0  0  0  0
  5  7  1  0  0  0  0
  7 18  1  0  0  0  0
  7 14  1  1  0  0  0
  9  8  1  6  0  0  0
  9  3  1  0  0  0  0
 11 13  1  1  0  0  0
 11  7  1  0  0  0  0
 12 10  1  0  0  0  0
 12  8  1  0  0  0  0
 15 18  1  0  0  0  0
 15 19  2  0  0  0  0
 17 20  2  0  0  0  0
 18 17  1  6  0  0  0
 19 16  1  0  0  0  0
 20 21  1  0  0  0  0
 21 16  2  0  0  0  0
 22 26  1  0  0  0  0
 23 25  2  0  0  0  0
 25 24  1  0  0  0  0
 25 31  1  0  0  0  0
 26 24  2  0  0  0  0
 27 22  2  0  0  0  0
 27 23  1  0  0  0  0
 28 31  1  0  0  0  0
 28 32  1  0  0  0  0
 31 29  2  0  0  0  0
 33 30  1  6  0  0  0
 33 32  1  0  0  0  0
 34 35  1  0  0  0  0
 34 28  1  0  0  0  0
 35 33  1  0  0  0  0
 36 27  1  0  0  0  0
 37 36  1  0  0  0  0
 39 40  2  0  0  0  0
 40 38  1  0  0  0  0
 40 37  1  0  0  0  0
M  END
>  <MODEL>
3

>  <REMARK>
 VINA RESULT:      -7.5      3.045      9.149
  Name = 
  6 active torsions:
  status: ('A' for Active; 'I' for Inactive)
    1  A    between atoms: C_3  and  C_6
    2  A    between atoms: C_14  and  C_18
    3  A    between atoms: C_15  and  O_25
    4  A    between atoms: C_15  and  C_31
    5  A    between atoms: C_17  and  C_28
    6  A    between atoms: O_25  and  C_33
                            x       y       z     vdW  Elec       q    Type
                         _______ _______ _______ _____ _____    ______ ____

>  <TORSDO>
F 6

$$$$
=
 OpenBabel11072409283D

 40 44  0  0  1  0  0  0  0  0999 V2000
  193.3110  172.1380  143.3940 C   0  0  1  0  0  3  0  0  0  0  0  0
  192.5300  171.1150  142.6280 C   0  0  0  0  0  0  0  0  0  0  0  0
  191.9290  174.2430  143.3760 C   0  0  2  0  0  3  0  0  0  0  0  0
  195.0270  170.6950  144.3150 O   0  0  0  0  0  0  0  0  0  0  0  0
  191.5770  174.0080  141.8900 C   0  0  0  0  0  2  0  0  0  0  0  0
  192.3400  169.9980  143.0880 O   0  0  0  0  0  0  0  0  0  0  0  0
  190.8660  172.6990  141.4520 C   0  0  1  0  0  0  0  0  0  0  0  0
  192.9960  173.3120  145.5100 C   0  0  0  0  0  2  0  0  0  0  0  0
  192.3250  172.9950  144.1680 C   0  0  2  0  0  3  0  0  0  0  0  0
  194.1710  171.6030  144.4750 C   0  0  0  0  0  0  0  0  0  0  0  0
  191.8910  171.5290  141.3250 C   0  0  2  0  0  3  0  0  0  0  0  0
  193.9870  172.2680  145.7070 N   0  0  0  0  0  2  0  0  0  0  0  0
  191.3300  170.4160  140.6900 O   0  0  0  0  0  1  0  0  0  0  0  0
  189.7580  172.3390  142.4450 C   0  0  0  0  0  1  0  0  0  0  0  0
  191.1940  173.4180  139.0070 C   0  0  0  0  0  3  0  0  0  0  0  0
  189.4990  173.4350  137.1750 C   0  0  0  0  0  3  0  0  0  0  0  0
  189.0780  173.9970  140.1860 C   0  0  0  0  0  3  0  0  0  0  0  0
  190.2150  173.0220  140.0770 C   0  0  2  0  0  3  0  0  0  0  0  0
  190.8640  173.5540  137.7230 C   0  0  0  0  0  3  0  0  0  0  0  0
  188.2460  174.2710  139.1820 C   0  0  0  0  0  3  0  0  0  0  0  0
  188.3630  173.7470  137.8080 C   0  0  0  0  0  3  0  0  0  0  0  0
  190.9060  175.1070  144.0620 C   0  0  0  0  0  0  0  0  0  0  0  0
  190.2350  177.2620  144.9520 C   0  0  0  0  0  3  0  0  0  0  0  0
  188.6860  175.4120  144.9980 C   0  0  0  0  0  3  0  0  0  0  0  0
  188.9700  176.7530  145.2800 C   0  0  0  0  0  0  0  0  0  0  0  0
  189.6420  174.5980  144.3900 C   0  0  0  0  0  3  0  0  0  0  0  0
  191.2040  176.4510  144.3410 C   0  0  0  0  0  0  0  0  0  0  0  0
  186.9290  178.2830  145.2130 N   0  0  0  0  0  0  0  0  0  0  0  0
  188.0020  177.7390  147.2010 O   0  0  0  0  0  0  0  0  0  0  0  0
  184.1160  177.9860  146.4260 C   0  0  0  0  0  1  0  0  0  0  0  0
  187.9540  177.5980  145.9480 C   0  0  0  0  0  0  0  0  0  0  0  0
  186.1210  179.1700  145.8390 O   0  0  0  0  0  0  0  0  0  0  0  0
  184.8300  178.8340  145.3870 C   0  0  1  0  0  3  0  0  0  0  0  0
  186.3060  177.6920  144.0570 C   0  0  0  0  0  2  0  0  0  0  0  0
  184.9220  178.1050  144.1220 N   0  0  0  0  0  2  0  0  0  0  0  0
  192.4690  176.9590  144.0120 O   0  0  0  0  0  0  0  0  0  0  0  0
  193.5480  177.0320  144.9360 C   0  0  0  0  0  2  0  0  0  0  0  0
  195.5000  175.6930  145.2270 O   0  0  0  0  0  1  0  0  0  0  0  0
  194.9420  176.1720  143.0570 O   0  0  0  0  0  0  0  0  0  0  0  0
  194.7170  176.2640  144.4230 C   0  0  0  0  0  0  0  0  0  0  0  0
  1  2  1  1  0  0  0
  1  9  1  0  0  0  0
  1 10  1  0  0  0  0
  2  6  2  0  0  0  0
  3 22  1  1  0  0  0
  3  9  1  0  0  0  0
  4 10  2  0  0  0  0
  5  3  1  0  0  0  0
  7  5  1  0  0  0  0
  7 14  1  1  0  0  0
  8 12  1  0  0  0  0
  9  8  1  1  0  0  0
 10 12  1  0  0  0  0
 11 13  1  1  0  0  0
 11  7  1  0  0  0  0
 11  2  1  0  0  0  0
 16 19  1  0  0  0  0
 16 21  2  0  0  0  0
 18 15  1  6  0  0  0
 18 17  1  0  0  0  0
 18  7  1  0  0  0  0
 19 15  2  0  0  0  0
 20 17  2  0  0  0  0
 21 20  1  0  0  0  0
 22 27  2  0  0  0  0
 22 26  1  0  0  0  0
 23 25  2  0  0  0  0
 24 25  1  0  0  0  0
 25 31  1  0  0  0  0
 26 24  2  0  0  0  0
 27 23  1  0  0  0  0
 28 32  1  0  0  0  0
 28 31  1  0  0  0  0
 31 29  2  0  0  0  0
 33 32  1  0  0  0  0
 33 30  1  1  0  0  0
 34 35  1  0  0  0  0
 34 28  1  0  0  0  0
 35 33  1  0  0  0  0
 36 27  1  0  0  0  0
 36 37  1  0  0  0  0
 39 40  2  0  0  0  0
 40 37  1  0  0  0  0
 40 38  1  0  0  0  0
M  END
>  <MODEL>
4

>  <REMARK>
 VINA RESULT:      -7.5      2.369      7.410
  Name = 
  6 active torsions:
  status: ('A' for Active; 'I' for Inactive)
    1  A    between atoms: C_3  and  C_6
    2  A    between atoms: C_14  and  C_18
    3  A    between atoms: C_15  and  O_25
    4  A    between atoms: C_15  and  C_31
    5  A    between atoms: C_17  and  C_28
    6  A    between atoms: O_25  and  C_33
                            x       y       z     vdW  Elec       q    Type
                         _______ _______ _______ _____ _____    ______ ____

>  <TORSDO>
F 6

$$$$
=
 OpenBabel11072409283D

 40 44  0  0  1  0  0  0  0  0999 V2000
  194.9570  173.9560  145.4070 C   0  0  1  0  0  3  0  0  0  0  0  0
  194.5170  175.2850  145.9410 C   0  0  0  0  0  0  0  0  0  0  0  0
  193.3380  173.3580  143.5750 C   0  0  2  0  0  3  0  0  0  0  0  0
  197.0970  173.7860  146.5330 O   0  0  0  0  0  0  0  0  0  0  0  0
  192.1610  173.8670  144.4380 C   0  0  0  0  0  2  0  0  0  0  0  0
  195.3170  176.2010  146.0790 O   0  0  0  0  0  0  0  0  0  0  0  0
  192.1380  175.3360  144.9410 C   0  0  1  0  0  0  0  0  0  0  0  0
  195.8750  173.1720  143.2870 C   0  0  0  0  0  2  0  0  0  0  0  0
  194.7080  173.9490  143.9090 C   0  0  2  0  0  3  0  0  0  0  0  0
  196.4120  173.6920  145.4810 C   0  0  0  0  0  0  0  0  0  0  0  0
  193.0460  175.5030  146.2000 C   0  0  2  0  0  3  0  0  0  0  0  0
  196.9560  173.2500  144.2550 N   0  0  0  0  0  2  0  0  0  0  0  0
  192.8450  176.7400  146.8210 O   0  0  0  0  0  1  0  0  0  0  0  0
  192.5820  176.2860  143.8260 C   0  0  0  0  0  1  0  0  0  0  0  0
  190.0950  174.7990  146.4040 C   0  0  0  0  0  3  0  0  0  0  0  0
  187.9340  176.0410  146.5340 C   0  0  0  0  0  3  0  0  0  0  0  0
  189.7590  175.6130  144.0750 C   0  0  0  0  0  3  0  0  0  0  0  0
  190.6510  175.6330  145.2830 C   0  0  2  0  0  3  0  0  0  0  0  0
  188.9100  175.0230  146.9700 C   0  0  0  0  0  3  0  0  0  0  0  0
  188.4940  176.0310  144.0870 C   0  0  0  0  0  3  0  0  0  0  0  0
  187.7540  176.4780  145.2810 C   0  0  0  0  0  3  0  0  0  0  0  0
  193.0020  173.3760  142.1080 C   0  0  0  0  0  0  0  0  0  0  0  0
  191.8260  172.4230  140.2110 C   0  0  0  0  0  3  0  0  0  0  0  0
  193.1440  174.4240  139.9220 C   0  0  0  0  0  3  0  0  0  0  0  0
  192.3080  173.4420  139.3780 C   0  0  0  0  0  0  0  0  0  0  0  0
  193.4840  174.3950  141.2750 C   0  0  0  0  0  3  0  0  0  0  0  0
  192.1620  172.3840  141.5750 C   0  0  0  0  0  0  0  0  0  0  0  0
  190.6370  173.2770  137.4560 N   0  0  0  0  0  0  0  0  0  0  0  0
  192.9020  173.6530  137.0980 O   0  0  0  0  0  0  0  0  0  0  0  0
  189.7650  175.3240  135.3300 C   0  0  0  0  0  1  0  0  0  0  0  0
  191.9760  173.4720  137.9350 C   0  0  0  0  0  0  0  0  0  0  0  0
  190.4020  173.1510  136.1290 O   0  0  0  0  0  0  0  0  0  0  0  0
  189.2980  173.9950  135.8970 C   0  0  1  0  0  3  0  0  0  0  0  0
  189.4980  173.7900  138.1700 C   0  0  0  0  0  2  0  0  0  0  0  0
  188.5680  174.2100  137.1470 N   0  0  0  0  0  2  0  0  0  0  0  0
  191.6800  171.3660  142.4090 O   0  0  0  0  0  0  0  0  0  0  0  0
  190.3360  170.8990  142.3780 C   0  0  0  0  0  2  0  0  0  0  0  0
  189.3170  171.9960  144.2330 O   0  0  0  0  0  1  0  0  0  0  0  0
  188.7000  172.7680  142.1650 O   0  0  0  0  0  0  0  0  0  0  0  0
  189.4250  171.9120  142.9820 C   0  0  0  0  0  0  0  0  0  0  0  0
  1 10  1  6  0  0  0
  1  2  1  0  0  0  0
  2  6  2  0  0  0  0
  2 11  1  0  0  0  0
  3 22  1  6  0  0  0
  3  9  1  0  0  0  0
  3  5  1  0  0  0  0
  5  7  1  0  0  0  0
  7 14  1  6  0  0  0
  7 18  1  0  0  0  0
  7 11  1  0  0  0  0
  8 12  1  0  0  0  0
  9  8  1  6  0  0  0
  9  1  1  0  0  0  0
 10  4  2  0  0  0  0
 11 13  1  6  0  0  0
 12 10  1  0  0  0  0
 15 19  2  0  0  0  0
 16 19  1  0  0  0  0
 17 20  2  0  0  0  0
 18 17  1  6  0  0  0
 18 15  1  0  0  0  0
 20 21  1  0  0  0  0
 21 16  2  0  0  0  0
 23 27  2  0  0  0  0
 24 26  1  0  0  0  0
 25 24  2  0  0  0  0
 25 23  1  0  0  0  0
 26 22  2  0  0  0  0
 27 22  1  0  0  0  0
 27 36  1  0  0  0  0
 28 31  1  0  0  0  0
 28 34  1  0  0  0  0
 29 31  2  0  0  0  0
 31 25  1  0  0  0  0
 32 28  1  0  0  0  0
 33 30  1  1  0  0  0
 33 32  1  0  0  0  0
 33 35  1  0  0  0  0
 35 34  1  0  0  0  0
 37 36  1  0  0  0  0
 37 40  1  0  0  0  0
 39 40  2  0  0  0  0
 40 38  1  0  0  0  0
M  END
>  <MODEL>
5

>  <REMARK>
 VINA RESULT:      -7.2      3.505      7.803
  Name = 
  6 active torsions:
  status: ('A' for Active; 'I' for Inactive)
    1  A    between atoms: C_3  and  C_6
    2  A    between atoms: C_14  and  C_18
    3  A    between atoms: C_15  and  O_25
    4  A    between atoms: C_15  and  C_31
    5  A    between atoms: C_17  and  C_28
    6  A    between atoms: O_25  and  C_33
                            x       y       z     vdW  Elec       q    Type
                         _______ _______ _______ _____ _____    ______ ____

>  <TORSDO>
F 6

$$$$
=
 OpenBabel11072409283D

 40 44  0  0  1  0  0  0  0  0999 V2000
  192.9520  172.0060  142.6050 C   0  0  1  0  0  3  0  0  0  0  0  0
  192.3630  171.0290  141.6350 C   0  0  0  0  0  0  0  0  0  0  0  0
  191.5970  174.1170  142.3960 C   0  0  2  0  0  3  0  0  0  0  0  0
  194.4340  170.5060  143.8020 O   0  0  0  0  0  0  0  0  0  0  0  0
  191.5780  173.9610  140.8580 C   0  0  0  0  0  2  0  0  0  0  0  0
  192.0820  169.8900  141.9850 O   0  0  0  0  0  0  0  0  0  0  0  0
  190.9850  172.6810  140.2090 C   0  0  1  0  0  0  0  0  0  0  0  0
  192.1780  173.0710  144.6600 C   0  0  0  0  0  2  0  0  0  0  0  0
  191.8170  172.8280  143.1890 C   0  0  2  0  0  3  0  0  0  0  0  0
  193.5600  171.4110  143.8180 C   0  0  0  0  0  0  0  0  0  0  0  0
  192.0210  171.5130  140.2480 C   0  0  2  0  0  3  0  0  0  0  0  0
  193.1080  172.0120  145.0140 N   0  0  0  0  0  2  0  0  0  0  0  0
  191.6170  170.4380  139.4490 O   0  0  0  0  0  1  0  0  0  0  0  0
  189.6900  172.2770  140.9170 C   0  0  0  0  0  1  0  0  0  0  0  0
  191.7500  173.8130  138.0330 C   0  0  0  0  0  3  0  0  0  0  0  0
  190.6150  173.7820  135.8100 C   0  0  0  0  0  3  0  0  0  0  0  0
  189.3310  173.7890  138.6220 C   0  0  0  0  0  3  0  0  0  0  0  0
  190.6480  173.0780  138.7450 C   0  0  2  0  0  3  0  0  0  0  0  0
  191.7340  174.0760  136.7270 C   0  0  0  0  0  3  0  0  0  0  0  0
  188.7390  174.0470  137.4570 C   0  0  0  0  0  3  0  0  0  0  0  0
  189.3150  173.7700  136.1270 C   0  0  0  0  0  3  0  0  0  0  0  0
  190.4440  174.9510  142.8860 C   0  0  0  0  0  0  0  0  0  0  0  0
  189.6080  177.0000  143.8810 C   0  0  0  0  0  3  0  0  0  0  0  0
  188.0570  175.2920  143.1740 C   0  0  0  0  0  3  0  0  0  0  0  0
  188.2880  176.5510  143.7410 C   0  0  0  0  0  0  0  0  0  0  0  0
  189.1230  174.5010  142.7460 C   0  0  0  0  0  3  0  0  0  0  0  0
  190.6890  176.2120  143.4540 C   0  0  0  0  0  0  0  0  0  0  0  0
  186.3930  177.0200  145.3850 N   0  0  0  0  0  0  0  0  0  0  0  0
  186.8110  178.3900  143.5550 O   0  0  0  0  0  0  0  0  0  0  0  0
  185.8780  179.3870  147.2830 C   0  0  0  0  0  1  0  0  0  0  0  0
  187.1460  177.3680  144.2140 C   0  0  0  0  0  0  0  0  0  0  0  0
  185.2620  177.6970  145.6920 O   0  0  0  0  0  0  0  0  0  0  0  0
  185.3890  177.9650  147.0700 C   0  0  1  0  0  3  0  0  0  0  0  0
  187.0240  176.4490  146.5460 C   0  0  0  0  0  2  0  0  0  0  0  0
  186.3230  177.0150  147.6750 N   0  0  0  0  0  2  0  0  0  0  0  0
  192.0100  176.6610  143.5930 O   0  0  0  0  0  0  0  0  0  0  0  0
  192.6540  176.8220  144.8510 C   0  0  0  0  0  2  0  0  0  0  0  0
  194.9320  176.9220  145.5510 O   0  0  0  0  0  1  0  0  0  0  0  0
  194.5040  175.5550  143.7620 O   0  0  0  0  0  0  0  0  0  0  0  0
  194.0920  176.4430  144.7460 C   0  0  0  0  0  0  0  0  0  0  0  0
  1  2  1  6  0  0  0
  1  9  1  0  0  0  0
  1 10  1  0  0  0  0
  2  6  2  0  0  0  0
  3 22  1  1  0  0  0
  3  9  1  0  0  0  0
  4 10  2  0  0  0  0
  5  3  1  0  0  0  0
  7 11  1  0  0  0  0
  7  5  1  0  0  0  0
  7 14  1  1  0  0  0
  8 12  1  0  0  0  0
  9  8  1  1  0  0  0
 10 12  1  0  0  0  0
 11 13  1  6  0  0  0
 11  2  1  0  0  0  0
 16 21  2  0  0  0  0
 16 19  1  0  0  0  0
 17 18  1  0  0  0  0
 18 15  1  1  0  0  0
 18  7  1  0  0  0  0
 19 15  2  0  0  0  0
 20 17  2  0  0  0  0
 21 20  1  0  0  0  0
 22 27  1  0  0  0  0
 24 25  2  0  0  0  0
 25 23  1  0  0  0  0
 25 31  1  0  0  0  0
 26 22  2  0  0  0  0
 26 24  1  0  0  0  0
 27 36  1  0  0  0  0
 27 23  2  0  0  0  0
 28 32  1  0  0  0  0
 28 34  1  0  0  0  0
 29 31  2  0  0  0  0
 31 28  1  0  0  0  0
 32 33  1  0  0  0  0
 33 30  1  6  0  0  0
 33 35  1  0  0  0  0
 34 35  1  0  0  0  0
 36 37  1  0  0  0  0
 39 40  2  0  0  0  0
 40 37  1  0  0  0  0
 40 38  1  0  0  0  0
M  END
>  <MODEL>
6

>  <REMARK>
 VINA RESULT:      -7.1      2.623      7.491
  Name = 
  6 active torsions:
  status: ('A' for Active; 'I' for Inactive)
    1  A    between atoms: C_3  and  C_6
    2  A    between atoms: C_14  and  C_18
    3  A    between atoms: C_15  and  O_25
    4  A    between atoms: C_15  and  C_31
    5  A    between atoms: C_17  and  C_28
    6  A    between atoms: O_25  and  C_33
                            x       y       z     vdW  Elec       q    Type
                         _______ _______ _______ _____ _____    ______ ____

>  <TORSDO>
F 6

$$$$
=
 OpenBabel11072409283D

 40 44  0  0  1  0  0  0  0  0999 V2000
  194.1750  171.2110  142.6730 C   0  0  1  0  0  3  0  0  0  0  0  0
  193.3870  170.3070  141.7740 C   0  0  0  0  0  0  0  0  0  0  0  0
  192.6980  173.1920  143.1560 C   0  0  2  0  0  3  0  0  0  0  0  0
  196.0210  169.7240  143.1800 O   0  0  0  0  0  0  0  0  0  0  0  0
  192.2450  173.2240  141.6790 C   0  0  0  0  0  2  0  0  0  0  0  0
  193.2840  169.1130  142.0200 O   0  0  0  0  0  0  0  0  0  0  0  0
  191.5650  171.9820  141.0410 C   0  0  1  0  0  0  0  0  0  0  0  0
  193.9670  171.9370  144.9930 C   0  0  0  0  0  2  0  0  0  0  0  0
  193.2110  171.8420  143.6620 C   0  0  2  0  0  3  0  0  0  0  0  0
  195.1380  170.5320  143.5690 C   0  0  0  0  0  0  0  0  0  0  0  0
  192.6320  170.9230  140.6220 C   0  0  2  0  0  3  0  0  0  0  0  0
  195.0170  170.9370  144.9170 N   0  0  0  0  0  2  0  0  0  0  0  0
  192.0770  169.9200  139.8200 O   0  0  0  0  0  1  0  0  0  0  0  0
  190.5540  171.3720  142.0160 C   0  0  0  0  0  1  0  0  0  0  0  0
  191.6370  173.3410  138.8620 C   0  0  0  0  0  3  0  0  0  0  0  0
  189.8690  173.5200  137.1100 C   0  0  0  0  0  3  0  0  0  0  0  0
  189.5200  173.2220  140.1670 C   0  0  0  0  0  3  0  0  0  0  0  0
  190.7970  172.5220  139.8020 C   0  0  2  0  0  3  0  0  0  0  0  0
  191.2220  173.7360  137.6590 C   0  0  0  0  0  3  0  0  0  0  0  0
  188.6010  173.5890  139.2750 C   0  0  0  0  0  3  0  0  0  0  0  0
  188.7310  173.4570  137.8120 C   0  0  0  0  0  3  0  0  0  0  0  0
  191.6900  173.8450  144.0630 C   0  0  0  0  0  0  0  0  0  0  0  0
  190.8100  175.8360  145.1350 C   0  0  0  0  0  3  0  0  0  0  0  0
  189.6970  173.7170  145.4440 C   0  0  0  0  0  3  0  0  0  0  0  0
  189.7660  175.0910  145.7000 C   0  0  0  0  0  0  0  0  0  0  0  0
  190.6460  173.1000  144.6290 C   0  0  0  0  0  3  0  0  0  0  0  0
  191.7710  175.2250  144.3130 C   0  0  0  0  0  0  0  0  0  0  0  0
  188.2040  177.0180  146.3030 N   0  0  0  0  0  0  0  0  0  0  0  0
  188.4090  175.1270  147.6390 O   0  0  0  0  0  0  0  0  0  0  0  0
  185.1450  177.1420  146.6170 C   0  0  0  0  0  1  0  0  0  0  0  0
  188.7650  175.7270  146.5880 C   0  0  0  0  0  0  0  0  0  0  0  0
  187.4170  177.6330  147.2170 O   0  0  0  0  0  0  0  0  0  0  0  0
  186.3180  178.0940  146.4650 C   0  0  1  0  0  3  0  0  0  0  0  0
  187.9100  177.4330  144.9560 C   0  0  0  0  0  2  0  0  0  0  0  0
  186.6950  178.2070  145.0560 N   0  0  0  0  0  2  0  0  0  0  0  0
  192.8150  175.9690  143.7460 O   0  0  0  0  0  0  0  0  0  0  0  0
  193.7480  176.7210  144.5140 C   0  0  0  0  0  2  0  0  0  0  0  0
  194.5810  175.7350  146.5190 O   0  0  0  0  0  1  0  0  0  0  0  0
  195.5720  175.0230  144.5790 O   0  0  0  0  0  0  0  0  0  0  0  0
  194.6530  175.8050  145.2640 C   0  0  0  0  0  0  0  0  0  0  0  0
  1  2  1  6  0  0  0
  1 10  1  0  0  0  0
  1  9  1  0  0  0  0
  2  6  2  0  0  0  0
  3  9  1  0  0  0  0
  3 22  1  1  0  0  0
  4 10  2  0  0  0  0
  5  3  1  0  0  0  0
  7  5  1  0  0  0  0
  7 14  1  1  0  0  0
  9  8  1  1  0  0  0
 10 12  1  0  0  0  0
 11 13  1  1  0  0  0
 11  7  1  0  0  0  0
 11  2  1  0  0  0  0
 12  8  1  0  0  0  0
 16 19  1  0  0  0  0
 16 21  2  0  0  0  0
 18 15  1  1  0  0  0
 18 17  1  0  0  0  0
 18  7  1  0  0  0  0
 19 15  2  0  0  0  0
 20 17  2  0  0  0  0
 21 20  1  0  0  0  0
 22 27  2  0  0  0  0
 22 26  1  0  0  0  0
 23 25  2  0  0  0  0
 24 25  1  0  0  0  0
 25 31  1  0  0  0  0
 26 24  2  0  0  0  0
 27 23  1  0  0  0  0
 28 31  1  0  0  0  0
 28 32  1  0  0  0  0
 31 29  2  0  0  0  0
 33 30  1  6  0  0  0
 33 32  1  0  0  0  0
 34 35  1  0  0  0  0
 34 28  1  0  0  0  0
 35 33  1  0  0  0  0
 36 27  1  0  0  0  0
 36 37  1  0  0  0  0
 37 40  1  0  0  0  0
 39 40  2  0  0  0  0
 40 38  1  0  0  0  0
M  END
>  <MODEL>
7

>  <REMARK>
 VINA RESULT:      -7.1      2.854      7.777
  Name = 
  6 active torsions:
  status: ('A' for Active; 'I' for Inactive)
    1  A    between atoms: C_3  and  C_6
    2  A    between atoms: C_14  and  C_18
    3  A    between atoms: C_15  and  O_25
    4  A    between atoms: C_15  and  C_31
    5  A    between atoms: C_17  and  C_28
    6  A    between atoms: O_25  and  C_33
                            x       y       z     vdW  Elec       q    Type
                         _______ _______ _______ _____ _____    ______ ____

>  <TORSDO>
F 6

$$$$
=
 OpenBabel11072409283D

 40 44  0  0  1  0  0  0  0  0999 V2000
  187.8320  177.2690  144.4490 C   0  0  1  0  0  3  0  0  0  0  0  0
  188.2810  176.8880  145.8260 C   0  0  0  0  0  0  0  0  0  0  0  0
  189.2880  175.9820  142.8490 C   0  0  2  0  0  3  0  0  0  0  0  0
  185.8130  178.4780  145.0290 O   0  0  0  0  0  0  0  0  0  0  0  0
  190.5250  176.2750  143.7280 C   0  0  0  0  0  2  0  0  0  0  0  0
  187.4710  176.5430  146.6770 O   0  0  0  0  0  0  0  0  0  0  0  0
  190.5530  175.8270  145.2140 C   0  0  1  0  0  0  0  0  0  0  0  0
  186.7410  176.0940  142.6090 C   0  0  0  0  0  2  0  0  0  0  0  0
  187.9380  176.0380  143.5660 C   0  0  2  0  0  3  0  0  0  0  0  0
  186.3980  177.6180  144.3220 C   0  0  0  0  0  0  0  0  0  0  0  0
  189.7620  176.8330  146.1080 C   0  0  2  0  0  3  0  0  0  0  0  0
  185.7550  176.9330  143.2670 N   0  0  0  0  0  2  0  0  0  0  0  0
  189.9850  176.6000  147.4700 O   0  0  0  0  0  1  0  0  0  0  0  0
  189.9780  174.4160  145.3540 C   0  0  0  0  0  1  0  0  0  0  0  0
  192.8760  176.9080  145.0200 C   0  0  0  0  0  3  0  0  0  0  0  0
  194.9350  176.3550  146.3180 C   0  0  0  0  0  3  0  0  0  0  0  0
  192.6890  174.4500  145.3770 C   0  0  0  0  0  3  0  0  0  0  0  0
  192.0560  175.7930  145.6080 C   0  0  2  0  0  3  0  0  0  0  0  0
  194.1330  177.1640  145.3790 C   0  0  0  0  0  3  0  0  0  0  0  0
  193.9020  174.1220  145.8210 C   0  0  0  0  0  3  0  0  0  0  0  0
  194.8340  175.0350  146.5090 C   0  0  0  0  0  3  0  0  0  0  0  0
  189.4840  174.7540  142.0020 C   0  0  0  0  0  0  0  0  0  0  0  0
  190.9610  173.2120  140.8480 C   0  0  0  0  0  3  0  0  0  0  0  0
  188.5820  172.8020  140.8720 C   0  0  0  0  0  3  0  0  0  0  0  0
  189.8690  172.4160  140.4780 C   0  0  0  0  0  0  0  0  0  0  0  0
  188.3920  173.9570  141.6310 C   0  0  0  0  0  3  0  0  0  0  0  0
  190.7800  174.3770  141.6120 C   0  0  0  0  0  0  0  0  0  0  0  0
  189.6340  171.1410  138.2790 N   0  0  0  0  0  0  0  0  0  0  0  0
  190.5730  170.1770  140.1730 O   0  0  0  0  0  0  0  0  0  0  0  0
  191.7380  169.9340  136.3850 C   0  0  0  0  0  1  0  0  0  0  0  0
  190.0520  171.2000  139.6500 C   0  0  0  0  0  0  0  0  0  0  0  0
  189.6710  169.9670  137.6070 O   0  0  0  0  0  0  0  0  0  0  0  0
  190.2640  170.3000  136.3720 C   0  0  1  0  0  3  0  0  0  0  0  0
  189.7500  172.2800  137.4040 C   0  0  0  0  0  2  0  0  0  0  0  0
  190.1030  171.7310  136.1150 N   0  0  0  0  0  2  0  0  0  0  0  0
  191.8710  175.1740  141.9840 O   0  0  0  0  0  0  0  0  0  0  0  0
  193.1050  175.1940  141.2740 C   0  0  0  0  0  2  0  0  0  0  0  0
  195.0950  175.3450  142.5790 O   0  0  0  0  0  1  0  0  0  0  0  0
  194.1980  173.2450  142.3790 O   0  0  0  0  0  0  0  0  0  0  0  0
  194.1890  174.6070  142.1100 C   0  0  0  0  0  0  0  0  0  0  0  0
  1 10  1  1  0  0  0
  1  2  1  0  0  0  0
  2 11  1  0  0  0  0
  2  6  2  0  0  0  0
  3 22  1  1  0  0  0
  3  9  1  0  0  0  0
  3  5  1  0  0  0  0
  5  7  1  0  0  0  0
  7 14  1  1  0  0  0
  7 18  1  0  0  0  0
  7 11  1  0  0  0  0
  8 12  1  0  0  0  0
  9  8  1  6  0  0  0
  9  1  1  0  0  0  0
 10  4  2  0  0  0  0
 11 13  1  1  0  0  0
 12 10  1  0  0  0  0
 15 19  2  0  0  0  0
 16 21  2  0  0  0  0
 17 18  1  0  0  0  0
 17 20  2  0  0  0  0
 18 15  1  6  0  0  0
 19 16  1  0  0  0  0
 20 21  1  0  0  0  0
 23 27  1  0  0  0  0
 24 26  2  0  0  0  0
 25 23  2  0  0  0  0
 25 24  1  0  0  0  0
 26 22  1  0  0  0  0
 27 36  1  0  0  0  0
 27 22  2  0  0  0  0
 28 31  1  0  0  0  0
 31 29  2  0  0  0  0
 31 25  1  0  0  0  0
 32 28  1  0  0  0  0
 33 30  1  1  0  0  0
 33 32  1  0  0  0  0
 34 28  1  0  0  0  0
 35 33  1  0  0  0  0
 35 34  1  0  0  0  0
 37 36  1  0  0  0  0
 37 40  1  0  0  0  0
 40 39  2  0  0  0  0
 40 38  1  0  0  0  0
M  END
>  <MODEL>
8

>  <REMARK>
 VINA RESULT:      -7.0      3.262      6.821
  Name = 
  6 active torsions:
  status: ('A' for Active; 'I' for Inactive)
    1  A    between atoms: C_3  and  C_6
    2  A    between atoms: C_14  and  C_18
    3  A    between atoms: C_15  and  O_25
    4  A    between atoms: C_15  and  C_31
    5  A    between atoms: C_17  and  C_28
    6  A    between atoms: O_25  and  C_33
                            x       y       z     vdW  Elec       q    Type
                         _______ _______ _______ _____ _____    ______ ____

>  <TORSDO>
F 6

$$$$
=
 OpenBabel11072409283D

 40 44  0  0  1  0  0  0  0  0999 V2000
  194.8440  173.8680  145.3890 C   0  0  1  0  0  3  0  0  0  0  0  0
  194.4710  175.2180  145.9200 C   0  0  0  0  0  0  0  0  0  0  0  0
  193.1950  173.3460  143.5600 C   0  0  2  0  0  3  0  0  0  0  0  0
  196.9750  173.5930  146.5120 O   0  0  0  0  0  0  0  0  0  0  0  0
  192.0460  173.9160  144.4240 C   0  0  0  0  0  2  0  0  0  0  0  0
  195.3160  176.0930  146.0560 O   0  0  0  0  0  0  0  0  0  0  0  0
  192.0960  175.3850  144.9240 C   0  0  1  0  0  0  0  0  0  0  0  0
  195.7200  173.0350  143.2690 C   0  0  0  0  0  2  0  0  0  0  0  0
  194.5930  173.8700  143.8920 C   0  0  2  0  0  3  0  0  0  0  0  0
  196.2840  173.5310  145.4620 C   0  0  0  0  0  0  0  0  0  0  0  0
  193.0140  175.5090  146.1810 C   0  0  2  0  0  3  0  0  0  0  0  0
  196.8040  173.0600  144.2360 N   0  0  0  0  0  2  0  0  0  0  0  0
  192.8750  176.7550  146.8000 O   0  0  0  0  0  1  0  0  0  0  0  0
  192.5860  176.3090  143.8060 C   0  0  0  0  0  1  0  0  0  0  0  0
  190.0150  174.9190  146.3570 C   0  0  0  0  0  3  0  0  0  0  0  0
  187.9290  176.2790  146.5150 C   0  0  0  0  0  3  0  0  0  0  0  0
  189.7450  175.8260  144.0540 C   0  0  0  0  0  3  0  0  0  0  0  0
  190.6270  175.7550  145.2670 C   0  0  2  0  0  3  0  0  0  0  0  0
  188.8410  175.1930  146.9230 C   0  0  0  0  0  3  0  0  0  0  0  0
  188.5050  176.3160  144.0720 C   0  0  0  0  0  3  0  0  0  0  0  0
  187.7830  176.7660  145.2770 C   0  0  0  0  0  3  0  0  0  0  0  0
  192.8580  173.3780  142.0940 C   0  0  0  0  0  0  0  0  0  0  0  0
  191.6890  172.4380  140.1870 C   0  0  0  0  0  3  0  0  0  0  0  0
  192.9920  174.4510  139.9190 C   0  0  0  0  0  3  0  0  0  0  0  0
  192.1630  173.4690  139.3650 C   0  0  0  0  0  0  0  0  0  0  0  0
  193.3320  174.4100  141.2720 C   0  0  0  0  0  3  0  0  0  0  0  0
  192.0260  172.3860  141.5500 C   0  0  0  0  0  0  0  0  0  0  0  0
  192.7400  173.0420  136.9160 N   0  0  0  0  0  0  0  0  0  0  0  0
  190.7240  173.9980  137.5630 O   0  0  0  0  0  0  0  0  0  0  0  0
  191.4260  171.2420  134.7940 C   0  0  0  0  0  1  0  0  0  0  0  0
  191.8310  173.5130  137.9220 C   0  0  0  0  0  0  0  0  0  0  0  0
  192.4690  173.2460  135.6060 O   0  0  0  0  0  0  0  0  0  0  0  0
  192.7260  171.9980  135.0060 C   0  0  1  0  0  3  0  0  0  0  0  0
  193.5730  171.8870  137.1320 C   0  0  0  0  0  2  0  0  0  0  0  0
  193.6290  171.2170  135.8530 N   0  0  0  0  0  2  0  0  0  0  0  0
  191.5510  171.3560  142.3730 O   0  0  0  0  0  0  0  0  0  0  0  0
  190.1940  170.9260  142.3870 C   0  0  0  0  0  2  0  0  0  0  0  0
  189.3140  171.9160  144.3700 O   0  0  0  0  0  1  0  0  0  0  0  0
  188.6030  172.8460  142.3990 O   0  0  0  0  0  0  0  0  0  0  0  0
  189.3490  171.9170  143.1120 C   0  0  0  0  0  0  0  0  0  0  0  0
  1 10  1  6  0  0  0
  1  2  1  0  0  0  0
  2  6  2  0  0  0  0
  2 11  1  0  0  0  0
  3 22  1  6  0  0  0
  3  9  1  0  0  0  0
  3  5  1  0  0  0  0
  5  7  1  0  0  0  0
  7 14  1  6  0  0  0
  7 18  1  0  0  0  0
  7 11  1  0  0  0  0
  8 12  1  0  0  0  0
  9  8  1  6  0  0  0
  9  1  1  0  0  0  0
 10  4  2  0  0  0  0
 11 13  1  6  0  0  0
 12 10  1  0  0  0  0
 15 19  2  0  0  0  0
 16 19  1  0  0  0  0
 17 20  2  0  0  0  0
 18 17  1  6  0  0  0
 18 15  1  0  0  0  0
 20 21  1  0  0  0  0
 21 16  2  0  0  0  0
 23 27  2  0  0  0  0
 24 26  1  0  0  0  0
 25 24  2  0  0  0  0
 25 23  1  0  0  0  0
 26 22  2  0  0  0  0
 27 22  1  0  0  0  0
 27 36  1  0  0  0  0
 28 34  1  0  0  0  0
 28 31  1  0  0  0  0
 29 31  2  0  0  0  0
 31 25  1  0  0  0  0
 32 28  1  0  0  0  0
 33 30  1  1  0  0  0
 33 32  1  0  0  0  0
 33 35  1  0  0  0  0
 35 34  1  0  0  0  0
 36 37  1  0  0  0  0
 37 40  1  0  0  0  0
 39 40  2  0  0  0  0
 40 38  1  0  0  0  0
M  END
>  <MODEL>
9

>  <REMARK>
 VINA RESULT:      -6.9      3.755      7.722
  Name = 
  6 active torsions:
  status: ('A' for Active; 'I' for Inactive)
    1  A    between atoms: C_3  and  C_6
    2  A    between atoms: C_14  and  C_18
    3  A    between atoms: C_15  and  O_25
    4  A    between atoms: C_15  and  C_31
    5  A    between atoms: C_17  and  C_28
    6  A    between atoms: O_25  and  C_33
                            x       y       z     vdW  Elec       q    Type
                         _______ _______ _______ _____ _____    ______ ____

>  <TORSDO>
F 6

$$$$
