=
 OpenBabel11072408273D

 34 36  0  0  1  0  0  0  0  0999 V2000
  192.6120  174.3620  145.6330 C   0  0  2  0  0  3  0  0  0  0  0  0
  193.4160  171.1240  143.6930 C   0  0  0  0  0  0  0  0  0  0  0  0
  192.4860  173.3020  144.5720 C   0  0  0  0  0  0  0  0  0  0  0  0
  194.1210  171.9410  145.7540 N   0  0  0  0  0  0  0  0  0  0  0  0
  194.7270  170.8160  145.5460 C   0  0  0  0  0  0  0  0  0  0  0  0
  194.3720  170.1370  144.2500 C   0  0  0  0  0  2  0  0  0  0  0  0
  192.9360  171.0750  142.5310 O   0  0  0  0  0  0  0  0  0  0  0  0
  193.2560  172.2020  144.6570 C   0  0  0  0  0  0  0  0  0  0  0  0
  191.5200  173.4910  143.5280 N   0  0  0  0  0  2  0  0  0  0  0  0
  190.7000  175.4500  142.3650 C   0  0  0  0  0  1  0  0  0  0  0  0
  191.7470  174.3570  142.3830 C   0  0  0  0  0  2  0  0  0  0  0  0
  195.6350  170.3030  146.4740 O   0  0  0  0  0  0  0  0  0  0  0  0
  195.7920  168.9080  146.6970 C   0  0  0  0  0  2  0  0  0  0  0  0
  194.8440  168.4420  147.7860 C   0  0  0  0  0  1  0  0  0  0  0  0
  190.1300  174.3640  146.1380 C   0  0  0  0  0  3  0  0  0  0  0  0
  188.9260  176.4540  146.3920 C   0  0  0  0  0  0  0  0  0  0  0  0
  190.1090  177.1600  146.1510 C   0  0  0  0  0  3  0  0  0  0  0  0
  191.3000  176.4700  145.9050 C   0  0  0  0  0  3  0  0  0  0  0  0
  188.9390  175.0520  146.3840 C   0  0  0  0  0  3  0  0  0  0  0  0
  191.3170  175.0720  145.9000 C   0  0  0  0  0  0  0  0  0  0  0  0
  187.6580  177.2120  146.6500 C   0  0  2  0  0  3  0  0  0  0  0  0
  186.8680  176.4910  147.5490 O   0  0  0  0  0  1  0  0  0  0  0  0
  187.2050  178.0960  142.9340 C   0  0  0  0  0  0  0  0  0  0  0  0
  184.6550  180.2420  144.1570 O   0  0  0  0  0  0  0  0  0  0  0  0
  185.9470  178.7370  145.5140 C   0  0  1  0  0  3  0  0  0  0  0  0
  187.9000  177.7700  144.2190 C   0  0  0  0  0  2  0  0  0  0  0  0
  186.8930  177.5220  145.3500 C   0  0  1  0  0  3  0  0  0  0  0  0
  185.5230  179.3300  144.1900 C   0  0  0  0  0  0  0  0  0  0  0  0
  187.7790  177.6230  141.6470 C   0  0  0  0  0  1  0  0  0  0  0  0
  184.7020  178.3260  146.2870 C   0  0  0  0  0  1  0  0  0  0  0  0
  186.1290  178.8790  142.9290 C   0  0  0  0  0  3  0  0  0  0  0  0
  193.9930  175.7440  144.2360 O   0  0  0  0  0  0  0  0  0  0  0  0
  194.5920  175.6790  146.4770 N   0  0  0  0  0  1  0  0  0  0  0  0
  193.7550  175.3000  145.3910 C   0  0  0  0  0  0  0  0  0  0  0  0
  1  3  1  6  0  0  0
  1 20  1  0  0  0  0
  2  6  1  0  0  0  0
  2  8  1  0  0  0  0
  3  8  2  0  0  0  0
  5  4  2  0  0  0  0
  5 12  1  0  0  0  0
  6  5  1  0  0  0  0
  7  2  2  0  0  0  0
  8  4  1  0  0  0  0
  9  3  1  0  0  0  0
 10 11  1  0  0  0  0
 11  9  1  0  0  0  0
 12 13  1  0  0  0  0
 13 14  1  0  0  0  0
 15 19  1  0  0  0  0
 16 21  1  0  0  0  0
 17 16  1  0  0  0  0
 18 17  2  0  0  0  0
 19 16  2  0  0  0  0
 20 18  1  0  0  0  0
 20 15  2  0  0  0  0
 21 22  1  1  0  0  0
 23 26  1  0  0  0  0
 24 28  2  0  0  0  0
 25 30  1  6  0  0  0
 26 27  1  0  0  0  0
 27 25  1  0  0  0  0
 27 21  1  1  0  0  0
 28 25  1  0  0  0  0
 29 23  1  0  0  0  0
 31 23  2  0  0  0  0
 31 28  1  0  0  0  0
 32 34  2  0  0  0  0
 34  1  1  0  0  0  0
 34 33  1  0  0  0  0
M  END
>  <MODEL>
1

>  <REMARK>
 VINA RESULT:      -7.3      0.000      0.000
  Name = 
  9 active torsions:
  status: ('A' for Active; 'I' for Inactive)
    1  A    between atoms: C_1  and  O_19
    2  A    between atoms: C_3  and  C_8
    3  A    between atoms: C_8  and  C_23
    4  A    between atoms: C_9  and  C_11
    5  A    between atoms: C_9  and  C_32
    6  A    between atoms: C_9  and  C_34
    7  A    between atoms: C_11  and  N_15
    8  A    between atoms: N_15  and  C_26
    9  A    between atoms: O_19  and  C_21
                            x       y       z     vdW  Elec       q    Type
                         _______ _______ _______ _____ _____    ______ ____

>  <TORSDO>
F 9

$$$$
=
 OpenBabel11072408273D

 34 36  0  0  1  0  0  0  0  0999 V2000
  192.1910  174.9650  143.4460 C   0  0  2  0  0  3  0  0  0  0  0  0
  195.8130  175.1230  144.7670 C   0  0  0  0  0  0  0  0  0  0  0  0
  193.3140  174.9360  144.4460 C   0  0  0  0  0  0  0  0  0  0  0  0
  194.8620  175.6520  142.7100 N   0  0  0  0  0  0  0  0  0  0  0  0
  196.1390  175.8460  142.6180 C   0  0  0  0  0  0  0  0  0  0  0  0
  196.9150  175.5630  143.8770 C   0  0  0  0  0  2  0  0  0  0  0  0
  195.9750  174.6340  145.9150 O   0  0  0  0  0  0  0  0  0  0  0  0
  194.5620  175.2240  144.0320 C   0  0  0  0  0  0  0  0  0  0  0  0
  193.0050  174.6340  145.8150 N   0  0  0  0  0  2  0  0  0  0  0  0
  191.5350  175.3610  147.5960 C   0  0  0  0  0  1  0  0  0  0  0  0
  192.8060  175.6550  146.8290 C   0  0  0  0  0  2  0  0  0  0  0  0
  196.7180  176.2850  141.4250 O   0  0  0  0  0  0  0  0  0  0  0  0
  196.5720  175.5770  140.2010 C   0  0  0  0  0  2  0  0  0  0  0  0
  197.8910  175.5530  139.4510 C   0  0  0  0  0  1  0  0  0  0  0  0
  189.8260  174.9880  144.3540 C   0  0  0  0  0  3  0  0  0  0  0  0
  188.7390  177.0840  144.9090 C   0  0  0  0  0  0  0  0  0  0  0  0
  189.8860  177.7790  144.5120 C   0  0  0  0  0  3  0  0  0  0  0  0
  191.0010  177.0810  144.0380 C   0  0  0  0  0  3  0  0  0  0  0  0
  188.7110  175.6850  144.8270 C   0  0  0  0  0  3  0  0  0  0  0  0
  190.9770  175.6850  143.9590 C   0  0  0  0  0  0  0  0  0  0  0  0
  187.5530  177.8520  145.4110 C   0  0  2  0  0  3  0  0  0  0  0  0
  187.2460  177.4250  146.7060 O   0  0  0  0  0  1  0  0  0  0  0  0
  185.5850  178.0880  142.1140 C   0  0  0  0  0  0  0  0  0  0  0  0
  182.9940  179.3230  144.2030 O   0  0  0  0  0  0  0  0  0  0  0  0
  185.1250  178.5360  144.9840 C   0  0  1  0  0  3  0  0  0  0  0  0
  186.7390  178.1770  143.0630 C   0  0  0  0  0  2  0  0  0  0  0  0
  186.3380  177.7210  144.4720 C   0  0  1  0  0  3  0  0  0  0  0  0
  184.0940  178.7850  143.9080 C   0  0  0  0  0  0  0  0  0  0  0  0
  185.8240  177.7030  140.6990 C   0  0  0  0  0  1  0  0  0  0  0  0
  184.4580  177.8040  146.1400 C   0  0  0  0  0  1  0  0  0  0  0  0
  184.3610  178.4350  142.5060 C   0  0  0  0  0  3  0  0  0  0  0  0
  192.0880  172.5680  143.5480 O   0  0  0  0  0  0  0  0  0  0  0  0
  191.3410  173.5140  141.5650 N   0  0  0  0  0  1  0  0  0  0  0  0
  191.8730  173.6150  142.8810 C   0  0  0  0  0  0  0  0  0  0  0  0
  1 34  1  1  0  0  0
  1 20  1  0  0  0  0
  1  3  1  0  0  0  0
  2  7  2  0  0  0  0
  3  9  1  0  0  0  0
  4  8  1  0  0  0  0
  5  4  2  0  0  0  0
  5  6  1  0  0  0  0
  6  2  1  0  0  0  0
  8  3  2  0  0  0  0
  8  2  1  0  0  0  0
  9 11  1  0  0  0  0
 11 10  1  0  0  0  0
 12  5  1  0  0  0  0
 13 12  1  0  0  0  0
 14 13  1  0  0  0  0
 15 19  1  0  0  0  0
 16 21  1  0  0  0  0
 17 16  1  0  0  0  0
 18 17  2  0  0  0  0
 19 16  2  0  0  0  0
 20 18  1  0  0  0  0
 20 15  2  0  0  0  0
 21 22  1  1  0  0  0
 23 31  2  0  0  0  0
 23 26  1  0  0  0  0
 25 30  1  1  0  0  0
 26 27  1  0  0  0  0
 27 25  1  0  0  0  0
 27 21  1  1  0  0  0
 28 24  2  0  0  0  0
 28 25  1  0  0  0  0
 29 23  1  0  0  0  0
 31 28  1  0  0  0  0
 33 34  1  0  0  0  0
 34 32  2  0  0  0  0
M  END
>  <MODEL>
2

>  <REMARK>
 VINA RESULT:      -7.1      2.697      4.282
  Name = 
  9 active torsions:
  status: ('A' for Active; 'I' for Inactive)
    1  A    between atoms: C_1  and  O_19
    2  A    between atoms: C_3  and  C_8
    3  A    between atoms: C_8  and  C_23
    4  A    between atoms: C_9  and  C_11
    5  A    between atoms: C_9  and  C_32
    6  A    between atoms: C_9  and  C_34
    7  A    between atoms: C_11  and  N_15
    8  A    between atoms: N_15  and  C_26
    9  A    between atoms: O_19  and  C_21
                            x       y       z     vdW  Elec       q    Type
                         _______ _______ _______ _____ _____    ______ ____

>  <TORSDO>
F 9

$$$$
=
 OpenBabel11072408273D

 34 36  0  0  1  0  0  0  0  0999 V2000
  190.9140  174.5100  144.1470 C   0  0  2  0  0  3  0  0  0  0  0  0
  193.2990  176.5560  146.3880 C   0  0  0  0  0  0  0  0  0  0  0  0
  191.3650  175.3190  145.3330 C   0  0  0  0  0  0  0  0  0  0  0  0
  193.4610  175.8010  144.1930 N   0  0  0  0  0  0  0  0  0  0  0  0
  194.5650  176.4110  144.4840 C   0  0  0  0  0  0  0  0  0  0  0  0
  194.6250  176.9810  145.8760 C   0  0  0  0  0  2  0  0  0  0  0  0
  192.9230  176.6770  147.5820 O   0  0  0  0  0  0  0  0  0  0  0  0
  192.5950  175.8650  145.3180 C   0  0  0  0  0  0  0  0  0  0  0  0
  190.4500  175.5040  146.4230 N   0  0  0  0  0  2  0  0  0  0  0  0
  188.1750  176.3330  146.3830 C   0  0  0  0  0  1  0  0  0  0  0  0
  189.6320  176.6940  146.5800 C   0  0  0  0  0  2  0  0  0  0  0  0
  195.6000  176.5130  143.5520 O   0  0  0  0  0  0  0  0  0  0  0  0
  196.4010  175.4010  143.1770 C   0  0  0  0  0  2  0  0  0  0  0  0
  197.8440  175.8330  142.9930 C   0  0  0  0  0  1  0  0  0  0  0  0
  189.9190  176.5300  142.9870 C   0  0  0  0  0  3  0  0  0  0  0  0
  187.7490  176.3890  141.9130 C   0  0  0  0  0  0  0  0  0  0  0  0
  187.6510  175.0480  142.2960 C   0  0  0  0  0  3  0  0  0  0  0  0
  188.6840  174.4490  143.0220 C   0  0  0  0  0  3  0  0  0  0  0  0
  188.8870  177.1310  142.2610 C   0  0  0  0  0  3  0  0  0  0  0  0
  189.8220  175.1840  143.3680 C   0  0  0  0  0  0  0  0  0  0  0  0
  186.6290  177.0150  141.1380 C   0  0  2  0  0  3  0  0  0  0  0  0
  187.1500  177.6370  140.0000 O   0  0  0  0  0  1  0  0  0  0  0  0
  185.2750  178.6300  144.3560 C   0  0  0  0  0  0  0  0  0  0  0  0
  182.2000  178.6630  142.5820 O   0  0  0  0  0  0  0  0  0  0  0  0
  184.2980  177.9260  141.6720 C   0  0  1  0  0  3  0  0  0  0  0  0
  186.0640  177.7080  143.4790 C   0  0  0  0  0  2  0  0  0  0  0  0
  185.8110  178.0020  141.9940 C   0  0  1  0  0  3  0  0  0  0  0  0
  183.4410  178.5350  142.7580 C   0  0  0  0  0  0  0  0  0  0  0  0
  185.8570  179.1000  145.6400 C   0  0  0  0  0  1  0  0  0  0  0  0
  184.0100  178.6430  140.3610 C   0  0  0  0  0  1  0  0  0  0  0  0
  184.0250  178.9590  144.0380 C   0  0  0  0  0  3  0  0  0  0  0  0
  189.7320  172.8160  145.3720 O   0  0  0  0  0  0  0  0  0  0  0  0
  191.2850  172.0330  143.8370 N   0  0  0  0  0  1  0  0  0  0  0  0
  190.5930  173.0890  144.4950 C   0  0  0  0  0  0  0  0  0  0  0  0
  1 34  1  1  0  0  0
  1  3  1  0  0  0  0
  2  7  2  0  0  0  0
  3  9  1  0  0  0  0
  4  5  2  0  0  0  0
  4  8  1  0  0  0  0
  5  6  1  0  0  0  0
  6  2  1  0  0  0  0
  8  3  2  0  0  0  0
  8  2  1  0  0  0  0
  9 11  1  0  0  0  0
 10 11  1  0  0  0  0
 12  5  1  0  0  0  0
 13 12  1  0  0  0  0
 14 13  1  0  0  0  0
 15 20  1  0  0  0  0
 16 19  1  0  0  0  0
 16 17  2  0  0  0  0
 17 18  1  0  0  0  0
 18 20  2  0  0  0  0
 19 15  2  0  0  0  0
 20  1  1  0  0  0  0
 21 22  1  6  0  0  0
 21 16  1  0  0  0  0
 23 29  1  0  0  0  0
 24 28  2  0  0  0  0
 25 30  1  6  0  0  0
 25 27  1  0  0  0  0
 25 28  1  0  0  0  0
 26 23  1  0  0  0  0
 27 21  1  6  0  0  0
 27 26  1  0  0  0  0
 28 31  1  0  0  0  0
 31 23  2  0  0  0  0
 33 34  1  0  0  0  0
 34 32  2  0  0  0  0
M  END
>  <MODEL>
3

>  <REMARK>
 VINA RESULT:      -7.1      3.119      5.056
  Name = 
  9 active torsions:
  status: ('A' for Active; 'I' for Inactive)
    1  A    between atoms: C_1  and  O_19
    2  A    between atoms: C_3  and  C_8
    3  A    between atoms: C_8  and  C_23
    4  A    between atoms: C_9  and  C_11
    5  A    between atoms: C_9  and  C_32
    6  A    between atoms: C_9  and  C_34
    7  A    between atoms: C_11  and  N_15
    8  A    between atoms: N_15  and  C_26
    9  A    between atoms: O_19  and  C_21
                            x       y       z     vdW  Elec       q    Type
                         _______ _______ _______ _____ _____    ______ ____

>  <TORSDO>
F 9

$$$$
=
 OpenBabel11072408273D

 34 36  0  0  1  0  0  0  0  0999 V2000
  190.0260  176.5950  145.1300 C   0  0  2  0  0  3  0  0  0  0  0  0
  187.1510  175.8570  142.6640 C   0  0  0  0  0  0  0  0  0  0  0  0
  189.2250  175.8370  144.1060 C   0  0  0  0  0  0  0  0  0  0  0  0
  187.7840  177.7770  143.8170 N   0  0  0  0  0  0  0  0  0  0  0  0
  186.7110  178.0530  143.1460 C   0  0  0  0  0  0  0  0  0  0  0  0
  186.1680  176.9140  142.3240 C   0  0  0  0  0  2  0  0  0  0  0  0
  187.0440  174.6500  142.3270 O   0  0  0  0  0  0  0  0  0  0  0  0
  188.1490  176.4290  143.5540 C   0  0  0  0  0  0  0  0  0  0  0  0
  189.6600  174.5220  143.7330 N   0  0  0  0  0  2  0  0  0  0  0  0
  191.5610  173.3260  142.8270 C   0  0  0  0  0  1  0  0  0  0  0  0
  190.4000  174.2460  142.5130 C   0  0  0  0  0  2  0  0  0  0  0  0
  186.1290  179.3210  143.2060 O   0  0  0  0  0  0  0  0  0  0  0  0
  185.4940  179.8150  144.3780 C   0  0  0  0  0  2  0  0  0  0  0  0
  184.2370  179.0170  144.6670 C   0  0  0  0  0  1  0  0  0  0  0  0
  191.8420  175.1190  146.1020 C   0  0  0  0  0  3  0  0  0  0  0  0
  194.1290  175.3010  145.3160 C   0  0  0  0  0  0  0  0  0  0  0  0
  193.7400  176.3100  144.4300 C   0  0  0  0  0  3  0  0  0  0  0  0
  192.4060  176.7230  144.3790 C   0  0  0  0  0  3  0  0  0  0  0  0
  193.1750  174.7060  146.1550 C   0  0  0  0  0  3  0  0  0  0  0  0
  191.4510  176.1300  145.2100 C   0  0  0  0  0  0  0  0  0  0  0  0
  195.5660  174.8750  145.3590 C   0  0  2  0  0  3  0  0  0  0  0  0
  196.3290  175.7590  144.5910 O   0  0  0  0  0  1  0  0  0  0  0  0
  196.7990  171.2350  145.5300 C   0  0  0  0  0  0  0  0  0  0  0  0
  197.4970  171.7200  142.0840 O   0  0  0  0  0  0  0  0  0  0  0  0
  196.4380  173.3400  143.5080 C   0  0  1  0  0  3  0  0  0  0  0  0
  196.5710  172.6550  145.9460 C   0  0  0  0  0  2  0  0  0  0  0  0
  195.7530  173.4180  144.8950 C   0  0  1  0  0  3  0  0  0  0  0  0
  197.0210  171.9750  143.2220 C   0  0  0  0  0  0  0  0  0  0  0  0
  196.8190  170.1630  146.5590 C   0  0  0  0  0  1  0  0  0  0  0  0
  195.4370  173.6840  142.4140 C   0  0  0  0  0  1  0  0  0  0  0  0
  197.0700  170.9380  144.2620 C   0  0  0  0  0  3  0  0  0  0  0  0
  189.5530  177.6340  147.2430 O   0  0  0  0  0  0  0  0  0  0  0  0
  188.5020  175.5980  146.8760 N   0  0  0  0  0  1  0  0  0  0  0  0
  189.3560  176.6600  146.4680 C   0  0  0  0  0  0  0  0  0  0  0  0
  1  3  1  6  0  0  0
  1 20  1  0  0  0  0
  1 34  1  0  0  0  0
  2  8  1  0  0  0  0
  5 12  1  0  0  0  0
  5  4  2  0  0  0  0
  6  2  1  0  0  0  0
  6  5  1  0  0  0  0
  7  2  2  0  0  0  0
  8  4  1  0  0  0  0
  8  3  2  0  0  0  0
  9  3  1  0  0  0  0
 11 10  1  0  0  0  0
 11  9  1  0  0  0  0
 12 13  1  0  0  0  0
 13 14  1  0  0  0  0
 15 19  1  0  0  0  0
 16 21  1  0  0  0  0
 16 19  2  0  0  0  0
 17 16  1  0  0  0  0
 18 17  2  0  0  0  0
 18 20  1  0  0  0  0
 20 15  2  0  0  0  0
 21 22  1  6  0  0  0
 23 26  1  0  0  0  0
 23 29  1  0  0  0  0
 24 28  2  0  0  0  0
 25 30  1  6  0  0  0
 25 27  1  0  0  0  0
 27 21  1  1  0  0  0
 27 26  1  0  0  0  0
 28 25  1  0  0  0  0
 28 31  1  0  0  0  0
 31 23  2  0  0  0  0
 34 33  1  0  0  0  0
 34 32  2  0  0  0  0
M  END
>  <MODEL>
4

>  <REMARK>
 VINA RESULT:      -7.0      2.601      9.252
  Name = 
  9 active torsions:
  status: ('A' for Active; 'I' for Inactive)
    1  A    between atoms: C_1  and  O_19
    2  A    between atoms: C_3  and  C_8
    3  A    between atoms: C_8  and  C_23
    4  A    between atoms: C_9  and  C_11
    5  A    between atoms: C_9  and  C_32
    6  A    between atoms: C_9  and  C_34
    7  A    between atoms: C_11  and  N_15
    8  A    between atoms: N_15  and  C_26
    9  A    between atoms: O_19  and  C_21
                            x       y       z     vdW  Elec       q    Type
                         _______ _______ _______ _____ _____    ______ ____

>  <TORSDO>
F 9

$$$$
=
 OpenBabel11072408273D

 34 36  0  0  1  0  0  0  0  0999 V2000
  190.0560  176.8290  145.1100 C   0  0  2  0  0  3  0  0  0  0  0  0
  186.9960  176.0620  142.8880 C   0  0  0  0  0  0  0  0  0  0  0  0
  189.2150  176.1050  144.0940 C   0  0  0  0  0  0  0  0  0  0  0  0
  187.5780  177.9040  144.1850 N   0  0  0  0  0  0  0  0  0  0  0  0
  186.4140  178.1360  143.6670 C   0  0  0  0  0  0  0  0  0  0  0  0
  185.8870  177.0410  142.7780 C   0  0  0  0  0  2  0  0  0  0  0  0
  186.9630  174.8920  142.4250 O   0  0  0  0  0  0  0  0  0  0  0  0
  188.0340  176.6360  143.7300 C   0  0  0  0  0  0  0  0  0  0  0  0
  189.7230  174.8890  143.5260 N   0  0  0  0  0  2  0  0  0  0  0  0
  191.0720  172.9800  144.1590 C   0  0  0  0  0  1  0  0  0  0  0  0
  189.6990  173.6150  144.2240 C   0  0  0  0  0  2  0  0  0  0  0  0
  185.7300  179.3230  143.9350 O   0  0  0  0  0  0  0  0  0  0  0  0
  184.4040  179.3410  144.4460 C   0  0  0  0  0  2  0  0  0  0  0  0
  184.3620  178.6860  145.8140 C   0  0  0  0  0  1  0  0  0  0  0  0
  192.2150  176.8180  143.7850 C   0  0  0  0  0  3  0  0  0  0  0  0
  194.2570  175.9490  144.7640 C   0  0  0  0  0  0  0  0  0  0  0  0
  193.5630  175.6590  145.9430 C   0  0  0  0  0  3  0  0  0  0  0  0
  192.1990  175.9470  146.0440 C   0  0  0  0  0  3  0  0  0  0  0  0
  193.5780  176.5290  143.6830 C   0  0  0  0  0  3  0  0  0  0  0  0
  191.5200  176.5300  144.9700 C   0  0  0  0  0  0  0  0  0  0  0  0
  195.7190  175.6270  144.6740 C   0  0  2  0  0  3  0  0  0  0  0  0
  196.3250  176.5040  143.7710 O   0  0  0  0  0  1  0  0  0  0  0  0
  195.1820  172.3310  142.7650 C   0  0  0  0  0  0  0  0  0  0  0  0
  195.6100  170.8600  145.9670 O   0  0  0  0  0  0  0  0  0  0  0  0
  195.8150  173.2080  145.5000 C   0  0  1  0  0  3  0  0  0  0  0  0
  194.9950  173.7610  143.1660 C   0  0  0  0  0  2  0  0  0  0  0  0
  195.9670  174.1570  144.2860 C   0  0  1  0  0  3  0  0  0  0  0  0
  195.6200  171.7660  145.0920 C   0  0  0  0  0  0  0  0  0  0  0  0
  195.0110  171.9390  141.3420 C   0  0  0  0  0  1  0  0  0  0  0  0
  197.0460  173.3030  146.3900 C   0  0  0  0  0  1  0  0  0  0  0  0
  195.4130  171.3970  143.6840 C   0  0  0  0  0  3  0  0  0  0  0  0
  189.0830  175.5580  146.9010 O   0  0  0  0  0  0  0  0  0  0  0  0
  189.6020  177.7610  147.4110 N   0  0  0  0  0  1  0  0  0  0  0  0
  189.5570  176.6590  146.5130 C   0  0  0  0  0  0  0  0  0  0  0  0
  1  3  1  6  0  0  0
  1 34  1  0  0  0  0
  2  8  1  0  0  0  0
  5 12  1  0  0  0  0
  5  4  2  0  0  0  0
  6  2  1  0  0  0  0
  6  5  1  0  0  0  0
  7  2  2  0  0  0  0
  8  3  2  0  0  0  0
  8  4  1  0  0  0  0
  9  3  1  0  0  0  0
  9 11  1  0  0  0  0
 10 11  1  0  0  0  0
 12 13  1  0  0  0  0
 13 14  1  0  0  0  0
 15 20  1  0  0  0  0
 16 17  2  0  0  0  0
 17 18  1  0  0  0  0
 19 15  2  0  0  0  0
 19 16  1  0  0  0  0
 20  1  1  0  0  0  0
 20 18  2  0  0  0  0
 21 22  1  6  0  0  0
 21 16  1  0  0  0  0
 23 26  1  0  0  0  0
 23 31  2  0  0  0  0
 25 30  1  1  0  0  0
 26 27  1  0  0  0  0
 27 21  1  1  0  0  0
 27 25  1  0  0  0  0
 28 25  1  0  0  0  0
 28 24  2  0  0  0  0
 29 23  1  0  0  0  0
 31 28  1  0  0  0  0
 34 32  2  0  0  0  0
 34 33  1  0  0  0  0
M  END
>  <MODEL>
5

>  <REMARK>
 VINA RESULT:      -6.9      2.487      8.933
  Name = 
  9 active torsions:
  status: ('A' for Active; 'I' for Inactive)
    1  A    between atoms: C_1  and  O_19
    2  A    between atoms: C_3  and  C_8
    3  A    between atoms: C_8  and  C_23
    4  A    between atoms: C_9  and  C_11
    5  A    between atoms: C_9  and  C_32
    6  A    between atoms: C_9  and  C_34
    7  A    between atoms: C_11  and  N_15
    8  A    between atoms: N_15  and  C_26
    9  A    between atoms: O_19  and  C_21
                            x       y       z     vdW  Elec       q    Type
                         _______ _______ _______ _____ _____    ______ ____

>  <TORSDO>
F 9

$$$$
=
 OpenBabel11072408273D

 34 36  0  0  1  0  0  0  0  0999 V2000
  192.8330  175.3120  145.7240 C   0  0  2  0  0  3  0  0  0  0  0  0
  195.5120  173.1870  143.9350 C   0  0  0  0  0  0  0  0  0  0  0  0
  193.8650  174.9470  144.6920 C   0  0  0  0  0  0  0  0  0  0  0  0
  193.9910  172.7040  145.6290 N   0  0  0  0  0  0  0  0  0  0  0  0
  194.7020  171.6420  145.4200 C   0  0  0  0  0  0  0  0  0  0  0  0
  195.7360  171.7760  144.3340 C   0  0  0  0  0  2  0  0  0  0  0  0
  196.2450  173.8280  143.1380 O   0  0  0  0  0  0  0  0  0  0  0  0
  194.4110  173.7170  144.7240 C   0  0  0  0  0  0  0  0  0  0  0  0
  194.2020  175.9160  143.6890 N   0  0  0  0  0  2  0  0  0  0  0  0
  194.6410  176.3940  141.3560 C   0  0  0  0  0  1  0  0  0  0  0  0
  193.6110  175.9260  142.3620 C   0  0  0  0  0  2  0  0  0  0  0  0
  194.4960  170.4780  146.1640 O   0  0  0  0  0  0  0  0  0  0  0  0
  195.5610  169.6170  146.5430 C   0  0  0  0  0  2  0  0  0  0  0  0
  195.0790  168.6100  147.5700 C   0  0  0  0  0  1  0  0  0  0  0  0
  190.6070  174.4560  144.8710 C   0  0  0  0  0  3  0  0  0  0  0  0
  188.9380  175.9980  144.0220 C   0  0  0  0  0  0  0  0  0  0  0  0
  189.8010  177.0670  144.2790 C   0  0  0  0  0  3  0  0  0  0  0  0
  191.0640  176.8330  144.8310 C   0  0  0  0  0  3  0  0  0  0  0  0
  189.3450  174.6890  144.3180 C   0  0  0  0  0  3  0  0  0  0  0  0
  191.4720  175.5300  145.1310 C   0  0  0  0  0  0  0  0  0  0  0  0
  187.5890  176.2700  143.4260 C   0  0  2  0  0  3  0  0  0  0  0  0
  187.7460  176.6370  142.0870 O   0  0  0  0  0  1  0  0  0  0  0  0
  185.6900  177.7830  146.4090 C   0  0  0  0  0  0  0  0  0  0  0  0
  183.5050  179.0100  143.8950 O   0  0  0  0  0  0  0  0  0  0  0  0
  185.5270  177.7830  143.4720 C   0  0  1  0  0  3  0  0  0  0  0  0
  186.4660  176.7860  145.6060 C   0  0  0  0  0  2  0  0  0  0  0  0
  186.8110  177.3390  144.2160 C   0  0  1  0  0  3  0  0  0  0  0  0
  184.5390  178.4790  144.3800 C   0  0  0  0  0  0  0  0  0  0  0  0
  185.9060  177.8730  147.8770 C   0  0  0  0  0  1  0  0  0  0  0  0
  185.8870  178.7220  142.3300 C   0  0  0  0  0  1  0  0  0  0  0  0
  184.7470  178.5250  145.8340 C   0  0  0  0  0  3  0  0  0  0  0  0
  192.5850  176.7620  147.6220 O   0  0  0  0  0  0  0  0  0  0  0  0
  194.4600  177.1490  146.3130 N   0  0  0  0  0  1  0  0  0  0  0  0
  193.2680  176.4340  146.6170 C   0  0  0  0  0  0  0  0  0  0  0  0
  1  3  1  6  0  0  0
  1 34  1  0  0  0  0
  2  6  1  0  0  0  0
  2  8  1  0  0  0  0
  3  8  2  0  0  0  0
  5  4  2  0  0  0  0
  5 12  1  0  0  0  0
  6  5  1  0  0  0  0
  7  2  2  0  0  0  0
  8  4  1  0  0  0  0
  9  3  1  0  0  0  0
 10 11  1  0  0  0  0
 11  9  1  0  0  0  0
 12 13  1  0  0  0  0
 13 14  1  0  0  0  0
 15 20  1  0  0  0  0
 16 17  2  0  0  0  0
 16 19  1  0  0  0  0
 17 18  1  0  0  0  0
 18 20  2  0  0  0  0
 19 15  2  0  0  0  0
 20  1  1  0  0  0  0
 21 22  1  6  0  0  0
 21 16  1  0  0  0  0
 23 29  1  0  0  0  0
 24 28  2  0  0  0  0
 25 30  1  6  0  0  0
 25 27  1  0  0  0  0
 25 28  1  0  0  0  0
 26 23  1  0  0  0  0
 27 21  1  6  0  0  0
 27 26  1  0  0  0  0
 28 31  1  0  0  0  0
 31 23  2  0  0  0  0
 33 34  1  0  0  0  0
 34 32  2  0  0  0  0
M  END
>  <MODEL>
6

>  <REMARK>
 VINA RESULT:      -6.9      2.020      2.774
  Name = 
  9 active torsions:
  status: ('A' for Active; 'I' for Inactive)
    1  A    between atoms: C_1  and  O_19
    2  A    between atoms: C_3  and  C_8
    3  A    between atoms: C_8  and  C_23
    4  A    between atoms: C_9  and  C_11
    5  A    between atoms: C_9  and  C_32
    6  A    between atoms: C_9  and  C_34
    7  A    between atoms: C_11  and  N_15
    8  A    between atoms: N_15  and  C_26
    9  A    between atoms: O_19  and  C_21
                            x       y       z     vdW  Elec       q    Type
                         _______ _______ _______ _____ _____    ______ ____

>  <TORSDO>
F 9

$$$$
=
 OpenBabel11072408273D

 34 36  0  0  1  0  0  0  0  0999 V2000
  192.5310  175.3540  142.1560 C   0  0  2  0  0  3  0  0  0  0  0  0
  196.3680  175.7200  141.9830 C   0  0  0  0  0  0  0  0  0  0  0  0
  193.9290  175.6360  142.6340 C   0  0  0  0  0  0  0  0  0  0  0  0
  194.7370  175.4460  140.3460 N   0  0  0  0  0  0  0  0  0  0  0  0
  195.8890  175.4740  139.7560 C   0  0  0  0  0  0  0  0  0  0  0  0
  197.0670  175.6610  140.6760 C   0  0  0  0  0  2  0  0  0  0  0  0
  196.9460  175.7280  143.1000 O   0  0  0  0  0  0  0  0  0  0  0  0
  194.9370  175.6210  141.7430 C   0  0  0  0  0  0  0  0  0  0  0  0
  194.1290  175.9450  144.0210 N   0  0  0  0  0  2  0  0  0  0  0  0
  193.3840  175.3250  146.2400 C   0  0  0  0  0  1  0  0  0  0  0  0
  194.2380  174.9290  145.0540 C   0  0  0  0  0  2  0  0  0  0  0  0
  195.9930  175.3370  138.3700 O   0  0  0  0  0  0  0  0  0  0  0  0
  197.2360  175.1170  137.7170 C   0  0  0  0  0  2  0  0  0  0  0  0
  197.2580  175.8330  136.3800 C   0  0  0  0  0  1  0  0  0  0  0  0
  191.3890  177.3690  143.1820 C   0  0  0  0  0  3  0  0  0  0  0  0
  189.5020  177.0860  144.6790 C   0  0  0  0  0  0  0  0  0  0  0  0
  189.5970  175.6990  144.5310 C   0  0  0  0  0  3  0  0  0  0  0  0
  190.5850  175.1470  143.7100 C   0  0  0  0  0  3  0  0  0  0  0  0
  190.4020  177.9220  144.0020 C   0  0  0  0  0  3  0  0  0  0  0  0
  191.4820  175.9770  143.0300 C   0  0  0  0  0  0  0  0  0  0  0  0
  188.4370  177.6580  145.5670 C   0  0  2  0  0  3  0  0  0  0  0  0
  188.5130  177.0490  146.8230 O   0  0  0  0  0  1  0  0  0  0  0  0
  185.6740  178.0350  142.9180 C   0  0  0  0  0  0  0  0  0  0  0  0
  183.6430  178.8410  145.7150 O   0  0  0  0  0  0  0  0  0  0  0  0
  185.9460  178.1690  145.8430 C   0  0  1  0  0  3  0  0  0  0  0  0
  187.0270  178.1330  143.5500 C   0  0  0  0  0  2  0  0  0  0  0  0
  187.0310  177.5130  144.9550 C   0  0  1  0  0  3  0  0  0  0  0  0
  184.6590  178.4300  145.0950 C   0  0  0  0  0  0  0  0  0  0  0  0
  185.5620  177.8070  141.4530 C   0  0  0  0  0  1  0  0  0  0  0  0
  185.6450  177.2770  147.0390 C   0  0  0  0  0  1  0  0  0  0  0  0
  184.5750  178.2380  143.6400 C   0  0  0  0  0  3  0  0  0  0  0  0
  192.7790  173.0140  142.6380 O   0  0  0  0  0  0  0  0  0  0  0  0
  191.4930  173.5150  140.7740 N   0  0  0  0  0  1  0  0  0  0  0  0
  192.2830  173.9000  141.8930 C   0  0  0  0  0  0  0  0  0  0  0  0
  1 34  1  1  0  0  0
  1  3  1  0  0  0  0
  1 20  1  0  0  0  0
  2  7  2  0  0  0  0
  3  9  1  0  0  0  0
  4  8  1  0  0  0  0
  5  4  2  0  0  0  0
  5  6  1  0  0  0  0
  6  2  1  0  0  0  0
  8  2  1  0  0  0  0
  8  3  2  0  0  0  0
  9 11  1  0  0  0  0
 11 10  1  0  0  0  0
 12  5  1  0  0  0  0
 13 12  1  0  0  0  0
 14 13  1  0  0  0  0
 15 19  1  0  0  0  0
 16 21  1  0  0  0  0
 17 16  1  0  0  0  0
 18 17  2  0  0  0  0
 19 16  2  0  0  0  0
 20 15  2  0  0  0  0
 20 18  1  0  0  0  0
 21 22  1  1  0  0  0
 23 26  1  0  0  0  0
 23 31  2  0  0  0  0
 25 30  1  1  0  0  0
 26 27  1  0  0  0  0
 27 21  1  1  0  0  0
 27 25  1  0  0  0  0
 28 24  2  0  0  0  0
 28 25  1  0  0  0  0
 29 23  1  0  0  0  0
 31 28  1  0  0  0  0
 33 34  1  0  0  0  0
 34 32  2  0  0  0  0
M  END
>  <MODEL>
7

>  <REMARK>
 VINA RESULT:      -6.8      3.227      5.095
  Name = 
  9 active torsions:
  status: ('A' for Active; 'I' for Inactive)
    1  A    between atoms: C_1  and  O_19
    2  A    between atoms: C_3  and  C_8
    3  A    between atoms: C_8  and  C_23
    4  A    between atoms: C_9  and  C_11
    5  A    between atoms: C_9  and  C_32
    6  A    between atoms: C_9  and  C_34
    7  A    between atoms: C_11  and  N_15
    8  A    between atoms: N_15  and  C_26
    9  A    between atoms: O_19  and  C_21
                            x       y       z     vdW  Elec       q    Type
                         _______ _______ _______ _____ _____    ______ ____

>  <TORSDO>
F 9

$$$$
=
 OpenBabel11072408273D

 34 36  0  0  1  0  0  0  0  0999 V2000
  191.9870  174.5750  142.6330 C   0  0  2  0  0  3  0  0  0  0  0  0
  195.0450  175.9190  144.5650 C   0  0  0  0  0  0  0  0  0  0  0  0
  192.8040  175.0280  143.8120 C   0  0  0  0  0  0  0  0  0  0  0  0
  194.5500  175.7860  142.2950 N   0  0  0  0  0  0  0  0  0  0  0  0
  195.7390  176.2860  142.4130 C   0  0  0  0  0  0  0  0  0  0  0  0
  196.2160  176.4570  143.8310 C   0  0  0  0  0  2  0  0  0  0  0  0
  195.0140  175.7130  145.8060 O   0  0  0  0  0  0  0  0  0  0  0  0
  194.0260  175.5490  143.5950 C   0  0  0  0  0  0  0  0  0  0  0  0
  192.2330  174.9170  145.1230 N   0  0  0  0  0  2  0  0  0  0  0  0
  190.2890  175.6080  146.3910 C   0  0  0  0  0  1  0  0  0  0  0  0
  191.6250  176.0360  145.8230 C   0  0  0  0  0  2  0  0  0  0  0  0
  196.4920  176.6300  141.2880 O   0  0  0  0  0  0  0  0  0  0  0  0
  197.3020  175.6890  140.5960 C   0  0  0  0  0  2  0  0  0  0  0  0
  196.6420  175.2920  139.2890 C   0  0  0  0  0  1  0  0  0  0  0  0
  189.5050  174.1250  142.8680 C   0  0  0  0  0  3  0  0  0  0  0  0
  187.9130  175.9540  142.8340 C   0  0  0  0  0  0  0  0  0  0  0  0
  188.9640  176.8610  142.6690 C   0  0  0  0  0  3  0  0  0  0  0  0
  190.2830  176.4020  142.6030 C   0  0  0  0  0  3  0  0  0  0  0  0
  188.1860  174.5820  142.9320 C   0  0  0  0  0  3  0  0  0  0  0  0
  190.5600  175.0350  142.7050 C   0  0  0  0  0  0  0  0  0  0  0  0
  186.5050  176.4660  142.8970 C   0  0  2  0  0  3  0  0  0  0  0  0
  186.1580  177.0080  141.6570 O   0  0  0  0  0  1  0  0  0  0  0  0
  186.6710  177.8470  146.4840 C   0  0  0  0  0  0  0  0  0  0  0  0
  183.4020  179.0290  145.7630 O   0  0  0  0  0  0  0  0  0  0  0  0
  184.8240  177.8940  144.1950 C   0  0  1  0  0  3  0  0  0  0  0  0
  186.8550  176.8980  145.3420 C   0  0  0  0  0  2  0  0  0  0  0  0
  186.3100  177.4880  144.0330 C   0  0  1  0  0  3  0  0  0  0  0  0
  184.5360  178.5320  145.5340 C   0  0  0  0  0  0  0  0  0  0  0  0
  187.7010  177.9200  147.5520 C   0  0  0  0  0  1  0  0  0  0  0  0
  184.4290  178.8660  143.0930 C   0  0  0  0  0  1  0  0  0  0  0  0
  185.5530  178.5610  146.5950 C   0  0  0  0  0  3  0  0  0  0  0  0
  192.3690  172.2970  143.2900 O   0  0  0  0  0  0  0  0  0  0  0  0
  191.9650  172.6260  141.0290 N   0  0  0  0  0  1  0  0  0  0  0  0
  192.1150  173.1070  142.3600 C   0  0  0  0  0  0  0  0  0  0  0  0
  1 34  1  1  0  0  0
  1 20  1  0  0  0  0
  1  3  1  0  0  0  0
  2  7  2  0  0  0  0
  3  9  1  0  0  0  0
  4  5  2  0  0  0  0
  4  8  1  0  0  0  0
  5  6  1  0  0  0  0
  6  2  1  0  0  0  0
  8  3  2  0  0  0  0
  8  2  1  0  0  0  0
  9 11  1  0  0  0  0
 11 10  1  0  0  0  0
 12  5  1  0  0  0  0
 13 12  1  0  0  0  0
 14 13  1  0  0  0  0
 15 19  1  0  0  0  0
 16 21  1  0  0  0  0
 16 19  2  0  0  0  0
 17 16  1  0  0  0  0
 18 17  2  0  0  0  0
 18 20  1  0  0  0  0
 20 15  2  0  0  0  0
 21 22  1  6  0  0  0
 23 31  2  0  0  0  0
 23 29  1  0  0  0  0
 25 30  1  6  0  0  0
 25 28  1  0  0  0  0
 26 23  1  0  0  0  0
 27 21  1  6  0  0  0
 27 25  1  0  0  0  0
 27 26  1  0  0  0  0
 28 24  2  0  0  0  0
 28 31  1  0  0  0  0
 33 34  1  0  0  0  0
 34 32  2  0  0  0  0
M  END
>  <MODEL>
8

>  <REMARK>
 VINA RESULT:      -6.7      2.895      4.868
  Name = 
  9 active torsions:
  status: ('A' for Active; 'I' for Inactive)
    1  A    between atoms: C_1  and  O_19
    2  A    between atoms: C_3  and  C_8
    3  A    between atoms: C_8  and  C_23
    4  A    between atoms: C_9  and  C_11
    5  A    between atoms: C_9  and  C_32
    6  A    between atoms: C_9  and  C_34
    7  A    between atoms: C_11  and  N_15
    8  A    between atoms: N_15  and  C_26
    9  A    between atoms: O_19  and  C_21
                            x       y       z     vdW  Elec       q    Type
                         _______ _______ _______ _____ _____    ______ ____

>  <TORSDO>
F 9

$$$$
=
 OpenBabel11072408273D

 34 36  0  0  1  0  0  0  0  0999 V2000
  191.6500  174.3850  142.2770 C   0  0  2  0  0  3  0  0  0  0  0  0
  194.6050  174.0200  144.7310 C   0  0  0  0  0  0  0  0  0  0  0  0
  192.3610  174.1180  143.5750 C   0  0  0  0  0  0  0  0  0  0  0  0
  194.4410  174.8990  142.5820 N   0  0  0  0  0  0  0  0  0  0  0  0
  195.6810  174.9790  142.9490 C   0  0  0  0  0  0  0  0  0  0  0  0
  195.9650  174.4620  144.3350 C   0  0  0  0  0  2  0  0  0  0  0  0
  194.3420  173.3740  145.7780 O   0  0  0  0  0  0  0  0  0  0  0  0
  193.6870  174.3350  143.6470 C   0  0  0  0  0  0  0  0  0  0  0  0
  191.5890  173.6740  144.7000 N   0  0  0  0  0  2  0  0  0  0  0  0
  189.6740  174.2960  146.0450 C   0  0  0  0  0  1  0  0  0  0  0  0
  191.1350  174.5650  145.7540 C   0  0  0  0  0  2  0  0  0  0  0  0
  196.6520  175.5090  142.0980 O   0  0  0  0  0  0  0  0  0  0  0  0
  196.3220  176.2260  140.9160 C   0  0  0  0  0  2  0  0  0  0  0  0
  196.0760  175.2620  139.7710 C   0  0  0  0  0  1  0  0  0  0  0  0
  190.5480  176.6210  142.7280 C   0  0  0  0  0  3  0  0  0  0  0  0
  188.1310  176.8200  142.7590 C   0  0  0  0  0  0  0  0  0  0  0  0
  188.0190  175.4530  142.4840 C   0  0  0  0  0  3  0  0  0  0  0  0
  189.1680  174.6720  142.3310 C   0  0  0  0  0  3  0  0  0  0  0  0
  189.4010  177.4030  142.8820 C   0  0  0  0  0  3  0  0  0  0  0  0
  190.4360  175.2510  142.4480 C   0  0  0  0  0  0  0  0  0  0  0  0
  186.8870  177.6400  142.9240 C   0  0  2  0  0  3  0  0  0  0  0  0
  186.8920  178.6750  141.9860 O   0  0  0  0  0  1  0  0  0  0  0  0
  187.5400  177.8710  146.7080 C   0  0  0  0  0  0  0  0  0  0  0  0
  184.0190  178.2780  146.8970 O   0  0  0  0  0  0  0  0  0  0  0  0
  185.2690  178.0980  144.8530 C   0  0  1  0  0  3  0  0  0  0  0  0
  187.6650  177.3960  145.2940 C   0  0  0  0  0  2  0  0  0  0  0  0
  186.7340  178.1800  144.3590 C   0  0  1  0  0  3  0  0  0  0  0  0
  185.1540  178.2010  146.3560 C   0  0  0  0  0  0  0  0  0  0  0  0
  188.7410  177.8970  147.5840 C   0  0  0  0  0  1  0  0  0  0  0  0
  184.4440  179.2090  144.2210 C   0  0  0  0  0  1  0  0  0  0  0  0
  186.3490  178.1850  147.2120 C   0  0  0  0  0  3  0  0  0  0  0  0
  191.2030  172.0340  142.0740 O   0  0  0  0  0  0  0  0  0  0  0  0
  191.3200  173.2020  140.0730 N   0  0  0  0  0  1  0  0  0  0  0  0
  191.3730  173.1390  141.4930 C   0  0  0  0  0  0  0  0  0  0  0  0
  1 34  1  1  0  0  0
  1 20  1  0  0  0  0
  1  3  1  0  0  0  0
  2  7  2  0  0  0  0
  3  8  2  0  0  0  0
  3  9  1  0  0  0  0
  4  5  2  0  0  0  0
  4  8  1  0  0  0  0
  5  6  1  0  0  0  0
  6  2  1  0  0  0  0
  8  2  1  0  0  0  0
  9 11  1  0  0  0  0
 11 10  1  0  0  0  0
 12  5  1  0  0  0  0
 13 12  1  0  0  0  0
 14 13  1  0  0  0  0
 15 19  1  0  0  0  0
 16 19  2  0  0  0  0
 16 21  1  0  0  0  0
 17 16  1  0  0  0  0
 18 20  1  0  0  0  0
 18 17  2  0  0  0  0
 20 15  2  0  0  0  0
 21 22  1  6  0  0  0
 23 31  2  0  0  0  0
 23 29  1  0  0  0  0
 25 30  1  6  0  0  0
 25 28  1  0  0  0  0
 26 23  1  0  0  0  0
 27 21  1  6  0  0  0
 27 25  1  0  0  0  0
 27 26  1  0  0  0  0
 28 24  2  0  0  0  0
 28 31  1  0  0  0  0
 33 34  1  0  0  0  0
 34 32  2  0  0  0  0
M  END
>  <MODEL>
9

>  <REMARK>
 VINA RESULT:      -6.5      2.534      4.693
  Name = 
  9 active torsions:
  status: ('A' for Active; 'I' for Inactive)
    1  A    between atoms: C_1  and  O_19
    2  A    between atoms: C_3  and  C_8
    3  A    between atoms: C_8  and  C_23
    4  A    between atoms: C_9  and  C_11
    5  A    between atoms: C_9  and  C_32
    6  A    between atoms: C_9  and  C_34
    7  A    between atoms: C_11  and  N_15
    8  A    between atoms: N_15  and  C_26
    9  A    between atoms: O_19  and  C_21
                            x       y       z     vdW  Elec       q    Type
                         _______ _______ _______ _____ _____    ______ ____

>  <TORSDO>
F 9

$$$$
