=
 OpenBabel11062422593D

 61 68  0  0  1  0  0  0  0  0999 V2000
  192.0790  170.9290  143.9050 N   0  0  0  0  0  2  0  0  0  0  0  0
  192.1540  170.3200  142.6160 C   0  0  0  0  0  0  0  0  0  0  0  0
  191.6970  169.9290  140.4290 C   0  0  2  0  0  3  0  0  0  0  0  0
  192.6200  168.8370  141.0100 C   0  0  0  0  0  2  0  0  0  0  0  0
  191.5130  170.8290  141.5050 O   0  0  0  0  0  0  0  0  0  0  0  0
  192.7950  169.2220  142.4060 N   0  0  0  0  0  0  0  0  0  0  0  0
  190.1620  172.0000  144.6790 O   0  0  0  0  0  1  0  0  0  0  0  0
  191.4220  172.2160  144.1160 C   0  0  1  0  0  3  0  0  0  0  0  0
  195.6400  175.8520  145.2230 C   0  0  0  0  0  2  0  0  0  0  0  0
  195.6830  175.9010  143.7620 N   0  0  0  0  0  0  0  0  0  0  0  0
  194.8120  173.4650  145.0670 C   0  0  2  0  0  3  0  0  0  0  0  0
  192.2410  173.1200  145.0530 C   0  0  1  0  0  3  0  0  0  0  0  0
  196.1380  174.6030  143.2750 C   0  0  0  0  0  2  0  0  0  0  0  0
  194.5860  174.8530  145.7020 C   0  0  2  0  0  3  0  0  0  0  0  0
  193.1710  175.4160  145.5210 C   0  0  0  0  0  2  0  0  0  0  0  0
  195.0770  173.5470  143.5590 C   0  0  0  0  0  2  0  0  0  0  0  0
  193.6380  172.5250  145.3540 C   0  0  0  0  0  2  0  0  0  0  0  0
  196.7100  176.8630  143.4060 C   0  0  0  0  0  1  0  0  0  0  0  0
  192.3150  174.5860  144.5590 C   0  0  2  0  0  3  0  0  0  0  0  0
  190.9240  175.1970  144.2980 C   0  0  2  0  0  3  0  0  0  0  0  0
  191.7490  175.2310  141.8680 C   0  0  0  0  0  1  0  0  0  0  0  0
  190.7610  175.7820  142.8840 C   0  0  2  0  0  3  0  0  0  0  0  0
  190.7220  177.2740  142.8700 C   0  0  0  0  0  0  0  0  0  0  0  0
  189.5900  177.9240  142.3910 O   0  0  0  0  0  0  0  0  0  0  0  0
  191.7200  177.9510  143.2230 O   0  0  0  0  0  1  0  0  0  0  0  0
  190.3510  175.9440  145.3500 O   0  0  0  0  0  0  0  0  0  0  0  0
  189.0530  175.6920  145.3550 O   0  0  0  0  0  0  0  0  0  0  0  0
  187.1060  176.5000  146.4560 C   0  0  2  0  0  3  0  0  0  0  0  0
  186.7520  177.4870  147.4600 N   0  0  0  0  0  1  0  0  0  0  0  0
  188.4690  176.8420  145.8920 C   0  0  2  0  0  3  0  0  0  0  0  0
  187.2220  177.1770  145.1080 C   0  0  0  0  0  2  0  0  0  0  0  0
  190.4530  169.4460  139.9380 O   0  0  0  0  0  0  0  0  0  0  0  0
  190.0320  170.2000  138.8190 C   0  0  1  0  0  3  0  0  0  0  0  0
  190.5710  172.6010  137.2720 C   0  0  0  0  0  0  0  0  0  0  0  0
  189.7530  172.6490  138.5200 C   0  0  0  0  0  0  0  0  0  0  0  0
  189.5400  171.5500  139.2410 C   0  0  0  0  0  3  0  0  0  0  0  0
  195.8400  170.8630  137.1610 C   0  0  0  0  0  1  0  0  0  0  0  0
  191.8020  169.0590  137.4810 C   0  0  0  0  0  1  0  0  0  0  0  0
  193.3900  172.3500  136.0150 C   0  0  1  0  0  3  0  0  0  0  0  0
  190.7030  173.9050  136.4800 C   0  0  2  0  0  3  0  0  0  0  0  0
  195.8720  171.8400  135.9850 C   0  0  2  0  0  3  0  0  0  0  0  0
  189.3810  174.4390  135.9680 C   0  0  0  0  0  2  0  0  0  0  0  0
  196.5770  174.1270  138.4410 C   0  0  0  0  0  1  0  0  0  0  0  0
  189.7640  175.3120  134.7910 C   0  0  0  0  0  2  0  0  0  0  0  0
  196.4350  173.1030  136.2820 O   0  0  0  0  0  0  0  0  0  0  0  0
  194.5740  171.9030  135.1760 C   0  0  0  0  0  2  0  0  0  0  0  0
  191.1150  170.2970  137.8350 N   0  0  0  0  0  0  0  0  0  0  0  0
  194.9780  174.9510  136.7280 C   0  0  0  0  0  2  0  0  0  0  0  0
  191.2290  175.0100  134.5130 C   0  0  0  0  0  2  0  0  0  0  0  0
  191.2630  171.4590  136.9910 C   0  0  0  0  0  0  0  0  0  0  0  0
  195.6780  173.7280  137.2920 C   0  0  2  0  0  3  0  0  0  0  0  0
  193.4630  174.7710  136.7590 C   0  0  2  0  0  3  0  0  0  0  0  0
  193.0000  173.7910  135.6480 C   0  0  2  0  0  3  0  0  0  0  0  0
  192.2320  171.3670  135.8390 C   0  0  0  0  0  2  0  0  0  0  0  0
  191.5660  173.8410  135.3080 N   0  0  1  0  0  0  0  0  0  0  0  0
  192.8600  176.0270  136.6220 O   0  0  0  0  0  0  0  0  0  0  0  0
  193.7670  176.7780  135.8670 C   0  0  0  0  0  1  0  0  0  0  0  0
  189.0690  173.9190  138.9360 C   0  0  0  0  0  2  0  0  0  0  0  0
  188.4520  173.8430  140.3320 C   0  0  0  0  0  2  0  0  0  0  0  0
  187.4150  175.1170  142.2250 C   0  0  0  0  0  1  0  0  0  0  0  0
  187.9540  175.1980  140.8030 C   0  0  0  0  0  2  0  0  0  0  0  0
  1  8  1  0  0  0  0
  2  1  1  0  0  0  0
  3 32  1  1  0  0  0
  3  4  1  0  0  0  0
  3  5  1  0  0  0  0
  4  6  1  0  0  0  0
  5  2  1  0  0  0  0
  6  2  2  0  0  0  0
  8  7  1  1  0  0  0
 10  9  1  0  0  0  0
 11 16  1  6  0  0  0
 11 17  1  0  0  0  0
 11 14  1  0  0  0  0
 12  8  1  6  0  0  0
 12 17  1  0  0  0  0
 13 16  1  0  0  0  0
 13 10  1  0  0  0  0
 14  9  1  6  0  0  0
 15 14  1  0  0  0  0
 18 10  1  0  0  0  0
 19 20  1  1  0  0  0
 19 12  1  0  0  0  0
 19 15  1  0  0  0  0
 20 26  1  1  0  0  0
 22 21  1  6  0  0  0
 22 20  1  0  0  0  0
 23 22  1  0  0  0  0
 23 25  1  0  0  0  0
 24 23  2  0  0  0  0
 26 27  1  0  0  0  0
 28 29  1  1  0  0  0
 30 27  1  6  0  0  0
 30 28  1  0  0  0  0
 31 30  1  0  0  0  0
 31 28  1  0  0  0  0
 33 36  1  0  0  0  0
 33 32  1  1  0  0  0
 34 35  1  0  0  0  0
 35 58  1  0  0  0  0
 35 36  2  0  0  0  0
 38 47  1  0  0  0  0
 39 46  1  6  0  0  0
 40 42  1  6  0  0  0
 40 34  1  0  0  0  0
 41 45  1  0  0  0  0
 41 37  1  1  0  0  0
 44 42  1  0  0  0  0
 45 51  1  0  0  0  0
 46 41  1  0  0  0  0
 47 33  1  0  0  0  0
 48 52  1  0  0  0  0
 48 51  1  0  0  0  0
 49 44  1  0  0  0  0
 49 55  1  0  0  0  0
 50 34  2  0  0  0  0
 50 47  1  0  0  0  0
 51 43  1  1  0  0  0
 52 56  1  6  0  0  0
 53 39  1  0  0  0  0
 53 52  1  0  0  0  0
 54 39  1  0  0  0  0
 54 50  1  0  0  0  0
 55 53  1  0  0  0  0
 55 40  1  0  0  0  0
 57 56  1  0  0  0  0
 58 59  1  0  0  0  0
 59 61  1  0  0  0  0
 61 60  1  0  0  0  0
M  END
>  <MODEL>
1

>  <REMARK>
 VINA RESULT:      -6.5      0.000      0.000
  Name = 
  14 active torsions:
  status: ('A' for Active; 'I' for Inactive)
    1  A    between atoms: C_1  and  O_16
    2  A    between atoms: C_2  and  C_48
    3  A    between atoms: C_2  and  C_53
    4  A    between atoms: N_5  and  C_39
    5  A    between atoms: O_9  and  O_46
    6  A    between atoms: O_9  and  C_51
    7  A    between atoms: C_11  and  C_48
    8  A    between atoms: C_13  and  C_39
    9  A    between atoms: C_15  and  C_59
   10  A    between atoms: O_16  and  C_41
   11  A    between atoms: O_34  and  C_56
   12  A    between atoms: C_42  and  O_46
   13  A    between atoms: C_42  and  C_50
   14  A    between atoms: C_42  and  C_59
                            x       y       z     vdW  Elec       q    Type
                         _______ _______ _______ _____ _____    ______ ____

>  <TORSDO>
F 14

$$$$
=
 OpenBabel11062422593D

 61 68  0  0  1  0  0  0  0  0999 V2000
  190.6530  176.6060  144.8850 N   0  0  0  0  0  2  0  0  0  0  0  0
  191.8810  176.2420  144.2540 C   0  0  0  0  0  0  0  0  0  0  0  0
  193.8550  175.1760  143.9180 C   0  0  2  0  0  3  0  0  0  0  0  0
  193.6560  176.3160  142.8980 C   0  0  0  0  0  2  0  0  0  0  0  0
  192.6630  175.1890  144.6820 O   0  0  0  0  0  0  0  0  0  0  0  0
  192.3700  176.9020  143.2610 N   0  0  0  0  0  0  0  0  0  0  0  0
  190.2730  176.4480  147.1760 O   0  0  0  0  0  1  0  0  0  0  0  0
  190.0650  175.8050  145.9530 C   0  0  1  0  0  3  0  0  0  0  0  0
  184.7940  177.7040  145.0330 C   0  0  0  0  0  2  0  0  0  0  0  0
  185.5290  178.9320  144.7280 N   0  0  0  0  0  0  0  0  0  0  0  0
  186.6250  177.0750  146.6640 C   0  0  2  0  0  3  0  0  0  0  0  0
  188.5540  175.6050  145.7430 C   0  0  1  0  0  3  0  0  0  0  0  0
  186.1240  179.4260  145.9660 C   0  0  0  0  0  2  0  0  0  0  0  0
  185.7480  176.5990  145.4860 C   0  0  2  0  0  3  0  0  0  0  0  0
  186.5320  176.0250  144.2980 C   0  0  0  0  0  2  0  0  0  0  0  0
  187.2160  178.4690  146.4270 C   0  0  0  0  0  2  0  0  0  0  0  0
  187.7350  176.0670  146.9730 C   0  0  0  0  0  2  0  0  0  0  0  0
  184.5450  179.9170  144.3170 C   0  0  0  0  0  1  0  0  0  0  0  0
  188.0440  176.2320  144.4230 C   0  0  2  0  0  3  0  0  0  0  0  0
  188.8300  175.7440  143.1890 C   0  0  2  0  0  3  0  0  0  0  0  0
  188.7210  178.1780  142.3830 C   0  0  0  0  0  1  0  0  0  0  0  0
  188.7660  176.7090  141.9930 C   0  0  2  0  0  3  0  0  0  0  0  0
  187.6930  176.3590  141.0170 C   0  0  0  0  0  0  0  0  0  0  0  0
  186.4580  176.9940  141.1020 O   0  0  0  0  0  1  0  0  0  0  0  0
  187.8640  175.4530  140.1630 O   0  0  0  0  0  0  0  0  0  0  0  0
  188.7410  174.3680  142.8840 O   0  0  0  0  0  0  0  0  0  0  0  0
  189.8840  174.0100  142.3250 O   0  0  0  0  0  0  0  0  0  0  0  0
  190.4220  171.6950  142.2750 C   0  0  2  0  0  3  0  0  0  0  0  0
  191.3810  170.7860  142.8750 N   0  0  0  0  0  1  0  0  0  0  0  0
  190.3510  172.9540  143.1110 C   0  0  2  0  0  3  0  0  0  0  0  0
  189.2680  171.9070  143.2290 C   0  0  0  0  0  2  0  0  0  0  0  0
  195.0020  175.3220  144.7460 O   0  0  0  0  0  0  0  0  0  0  0  0
  195.8310  174.1800  144.6550 C   0  0  1  0  0  3  0  0  0  0  0  0
  196.3330  171.7630  143.1210 C   0  0  0  0  0  0  0  0  0  0  0  0
  195.2810  171.8060  144.1800 C   0  0  0  0  0  0  0  0  0  0  0  0
  195.0340  172.9280  144.8530 C   0  0  0  0  0  3  0  0  0  0  0  0
  196.2890  175.0660  138.6610 C   0  0  0  0  0  1  0  0  0  0  0  0
  197.2150  175.4110  142.9850 C   0  0  0  0  0  1  0  0  0  0  0  0
  197.1760  172.5750  140.2550 C   0  0  1  0  0  3  0  0  0  0  0  0
  196.5850  170.4100  142.4490 C   0  0  2  0  0  3  0  0  0  0  0  0
  197.0260  173.8600  138.0760 C   0  0  2  0  0  3  0  0  0  0  0  0
  197.0600  169.3370  143.4070 C   0  0  0  0  0  2  0  0  0  0  0  0
  193.8450  172.7620  137.4130 C   0  0  0  0  0  1  0  0  0  0  0  0
  197.7840  168.3440  142.5230 C   0  0  0  0  0  2  0  0  0  0  0  0
  196.2230  173.0050  137.2850 O   0  0  0  0  0  0  0  0  0  0  0  0
  197.9390  173.1310  139.0640 C   0  0  0  0  0  2  0  0  0  0  0  0
  196.5490  174.1730  143.3780 N   0  0  0  0  0  0  0  0  0  0  0  0
  195.3680  170.9890  138.2520 C   0  0  0  0  0  2  0  0  0  0  0  0
  197.9360  169.0270  141.1720 C   0  0  0  0  0  2  0  0  0  0  0  0
  196.8970  172.9370  142.7160 C   0  0  0  0  0  0  0  0  0  0  0  0
  195.1780  172.4840  138.0710 C   0  0  2  0  0  3  0  0  0  0  0  0
  195.6210  170.6470  139.7180 C   0  0  2  0  0  3  0  0  0  0  0  0
  197.0620  171.0460  140.1370 C   0  0  2  0  0  3  0  0  0  0  0  0
  197.8540  173.0130  141.5530 C   0  0  0  0  0  2  0  0  0  0  0  0
  197.5660  170.4190  141.3720 N   0  0  1  0  0  0  0  0  0  0  0  0
  195.3920  169.2790  139.9060 O   0  0  0  0  0  0  0  0  0  0  0  0
  195.1600  168.7770  138.6210 C   0  0  0  0  0  1  0  0  0  0  0  0
  194.5460  170.5580  144.5760 C   0  0  0  0  0  2  0  0  0  0  0  0
  194.6490  170.2460  146.0680 C   0  0  0  0  0  2  0  0  0  0  0  0
  195.2180  168.4720  147.7450 C   0  0  0  0  0  1  0  0  0  0  0  0
  194.7370  168.7520  146.3270 C   0  0  0  0  0  2  0  0  0  0  0  0
  1  8  1  0  0  0  0
  2  5  1  0  0  0  0
  2  1  1  0  0  0  0
  3  5  1  0  0  0  0
  3 32  1  1  0  0  0
  4  6  1  0  0  0  0
  4  3  1  0  0  0  0
  6  2  2  0  0  0  0
  8  7  1  1  0  0  0
  9 14  1  0  0  0  0
 10  9  1  0  0  0  0
 10 13  1  0  0  0  0
 11 16  1  6  0  0  0
 11 17  1  0  0  0  0
 12  8  1  1  0  0  0
 12 17  1  0  0  0  0
 13 16  1  0  0  0  0
 14 15  1  6  0  0  0
 14 11  1  0  0  0  0
 15 19  1  0  0  0  0
 18 10  1  0  0  0  0
 19 20  1  6  0  0  0
 19 12  1  0  0  0  0
 20 26  1  6  0  0  0
 22 21  1  1  0  0  0
 22 20  1  0  0  0  0
 23 24  1  0  0  0  0
 23 22  1  0  0  0  0
 25 23  2  0  0  0  0
 27 26  1  0  0  0  0
 28 29  1  1  0  0  0
 28 30  1  0  0  0  0
 28 31  1  0  0  0  0
 30 27  1  6  0  0  0
 30 31  1  0  0  0  0
 33 32  1  6  0  0  0
 33 36  1  0  0  0  0
 34 35  1  0  0  0  0
 35 58  1  0  0  0  0
 35 36  2  0  0  0  0
 38 47  1  0  0  0  0
 39 46  1  6  0  0  0
 39 54  1  0  0  0  0
 40 34  1  0  0  0  0
 40 42  1  1  0  0  0
 41 37  1  1  0  0  0
 41 46  1  0  0  0  0
 44 42  1  0  0  0  0
 45 51  1  0  0  0  0
 45 41  1  0  0  0  0
 47 33  1  0  0  0  0
 48 52  1  0  0  0  0
 49 55  1  0  0  0  0
 49 44  1  0  0  0  0
 50 34  2  0  0  0  0
 50 47  1  0  0  0  0
 51 43  1  6  0  0  0
 51 48  1  0  0  0  0
 52 56  1  6  0  0  0
 52 53  1  0  0  0  0
 53 39  1  0  0  0  0
 53 55  1  0  0  0  0
 54 50  1  0  0  0  0
 55 40  1  0  0  0  0
 57 56  1  0  0  0  0
 58 59  1  0  0  0  0
 59 61  1  0  0  0  0
 61 60  1  0  0  0  0
M  END
>  <MODEL>
2

>  <REMARK>
 VINA RESULT:      -6.0      2.953      7.635
  Name = 
  14 active torsions:
  status: ('A' for Active; 'I' for Inactive)
    1  A    between atoms: C_1  and  O_16
    2  A    between atoms: C_2  and  C_48
    3  A    between atoms: C_2  and  C_53
    4  A    between atoms: N_5  and  C_39
    5  A    between atoms: O_9  and  O_46
    6  A    between atoms: O_9  and  C_51
    7  A    between atoms: C_11  and  C_48
    8  A    between atoms: C_13  and  C_39
    9  A    between atoms: C_15  and  C_59
   10  A    between atoms: O_16  and  C_41
   11  A    between atoms: O_34  and  C_56
   12  A    between atoms: C_42  and  O_46
   13  A    between atoms: C_42  and  C_50
   14  A    between atoms: C_42  and  C_59
                            x       y       z     vdW  Elec       q    Type
                         _______ _______ _______ _____ _____    ______ ____

>  <TORSDO>
F 14

$$$$
=
 OpenBabel11062422593D

 61 68  0  0  1  0  0  0  0  0999 V2000
  191.3350  173.6650  144.1840 N   0  0  0  0  0  2  0  0  0  0  0  0
  192.3570  172.8130  143.6660 C   0  0  0  0  0  0  0  0  0  0  0  0
  193.3470  171.2470  142.3590 C   0  0  2  0  0  3  0  0  0  0  0  0
  194.2770  171.6810  143.5110 C   0  0  0  0  0  2  0  0  0  0  0  0
  192.1980  172.0560  142.5250 O   0  0  0  0  0  0  0  0  0  0  0  0
  193.4930  172.6600  144.2560 N   0  0  0  0  0  0  0  0  0  0  0  0
  189.0120  173.5390  144.2870 O   0  0  0  0  0  1  0  0  0  0  0  0
  190.0850  173.8980  143.4670 C   0  0  1  0  0  3  0  0  0  0  0  0
  187.1090  178.6960  142.8630 C   0  0  0  0  0  2  0  0  0  0  0  0
  186.1690  177.9550  143.7050 N   0  0  0  0  0  0  0  0  0  0  0  0
  187.9010  176.4920  141.9010 C   0  0  2  0  0  3  0  0  0  0  0  0
  189.9330  175.3740  143.0620 C   0  0  1  0  0  3  0  0  0  0  0  0
  185.6440  176.8370  142.9280 C   0  0  0  0  0  2  0  0  0  0  0  0
  188.3280  177.8360  142.5270 C   0  0  2  0  0  3  0  0  0  0  0  0
  189.2630  177.7090  143.7360 C   0  0  0  0  0  2  0  0  0  0  0  0
  186.7550  175.8260  142.6710 C   0  0  0  0  0  2  0  0  0  0  0  0
  189.0890  175.5350  141.7750 C   0  0  0  0  0  2  0  0  0  0  0  0
  185.0500  178.8440  143.9630 C   0  0  0  0  0  1  0  0  0  0  0  0
  189.4220  176.2650  144.2210 C   0  0  2  0  0  3  0  0  0  0  0  0
  190.2840  176.1390  145.4930 C   0  0  2  0  0  3  0  0  0  0  0  0
  189.2980  174.6000  147.2950 C   0  0  0  0  0  1  0  0  0  0  0  0
  189.4620  176.0240  146.7880 C   0  0  2  0  0  3  0  0  0  0  0  0
  188.1550  176.7430  146.7160 C   0  0  0  0  0  0  0  0  0  0  0  0
  188.0880  178.0800  147.0930 O   0  0  0  0  0  1  0  0  0  0  0  0
  187.1030  176.1410  146.3850 O   0  0  0  0  0  0  0  0  0  0  0  0
  191.4390  176.9480  145.5590 O   0  0  0  0  0  0  0  0  0  0  0  0
  192.3410  176.2960  146.2720 O   0  0  0  0  0  0  0  0  0  0  0  0
  194.6430  175.7010  146.2690 C   0  0  2  0  0  3  0  0  0  0  0  0
  195.6550  175.2640  145.3250 N   0  0  0  0  0  1  0  0  0  0  0  0
  193.5080  176.3500  145.5060 C   0  0  2  0  0  3  0  0  0  0  0  0
  194.5280  177.2080  146.2170 C   0  0  0  0  0  2  0  0  0  0  0  0
  193.0130  169.8650  142.3630 O   0  0  0  0  0  0  0  0  0  0  0  0
  192.6370  169.4400  141.0680 C   0  0  1  0  0  3  0  0  0  0  0  0
  192.4020  170.2870  138.2970 C   0  0  0  0  0  0  0  0  0  0  0  0
  191.3320  170.5880  139.2940 C   0  0  0  0  0  0  0  0  0  0  0  0
  191.4650  170.2270  140.5700 C   0  0  0  0  0  3  0  0  0  0  0  0
  197.6300  172.0730  138.8190 C   0  0  0  0  0  1  0  0  0  0  0  0
  195.0410  168.9510  140.6120 C   0  0  0  0  0  1  0  0  0  0  0  0
  195.2300  170.9580  137.2300 C   0  0  1  0  0  3  0  0  0  0  0  0
  192.1270  170.6860  136.8440 C   0  0  2  0  0  3  0  0  0  0  0  0
  197.5400  171.9970  137.2950 C   0  0  2  0  0  3  0  0  0  0  0  0
  190.9280  169.9840  136.2400 C   0  0  0  0  0  2  0  0  0  0  0  0
  196.3170  175.1840  137.6240 C   0  0  0  0  0  1  0  0  0  0  0  0
  191.1790  170.0400  134.7480 C   0  0  0  0  0  2  0  0  0  0  0  0
  197.3210  173.2400  136.6540 O   0  0  0  0  0  0  0  0  0  0  0  0
  196.6720  170.8540  136.7640 C   0  0  0  0  0  2  0  0  0  0  0  0
  193.7790  169.5240  140.1530 N   0  0  0  0  0  0  0  0  0  0  0  0
  195.1060  173.8100  135.9480 C   0  0  0  0  0  2  0  0  0  0  0  0
  192.6190  170.5030  134.5880 C   0  0  0  0  0  2  0  0  0  0  0  0
  193.6000  169.8160  138.7500 C   0  0  0  0  0  0  0  0  0  0  0  0
  196.0990  173.7850  137.0950 C   0  0  2  0  0  3  0  0  0  0  0  0
  193.9240  172.8870  136.2340 C   0  0  2  0  0  3  0  0  0  0  0  0
  194.3310  171.3990  136.0630 C   0  0  2  0  0  3  0  0  0  0  0  0
  194.7870  169.6270  137.8390 C   0  0  0  0  0  2  0  0  0  0  0  0
  193.2190  170.4440  135.9110 N   0  0  1  0  0  0  0  0  0  0  0  0
  192.8690  173.2320  135.3810 O   0  0  0  0  0  0  0  0  0  0  0  0
  193.1660  174.5300  134.9530 C   0  0  0  0  0  1  0  0  0  0  0  0
  190.0400  171.2180  138.8610 C   0  0  0  0  0  2  0  0  0  0  0  0
  189.8680  172.6500  139.3660 C   0  0  0  0  0  2  0  0  0  0  0  0
  189.9910  173.9130  137.2050 C   0  0  0  0  0  1  0  0  0  0  0  0
  189.1040  173.5090  138.3750 C   0  0  0  0  0  2  0  0  0  0  0  0
  2  1  1  0  0  0  0
  2  6  2  0  0  0  0
  3 32  1  1  0  0  0
  3  5  1  0  0  0  0
  3  4  1  0  0  0  0
  4  6  1  0  0  0  0
  5  2  1  0  0  0  0
  8  1  1  0  0  0  0
  8  7  1  1  0  0  0
  9 10  1  0  0  0  0
 10 18  1  0  0  0  0
 11 17  1  1  0  0  0
 11 14  1  0  0  0  0
 11 16  1  0  0  0  0
 12  8  1  1  0  0  0
 12 19  1  0  0  0  0
 13 10  1  0  0  0  0
 14  9  1  1  0  0  0
 14 15  1  0  0  0  0
 15 19  1  0  0  0  0
 16 13  1  0  0  0  0
 17 12  1  0  0  0  0
 19 20  1  1  0  0  0
 20 26  1  1  0  0  0
 20 22  1  0  0  0  0
 22 21  1  6  0  0  0
 23 22  1  0  0  0  0
 23 24  1  0  0  0  0
 25 23  2  0  0  0  0
 26 27  1  0  0  0  0
 28 29  1  6  0  0  0
 30 31  1  0  0  0  0
 30 28  1  0  0  0  0
 30 27  1  1  0  0  0
 31 28  1  0  0  0  0
 33 32  1  1  0  0  0
 34 50  2  0  0  0  0
 34 35  1  0  0  0  0
 35 36  2  0  0  0  0
 36 33  1  0  0  0  0
 39 46  1  6  0  0  0
 39 54  1  0  0  0  0
 40 42  1  6  0  0  0
 40 34  1  0  0  0  0
 41 37  1  1  0  0  0
 44 42  1  0  0  0  0
 45 51  1  0  0  0  0
 45 41  1  0  0  0  0
 46 41  1  0  0  0  0
 47 38  1  0  0  0  0
 47 33  1  0  0  0  0
 48 52  1  0  0  0  0
 48 51  1  0  0  0  0
 49 44  1  0  0  0  0
 49 55  1  0  0  0  0
 50 47  1  0  0  0  0
 51 43  1  6  0  0  0
 52 56  1  6  0  0  0
 53 52  1  0  0  0  0
 53 39  1  0  0  0  0
 54 50  1  0  0  0  0
 55 53  1  0  0  0  0
 55 40  1  0  0  0  0
 57 56  1  0  0  0  0
 58 35  1  0  0  0  0
 58 59  1  0  0  0  0
 60 61  1  0  0  0  0
 61 59  1  0  0  0  0
M  END
>  <MODEL>
3

>  <REMARK>
 VINA RESULT:      -5.9      1.953      4.956
  Name = 
  14 active torsions:
  status: ('A' for Active; 'I' for Inactive)
    1  A    between atoms: C_1  and  O_16
    2  A    between atoms: C_2  and  C_48
    3  A    between atoms: C_2  and  C_53
    4  A    between atoms: N_5  and  C_39
    5  A    between atoms: O_9  and  O_46
    6  A    between atoms: O_9  and  C_51
    7  A    between atoms: C_11  and  C_48
    8  A    between atoms: C_13  and  C_39
    9  A    between atoms: C_15  and  C_59
   10  A    between atoms: O_16  and  C_41
   11  A    between atoms: O_34  and  C_56
   12  A    between atoms: C_42  and  O_46
   13  A    between atoms: C_42  and  C_50
   14  A    between atoms: C_42  and  C_59
                            x       y       z     vdW  Elec       q    Type
                         _______ _______ _______ _____ _____    ______ ____

>  <TORSDO>
F 14

$$$$
=
 OpenBabel11062422593D

 61 68  0  0  1  0  0  0  0  0999 V2000
  189.2250  173.9510  142.7810 N   0  0  0  0  0  2  0  0  0  0  0  0
  189.1590  173.5940  141.4010 C   0  0  0  0  0  0  0  0  0  0  0  0
  189.2850  172.3060  139.5380 C   0  0  2  0  0  3  0  0  0  0  0  0
  189.0590  173.7890  139.1760 C   0  0  0  0  0  2  0  0  0  0  0  0
  189.2790  172.2950  140.9530 O   0  0  0  0  0  0  0  0  0  0  0  0
  189.0240  174.4710  140.4650 N   0  0  0  0  0  0  0  0  0  0  0  0
  189.5150  171.6920  143.2640 O   0  0  0  0  0  1  0  0  0  0  0  0
  189.2930  172.9460  143.8380 C   0  0  1  0  0  3  0  0  0  0  0  0
  194.4470  174.9150  145.1810 C   0  0  0  0  0  2  0  0  0  0  0  0
  194.3390  175.4760  143.8340 N   0  0  0  0  0  0  0  0  0  0  0  0
  192.9800  172.9900  144.4400 C   0  0  2  0  0  3  0  0  0  0  0  0
  190.4290  173.2490  144.8310 C   0  0  1  0  0  3  0  0  0  0  0  0
  194.3620  174.3740  142.8780 C   0  0  0  0  0  2  0  0  0  0  0  0
  193.2180  174.0700  145.5160 C   0  0  2  0  0  3  0  0  0  0  0  0
  192.0020  174.9580  145.8110 C   0  0  0  0  0  2  0  0  0  0  0  0
  193.0880  173.5480  143.0170 C   0  0  0  0  0  2  0  0  0  0  0  0
  191.6320  172.2930  144.6410 C   0  0  0  0  0  2  0  0  0  0  0  0
  195.5460  176.2500  143.6060 C   0  0  0  0  0  1  0  0  0  0  0  0
  190.8490  174.7390  144.8260 C   0  0  2  0  0  3  0  0  0  0  0  0
  189.6600  175.6940  145.0570 C   0  0  2  0  0  3  0  0  0  0  0  0
  188.5780  177.1400  143.2340 C   0  0  0  0  0  1  0  0  0  0  0  0
  189.7280  176.9800  144.2160 C   0  0  2  0  0  3  0  0  0  0  0  0
  191.0530  177.1780  143.5580 C   0  0  0  0  0  0  0  0  0  0  0  0
  192.0140  177.9670  144.1800 O   0  0  0  0  0  1  0  0  0  0  0  0
  191.2900  176.6990  142.4200 O   0  0  0  0  0  0  0  0  0  0  0  0
  189.2160  175.8440  146.3890 O   0  0  0  0  0  0  0  0  0  0  0  0
  187.8950  175.8480  146.3690 O   0  0  0  0  0  0  0  0  0  0  0  0
  186.0460  177.0840  147.2090 C   0  0  2  0  0  3  0  0  0  0  0  0
  185.7680  178.0600  148.2470 N   0  0  0  0  0  1  0  0  0  0  0  0
  187.5340  177.0750  146.9310 C   0  0  2  0  0  3  0  0  0  0  0  0
  186.5940  177.7930  145.9900 C   0  0  0  0  0  2  0  0  0  0  0  0
  190.4880  171.7520  139.0200 O   0  0  0  0  0  0  0  0  0  0  0  0
  191.5400  171.8870  139.9540 C   0  0  1  0  0  3  0  0  0  0  0  0
  194.3210  171.2120  140.4680 C   0  0  0  0  0  0  0  0  0  0  0  0
  193.2210  170.2450  140.7590 C   0  0  0  0  0  0  0  0  0  0  0  0
  191.9530  170.5490  140.4870 C   0  0  0  0  0  3  0  0  0  0  0  0
  195.3280  173.2290  135.3970 C   0  0  0  0  0  1  0  0  0  0  0  0
  192.3600  173.8380  138.6350 C   0  0  0  0  0  1  0  0  0  0  0  0
  196.0790  172.5860  138.3210 C   0  0  1  0  0  3  0  0  0  0  0  0
  195.7370  170.7940  140.8750 C   0  0  2  0  0  3  0  0  0  0  0  0
  196.7410  173.2940  135.9800 C   0  0  2  0  0  3  0  0  0  0  0  0
  195.8980  170.5740  142.3650 C   0  0  0  0  0  2  0  0  0  0  0  0
  196.9150  170.0660  134.8350 C   0  0  0  0  0  1  0  0  0  0  0  0
  197.3810  170.7600  142.6090 C   0  0  0  0  0  2  0  0  0  0  0  0
  197.5930  172.2370  135.5830 O   0  0  0  0  0  0  0  0  0  0  0  0
  196.7980  173.6220  137.4740 C   0  0  0  0  0  2  0  0  0  0  0  0
  192.6670  172.6040  139.3510 N   0  0  0  0  0  0  0  0  0  0  0  0
  197.9360  170.3960  137.0750 C   0  0  0  0  0  2  0  0  0  0  0  0
  197.9400  171.3510  141.3240 C   0  0  0  0  0  2  0  0  0  0  0  0
  194.0310  172.3270  139.7380 C   0  0  0  0  0  0  0  0  0  0  0  0
  197.0470  171.0100  136.0090 C   0  0  2  0  0  3  0  0  0  0  0  0
  197.2030  170.3170  138.4120 C   0  0  2  0  0  3  0  0  0  0  0  0
  197.1040  171.7180  139.0710 C   0  0  2  0  0  3  0  0  0  0  0  0
  195.0980  173.2810  139.2660 C   0  0  0  0  0  2  0  0  0  0  0  0
  196.7940  171.7270  140.5130 N   0  0  1  0  0  0  0  0  0  0  0  0
  197.8740  169.4070  139.2380 O   0  0  0  0  0  0  0  0  0  0  0  0
  197.3020  168.1660  138.9400 C   0  0  0  0  0  1  0  0  0  0  0  0
  193.5110  168.9460  141.4550 C   0  0  0  0  0  2  0  0  0  0  0  0
  192.4480  168.5630  142.4830 C   0  0  0  0  0  2  0  0  0  0  0  0
  193.7810  168.3250  144.5930 C   0  0  0  0  0  1  0  0  0  0  0  0
  192.7450  169.1580  143.8490 C   0  0  0  0  0  2  0  0  0  0  0  0
  1  8  1  0  0  0  0
  2  1  1  0  0  0  0
  3 32  1  1  0  0  0
  3  5  1  0  0  0  0
  4  3  1  0  0  0  0
  4  6  1  0  0  0  0
  5  2  1  0  0  0  0
  6  2  2  0  0  0  0
  8  7  1  6  0  0  0
 10  9  1  0  0  0  0
 11 16  1  6  0  0  0
 11 17  1  0  0  0  0
 11 14  1  0  0  0  0
 12  8  1  6  0  0  0
 13 16  1  0  0  0  0
 13 10  1  0  0  0  0
 14  9  1  6  0  0  0
 14 15  1  0  0  0  0
 17 12  1  0  0  0  0
 18 10  1  0  0  0  0
 19 12  1  0  0  0  0
 19 20  1  1  0  0  0
 19 15  1  0  0  0  0
 20 26  1  1  0  0  0
 22 21  1  6  0  0  0
 22 20  1  0  0  0  0
 23 24  1  0  0  0  0
 23 22  1  0  0  0  0
 25 23  2  0  0  0  0
 27 26  1  0  0  0  0
 28 29  1  1  0  0  0
 30 27  1  6  0  0  0
 30 28  1  0  0  0  0
 31 30  1  0  0  0  0
 31 28  1  0  0  0  0
 33 32  1  6  0  0  0
 33 36  1  0  0  0  0
 34 35  1  0  0  0  0
 34 40  1  0  0  0  0
 35 58  1  0  0  0  0
 36 35  2  0  0  0  0
 38 47  1  0  0  0  0
 39 46  1  1  0  0  0
 39 53  1  0  0  0  0
 39 54  1  0  0  0  0
 40 42  1  1  0  0  0
 41 37  1  1  0  0  0
 41 46  1  0  0  0  0
 42 44  1  0  0  0  0
 45 41  1  0  0  0  0
 45 51  1  0  0  0  0
 47 50  1  0  0  0  0
 47 33  1  0  0  0  0
 48 52  1  0  0  0  0
 49 44  1  0  0  0  0
 50 34  2  0  0  0  0
 51 43  1  6  0  0  0
 51 48  1  0  0  0  0
 52 53  1  0  0  0  0
 52 56  1  1  0  0  0
 53 55  1  0  0  0  0
 54 50  1  0  0  0  0
 55 40  1  0  0  0  0
 55 49  1  0  0  0  0
 57 56  1  0  0  0  0
 58 59  1  0  0  0  0
 59 61  1  0  0  0  0
 61 60  1  0  0  0  0
M  END
>  <MODEL>
4

>  <REMARK>
 VINA RESULT:      -5.5      2.332      4.865
  Name = 
  14 active torsions:
  status: ('A' for Active; 'I' for Inactive)
    1  A    between atoms: C_1  and  O_16
    2  A    between atoms: C_2  and  C_48
    3  A    between atoms: C_2  and  C_53
    4  A    between atoms: N_5  and  C_39
    5  A    between atoms: O_9  and  O_46
    6  A    between atoms: O_9  and  C_51
    7  A    between atoms: C_11  and  C_48
    8  A    between atoms: C_13  and  C_39
    9  A    between atoms: C_15  and  C_59
   10  A    between atoms: O_16  and  C_41
   11  A    between atoms: O_34  and  C_56
   12  A    between atoms: C_42  and  O_46
   13  A    between atoms: C_42  and  C_50
   14  A    between atoms: C_42  and  C_59
                            x       y       z     vdW  Elec       q    Type
                         _______ _______ _______ _____ _____    ______ ____

>  <TORSDO>
F 14

$$$$
=
 OpenBabel11062422593D

 61 68  0  0  1  0  0  0  0  0999 V2000
  189.0600  175.0330  143.1890 N   0  0  0  0  0  2  0  0  0  0  0  0
  189.5600  173.7000  143.0790 C   0  0  0  0  0  0  0  0  0  0  0  0
  191.0380  171.9810  143.1380 C   0  0  2  0  0  3  0  0  0  0  0  0
  189.6920  171.5380  142.5280 C   0  0  0  0  0  2  0  0  0  0  0  0
  190.8240  173.3340  143.4930 O   0  0  0  0  0  0  0  0  0  0  0  0
  188.8750  172.7470  142.5450 N   0  0  0  0  0  0  0  0  0  0  0  0
  191.0400  176.2580  143.2350 O   0  0  0  0  0  1  0  0  0  0  0  0
  189.8070  176.0860  143.8700 C   0  0  1  0  0  3  0  0  0  0  0  0
  185.2440  179.2880  142.7940 C   0  0  0  0  0  2  0  0  0  0  0  0
  184.6300  177.9690  142.6440 N   0  0  0  0  0  0  0  0  0  0  0  0
  187.4390  178.2970  142.0130 C   0  0  2  0  0  3  0  0  0  0  0  0
  189.0440  177.4220  143.8520 C   0  0  1  0  0  3  0  0  0  0  0  0
  185.1960  177.3350  141.4580 C   0  0  0  0  0  2  0  0  0  0  0  0
  186.7400  179.1600  143.0840 C   0  0  2  0  0  3  0  0  0  0  0  0
  186.9840  178.7060  144.5290 C   0  0  0  0  0  2  0  0  0  0  0  0
  186.6650  177.0120  141.7010 C   0  0  0  0  0  2  0  0  0  0  0  0
  188.8790  177.9720  142.4140 C   0  0  0  0  0  2  0  0  0  0  0  0
  183.2230  178.1920  142.3650 C   0  0  0  0  0  1  0  0  0  0  0  0
  187.7010  177.3560  144.6190 C   0  0  2  0  0  3  0  0  0  0  0  0
  187.8650  176.8470  146.0650 C   0  0  2  0  0  3  0  0  0  0  0  0
  185.3330  176.4300  146.1290 C   0  0  0  0  0  1  0  0  0  0  0  0
  186.5660  176.8940  146.8890 C   0  0  2  0  0  3  0  0  0  0  0  0
  186.3460  178.2100  147.5570 C   0  0  0  0  0  0  0  0  0  0  0  0
  185.2420  178.9790  147.2060 O   0  0  0  0  0  0  0  0  0  0  0  0
  187.1770  178.6640  148.3840 O   0  0  0  0  0  1  0  0  0  0  0  0
  189.0450  177.2280  146.7420 O   0  0  0  0  0  0  0  0  0  0  0  0
  189.5580  176.1400  147.2880 O   0  0  0  0  0  0  0  0  0  0  0  0
  191.7350  175.2930  146.8440 C   0  0  2  0  0  3  0  0  0  0  0  0
  193.0510  175.7980  146.4960 N   0  0  0  0  0  1  0  0  0  0  0  0
  190.9180  176.4220  147.4360 C   0  0  2  0  0  3  0  0  0  0  0  0
  191.5440  175.3870  148.3410 C   0  0  0  0  0  2  0  0  0  0  0  0
  192.1520  171.8450  142.2640 O   0  0  0  0  0  0  0  0  0  0  0  0
  191.9840  172.6490  141.1140 C   0  0  1  0  0  3  0  0  0  0  0  0
  193.3020  173.6000  138.7040 C   0  0  0  0  0  0  0  0  0  0  0  0
  193.5200  174.2660  140.0220 C   0  0  0  0  0  0  0  0  0  0  0  0
  192.9390  173.8020  141.1280 C   0  0  0  0  0  3  0  0  0  0  0  0
  194.5290  168.2720  137.7560 C   0  0  0  0  0  1  0  0  0  0  0  0
  191.3790  170.5850  139.8510 C   0  0  0  0  0  1  0  0  0  0  0  0
  193.9040  171.1670  136.8870 C   0  0  1  0  0  3  0  0  0  0  0  0
  193.9620  174.2470  137.4830 C   0  0  2  0  0  3  0  0  0  0  0  0
  194.7200  168.8300  136.3450 C   0  0  2  0  0  3  0  0  0  0  0  0
  193.4760  175.6560  137.2080 C   0  0  0  0  0  2  0  0  0  0  0  0
  197.8970  169.4610  137.4720 C   0  0  0  0  0  1  0  0  0  0  0  0
  193.7610  175.8650  135.7350 C   0  0  0  0  0  2  0  0  0  0  0  0
  196.0670  169.0660  135.9810 O   0  0  0  0  0  0  0  0  0  0  0  0
  193.7590  169.9610  135.9730 C   0  0  0  0  0  2  0  0  0  0  0  0
  192.1250  171.8390  139.9010 N   0  0  0  0  0  0  0  0  0  0  0  0
  196.9310  171.2950  136.1040 C   0  0  0  0  0  2  0  0  0  0  0  0
  194.1210  174.4930  135.1850 C   0  0  0  0  0  2  0  0  0  0  0  0
  192.6640  172.3950  138.6820 C   0  0  0  0  0  0  0  0  0  0  0  0
  196.6300  170.0130  136.8580 C   0  0  2  0  0  3  0  0  0  0  0  0
  196.0760  172.4460  136.6280 C   0  0  2  0  0  3  0  0  0  0  0  0
  194.6090  172.3100  136.1390 C   0  0  2  0  0  3  0  0  0  0  0  0
  192.5320  171.5770  137.4220 C   0  0  0  0  0  2  0  0  0  0  0  0
  193.7900  173.5330  136.2260 N   0  0  1  0  0  0  0  0  0  0  0  0
  196.6470  173.6540  136.2130 O   0  0  0  0  0  0  0  0  0  0  0  0
  197.7380  173.8460  137.0670 C   0  0  0  0  0  1  0  0  0  0  0  0
  194.3200  175.5340  140.1140 C   0  0  0  0  0  2  0  0  0  0  0  0
  195.4460  175.4620  141.1450 C   0  0  0  0  0  2  0  0  0  0  0  0
  197.8130  174.7770  141.6050 C   0  0  0  0  0  1  0  0  0  0  0  0
  196.7200  174.8880  140.5500 C   0  0  0  0  0  2  0  0  0  0  0  0
  1  8  1  0  0  0  0
  2  1  1  0  0  0  0
  2  5  1  0  0  0  0
  3 32  1  6  0  0  0
  3  5  1  0  0  0  0
  4  6  1  0  0  0  0
  4  3  1  0  0  0  0
  6  2  2  0  0  0  0
  8  7  1  6  0  0  0
 10  9  1  0  0  0  0
 11 16  1  1  0  0  0
 11 17  1  0  0  0  0
 11 14  1  0  0  0  0
 12  8  1  6  0  0  0
 12 19  1  0  0  0  0
 13 16  1  0  0  0  0
 13 10  1  0  0  0  0
 14  9  1  6  0  0  0
 14 15  1  0  0  0  0
 15 19  1  0  0  0  0
 17 12  1  0  0  0  0
 18 10  1  0  0  0  0
 19 20  1  1  0  0  0
 20 26  1  1  0  0  0
 20 22  1  0  0  0  0
 22 21  1  6  0  0  0
 22 23  1  0  0  0  0
 23 25  1  0  0  0  0
 24 23  2  0  0  0  0
 26 27  1  0  0  0  0
 28 29  1  1  0  0  0
 28 30  1  0  0  0  0
 28 31  1  0  0  0  0
 30 27  1  6  0  0  0
 30 31  1  0  0  0  0
 33 36  1  0  0  0  0
 33 32  1  1  0  0  0
 34 35  1  0  0  0  0
 35 58  1  0  0  0  0
 35 36  2  0  0  0  0
 38 47  1  0  0  0  0
 39 46  1  6  0  0  0
 39 54  1  0  0  0  0
 40 42  1  6  0  0  0
 40 34  1  0  0  0  0
 41 37  1  1  0  0  0
 44 42  1  0  0  0  0
 45 41  1  0  0  0  0
 45 51  1  0  0  0  0
 46 41  1  0  0  0  0
 47 33  1  0  0  0  0
 48 52  1  0  0  0  0
 48 51  1  0  0  0  0
 49 44  1  0  0  0  0
 49 55  1  0  0  0  0
 50 34  2  0  0  0  0
 50 47  1  0  0  0  0
 51 43  1  6  0  0  0
 52 56  1  6  0  0  0
 53 55  1  0  0  0  0
 53 52  1  0  0  0  0
 53 39  1  0  0  0  0
 54 50  1  0  0  0  0
 55 40  1  0  0  0  0
 56 57  1  0  0  0  0
 58 59  1  0  0  0  0
 61 59  1  0  0  0  0
 61 60  1  0  0  0  0
M  END
>  <MODEL>
5

>  <REMARK>
 VINA RESULT:      -5.4      2.594      5.883
  Name = 
  14 active torsions:
  status: ('A' for Active; 'I' for Inactive)
    1  A    between atoms: C_1  and  O_16
    2  A    between atoms: C_2  and  C_48
    3  A    between atoms: C_2  and  C_53
    4  A    between atoms: N_5  and  C_39
    5  A    between atoms: O_9  and  O_46
    6  A    between atoms: O_9  and  C_51
    7  A    between atoms: C_11  and  C_48
    8  A    between atoms: C_13  and  C_39
    9  A    between atoms: C_15  and  C_59
   10  A    between atoms: O_16  and  C_41
   11  A    between atoms: O_34  and  C_56
   12  A    between atoms: C_42  and  O_46
   13  A    between atoms: C_42  and  C_50
   14  A    between atoms: C_42  and  C_59
                            x       y       z     vdW  Elec       q    Type
                         _______ _______ _______ _____ _____    ______ ____

>  <TORSDO>
F 14

$$$$
=
 OpenBabel11062422593D

 61 68  0  0  1  0  0  0  0  0999 V2000
  195.7890  171.2590  143.3340 N   0  0  0  0  0  2  0  0  0  0  0  0
  194.4470  170.8020  143.5000 C   0  0  0  0  0  0  0  0  0  0  0  0
  192.1860  170.7580  143.3200 C   0  0  2  0  0  3  0  0  0  0  0  0
  192.6890  169.6710  144.2920 C   0  0  0  0  0  2  0  0  0  0  0  0
  193.3730  171.3680  142.8460 O   0  0  0  0  0  0  0  0  0  0  0  0
  194.1370  169.8470  144.3090 N   0  0  0  0  0  0  0  0  0  0  0  0
  197.0260  173.1920  142.9400 O   0  0  0  0  0  1  0  0  0  0  0  0
  196.1420  172.2820  142.3550 C   0  0  1  0  0  3  0  0  0  0  0  0
  196.0220  169.4500  137.4350 C   0  0  0  0  0  2  0  0  0  0  0  0
  194.5880  169.6990  137.5840 N   0  0  0  0  0  0  0  0  0  0  0  0
  196.2240  169.4180  139.9590 C   0  0  2  0  0  3  0  0  0  0  0  0
  196.8070  171.6670  141.1110 C   0  0  1  0  0  3  0  0  0  0  0  0
  194.1060  168.9220  138.7210 C   0  0  0  0  0  2  0  0  0  0  0  0
  196.7930  169.9860  138.6420 C   0  0  2  0  0  3  0  0  0  0  0  0
  196.8920  171.5170  138.5970 C   0  0  0  0  0  2  0  0  0  0  0  0
  194.6930  169.4820  140.0110 C   0  0  0  0  0  2  0  0  0  0  0  0
  196.8310  170.1210  141.1760 C   0  0  0  0  0  2  0  0  0  0  0  0
  193.9450  169.1510  136.4030 C   0  0  0  0  0  1  0  0  0  0  0  0
  196.2060  172.1960  139.7860 C   0  0  2  0  0  3  0  0  0  0  0  0
  196.2180  173.7350  139.7000 C   0  0  2  0  0  3  0  0  0  0  0  0
  194.3970  175.0500  140.9420 C   0  0  0  0  0  1  0  0  0  0  0  0
  194.8140  174.3630  139.6510 C   0  0  2  0  0  3  0  0  0  0  0  0
  193.7690  173.4170  139.1600 C   0  0  0  0  0  0  0  0  0  0  0  0
  193.8090  172.9780  137.8410 O   0  0  0  0  0  0  0  0  0  0  0  0
  192.8160  173.0650  139.9000 O   0  0  0  0  0  1  0  0  0  0  0  0
  197.1890  174.3160  138.8550 O   0  0  0  0  0  0  0  0  0  0  0  0
  196.6250  175.3480  138.2520 O   0  0  0  0  0  0  0  0  0  0  0  0
  196.5260  175.5700  135.8870 C   0  0  2  0  0  3  0  0  0  0  0  0
  197.1890  176.3180  134.8340 N   0  0  0  0  0  1  0  0  0  0  0  0
  197.4080  175.5700  137.1170 C   0  0  2  0  0  3  0  0  0  0  0  0
  197.3520  174.3490  136.2290 C   0  0  0  0  0  2  0  0  0  0  0  0
  191.3120  171.7140  143.9080 O   0  0  0  0  0  0  0  0  0  0  0  0
  190.9620  172.7120  142.9700 C   0  0  1  0  0  3  0  0  0  0  0  0
  189.0330  174.8060  142.3830 C   0  0  0  0  0  0  0  0  0  0  0  0
  188.7530  173.3780  142.0520 C   0  0  0  0  0  0  0  0  0  0  0  0
  189.6280  172.4200  142.3560 C   0  0  0  0  0  3  0  0  0  0  0  0
  190.0030  176.5900  147.5480 C   0  0  0  0  0  1  0  0  0  0  0  0
  192.1780  174.3650  144.3890 C   0  0  0  0  0  1  0  0  0  0  0  0
  189.2380  176.9760  144.5820 C   0  0  1  0  0  3  0  0  0  0  0  0
  187.9940  175.8380  141.9350 C   0  0  2  0  0  3  0  0  0  0  0  0
  189.3950  177.8600  146.9520 C   0  0  2  0  0  3  0  0  0  0  0  0
  187.8080  175.8950  140.4320 C   0  0  0  0  0  2  0  0  0  0  0  0
  186.4430  176.3990  147.9080 C   0  0  0  0  0  1  0  0  0  0  0  0
  187.2510  177.2810  140.1810 C   0  0  0  0  0  2  0  0  0  0  0  0
  188.0340  178.0730  147.2770 O   0  0  0  0  0  0  0  0  0  0  0  0
  189.7350  178.0980  145.4790 C   0  0  0  0  0  2  0  0  0  0  0  0
  190.9950  174.0350  143.5990 N   0  0  0  0  0  0  0  0  0  0  0  0
  186.3510  177.4890  145.6780 C   0  0  0  0  0  2  0  0  0  0  0  0
  187.4160  178.0370  141.4910 C   0  0  0  0  0  2  0  0  0  0  0  0
  190.1030  175.0910  143.1800 C   0  0  0  0  0  0  0  0  0  0  0  0
  187.2630  177.0000  146.7880 C   0  0  2  0  0  3  0  0  0  0  0  0
  186.7180  176.8350  144.3480 C   0  0  2  0  0  3  0  0  0  0  0  0
  188.0210  177.4520  143.7710 C   0  0  2  0  0  3  0  0  0  0  0  0
  190.3780  176.4820  143.6920 C   0  0  0  0  0  2  0  0  0  0  0  0
  188.2630  177.2120  142.3370 N   0  0  1  0  0  0  0  0  0  0  0  0
  185.6440  176.9840  143.4630 O   0  0  0  0  0  0  0  0  0  0  0  0
  184.8240  177.9490  144.0570 C   0  0  0  0  0  1  0  0  0  0  0  0
  187.5220  173.0010  141.2790 C   0  0  0  0  0  2  0  0  0  0  0  0
  187.8290  172.2680  139.9740 C   0  0  0  0  0  2  0  0  0  0  0  0
  189.3280  172.3970  137.9700 C   0  0  0  0  0  1  0  0  0  0  0  0
  188.4690  173.1860  138.9490 C   0  0  0  0  0  2  0  0  0  0  0  0
  1  2  1  0  0  0  0
  2  6  2  0  0  0  0
  3 32  1  1  0  0  0
  3  4  1  0  0  0  0
  4  6  1  0  0  0  0
  5  3  1  0  0  0  0
  5  2  1  0  0  0  0
  8  7  1  1  0  0  0
  8  1  1  0  0  0  0
  9 10  1  0  0  0  0
 10 13  1  0  0  0  0
 11 16  1  6  0  0  0
 11 17  1  0  0  0  0
 12 17  1  0  0  0  0
 12  8  1  1  0  0  0
 13 16  1  0  0  0  0
 14  9  1  6  0  0  0
 14 11  1  0  0  0  0
 15 14  1  0  0  0  0
 15 19  1  0  0  0  0
 18 10  1  0  0  0  0
 19 20  1  6  0  0  0
 19 12  1  0  0  0  0
 20 26  1  6  0  0  0
 22 20  1  0  0  0  0
 22 21  1  1  0  0  0
 23 22  1  0  0  0  0
 23 25  1  0  0  0  0
 24 23  2  0  0  0  0
 27 26  1  0  0  0  0
 28 29  1  6  0  0  0
 28 31  1  0  0  0  0
 28 30  1  0  0  0  0
 30 27  1  1  0  0  0
 31 30  1  0  0  0  0
 33 47  1  0  0  0  0
 33 32  1  1  0  0  0
 34 50  2  0  0  0  0
 35 36  2  0  0  0  0
 35 34  1  0  0  0  0
 36 33  1  0  0  0  0
 39 54  1  6  0  0  0
 39 46  1  0  0  0  0
 40 42  1  6  0  0  0
 40 55  1  0  0  0  0
 40 34  1  0  0  0  0
 41 45  1  0  0  0  0
 41 37  1  6  0  0  0
 44 42  1  0  0  0  0
 44 49  1  0  0  0  0
 46 41  1  0  0  0  0
 47 38  1  0  0  0  0
 48 51  1  0  0  0  0
 49 55  1  0  0  0  0
 50 47  1  0  0  0  0
 50 54  1  0  0  0  0
 51 45  1  0  0  0  0
 51 43  1  1  0  0  0
 52 56  1  6  0  0  0
 52 48  1  0  0  0  0
 53 52  1  0  0  0  0
 53 39  1  0  0  0  0
 55 53  1  0  0  0  0
 56 57  1  0  0  0  0
 58 35  1  0  0  0  0
 59 58  1  0  0  0  0
 60 61  1  0  0  0  0
 61 59  1  0  0  0  0
M  END
>  <MODEL>
6

>  <REMARK>
 VINA RESULT:      -5.4      2.812      8.682
  Name = 
  14 active torsions:
  status: ('A' for Active; 'I' for Inactive)
    1  A    between atoms: C_1  and  O_16
    2  A    between atoms: C_2  and  C_48
    3  A    between atoms: C_2  and  C_53
    4  A    between atoms: N_5  and  C_39
    5  A    between atoms: O_9  and  O_46
    6  A    between atoms: O_9  and  C_51
    7  A    between atoms: C_11  and  C_48
    8  A    between atoms: C_13  and  C_39
    9  A    between atoms: C_15  and  C_59
   10  A    between atoms: O_16  and  C_41
   11  A    between atoms: O_34  and  C_56
   12  A    between atoms: C_42  and  O_46
   13  A    between atoms: C_42  and  C_50
   14  A    between atoms: C_42  and  C_59
                            x       y       z     vdW  Elec       q    Type
                         _______ _______ _______ _____ _____    ______ ____

>  <TORSDO>
F 14

$$$$
=
 OpenBabel11062422593D

 61 68  0  0  1  0  0  0  0  0999 V2000
  195.6480  174.9870  136.4420 N   0  0  0  0  0  2  0  0  0  0  0  0
  195.6590  174.8180  137.8600 C   0  0  0  0  0  0  0  0  0  0  0  0
  194.8660  174.4960  139.9610 C   0  0  2  0  0  3  0  0  0  0  0  0
  196.3720  174.8330  139.9780 C   0  0  0  0  0  2  0  0  0  0  0  0
  194.5390  174.4630  138.5840 O   0  0  0  0  0  0  0  0  0  0  0  0
  196.7120  175.0280  138.5730 N   0  0  0  0  0  0  0  0  0  0  0  0
  194.3280  175.6330  134.6360 O   0  0  0  0  0  1  0  0  0  0  0  0
  194.4750  174.6660  135.6340 C   0  0  1  0  0  3  0  0  0  0  0  0
  196.1820  169.2520  135.5370 C   0  0  0  0  0  2  0  0  0  0  0  0
  196.4070  169.5310  136.9560 N   0  0  0  0  0  0  0  0  0  0  0  0
  196.6520  171.6900  135.0390 C   0  0  2  0  0  3  0  0  0  0  0  0
  194.6050  173.2820  134.9750 C   0  0  1  0  0  3  0  0  0  0  0  0
  197.5010  170.4900  137.0650 C   0  0  0  0  0  2  0  0  0  0  0  0
  195.6910  170.5040  134.8100 C   0  0  2  0  0  3  0  0  0  0  0  0
  194.2230  170.7970  135.1490 C   0  0  0  0  0  2  0  0  0  0  0  0
  197.0580  171.8380  136.5090 C   0  0  0  0  0  2  0  0  0  0  0  0
  196.0550  172.9980  134.5130 C   0  0  0  0  0  2  0  0  0  0  0  0
  196.8760  168.2940  137.5550 C   0  0  0  0  0  1  0  0  0  0  0  0
  194.0290  172.1440  135.8510 C   0  0  2  0  0  3  0  0  0  0  0  0
  192.5700  172.4030  136.2800 C   0  0  2  0  0  3  0  0  0  0  0  0
  193.3600  171.2170  138.4150 C   0  0  0  0  0  1  0  0  0  0  0  0
  192.1770  171.7010  137.5910 C   0  0  2  0  0  3  0  0  0  0  0  0
  191.1580  170.6280  137.3960 C   0  0  0  0  0  0  0  0  0  0  0  0
  191.5470  169.4040  136.8650 O   0  0  0  0  0  0  0  0  0  0  0  0
  189.9430  170.8360  137.6430 O   0  0  0  0  0  1  0  0  0  0  0  0
  191.5980  172.4000  135.2560 O   0  0  0  0  0  0  0  0  0  0  0  0
  191.3280  173.6590  134.9610 O   0  0  0  0  0  0  0  0  0  0  0  0
  189.4310  175.0780  135.1710 C   0  0  2  0  0  3  0  0  0  0  0  0
  188.1560  175.2970  134.5130 N   0  0  0  0  0  1  0  0  0  0  0  0
  189.9400  173.7000  134.8060 C   0  0  2  0  0  3  0  0  0  0  0  0
  189.2980  173.9360  136.1540 C   0  0  0  0  0  2  0  0  0  0  0  0
  194.0490  175.4220  140.6650 O   0  0  0  0  0  0  0  0  0  0  0  0
  193.7240  174.9250  141.9480 C   0  0  1  0  0  3  0  0  0  0  0  0
  192.0380  175.3600  144.2750 C   0  0  0  0  0  0  0  0  0  0  0  0
  193.3190  176.1040  144.0950 C   0  0  0  0  0  0  0  0  0  0  0  0
  194.0680  175.9240  143.0080 C   0  0  0  0  0  3  0  0  0  0  0  0
  187.8280  175.6460  140.6700 C   0  0  0  0  0  1  0  0  0  0  0  0
  191.8100  173.7080  140.9100 C   0  0  0  0  0  1  0  0  0  0  0  0
  189.0800  175.0250  143.4230 C   0  0  1  0  0  3  0  0  0  0  0  0
  191.2810  175.5890  145.5870 C   0  0  2  0  0  3  0  0  0  0  0  0
  187.0440  175.3620  141.9520 C   0  0  2  0  0  3  0  0  0  0  0  0
  192.0620  175.1720  146.8160 C   0  0  0  0  0  2  0  0  0  0  0  0
  187.1310  178.7760  142.2670 C   0  0  0  0  0  1  0  0  0  0  0  0
  190.9980  174.9200  147.8640 C   0  0  0  0  0  2  0  0  0  0  0  0
  186.4420  176.5000  142.5390 O   0  0  0  0  0  0  0  0  0  0  0  0
  187.7590  174.4440  142.9460 C   0  0  0  0  0  2  0  0  0  0  0  0
  192.3120  174.5370  142.0020 N   0  0  0  0  0  0  0  0  0  0  0  0
  187.5210  177.5580  144.3970 C   0  0  0  0  0  2  0  0  0  0  0  0
  189.6730  174.9240  147.1160 C   0  0  0  0  0  2  0  0  0  0  0  0
  191.5470  174.6450  143.2220 C   0  0  0  0  0  0  0  0  0  0  0  0
  187.4400  177.4310  142.8860 C   0  0  2  0  0  3  0  0  0  0  0  0
  188.8720  177.0650  144.9110 C   0  0  2  0  0  3  0  0  0  0  0  0
  188.9440  175.5150  144.8730 C   0  0  2  0  0  3  0  0  0  0  0  0
  190.1910  173.9870  143.2570 C   0  0  0  0  0  2  0  0  0  0  0  0
  190.0010  174.9040  145.7000 N   0  0  1  0  0  0  0  0  0  0  0  0
  189.0650  177.5580  146.2060 O   0  0  0  0  0  0  0  0  0  0  0  0
  187.7850  177.9080  146.6500 C   0  0  0  0  0  1  0  0  0  0  0  0
  193.8400  177.0000  145.1820 C   0  0  0  0  0  2  0  0  0  0  0  0
  194.7970  176.2920  146.1400 C   0  0  0  0  0  2  0  0  0  0  0  0
  195.9550  174.0740  146.0010 C   0  0  0  0  0  1  0  0  0  0  0  0
  195.8310  175.4660  145.3960 C   0  0  0  0  0  2  0  0  0  0  0  0
  1  2  1  0  0  0  0
  2  6  2  0  0  0  0
  2  5  1  0  0  0  0
  3  4  1  0  0  0  0
  3 32  1  1  0  0  0
  5  3  1  0  0  0  0
  6  4  1  0  0  0  0
  8  7  1  6  0  0  0
  8  1  1  0  0  0  0
  9 10  1  0  0  0  0
 10 13  1  0  0  0  0
 10 18  1  0  0  0  0
 11 17  1  1  0  0  0
 11 16  1  0  0  0  0
 12  8  1  1  0  0  0
 12 19  1  0  0  0  0
 14 11  1  0  0  0  0
 14 15  1  1  0  0  0
 14  9  1  0  0  0  0
 15 19  1  0  0  0  0
 16 13  1  0  0  0  0
 17 12  1  0  0  0  0
 19 20  1  6  0  0  0
 20 26  1  6  0  0  0
 20 22  1  0  0  0  0
 22 21  1  6  0  0  0
 23 22  1  0  0  0  0
 23 25  1  0  0  0  0
 24 23  2  0  0  0  0
 27 26  1  0  0  0  0
 28 29  1  6  0  0  0
 28 31  1  0  0  0  0
 30 27  1  1  0  0  0
 30 28  1  0  0  0  0
 30 31  1  0  0  0  0
 33 32  1  6  0  0  0
 33 47  1  0  0  0  0
 33 36  1  0  0  0  0
 34 40  1  0  0  0  0
 35 34  1  0  0  0  0
 35 58  1  0  0  0  0
 36 35  2  0  0  0  0
 38 47  1  0  0  0  0
 39 46  1  1  0  0  0
 39 53  1  0  0  0  0
 40 55  1  0  0  0  0
 40 42  1  1  0  0  0
 41 37  1  6  0  0  0
 41 45  1  0  0  0  0
 41 46  1  0  0  0  0
 42 44  1  0  0  0  0
 45 51  1  0  0  0  0
 47 50  1  0  0  0  0
 48 52  1  0  0  0  0
 49 44  1  0  0  0  0
 50 54  1  0  0  0  0
 50 34  2  0  0  0  0
 51 43  1  6  0  0  0
 51 48  1  0  0  0  0
 52 56  1  1  0  0  0
 53 52  1  0  0  0  0
 53 55  1  0  0  0  0
 54 39  1  0  0  0  0
 55 49  1  0  0  0  0
 56 57  1  0  0  0  0
 58 59  1  0  0  0  0
 61 60  1  0  0  0  0
 61 59  1  0  0  0  0
M  END
>  <MODEL>
7

>  <REMARK>
 VINA RESULT:      -5.3      2.569      9.651
  Name = 
  14 active torsions:
  status: ('A' for Active; 'I' for Inactive)
    1  A    between atoms: C_1  and  O_16
    2  A    between atoms: C_2  and  C_48
    3  A    between atoms: C_2  and  C_53
    4  A    between atoms: N_5  and  C_39
    5  A    between atoms: O_9  and  O_46
    6  A    between atoms: O_9  and  C_51
    7  A    between atoms: C_11  and  C_48
    8  A    between atoms: C_13  and  C_39
    9  A    between atoms: C_15  and  C_59
   10  A    between atoms: O_16  and  C_41
   11  A    between atoms: O_34  and  C_56
   12  A    between atoms: C_42  and  O_46
   13  A    between atoms: C_42  and  C_50
   14  A    between atoms: C_42  and  C_59
                            x       y       z     vdW  Elec       q    Type
                         _______ _______ _______ _____ _____    ______ ____

>  <TORSDO>
F 14

$$$$
=
 OpenBabel11062422593D

 61 68  0  0  1  0  0  0  0  0999 V2000
  192.0030  172.9330  144.8460 N   0  0  0  0  0  2  0  0  0  0  0  0
  193.1460  172.1200  144.5790 C   0  0  0  0  0  0  0  0  0  0  0  0
  194.4370  170.5400  143.5880 C   0  0  2  0  0  3  0  0  0  0  0  0
  195.1250  171.1150  144.8430 C   0  0  0  0  0  2  0  0  0  0  0  0
  193.2330  171.2770  143.4910 O   0  0  0  0  0  0  0  0  0  0  0  0
  194.1690  172.0860  145.3640 N   0  0  0  0  0  0  0  0  0  0  0  0
  190.4660  171.7420  143.5660 O   0  0  0  0  0  1  0  0  0  0  0  0
  190.8870  173.0290  143.9100 C   0  0  1  0  0  3  0  0  0  0  0  0
  188.6380  177.0140  147.2720 C   0  0  0  0  0  2  0  0  0  0  0  0
  190.0310  177.4600  147.3000 N   0  0  0  0  0  0  0  0  0  0  0  0
  189.4600  174.6390  146.9640 C   0  0  2  0  0  3  0  0  0  0  0  0
  189.7020  173.7960  144.5230 C   0  0  1  0  0  3  0  0  0  0  0  0
  190.8160  176.4610  148.0170 C   0  0  0  0  0  2  0  0  0  0  0  0
  188.4960  175.7310  146.4530 C   0  0  2  0  0  3  0  0  0  0  0  0
  188.5990  176.0220  144.9500 C   0  0  0  0  0  2  0  0  0  0  0  0
  190.8760  175.1740  147.2020 C   0  0  0  0  0  2  0  0  0  0  0  0
  189.4930  173.4390  146.0150 C   0  0  0  0  0  2  0  0  0  0  0  0
  190.0660  178.6700  148.1010 C   0  0  0  0  0  1  0  0  0  0  0  0
  189.7900  175.3230  144.2860 C   0  0  2  0  0  3  0  0  0  0  0  0
  189.9570  175.6860  142.7960 C   0  0  2  0  0  3  0  0  0  0  0  0
  189.0040  174.2530  140.8920 C   0  0  0  0  0  1  0  0  0  0  0  0
  188.7350  175.3290  141.9320 C   0  0  2  0  0  3  0  0  0  0  0  0
  188.0710  176.5260  141.3360 C   0  0  0  0  0  0  0  0  0  0  0  0
  187.3230  176.3840  140.1720 O   0  0  0  0  0  0  0  0  0  0  0  0
  188.2320  177.6690  141.8310 O   0  0  0  0  0  1  0  0  0  0  0  0
  191.2210  175.4350  142.2200 O   0  0  0  0  0  0  0  0  0  0  0  0
  192.0820  176.2700  142.7730 O   0  0  0  0  0  0  0  0  0  0  0  0
  194.2090  176.2740  143.8360 C   0  0  2  0  0  3  0  0  0  0  0  0
  195.1250  175.3260  144.4450 N   0  0  0  0  0  1  0  0  0  0  0  0
  193.2500  175.5210  142.9400 C   0  0  2  0  0  3  0  0  0  0  0  0
  194.4130  176.2750  142.3380 C   0  0  0  0  0  2  0  0  0  0  0  0
  194.1860  169.1410  143.6450 O   0  0  0  0  0  0  0  0  0  0  0  0
  194.1010  168.5970  142.3420 C   0  0  1  0  0  3  0  0  0  0  0  0
  193.7760  169.2740  139.5340 C   0  0  0  0  0  0  0  0  0  0  0  0
  192.5990  169.1510  140.4430 C   0  0  0  0  0  0  0  0  0  0  0  0
  192.7590  168.8750  141.7370 C   0  0  0  0  0  3  0  0  0  0  0  0
  197.8780  172.9220  140.3560 C   0  0  0  0  0  1  0  0  0  0  0  0
  196.5370  169.0590  142.0720 C   0  0  0  0  0  1  0  0  0  0  0  0
  196.2120  170.9670  138.6440 C   0  0  1  0  0  3  0  0  0  0  0  0
  193.4850  169.5310  138.0530 C   0  0  2  0  0  3  0  0  0  0  0  0
  197.9410  172.8090  138.8320 C   0  0  2  0  0  3  0  0  0  0  0  0
  192.6920  168.4210  137.3920 C   0  0  0  0  0  2  0  0  0  0  0  0
  195.5780  175.2910  138.9640 C   0  0  0  0  0  1  0  0  0  0  0  0
  193.0180  168.5590  135.9190 C   0  0  0  0  0  2  0  0  0  0  0  0
  197.3170  173.8710  138.1350 O   0  0  0  0  0  0  0  0  0  0  0  0
  197.6170  171.4180  138.2820 C   0  0  0  0  0  2  0  0  0  0  0  0
  195.1920  169.1050  141.5060 N   0  0  0  0  0  0  0  0  0  0  0  0
  195.1130  173.5490  137.2560 C   0  0  0  0  0  2  0  0  0  0  0  0
  194.1830  169.5360  135.8440 C   0  0  0  0  0  2  0  0  0  0  0  0
  195.0250  169.2990  140.0850 C   0  0  0  0  0  0  0  0  0  0  0  0
  195.9500  173.9110  138.4700 C   0  0  2  0  0  3  0  0  0  0  0  0
  194.3520  172.2460  137.4920 C   0  0  2  0  0  3  0  0  0  0  0  0
  195.3060  171.0250  137.4020 C   0  0  2  0  0  3  0  0  0  0  0  0
  196.2610  169.5720  139.2670 C   0  0  0  0  0  2  0  0  0  0  0  0
  194.6550  169.7170  137.2070 N   0  0  1  0  0  0  0  0  0  0  0  0
  193.3150  172.1580  136.5560 O   0  0  0  0  0  0  0  0  0  0  0  0
  193.5290  173.2310  135.6840 C   0  0  0  0  0  1  0  0  0  0  0  0
  191.2020  169.2380  139.8990 C   0  0  0  0  0  2  0  0  0  0  0  0
  190.5780  170.6230  140.0610 C   0  0  0  0  0  2  0  0  0  0  0  0
  189.6890  170.0440  137.7910 C   0  0  0  0  0  1  0  0  0  0  0  0
  190.0740  171.1730  138.7390 C   0  0  0  0  0  2  0  0  0  0  0  0
  2  1  1  0  0  0  0
  2  6  2  0  0  0  0
  3 32  1  1  0  0  0
  3  4  1  0  0  0  0
  4  6  1  0  0  0  0
  5  3  1  0  0  0  0
  5  2  1  0  0  0  0
  8  7  1  1  0  0  0
  8  1  1  0  0  0  0
  9 10  1  0  0  0  0
 10 13  1  0  0  0  0
 10 18  1  0  0  0  0
 11 17  1  6  0  0  0
 11 16  1  0  0  0  0
 12  8  1  1  0  0  0
 12 17  1  0  0  0  0
 14 15  1  6  0  0  0
 14 11  1  0  0  0  0
 14  9  1  0  0  0  0
 16 13  1  0  0  0  0
 19 20  1  6  0  0  0
 19 12  1  0  0  0  0
 19 15  1  0  0  0  0
 20 26  1  6  0  0  0
 22 21  1  6  0  0  0
 22 20  1  0  0  0  0
 23 25  1  0  0  0  0
 23 22  1  0  0  0  0
 24 23  2  0  0  0  0
 26 27  1  0  0  0  0
 28 29  1  1  0  0  0
 30 27  1  6  0  0  0
 30 28  1  0  0  0  0
 31 30  1  0  0  0  0
 31 28  1  0  0  0  0
 33 32  1  1  0  0  0
 34 50  2  0  0  0  0
 34 35  1  0  0  0  0
 35 36  2  0  0  0  0
 36 33  1  0  0  0  0
 39 46  1  6  0  0  0
 39 54  1  0  0  0  0
 40 42  1  6  0  0  0
 40 34  1  0  0  0  0
 41 37  1  1  0  0  0
 44 42  1  0  0  0  0
 45 51  1  0  0  0  0
 45 41  1  0  0  0  0
 46 41  1  0  0  0  0
 47 38  1  0  0  0  0
 47 33  1  0  0  0  0
 48 52  1  0  0  0  0
 48 51  1  0  0  0  0
 49 44  1  0  0  0  0
 49 55  1  0  0  0  0
 50 47  1  0  0  0  0
 51 43  1  6  0  0  0
 52 56  1  6  0  0  0
 53 52  1  0  0  0  0
 53 39  1  0  0  0  0
 54 50  1  0  0  0  0
 55 53  1  0  0  0  0
 55 40  1  0  0  0  0
 57 56  1  0  0  0  0
 58 59  1  0  0  0  0
 58 35  1  0  0  0  0
 60 61  1  0  0  0  0
 61 59  1  0  0  0  0
M  END
>  <MODEL>
8

>  <REMARK>
 VINA RESULT:      -5.1      2.301      4.975
  Name = 
  14 active torsions:
  status: ('A' for Active; 'I' for Inactive)
    1  A    between atoms: C_1  and  O_16
    2  A    between atoms: C_2  and  C_48
    3  A    between atoms: C_2  and  C_53
    4  A    between atoms: N_5  and  C_39
    5  A    between atoms: O_9  and  O_46
    6  A    between atoms: O_9  and  C_51
    7  A    between atoms: C_11  and  C_48
    8  A    between atoms: C_13  and  C_39
    9  A    between atoms: C_15  and  C_59
   10  A    between atoms: O_16  and  C_41
   11  A    between atoms: O_34  and  C_56
   12  A    between atoms: C_42  and  O_46
   13  A    between atoms: C_42  and  C_50
   14  A    between atoms: C_42  and  C_59
                            x       y       z     vdW  Elec       q    Type
                         _______ _______ _______ _____ _____    ______ ____

>  <TORSDO>
F 14

$$$$
=
 OpenBabel11062422593D

 61 68  0  0  1  0  0  0  0  0999 V2000
  195.1670  174.7080  137.0440 N   0  0  0  0  0  2  0  0  0  0  0  0
  195.9540  174.8090  138.2310 C   0  0  0  0  0  0  0  0  0  0  0  0
  196.5140  175.3490  140.3620 C   0  0  2  0  0  3  0  0  0  0  0  0
  197.7270  174.7870  139.5910 C   0  0  0  0  0  2  0  0  0  0  0  0
  195.4510  175.2680  139.4310 O   0  0  0  0  0  0  0  0  0  0  0  0
  197.2090  174.5140  138.2550 N   0  0  0  0  0  0  0  0  0  0  0  0
  193.4830  176.2030  136.4510 O   0  0  0  0  0  1  0  0  0  0  0  0
  193.7290  174.9630  137.0460 C   0  0  1  0  0  3  0  0  0  0  0  0
  193.2280  169.7960  134.7440 C   0  0  0  0  0  2  0  0  0  0  0  0
  194.4270  169.5660  135.5500 N   0  0  0  0  0  0  0  0  0  0  0  0
  193.9140  172.2230  134.5140 C   0  0  2  0  0  3  0  0  0  0  0  0
  192.9630  173.8760  136.2720 C   0  0  1  0  0  3  0  0  0  0  0  0
  195.5150  170.3570  134.9860 C   0  0  0  0  0  2  0  0  0  0  0  0
  192.7680  171.2500  134.8620 C   0  0  2  0  0  3  0  0  0  0  0  0
  192.1000  171.5080  136.2190 C   0  0  0  0  0  2  0  0  0  0  0  0
  195.2330  171.8400  135.1950 C   0  0  0  0  0  2  0  0  0  0  0  0
  193.5380  173.6680  134.8490 C   0  0  0  0  0  2  0  0  0  0  0  0
  194.7900  168.1710  135.3700 C   0  0  0  0  0  1  0  0  0  0  0  0
  192.8420  172.5500  137.0620 C   0  0  2  0  0  3  0  0  0  0  0  0
  192.2320  172.7470  138.4640 C   0  0  2  0  0  3  0  0  0  0  0  0
  194.4340  171.7670  139.3480 C   0  0  0  0  0  1  0  0  0  0  0  0
  192.9380  171.9360  139.5650 C   0  0  2  0  0  3  0  0  0  0  0  0
  192.2670  170.6340  139.8530 C   0  0  0  0  0  0  0  0  0  0  0  0
  192.4900  169.5490  139.0120 O   0  0  0  0  0  0  0  0  0  0  0  0
  191.4540  170.5220  140.8040 O   0  0  0  0  0  1  0  0  0  0  0  0
  190.8230  172.8040  138.5410 O   0  0  0  0  0  0  0  0  0  0  0  0
  190.4810  174.0790  138.6040 O   0  0  0  0  0  0  0  0  0  0  0  0
  188.2030  174.5390  138.0970 C   0  0  2  0  0  3  0  0  0  0  0  0
  187.4320  175.2490  137.0930 N   0  0  0  0  0  1  0  0  0  0  0  0
  189.5860  174.2610  137.5470 C   0  0  2  0  0  3  0  0  0  0  0  0
  188.5500  173.1610  137.5790 C   0  0  0  0  0  2  0  0  0  0  0  0
  196.6850  176.6780  140.8380 O   0  0  0  0  0  0  0  0  0  0  0  0
  195.9560  176.8760  142.0340 C   0  0  1  0  0  3  0  0  0  0  0  0
  194.1110  175.6140  143.8920 C   0  0  0  0  0  0  0  0  0  0  0  0
  193.6270  176.2640  142.6380 C   0  0  0  0  0  0  0  0  0  0  0  0
  194.4830  176.8080  141.7750 C   0  0  0  0  0  3  0  0  0  0  0  0
  197.6820  171.3660  143.9270 C   0  0  0  0  0  1  0  0  0  0  0  0
  197.8120  175.7490  143.2630 C   0  0  0  0  0  1  0  0  0  0  0  0
  195.5270  173.1830  145.1850 C   0  0  1  0  0  3  0  0  0  0  0  0
  193.0450  175.0740  144.8490 C   0  0  2  0  0  3  0  0  0  0  0  0
  196.9220  171.0680  145.2200 C   0  0  2  0  0  3  0  0  0  0  0  0
  192.1180  176.1450  145.3880 C   0  0  0  0  0  2  0  0  0  0  0  0
  194.8060  169.3960  143.1000 C   0  0  0  0  0  1  0  0  0  0  0  0
  191.5840  175.5570  146.6780 C   0  0  0  0  0  2  0  0  0  0  0  0
  195.9330  170.0620  145.1040 O   0  0  0  0  0  0  0  0  0  0  0  0
  196.4700  172.3080  145.9940 C   0  0  0  0  0  2  0  0  0  0  0  0
  196.3760  175.9080  143.0520 N   0  0  0  0  0  0  0  0  0  0  0  0
  193.6410  170.7060  144.8600 C   0  0  0  0  0  2  0  0  0  0  0  0
  192.4360  174.3280  146.9560 C   0  0  0  0  0  2  0  0  0  0  0  0
  195.4520  175.4100  144.0430 C   0  0  0  0  0  0  0  0  0  0  0  0
  194.9660  170.4610  144.1620 C   0  0  2  0  0  3  0  0  0  0  0  0
  193.2400  172.1760  144.7620 C   0  0  2  0  0  3  0  0  0  0  0  0
  194.0930  173.0460  145.7240 C   0  0  2  0  0  3  0  0  0  0  0  0
  196.0220  174.6290  145.2000 C   0  0  0  0  0  2  0  0  0  0  0  0
  193.5520  174.3840  146.0270 N   0  0  1  0  0  0  0  0  0  0  0  0
  191.8740  172.2880  145.0430 O   0  0  0  0  0  0  0  0  0  0  0  0
  191.2330  171.7590  143.9180 C   0  0  0  0  0  1  0  0  0  0  0  0
  192.1560  176.4040  142.3700 C   0  0  0  0  0  2  0  0  0  0  0  0
  191.4740  175.0770  142.0410 C   0  0  0  0  0  2  0  0  0  0  0  0
  189.0660  174.4670  141.7040 C   0  0  0  0  0  1  0  0  0  0  0  0
  190.1080  174.9670  142.6960 C   0  0  0  0  0  2  0  0  0  0  0  0
  1  8  1  0  0  0  0
  1  2  1  0  0  0  0
  2  6  2  0  0  0  0
  2  5  1  0  0  0  0
  3 32  1  6  0  0  0
  4  3  1  0  0  0  0
  5  3  1  0  0  0  0
  6  4  1  0  0  0  0
  8  7  1  6  0  0  0
  9 10  1  0  0  0  0
 11 17  1  1  0  0  0
 11 14  1  0  0  0  0
 11 16  1  0  0  0  0
 12  8  1  1  0  0  0
 12 19  1  0  0  0  0
 13 16  1  0  0  0  0
 13 10  1  0  0  0  0
 14  9  1  1  0  0  0
 14 15  1  0  0  0  0
 15 19  1  0  0  0  0
 17 12  1  0  0  0  0
 18 10  1  0  0  0  0
 19 20  1  1  0  0  0
 20 26  1  6  0  0  0
 20 22  1  0  0  0  0
 22 21  1  6  0  0  0
 22 23  1  0  0  0  0
 23 25  1  0  0  0  0
 24 23  2  0  0  0  0
 26 27  1  0  0  0  0
 28 29  1  6  0  0  0
 30 31  1  0  0  0  0
 30 28  1  0  0  0  0
 30 27  1  1  0  0  0
 31 28  1  0  0  0  0
 33 32  1  6  0  0  0
 33 47  1  0  0  0  0
 34 50  2  0  0  0  0
 34 40  1  0  0  0  0
 35 34  1  0  0  0  0
 36 33  1  0  0  0  0
 36 35  2  0  0  0  0
 39 54  1  1  0  0  0
 39 53  1  0  0  0  0
 39 46  1  0  0  0  0
 40 42  1  1  0  0  0
 40 55  1  0  0  0  0
 41 37  1  6  0  0  0
 41 46  1  0  0  0  0
 42 44  1  0  0  0  0
 44 49  1  0  0  0  0
 45 41  1  0  0  0  0
 47 38  1  0  0  0  0
 47 50  1  0  0  0  0
 50 54  1  0  0  0  0
 51 43  1  6  0  0  0
 51 48  1  0  0  0  0
 51 45  1  0  0  0  0
 52 48  1  0  0  0  0
 52 56  1  1  0  0  0
 52 53  1  0  0  0  0
 53 55  1  0  0  0  0
 55 49  1  0  0  0  0
 57 56  1  0  0  0  0
 58 35  1  0  0  0  0
 59 58  1  0  0  0  0
 59 61  1  0  0  0  0
 60 61  1  0  0  0  0
M  END
>  <MODEL>
9

>  <REMARK>
 VINA RESULT:      -5.1      2.670      8.871
  Name = 
  14 active torsions:
  status: ('A' for Active; 'I' for Inactive)
    1  A    between atoms: C_1  and  O_16
    2  A    between atoms: C_2  and  C_48
    3  A    between atoms: C_2  and  C_53
    4  A    between atoms: N_5  and  C_39
    5  A    between atoms: O_9  and  O_46
    6  A    between atoms: O_9  and  C_51
    7  A    between atoms: C_11  and  C_48
    8  A    between atoms: C_13  and  C_39
    9  A    between atoms: C_15  and  C_59
   10  A    between atoms: O_16  and  C_41
   11  A    between atoms: O_34  and  C_56
   12  A    between atoms: C_42  and  O_46
   13  A    between atoms: C_42  and  C_50
   14  A    between atoms: C_42  and  C_59
                            x       y       z     vdW  Elec       q    Type
                         _______ _______ _______ _____ _____    ______ ____

>  <TORSDO>
F 14

$$$$
