=
 OpenBabel11072409273D

 39 43  0  0  1  0  0  0  0  0999 V2000
  188.5720  177.5230  146.5430 C   0  0  0  0  0  0  0  0  0  0  0  0
  186.3870  178.1820  145.6340 N   0  0  0  0  0  0  0  0  0  0  0  0
  185.5460  178.1810  146.8050 C   0  0  0  0  0  0  0  0  0  0  0  0
  190.0190  176.0390  145.0230 C   0  0  1  0  0  3  0  0  0  0  0  0
  186.3830  176.6540  142.2840 C   0  0  2  0  0  3  0  0  0  0  0  0
  183.9350  178.2700  142.6610 C   0  0  0  0  0  2  0  0  0  0  0  0
  188.4540  178.3750  147.7420 C   0  0  0  0  0  3  0  0  0  0  0  0
  189.9350  176.8920  146.3010 C   0  0  2  0  0  3  0  0  0  0  0  0
  187.3510  178.7980  148.3550 C   0  0  0  0  0  3  0  0  0  0  0  0
  184.6620  178.5330  143.9540 C   0  0  0  0  0  3  0  0  0  0  0  0
  184.1590  177.8780  146.6870 N   0  0  0  0  0  1  0  0  0  0  0  0
  185.8210  177.5330  141.2040 C   0  0  0  0  0  3  0  0  0  0  0  0
  186.0060  178.4880  147.9800 N   0  0  0  0  0  0  0  0  0  0  0  0
  186.9530  177.5970  143.3530 C   0  0  2  0  0  3  0  0  0  0  0  0
  187.9280  177.0070  144.2640 N   0  0  0  0  0  0  0  0  0  0  0  0
  184.7480  178.3050  141.4000 C   0  0  0  0  0  3  0  0  0  0  0  0
  187.6410  177.5110  145.5700 C   0  0  0  0  0  0  0  0  0  0  0  0
  189.2960  176.7140  143.8660 C   0  0  0  0  0  2  0  0  0  0  0  0
  185.9060  178.1540  144.2850 C   0  0  0  0  0  0  0  0  0  0  0  0
  191.8590  174.3890  144.6130 C   0  0  0  0  0  0  0  0  0  0  0  0
  192.3050  176.8580  144.3320 C   0  0  0  0  0  1  0  0  0  0  0  0
  191.4070  175.7550  144.6630 N   0  0  0  0  0  0  0  0  0  0  0  0
  191.1340  173.4730  145.0910 O   0  0  0  0  0  0  0  0  0  0  0  0
  193.0650  173.0680  142.8350 C   0  0  0  0  0  2  0  0  0  0  0  0
  193.4690  174.5160  142.6030 C   0  0  0  0  0  2  0  0  0  0  0  0
  193.1830  174.0210  144.0050 C   0  0  0  0  0  0  0  0  0  0  0  0
  194.3750  173.7040  144.8980 C   0  0  0  0  0  2  0  0  0  0  0  0
  196.0540  175.3730  144.6310 O   0  0  0  0  0  0  0  0  0  0  0  0
  194.6940  175.6210  146.4630 O   0  0  0  0  0  1  0  0  0  0  0  0
  195.0840  174.9480  145.3130 C   0  0  0  0  0  0  0  0  0  0  0  0
  188.1000  176.1220  140.6970 O   0  0  0  0  0  0  0  0  0  0  0  0
  187.4070  175.7420  141.6830 C   0  0  0  0  0  0  0  0  0  0  0  0
  187.5770  174.4680  142.2270 O   0  0  0  0  0  0  0  0  0  0  0  0
  188.2680  172.8040  140.0990 O   0  0  0  0  0  0  0  0  0  0  0  0
  188.7410  173.3550  141.6300 P   0  0  0  0  0  0  0  0  0  0  0  0
  190.0890  174.0300  141.5320 O   0  0  0  0  0  1  0  0  0  0  0  0
  188.8450  172.0360  142.6860 O   0  0  0  0  0  1  0  0  0  0  0  0
  190.4020  176.0840  147.5110 C   0  0  0  0  0  2  0  0  0  0  0  0
  189.6730  174.8990  147.6250 O   0  0  0  0  0  1  0  0  0  0  0  0
  1  7  1  0  0  0  0
  2  3  1  0  0  0  0
  3 13  2  0  0  0  0
  4 22  1  6  0  0  0
  4  8  1  0  0  0  0
  5 32  1  6  0  0  0
  5 14  1  0  0  0  0
  6 10  1  0  0  0  0
  7  9  2  0  0  0  0
  8  1  1  0  0  0  0
  8 38  1  1  0  0  0
 10 19  2  0  0  0  0
 11  3  1  0  0  0  0
 12 16  2  0  0  0  0
 12  5  1  0  0  0  0
 13  9  1  0  0  0  0
 14 15  1  0  0  0  0
 14 19  1  1  0  0  0
 15 17  1  0  0  0  0
 16  6  1  0  0  0  0
 17  2  1  0  0  0  0
 17  1  2  0  0  0  0
 18 15  1  0  0  0  0
 18  4  1  0  0  0  0
 19  2  1  0  0  0  0
 20 22  1  0  0  0  0
 20 23  2  0  0  0  0
 21 22  1  0  0  0  0
 24 26  1  0  0  0  0
 25 24  1  0  0  0  0
 25 26  1  0  0  0  0
 26 20  1  0  0  0  0
 26 27  1  0  0  0  0
 27 30  1  0  0  0  0
 28 30  2  0  0  0  0
 30 29  1  0  0  0  0
 31 32  2  0  0  0  0
 32 33  1  0  0  0  0
 34 35  2  0  0  0  0
 35 33  1  0  0  0  0
 35 37  1  0  0  0  0
 36 35  1  0  0  0  0
 38 39  1  0  0  0  0
M  END
>  <MODEL>
1

>  <REMARK>
 VINA RESULT:      -7.6      0.000      0.000
  Name = 
  8 active torsions:
  status: ('A' for Active; 'I' for Inactive)
    1  A    between atoms: C_6  and  C_39
    2  A    between atoms: C_8  and  N_27
    3  A    between atoms: C_9  and  C_22
    4  A    between atoms: C_13  and  C_15
    5  A    between atoms: C_20  and  C_37
    6  A    between atoms: P_21  and  O_23
    7  A    between atoms: C_22  and  O_23
    8  A    between atoms: C_37  and  C_39
                            x       y       z     vdW  Elec       q    Type
                         _______ _______ _______ _____ _____    ______ ____

>  <TORSDO>
F 8

$$$$
=
 OpenBabel11072409273D

 39 43  0  0  1  0  0  0  0  0999 V2000
  188.4890  177.4100  146.5300 C   0  0  0  0  0  0  0  0  0  0  0  0
  186.3830  178.1700  145.5170 N   0  0  0  0  0  0  0  0  0  0  0  0
  185.4910  178.2240  146.6480 C   0  0  0  0  0  0  0  0  0  0  0  0
  189.9250  175.8390  145.0890 C   0  0  1  0  0  3  0  0  0  0  0  0
  186.4540  176.6110  142.1810 C   0  0  2  0  0  3  0  0  0  0  0  0
  184.0770  178.3520  142.4330 C   0  0  0  0  0  2  0  0  0  0  0  0
  188.3590  178.2790  147.7150 C   0  0  0  0  0  3  0  0  0  0  0  0
  189.8270  176.7090  146.3550 C   0  0  2  0  0  3  0  0  0  0  0  0
  187.2530  178.7640  148.2740 C   0  0  0  0  0  3  0  0  0  0  0  0
  184.7560  178.5910  143.7560 C   0  0  0  0  0  3  0  0  0  0  0  0
  184.0980  177.9900  146.4680 N   0  0  0  0  0  1  0  0  0  0  0  0
  185.9870  177.5060  141.0700 C   0  0  0  0  0  3  0  0  0  0  0  0
  185.9130  178.5180  147.8390 N   0  0  0  0  0  0  0  0  0  0  0  0
  187.0220  177.5340  143.2690 C   0  0  2  0  0  3  0  0  0  0  0  0
  187.9230  176.9050  144.2280 N   0  0  0  0  0  0  0  0  0  0  0  0
  184.9470  178.3340  141.2100 C   0  0  0  0  0  3  0  0  0  0  0  0
  187.6040  177.4360  145.5150 C   0  0  0  0  0  0  0  0  0  0  0  0
  189.2920  176.5390  143.8950 C   0  0  0  0  0  2  0  0  0  0  0  0
  185.9640  178.1530  144.1470 C   0  0  0  0  0  0  0  0  0  0  0  0
  192.2870  176.5250  144.6090 C   0  0  0  0  0  0  0  0  0  0  0  0
  191.6920  174.0740  144.7250 C   0  0  0  0  0  1  0  0  0  0  0  0
  191.3120  175.4820  144.7950 N   0  0  0  0  0  0  0  0  0  0  0  0
  191.9050  177.7200  144.4760 O   0  0  0  0  0  0  0  0  0  0  0  0
  194.5900  177.1640  145.4130 C   0  0  0  0  0  2  0  0  0  0  0  0
  194.4050  175.7130  145.8330 C   0  0  0  0  0  2  0  0  0  0  0  0
  193.7590  176.2260  144.5640 C   0  0  0  0  0  0  0  0  0  0  0  0
  194.4310  175.8850  143.2410 C   0  0  0  0  0  2  0  0  0  0  0  0
  194.9240  173.5580  143.3780 O   0  0  0  0  0  0  0  0  0  0  0  0
  196.7260  174.9650  143.5780 O   0  0  0  0  0  1  0  0  0  0  0  0
  195.3690  174.7360  143.3930 C   0  0  0  0  0  0  0  0  0  0  0  0
  188.1770  175.9580  140.6470 O   0  0  0  0  0  0  0  0  0  0  0  0
  187.4560  175.6420  141.6350 C   0  0  0  0  0  0  0  0  0  0  0  0
  187.5740  174.3860  142.2320 O   0  0  0  0  0  0  0  0  0  0  0  0
  188.3400  172.6350  140.2020 O   0  0  0  0  0  0  0  0  0  0  0  0
  188.7450  173.2320  141.7350 P   0  0  0  0  0  0  0  0  0  0  0  0
  190.1100  173.8800  141.6830 O   0  0  0  0  0  1  0  0  0  0  0  0
  188.7700  171.9500  142.8410 O   0  0  0  0  0  1  0  0  0  0  0  0
  190.1970  175.8900  147.5920 C   0  0  0  0  0  2  0  0  0  0  0  0
  189.4680  174.7000  147.6320 O   0  0  0  0  0  1  0  0  0  0  0  0
  1  7  1  0  0  0  0
  2  3  1  0  0  0  0
  3 13  2  0  0  0  0
  4 22  1  6  0  0  0
  4  8  1  0  0  0  0
  5 32  1  6  0  0  0
  5 14  1  0  0  0  0
  6 10  1  0  0  0  0
  7  9  2  0  0  0  0
  8  1  1  0  0  0  0
  8 38  1  1  0  0  0
 10 19  2  0  0  0  0
 11  3  1  0  0  0  0
 12 16  2  0  0  0  0
 12  5  1  0  0  0  0
 13  9  1  0  0  0  0
 14 19  1  1  0  0  0
 14 15  1  0  0  0  0
 15 17  1  0  0  0  0
 16  6  1  0  0  0  0
 17  2  1  0  0  0  0
 17  1  2  0  0  0  0
 18 15  1  0  0  0  0
 18  4  1  0  0  0  0
 19  2  1  0  0  0  0
 20 22  1  0  0  0  0
 21 22  1  0  0  0  0
 23 20  2  0  0  0  0
 24 25  1  0  0  0  0
 26 20  1  0  0  0  0
 26 24  1  0  0  0  0
 26 25  1  0  0  0  0
 27 30  1  0  0  0  0
 27 26  1  0  0  0  0
 28 30  2  0  0  0  0
 30 29  1  0  0  0  0
 31 32  2  0  0  0  0
 32 33  1  0  0  0  0
 34 35  2  0  0  0  0
 35 33  1  0  0  0  0
 35 37  1  0  0  0  0
 36 35  1  0  0  0  0
 38 39  1  0  0  0  0
M  END
>  <MODEL>
2

>  <REMARK>
 VINA RESULT:      -7.3      1.073      1.660
  Name = 
  8 active torsions:
  status: ('A' for Active; 'I' for Inactive)
    1  A    between atoms: C_6  and  C_39
    2  A    between atoms: C_8  and  N_27
    3  A    between atoms: C_9  and  C_22
    4  A    between atoms: C_13  and  C_15
    5  A    between atoms: C_20  and  C_37
    6  A    between atoms: P_21  and  O_23
    7  A    between atoms: C_22  and  O_23
    8  A    between atoms: C_37  and  C_39
                            x       y       z     vdW  Elec       q    Type
                         _______ _______ _______ _____ _____    ______ ____

>  <TORSDO>
F 8

$$$$
=
 OpenBabel11072409273D

 39 43  0  0  1  0  0  0  0  0999 V2000
  188.5120  177.5060  146.5500 C   0  0  0  0  0  0  0  0  0  0  0  0
  186.3490  178.1930  145.6100 N   0  0  0  0  0  0  0  0  0  0  0  0
  185.4930  178.2090  146.7700 C   0  0  0  0  0  0  0  0  0  0  0  0
  189.9570  175.9950  145.0550 C   0  0  1  0  0  3  0  0  0  0  0  0
  186.3670  176.6530  142.2660 C   0  0  2  0  0  3  0  0  0  0  0  0
  183.9380  178.3050  142.6040 C   0  0  0  0  0  2  0  0  0  0  0  0
  188.3900  178.3650  147.7440 C   0  0  0  0  0  3  0  0  0  0  0  0
  189.8690  176.8550  146.3290 C   0  0  2  0  0  3  0  0  0  0  0  0
  187.2860  178.8060  148.3420 C   0  0  0  0  0  3  0  0  0  0  0  0
  184.6510  178.5620  143.9060 C   0  0  0  0  0  3  0  0  0  0  0  0
  184.1030  177.9250  146.6340 N   0  0  0  0  0  1  0  0  0  0  0  0
  185.8330  177.5350  141.1760 C   0  0  0  0  0  3  0  0  0  0  0  0
  185.9420  178.5130  147.9490 N   0  0  0  0  0  0  0  0  0  0  0  0
  186.9360  177.5910  143.3390 C   0  0  2  0  0  3  0  0  0  0  0  0
  187.8910  176.9900  144.2650 N   0  0  0  0  0  0  0  0  0  0  0  0
  184.7680  178.3230  141.3540 C   0  0  0  0  0  3  0  0  0  0  0  0
  187.5940  177.5040  145.5650 C   0  0  0  0  0  0  0  0  0  0  0  0
  189.2600  176.6770  143.8860 C   0  0  0  0  0  2  0  0  0  0  0  0
  185.8860  178.1670  144.2540 C   0  0  0  0  0  0  0  0  0  0  0  0
  191.7580  174.3160  144.5930 C   0  0  0  0  0  0  0  0  0  0  0  0
  192.2850  176.7820  144.4740 C   0  0  0  0  0  1  0  0  0  0  0  0
  191.3460  175.6900  144.7140 N   0  0  0  0  0  0  0  0  0  0  0  0
  190.9930  173.3960  144.9970 O   0  0  0  0  0  0  0  0  0  0  0  0
  194.2410  174.0800  144.9690 C   0  0  0  0  0  2  0  0  0  0  0  0
  193.7670  172.7020  144.5340 C   0  0  0  0  0  2  0  0  0  0  0  0
  193.0870  173.9430  143.9990 C   0  0  0  0  0  0  0  0  0  0  0  0
  193.4500  174.3960  142.5910 C   0  0  0  0  0  2  0  0  0  0  0  0
  195.2060  175.9960  142.7730 O   0  0  0  0  0  1  0  0  0  0  0  0
  195.8470  173.8940  142.1140 O   0  0  0  0  0  0  0  0  0  0  0  0
  194.8800  174.8090  142.5090 C   0  0  0  0  0  0  0  0  0  0  0  0
  188.0820  176.0810  140.6890 O   0  0  0  0  0  0  0  0  0  0  0  0
  187.3860  175.7230  141.6820 C   0  0  0  0  0  0  0  0  0  0  0  0
  187.5470  174.4580  142.2490 O   0  0  0  0  0  0  0  0  0  0  0  0
  188.2480  172.7750  140.1390 O   0  0  0  0  0  0  0  0  0  0  0  0
  188.7060  173.3280  141.6740 P   0  0  0  0  0  0  0  0  0  0  0  0
  190.0630  173.9870  141.5900 O   0  0  0  0  0  1  0  0  0  0  0  0
  188.7800  172.0130  142.7390 O   0  0  0  0  0  1  0  0  0  0  0  0
  190.3080  176.0450  147.5480 C   0  0  0  0  0  2  0  0  0  0  0  0
  189.6010  174.8430  147.6240 O   0  0  0  0  0  1  0  0  0  0  0  0
  1  7  1  0  0  0  0
  2  3  1  0  0  0  0
  3 13  2  0  0  0  0
  4 22  1  6  0  0  0
  4  8  1  0  0  0  0
  5 32  1  6  0  0  0
  5 14  1  0  0  0  0
  6 10  1  0  0  0  0
  7  9  2  0  0  0  0
  8  1  1  0  0  0  0
  8 38  1  1  0  0  0
 10 19  2  0  0  0  0
 11  3  1  0  0  0  0
 12 16  2  0  0  0  0
 12  5  1  0  0  0  0
 13  9  1  0  0  0  0
 14 19  1  1  0  0  0
 14 15  1  0  0  0  0
 15 17  1  0  0  0  0
 16  6  1  0  0  0  0
 17  2  1  0  0  0  0
 17  1  2  0  0  0  0
 18 15  1  0  0  0  0
 18  4  1  0  0  0  0
 19  2  1  0  0  0  0
 20 22  1  0  0  0  0
 20 23  2  0  0  0  0
 21 22  1  0  0  0  0
 25 24  1  0  0  0  0
 26 25  1  0  0  0  0
 26 20  1  0  0  0  0
 26 24  1  0  0  0  0
 27 26  1  0  0  0  0
 29 30  2  0  0  0  0
 30 27  1  0  0  0  0
 30 28  1  0  0  0  0
 31 32  2  0  0  0  0
 32 33  1  0  0  0  0
 34 35  2  0  0  0  0
 35 33  1  0  0  0  0
 35 37  1  0  0  0  0
 36 35  1  0  0  0  0
 38 39  1  0  0  0  0
M  END
>  <MODEL>
3

>  <REMARK>
 VINA RESULT:      -7.2      0.760      1.205
  Name = 
  8 active torsions:
  status: ('A' for Active; 'I' for Inactive)
    1  A    between atoms: C_6  and  C_39
    2  A    between atoms: C_8  and  N_27
    3  A    between atoms: C_9  and  C_22
    4  A    between atoms: C_13  and  C_15
    5  A    between atoms: C_20  and  C_37
    6  A    between atoms: P_21  and  O_23
    7  A    between atoms: C_22  and  O_23
    8  A    between atoms: C_37  and  C_39
                            x       y       z     vdW  Elec       q    Type
                         _______ _______ _______ _____ _____    ______ ____

>  <TORSDO>
F 8

$$$$
=
 OpenBabel11072409273D

 39 43  0  0  1  0  0  0  0  0999 V2000
  192.1320  175.9460  144.6310 C   0  0  0  0  0  0  0  0  0  0  0  0
  193.2230  173.9070  143.8010 N   0  0  0  0  0  0  0  0  0  0  0  0
  194.5730  174.3490  143.5560 C   0  0  0  0  0  0  0  0  0  0  0  0
  189.6800  176.2710  143.9320 C   0  0  1  0  0  3  0  0  0  0  0  0
  190.5320  172.2250  141.9320 C   0  0  2  0  0  3  0  0  0  0  0  0
  192.9490  170.5210  141.9760 C   0  0  0  0  0  2  0  0  0  0  0  0
  193.2710  176.3390  145.4830 C   0  0  0  0  0  3  0  0  0  0  0  0
  190.8480  176.7390  144.8190 C   0  0  2  0  0  3  0  0  0  0  0  0
  194.5600  176.0430  145.3370 C   0  0  0  0  0  3  0  0  0  0  0  0
  193.3920  171.6820  142.8290 C   0  0  0  0  0  3  0  0  0  0  0  0
  195.3460  173.7410  142.5260 N   0  0  0  0  0  1  0  0  0  0  0  0
  190.4690  170.7400  142.1400 C   0  0  0  0  0  3  0  0  0  0  0  0
  195.1320  175.2720  144.2760 N   0  0  0  0  0  0  0  0  0  0  0  0
  191.1430  172.8130  143.2110 C   0  0  2  0  0  3  0  0  0  0  0  0
  190.9010  174.2350  143.4340 N   0  0  0  0  0  0  0  0  0  0  0  0
  191.5690  169.9840  142.2170 C   0  0  0  0  0  3  0  0  0  0  0  0
  192.1180  174.7960  143.9300 C   0  0  0  0  0  0  0  0  0  0  0  0
  189.6130  174.7520  143.8720 C   0  0  0  0  0  2  0  0  0  0  0  0
  192.6460  172.7090  143.2640 C   0  0  0  0  0  0  0  0  0  0  0  0
  187.6740  177.7210  143.5430 C   0  0  0  0  0  0  0  0  0  0  0  0
  187.8860  176.4280  145.7010 C   0  0  0  0  0  1  0  0  0  0  0  0
  188.4070  176.8210  144.3950 N   0  0  0  0  0  0  0  0  0  0  0  0
  188.2290  178.2010  142.5160 O   0  0  0  0  0  0  0  0  0  0  0  0
  185.5050  178.6430  142.6450 C   0  0  0  0  0  2  0  0  0  0  0  0
  185.1550  177.2800  143.2210 C   0  0  0  0  0  2  0  0  0  0  0  0
  186.2540  178.1100  143.8470 C   0  0  0  0  0  0  0  0  0  0  0  0
  185.9260  178.8700  145.1250 C   0  0  0  0  0  2  0  0  0  0  0  0
  183.6010  179.0080  145.6290 O   0  0  0  0  0  0  0  0  0  0  0  0
  184.6930  177.1820  146.4880 O   0  0  0  0  0  1  0  0  0  0  0  0
  184.6730  178.3580  145.7500 C   0  0  0  0  0  0  0  0  0  0  0  0
  188.1570  172.2680  142.2600 O   0  0  0  0  0  0  0  0  0  0  0  0
  189.1540  172.7320  141.6380 C   0  0  0  0  0  0  0  0  0  0  0  0
  188.9920  173.7190  140.6640 O   0  0  0  0  0  0  0  0  0  0  0  0
  190.5770  173.7230  138.3710 O   0  0  0  0  0  1  0  0  0  0  0  0
  189.0360  173.3750  138.9820 P   0  0  0  0  0  0  0  0  0  0  0  0
  188.7170  171.9160  138.7520 O   0  0  0  0  0  1  0  0  0  0  0  0
  187.8920  174.3360  138.1860 O   0  0  0  0  0  0  0  0  0  0  0  0
  191.0840  178.2380  144.6410 C   0  0  0  0  0  2  0  0  0  0  0  0
  191.4200  178.5320  143.3180 O   0  0  0  0  0  1  0  0  0  0  0  0
  1  8  1  0  0  0  0
  1  7  1  0  0  0  0
  2 17  1  0  0  0  0
  3  2  1  0  0  0  0
  3 13  2  0  0  0  0
  4 22  1  1  0  0  0
  4  8  1  0  0  0  0
  5 32  1  1  0  0  0
  5 12  1  0  0  0  0
  5 14  1  0  0  0  0
  6 16  1  0  0  0  0
  6 10  1  0  0  0  0
  8 38  1  6  0  0  0
  9  7  2  0  0  0  0
 10 19  2  0  0  0  0
 11  3  1  0  0  0  0
 12 16  2  0  0  0  0
 13  9  1  0  0  0  0
 14 19  1  6  0  0  0
 14 15  1  0  0  0  0
 15 18  1  0  0  0  0
 15 17  1  0  0  0  0
 17  1  2  0  0  0  0
 18  4  1  0  0  0  0
 19  2  1  0  0  0  0
 20 26  1  0  0  0  0
 20 22  1  0  0  0  0
 22 21  1  0  0  0  0
 23 20  2  0  0  0  0
 24 25  1  0  0  0  0
 24 26  1  0  0  0  0
 25 26  1  0  0  0  0
 26 27  1  0  0  0  0
 27 30  1  0  0  0  0
 28 30  2  0  0  0  0
 30 29  1  0  0  0  0
 32 31  2  0  0  0  0
 33 32  1  0  0  0  0
 34 35  1  0  0  0  0
 35 33  1  0  0  0  0
 36 35  1  0  0  0  0
 37 35  2  0  0  0  0
 39 38  1  0  0  0  0
M  END
>  <MODEL>
4

>  <REMARK>
 VINA RESULT:      -6.9      2.645      7.478
  Name = 
  8 active torsions:
  status: ('A' for Active; 'I' for Inactive)
    1  A    between atoms: C_6  and  C_39
    2  A    between atoms: C_8  and  N_27
    3  A    between atoms: C_9  and  C_22
    4  A    between atoms: C_13  and  C_15
    5  A    between atoms: C_20  and  C_37
    6  A    between atoms: P_21  and  O_23
    7  A    between atoms: C_22  and  O_23
    8  A    between atoms: C_37  and  C_39
                            x       y       z     vdW  Elec       q    Type
                         _______ _______ _______ _____ _____    ______ ____

>  <TORSDO>
F 8

$$$$
=
 OpenBabel11072409273D

 39 43  0  0  1  0  0  0  0  0999 V2000
  190.6620  174.1320  141.3870 C   0  0  0  0  0  0  0  0  0  0  0  0
  192.7330  173.2740  142.3930 N   0  0  0  0  0  0  0  0  0  0  0  0
  192.7830  171.9190  141.9040 C   0  0  0  0  0  0  0  0  0  0  0  0
  189.3090  175.7720  142.8310 C   0  0  1  0  0  3  0  0  0  0  0  0
  192.8550  174.9960  145.6460 C   0  0  2  0  0  3  0  0  0  0  0  0
  195.3010  173.3790  145.2670 C   0  0  0  0  0  2  0  0  0  0  0  0
  190.9110  173.5060  140.0750 C   0  0  0  0  0  3  0  0  0  0  0  0
  189.5090  175.1220  141.4500 C   0  0  2  0  0  3  0  0  0  0  0  0
  191.6270  172.4190  139.7940 C   0  0  0  0  0  3  0  0  0  0  0  0
  194.5990  173.1610  143.9510 C   0  0  0  0  0  3  0  0  0  0  0  0
  193.4000  170.9010  142.6870 N   0  0  0  0  0  1  0  0  0  0  0  0
  194.2180  175.4910  146.0330 C   0  0  0  0  0  3  0  0  0  0  0  0
  192.3090  171.5930  140.7400 N   0  0  0  0  0  0  0  0  0  0  0  0
  192.8230  174.9790  144.1110 C   0  0  2  0  0  3  0  0  0  0  0  0
  191.4960  174.9680  143.5040 N   0  0  0  0  0  0  0  0  0  0  0  0
  195.3260  174.7790  145.8050 C   0  0  0  0  0  3  0  0  0  0  0  0
  191.5470  174.0620  142.4010 C   0  0  0  0  0  0  0  0  0  0  0  0
  190.6440  176.1460  143.4590 C   0  0  0  0  0  2  0  0  0  0  0  0
  193.4870  173.7670  143.5080 C   0  0  0  0  0  0  0  0  0  0  0  0
  187.1030  176.8730  143.2820 C   0  0  0  0  0  0  0  0  0  0  0  0
  188.9440  178.1740  142.1460 C   0  0  0  0  0  1  0  0  0  0  0  0
  188.4380  176.9430  142.7460 N   0  0  0  0  0  0  0  0  0  0  0  0
  186.6210  175.7540  143.6120 O   0  0  0  0  0  0  0  0  0  0  0  0
  185.1070  177.9130  144.4200 C   0  0  0  0  0  2  0  0  0  0  0  0
  186.2920  178.7830  144.8110 C   0  0  0  0  0  2  0  0  0  0  0  0
  186.2610  178.1040  143.4590 C   0  0  0  0  0  0  0  0  0  0  0  0
  185.8810  178.9520  142.2520 C   0  0  0  0  0  2  0  0  0  0  0  0
  183.9820  177.9150  141.2540 O   0  0  0  0  0  1  0  0  0  0  0  0
  185.9790  177.5710  140.1760 O   0  0  0  0  0  0  0  0  0  0  0  0
  185.2230  178.1270  141.1990 C   0  0  0  0  0  0  0  0  0  0  0  0
  191.7620  177.1120  145.9300 O   0  0  0  0  0  0  0  0  0  0  0  0
  191.8220  175.8930  146.2560 C   0  0  0  0  0  0  0  0  0  0  0  0
  190.9350  175.3590  147.1920 O   0  0  0  0  0  0  0  0  0  0  0  0
  189.3170  173.7370  145.6030 O   0  0  0  0  0  0  0  0  0  0  0  0
  189.3170  174.9390  146.7970 P   0  0  0  0  0  0  0  0  0  0  0  0
  188.6070  174.4280  148.0300 O   0  0  0  0  0  1  0  0  0  0  0  0
  188.5130  176.3070  146.2080 O   0  0  0  0  0  1  0  0  0  0  0  0
  188.2030  174.4930  140.9650 C   0  0  0  0  0  2  0  0  0  0  0  0
  187.8570  173.3980  141.7580 O   0  0  0  0  0  1  0  0  0  0  0  0
  1  8  1  0  0  0  0
  1 17  2  0  0  0  0
  2 17  1  0  0  0  0
  2 19  1  0  0  0  0
  3  2  1  0  0  0  0
  3 11  1  0  0  0  0
  4 22  1  6  0  0  0
  4 18  1  0  0  0  0
  5 12  1  0  0  0  0
  5 32  1  6  0  0  0
  6 16  1  0  0  0  0
  7  1  1  0  0  0  0
  8 38  1  1  0  0  0
  8  4  1  0  0  0  0
  9  7  2  0  0  0  0
  9 13  1  0  0  0  0
 10  6  1  0  0  0  0
 13  3  2  0  0  0  0
 14 19  1  1  0  0  0
 14  5  1  0  0  0  0
 15 14  1  0  0  0  0
 16 12  2  0  0  0  0
 17 15  1  0  0  0  0
 18 15  1  0  0  0  0
 19 10  2  0  0  0  0
 20 26  1  0  0  0  0
 20 23  2  0  0  0  0
 21 22  1  0  0  0  0
 22 20  1  0  0  0  0
 24 25  1  0  0  0  0
 26 24  1  0  0  0  0
 26 25  1  0  0  0  0
 27 26  1  0  0  0  0
 29 30  2  0  0  0  0
 30 28  1  0  0  0  0
 30 27  1  0  0  0  0
 31 32  2  0  0  0  0
 32 33  1  0  0  0  0
 34 35  2  0  0  0  0
 35 33  1  0  0  0  0
 35 36  1  0  0  0  0
 37 35  1  0  0  0  0
 38 39  1  0  0  0  0
M  END
>  <MODEL>
5

>  <REMARK>
 VINA RESULT:      -6.6      2.574      8.345
  Name = 
  8 active torsions:
  status: ('A' for Active; 'I' for Inactive)
    1  A    between atoms: C_6  and  C_39
    2  A    between atoms: C_8  and  N_27
    3  A    between atoms: C_9  and  C_22
    4  A    between atoms: C_13  and  C_15
    5  A    between atoms: C_20  and  C_37
    6  A    between atoms: P_21  and  O_23
    7  A    between atoms: C_22  and  O_23
    8  A    between atoms: C_37  and  C_39
                            x       y       z     vdW  Elec       q    Type
                         _______ _______ _______ _____ _____    ______ ____

>  <TORSDO>
F 8

$$$$
=
 OpenBabel11072409273D

 39 43  0  0  1  0  0  0  0  0999 V2000
  189.6460  174.4010  140.9740 C   0  0  0  0  0  0  0  0  0  0  0  0
  187.6110  175.7480  141.2530 N   0  0  0  0  0  0  0  0  0  0  0  0
  187.2630  176.0780  139.8940 C   0  0  0  0  0  0  0  0  0  0  0  0
  191.4430  174.6930  142.7880 C   0  0  1  0  0  3  0  0  0  0  0  0
  188.2220  177.5360  144.4140 C   0  0  2  0  0  3  0  0  0  0  0  0
  185.5040  178.1430  143.4190 C   0  0  0  0  0  2  0  0  0  0  0  0
  189.1200  173.6470  139.8200 C   0  0  0  0  0  3  0  0  0  0  0  0
  190.9510  173.8940  141.5680 C   0  0  2  0  0  3  0  0  0  0  0  0
  188.1970  174.0170  138.9360 C   0  0  0  0  0  3  0  0  0  0  0  0
  185.9770  177.1480  142.3920 C   0  0  0  0  0  3  0  0  0  0  0  0
  186.5880  177.3000  139.6070 N   0  0  0  0  0  1  0  0  0  0  0  0
  187.0290  177.6140  145.3210 C   0  0  0  0  0  3  0  0  0  0  0  0
  187.5130  175.2730  138.9070 N   0  0  0  0  0  0  0  0  0  0  0  0
  188.0460  176.2590  143.5800 C   0  0  2  0  0  3  0  0  0  0  0  0
  189.2590  175.7340  142.9610 N   0  0  0  0  0  0  0  0  0  0  0  0
  185.7940  177.8310  144.8580 C   0  0  0  0  0  3  0  0  0  0  0  0
  188.9060  175.3040  141.6450 C   0  0  0  0  0  0  0  0  0  0  0  0
  190.2880  175.0380  143.7180 C   0  0  0  0  0  2  0  0  0  0  0  0
  187.1090  176.4260  142.4120 C   0  0  0  0  0  0  0  0  0  0  0  0
  193.8270  174.4870  143.5310 C   0  0  0  0  0  0  0  0  0  0  0  0
  192.1410  172.7450  144.2350 C   0  0  0  0  0  1  0  0  0  0  0  0
  192.4850  173.9680  143.5140 N   0  0  0  0  0  0  0  0  0  0  0  0
  194.1440  175.4230  142.7460 O   0  0  0  0  0  0  0  0  0  0  0  0
  195.8530  174.9810  144.9490 C   0  0  0  0  0  2  0  0  0  0  0  0
  194.8270  174.3900  145.9040 C   0  0  0  0  0  2  0  0  0  0  0  0
  194.8720  173.9370  144.4610 C   0  0  0  0  0  0  0  0  0  0  0  0
  195.5390  172.6020  144.1600 C   0  0  0  0  0  2  0  0  0  0  0  0
  194.6560  171.0800  145.7650 O   0  0  0  0  0  0  0  0  0  0  0  0
  196.8200  171.7540  146.1260 O   0  0  0  0  0  1  0  0  0  0  0  0
  195.6440  171.7620  145.3870 C   0  0  0  0  0  0  0  0  0  0  0  0
  190.5050  178.1340  144.8400 O   0  0  0  0  0  0  0  0  0  0  0  0
  189.4660  177.5410  145.2470 C   0  0  0  0  0  0  0  0  0  0  0  0
  189.4580  176.8760  146.4740 O   0  0  0  0  0  0  0  0  0  0  0  0
  192.1950  176.4120  146.2130 O   0  0  0  0  0  0  0  0  0  0  0  0
  190.9000  176.4500  147.3050 P   0  0  0  0  0  0  0  0  0  0  0  0
  191.1820  177.4620  148.3900 O   0  0  0  0  0  1  0  0  0  0  0  0
  190.7130  174.9160  147.9970 O   0  0  0  0  0  1  0  0  0  0  0  0
  192.0520  173.8080  140.5110 C   0  0  0  0  0  2  0  0  0  0  0  0
  192.5250  172.4990  140.3970 O   0  0  0  0  0  1  0  0  0  0  0  0
  1  8  1  0  0  0  0
  1 17  2  0  0  0  0
  2 17  1  0  0  0  0
  2 19  1  0  0  0  0
  3  2  1  0  0  0  0
  4 22  1  1  0  0  0
  4 18  1  0  0  0  0
  5 32  1  1  0  0  0
  5 12  1  0  0  0  0
  6 16  1  0  0  0  0
  7  1  1  0  0  0  0
  8 38  1  6  0  0  0
  8  4  1  0  0  0  0
  9  7  2  0  0  0  0
 10 19  2  0  0  0  0
 10  6  1  0  0  0  0
 11  3  1  0  0  0  0
 13  9  1  0  0  0  0
 13  3  2  0  0  0  0
 14 19  1  6  0  0  0
 14  5  1  0  0  0  0
 15 14  1  0  0  0  0
 15 18  1  0  0  0  0
 16 12  2  0  0  0  0
 17 15  1  0  0  0  0
 20 26  1  0  0  0  0
 22 20  1  0  0  0  0
 22 21  1  0  0  0  0
 23 20  2  0  0  0  0
 24 25  1  0  0  0  0
 26 24  1  0  0  0  0
 26 25  1  0  0  0  0
 27 26  1  0  0  0  0
 27 30  1  0  0  0  0
 30 28  2  0  0  0  0
 30 29  1  0  0  0  0
 31 32  2  0  0  0  0
 32 33  1  0  0  0  0
 33 35  1  0  0  0  0
 34 35  2  0  0  0  0
 35 37  1  0  0  0  0
 35 36  1  0  0  0  0
 39 38  1  0  0  0  0
M  END
>  <MODEL>
6

>  <REMARK>
 VINA RESULT:      -6.5      3.055      5.425
  Name = 
  8 active torsions:
  status: ('A' for Active; 'I' for Inactive)
    1  A    between atoms: C_6  and  C_39
    2  A    between atoms: C_8  and  N_27
    3  A    between atoms: C_9  and  C_22
    4  A    between atoms: C_13  and  C_15
    5  A    between atoms: C_20  and  C_37
    6  A    between atoms: P_21  and  O_23
    7  A    between atoms: C_22  and  O_23
    8  A    between atoms: C_37  and  C_39
                            x       y       z     vdW  Elec       q    Type
                         _______ _______ _______ _____ _____    ______ ____

>  <TORSDO>
F 8

$$$$
=
 OpenBabel11072409273D

 39 43  0  0  1  0  0  0  0  0999 V2000
  190.5600  173.4060  141.8310 C   0  0  0  0  0  0  0  0  0  0  0  0
  188.7630  174.9470  142.4870 N   0  0  0  0  0  0  0  0  0  0  0  0
  188.2040  175.3390  141.2180 C   0  0  0  0  0  0  0  0  0  0  0  0
  192.6830  173.4760  143.2770 C   0  0  1  0  0  3  0  0  0  0  0  0
  190.1340  176.5980  145.4800 C   0  0  2  0  0  3  0  0  0  0  0  0
  187.3560  177.4990  145.0110 C   0  0  0  0  0  2  0  0  0  0  0  0
  189.7530  172.7330  140.7950 C   0  0  0  0  0  3  0  0  0  0  0  0
  191.8930  172.7560  142.1700 C   0  0  2  0  0  3  0  0  0  0  0  0
  188.7250  173.2130  140.0990 C   0  0  0  0  0  3  0  0  0  0  0  0
  187.5230  176.4820  143.9130 C   0  0  0  0  0  3  0  0  0  0  0  0
  187.6190  176.6280  141.0640 N   0  0  0  0  0  1  0  0  0  0  0  0
  189.1450  176.7790  146.5940 C   0  0  0  0  0  3  0  0  0  0  0  0
  188.1820  174.5320  140.2010 N   0  0  0  0  0  0  0  0  0  0  0  0
  189.6740  175.3630  144.6920 C   0  0  2  0  0  3  0  0  0  0  0  0
  190.6890  174.7300  143.8570 N   0  0  0  0  0  0  0  0  0  0  0  0
  187.8740  177.1300  146.3710 C   0  0  0  0  0  3  0  0  0  0  0  0
  190.0550  174.3650  142.6290 C   0  0  0  0  0  0  0  0  0  0  0  0
  191.7630  173.9170  144.4070 C   0  0  0  0  0  2  0  0  0  0  0  0
  188.5580  175.6480  143.7200 C   0  0  0  0  0  0  0  0  0  0  0  0
  195.1270  173.0560  143.6360 C   0  0  0  0  0  0  0  0  0  0  0  0
  193.4320  171.3920  144.4910 C   0  0  0  0  0  1  0  0  0  0  0  0
  193.7600  172.6330  143.7950 N   0  0  0  0  0  0  0  0  0  0  0  0
  195.3970  174.0190  142.8650 O   0  0  0  0  0  0  0  0  0  0  0  0
  197.0970  173.3220  145.1880 C   0  0  0  0  0  2  0  0  0  0  0  0
  196.1740  172.3260  145.8750 C   0  0  0  0  0  2  0  0  0  0  0  0
  196.2510  172.3750  144.3650 C   0  0  0  0  0  0  0  0  0  0  0  0
  197.0820  171.3080  143.6650 C   0  0  0  0  0  2  0  0  0  0  0  0
  196.0880  169.1910  144.1210 O   0  0  0  0  0  0  0  0  0  0  0  0
  197.9390  169.7060  145.3750 O   0  0  0  0  0  1  0  0  0  0  0  0
  197.0090  170.0060  144.3890 C   0  0  0  0  0  0  0  0  0  0  0  0
  191.6570  175.9900  147.2290 O   0  0  0  0  0  0  0  0  0  0  0  0
  191.5050  176.4590  146.0660 C   0  0  0  0  0  0  0  0  0  0  0  0
  192.6060  176.8610  145.3080 O   0  0  0  0  0  0  0  0  0  0  0  0
  195.2740  176.8130  144.5010 O   0  0  0  0  0  0  0  0  0  0  0  0
  194.2250  176.5880  145.8120 P   0  0  0  0  0  0  0  0  0  0  0  0
  194.5830  177.5510  146.9200 O   0  0  0  0  0  1  0  0  0  0  0  0
  194.3730  174.9980  146.3750 O   0  0  0  0  0  1  0  0  0  0  0  0
  192.7630  172.5790  140.9260 C   0  0  0  0  0  2  0  0  0  0  0  0
  193.1080  173.8190  140.3840 O   0  0  0  0  0  1  0  0  0  0  0  0
  1  8  1  0  0  0  0
  1 17  2  0  0  0  0
  2 17  1  0  0  0  0
  2 19  1  0  0  0  0
  3  2  1  0  0  0  0
  4 22  1  1  0  0  0
  4 18  1  0  0  0  0
  5 32  1  1  0  0  0
  5 12  1  0  0  0  0
  6 16  1  0  0  0  0
  7  1  1  0  0  0  0
  8 38  1  6  0  0  0
  8  4  1  0  0  0  0
  9 13  1  0  0  0  0
  9  7  2  0  0  0  0
 10  6  1  0  0  0  0
 11  3  1  0  0  0  0
 13  3  2  0  0  0  0
 14 19  1  6  0  0  0
 14  5  1  0  0  0  0
 15 18  1  0  0  0  0
 15 14  1  0  0  0  0
 16 12  2  0  0  0  0
 17 15  1  0  0  0  0
 19 10  2  0  0  0  0
 20 22  1  0  0  0  0
 20 26  1  0  0  0  0
 22 21  1  0  0  0  0
 23 20  2  0  0  0  0
 24 25  1  0  0  0  0
 26 24  1  0  0  0  0
 26 25  1  0  0  0  0
 27 26  1  0  0  0  0
 27 30  1  0  0  0  0
 28 30  2  0  0  0  0
 30 29  1  0  0  0  0
 32 31  2  0  0  0  0
 33 35  1  0  0  0  0
 33 32  1  0  0  0  0
 34 35  2  0  0  0  0
 35 37  1  0  0  0  0
 35 36  1  0  0  0  0
 39 38  1  0  0  0  0
M  END
>  <MODEL>
7

>  <REMARK>
 VINA RESULT:      -6.5      3.362      6.151
  Name = 
  8 active torsions:
  status: ('A' for Active; 'I' for Inactive)
    1  A    between atoms: C_6  and  C_39
    2  A    between atoms: C_8  and  N_27
    3  A    between atoms: C_9  and  C_22
    4  A    between atoms: C_13  and  C_15
    5  A    between atoms: C_20  and  C_37
    6  A    between atoms: P_21  and  O_23
    7  A    between atoms: C_22  and  O_23
    8  A    between atoms: C_37  and  C_39
                            x       y       z     vdW  Elec       q    Type
                         _______ _______ _______ _____ _____    ______ ____

>  <TORSDO>
F 8

$$$$
=
 OpenBabel11072409273D

 39 43  0  0  1  0  0  0  0  0999 V2000
  191.0250  173.9150  141.3640 C   0  0  0  0  0  0  0  0  0  0  0  0
  193.1090  173.1900  142.4440 N   0  0  0  0  0  0  0  0  0  0  0  0
  193.2430  171.8290  141.9870 C   0  0  0  0  0  0  0  0  0  0  0  0
  189.5490  175.5130  142.7330 C   0  0  1  0  0  3  0  0  0  0  0  0
  193.0520  174.9870  145.6570 C   0  0  2  0  0  3  0  0  0  0  0  0
  195.5890  173.4930  145.3800 C   0  0  0  0  0  2  0  0  0  0  0  0
  191.3420  173.2750  140.0730 C   0  0  0  0  0  3  0  0  0  0  0  0
  189.8210  174.8440  141.3740 C   0  0  2  0  0  3  0  0  0  0  0  0
  192.1210  172.2220  139.8360 C   0  0  0  0  0  3  0  0  0  0  0  0
  194.9360  173.2100  144.0520 C   0  0  0  0  0  3  0  0  0  0  0  0
  193.8910  170.8620  142.8090 N   0  0  0  0  0  1  0  0  0  0  0  0
  194.3770  175.5610  146.0680 C   0  0  0  0  0  3  0  0  0  0  0  0
  192.8190  171.4530  140.8200 N   0  0  0  0  0  0  0  0  0  0  0  0
  193.0630  174.9340  144.1230 C   0  0  2  0  0  3  0  0  0  0  0  0
  191.7550  174.8390  143.4820 N   0  0  0  0  0  0  0  0  0  0  0  0
  195.5260  174.9040  145.8870 C   0  0  0  0  0  3  0  0  0  0  0  0
  191.8840  173.9140  142.4010 C   0  0  0  0  0  0  0  0  0  0  0  0
  190.8450  175.9700  143.3870 C   0  0  0  0  0  2  0  0  0  0  0  0
  193.8050  173.7460  143.5660 C   0  0  0  0  0  0  0  0  0  0  0  0
  187.2440  176.4620  142.9820 C   0  0  0  0  0  0  0  0  0  0  0  0
  189.1100  177.9180  142.1050 C   0  0  0  0  0  1  0  0  0  0  0  0
  188.6200  176.6340  142.5980 N   0  0  0  0  0  0  0  0  0  0  0  0
  186.8000  175.3040  143.2140 O   0  0  0  0  0  0  0  0  0  0  0  0
  186.1820  178.4450  141.8400 C   0  0  0  0  0  2  0  0  0  0  0  0
  185.0210  177.5890  142.3230 C   0  0  0  0  0  2  0  0  0  0  0  0
  186.3110  177.6340  143.1120 C   0  0  0  0  0  0  0  0  0  0  0  0
  186.3460  178.5050  144.3600 C   0  0  0  0  0  2  0  0  0  0  0  0
  185.4970  177.0330  146.0300 O   0  0  0  0  0  1  0  0  0  0  0  0
  184.1440  178.8070  145.4940 O   0  0  0  0  0  0  0  0  0  0  0  0
  185.3150  178.0750  145.3470 C   0  0  0  0  0  0  0  0  0  0  0  0
  191.8640  177.0570  145.8900 O   0  0  0  0  0  0  0  0  0  0  0  0
  191.9580  175.8400  146.2200 C   0  0  0  0  0  0  0  0  0  0  0  0
  191.0510  175.2710  147.1150 O   0  0  0  0  0  0  0  0  0  0  0  0
  188.5690  174.4240  148.0610 O   0  0  0  0  0  1  0  0  0  0  0  0
  189.4260  174.9170  146.6860 P   0  0  0  0  0  0  0  0  0  0  0  0
  188.7750  176.1480  146.0970 O   0  0  0  0  0  1  0  0  0  0  0  0
  189.4090  173.6680  145.5430 O   0  0  0  0  0  0  0  0  0  0  0  0
  188.5630  174.1370  140.8690 C   0  0  0  0  0  2  0  0  0  0  0  0
  188.1170  174.7120  139.6780 O   0  0  0  0  0  1  0  0  0  0  0  0
  1  8  1  0  0  0  0
  1 17  2  0  0  0  0
  2 19  1  0  0  0  0
  3  2  1  0  0  0  0
  3 11  1  0  0  0  0
  4 22  1  6  0  0  0
  4 18  1  0  0  0  0
  5 12  1  0  0  0  0
  5 32  1  6  0  0  0
  6 16  1  0  0  0  0
  7  1  1  0  0  0  0
  8 38  1  1  0  0  0
  8  4  1  0  0  0  0
  9  7  2  0  0  0  0
  9 13  1  0  0  0  0
 10  6  1  0  0  0  0
 13  3  2  0  0  0  0
 14 19  1  1  0  0  0
 14  5  1  0  0  0  0
 15 14  1  0  0  0  0
 16 12  2  0  0  0  0
 17  2  1  0  0  0  0
 17 15  1  0  0  0  0
 18 15  1  0  0  0  0
 19 10  2  0  0  0  0
 20 26  1  0  0  0  0
 20 23  2  0  0  0  0
 21 22  1  0  0  0  0
 22 20  1  0  0  0  0
 24 25  1  0  0  0  0
 24 26  1  0  0  0  0
 25 26  1  0  0  0  0
 26 27  1  0  0  0  0
 27 30  1  0  0  0  0
 30 29  2  0  0  0  0
 30 28  1  0  0  0  0
 31 32  2  0  0  0  0
 32 33  1  0  0  0  0
 35 33  1  0  0  0  0
 35 34  1  0  0  0  0
 36 35  1  0  0  0  0
 37 35  2  0  0  0  0
 39 38  1  0  0  0  0
M  END
>  <MODEL>
8

>  <REMARK>
 VINA RESULT:      -6.4      2.705      8.356
  Name = 
  8 active torsions:
  status: ('A' for Active; 'I' for Inactive)
    1  A    between atoms: C_6  and  C_39
    2  A    between atoms: C_8  and  N_27
    3  A    between atoms: C_9  and  C_22
    4  A    between atoms: C_13  and  C_15
    5  A    between atoms: C_20  and  C_37
    6  A    between atoms: P_21  and  O_23
    7  A    between atoms: C_22  and  O_23
    8  A    between atoms: C_37  and  C_39
                            x       y       z     vdW  Elec       q    Type
                         _______ _______ _______ _____ _____    ______ ____

>  <TORSDO>
F 8

$$$$
=
 OpenBabel11072409273D

 39 43  0  0  1  0  0  0  0  0999 V2000
  192.5740  176.3800  144.6410 C   0  0  0  0  0  0  0  0  0  0  0  0
  193.8490  174.3350  144.1680 N   0  0  0  0  0  0  0  0  0  0  0  0
  195.1160  174.8510  143.7130 C   0  0  0  0  0  0  0  0  0  0  0  0
  190.0600  176.2820  144.1160 C   0  0  1  0  0  3  0  0  0  0  0  0
  191.2680  172.0060  142.9540 C   0  0  2  0  0  3  0  0  0  0  0  0
  193.8740  170.6190  143.1390 C   0  0  0  0  0  2  0  0  0  0  0  0
  193.7090  177.0710  145.2820 C   0  0  0  0  0  3  0  0  0  0  0  0
  191.2170  177.0560  144.7730 C   0  0  2  0  0  3  0  0  0  0  0  0
  195.0130  176.8870  145.0860 C   0  0  0  0  0  3  0  0  0  0  0  0
  194.2270  171.9800  143.6810 C   0  0  0  0  0  3  0  0  0  0  0  0
  195.8880  174.1150  142.7700 N   0  0  0  0  0  1  0  0  0  0  0  0
  191.4020  170.6060  143.4780 C   0  0  0  0  0  3  0  0  0  0  0  0
  195.6040  175.9650  144.1660 N   0  0  0  0  0  0  0  0  0  0  0  0
  191.8860  172.9250  144.0180 C   0  0  2  0  0  3  0  0  0  0  0  0
  191.4850  174.3270  143.9540 N   0  0  0  0  0  0  0  0  0  0  0  0
  192.5890  170.0060  143.6140 C   0  0  0  0  0  3  0  0  0  0  0  0
  192.6540  175.1090  144.2050 C   0  0  0  0  0  0  0  0  0  0  0  0
  190.1760  174.7890  144.3870 C   0  0  0  0  0  2  0  0  0  0  0  0
  193.3900  172.9940  143.9540 C   0  0  0  0  0  0  0  0  0  0  0  0
  187.8760  177.4050  143.6150 C   0  0  0  0  0  0  0  0  0  0  0  0
  188.3730  176.6220  145.9640 C   0  0  0  0  0  1  0  0  0  0  0  0
  188.7620  176.7840  144.5660 N   0  0  0  0  0  0  0  0  0  0  0  0
  188.3060  177.7130  142.4700 O   0  0  0  0  0  0  0  0  0  0  0  0
  185.4580  177.1560  142.9420 C   0  0  0  0  0  2  0  0  0  0  0  0
  185.5570  176.5320  144.3260 C   0  0  0  0  0  2  0  0  0  0  0  0
  186.4420  177.7010  143.9550 C   0  0  0  0  0  0  0  0  0  0  0  0
  186.0470  179.0780  144.4710 C   0  0  0  0  0  2  0  0  0  0  0  0
  185.9250  178.8310  146.8380 O   0  0  0  0  0  1  0  0  0  0  0  0
  183.9090  179.0180  145.7570 O   0  0  0  0  0  0  0  0  0  0  0  0
  185.2970  178.9780  145.7560 C   0  0  0  0  0  0  0  0  0  0  0  0
  188.9310  171.8480  143.4670 O   0  0  0  0  0  0  0  0  0  0  0  0
  189.8220  172.2870  142.6860 C   0  0  0  0  0  0  0  0  0  0  0  0
  189.4780  173.0350  141.5590 O   0  0  0  0  0  0  0  0  0  0  0  0
  189.5080  173.7820  138.8730 O   0  0  0  0  0  0  0  0  0  0  0  0
  190.3250  172.9060  140.0700 P   0  0  0  0  0  0  0  0  0  0  0  0
  191.7250  173.4520  140.2310 O   0  0  0  0  0  1  0  0  0  0  0  0
  190.4030  171.2780  139.6120 O   0  0  0  0  0  1  0  0  0  0  0  0
  191.2550  178.4940  144.2580 C   0  0  0  0  0  2  0  0  0  0  0  0
  191.4760  178.5210  142.8800 O   0  0  0  0  0  1  0  0  0  0  0  0
  1  8  1  0  0  0  0
  1  7  1  0  0  0  0
  2 17  1  0  0  0  0
  3 13  2  0  0  0  0
  3  2  1  0  0  0  0
  4 18  1  0  0  0  0
  4 22  1  1  0  0  0
  4  8  1  0  0  0  0
  5 32  1  1  0  0  0
  5 12  1  0  0  0  0
  5 14  1  0  0  0  0
  6 16  1  0  0  0  0
  6 10  1  0  0  0  0
  8 38  1  6  0  0  0
  9  7  2  0  0  0  0
 10 19  2  0  0  0  0
 11  3  1  0  0  0  0
 12 16  2  0  0  0  0
 13  9  1  0  0  0  0
 14 19  1  6  0  0  0
 15 14  1  0  0  0  0
 15 17  1  0  0  0  0
 15 18  1  0  0  0  0
 17  1  2  0  0  0  0
 19  2  1  0  0  0  0
 20 26  1  0  0  0  0
 20 22  1  0  0  0  0
 22 21  1  0  0  0  0
 23 20  2  0  0  0  0
 24 26  1  0  0  0  0
 24 25  1  0  0  0  0
 26 25  1  0  0  0  0
 26 27  1  0  0  0  0
 27 30  1  0  0  0  0
 30 29  2  0  0  0  0
 30 28  1  0  0  0  0
 32 31  2  0  0  0  0
 33 32  1  0  0  0  0
 34 35  2  0  0  0  0
 35 36  1  0  0  0  0
 35 33  1  0  0  0  0
 37 35  1  0  0  0  0
 39 38  1  0  0  0  0
M  END
>  <MODEL>
9

>  <REMARK>
 VINA RESULT:      -6.4      2.585      7.551
  Name = 
  8 active torsions:
  status: ('A' for Active; 'I' for Inactive)
    1  A    between atoms: C_6  and  C_39
    2  A    between atoms: C_8  and  N_27
    3  A    between atoms: C_9  and  C_22
    4  A    between atoms: C_13  and  C_15
    5  A    between atoms: C_20  and  C_37
    6  A    between atoms: P_21  and  O_23
    7  A    between atoms: C_22  and  O_23
    8  A    between atoms: C_37  and  C_39
                            x       y       z     vdW  Elec       q    Type
                         _______ _______ _______ _____ _____    ______ ____

>  <TORSDO>
F 8

$$$$
