=
 OpenBabel11062419413D

 42 45  0  0  1  0  0  0  0  0999 V2000
  191.5530  176.4330  147.6850 O   0  0  0  0  0  0  0  0  0  0  0  0
  192.4390  176.3540  146.6070 C   0  0  0  0  0  0  0  0  0  0  0  0
  189.8150  178.2920  143.6910 O   0  0  0  0  0  0  0  0  0  0  0  0
  191.5310  176.9220  144.4380 N   0  0  0  0  0  2  0  0  0  0  0  0
  189.9730  174.8190  147.1220 F   0  0  0  0  0  0  0  0  0  0  0  0
  189.3640  177.1550  146.8560 C   0  0  0  0  0  2  0  0  0  0  0  0
  189.2480  176.8520  145.4340 N   0  0  0  0  0  0  0  0  0  0  0  0
  191.9950  175.8270  145.2760 C   0  0  1  0  0  3  0  0  0  0  0  0
  190.1850  177.3980  144.4950 C   0  0  0  0  0  0  0  0  0  0  0  0
  190.1670  176.0990  147.6140 C   0  0  2  0  0  3  0  0  0  0  0  0
  193.6150  176.7810  146.7550 O   0  0  0  0  0  0  0  0  0  0  0  0
  188.0840  176.1000  144.9750 C   0  0  0  0  0  2  0  0  0  0  0  0
  186.8650  177.0080  144.7760 C   0  0  1  0  0  3  0  0  0  0  0  0
  186.3040  176.9160  143.3410 C   0  0  2  0  0  3  0  0  0  0  0  0
  185.9520  178.1050  141.2470 C   0  0  0  0  0  2  0  0  0  0  0  0
  186.8040  176.8720  140.9900 C   0  0  0  0  0  2  0  0  0  0  0  0
  186.5780  179.4440  143.2090 C   0  0  0  0  0  1  0  0  0  0  0  0
  187.3250  176.4220  142.3350 C   0  0  0  0  0  2  0  0  0  0  0  0
  185.7680  178.2310  142.7530 C   0  0  2  0  0  0  0  0  0  0  0  0
  183.9030  179.0200  144.2540 O   0  0  0  0  0  1  0  0  0  0  0  0
  183.4300  177.9370  142.2960 O   0  0  0  0  0  0  0  0  0  0  0  0
  184.3070  178.3960  143.0780 C   0  0  0  0  0  0  0  0  0  0  0  0
  185.7870  176.7230  145.8280 C   0  0  0  0  0  2  0  0  0  0  0  0
  185.7290  177.7980  146.9040 C   0  0  0  0  0  1  0  0  0  0  0  0
  193.1110  175.0570  144.5780 C   0  0  0  0  0  2  0  0  0  0  0  0
  191.6470  173.4910  143.5970 C   0  0  1  0  0  3  0  0  0  0  0  0
  192.9550  173.0990  143.0660 C   0  0  1  0  0  3  0  0  0  0  0  0
  192.6420  174.5360  143.2940 N   0  0  0  0  0  0  0  0  0  0  0  0
  190.7300  173.2900  140.0660 C   0  0  0  0  0  0  0  0  0  0  0  0
  189.3750  173.0300  142.8130 C   0  0  0  0  0  3  0  0  0  0  0  0
  192.0900  173.0720  138.9880 Cl  0  0  0  0  0  0  0  0  0  0  0  0
  190.6000  173.4840  142.5280 C   0  0  0  0  0  0  0  0  0  0  0  0
  188.2410  172.9630  141.8700 C   0  0  0  0  0  3  0  0  0  0  0  0
  189.5520  172.7620  139.7330 C   0  0  0  0  0  3  0  0  0  0  0  0
  190.8900  174.1920  141.2440 C   0  0  0  0  0  2  0  0  0  0  0  0
  188.3160  172.8450  140.5390 C   0  0  0  0  0  3  0  0  0  0  0  0
  193.1190  171.3270  144.6760 O   0  0  0  0  0  1  0  0  0  0  0  0
  193.8030  172.4310  144.1570 C   0  0  1  0  0  3  0  0  0  0  0  0
  195.4490  170.8460  143.5810 O   0  0  0  0  0  0  0  0  0  0  0  0
  195.1420  172.0270  143.6050 C   0  0  0  0  0  0  0  0  0  0  0  0
  196.1030  173.0440  143.0740 C   0  0  0  0  0  2  0  0  0  0  0  0
  196.4270  173.9590  144.0750 O   0  0  0  0  0  1  0  0  0  0  0  0
  2 11  2  0  0  0  0
  2  1  1  0  0  0  0
  3  9  2  0  0  0  0
  4  9  1  0  0  0  0
  4  8  1  0  0  0  0
  6 10  1  0  0  0  0
  7  6  1  0  0  0  0
  8 25  1  6  0  0  0
  8  2  1  0  0  0  0
  9  7  1  0  0  0  0
 10  5  1  6  0  0  0
 10  1  1  0  0  0  0
 12  7  1  0  0  0  0
 13 12  1  6  0  0  0
 13 23  1  0  0  0  0
 14 13  1  1  0  0  0
 15 19  1  0  0  0  0
 16 15  1  0  0  0  0
 16 18  1  0  0  0  0
 18 14  1  0  0  0  0
 19 22  1  0  0  0  0
 19 17  1  1  0  0  0
 19 14  1  0  0  0  0
 21 22  2  0  0  0  0
 22 20  1  0  0  0  0
 23 24  1  0  0  0  0
 26 32  1  6  0  0  0
 27 28  1  0  0  0  0
 27 26  1  0  0  0  0
 27 38  1  1  0  0  0
 28 26  1  0  0  0  0
 28 25  1  0  0  0  0
 29 35  1  0  0  0  0
 31 29  1  0  0  0  0
 32 30  2  0  0  0  0
 33 30  1  0  0  0  0
 34 29  2  0  0  0  0
 34 36  1  0  0  0  0
 35 32  1  0  0  0  0
 36 33  2  0  0  0  0
 38 37  1  6  0  0  0
 39 40  2  0  0  0  0
 40 38  1  0  0  0  0
 41 40  1  0  0  0  0
 41 42  1  0  0  0  0
M  END
>  <MODEL>
1

>  <REMARK>
 VINA RESULT:      -7.0      0.000      0.000
  Name = 
  11 active torsions:
  status: ('A' for Active; 'I' for Inactive)
    1  A    between atoms: C_1  and  C_25
    2  A    between atoms: C_1  and  N_32
    3  A    between atoms: C_4  and  C_25
    4  A    between atoms: C_5  and  C_17
    5  A    between atoms: C_6  and  C_35
    6  A    between atoms: C_10  and  C_30
    7  A    between atoms: N_14  and  C_42
    8  A    between atoms: C_25  and  C_29
    9  A    between atoms: C_28  and  C_41
   10  A    between atoms: C_30  and  C_35
   11  A    between atoms: C_33  and  C_42
                            x       y       z     vdW  Elec       q    Type
                         _______ _______ _______ _____ _____    ______ ____

>  <TORSDO>
F 11

$$$$
=
 OpenBabel11062419413D

 42 45  0  0  1  0  0  0  0  0999 V2000
  189.0990  171.9270  141.6760 O   0  0  0  0  0  0  0  0  0  0  0  0
  188.3960  173.1200  141.4910 C   0  0  0  0  0  0  0  0  0  0  0  0
  191.7520  175.7890  142.3600 O   0  0  0  0  0  0  0  0  0  0  0  0
  189.5330  175.1420  142.1750 N   0  0  0  0  0  2  0  0  0  0  0  0
  189.3370  171.8700  143.9910 F   0  0  0  0  0  0  0  0  0  0  0  0
  191.2840  172.4420  142.6570 C   0  0  0  0  0  2  0  0  0  0  0  0
  191.2320  173.7340  143.3300 N   0  0  0  0  0  0  0  0  0  0  0  0
  188.4560  174.2220  142.5050 C   0  0  1  0  0  3  0  0  0  0  0  0
  190.8770  174.9190  142.6050 C   0  0  0  0  0  0  0  0  0  0  0  0
  189.9710  171.6690  142.7760 C   0  0  2  0  0  3  0  0  0  0  0  0
  187.7430  173.2810  140.4250 O   0  0  0  0  0  0  0  0  0  0  0  0
  191.6830  173.8150  144.7160 C   0  0  0  0  0  2  0  0  0  0  0  0
  193.1960  173.6000  144.8340 C   0  0  1  0  0  3  0  0  0  0  0  0
  193.8530  174.6240  145.7830 C   0  0  2  0  0  3  0  0  0  0  0  0
  194.9410  176.7950  145.9480 C   0  0  0  0  0  2  0  0  0  0  0  0
  193.6970  176.7860  146.8220 C   0  0  0  0  0  2  0  0  0  0  0  0
  194.6700  175.8390  143.7010 C   0  0  0  0  0  1  0  0  0  0  0  0
  192.8630  175.6090  146.3720 C   0  0  0  0  0  2  0  0  0  0  0  0
  194.9590  175.4920  145.1610 C   0  0  2  0  0  0  0  0  0  0  0  0
  197.2580  174.9150  144.3050 O   0  0  0  0  0  0  0  0  0  0  0  0
  196.5550  174.1420  146.3390 O   0  0  0  0  0  1  0  0  0  0  0  0
  196.2990  174.8230  145.3100 C   0  0  0  0  0  0  0  0  0  0  0  0
  193.5180  172.1580  145.2410 C   0  0  0  0  0  2  0  0  0  0  0  0
  194.7530  171.6180  144.5350 C   0  0  0  0  0  1  0  0  0  0  0  0
  187.1290  174.9640  142.6040 C   0  0  0  0  0  2  0  0  0  0  0  0
  185.8920  176.4410  143.9660 C   0  0  1  0  0  3  0  0  0  0  0  0
  186.5710  177.3420  143.0310 C   0  0  1  0  0  3  0  0  0  0  0  0
  187.2540  176.1090  143.5070 N   0  0  0  0  0  0  0  0  0  0  0  0
  187.8520  177.5430  146.8450 C   0  0  0  0  0  0  0  0  0  0  0  0
  184.9530  177.7070  145.8370 C   0  0  0  0  0  3  0  0  0  0  0  0
  189.5810  177.5240  146.5800 Cl  0  0  0  0  0  0  0  0  0  0  0  0
  185.9570  176.9590  145.3670 C   0  0  0  0  0  0  0  0  0  0  0  0
  184.8710  178.2850  147.1930 C   0  0  0  0  0  3  0  0  0  0  0  0
  187.3360  178.4560  147.6670 C   0  0  0  0  0  3  0  0  0  0  0  0
  187.0300  176.4390  146.2690 C   0  0  0  0  0  2  0  0  0  0  0  0
  185.9010  178.6110  147.9840 C   0  0  0  0  0  3  0  0  0  0  0  0
  184.8350  178.0950  141.5550 O   0  0  0  0  0  1  0  0  0  0  0  0
  185.9430  177.2450  141.6340 C   0  0  1  0  0  3  0  0  0  0  0  0
  188.0340  178.0550  140.9100 O   0  0  0  0  0  0  0  0  0  0  0  0
  186.9590  177.5830  140.5780 C   0  0  0  0  0  0  0  0  0  0  0  0
  186.6830  177.3400  139.1270 C   0  0  0  0  0  2  0  0  0  0  0  0
  187.0740  176.0480  138.7800 O   0  0  0  0  0  1  0  0  0  0  0  0
  1 10  1  0  0  0  0
  2  1  1  0  0  0  0
  2  8  1  0  0  0  0
  3  9  2  0  0  0  0
  4  8  1  0  0  0  0
  4  9  1  0  0  0  0
  6 10  1  0  0  0  0
  6  7  1  0  0  0  0
  7 12  1  0  0  0  0
  8 25  1  6  0  0  0
  9  7  1  0  0  0  0
 10  5  1  1  0  0  0
 11  2  2  0  0  0  0
 13 12  1  1  0  0  0
 13 23  1  0  0  0  0
 14 13  1  6  0  0  0
 14 18  1  0  0  0  0
 15 16  1  0  0  0  0
 18 16  1  0  0  0  0
 19 17  1  6  0  0  0
 19 22  1  0  0  0  0
 19 14  1  0  0  0  0
 19 15  1  0  0  0  0
 20 22  2  0  0  0  0
 22 21  1  0  0  0  0
 24 23  1  0  0  0  0
 25 28  1  0  0  0  0
 26 32  1  1  0  0  0
 27 38  1  6  0  0  0
 27 28  1  0  0  0  0
 27 26  1  0  0  0  0
 28 26  1  0  0  0  0
 29 34  2  0  0  0  0
 30 33  1  0  0  0  0
 31 29  1  0  0  0  0
 32 30  2  0  0  0  0
 32 35  1  0  0  0  0
 33 36  2  0  0  0  0
 34 36  1  0  0  0  0
 35 29  1  0  0  0  0
 38 37  1  1  0  0  0
 40 39  2  0  0  0  0
 40 38  1  0  0  0  0
 41 40  1  0  0  0  0
 42 41  1  0  0  0  0
M  END
>  <MODEL>
2

>  <REMARK>
 VINA RESULT:      -7.0      2.741      8.598
  Name = 
  11 active torsions:
  status: ('A' for Active; 'I' for Inactive)
    1  A    between atoms: C_1  and  C_25
    2  A    between atoms: C_1  and  N_32
    3  A    between atoms: C_4  and  C_25
    4  A    between atoms: C_5  and  C_17
    5  A    between atoms: C_6  and  C_35
    6  A    between atoms: C_10  and  C_30
    7  A    between atoms: N_14  and  C_42
    8  A    between atoms: C_25  and  C_29
    9  A    between atoms: C_28  and  C_41
   10  A    between atoms: C_30  and  C_35
   11  A    between atoms: C_33  and  C_42
                            x       y       z     vdW  Elec       q    Type
                         _______ _______ _______ _____ _____    ______ ____

>  <TORSDO>
F 11

$$$$
=
 OpenBabel11062419413D

 42 45  0  0  1  0  0  0  0  0999 V2000
  189.0650  172.3700  141.4790 O   0  0  0  0  0  0  0  0  0  0  0  0
  189.1370  173.7480  141.2600 C   0  0  0  0  0  0  0  0  0  0  0  0
  193.4420  174.1180  141.9430 O   0  0  0  0  0  0  0  0  0  0  0  0
  191.2320  174.8110  141.8340 N   0  0  0  0  0  2  0  0  0  0  0  0
  189.3270  172.2430  143.7890 F   0  0  0  0  0  0  0  0  0  0  0  0
  191.2060  171.6050  142.3900 C   0  0  0  0  0  2  0  0  0  0  0  0
  191.9100  172.7220  143.0090 N   0  0  0  0  0  0  0  0  0  0  0  0
  189.8400  174.6530  142.2260 C   0  0  1  0  0  3  0  0  0  0  0  0
  192.2420  173.8870  142.2430 C   0  0  0  0  0  0  0  0  0  0  0  0
  189.6920  171.6960  142.5700 C   0  0  2  0  0  3  0  0  0  0  0  0
  188.6390  174.2210  140.2030 O   0  0  0  0  0  0  0  0  0  0  0  0
  192.3860  172.5700  144.3810 C   0  0  0  0  0  2  0  0  0  0  0  0
  193.7320  171.8390  144.4350 C   0  0  1  0  0  3  0  0  0  0  0  0
  194.7510  172.5680  145.3350 C   0  0  2  0  0  3  0  0  0  0  0  0
  196.8210  173.8460  145.3930 C   0  0  0  0  0  2  0  0  0  0  0  0
  195.6980  174.6780  145.9920 C   0  0  0  0  0  2  0  0  0  0  0  0
  196.2790  172.6740  143.3020 C   0  0  0  0  0  1  0  0  0  0  0  0
  194.4050  174.0270  145.5620 C   0  0  0  0  0  2  0  0  0  0  0  0
  196.2010  172.5770  144.8260 C   0  0  2  0  0  0  0  0  0  0  0  0
  196.5720  170.7530  146.5250 O   0  0  0  0  0  1  0  0  0  0  0  0
  197.9410  170.9290  144.7020 O   0  0  0  0  0  0  0  0  0  0  0  0
  196.9450  171.3720  145.3360 C   0  0  0  0  0  0  0  0  0  0  0  0
  193.5480  170.3750  144.8540 C   0  0  0  0  0  2  0  0  0  0  0  0
  194.1170  169.4040  143.8300 C   0  0  0  0  0  1  0  0  0  0  0  0
  189.1540  176.0110  142.3230 C   0  0  0  0  0  2  0  0  0  0  0  0
  188.1810  177.5810  143.7890 C   0  0  1  0  0  3  0  0  0  0  0  0
  189.2250  176.9620  144.6110 C   0  0  1  0  0  3  0  0  0  0  0  0
  188.4790  176.1470  143.6140 N   0  0  0  0  0  0  0  0  0  0  0  0
  186.4220  178.2970  146.9100 C   0  0  0  0  0  0  0  0  0  0  0  0
  185.7950  178.1070  143.9070 C   0  0  0  0  0  3  0  0  0  0  0  0
  187.4770  178.7060  148.2450 Cl  0  0  0  0  0  0  0  0  0  0  0  0
  186.9030  177.7280  144.5520 C   0  0  0  0  0  0  0  0  0  0  0  0
  184.4640  178.2930  144.5180 C   0  0  0  0  0  3  0  0  0  0  0  0
  185.2080  178.8440  146.8570 C   0  0  0  0  0  3  0  0  0  0  0  0
  186.8540  177.2300  145.9610 C   0  0  0  0  0  2  0  0  0  0  0  0
  184.2090  178.6130  145.7930 C   0  0  0  0  0  3  0  0  0  0  0  0
  190.6780  178.8300  144.2140 O   0  0  0  0  0  1  0  0  0  0  0  0
  190.6150  177.4340  144.1640 C   0  0  1  0  0  3  0  0  0  0  0  0
  192.8530  176.9280  144.7050 O   0  0  0  0  0  0  0  0  0  0  0  0
  191.6800  176.8140  145.0250 C   0  0  0  0  0  0  0  0  0  0  0  0
  191.3340  176.0670  146.2750 C   0  0  0  0  0  2  0  0  0  0  0  0
  192.1820  176.4580  147.3110 O   0  0  0  0  0  1  0  0  0  0  0  0
  1 10  1  0  0  0  0
  2  1  1  0  0  0  0
  2  8  1  0  0  0  0
  3  9  2  0  0  0  0
  4  8  1  0  0  0  0
  4  9  1  0  0  0  0
  6 10  1  0  0  0  0
  6  7  1  0  0  0  0
  7 12  1  0  0  0  0
  8 25  1  6  0  0  0
  9  7  1  0  0  0  0
 10  5  1  1  0  0  0
 11  2  2  0  0  0  0
 13 12  1  1  0  0  0
 13 23  1  0  0  0  0
 14 13  1  6  0  0  0
 14 18  1  0  0  0  0
 15 16  1  0  0  0  0
 18 16  1  0  0  0  0
 19 17  1  6  0  0  0
 19 14  1  0  0  0  0
 19 22  1  0  0  0  0
 19 15  1  0  0  0  0
 21 22  2  0  0  0  0
 22 20  1  0  0  0  0
 24 23  1  0  0  0  0
 25 28  1  0  0  0  0
 26 32  1  1  0  0  0
 26 27  1  0  0  0  0
 27 38  1  6  0  0  0
 28 26  1  0  0  0  0
 28 27  1  0  0  0  0
 29 31  1  0  0  0  0
 30 33  1  0  0  0  0
 30 32  2  0  0  0  0
 32 35  1  0  0  0  0
 33 36  2  0  0  0  0
 34 29  2  0  0  0  0
 35 29  1  0  0  0  0
 36 34  1  0  0  0  0
 38 37  1  1  0  0  0
 38 40  1  0  0  0  0
 39 40  2  0  0  0  0
 40 41  1  0  0  0  0
 41 42  1  0  0  0  0
M  END
>  <MODEL>
3

>  <REMARK>
 VINA RESULT:      -6.9      2.995      8.639
  Name = 
  11 active torsions:
  status: ('A' for Active; 'I' for Inactive)
    1  A    between atoms: C_1  and  C_25
    2  A    between atoms: C_1  and  N_32
    3  A    between atoms: C_4  and  C_25
    4  A    between atoms: C_5  and  C_17
    5  A    between atoms: C_6  and  C_35
    6  A    between atoms: C_10  and  C_30
    7  A    between atoms: N_14  and  C_42
    8  A    between atoms: C_25  and  C_29
    9  A    between atoms: C_28  and  C_41
   10  A    between atoms: C_30  and  C_35
   11  A    between atoms: C_33  and  C_42
                            x       y       z     vdW  Elec       q    Type
                         _______ _______ _______ _____ _____    ______ ____

>  <TORSDO>
F 11

$$$$
=
 OpenBabel11062419413D

 42 45  0  0  1  0  0  0  0  0999 V2000
  189.6150  172.3550  141.3200 O   0  0  0  0  0  0  0  0  0  0  0  0
  190.4620  171.5480  142.0850 C   0  0  0  0  0  0  0  0  0  0  0  0
  189.3110  173.1990  145.9700 O   0  0  0  0  0  0  0  0  0  0  0  0
  190.6740  172.1400  144.4210 N   0  0  0  0  0  2  0  0  0  0  0  0
  190.6860  174.4180  141.4440 F   0  0  0  0  0  0  0  0  0  0  0  0
  188.6700  174.0960  142.7610 C   0  0  0  0  0  2  0  0  0  0  0  0
  189.5270  174.2950  143.9240 N   0  0  0  0  0  0  0  0  0  0  0  0
  191.3550  172.1360  143.1350 C   0  0  1  0  0  3  0  0  0  0  0  0
  189.8100  173.2070  144.8150 C   0  0  0  0  0  0  0  0  0  0  0  0
  189.4660  173.7630  141.5000 C   0  0  2  0  0  3  0  0  0  0  0  0
  190.4290  170.3000  141.9140 O   0  0  0  0  0  0  0  0  0  0  0  0
  189.9730  175.6500  144.2360 C   0  0  0  0  0  2  0  0  0  0  0  0
  189.0060  176.7050  143.6880 C   0  0  1  0  0  3  0  0  0  0  0  0
  188.0650  177.2510  144.7820 C   0  0  2  0  0  3  0  0  0  0  0  0
  185.8060  177.2070  145.6890 C   0  0  0  0  0  2  0  0  0  0  0  0
  186.7890  176.7590  146.7600 C   0  0  0  0  0  2  0  0  0  0  0  0
  186.1440  176.2310  143.4580 C   0  0  0  0  0  1  0  0  0  0  0  0
  188.0750  176.4130  146.0460 C   0  0  0  0  0  2  0  0  0  0  0  0
  186.5830  177.3620  144.3880 C   0  0  2  0  0  0  0  0  0  0  0  0
  186.4940  178.9360  142.4220 O   0  0  0  0  0  0  0  0  0  0  0  0
  185.9120  179.6630  144.5110 O   0  0  0  0  0  1  0  0  0  0  0  0
  186.3000  178.7110  143.7810 C   0  0  0  0  0  0  0  0  0  0  0  0
  189.7650  177.8310  142.9760 C   0  0  0  0  0  2  0  0  0  0  0  0
  191.2510  177.8250  143.3020 C   0  0  0  0  0  1  0  0  0  0  0  0
  192.6770  171.3830  143.2330 C   0  0  0  0  0  2  0  0  0  0  0  0
  194.1000  173.2370  143.5450 C   0  0  1  0  0  3  0  0  0  0  0  0
  194.9870  172.0950  143.7830 C   0  0  1  0  0  3  0  0  0  0  0  0
  193.5600  172.0320  144.2010 N   0  0  0  0  0  0  0  0  0  0  0  0
  195.6700  176.3670  144.5830 C   0  0  0  0  0  0  0  0  0  0  0  0
  193.3230  174.5770  145.4380 C   0  0  0  0  0  3  0  0  0  0  0  0
  196.7020  177.0860  143.3660 Cl  0  0  0  0  0  0  0  0  0  0  0  0
  194.3020  174.3070  144.5690 C   0  0  0  0  0  0  0  0  0  0  0  0
  193.3740  175.5970  146.5040 C   0  0  0  0  0  3  0  0  0  0  0  0
  195.0220  177.1660  145.4320 C   0  0  0  0  0  3  0  0  0  0  0  0
  195.6720  174.8840  144.7350 C   0  0  0  0  0  2  0  0  0  0  0  0
  194.1070  176.7180  146.5010 C   0  0  0  0  0  3  0  0  0  0  0  0
  195.6410  172.3260  141.4850 O   0  0  0  0  0  1  0  0  0  0  0  0
  195.3150  171.3810  142.4640 C   0  0  1  0  0  3  0  0  0  0  0  0
  197.5660  170.7020  142.3130 O   0  0  0  0  0  0  0  0  0  0  0  0
  196.4370  170.4010  142.6640 C   0  0  0  0  0  0  0  0  0  0  0  0
  196.1990  169.0650  143.2960 C   0  0  0  0  0  2  0  0  0  0  0  0
  194.9180  168.6120  142.9800 O   0  0  0  0  0  1  0  0  0  0  0  0
  1 10  1  0  0  0  0
  1  2  1  0  0  0  0
  2  8  1  0  0  0  0
  4  9  1  0  0  0  0
  6  7  1  0  0  0  0
  7 12  1  0  0  0  0
  7  9  1  0  0  0  0
  8 25  1  1  0  0  0
  8  4  1  0  0  0  0
  9  3  2  0  0  0  0
 10  5  1  1  0  0  0
 10  6  1  0  0  0  0
 11  2  2  0  0  0  0
 13 23  1  1  0  0  0
 13 12  1  0  0  0  0
 14 13  1  6  0  0  0
 14 18  1  0  0  0  0
 15 16  1  0  0  0  0
 18 16  1  0  0  0  0
 19 17  1  6  0  0  0
 19 14  1  0  0  0  0
 19 15  1  0  0  0  0
 20 22  2  0  0  0  0
 22 19  1  0  0  0  0
 22 21  1  0  0  0  0
 23 24  1  0  0  0  0
 25 28  1  0  0  0  0
 26 27  1  0  0  0  0
 26 28  1  0  0  0  0
 26 32  1  1  0  0  0
 27 38  1  6  0  0  0
 27 28  1  0  0  0  0
 29 35  1  0  0  0  0
 29 34  2  0  0  0  0
 30 33  1  0  0  0  0
 31 29  1  0  0  0  0
 32 35  1  0  0  0  0
 32 30  2  0  0  0  0
 34 36  1  0  0  0  0
 36 33  2  0  0  0  0
 38 37  1  6  0  0  0
 38 40  1  0  0  0  0
 39 40  2  0  0  0  0
 40 41  1  0  0  0  0
 42 41  1  0  0  0  0
M  END
>  <MODEL>
4

>  <REMARK>
 VINA RESULT:      -6.9      2.664      5.144
  Name = 
  11 active torsions:
  status: ('A' for Active; 'I' for Inactive)
    1  A    between atoms: C_1  and  C_25
    2  A    between atoms: C_1  and  N_32
    3  A    between atoms: C_4  and  C_25
    4  A    between atoms: C_5  and  C_17
    5  A    between atoms: C_6  and  C_35
    6  A    between atoms: C_10  and  C_30
    7  A    between atoms: N_14  and  C_42
    8  A    between atoms: C_25  and  C_29
    9  A    between atoms: C_28  and  C_41
   10  A    between atoms: C_30  and  C_35
   11  A    between atoms: C_33  and  C_42
                            x       y       z     vdW  Elec       q    Type
                         _______ _______ _______ _____ _____    ______ ____

>  <TORSDO>
F 11

$$$$
=
 OpenBabel11062419413D

 42 45  0  0  1  0  0  0  0  0999 V2000
  191.2480  176.5590  147.7280 O   0  0  0  0  0  0  0  0  0  0  0  0
  192.2320  176.3660  146.7550 C   0  0  0  0  0  0  0  0  0  0  0  0
  189.9660  178.0980  143.4370 O   0  0  0  0  0  0  0  0  0  0  0  0
  191.5580  176.7620  144.4660 N   0  0  0  0  0  2  0  0  0  0  0  0
  189.6830  174.9360  147.1490 F   0  0  0  0  0  0  0  0  0  0  0  0
  189.1740  177.2520  146.6260 C   0  0  0  0  0  2  0  0  0  0  0  0
  189.1880  176.8280  145.2310 N   0  0  0  0  0  0  0  0  0  0  0  0
  191.9060  175.7350  145.4350 C   0  0  1  0  0  3  0  0  0  0  0  0
  190.2280  177.2700  144.3470 C   0  0  0  0  0  0  0  0  0  0  0  0
  189.8670  176.2500  147.5480 C   0  0  2  0  0  3  0  0  0  0  0  0
  193.4010  176.7800  146.9820 O   0  0  0  0  0  0  0  0  0  0  0  0
  188.0520  176.0650  144.7240 C   0  0  0  0  0  2  0  0  0  0  0  0
  186.7950  176.9320  144.6000 C   0  0  1  0  0  3  0  0  0  0  0  0
  186.2260  176.9250  143.1660 C   0  0  2  0  0  3  0  0  0  0  0  0
  185.8680  178.2320  141.1440 C   0  0  0  0  0  2  0  0  0  0  0  0
  186.7130  177.0120  140.8130 C   0  0  0  0  0  2  0  0  0  0  0  0
  186.5110  179.4550  143.1760 C   0  0  0  0  0  1  0  0  0  0  0  0
  187.2390  176.4840  142.1270 C   0  0  0  0  0  2  0  0  0  0  0  0
  185.6930  178.2730  142.6560 C   0  0  2  0  0  0  0  0  0  0  0  0
  183.8390  179.0400  144.1830 O   0  0  0  0  0  1  0  0  0  0  0  0
  183.3520  177.9660  142.2240 O   0  0  0  0  0  0  0  0  0  0  0  0
  184.2340  178.4260  142.9980 C   0  0  0  0  0  0  0  0  0  0  0  0
  185.7390  176.5240  145.6330 C   0  0  0  0  0  2  0  0  0  0  0  0
  185.5780  177.5590  146.7370 C   0  0  0  0  0  1  0  0  0  0  0  0
  193.0610  174.8830  144.9210 C   0  0  0  0  0  2  0  0  0  0  0  0
  193.1430  173.4440  143.0550 C   0  0  1  0  0  3  0  0  0  0  0  0
  194.3070  174.3120  142.8550 C   0  0  1  0  0  3  0  0  0  0  0  0
  193.0620  174.8600  143.4580 N   0  0  0  0  0  0  0  0  0  0  0  0
  189.9670  173.0530  141.2930 C   0  0  0  0  0  0  0  0  0  0  0  0
  192.8970  173.7090  140.6350 C   0  0  0  0  0  3  0  0  0  0  0  0
  188.5610  173.1350  142.3310 Cl  0  0  0  0  0  0  0  0  0  0  0  0
  192.3840  173.2510  141.7810 C   0  0  0  0  0  0  0  0  0  0  0  0
  192.2710  173.5930  139.3030 C   0  0  0  0  0  3  0  0  0  0  0  0
  189.8670  173.4870  140.0360 C   0  0  0  0  0  3  0  0  0  0  0  0
  191.1860  172.3560  141.7960 C   0  0  0  0  0  2  0  0  0  0  0  0
  190.9610  173.4990  139.0430 C   0  0  0  0  0  3  0  0  0  0  0  0
  195.7180  172.5980  143.7680 O   0  0  0  0  0  1  0  0  0  0  0  0
  195.4190  173.9610  143.8540 C   0  0  1  0  0  3  0  0  0  0  0  0
  197.6920  174.5140  144.1420 O   0  0  0  0  0  0  0  0  0  0  0  0
  196.6400  174.7990  143.5920 C   0  0  0  0  0  0  0  0  0  0  0  0
  196.5960  175.9700  142.6620 C   0  0  0  0  0  2  0  0  0  0  0  0
  196.8310  177.1480  143.3710 O   0  0  0  0  0  1  0  0  0  0  0  0
  2 11  2  0  0  0  0
  2  1  1  0  0  0  0
  3  9  2  0  0  0  0
  4  8  1  0  0  0  0
  6 10  1  0  0  0  0
  7  6  1  0  0  0  0
  8 25  1  6  0  0  0
  8  2  1  0  0  0  0
  9  4  1  0  0  0  0
  9  7  1  0  0  0  0
 10  5  1  6  0  0  0
 10  1  1  0  0  0  0
 12  7  1  0  0  0  0
 13 12  1  6  0  0  0
 13 23  1  0  0  0  0
 14 13  1  1  0  0  0
 15 19  1  0  0  0  0
 16 15  1  0  0  0  0
 16 18  1  0  0  0  0
 18 14  1  0  0  0  0
 19 22  1  0  0  0  0
 19 14  1  0  0  0  0
 19 17  1  1  0  0  0
 21 22  2  0  0  0  0
 22 20  1  0  0  0  0
 23 24  1  0  0  0  0
 26 32  1  6  0  0  0
 26 28  1  0  0  0  0
 27 26  1  0  0  0  0
 27 28  1  0  0  0  0
 27 38  1  1  0  0  0
 28 25  1  0  0  0  0
 29 35  1  0  0  0  0
 29 31  1  0  0  0  0
 30 32  2  0  0  0  0
 32 35  1  0  0  0  0
 33 30  1  0  0  0  0
 34 29  2  0  0  0  0
 36 33  2  0  0  0  0
 36 34  1  0  0  0  0
 38 37  1  6  0  0  0
 40 38  1  0  0  0  0
 40 39  2  0  0  0  0
 41 42  1  0  0  0  0
 41 40  1  0  0  0  0
M  END
>  <MODEL>
5

>  <REMARK>
 VINA RESULT:      -6.8      1.332      1.921
  Name = 
  11 active torsions:
  status: ('A' for Active; 'I' for Inactive)
    1  A    between atoms: C_1  and  C_25
    2  A    between atoms: C_1  and  N_32
    3  A    between atoms: C_4  and  C_25
    4  A    between atoms: C_5  and  C_17
    5  A    between atoms: C_6  and  C_35
    6  A    between atoms: C_10  and  C_30
    7  A    between atoms: N_14  and  C_42
    8  A    between atoms: C_25  and  C_29
    9  A    between atoms: C_28  and  C_41
   10  A    between atoms: C_30  and  C_35
   11  A    between atoms: C_33  and  C_42
                            x       y       z     vdW  Elec       q    Type
                         _______ _______ _______ _____ _____    ______ ____

>  <TORSDO>
F 11

$$$$
=
 OpenBabel11062419413D

 42 45  0  0  1  0  0  0  0  0999 V2000
  188.6740  172.2600  142.7740 O   0  0  0  0  0  0  0  0  0  0  0  0
  188.6080  173.5320  142.1980 C   0  0  0  0  0  0  0  0  0  0  0  0
  192.7540  173.6370  140.8030 O   0  0  0  0  0  0  0  0  0  0  0  0
  190.7140  174.4940  141.4990 N   0  0  0  0  0  2  0  0  0  0  0  0
  189.9460  172.6660  144.6800 F   0  0  0  0  0  0  0  0  0  0  0  0
  191.0120  171.5330  142.8160 C   0  0  0  0  0  2  0  0  0  0  0  0
  191.8940  172.6930  142.7530 N   0  0  0  0  0  0  0  0  0  0  0  0
  189.6500  174.5690  142.4880 C   0  0  1  0  0  3  0  0  0  0  0  0
  191.8210  173.6030  141.6470 C   0  0  0  0  0  0  0  0  0  0  0  0
  189.7380  171.8100  143.6120 C   0  0  2  0  0  3  0  0  0  0  0  0
  187.6790  173.7830  141.3850 O   0  0  0  0  0  0  0  0  0  0  0  0
  192.9380  172.8290  143.7630 C   0  0  0  0  0  2  0  0  0  0  0  0
  194.2050  173.4700  143.1870 C   0  0  1  0  0  3  0  0  0  0  0  0
  194.8630  174.4470  144.1830 C   0  0  2  0  0  3  0  0  0  0  0  0
  194.7600  176.6650  145.1810 C   0  0  0  0  0  2  0  0  0  0  0  0
  194.6680  175.6140  146.2770 C   0  0  0  0  0  2  0  0  0  0  0  0
  193.3710  176.2580  143.1950 C   0  0  0  0  0  1  0  0  0  0  0  0
  194.3240  174.3100  145.5930 C   0  0  0  0  0  2  0  0  0  0  0  0
  194.7180  175.9390  143.8430 C   0  0  2  0  0  0  0  0  0  0  0  0
  195.8260  176.2270  141.5970 O   0  0  0  0  0  0  0  0  0  0  0  0
  196.8870  176.9090  143.5050 O   0  0  0  0  0  1  0  0  0  0  0  0
  195.8630  176.3960  142.9780 C   0  0  0  0  0  0  0  0  0  0  0  0
  195.1920  172.4010  142.7020 C   0  0  0  0  0  2  0  0  0  0  0  0
  196.6420  172.8300  142.8750 C   0  0  0  0  0  1  0  0  0  0  0  0
  189.0510  175.9710  142.5230 C   0  0  0  0  0  2  0  0  0  0  0  0
  187.9620  177.5200  143.9280 C   0  0  1  0  0  3  0  0  0  0  0  0
  188.6560  176.6450  144.8760 C   0  0  1  0  0  3  0  0  0  0  0  0
  188.0890  176.0840  143.6200 N   0  0  0  0  0  0  0  0  0  0  0  0
  185.3910  177.4520  146.5220 C   0  0  0  0  0  0  0  0  0  0  0  0
  185.8900  178.8170  143.8150 C   0  0  0  0  0  3  0  0  0  0  0  0
  185.9420  176.8130  148.0550 Cl  0  0  0  0  0  0  0  0  0  0  0  0
  186.5640  177.8070  144.3740 C   0  0  0  0  0  0  0  0  0  0  0  0
  184.5090  179.2200  144.1450 C   0  0  0  0  0  3  0  0  0  0  0  0
  184.4430  178.3890  146.5180 C   0  0  0  0  0  3  0  0  0  0  0  0
  185.8850  176.8170  145.2660 C   0  0  0  0  0  2  0  0  0  0  0  0
  183.8830  179.0370  145.3140 C   0  0  0  0  0  3  0  0  0  0  0  0
  190.4070  178.2840  144.9750 O   0  0  0  0  0  1  0  0  0  0  0  0
  190.1670  176.9110  144.8510 C   0  0  1  0  0  3  0  0  0  0  0  0
  191.1060  174.9590  145.7810 O   0  0  0  0  0  0  0  0  0  0  0  0
  190.8530  176.1420  145.9460 C   0  0  0  0  0  0  0  0  0  0  0  0
  191.2420  176.8000  147.2320 C   0  0  0  0  0  2  0  0  0  0  0  0
  191.2410  175.8620  148.2640 O   0  0  0  0  0  1  0  0  0  0  0  0
  1 10  1  0  0  0  0
  2  8  1  0  0  0  0
  2  1  1  0  0  0  0
  3  9  2  0  0  0  0
  4  9  1  0  0  0  0
  4  8  1  0  0  0  0
  6 10  1  0  0  0  0
  7  6  1  0  0  0  0
  7 12  1  0  0  0  0
  8 25  1  6  0  0  0
  9  7  1  0  0  0  0
 10  5  1  1  0  0  0
 11  2  2  0  0  0  0
 13 23  1  1  0  0  0
 13 12  1  0  0  0  0
 14 13  1  6  0  0  0
 14 18  1  0  0  0  0
 15 16  1  0  0  0  0
 18 16  1  0  0  0  0
 19 17  1  6  0  0  0
 19 14  1  0  0  0  0
 19 15  1  0  0  0  0
 20 22  2  0  0  0  0
 22 21  1  0  0  0  0
 22 19  1  0  0  0  0
 23 24  1  0  0  0  0
 25 28  1  0  0  0  0
 26 32  1  1  0  0  0
 26 27  1  0  0  0  0
 27 38  1  6  0  0  0
 28 26  1  0  0  0  0
 28 27  1  0  0  0  0
 29 31  1  0  0  0  0
 30 33  1  0  0  0  0
 30 32  2  0  0  0  0
 32 35  1  0  0  0  0
 33 36  2  0  0  0  0
 34 29  2  0  0  0  0
 35 29  1  0  0  0  0
 36 34  1  0  0  0  0
 38 37  1  1  0  0  0
 38 40  1  0  0  0  0
 39 40  2  0  0  0  0
 40 41  1  0  0  0  0
 41 42  1  0  0  0  0
M  END
>  <MODEL>
6

>  <REMARK>
 VINA RESULT:      -6.8      2.984      8.018
  Name = 
  11 active torsions:
  status: ('A' for Active; 'I' for Inactive)
    1  A    between atoms: C_1  and  C_25
    2  A    between atoms: C_1  and  N_32
    3  A    between atoms: C_4  and  C_25
    4  A    between atoms: C_5  and  C_17
    5  A    between atoms: C_6  and  C_35
    6  A    between atoms: C_10  and  C_30
    7  A    between atoms: N_14  and  C_42
    8  A    between atoms: C_25  and  C_29
    9  A    between atoms: C_28  and  C_41
   10  A    between atoms: C_30  and  C_35
   11  A    between atoms: C_33  and  C_42
                            x       y       z     vdW  Elec       q    Type
                         _______ _______ _______ _____ _____    ______ ____

>  <TORSDO>
F 11

$$$$
=
 OpenBabel11062419413D

 42 45  0  0  1  0  0  0  0  0999 V2000
  191.9970  171.4250  140.2950 O   0  0  0  0  0  0  0  0  0  0  0  0
  191.8670  170.8400  141.5580 C   0  0  0  0  0  0  0  0  0  0  0  0
  188.2320  172.9880  142.7060 O   0  0  0  0  0  0  0  0  0  0  0  0
  190.2140  171.8260  143.0230 N   0  0  0  0  0  2  0  0  0  0  0  0
  192.7070  173.5740  140.8360 F   0  0  0  0  0  0  0  0  0  0  0  0
  190.4060  173.2780  140.1160 C   0  0  0  0  0  2  0  0  0  0  0  0
  190.0420  173.7490  141.4480 N   0  0  0  0  0  0  0  0  0  0  0  0
  191.6410  171.6770  142.7800 C   0  0  1  0  0  3  0  0  0  0  0  0
  189.4450  172.8550  142.3970 C   0  0  0  0  0  0  0  0  0  0  0  0
  191.8620  172.8220  140.0370 C   0  0  2  0  0  3  0  0  0  0  0  0
  191.8940  169.5840  141.6520 O   0  0  0  0  0  0  0  0  0  0  0  0
  190.1690  175.1730  141.7420 C   0  0  0  0  0  2  0  0  0  0  0  0
  188.8760  175.7480  142.3300 C   0  0  1  0  0  3  0  0  0  0  0  0
  189.1450  176.9710  143.2320 C   0  0  2  0  0  3  0  0  0  0  0  0
  189.7270  177.7190  145.4740 C   0  0  0  0  0  2  0  0  0  0  0  0
  190.7710  178.2180  144.4890 C   0  0  0  0  0  2  0  0  0  0  0  0
  189.0500  175.3710  145.2110 C   0  0  0  0  0  1  0  0  0  0  0  0
  190.5980  177.4030  143.2290 C   0  0  0  0  0  2  0  0  0  0  0  0
  188.7850  176.7930  144.7160 C   0  0  2  0  0  0  0  0  0  0  0  0
  186.8380  178.3610  144.3970 O   0  0  0  0  0  0  0  0  0  0  0  0
  186.6240  176.5070  145.7190 O   0  0  0  0  0  1  0  0  0  0  0  0
  187.3570  177.2010  144.9640 C   0  0  0  0  0  0  0  0  0  0  0  0
  187.8620  176.0680  141.2260 C   0  0  0  0  0  2  0  0  0  0  0  0
  187.6000  177.5610  141.0940 C   0  0  0  0  0  1  0  0  0  0  0  0
  192.3320  171.0820  144.0020 C   0  0  0  0  0  2  0  0  0  0  0  0
  193.9230  172.8160  144.1520 C   0  0  1  0  0  3  0  0  0  0  0  0
  194.2370  171.9760  145.3120 C   0  0  1  0  0  3  0  0  0  0  0  0
  192.8250  172.1470  144.8750 N   0  0  0  0  0  0  0  0  0  0  0  0
  192.7890  175.5610  146.2780 C   0  0  0  0  0  0  0  0  0  0  0  0
  195.0250  174.9980  144.2470 C   0  0  0  0  0  3  0  0  0  0  0  0
  191.7090  175.0690  147.5640 Cl  0  0  0  0  0  0  0  0  0  0  0  0
  193.9370  174.2670  144.5110 C   0  0  0  0  0  0  0  0  0  0  0  0
  195.1880  176.4370  144.5370 C   0  0  0  0  0  3  0  0  0  0  0  0
  193.5980  176.6010  146.4790 C   0  0  0  0  0  3  0  0  0  0  0  0
  192.6560  174.9050  144.9450 C   0  0  0  0  0  2  0  0  0  0  0  0
  194.5730  177.1300  145.5030 C   0  0  0  0  0  3  0  0  0  0  0  0
  195.9690  170.9530  144.0020 O   0  0  0  0  0  1  0  0  0  0  0  0
  194.9070  170.6690  144.8670 C   0  0  1  0  0  3  0  0  0  0  0  0
  196.4240  170.2010  146.6090 O   0  0  0  0  0  0  0  0  0  0  0  0
  195.3780  169.8890  146.0620 C   0  0  0  0  0  0  0  0  0  0  0  0
  194.5850  168.7420  146.6050 C   0  0  0  0  0  2  0  0  0  0  0  0
  194.9380  168.5080  147.9330 O   0  0  0  0  0  1  0  0  0  0  0  0
  1  2  1  0  0  0  0
  2 11  2  0  0  0  0
  2  8  1  0  0  0  0
  6  7  1  0  0  0  0
  7 12  1  0  0  0  0
  7  9  1  0  0  0  0
  8  4  1  0  0  0  0
  8 25  1  1  0  0  0
  9  3  2  0  0  0  0
  9  4  1  0  0  0  0
 10  6  1  0  0  0  0
 10  1  1  0  0  0  0
 10  5  1  1  0  0  0
 12 13  1  0  0  0  0
 13 23  1  6  0  0  0
 14 13  1  6  0  0  0
 14 19  1  0  0  0  0
 16 15  1  0  0  0  0
 18 14  1  0  0  0  0
 18 16  1  0  0  0  0
 19 22  1  0  0  0  0
 19 17  1  1  0  0  0
 19 15  1  0  0  0  0
 20 22  2  0  0  0  0
 22 21  1  0  0  0  0
 24 23  1  0  0  0  0
 25 28  1  0  0  0  0
 26 32  1  1  0  0  0
 26 28  1  0  0  0  0
 26 27  1  0  0  0  0
 27 38  1  6  0  0  0
 28 27  1  0  0  0  0
 29 34  2  0  0  0  0
 29 31  1  0  0  0  0
 30 32  2  0  0  0  0
 30 33  1  0  0  0  0
 32 35  1  0  0  0  0
 33 36  2  0  0  0  0
 35 29  1  0  0  0  0
 36 34  1  0  0  0  0
 38 37  1  6  0  0  0
 38 40  1  0  0  0  0
 40 41  1  0  0  0  0
 40 39  2  0  0  0  0
 41 42  1  0  0  0  0
M  END
>  <MODEL>
7

>  <REMARK>
 VINA RESULT:      -6.7      3.087      5.718
  Name = 
  11 active torsions:
  status: ('A' for Active; 'I' for Inactive)
    1  A    between atoms: C_1  and  C_25
    2  A    between atoms: C_1  and  N_32
    3  A    between atoms: C_4  and  C_25
    4  A    between atoms: C_5  and  C_17
    5  A    between atoms: C_6  and  C_35
    6  A    between atoms: C_10  and  C_30
    7  A    between atoms: N_14  and  C_42
    8  A    between atoms: C_25  and  C_29
    9  A    between atoms: C_28  and  C_41
   10  A    between atoms: C_30  and  C_35
   11  A    between atoms: C_33  and  C_42
                            x       y       z     vdW  Elec       q    Type
                         _______ _______ _______ _____ _____    ______ ____

>  <TORSDO>
F 11

$$$$
=
 OpenBabel11062419413D

 42 45  0  0  1  0  0  0  0  0999 V2000
  191.5690  176.4170  147.2660 O   0  0  0  0  0  0  0  0  0  0  0  0
  192.3500  176.3170  146.1110 C   0  0  0  0  0  0  0  0  0  0  0  0
  189.5020  178.2900  143.4400 O   0  0  0  0  0  0  0  0  0  0  0  0
  191.2550  176.8930  144.0330 N   0  0  0  0  0  2  0  0  0  0  0  0
  189.9160  174.8290  146.8610 F   0  0  0  0  0  0  0  0  0  0  0  0
  189.3260  177.1750  146.6390 C   0  0  0  0  0  2  0  0  0  0  0  0
  189.0730  176.8680  145.2360 N   0  0  0  0  0  0  0  0  0  0  0  0
  191.7760  175.7930  144.8300 C   0  0  1  0  0  3  0  0  0  0  0  0
  189.9280  177.3930  144.2110 C   0  0  0  0  0  0  0  0  0  0  0  0
  190.1770  176.1080  147.3260 C   0  0  2  0  0  3  0  0  0  0  0  0
  193.5420  176.7240  146.1470 O   0  0  0  0  0  0  0  0  0  0  0  0
  187.8580  176.1350  144.8920 C   0  0  0  0  0  2  0  0  0  0  0  0
  186.6310  177.0520  144.8670 C   0  0  1  0  0  3  0  0  0  0  0  0
  185.9490  177.0690  143.4830 C   0  0  2  0  0  3  0  0  0  0  0  0
  185.4600  178.4010  141.5050 C   0  0  0  0  0  2  0  0  0  0  0  0
  186.2490  177.1660  141.0990 C   0  0  0  0  0  2  0  0  0  0  0  0
  186.2910  179.5920  143.4880 C   0  0  0  0  0  1  0  0  0  0  0  0
  186.8660  176.6150  142.3640 C   0  0  0  0  0  2  0  0  0  0  0  0
  185.4070  178.4330  143.0270 C   0  0  2  0  0  0  0  0  0  0  0  0
  183.7010  179.0980  144.7590 O   0  0  0  0  0  1  0  0  0  0  0  0
  183.0310  178.2970  142.7250 O   0  0  0  0  0  0  0  0  0  0  0  0
  183.9850  178.6150  143.4850 C   0  0  0  0  0  0  0  0  0  0  0  0
  185.6460  176.6840  145.9830 C   0  0  0  0  0  2  0  0  0  0  0  0
  185.6980  177.6620  147.1480 C   0  0  0  0  0  1  0  0  0  0  0  0
  192.8090  175.0000  144.0360 C   0  0  0  0  0  2  0  0  0  0  0  0
  193.6200  172.8370  143.5640 C   0  0  1  0  0  3  0  0  0  0  0  0
  192.2040  172.6030  143.8570 C   0  0  1  0  0  3  0  0  0  0  0  0
  192.9540  173.6560  144.5940 N   0  0  0  0  0  0  0  0  0  0  0  0
  196.4130  172.0200  145.7720 C   0  0  0  0  0  0  0  0  0  0  0  0
  193.9900  170.6120  144.5120 C   0  0  0  0  0  3  0  0  0  0  0  0
  197.1910  173.4160  146.4840 Cl  0  0  0  0  0  0  0  0  0  0  0  0
  194.4900  171.8200  144.2300 C   0  0  0  0  0  0  0  0  0  0  0  0
  194.7210  169.5070  145.1620 C   0  0  0  0  0  3  0  0  0  0  0  0
  196.3820  170.8790  146.4600 C   0  0  0  0  0  3  0  0  0  0  0  0
  195.9520  172.1060  144.3560 C   0  0  0  0  0  2  0  0  0  0  0  0
  195.7540  169.6210  146.0050 C   0  0  0  0  0  3  0  0  0  0  0  0
  191.7020  172.4870  141.5130 O   0  0  0  0  0  1  0  0  0  0  0  0
  191.3230  173.1100  142.7060 C   0  0  1  0  0  3  0  0  0  0  0  0
  189.5700  172.0880  143.9050 O   0  0  0  0  0  0  0  0  0  0  0  0
  189.8720  172.8610  143.0090 C   0  0  0  0  0  0  0  0  0  0  0  0
  188.7880  173.5500  142.2410 C   0  0  0  0  0  2  0  0  0  0  0  0
  187.7340  172.6660  142.0120 O   0  0  0  0  0  1  0  0  0  0  0  0
  1 10  1  0  0  0  0
  2 11  2  0  0  0  0
  2  1  1  0  0  0  0
  3  9  2  0  0  0  0
  4  9  1  0  0  0  0
  4  8  1  0  0  0  0
  6 10  1  0  0  0  0
  7  6  1  0  0  0  0
  8 25  1  6  0  0  0
  8  2  1  0  0  0  0
  9  7  1  0  0  0  0
 10  5  1  6  0  0  0
 12  7  1  0  0  0  0
 13 12  1  6  0  0  0
 13 23  1  0  0  0  0
 14 13  1  1  0  0  0
 15 19  1  0  0  0  0
 16 15  1  0  0  0  0
 16 18  1  0  0  0  0
 18 14  1  0  0  0  0
 19 14  1  0  0  0  0
 19 22  1  0  0  0  0
 19 17  1  1  0  0  0
 21 22  2  0  0  0  0
 22 20  1  0  0  0  0
 23 24  1  0  0  0  0
 25 28  1  0  0  0  0
 26 27  1  0  0  0  0
 26 32  1  1  0  0  0
 26 28  1  0  0  0  0
 27 38  1  6  0  0  0
 27 28  1  0  0  0  0
 29 34  2  0  0  0  0
 29 31  1  0  0  0  0
 30 33  1  0  0  0  0
 32 35  1  0  0  0  0
 32 30  2  0  0  0  0
 33 36  2  0  0  0  0
 35 29  1  0  0  0  0
 36 34  1  0  0  0  0
 38 37  1  6  0  0  0
 38 40  1  0  0  0  0
 40 39  2  0  0  0  0
 41 40  1  0  0  0  0
 42 41  1  0  0  0  0
M  END
>  <MODEL>
8

>  <REMARK>
 VINA RESULT:      -6.7      2.195      4.174
  Name = 
  11 active torsions:
  status: ('A' for Active; 'I' for Inactive)
    1  A    between atoms: C_1  and  C_25
    2  A    between atoms: C_1  and  N_32
    3  A    between atoms: C_4  and  C_25
    4  A    between atoms: C_5  and  C_17
    5  A    between atoms: C_6  and  C_35
    6  A    between atoms: C_10  and  C_30
    7  A    between atoms: N_14  and  C_42
    8  A    between atoms: C_25  and  C_29
    9  A    between atoms: C_28  and  C_41
   10  A    between atoms: C_30  and  C_35
   11  A    between atoms: C_33  and  C_42
                            x       y       z     vdW  Elec       q    Type
                         _______ _______ _______ _____ _____    ______ ____

>  <TORSDO>
F 11

$$$$
=
 OpenBabel11062419413D

 42 45  0  0  1  0  0  0  0  0999 V2000
  189.7480  172.4750  141.5130 O   0  0  0  0  0  0  0  0  0  0  0  0
  190.6180  171.7420  142.3260 C   0  0  0  0  0  0  0  0  0  0  0  0
  189.3160  173.4980  146.1170 O   0  0  0  0  0  0  0  0  0  0  0  0
  190.7570  172.4420  144.6370 N   0  0  0  0  0  2  0  0  0  0  0  0
  190.7170  174.5900  141.5670 F   0  0  0  0  0  0  0  0  0  0  0  0
  188.6950  174.2270  142.8610 C   0  0  0  0  0  2  0  0  0  0  0  0
  189.5190  174.5160  144.0290 N   0  0  0  0  0  0  0  0  0  0  0  0
  191.4610  172.4160  143.3650 C   0  0  1  0  0  3  0  0  0  0  0  0
  189.8360  173.4820  144.9700 C   0  0  0  0  0  0  0  0  0  0  0  0
  189.5300  173.8800  141.6300 C   0  0  2  0  0  3  0  0  0  0  0  0
  190.6480  170.4880  142.2080 O   0  0  0  0  0  0  0  0  0  0  0  0
  189.8940  175.9030  144.2900 C   0  0  0  0  0  2  0  0  0  0  0  0
  188.9010  176.8870  143.6620 C   0  0  1  0  0  3  0  0  0  0  0  0
  188.0050  177.5600  144.7220 C   0  0  2  0  0  3  0  0  0  0  0  0
  185.7830  177.6380  145.7120 C   0  0  0  0  0  2  0  0  0  0  0  0
  186.8030  177.3050  146.7890 C   0  0  0  0  0  2  0  0  0  0  0  0
  186.0300  176.4150  143.5950 C   0  0  0  0  0  1  0  0  0  0  0  0
  188.0600  176.8700  146.0710 C   0  0  0  0  0  2  0  0  0  0  0  0
  186.5100  177.6390  144.3740 C   0  0  2  0  0  0  0  0  0  0  0  0
  185.6620  180.0120  144.2870 O   0  0  0  0  0  1  0  0  0  0  0  0
  186.4220  178.9850  142.3890 O   0  0  0  0  0  0  0  0  0  0  0  0
  186.2090  178.9130  143.6300 C   0  0  0  0  0  0  0  0  0  0  0  0
  189.6250  177.9180  142.7890 C   0  0  0  0  0  2  0  0  0  0  0  0
  190.9900  178.2930  143.3470 C   0  0  0  0  0  1  0  0  0  0  0  0
  192.8150  171.7320  143.5170 C   0  0  0  0  0  2  0  0  0  0  0  0
  194.9580  172.5990  143.0470 C   0  0  1  0  0  3  0  0  0  0  0  0
  195.1040  172.0740  144.4080 C   0  0  1  0  0  3  0  0  0  0  0  0
  193.8190  172.6910  143.9800 N   0  0  0  0  0  0  0  0  0  0  0  0
  195.0340  176.1590  143.8640 C   0  0  0  0  0  0  0  0  0  0  0  0
  196.9060  174.0310  142.6760 C   0  0  0  0  0  3  0  0  0  0  0  0
  193.7720  176.6650  144.9650 Cl  0  0  0  0  0  0  0  0  0  0  0  0
  195.5930  173.9460  142.9120 C   0  0  0  0  0  0  0  0  0  0  0  0
  197.6740  175.2820  142.5160 C   0  0  0  0  0  3  0  0  0  0  0  0
  196.2070  176.7900  143.8940 C   0  0  0  0  0  3  0  0  0  0  0  0
  194.7050  175.1460  142.8200 C   0  0  0  0  0  2  0  0  0  0  0  0
  197.3730  176.4750  143.0440 C   0  0  0  0  0  3  0  0  0  0  0  0
  195.9400  170.0900  143.3470 O   0  0  0  0  0  1  0  0  0  0  0  0
  195.1300  170.5390  144.3950 C   0  0  1  0  0  3  0  0  0  0  0  0
  196.4330  170.6560  146.3550 O   0  0  0  0  0  0  0  0  0  0  0  0
  195.6150  170.0130  145.7170 C   0  0  0  0  0  0  0  0  0  0  0  0
  195.1070  168.7200  146.2730 C   0  0  0  0  0  2  0  0  0  0  0  0
  194.5700  168.9290  147.5430 O   0  0  0  0  0  1  0  0  0  0  0  0
  1 10  1  0  0  0  0
  1  2  1  0  0  0  0
  2  8  1  0  0  0  0
  4  9  1  0  0  0  0
  6  7  1  0  0  0  0
  7 12  1  0  0  0  0
  7  9  1  0  0  0  0
  8 25  1  1  0  0  0
  8  4  1  0  0  0  0
  9  3  2  0  0  0  0
 10  5  1  1  0  0  0
 10  6  1  0  0  0  0
 11  2  2  0  0  0  0
 13 23  1  1  0  0  0
 13 12  1  0  0  0  0
 14 13  1  6  0  0  0
 14 18  1  0  0  0  0
 15 16  1  0  0  0  0
 18 16  1  0  0  0  0
 19 17  1  6  0  0  0
 19 14  1  0  0  0  0
 19 15  1  0  0  0  0
 21 22  2  0  0  0  0
 22 20  1  0  0  0  0
 22 19  1  0  0  0  0
 23 24  1  0  0  0  0
 25 28  1  0  0  0  0
 26 32  1  1  0  0  0
 26 28  1  0  0  0  0
 26 27  1  0  0  0  0
 27 38  1  6  0  0  0
 28 27  1  0  0  0  0
 29 34  2  0  0  0  0
 29 31  1  0  0  0  0
 30 32  2  0  0  0  0
 33 30  1  0  0  0  0
 33 36  2  0  0  0  0
 35 32  1  0  0  0  0
 35 29  1  0  0  0  0
 36 34  1  0  0  0  0
 38 37  1  6  0  0  0
 38 40  1  0  0  0  0
 40 41  1  0  0  0  0
 40 39  2  0  0  0  0
 41 42  1  0  0  0  0
M  END
>  <MODEL>
9

>  <REMARK>
 VINA RESULT:      -6.7      2.715      5.222
  Name = 
  11 active torsions:
  status: ('A' for Active; 'I' for Inactive)
    1  A    between atoms: C_1  and  C_25
    2  A    between atoms: C_1  and  N_32
    3  A    between atoms: C_4  and  C_25
    4  A    between atoms: C_5  and  C_17
    5  A    between atoms: C_6  and  C_35
    6  A    between atoms: C_10  and  C_30
    7  A    between atoms: N_14  and  C_42
    8  A    between atoms: C_25  and  C_29
    9  A    between atoms: C_28  and  C_41
   10  A    between atoms: C_30  and  C_35
   11  A    between atoms: C_33  and  C_42
                            x       y       z     vdW  Elec       q    Type
                         _______ _______ _______ _____ _____    ______ ____

>  <TORSDO>
F 11

$$$$
