=
 OpenBabel11062419043D

 32 36  0  0  1  0  0  0  0  0999 V2000
  188.2720  176.2720  145.6210 C   0  0  0  0  0  0  0  0  0  0  0  0
  188.5780  174.9050  147.6290 O   0  0  0  0  0  1  0  0  0  0  0  0
  188.7160  176.6110  144.3120 C   0  0  0  0  0  0  0  0  0  0  0  0
  189.8240  175.9560  143.7640 C   0  0  0  0  0  3  0  0  0  0  0  0
  186.9330  178.2680  144.1140 C   0  0  0  0  0  0  0  0  0  0  0  0
  186.5090  177.9220  145.4030 C   0  0  0  0  0  0  0  0  0  0  0  0
  187.1530  176.9560  146.1370 C   0  0  1  0  0  3  0  0  0  0  0  0
  188.4870  177.9300  142.2860 O   0  0  0  0  0  1  0  0  0  0  0  0
  185.3600  178.5060  146.1320 C   0  0  0  0  0  3  0  0  0  0  0  0
  188.0470  177.6050  143.5670 C   0  0  0  0  0  0  0  0  0  0  0  0
  188.9650  175.2750  146.3460 C   0  0  0  0  0  0  0  0  0  0  0  0
  186.5130  176.7740  147.4640 C   0  0  0  0  0  3  0  0  0  0  0  0
  190.4950  174.9690  144.4880 C   0  0  0  0  0  0  0  0  0  0  0  0
  190.0680  174.6370  145.7750 C   0  0  0  0  0  3  0  0  0  0  0  0
  185.3580  177.7800  147.4780 C   0  0  0  0  0  3  0  0  0  0  0  0
  186.2360  179.3450  143.3410 C   0  0  0  0  0  2  0  0  0  0  0  0
  183.0760  178.0830  141.7380 N   0  0  0  0  0  0  0  0  0  0  0  0
  183.8250  178.6050  142.7550 C   0  0  0  0  0  0  0  0  0  0  0  0
  183.7590  177.8140  140.6280 N   0  0  0  0  0  0  0  0  0  0  0  0
  183.2800  178.9360  143.9500 F   0  0  0  0  0  0  0  0  0  0  0  0
  185.3440  178.2330  140.8940 S   0  0  0  0  0  0  0  0  0  0  0  0
  185.1760  178.7640  142.4650 C   0  0  0  0  0  0  0  0  0  0  0  0
  191.6850  174.2950  143.9010 C   0  0  0  0  0  2  0  0  0  0  0  0
  191.4920  172.7880  143.9210 C   0  0  0  0  0  2  0  0  0  0  0  0
  190.4190  173.2180  140.2820 C   0  0  0  0  0  2  0  0  0  0  0  0
  188.6300  172.4080  142.6430 C   0  0  0  0  0  3  0  0  0  0  0  0
  188.4960  174.4870  139.7130 O   0  0  0  0  0  0  0  0  0  0  0  0
  188.2740  173.3490  141.7630 C   0  0  0  0  0  3  0  0  0  0  0  0
  191.2900  173.4210  141.5150 C   0  0  0  0  0  2  0  0  0  0  0  0
  189.0300  173.7130  140.5480 C   0  0  0  0  0  0  0  0  0  0  0  0
  191.1720  172.2740  142.5250 C   0  0  2  0  0  3  0  0  0  0  0  0
  189.8320  171.5220  142.4910 C   0  0  0  0  0  2  0  0  0  0  0  0
  1  7  1  0  0  0  0
  1 11  2  0  0  0  0
  3  1  1  0  0  0  0
  4  3  2  0  0  0  0
  4 13  1  0  0  0  0
  5  6  1  0  0  0  0
  6  9  2  0  0  0  0
  6  7  1  0  0  0  0
  7 12  1  6  0  0  0
  8 10  1  0  0  0  0
  9 15  1  0  0  0  0
 10  5  2  0  0  0  0
 10  3  1  0  0  0  0
 11  2  1  0  0  0  0
 12 15  2  0  0  0  0
 13 14  2  0  0  0  0
 14 11  1  0  0  0  0
 16  5  1  0  0  0  0
 17 18  1  0  0  0  0
 18 20  1  0  0  0  0
 19 21  1  0  0  0  0
 19 17  2  0  0  0  0
 21 22  1  0  0  0  0
 22 18  2  0  0  0  0
 22 16  1  0  0  0  0
 23 24  1  0  0  0  0
 23 13  1  0  0  0  0
 25 30  1  0  0  0  0
 25 29  1  0  0  0  0
 27 30  2  0  0  0  0
 28 26  2  0  0  0  0
 29 31  1  0  0  0  0
 30 28  1  0  0  0  0
 31 24  1  1  0  0  0
 32 31  1  0  0  0  0
 32 26  1  0  0  0  0
M  END
>  <MODEL>
1

>  <REMARK>
 VINA RESULT:      -8.4      0.000      0.000
  Name = 
  5 active torsions:
  status: ('A' for Active; 'I' for Inactive)
    1  A    between atoms: C_4  and  C_12
    2  A    between atoms: C_4  and  C_32
    3  A    between atoms: C_6  and  C_23
    4  A    between atoms: C_6  and  C_25
    5  A    between atoms: C_25  and  C_28
                            x       y       z     vdW  Elec       q    Type
                         _______ _______ _______ _____ _____    ______ ____

>  <TORSDO>
F 5

$$$$
=
 OpenBabel11062419043D

 32 36  0  0  1  0  0  0  0  0999 V2000
  188.1980  176.1080  145.4750 C   0  0  0  0  0  0  0  0  0  0  0  0
  188.5770  174.9350  147.5910 O   0  0  0  0  0  1  0  0  0  0  0  0
  188.5000  176.2260  144.0900 C   0  0  0  0  0  0  0  0  0  0  0  0
  189.4110  175.3430  143.5010 C   0  0  0  0  0  3  0  0  0  0  0  0
  186.9720  178.1210  143.8970 C   0  0  0  0  0  0  0  0  0  0  0  0
  186.6850  177.9910  145.2620 C   0  0  0  0  0  0  0  0  0  0  0  0
  187.2760  177.0180  146.0300 C   0  0  0  0  0  0  0  0  0  0  0  0
  188.1870  177.3380  141.9530 O   0  0  0  0  0  1  0  0  0  0  0  0
  185.7490  178.8310  146.0430 C   0  0  0  0  0  2  0  0  0  0  0  0
  187.8880  177.2290  143.3090 C   0  0  0  0  0  0  0  0  0  0  0  0
  188.8300  175.0960  146.2340 C   0  0  0  0  0  0  0  0  0  0  0  0
  186.8080  177.0880  147.4380 C   0  0  0  0  0  3  0  0  0  0  0  0
  190.0230  174.3440  144.2590 C   0  0  0  0  0  0  0  0  0  0  0  0
  189.7360  174.2270  145.6200 C   0  0  0  0  0  3  0  0  0  0  0  0
  185.8280  178.2650  147.4620 C   0  0  0  0  0  3  0  0  0  0  0  0
  186.3400  179.2070  143.0820 C   0  0  0  0  0  2  0  0  0  0  0  0
  182.9880  178.0500  141.8290 N   0  0  0  0  0  0  0  0  0  0  0  0
  183.8670  178.5100  142.7690 C   0  0  0  0  0  0  0  0  0  0  0  0
  183.5200  177.8450  140.6260 N   0  0  0  0  0  0  0  0  0  0  0  0
  183.4830  178.7710  144.0420 F   0  0  0  0  0  0  0  0  0  0  0  0
  185.1300  178.2430  140.7100 S   0  0  0  0  0  0  0  0  0  0  0  0
  185.1710  178.6810  142.3170 C   0  0  0  0  0  0  0  0  0  0  0  0
  191.0070  173.4250  143.6240 C   0  0  0  0  0  2  0  0  0  0  0  0
  191.6240  174.0870  142.4030 C   0  0  0  0  0  2  0  0  0  0  0  0
  194.5880  174.7670  144.7120 C   0  0  0  0  0  2  0  0  0  0  0  0
  192.6090  176.8370  143.6020 C   0  0  0  0  0  3  0  0  0  0  0  0
  194.3420  176.0950  146.6630 O   0  0  0  0  0  0  0  0  0  0  0  0
  192.9590  176.7980  144.8920 C   0  0  0  0  0  3  0  0  0  0  0  0
  193.4940  173.9400  144.0510 C   0  0  0  0  0  2  0  0  0  0  0  0
  193.9820  175.9060  145.4730 C   0  0  0  0  0  0  0  0  0  0  0  0
  193.0600  174.5000  142.6910 C   0  0  2  0  0  3  0  0  0  0  0  0
  193.2580  176.0150  142.5260 C   0  0  0  0  0  2  0  0  0  0  0  0
  1  7  1  0  0  0  0
  1 11  2  0  0  0  0
  3  1  1  0  0  0  0
  4  3  2  0  0  0  0
  4 13  1  0  0  0  0
  5  6  1  0  0  0  0
  6  7  2  0  0  0  0
  6  9  1  0  0  0  0
  7 12  1  0  0  0  0
  8 10  1  0  0  0  0
  9 15  1  0  0  0  0
 10  5  2  0  0  0  0
 10  3  1  0  0  0  0
 11  2  1  0  0  0  0
 12 15  2  0  0  0  0
 13 14  2  0  0  0  0
 14 11  1  0  0  0  0
 16  5  1  0  0  0  0
 17 18  1  0  0  0  0
 18 20  1  0  0  0  0
 19 21  1  0  0  0  0
 19 17  2  0  0  0  0
 21 22  1  0  0  0  0
 22 18  2  0  0  0  0
 22 16  1  0  0  0  0
 23 13  1  0  0  0  0
 24 23  1  0  0  0  0
 25 30  1  0  0  0  0
 26 28  2  0  0  0  0
 28 30  1  0  0  0  0
 29 25  1  0  0  0  0
 30 27  2  0  0  0  0
 31 24  1  1  0  0  0
 31 29  1  0  0  0  0
 32 31  1  0  0  0  0
 32 26  1  0  0  0  0
M  END
>  <MODEL>
2

>  <REMARK>
 VINA RESULT:      -8.4      1.694      3.160
  Name = 
  5 active torsions:
  status: ('A' for Active; 'I' for Inactive)
    1  A    between atoms: C_4  and  C_12
    2  A    between atoms: C_4  and  C_32
    3  A    between atoms: C_6  and  C_23
    4  A    between atoms: C_6  and  C_25
    5  A    between atoms: C_25  and  C_28
                            x       y       z     vdW  Elec       q    Type
                         _______ _______ _______ _____ _____    ______ ____

>  <TORSDO>
F 5

$$$$
=
 OpenBabel11062419043D

 32 36  0  0  1  0  0  0  0  0999 V2000
  188.7790  175.8080  142.5690 C   0  0  0  0  0  0  0  0  0  0  0  0
  187.7950  175.6700  140.3300 O   0  0  0  0  0  1  0  0  0  0  0  0
  188.7770  176.4230  143.8520 C   0  0  2  0  0  3  0  0  0  0  0  0
  187.8510  177.4330  144.1360 C   0  0  0  0  0  3  0  0  0  0  0  0
  190.6400  175.0100  144.5550 C   0  0  0  0  0  0  0  0  0  0  0  0
  190.6280  174.4140  143.2870 C   0  0  0  0  0  0  0  0  0  0  0  0
  189.7280  174.7960  142.3220 C   0  0  0  0  0  0  0  0  0  0  0  0
  189.6970  176.6290  146.0900 O   0  0  0  0  0  1  0  0  0  0  0  0
  191.5270  173.3350  142.8180 C   0  0  0  0  0  3  0  0  0  0  0  0
  189.7060  176.0230  144.8360 C   0  0  0  0  0  0  0  0  0  0  0  0
  187.8390  176.2330  141.6010 C   0  0  0  0  0  0  0  0  0  0  0  0
  189.9180  174.0170  141.0720 C   0  0  0  0  0  3  0  0  0  0  0  0
  186.9250  177.8380  143.1740 C   0  0  0  0  0  0  0  0  0  0  0  0
  186.9260  177.2430  141.9110 C   0  0  0  0  0  3  0  0  0  0  0  0
  191.0870  173.0750  141.3770 C   0  0  0  0  0  3  0  0  0  0  0  0
  191.6480  174.5990  145.5840 C   0  0  0  0  0  2  0  0  0  0  0  0
  194.3500  177.1270  146.2590 N   0  0  0  0  0  0  0  0  0  0  0  0
  193.1880  176.4570  146.5210 C   0  0  0  0  0  0  0  0  0  0  0  0
  194.9550  176.7670  145.1300 N   0  0  0  0  0  0  0  0  0  0  0  0
  192.4530  176.7040  147.6320 F   0  0  0  0  0  0  0  0  0  0  0  0
  194.0370  175.5800  144.4190 S   0  0  0  0  0  0  0  0  0  0  0  0
  192.8270  175.5160  145.5630 C   0  0  0  0  0  0  0  0  0  0  0  0
  185.9600  178.9280  143.4830 C   0  0  0  0  0  2  0  0  0  0  0  0
  184.6670  178.3400  144.0250 C   0  0  0  0  0  2  0  0  0  0  0  0
  185.8210  179.6610  147.4160 C   0  0  0  0  0  2  0  0  0  0  0  0
  185.3540  176.7240  146.6490 C   0  0  0  0  0  3  0  0  0  0  0  0
  187.6860  178.7090  148.5320 O   0  0  0  0  0  0  0  0  0  0  0  0
  186.4530  177.1320  147.2920 C   0  0  0  0  0  3  0  0  0  0  0  0
  185.5990  179.6850  145.9100 C   0  0  0  0  0  2  0  0  0  0  0  0
  186.6950  178.5020  147.7870 C   0  0  0  0  0  0  0  0  0  0  0  0
  184.4410  178.7850  145.4610 C   0  0  2  0  0  3  0  0  0  0  0  0
  184.1580  177.5920  146.3870 C   0  0  0  0  0  2  0  0  0  0  0  0
  1  3  1  0  0  0  0
  2 11  1  0  0  0  0
  3  4  1  6  0  0  0
  3 10  1  0  0  0  0
  5 10  2  0  0  0  0
  5 16  1  0  0  0  0
  6  5  1  0  0  0  0
  7  1  2  0  0  0  0
  7  6  1  0  0  0  0
  9  6  2  0  0  0  0
 10  8  1  0  0  0  0
 11 14  2  0  0  0  0
 11  1  1  0  0  0  0
 12 15  2  0  0  0  0
 12  7  1  0  0  0  0
 13 23  1  0  0  0  0
 13  4  2  0  0  0  0
 14 13  1  0  0  0  0
 15  9  1  0  0  0  0
 17 18  1  0  0  0  0
 18 20  1  0  0  0  0
 19 17  2  0  0  0  0
 21 19  1  0  0  0  0
 21 22  1  0  0  0  0
 22 16  1  0  0  0  0
 22 18  2  0  0  0  0
 23 24  1  0  0  0  0
 25 30  1  0  0  0  0
 26 28  2  0  0  0  0
 28 30  1  0  0  0  0
 29 25  1  0  0  0  0
 30 27  2  0  0  0  0
 31 24  1  6  0  0  0
 31 29  1  0  0  0  0
 31 32  1  0  0  0  0
 32 26  1  0  0  0  0
M  END
>  <MODEL>
3

>  <REMARK>
 VINA RESULT:      -8.0      4.235      7.923
  Name = 
  5 active torsions:
  status: ('A' for Active; 'I' for Inactive)
    1  A    between atoms: C_4  and  C_12
    2  A    between atoms: C_4  and  C_32
    3  A    between atoms: C_6  and  C_23
    4  A    between atoms: C_6  and  C_25
    5  A    between atoms: C_25  and  C_28
                            x       y       z     vdW  Elec       q    Type
                         _______ _______ _______ _____ _____    ______ ____

>  <TORSDO>
F 5

$$$$
=
 OpenBabel11062419043D

 32 36  0  0  1  0  0  0  0  0999 V2000
  188.3050  176.3300  145.5350 C   0  0  0  0  0  0  0  0  0  0  0  0
  188.5540  174.9660  147.5540 O   0  0  0  0  0  1  0  0  0  0  0  0
  188.8100  176.6970  144.2560 C   0  0  0  0  0  0  0  0  0  0  0  0
  189.9790  176.0980  143.7750 C   0  0  0  0  0  3  0  0  0  0  0  0
  186.9650  178.2680  143.9560 C   0  0  0  0  0  0  0  0  0  0  0  0
  186.4810  177.8950  145.2160 C   0  0  0  0  0  0  0  0  0  0  0  0
  187.1250  176.9560  145.9840 C   0  0  2  0  0  3  0  0  0  0  0  0
  188.6390  178.0160  142.2240 O   0  0  0  0  0  1  0  0  0  0  0  0
  185.2630  178.4200  145.8760 C   0  0  0  0  0  3  0  0  0  0  0  0
  188.1400  177.6620  143.4750 C   0  0  0  0  0  0  0  0  0  0  0  0
  188.9990  175.3620  146.2980 C   0  0  0  0  0  0  0  0  0  0  0  0
  186.4160  176.7360  147.2710 C   0  0  0  0  0  3  0  0  0  0  0  0
  190.6510  175.1400  144.5340 C   0  0  0  0  0  0  0  0  0  0  0  0
  190.1640  174.7800  145.7920 C   0  0  0  0  0  3  0  0  0  0  0  0
  185.2150  177.6860  147.2180 C   0  0  0  0  0  3  0  0  0  0  0  0
  186.2640  179.3150  143.1460 C   0  0  0  0  0  2  0  0  0  0  0  0
  183.2630  177.9160  141.3620 N   0  0  0  0  0  0  0  0  0  0  0  0
  183.9280  178.4680  142.4210 C   0  0  0  0  0  0  0  0  0  0  0  0
  184.0200  177.6840  140.2920 N   0  0  0  0  0  0  0  0  0  0  0  0
  183.3010  178.7680  143.5840 F   0  0  0  0  0  0  0  0  0  0  0  0
  185.5660  178.1740  140.6490 S   0  0  0  0  0  0  0  0  0  0  0  0
  185.2840  178.6900  142.2090 C   0  0  0  0  0  0  0  0  0  0  0  0
  191.9060  174.5270  144.0180 C   0  0  0  0  0  2  0  0  0  0  0  0
  192.7060  173.9360  145.1660 C   0  0  0  0  0  2  0  0  0  0  0  0
  195.1830  176.7920  144.6280 C   0  0  0  0  0  2  0  0  0  0  0  0
  195.7990  173.7840  144.5470 C   0  0  0  0  0  3  0  0  0  0  0  0
  196.6720  176.7910  142.7810 O   0  0  0  0  0  0  0  0  0  0  0  0
  196.2290  174.6300  143.6060 C   0  0  0  0  0  3  0  0  0  0  0  0
  193.8190  176.1160  144.6760 C   0  0  0  0  0  2  0  0  0  0  0  0
  196.0640  176.0970  143.6360 C   0  0  0  0  0  0  0  0  0  0  0  0
  193.7810  174.9100  145.6220 C   0  0  2  0  0  3  0  0  0  0  0  0
  195.1340  174.2080  145.8240 C   0  0  0  0  0  2  0  0  0  0  0  0
  1  7  1  0  0  0  0
  1 11  2  0  0  0  0
  3  1  1  0  0  0  0
  4  3  2  0  0  0  0
  4 13  1  0  0  0  0
  5  6  1  0  0  0  0
  6  9  2  0  0  0  0
  6  7  1  0  0  0  0
  7 12  1  1  0  0  0
  8 10  1  0  0  0  0
  9 15  1  0  0  0  0
 10  5  2  0  0  0  0
 10  3  1  0  0  0  0
 11  2  1  0  0  0  0
 13 14  2  0  0  0  0
 14 11  1  0  0  0  0
 15 12  2  0  0  0  0
 16  5  1  0  0  0  0
 17 18  1  0  0  0  0
 18 20  1  0  0  0  0
 19 21  1  0  0  0  0
 19 17  2  0  0  0  0
 21 22  1  0  0  0  0
 22 18  2  0  0  0  0
 22 16  1  0  0  0  0
 23 13  1  0  0  0  0
 23 24  1  0  0  0  0
 25 29  1  0  0  0  0
 26 32  1  0  0  0  0
 27 30  2  0  0  0  0
 28 30  1  0  0  0  0
 28 26  2  0  0  0  0
 29 31  1  0  0  0  0
 30 25  1  0  0  0  0
 31 24  1  6  0  0  0
 31 32  1  0  0  0  0
M  END
>  <MODEL>
4

>  <REMARK>
 VINA RESULT:      -7.9      2.402      3.645
  Name = 
  5 active torsions:
  status: ('A' for Active; 'I' for Inactive)
    1  A    between atoms: C_4  and  C_12
    2  A    between atoms: C_4  and  C_32
    3  A    between atoms: C_6  and  C_23
    4  A    between atoms: C_6  and  C_25
    5  A    between atoms: C_25  and  C_28
                            x       y       z     vdW  Elec       q    Type
                         _______ _______ _______ _____ _____    ______ ____

>  <TORSDO>
F 5

$$$$
=
 OpenBabel11062419043D

 32 36  0  0  1  0  0  0  0  0999 V2000
  191.5100  174.1020  145.4090 C   0  0  0  0  0  0  0  0  0  0  0  0
  189.5330  172.8360  144.7100 O   0  0  0  0  0  1  0  0  0  0  0  0
  192.0400  175.2740  146.0170 C   0  0  0  0  0  0  0  0  0  0  0  0
  191.1700  176.2620  146.4920 C   0  0  0  0  0  3  0  0  0  0  0  0
  194.3130  174.4560  145.6620 C   0  0  0  0  0  0  0  0  0  0  0  0
  193.7750  173.3070  145.0670 C   0  0  0  0  0  0  0  0  0  0  0  0
  192.4180  173.1300  144.9430 C   0  0  2  0  0  3  0  0  0  0  0  0
  193.9460  176.5960  146.7360 O   0  0  0  0  0  1  0  0  0  0  0  0
  194.5420  172.1660  144.5170 C   0  0  0  0  0  3  0  0  0  0  0  0
  193.4350  175.4460  146.1390 C   0  0  0  0  0  0  0  0  0  0  0  0
  190.1080  173.9580  145.2960 C   0  0  0  0  0  0  0  0  0  0  0  0
  192.1040  171.8380  144.2830 C   0  0  0  0  0  3  0  0  0  0  0  0
  189.7890  176.1060  146.3800 C   0  0  0  0  0  0  0  0  0  0  0  0
  189.2630  174.9610  145.7790 C   0  0  0  0  0  3  0  0  0  0  0  0
  193.4700  171.2090  143.9920 C   0  0  0  0  0  3  0  0  0  0  0  0
  195.7960  174.6440  145.7620 C   0  0  0  0  0  2  0  0  0  0  0  0
  196.9000  176.6110  142.7520 N   0  0  0  0  0  0  0  0  0  0  0  0
  196.2480  176.4250  143.9390 C   0  0  0  0  0  0  0  0  0  0  0  0
  197.5380  175.5360  142.2960 N   0  0  0  0  0  0  0  0  0  0  0  0
  195.5530  177.4220  144.5380 F   0  0  0  0  0  0  0  0  0  0  0  0
  197.3000  174.3050  143.3850 S   0  0  0  0  0  0  0  0  0  0  0  0
  196.3520  175.1440  144.4700 C   0  0  0  0  0  0  0  0  0  0  0  0
  188.8770  177.1750  146.8700 C   0  0  0  0  0  2  0  0  0  0  0  0
  187.5070  177.0260  146.2280 C   0  0  0  0  0  2  0  0  0  0  0  0
  185.2620  179.2480  144.0840 C   0  0  0  0  0  2  0  0  0  0  0  0
  186.8370  176.7820  143.1520 C   0  0  0  0  0  3  0  0  0  0  0  0
  183.6230  178.3110  142.6470 O   0  0  0  0  0  0  0  0  0  0  0  0
  185.5520  176.9750  142.8370 C   0  0  0  0  0  3  0  0  0  0  0  0
  185.7890  178.6190  145.3670 C   0  0  0  0  0  2  0  0  0  0  0  0
  184.7650  178.1820  143.1570 C   0  0  0  0  0  0  0  0  0  0  0  0
  187.2490  178.1650  145.2540 C   0  0  2  0  0  3  0  0  0  0  0  0
  187.7030  177.8060  143.8290 C   0  0  0  0  0  2  0  0  0  0  0  0
  1  3  1  0  0  0  0
  2 11  1  0  0  0  0
  3 10  1  0  0  0  0
  3  4  2  0  0  0  0
  5 16  1  0  0  0  0
  5 10  2  0  0  0  0
  6  5  1  0  0  0  0
  7 12  1  6  0  0  0
  7  6  1  0  0  0  0
  7  1  1  0  0  0  0
  9  6  2  0  0  0  0
 10  8  1  0  0  0  0
 11  1  2  0  0  0  0
 11 14  1  0  0  0  0
 13  4  1  0  0  0  0
 13 23  1  0  0  0  0
 14 13  2  0  0  0  0
 15 12  2  0  0  0  0
 15  9  1  0  0  0  0
 17 18  1  0  0  0  0
 18 22  2  0  0  0  0
 18 20  1  0  0  0  0
 19 17  2  0  0  0  0
 19 21  1  0  0  0  0
 21 22  1  0  0  0  0
 22 16  1  0  0  0  0
 24 23  1  0  0  0  0
 25 29  1  0  0  0  0
 26 32  1  0  0  0  0
 27 30  2  0  0  0  0
 28 26  2  0  0  0  0
 28 30  1  0  0  0  0
 30 25  1  0  0  0  0
 31 29  1  0  0  0  0
 31 24  1  1  0  0  0
 32 31  1  0  0  0  0
M  END
>  <MODEL>
5

>  <REMARK>
 VINA RESULT:      -7.7      5.320      8.375
  Name = 
  5 active torsions:
  status: ('A' for Active; 'I' for Inactive)
    1  A    between atoms: C_4  and  C_12
    2  A    between atoms: C_4  and  C_32
    3  A    between atoms: C_6  and  C_23
    4  A    between atoms: C_6  and  C_25
    5  A    between atoms: C_25  and  C_28
                            x       y       z     vdW  Elec       q    Type
                         _______ _______ _______ _____ _____    ______ ____

>  <TORSDO>
F 5

$$$$
=
 OpenBabel11062419043D

 32 36  0  0  1  0  0  0  0  0999 V2000
  192.3220  175.0410  146.1050 C   0  0  0  0  0  0  0  0  0  0  0  0
  192.8600  176.9830  147.4970 O   0  0  0  0  0  1  0  0  0  0  0  0
  191.3280  174.1600  145.5960 C   0  0  0  0  0  0  0  0  0  0  0  0
  189.9880  174.3440  145.9540 C   0  0  0  0  0  3  0  0  0  0  0  0
  193.0330  172.9090  144.3740 C   0  0  0  0  0  0  0  0  0  0  0  0
  193.9990  173.7860  144.8830 C   0  0  0  0  0  0  0  0  0  0  0  0
  193.6590  174.8210  145.7210 C   0  0  2  0  0  3  0  0  0  0  0  0
  190.7080  172.2410  144.2410 O   0  0  0  0  0  1  0  0  0  0  0  0
  195.4530  173.7430  144.6080 C   0  0  0  0  0  3  0  0  0  0  0  0
  191.6870  173.1000  144.7360 C   0  0  0  0  0  0  0  0  0  0  0  0
  191.9330  176.0920  146.9680 C   0  0  0  0  0  0  0  0  0  0  0  0
  194.8570  175.6040  146.1190 C   0  0  0  0  0  3  0  0  0  0  0  0
  189.6160  175.3880  146.8010 C   0  0  0  0  0  0  0  0  0  0  0  0
  190.5880  176.2530  147.3090 C   0  0  0  0  0  3  0  0  0  0  0  0
  196.0260  174.9090  145.4140 C   0  0  0  0  0  3  0  0  0  0  0  0
  193.4260  171.7690  143.4860 C   0  0  0  0  0  2  0  0  0  0  0  0
  193.2100  168.2960  144.9130 N   0  0  0  0  0  0  0  0  0  0  0  0
  192.8660  169.3080  144.0620 C   0  0  0  0  0  0  0  0  0  0  0  0
  194.1450  168.6150  145.8050 N   0  0  0  0  0  0  0  0  0  0  0  0
  191.9320  169.1450  143.0940 F   0  0  0  0  0  0  0  0  0  0  0  0
  194.5740  170.1980  145.5450 S   0  0  0  0  0  0  0  0  0  0  0  0
  193.5440  170.5040  144.2710 C   0  0  0  0  0  0  0  0  0  0  0  0
  188.1900  175.5600  147.1910 C   0  0  0  0  0  2  0  0  0  0  0  0
  187.6610  176.8810  146.6580 C   0  0  0  0  0  2  0  0  0  0  0  0
  185.7400  177.0380  143.3610 C   0  0  0  0  0  2  0  0  0  0  0  0
  185.5830  179.0480  145.6790 C   0  0  0  0  0  3  0  0  0  0  0  0
  185.6600  179.0360  142.0850 O   0  0  0  0  0  0  0  0  0  0  0  0
  185.7230  179.4300  144.4050 C   0  0  0  0  0  3  0  0  0  0  0  0
  186.8620  176.6270  144.3070 C   0  0  0  0  0  2  0  0  0  0  0  0
  185.6970  178.5300  143.2350 C   0  0  0  0  0  0  0  0  0  0  0  0
  186.4400  176.6500  145.7810 C   0  0  2  0  0  3  0  0  0  0  0  0
  185.3080  177.6370  146.1110 C   0  0  0  0  0  2  0  0  0  0  0  0
  1 11  2  0  0  0  0
  3  4  2  0  0  0  0
  3  1  1  0  0  0  0
  4 13  1  0  0  0  0
  5 10  2  0  0  0  0
  5  6  1  0  0  0  0
  6  7  1  0  0  0  0
  7  1  1  0  0  0  0
  7 12  1  1  0  0  0
  8 10  1  0  0  0  0
  9  6  2  0  0  0  0
  9 15  1  0  0  0  0
 10  3  1  0  0  0  0
 11 14  1  0  0  0  0
 11  2  1  0  0  0  0
 13 23  1  0  0  0  0
 13 14  2  0  0  0  0
 15 12  2  0  0  0  0
 16 22  1  0  0  0  0
 16  5  1  0  0  0  0
 17 19  2  0  0  0  0
 18 22  2  0  0  0  0
 18 17  1  0  0  0  0
 20 18  1  0  0  0  0
 21 19  1  0  0  0  0
 22 21  1  0  0  0  0
 24 23  1  0  0  0  0
 25 29  1  0  0  0  0
 26 32  1  0  0  0  0
 27 30  2  0  0  0  0
 28 26  2  0  0  0  0
 29 31  1  0  0  0  0
 30 25  1  0  0  0  0
 30 28  1  0  0  0  0
 31 32  1  0  0  0  0
 31 24  1  1  0  0  0
M  END
>  <MODEL>
6

>  <REMARK>
 VINA RESULT:      -7.5      5.465      8.520
  Name = 
  5 active torsions:
  status: ('A' for Active; 'I' for Inactive)
    1  A    between atoms: C_4  and  C_12
    2  A    between atoms: C_4  and  C_32
    3  A    between atoms: C_6  and  C_23
    4  A    between atoms: C_6  and  C_25
    5  A    between atoms: C_25  and  C_28
                            x       y       z     vdW  Elec       q    Type
                         _______ _______ _______ _____ _____    ______ ____

>  <TORSDO>
F 5

$$$$
=
 OpenBabel11062419043D

 32 36  0  0  1  0  0  0  0  0999 V2000
  188.1980  176.2280  145.3750 C   0  0  0  0  0  0  0  0  0  0  0  0
  188.5580  175.0610  147.4980 O   0  0  0  0  0  1  0  0  0  0  0  0
  188.5390  176.3640  144.0000 C   0  0  0  0  0  0  0  0  0  0  0  0
  189.5040  175.5220  143.4380 C   0  0  0  0  0  3  0  0  0  0  0  0
  186.9400  178.1950  143.7650 C   0  0  0  0  0  0  0  0  0  0  0  0
  186.6160  178.0480  145.1190 C   0  0  0  0  0  0  0  0  0  0  0  0
  187.2220  177.0960  145.9040 C   0  0  1  0  0  3  0  0  0  0  0  0
  188.2480  177.4720  141.8580 O   0  0  0  0  0  1  0  0  0  0  0  0
  185.6210  178.8440  145.8730 C   0  0  0  0  0  3  0  0  0  0  0  0
  187.9110  177.3450  143.2040 C   0  0  0  0  0  0  0  0  0  0  0  0
  188.8470  175.2390  146.1500 C   0  0  0  0  0  0  0  0  0  0  0  0
  186.7070  177.1400  147.2960 C   0  0  0  0  0  3  0  0  0  0  0  0
  190.1330  174.5460  144.2120 C   0  0  0  0  0  0  0  0  0  0  0  0
  189.8080  174.4120  145.5630 C   0  0  0  0  0  3  0  0  0  0  0  0
  185.6780  178.2760  147.2920 C   0  0  0  0  0  3  0  0  0  0  0  0
  186.2900  179.2580  142.9340 C   0  0  0  0  0  2  0  0  0  0  0  0
  183.0010  177.9700  141.6420 N   0  0  0  0  0  0  0  0  0  0  0  0
  183.8540  178.4510  142.5960 C   0  0  0  0  0  0  0  0  0  0  0  0
  183.5460  177.8170  140.4380 N   0  0  0  0  0  0  0  0  0  0  0  0
  183.4540  178.6660  143.8720 F   0  0  0  0  0  0  0  0  0  0  0  0
  185.1350  178.2890  140.5360 S   0  0  0  0  0  0  0  0  0  0  0  0
  185.1490  178.6940  142.1530 C   0  0  0  0  0  0  0  0  0  0  0  0
  191.1730  173.6710  143.6060 C   0  0  0  0  0  2  0  0  0  0  0  0
  192.3990  174.4950  143.2450 C   0  0  0  0  0  2  0  0  0  0  0  0
  194.2000  171.1280  143.2570 C   0  0  0  0  0  2  0  0  0  0  0  0
  194.4150  173.3360  145.3810 C   0  0  0  0  0  3  0  0  0  0  0  0
  194.2130  169.7520  145.1900 O   0  0  0  0  0  0  0  0  0  0  0  0
  194.2260  172.0510  145.6980 C   0  0  0  0  0  3  0  0  0  0  0  0
  193.1180  172.1320  142.8820 C   0  0  0  0  0  2  0  0  0  0  0  0
  194.2210  170.9270  144.7410 C   0  0  0  0  0  0  0  0  0  0  0  0
  193.5910  173.5870  142.9820 C   0  0  2  0  0  3  0  0  0  0  0  0
  194.7210  173.8280  143.9960 C   0  0  0  0  0  2  0  0  0  0  0  0
  1  7  1  0  0  0  0
  1 11  2  0  0  0  0
  3  1  1  0  0  0  0
  4  3  2  0  0  0  0
  4 13  1  0  0  0  0
  5  6  1  0  0  0  0
  6  9  2  0  0  0  0
  6  7  1  0  0  0  0
  7 12  1  6  0  0  0
  8 10  1  0  0  0  0
  9 15  1  0  0  0  0
 10  5  2  0  0  0  0
 10  3  1  0  0  0  0
 11  2  1  0  0  0  0
 13 14  2  0  0  0  0
 14 11  1  0  0  0  0
 15 12  2  0  0  0  0
 16  5  1  0  0  0  0
 17 18  1  0  0  0  0
 18 20  1  0  0  0  0
 19 21  1  0  0  0  0
 19 17  2  0  0  0  0
 21 22  1  0  0  0  0
 22 18  2  0  0  0  0
 22 16  1  0  0  0  0
 23 13  1  0  0  0  0
 24 23  1  0  0  0  0
 25 30  1  0  0  0  0
 26 28  2  0  0  0  0
 29 31  1  0  0  0  0
 29 25  1  0  0  0  0
 30 27  2  0  0  0  0
 30 28  1  0  0  0  0
 31 24  1  1  0  0  0
 31 32  1  0  0  0  0
 32 26  1  0  0  0  0
M  END
>  <MODEL>
7

>  <REMARK>
 VINA RESULT:      -7.4      2.031      3.134
  Name = 
  5 active torsions:
  status: ('A' for Active; 'I' for Inactive)
    1  A    between atoms: C_4  and  C_12
    2  A    between atoms: C_4  and  C_32
    3  A    between atoms: C_6  and  C_23
    4  A    between atoms: C_6  and  C_25
    5  A    between atoms: C_25  and  C_28
                            x       y       z     vdW  Elec       q    Type
                         _______ _______ _______ _____ _____    ______ ____

>  <TORSDO>
F 5

$$$$
=
 OpenBabel11062419043D

 32 36  0  0  1  0  0  0  0  0999 V2000
  191.7700  174.9550  146.1510 C   0  0  0  0  0  0  0  0  0  0  0  0
  192.5830  176.8910  147.4110 O   0  0  0  0  0  1  0  0  0  0  0  0
  190.6590  174.1900  145.6970 C   0  0  0  0  0  0  0  0  0  0  0  0
  189.3600  174.5870  146.0330 C   0  0  0  0  0  3  0  0  0  0  0  0
  192.1660  172.6300  144.5740 C   0  0  0  0  0  0  0  0  0  0  0  0
  193.2480  173.3940  145.0290 C   0  0  0  0  0  0  0  0  0  0  0  0
  193.0620  174.5220  145.7920 C   0  0  2  0  0  3  0  0  0  0  0  0
  189.7690  172.2910  144.4720 O   0  0  0  0  0  1  0  0  0  0  0  0
  194.6800  173.1260  144.7660 C   0  0  0  0  0  3  0  0  0  0  0  0
  190.8610  173.0340  144.9140 C   0  0  0  0  0  0  0  0  0  0  0  0
  191.5370  176.1070  146.9380 C   0  0  0  0  0  0  0  0  0  0  0  0
  194.3600  175.1520  146.1430 C   0  0  0  0  0  3  0  0  0  0  0  0
  189.1440  175.7290  146.8050 C   0  0  0  0  0  0  0  0  0  0  0  0
  190.2300  176.4800  147.2590 C   0  0  0  0  0  3  0  0  0  0  0  0
  195.4160  174.2520  145.4950 C   0  0  0  0  0  3  0  0  0  0  0  0
  192.3900  171.3880  143.7680 C   0  0  0  0  0  2  0  0  0  0  0  0
  191.1400  171.5950  140.2270 N   0  0  0  0  0  0  0  0  0  0  0  0
  191.1350  171.1440  141.5170 C   0  0  0  0  0  0  0  0  0  0  0  0
  192.1170  172.4540  139.9440 N   0  0  0  0  0  0  0  0  0  0  0  0
  190.2050  170.2680  141.9670 F   0  0  0  0  0  0  0  0  0  0  0  0
  193.0140  172.6750  141.3240 S   0  0  0  0  0  0  0  0  0  0  0  0
  192.1540  171.6500  142.3180 C   0  0  0  0  0  0  0  0  0  0  0  0
  187.7570  176.1270  147.1730 C   0  0  0  0  0  2  0  0  0  0  0  0
  187.3230  177.3240  146.3430 C   0  0  0  0  0  2  0  0  0  0  0  0
  185.6950  176.8780  142.9180 C   0  0  0  0  0  2  0  0  0  0  0  0
  185.3900  179.2870  144.8000 C   0  0  0  0  0  3  0  0  0  0  0  0
  185.7730  178.6030  141.2910 O   0  0  0  0  0  0  0  0  0  0  0  0
  185.6480  179.4230  143.4950 C   0  0  0  0  0  3  0  0  0  0  0  0
  186.7210  176.6420  144.0190 C   0  0  0  0  0  2  0  0  0  0  0  0
  185.7000  178.3210  142.5140 C   0  0  0  0  0  0  0  0  0  0  0  0
  186.1760  176.9430  145.4200 C   0  0  2  0  0  3  0  0  0  0  0  0
  185.0450  177.9840  145.4600 C   0  0  0  0  0  2  0  0  0  0  0  0
  1 11  2  0  0  0  0
  3  4  2  0  0  0  0
  3  1  1  0  0  0  0
  4 13  1  0  0  0  0
  5 10  2  0  0  0  0
  5  6  1  0  0  0  0
  6  7  1  0  0  0  0
  7 12  1  1  0  0  0
  7  1  1  0  0  0  0
  8 10  1  0  0  0  0
  9  6  2  0  0  0  0
  9 15  1  0  0  0  0
 10  3  1  0  0  0  0
 11 14  1  0  0  0  0
 11  2  1  0  0  0  0
 13 23  1  0  0  0  0
 13 14  2  0  0  0  0
 15 12  2  0  0  0  0
 16  5  1  0  0  0  0
 17 18  1  0  0  0  0
 18 20  1  0  0  0  0
 18 22  2  0  0  0  0
 19 17  2  0  0  0  0
 19 21  1  0  0  0  0
 21 22  1  0  0  0  0
 22 16  1  0  0  0  0
 24 23  1  0  0  0  0
 25 29  1  0  0  0  0
 26 32  1  0  0  0  0
 27 30  2  0  0  0  0
 28 26  2  0  0  0  0
 29 31  1  0  0  0  0
 30 25  1  0  0  0  0
 30 28  1  0  0  0  0
 31 32  1  0  0  0  0
 31 24  1  1  0  0  0
M  END
>  <MODEL>
8

>  <REMARK>
 VINA RESULT:      -7.4      4.192      7.503
  Name = 
  5 active torsions:
  status: ('A' for Active; 'I' for Inactive)
    1  A    between atoms: C_4  and  C_12
    2  A    between atoms: C_4  and  C_32
    3  A    between atoms: C_6  and  C_23
    4  A    between atoms: C_6  and  C_25
    5  A    between atoms: C_25  and  C_28
                            x       y       z     vdW  Elec       q    Type
                         _______ _______ _______ _____ _____    ______ ____

>  <TORSDO>
F 5

$$$$
=
 OpenBabel11062419043D

 32 36  0  0  1  0  0  0  0  0999 V2000
  190.6770  173.8140  143.5260 C   0  0  0  0  0  0  0  0  0  0  0  0
  189.4270  172.0750  142.3380 O   0  0  0  0  0  1  0  0  0  0  0  0
  190.8010  175.1890  143.8710 C   0  0  0  0  0  0  0  0  0  0  0  0
  189.8570  176.1090  143.4020 C   0  0  0  0  0  3  0  0  0  0  0  0
  192.8230  174.7060  145.1540 C   0  0  0  0  0  0  0  0  0  0  0  0
  192.6860  173.3560  144.8050 C   0  0  0  0  0  0  0  0  0  0  0  0
  191.6480  172.9190  144.0180 C   0  0  0  0  0  0  0  0  0  0  0  0
  191.9840  176.9740  145.0160 O   0  0  0  0  0  1  0  0  0  0  0  0
  193.5840  172.2510  145.2130 C   0  0  0  0  0  2  0  0  0  0  0  0
  191.8700  175.6280  144.6800 C   0  0  0  0  0  0  0  0  0  0  0  0
  189.5980  173.4030  142.7100 C   0  0  0  0  0  0  0  0  0  0  0  0
  191.7260  171.4530  143.7940 C   0  0  0  0  0  3  0  0  0  0  0  0
  188.7930  175.6910  142.6030 C   0  0  0  0  0  0  0  0  0  0  0  0
  188.6700  174.3440  142.2550 C   0  0  0  0  0  3  0  0  0  0  0  0
  192.9810  171.0100  144.5530 C   0  0  0  0  0  3  0  0  0  0  0  0
  193.9770  175.1680  145.9880 C   0  0  0  0  0  2  0  0  0  0  0  0
  197.3630  174.7390  144.4070 N   0  0  0  0  0  0  0  0  0  0  0  0
  196.3920  174.4980  145.3380 C   0  0  0  0  0  0  0  0  0  0  0  0
  197.0330  175.6390  143.4830 N   0  0  0  0  0  0  0  0  0  0  0  0
  196.5680  173.6080  146.3440 F   0  0  0  0  0  0  0  0  0  0  0  0
  195.4930  176.1630  143.8130 S   0  0  0  0  0  0  0  0  0  0  0  0
  195.2250  175.2360  145.1720 C   0  0  0  0  0  0  0  0  0  0  0  0
  187.8090  176.6840  142.0940 C   0  0  0  0  0  2  0  0  0  0  0  0
  186.6440  176.8050  143.0620 C   0  0  0  0  0  2  0  0  0  0  0  0
  186.4490  178.3380  146.5530 C   0  0  0  0  0  2  0  0  0  0  0  0
  184.5840  178.9190  144.1830 C   0  0  0  0  0  3  0  0  0  0  0  0
  184.3960  178.4270  147.7390 O   0  0  0  0  0  0  0  0  0  0  0  0
  184.1250  178.6640  145.4120 C   0  0  0  0  0  3  0  0  0  0  0  0
  186.8270  177.3040  145.5000 C   0  0  0  0  0  2  0  0  0  0  0  0
  184.9590  178.4830  146.6170 C   0  0  0  0  0  0  0  0  0  0  0  0
  186.9160  177.8940  144.0880 C   0  0  2  0  0  3  0  0  0  0  0  0
  186.0330  179.1300  143.8510 C   0  0  0  0  0  2  0  0  0  0  0  0
  1  3  2  0  0  0  0
  1  7  1  0  0  0  0
  2 11  1  0  0  0  0
  3 10  1  0  0  0  0
  4  3  1  0  0  0  0
  5 16  1  0  0  0  0
  6  5  1  0  0  0  0
  6  9  1  0  0  0  0
  7  6  2  0  0  0  0
 10  8  1  0  0  0  0
 10  5  2  0  0  0  0
 11  1  1  0  0  0  0
 12  7  1  0  0  0  0
 12 15  2  0  0  0  0
 13  4  2  0  0  0  0
 14 13  1  0  0  0  0
 14 11  2  0  0  0  0
 15  9  1  0  0  0  0
 17 18  1  0  0  0  0
 18 20  1  0  0  0  0
 19 21  1  0  0  0  0
 19 17  2  0  0  0  0
 21 22  1  0  0  0  0
 22 18  2  0  0  0  0
 22 16  1  0  0  0  0
 23 13  1  0  0  0  0
 23 24  1  0  0  0  0
 25 30  1  0  0  0  0
 26 28  2  0  0  0  0
 28 30  1  0  0  0  0
 29 25  1  0  0  0  0
 30 27  2  0  0  0  0
 31 24  1  6  0  0  0
 31 29  1  0  0  0  0
 32 31  1  0  0  0  0
 32 26  1  0  0  0  0
M  END
>  <MODEL>
9

>  <REMARK>
 VINA RESULT:      -7.3      5.248      8.509
  Name = 
  5 active torsions:
  status: ('A' for Active; 'I' for Inactive)
    1  A    between atoms: C_4  and  C_12
    2  A    between atoms: C_4  and  C_32
    3  A    between atoms: C_6  and  C_23
    4  A    between atoms: C_6  and  C_25
    5  A    between atoms: C_25  and  C_28
                            x       y       z     vdW  Elec       q    Type
                         _______ _______ _______ _____ _____    ______ ____

>  <TORSDO>
F 5

$$$$
